#------------------------------------------------------------------------------
#$Date: 2021-02-04 02:53:14 +0200 (Thu, 04 Feb 2021) $
#$Revision: 261473 $
#$URL: file:///home/coder/svn-repositories/cod/cif/4/13/56/4135604.cif $
#------------------------------------------------------------------------------
#
# This file is available in the Crystallography Open Database (COD),
# http://www.crystallography.net/
#
# All data on this site have been placed in the public domain by the
# contributors.
#
data_4135604
loop_
_publ_author_name
'Benz, Maximilian'
'Klap\"otke, Thomas M'
'Krumm, Burkhard'
'Lommel, Marcus'
'Stierstorfer, J\"org'
_publ_section_title
;
 Nitrocarbamoyl Azide O<sub>2</sub>NN(H)C(O)N<sub>3</sub>: A Stable but
 Highly Energetic Member of the Carbonyl Azide Family.
;
_journal_issue                   3
_journal_name_full               'Journal of the American Chemical Society'
_journal_page_first              1323
_journal_page_last               1327
_journal_paper_doi               10.1021/jacs.0c12507
_journal_volume                  143
_journal_year                    2021
_chemical_formula_moiety         'C N5 O3, C H6 N3'
_chemical_formula_sum            'C2 H6 N8 O3'
_chemical_formula_weight         190.15
_chemical_name_common            'guanidinium nitro-carbonyl-azide'
_chemical_name_systematic        'guanidinium nitro-carbonyl-azide'
_space_group_IT_number           14
_space_group_name_Hall           '-P 2ybc'
_space_group_name_H-M_alt        'P 1 21/c 1'
_symmetry_cell_setting           monoclinic
_symmetry_Int_Tables_number      14
_symmetry_space_group_name_Hall  '-P 2ybc'
_symmetry_space_group_name_H-M   'P 1 21/c 1'
_atom_sites_solution_hydrogens   difmap
_atom_sites_solution_primary     difmap
_audit_creation_date             2020-08-18
_audit_creation_method           SHELXL-2018/3
_cell_angle_alpha                90
_cell_angle_beta                 94.328(9)
_cell_angle_gamma                90
_cell_formula_units_Z            4
_cell_length_a                   7.4975(9)
_cell_length_b                   15.4884(16)
_cell_length_c                   6.6145(8)
_cell_measurement_reflns_used    1179
_cell_measurement_temperature    113(2)
_cell_measurement_theta_max      28.7900
_cell_measurement_theta_min      2.6370
_cell_volume                     765.91(15)
_computing_cell_refinement       'CrysAlisPro 1.171.40.82a (Rigaku OD, 2020)'
_computing_data_collection       'CrysAlisPro 1.171.40.82a (Rigaku OD, 2020)'
_computing_data_reduction        'CrysAlisPro 1.171.40.82a (Rigaku OD, 2020)'
_computing_molecular_graphics    'Diamond 2.1c, Crystal Impact GbR'
_computing_publication_material  'Encifer 1.5.1, CCDC 2014'
_computing_structure_refinement  'SHELXL-2018/3 (Sheldrick, 2018)'
_computing_structure_solution    SIR-92
_diffrn_ambient_temperature      113(2)
_diffrn_detector                 'CCD plate'
_diffrn_detector_area_resol_mean 15.9809
_diffrn_detector_type            Sapphire3
_diffrn_measured_fraction_theta_full 1.000
_diffrn_measured_fraction_theta_max 1.000
_diffrn_measurement_details
;
List of Runs (angles in degrees, time in seconds):

  # Type    Start    End  Width  t~exp~   \w     \q     \k     \f   Frames
--------------------------------------------------------------------------
  1  \w    -89.00  37.00   1.00   40.00    --  -23.84   0.00  90.00  126
  2  \w    -95.00 -63.00   1.00   40.00    --  -23.84 178.00 -90.00   32
  3  \w    -20.00  41.00   1.00   40.00    --  -23.84  37.00 120.00   61
  4  \w    -93.00 -62.00   1.00   40.00    --  -23.84 178.00  90.00   31
  5  \w    -95.00 -69.00   1.00   40.00    --  -23.84-178.00   0.00   26
  6  \w    -80.00 -46.00   1.00   40.00    --  -23.84 131.00  36.24   34
  7  \w    -31.00  -5.00   1.00   40.00    --   24.63 128.00  99.98   26
  8  \w    -31.00  -5.00   1.00   40.00    --   24.63 132.00-143.63   26
  9  \w    -17.00  54.00   1.00   40.00    --   24.63 -99.00 -60.00   71
;
_diffrn_measurement_device       'four-circle diffractometer'
_diffrn_measurement_device_type  'Xcalibur, Sapphire3'
_diffrn_measurement_method       '\w scans'
_diffrn_orient_matrix_UB_11      -0.0927128000
_diffrn_orient_matrix_UB_12      0.0087205000
_diffrn_orient_matrix_UB_13      0.0021833000
_diffrn_orient_matrix_UB_21      0.0194720000
_diffrn_orient_matrix_UB_22      0.0441846000
_diffrn_orient_matrix_UB_23      0.0195121000
_diffrn_orient_matrix_UB_31      -0.0056057000
_diffrn_orient_matrix_UB_32      0.0083104000
_diffrn_orient_matrix_UB_33      -0.1057002000
_diffrn_radiation_monochromator  graphite
_diffrn_radiation_probe          x-ray
_diffrn_radiation_type           MoK\a
_diffrn_radiation_wavelength     0.71073
_diffrn_reflns_av_R_equivalents  0.0398
_diffrn_reflns_av_sigmaI/netI    0.0667
_diffrn_reflns_av_unetI/netI     0.0424
_diffrn_reflns_Laue_measured_fraction_full 1.000
_diffrn_reflns_Laue_measured_fraction_max 1.000
_diffrn_reflns_limit_h_max       9
_diffrn_reflns_limit_h_min       -7
_diffrn_reflns_limit_k_max       19
_diffrn_reflns_limit_k_min       -17
_diffrn_reflns_limit_l_max       8
_diffrn_reflns_limit_l_min       -8
_diffrn_reflns_number            6154
_diffrn_reflns_point_group_measured_fraction_full 1.000
_diffrn_reflns_point_group_measured_fraction_max 1.000
_diffrn_reflns_theta_full        25.242
_diffrn_reflns_theta_max         26.367
_diffrn_reflns_theta_min         2.630
_diffrn_source                   'fine-focus sealed X-ray tube'
_exptl_absorpt_coefficient_mu    0.147
_exptl_absorpt_correction_T_max  1.00000
_exptl_absorpt_correction_T_min  0.85343
_exptl_absorpt_correction_type   multi-scan
_exptl_absorpt_process_details
;
CrysAlisPro 1.171.40.82a (Rigaku Oxford Diffraction, 2020)
Empirical absorption correction using spherical harmonics,
implemented in SCALE3 ABSPACK scaling algorithm.
;
_exptl_crystal_colour            colorless
_exptl_crystal_density_diffrn    1.649
_exptl_crystal_description       block
_exptl_crystal_F_000             392
_exptl_crystal_size_max          0.587
_exptl_crystal_size_mid          0.275
_exptl_crystal_size_min          0.177
_refine_diff_density_max         0.177
_refine_diff_density_min         -0.206
_refine_diff_density_rms         0.047
_refine_ls_extinction_method     none
_refine_ls_goodness_of_fit_ref   1.042
_refine_ls_hydrogen_treatment    refall
_refine_ls_matrix_type           full
_refine_ls_number_parameters     142
_refine_ls_number_reflns         1564
_refine_ls_number_restraints     0
_refine_ls_restrained_S_all      1.042
_refine_ls_R_factor_all          0.0557
_refine_ls_R_factor_gt           0.0379
_refine_ls_shift/su_max          0.000
_refine_ls_shift/su_mean         0.000
_refine_ls_structure_factor_coef Fsqd
_refine_ls_weighting_details
'w=1/[\s^2^(Fo^2^)+(0.0397P)^2^+0.0669P] where P=(Fo^2^+2Fc^2^)/3'
_refine_ls_weighting_scheme      calc
_refine_ls_wR_factor_gt          0.0839
_refine_ls_wR_factor_ref         0.0923
_reflns_Friedel_coverage         0.000
_reflns_number_gt                1234
_reflns_number_total             1564
_reflns_threshold_expression     'I > 2\s(I)'
_cod_data_source_file            ja0c12507_si_001.cif
_cod_data_source_block           px298
_cod_original_sg_symbol_H-M      'P 21/c'
_cod_database_code               4135604
_shelx_space_group_comment
;
The symmetry employed for this shelxl refinement is uniquely defined
by the following loop, which should always be used as a source of
symmetry information in preference to the above space-group names.
They are only intended as comments.
;
_shelx_estimated_absorpt_t_min   0.919
_shelx_estimated_absorpt_t_max   0.974
_shelx_res_file
;
TITL v1_a.res in P2(1)/c
    shelx.res
    created by SHELXL-2018/3 at 15:27:55 on 28-Sep-2020
CELL  0.71073   7.4975  15.4884   6.6145   90.000   94.328   90.000
ZERR     4.00   0.0009   0.0016   0.0008    0.000    0.009    0.000
LATT   1
SYMM  - X, 1/2 + Y, 1/2 - Z
SFAC  C    H    N    O
UNIT  8 24 32 12
MERG   2
SHEL 1000 0.8
FMAP   2   53   53
PLAN   20
SIZE     0.177   0.275   0.587
ACTA
BOND   $H
CONF
LIST   4
L.S.  10
TEMP  -160.00
WGHT    0.039700    0.066900
FVAR       0.53883
O1    4    0.465293    0.525337    0.258928    11.00000    0.02013    0.01474 =
         0.03747   -0.00226   -0.00419    0.00312
O2    4    0.226304    0.430407    0.049833    11.00000    0.02215    0.01880 =
         0.04567    0.00029   -0.01243    0.00478
O3    4    0.280918    0.293222    0.053496    11.00000    0.02824    0.01571 =
         0.05201   -0.00529   -0.01030   -0.00330
N7    3    0.356359    0.704226    0.257986    11.00000    0.01956    0.01270 =
         0.03298   -0.00099   -0.00284   -0.00010
N6    3    0.131375    0.613955    0.133945    11.00000    0.01666    0.01550 =
         0.03690   -0.00348   -0.00441   -0.00046
N1    3    0.727868    0.448148    0.332137    11.00000    0.01878    0.01548 =
         0.02993   -0.00302   -0.00555   -0.00015
N4    3    0.493284    0.376551    0.186393    11.00000    0.01795    0.01582 =
         0.02817   -0.00117   -0.00484    0.00052
N2    3    0.784595    0.518245    0.408656    11.00000    0.01673    0.02231 =
         0.02744    0.00044   -0.00305    0.00126
N5    3    0.327488    0.368478    0.095122    11.00000    0.01919    0.01798 =
         0.02768   -0.00025   -0.00224   -0.00041
N8    3    0.082265    0.760325    0.148015    11.00000    0.02171    0.01499 =
         0.02789   -0.00093   -0.00371    0.00030
N3    3    0.844870    0.578178    0.479496    11.00000    0.02661    0.02547 =
         0.04350   -0.00664   -0.00301   -0.00464
C2    1    0.191474    0.692996    0.179078    11.00000    0.01788    0.01578 =
         0.01873    0.00005    0.00160   -0.00057
C1    1    0.544645    0.456597    0.252872    11.00000    0.01778    0.01625 =
         0.02170    0.00243    0.00043    0.00158
H8A   2   -0.020078    0.751578    0.084426    11.00000    0.03400
H7A   2    0.426430    0.660809    0.278283    11.00000    0.03776
H7B   2    0.405588    0.757333    0.280556    11.00000    0.03629
H6A   2    0.021618    0.608025    0.075557    11.00000    0.04314
H8B   2    0.124286    0.812286    0.164662    11.00000    0.03882
H6B   2    0.206539    0.568560    0.144124    11.00000    0.04345
HKLF    4




REM  v1_a.res in P2(1)/c
REM wR2 = 0.0923, GooF = S = 1.042, Restrained GooF = 1.042 for all data
REM R1 = 0.0379 for 1234 Fo > 4sig(Fo) and 0.0557 for all 1564 data
REM 142 parameters refined using 0 restraints

END

WGHT      0.0397      0.0669

REM Highest difference peak  0.177,  deepest hole -0.206,  1-sigma level  0.047
Q1    1   0.9963  0.5772  0.5398  11.00000  0.05    0.18
Q2    1  -0.0415  0.8188 -0.1190  11.00000  0.05    0.17
Q3    1   0.2068  0.6415  0.0248  11.00000  0.05    0.17
Q4    1   0.5858  0.3584  0.1366  11.00000  0.05    0.16
Q5    1   0.7896  0.4165  0.2433  11.00000  0.05    0.15
Q6    1   0.2884  0.4778 -0.0800  11.00000  0.05    0.15
Q7    1   0.6586  0.4401  0.4480  11.00000  0.05    0.15
Q8    1   0.6165  0.5203  0.3243  11.00000  0.05    0.15
Q9    1   0.1754  0.6570  0.1167  11.00000  0.05    0.15
Q10   1   0.0918  0.4152  0.0366  11.00000  0.05    0.14
Q11   1   0.4807  0.4012  0.2817  11.00000  0.05    0.14
Q12   1   0.7957  0.5808  0.6443  11.00000  0.05    0.14
Q13   1   0.3449  0.5317  0.2019  11.00000  0.05    0.14
Q14   1  -0.0432  0.7433  0.1377  11.00000  0.05    0.14
Q15   1   0.1315  0.6543  0.2413  11.00000  0.05    0.14
Q16   1   0.7663  0.4805  0.1964  11.00000  0.05    0.14
Q17   1   0.2632  0.4535  0.2143  11.00000  0.05    0.14
Q18   1   0.1624  0.2804 -0.0123  11.00000  0.05    0.13
Q19   1   0.2309  0.3983  0.1630  11.00000  0.05    0.13
Q20   1   0.7543  0.4759  0.3377  11.00000  0.05    0.13
;
_shelx_res_checksum              38851
_shelx_hkl_file
;
   0   0  -1    0.80    0.50
   0   0  -1    1.60    0.60
   0   0   1    1.40    0.60
   0   0  -1    1.70    0.50
   0   0   1    0.70    0.40
   0   0   1    0.10    0.40
   0   0  -1    0.10    0.40
   0   0   1   -0.60    0.50
   0   0  -2  372.66    5.20
   0   0  -2  362.16    8.70
   0   0   2  342.37    8.10
   0   0   2  354.36    8.50
   0   0  -2  367.56    8.50
   0   0  -2  368.46    8.30
   0   0  -2  371.86    8.70
   0   0   3    0.40    1.10
   0   0   3   -0.80    1.10
   0   0  -3    1.30    0.60
   0   0   4    1.50    1.10
   0   0  -4    4.50    0.80
   0   0   4    4.60    1.60
   0   0  -5    0.10    0.50
   0   0   5    1.30    1.10
   0   0  -6    8.20    2.50
   0   0   6   12.30    3.10
   0   0  -7   -0.10    1.70
   0   0   7   -1.30    1.20
   0   0  -8    2.10    1.50
   0   0   8    1.80    2.00
   0   0  -9    2.50    2.00
   0   0  -9    4.80    3.60
   0  -1   1   70.59    2.80
   0   1   1   67.89    2.20
   0   1   1   69.39    2.60
   0   1  -1   64.39    2.60
   0  -1   1   61.99    2.70
   0  -1  -1   73.59    2.80
   0   1   1   67.79    2.70
   0  -1  -1   59.49    2.50
   0  -1  -1   65.49    2.70
   0   1  -1   70.29    2.80
   0   1  -1   64.29    2.30
   0  -1   1   66.69    2.60
   0  -1  -1   70.09    2.60
   0   1  -1   62.99    2.50
   0   1  -2    5.00    1.40
   0  -1  -2    5.30    1.30
   0  -1  -2    4.00    0.90
   0   1   2    5.50    1.20
   0  -1   2    3.70    1.10
   0   1   2    3.90    1.30
   0   1  -2    4.80    1.40
   0  -1  -2    3.70    1.00
   0   1  -2    3.90    1.30
   0  -1  -2    3.30    0.80
   0  -1   2    7.20    1.40
   0  -1  -2    4.00    1.20
   0   1  -2    8.00    1.70
   0   1  -2    5.10    1.00
   0   1   2    4.60    1.20
   0   1   3    3.70    1.50
   0   1  -3    3.00    0.70
   0  -1  -3    3.90    0.90
   0  -1   3    2.00    0.70
   0   1   3    4.20    1.30
   0   1  -3    3.60    1.30
   0   1  -4  257.97    5.30
   0   1  -4  218.48    5.00
   0  -1   4  253.37   10.50
   0   1   4  260.47   10.30
   0   1   4  231.48   10.00
   0  -1  -4  251.57    6.60
   0   1  -4  264.97   10.50
   0   1  -5    5.80    0.90
   0   1  -5   10.20    2.60
   0  -1  -5    8.20    1.40
   0   1   5   10.00    2.50
   0   1   5    5.00    1.90
   0  -1   5    8.90    2.50
   0   1   6   53.89    6.10
   0  -1  -6   50.69    5.80
   0  -1   6   57.49    6.40
   0   1  -6   56.59    6.30
   0  -1   7   -0.30    1.50
   0  -1  -7    1.50    1.40
   0   1   7    0.90    1.30
   0   1  -7    0.70    1.80
   0  -1   8   11.70    4.00
   0  -1  -8   13.90    4.00
   0  -1  -8   15.80    4.20
   0   1  -8   18.40    4.50
   0   1  -9    7.70    3.90
   0  -1  -9    1.10    1.80
   0  -1  -9    4.50    3.10
   0   1  -9    0.00    1.70
   0   2   0  330.47    5.30
   0  -2   0  265.47    4.80
   0   2   1   44.70    2.40
   0   2  -1   45.10    2.20
   0  -2   1   45.10    2.20
   0  -2  -1   45.30    2.30
   0  -2  -1   44.20    2.20
   0  -2  -1   44.80    2.50
   0   2   1   46.00    2.30
   0  -2   1   51.29    2.70
   0  -2   1   43.60    2.60
   0   2  -2    0.80    0.80
   0  -2   2    1.00    0.70
   0   2   2    0.70    0.70
   0  -2   2   -0.50    0.80
   0   2   2    2.40    1.20
   0  -2  -2    2.20    0.90
   0   2  -2    1.10    1.00
   0   2  -2    0.80    0.80
   0  -2  -2    1.00    1.00
   0   2   2    0.30    0.90
   0   2   2    0.40    0.50
   0   2   3  104.19    5.90
   0  -2  -3  106.19    4.30
   0  -2   3   98.19    5.70
   0   2   3  101.19    5.70
   0   2  -3  100.39    5.70
   0   2  -3   87.29    4.30
   0   2   4   48.70    4.70
   0  -2  -4   46.90    3.30
   0   2  -4   50.89    4.70
   0   2   4   55.69    4.80
   0   2  -4   39.70    2.80
   0  -2   4   43.20    4.40
   0   2  -5    5.00    1.00
   0  -2   5    1.40    1.70
   0   2   5    2.40    1.60
   0   2   5    6.20    2.30
   0   2  -5    3.80    0.90
   0   2  -5    3.80    0.70
   0   2  -5    2.50    1.60
   0   2  -6   30.80    4.80
   0  -2   6   28.10    4.50
   0   2   6   29.10    4.70
   0   2  -7    3.70    1.90
   0  -2   7    1.70    1.40
   0  -2  -7    6.80    2.40
   0   2  -8    0.90    2.10
   0  -2  -8   -0.80    2.10
   0  -2   8    1.60    1.80
   0  -2  -8   -4.10    2.80
   0  -2  -9    7.20    3.00
   0  -2   9    5.20    2.40
   0   2  -9    4.50    2.80
   0   2  -9    6.40    2.80
   0  -2  -9    6.10    3.60
   0  -3   0    1.60    0.70
   0   3   0    0.10    0.60
   0  -3  -1 1458.65   12.40
   0  -3  -1 1521.25   15.20
   0   3  -1 1503.85   13.30
   0  -3   1 1469.15   12.10
   0   3   1 1459.25   15.00
   0   3  -1 1477.55   12.40
   0  -3  -1 1493.25   14.50
   0   3   1 1445.76   14.20
   0   3   2  192.18    6.00
   0  -3  -2  177.28    6.20
   0  -3  -2  193.48    6.00
   0   3  -2  190.68    6.30
   0   3  -2  186.08    5.30
   0   3   2  169.88    4.40
   0   3   2  193.88    6.50
   0  -3   2  194.28    7.10
   0  -3   2  177.78    6.10
   0   3   2  166.08    6.50
   0   3   3  212.18    8.30
   0   3  -3  239.18    7.20
   0  -3   3  205.58    8.60
   0   3   3  230.08    8.50
   0   3  -3  223.18    8.70
   0   3   3  221.58    6.80
   0   3   4   19.10    2.90
   0   3  -4   16.90    2.90
   0   3  -4   11.70    2.00
   0  -3   4   13.80    2.80
   0   3  -5    2.10    1.70
   0  -3   5    2.40    1.30
   0   3   5   -1.10    1.60
   0   3  -5    0.30    0.30
   0   3  -5   -0.20    0.70
   0  -3   6    7.00    2.50
   0   3   6    9.10    2.30
   0   3  -6    9.00    2.50
   0  -3   7    5.50    2.70
   0   3   7    3.30    2.10
   0   3  -7    8.40    3.00
   0  -3  -8    2.30    1.50
   0   3  -8   -1.20    1.90
   0  -3  -8   -0.40    2.00
   0  -3   8    0.80    1.50
   0  -3  -9    6.90    4.00
   0  -3   9   -2.80    2.30
   0   3  -9    2.70    2.70
   0   3  -9    6.10    3.70
   0  -3  -9    2.50    2.00
   0   4   0  160.18    5.20
   0   4   0  160.48    3.00
   0  -4   0  166.68    5.40
   0  -4  -1  294.37    6.40
   0   4   1  276.87    7.40
   0   4  -1  291.77    6.90
   0  -4   1  279.87    5.30
   0  -4  -1  288.47    6.70
   0   4   1  275.27    6.60
   0  -4  -1  322.27    8.00
   0   4   2  204.58    7.20
   0   4  -2  200.08    5.60
   0   4   2  224.18    5.80
   0   4  -2  209.78    6.60
   0   4  -2  212.78    5.40
   0  -4   2  200.68    6.50
   0   4   2  213.38    7.00
   0  -4   2  203.58    7.80
   0   4   3  244.28    9.10
   0   4   3  241.88    9.00
   0   4  -3  239.88    5.80
   0   4   3  232.48    5.30
   0  -4   3  233.28    9.40
   0   4   3  249.68    8.00
   0   4  -4   63.59    5.70
   0  -4   4   66.19    5.70
   0   4   4   63.89    5.40
   0   4  -4   60.59    2.80
   0   4   4   64.49    5.40
   0   4  -5    1.00    1.30
   0   4   5    0.90    1.50
   0   4  -5    1.70    0.50
   0  -4   5    0.20    1.00
   0   4   6   21.10    4.10
   0  -4   6   22.60    4.40
   0   4  -6   26.10    4.60
   0   4  -7    5.20    3.00
   0  -4  -7    4.50    2.20
   0   4   7    2.40    2.40
   0  -4   7    3.80    2.40
   0   4  -8    7.10    3.30
   0  -4  -8    2.70    1.80
   0  -4   8    4.40    2.80
   0   4   8    2.80    2.10
   0  -4   9   -1.20    1.90
   0   4  -9    4.50    3.10
   0  -4  -9    2.00    2.30
   0  -4  -9    4.80    3.40
   0   5   0    0.10    0.40
   0   5   0    0.60    0.70
   0   5   0    0.30    0.40
   0  -5  -1   98.49    3.20
   0  -5  -1   96.09    3.80
   0  -5   1   92.09    3.10
   0   5   1   92.59    4.80
   0  -5  -1   98.89    4.20
   0   5   1   90.89    4.00
   0   5  -1   90.69    4.40
   0   5   2   89.49    5.00
   0   5   2   94.49    4.50
   0  -5   2   95.39    5.50
   0   5  -2   86.49    4.20
   0  -5   2   91.09    4.40
   0   5   2   95.89    5.10
   0   5  -2   94.69    3.30
   0  -5   3  253.37   10.10
   0   5   3  243.48    6.60
   0   5   3  251.47    8.80
   0   5   3  239.08    9.20
   0   5  -3  238.48    6.60
   0   5   4  176.28    9.10
   0   5  -4  178.18    5.40
   0   5   4  176.88    9.00
   0  -5   4  168.38    9.40
   0   5   4  179.18    7.80
   0   5   4  169.68    4.20
   0   5   5   34.50    4.60
   0   5  -5   29.50    1.90
   0  -5   5   38.50    5.20
   0  -5   6   10.50    3.10
   0   5   6   14.90    3.40
   0  -5  -7   -0.40    2.30
   0   5   7    1.90    2.20
   0  -5   7    5.00    2.70
   0   5   8    3.40    2.80
   0  -5  -8    0.40    1.70
   0  -5   8   -1.20    2.00
   0  -5   9    5.70    3.40
   0   5  -9    9.80    4.00
   0  -5  -9    5.00    2.20
   0  -5  -9    6.10    4.20
   0   6   0  284.37    4.90
   0   6   0  286.87    5.10
   0   6   0  277.07    8.50
   0  -6  -1  108.69    4.20
   0  -6   1  105.69    3.30
   0   6   1  102.19    4.40
   0  -6  -1  104.49    3.30
   0   6   1  101.59    5.50
   0   6  -1  106.19    5.10
   0   6  -2  224.68    7.30
   0   6  -2  217.48    4.60
   0  -6  -2  204.78    7.50
   0   6   2  217.38    8.40
   0   6   2  215.18    7.90
   0   6  -3  172.18    6.30
   0   6  -3  166.88    5.70
   0   6   3  161.18    7.80
   0   6   3  174.78    7.90
   0   6   3  173.28    6.40
   0  -6   3  166.28    8.70
   0   6   4    6.00    2.10
   0   6   4    5.50    1.40
   0   6  -4    4.80    1.20
   0   6   4    3.50    0.90
   0   6   4    1.00    1.00
   0  -6   4    2.80    0.90
   0   6   5    5.90    2.50
   0   6   5    3.20    2.00
   0  -6   5    6.90    2.40
   0   6  -5    5.60    1.00
   0  -6  -6   44.20    5.80
   0  -6   6   43.50    5.90
   0   6   6   46.40    5.90
   0   6   7    9.10    3.30
   0  -6  -7    7.70    3.00
   0  -6   7   10.90    3.70
   0   6   8    2.60    2.80
   0  -6   8    0.40    2.60
   0  -6  -8    4.00    2.90
   0  -6  -9   15.60    5.00
   0  -6  -9   27.60    6.30
   0   6  -9   26.50    5.80
   0  -6   9   18.30    4.90
   0   7   0    0.30    1.10
   0   7   0    0.20    0.50
   0  -7  -1   10.80    1.10
   0   7   1   10.20    1.90
   0  -7  -1   12.00    1.60
   0   7   1   12.40    1.60
   0   7  -1   10.90    1.90
   0  -7  -2   22.90    2.60
   0   7  -2   24.50    1.30
   0   7  -2   22.20    2.50
   0   7   2   21.80    3.00
   0   7   2   26.00    2.90
   0  -7  -3  101.79    6.30
   0   7  -3  112.69    4.40
   0   7   3  107.29    6.70
   0   7  -3  111.39    5.40
   0   7   3  107.69    6.50
   0  -7   3  101.09    7.10
   0  -7   4   57.09    5.70
   0   7   4   55.89    3.70
   0  -7  -4   57.69    5.50
   0   7  -4   56.79    3.70
   0   7   4   55.99    5.00
   0   7   4   59.39    5.50
   0   7   5    7.30    2.70
   0  -7   5    9.20    2.90
   0   7   5    7.30    2.80
   0  -7  -5    6.20    1.80
   0   7  -5    5.50    1.20
   0  -7  -6   20.30    4.00
   0  -7   6   20.60    4.30
   0   7   6   19.50    4.20
   0   7   7   14.70    3.90
   0  -7   7   19.10    4.60
   0  -7  -7   17.20    4.20
   0  -7   8   -1.00    1.80
   0  -7  -8   -0.40    1.80
   0   7  -9    3.40    2.60
   0  -7   9    8.00    3.70
   0   8   0   20.30    2.80
   0  -8  -1    0.80    0.40
   0   8   1    0.30    0.70
   0   8  -1    0.20    0.70
   0   8   1   -1.50    1.30
   0   8   2   24.50    3.20
   0  -8  -2   22.20    2.70
   0   8  -2   24.00    2.90
   0   8  -3   51.09    4.00
   0  -8  -3   45.70    4.30
   0  -8   3   48.80    5.20
   0   8   3   50.69    4.90
   0   8  -3   50.49    2.70
   0   8   4  239.78   10.80
   0  -8  -4  224.28   10.70
   0   8  -4  233.68    8.10
   0   8   4  221.38   10.80
   0  -8   4  219.38   11.50
   0   8   5    7.90    2.60
   0  -8   5   10.70    2.90
   0   8  -5   11.30    1.70
   0  -8  -5    7.90    2.30
   0   8   5    7.60    2.50
   0  -8   6    3.50    2.20
   0  -8  -6    0.40    1.40
   0   8   7   -0.30    1.70
   0  -8   7   -1.20    1.80
   0  -8  -7   -2.50    2.30
   0  -8  -8    0.80    2.00
   0   8   8    4.70    3.40
   0  -8   8    0.30    1.50
   0  -8   9    1.30    2.20
   0   9   0    1.30    1.10
   0   9  -1   56.29    4.70
   0  -9  -1   63.29    2.30
   0   9   1   61.89    5.20
   0   9   2    2.80    1.20
   0  -9  -2    4.60    1.10
   0   9  -2    2.60    1.00
   0  -9  -3   54.29    4.80
   0   9  -3   58.09    4.60
   0  -9   3   57.99    5.80
   0   9   3   61.69    5.60
   0   9  -4   38.40    3.60
   0  -9   4   34.30    4.90
   0  -9  -4   35.40    4.40
   0   9   4   40.40    4.80
   0   9   4   36.20    4.70
   0  -9   5    5.60    2.50
   0  -9  -5    5.10    1.90
   0   9  -5    4.50    1.40
   0   9   5    9.20    3.10
   0   9   5    4.90    2.40
   0   9   5    6.10    2.20
   0   9   6    2.00    1.90
   0  -9   6    4.10    2.00
   0   9   6    2.60    2.10
   0  -9  -6    3.10    2.70
   0  -9  -7    3.70    2.50
   0   9   7    0.60    1.90
   0  -9   7    4.40    2.50
   0   9   8   22.60    5.60
   0  -9  -8   25.80    5.80
   0  -9   8   17.60    5.00
   0  10   0   16.50    2.90
   0  10  -1    0.80    1.10
   0  10  -1    0.60    0.40
   0  10   1   -2.10    1.50
   0  10  -2   12.20    2.40
   0 -10  -2   11.80    1.60
   0 -10  -2   14.20    2.40
   0  10   2    9.70    2.50
   0  10   3   -0.70    1.30
   0  10  -3    2.60    1.60
   0 -10   3    1.70    1.20
   0 -10  -3    1.10    1.30
   0 -10  -4    5.80    2.00
   0  10  -4    4.10    1.50
   0  10   4    4.30    1.90
   0 -10   4    3.70    2.20
   0  10   4    7.60    2.60
   0  10   5   19.50    3.80
   0 -10   5   22.00    4.20
   0  10   5   23.00    4.30
   0 -10  -5   16.20    3.50
   0 -10   6    1.10    2.00
   0 -10  -6    2.50    2.00
   0  10   6    1.60    1.90
   0  10   6   -0.10    1.60
   0  10   7   19.60    4.80
   0 -10   7   14.90    4.30
   0 -10  -7   15.40    4.10
   0  10   8    6.30    3.80
   0 -10  -8    4.00    4.20
   0 -10   8    0.40    2.40
   0  11   0   10.50    2.90
   0  11   1   19.10    3.60
   0  11  -1   17.30    3.20
   0  11  -2   39.40    4.30
   0  11   2   45.80    5.20
   0 -11  -2   43.40    2.90
   0 -11   3   42.80    5.40
   0 -11  -3   41.20    4.40
   0  11   3   43.70    5.10
   0  11  -3   36.80    4.30
   0  11   4   -0.10    1.50
   0 -11  -4    0.30    1.10
   0 -11   4    4.20    2.20
   0  11   4    1.50    2.20
   0  11  -4    1.00    1.20
   0  11   5   14.80    3.40
   0 -11  -5   11.70    3.10
   0  11   5   15.00    3.20
   0 -11   5   13.20    3.60
   0  11   6   -0.50    1.60
   0 -11  -6    2.70    1.80
   0 -11   6   -2.40    2.10
   0  11   6    1.00    1.70
   0 -11   7    5.40    2.80
   0  11   7    5.90    3.10
   0 -11  -7    4.80    2.90
   0 -11   8    6.30    3.10
   0 -11  -8    8.60    4.30
   0  11   8   13.90    4.70
   0  12   0  392.96   14.80
   0  12  -1  421.26   15.10
   0  12   1  434.96   16.10
   0  12   2  178.88   10.60
   0  12  -2  164.48    9.30
   0  12   3   13.50    3.30
   0  12  -3   10.00    2.40
   0 -12   3   10.30    3.10
   0 -12  -3   12.60    2.40
   0  12  -4    4.40    1.60
   0 -12  -4    4.80    2.10
   0  12   4    0.70    1.40
   0  12   4    5.30    2.60
   0 -12   4    3.90    2.10
   0  12   5    0.40    1.90
   0 -12   5   -3.50    2.40
   0  12   5    4.30    2.80
   0 -12  -5   -1.60    1.80
   0 -12  -6   15.40    3.90
   0  12   6   16.10    3.70
   0 -12   6   20.70    4.70
   0  12   6   13.70    3.60
   0 -12  -7    3.80    3.00
   0 -12   7   -1.30    1.50
   0  12   7    1.40    2.10
   0 -12  -8   -1.30    2.70
   0 -12   8   -2.00    1.90
   0  13   0    1.30    1.40
   0  13   1   71.59    7.00
   0  13  -1   69.99    6.60
   0  13  -2   21.30    3.60
   0  13   2   28.00    4.80
   0  13   3   42.30    5.70
   0  13  -3   37.70    4.70
   0 -13  -4   12.20    2.80
   0 -13   4   11.80    3.30
   0  13   4   14.90    4.00
   0  13  -4   13.20    3.00
   0  13   5    4.00    2.60
   0 -13  -5    1.70    1.50
   0  13   5    2.80    2.50
   0 -13   5    5.30    2.50
   0 -13   6    1.00    1.30
   0 -13  -6    1.70    1.60
   0  13   6    0.40    1.70
   0  13   6    1.20    1.70
   0 -13  -7    3.90    2.30
   0 -13   7    8.10    3.20
   0  13   7    8.80    3.70
   0  13   7   15.30    4.70
   0  14   0    3.60    1.90
   0  14  -1   52.79    5.90
   0  14   1   58.29    6.70
   0  14   2  154.48   10.80
   0  14  -2  153.18    9.90
   0  14   3   10.50    3.60
   0  14  -3    8.70    2.60
   0 -14  -4   11.60    3.10
   0  14  -4    7.60    2.30
   0  14   4    9.50    3.10
   0 -14   4    9.50    3.30
   0  14   5   26.00    5.20
   0 -14  -5   31.70    5.20
   0 -14   5   32.80    5.80
   0  14   5   26.90    5.00
   0  14   6    5.80    3.10
   0 -14   6   -0.20    1.70
   0 -14  -6    0.70    2.20
   0  14   6   -0.70    1.90
   0  14   7    0.10    1.90
   0  14   7   -2.60    1.90
   0 -14  -7   -0.70    2.00
   0 -14   7   -1.80    2.40
   0  15   0    3.50    2.10
   0  15   1  102.59    8.90
   0  15  -1   89.89    8.20
   0  15   2  140.89   10.80
   0  15  -2  125.99    9.50
   0  15   3   13.30    4.50
   0  15  -3   10.60    2.80
   0  15  -4    2.70    1.80
   0  15   4    2.90    2.20
   0 -15   4    1.60    1.50
   0  15   5    0.40    2.20
   0 -15   5    1.20    1.80
   0  15   5    3.20    2.80
   0 -15  -5    1.60    2.20
   0 -15  -6    6.00    3.30
   0  15   6   -3.10    2.30
   0  15   6    2.90    2.70
   0 -15   6   -0.80    1.90
   0  15   7    6.50    3.80
   0 -15   7    3.60    2.50
   0 -15  -7    2.30    2.30
   0  16   0   67.19    7.40
   0  16   1  106.69    9.40
   0  16  -1   94.39    8.60
   0  16  -2    4.20    2.70
   0  16   2    3.20    2.80
   0  16   3   90.89    9.10
   0  16  -3   75.09    7.60
   0 -16   4   39.40    6.30
   0  16  -4   39.60    5.70
   0  16   4   43.50    6.90
   0 -16   5    0.20    2.10
   0  16   5   -1.10    1.80
   0  16   5    1.10    2.40
   0  16   6   24.60    5.60
   0 -16   6   29.40    6.00
   0  17   0    4.80    2.40
   0  17  -1   -2.30    2.00
   0  17   1    0.90    2.40
   0  17  -2   38.30    5.80
   0  17   2   50.89    7.10
   0  17   3    0.60    2.50
   0  17  -3   -0.90    1.80
   0  17   4   11.80    4.30
   0  17  -4   12.20    3.50
   0 -17   4   20.10    4.80
   0 -17   5    1.10    2.10
   0  17   5   -1.40    2.60
   0  17   5   -2.40    2.70
   0 -17   6    1.70    1.50
   0  17   6    2.50    3.30
   0  18   0   39.50    6.20
   0  18   1    9.00    3.70
   0  18  -1    2.90    2.30
   0  18  -2    2.10    2.50
   0  18   2    1.60    2.50
   0  18   3    4.30    3.30
   0  18  -3    0.70    1.60
   0  18   4   21.90    5.00
   0 -18   4   12.90    4.20
   0  18   5    7.30    3.30
   0  18   5    3.00    2.70
   0 -18   5    4.60    2.30
   0  19   0    3.90    3.40
   0  19  -1    2.20    2.70
   0  19   1    2.30    2.30
   0  19   2   19.10    4.80
   0  19  -2   15.70    4.50
   0  19   3   10.20    4.50
   0  19  -3   13.10    3.70
   0 -19   4    4.90    2.70
   0  19   4    4.10    2.50
   0  19   5    1.50    2.70
   0  19   5    0.00    2.00
   0  20   0    3.70    2.10
   0  20   1   27.30    6.20
   0  20  -1   20.00    4.90
   0  20  -2   15.70    4.40
   0  20   2   20.80    5.20
   0  20  -3   -2.00    2.40
   0  20   3    2.90    4.20
   0 -20   3   -2.70    2.00
   0  20   4    3.30    2.80
   0 -20   4   -2.00    2.10
   0  21   0    5.90    3.00
   0  21  -1   17.70    4.30
   0  21   1   17.30    5.40
   0  21   2    7.50    4.80
   0  21  -2   11.90    4.40
   0  21  -3   16.00    4.30
   0  21   3   15.60    5.00
   0  22   0   61.49    8.70
   0  22   1    8.00    4.00
   0  22  -1    2.40    3.50
   0  22  -2    0.70    2.20
   0  22  -3   -2.30    1.80
   1   0  -9    2.70    2.50
   1   0  -9   -1.60    2.00
   1   0  -8    2.50    3.00
   1   0  -8    6.80    3.30
   1   0  -7   -0.50    1.60
   1   0  -7   -1.80    2.00
  -1   0   7    1.20    1.80
   1   0  -6  113.29    8.90
   1   0  -6  120.79    9.10
  -1   0   6  108.89    8.40
  -1   0   5    1.30    1.80
  -1   0   5   -3.10    1.50
   1   0  -4   74.79    2.30
  -1   0   4   73.29    5.30
  -1   0   4   69.99    5.30
  -1   0   4   77.39    6.00
   1   0  -3   -0.60    1.10
  -1   0   3    0.00    0.70
  -1   0   3    1.60    1.10
  -1   0   3   -1.50    1.20
   1   0  -3    0.80    0.40
   1   0  -2 9619.94   28.60
   1   0  -2 9999.00   40.40
   1   0  -2 9543.25   43.50
  -1   0   2 9705.83   45.50
   1   0  -2 9958.40   42.50
  -1   0   2 9894.41   30.50
  -1   0   1    0.70    0.40
   1   0  -1    0.90    0.70
   1   0  -1    0.60    0.40
   1   0  -1    1.00    0.40
   1   0  -1    0.60    0.60
  -1   0   1    0.60    0.40
  -1   0   1    1.70    0.40
   1   0  -1    0.80    0.40
  -1   0   1    0.80    0.60
   1   0   0  402.46    5.70
  -1   0   0   28.10    1.70
   1   0   1    5.10    0.80
   1   0   1    5.30    1.10
  -1   0  -1    6.20    0.90
  -1   0  -1    4.90    0.90
   1   0   1    5.40    0.80
  -1   0  -1    5.80    0.90
  -1   0  -1    5.30    1.00
   1   0   2  649.24   11.50
   1   0   2  679.63   11.90
  -1   0  -2  640.64    7.60
   1   0   2  625.74    8.50
   1   0   2  652.23   12.50
   1   0   3    0.50    1.10
   1   0   3    0.40    0.80
   1   0   3    0.70    1.10
  -1   0  -3    0.20    0.40
  -1   0  -4  837.02    8.10
  -1   0  -4  820.72   18.50
   1   0   4  811.02   19.40
   1   0   4  856.01   18.80
   1   0   5   -0.10    1.30
  -1   0  -5    0.80    1.10
  -1   0  -6   47.50    6.00
   1   0   6   57.09    6.60
  -1   0  -7   -0.50    2.10
   1   0   7    0.10    1.60
  -1   0  -8   15.80    4.50
   1   0   8    8.90    3.20
  -1   0  -9   -2.00    1.80
   1  -1  -9   -0.50    2.40
   1  -1  -9    3.60    2.90
   1   1  -9   -1.60    2.50
   1   1  -9    5.80    3.10
   1  -1  -8   -1.50    1.60
   1   1  -8   -2.00    1.80
   1  -1  -8   -2.00    2.30
   1   1  -8    0.70    1.90
  -1  -1   8   -1.60    1.90
  -1  -1   7    1.70    1.60
   1  -1  -7    0.40    1.40
   1   1  -7    2.90    2.20
   1   1  -7    1.40    2.00
   1  -1  -7    1.30    1.80
   1  -1  -6   33.90    5.10
   1   1  -6   33.00    4.90
   1   1  -6   38.90    5.00
  -1   1   6   29.90    4.70
  -1   1   6   33.30    4.80
  -1  -1   6   33.00    4.80
  -1   1   5   11.10    2.80
   1   1  -5    9.70    1.00
   1  -1  -5    8.20    2.10
   1   1  -5    9.40    2.40
   1   1  -5    3.80    0.80
  -1   1   5   10.00    2.40
  -1  -1   5    9.00    2.20
   1   1  -4   25.90    3.40
  -1   1   4   25.70    3.20
  -1  -1   4   22.90    3.00
  -1   1   4   25.50    3.30
  -1  -1   4   28.50    3.70
  -1   1   4   30.20    3.50
   1   1  -4   29.20    1.90
   1  -1  -4   22.50    3.10
   1   1  -3   -0.40    0.30
  -1   1   3   -1.50    1.10
  -1   1   3   -0.10    0.30
  -1  -1   3    2.10    0.90
   1   1  -3   -0.30    0.80
  -1   1   3    0.20    1.00
   1  -1  -3    0.70    0.90
   1  -1  -3    0.00    0.30
  -1  -1   3    1.30    1.00
  -1   1   3    0.30    0.80
  -1  -1   2 4179.48   30.40
   1   1  -2 4178.48   28.00
  -1   1   2 4173.88   26.90
  -1   1   2 4143.29   18.10
  -1   1   2 4110.09   19.40
  -1   1   2 4154.78   28.90
   1   1  -2 4406.66   27.90
   1  -1  -2 4206.58   29.90
   1   1  -2 4346.47   22.10
  -1  -1   2 4075.49   26.30
   1  -1  -2 4122.79   18.30
   1   1  -2 4330.17   28.20
  -1   1   2 4141.29   27.70
  -1   1   2 4230.18   29.80
   1   1  -1    5.10    0.80
   1   1  -1    6.30    0.90
  -1   1   1    5.90    1.00
   1  -1  -1    9.00    1.40
   1   1  -1    6.60    1.00
  -1   1   1    4.90    0.90
  -1  -1   1    4.90    0.70
   1   1  -1    5.70    0.80
  -1   1   1    7.40    0.90
  -1  -1   1    5.70    0.90
   1  -1  -1    7.40    0.80
  -1  -1   1    6.30    0.90
   1   1  -1    6.80    0.90
  -1  -1   0   21.00    1.40
  -1   1   0   20.00    1.40
   1  -1   0   24.20    1.60
   1   1   0   22.50    1.50
   1  -1   1  125.99    3.90
  -1  -1  -1  115.49    4.20
   1  -1   1  109.79    3.70
  -1   1  -1  110.49    3.50
  -1  -1  -1  111.59    3.10
   1   1   1  115.29    3.10
  -1   1  -1  121.29    4.20
   1   1   1  116.49    4.10
  -1  -1  -1  111.29    3.10
  -1  -1  -1  110.89    3.50
   1   1   1  118.99    3.60
   1  -1   1  113.29    4.10
  -1   1  -1  120.09    3.90
   1  -1   2  113.79    5.30
  -1  -1  -2  118.89    3.10
  -1   1  -2  115.39    5.00
   1   1   2  115.59    5.30
  -1  -1  -2  121.69    4.60
   1  -1   2  105.49    4.00
  -1   1  -2  114.49    3.90
   1   1   2  118.09    4.90
   1   1   2  106.49    5.20
   1  -1   2  116.39    4.80
   1   1   2  114.19    3.20
  -1  -1  -3   54.99    2.00
   1  -1   3   46.50    4.20
   1   1   3   46.20    4.10
   1  -1   3   50.49    3.90
   1   1   3   51.89    4.00
  -1   1  -3   47.30    2.60
   1  -1   3   44.00    2.80
   1   1   3   48.20    4.00
  -1   1  -3   48.80    4.00
   1   1   4  102.49    7.00
   1  -1   4   98.79    6.90
   1   1   4  110.59    6.80
  -1   1  -4  107.69    6.90
  -1   1  -4   97.29    3.60
   1   1   4  103.79    6.90
   1  -1   4  113.59    6.80
   1  -1   5   18.50    3.40
   1   1   5   17.00    3.20
   1   1   5   20.40    3.40
  -1   1  -5   20.20    1.40
  -1   1  -5   18.60    3.30
   1  -1   6   18.50    3.80
  -1   1  -6   19.90    3.80
  -1  -1  -6   13.50    3.30
   1   1   6   23.80    5.10
   1   1   7    2.30    1.40
  -1   1  -7   -1.40    1.40
   1  -1   7   -1.90    1.60
  -1  -1  -7   -1.60    1.30
   1  -1   8    4.80    2.80
  -1  -1  -8    7.00    3.00
  -1   1  -8    5.40    3.40
  -1  -1  -9    0.10    1.90
  -1   1  -9    0.40    2.50
   1   2  -9    5.90    3.30
  -1  -2   9   -1.30    2.30
   1  -2  -9    0.80    1.90
   1   2  -9    1.30    1.50
   1  -2  -9    4.40    2.80
  -1  -2   8    5.60    2.70
   1   2  -8    6.80    2.80
   1   2  -8   10.70    3.40
   1  -2  -8   10.50    3.70
   1  -2  -8   12.80    3.80
   1   2  -7    4.50    2.50
   1  -2  -7    4.40    2.40
  -1  -2   7    1.20    1.40
   1   2  -7    4.20    2.10
  -1   2   7    3.20    2.50
   1   2  -6    3.70    1.90
  -1   2   6    1.00    1.70
  -1  -2   6    1.50    1.60
   1  -2  -6   -0.50    1.40
   1   2  -6    0.30    1.50
  -1  -2   5   39.30    4.60
   1   2  -5   25.50    2.70
   1   2  -5   34.30    4.40
  -1   2   5   38.30    4.70
   1   2  -5   41.10    2.60
   1  -2  -5   37.90    4.50
   1   2  -4    5.00    1.50
  -1   2   4    3.80    1.50
  -1  -2   4    5.90    1.70
  -1   2   4    4.40    1.70
  -1  -2   4    3.80    1.70
   1  -2  -4    6.10    1.80
   1   2  -4    5.40    1.00
  -1   2   3   99.29    2.70
  -1   2   3  108.79    6.00
   1   2  -3  104.39    4.20
  -1   2   3  102.89    4.00
  -1  -2   3   95.59    5.30
  -1  -2   3   93.89    5.60
   1  -2  -3   92.69    5.70
   1   2  -3  104.09    5.60
  -1   2   3   99.29    5.60
   1  -2  -3  101.69    2.90
  -1   2   3  103.29    5.60
   1   2  -2  823.12   12.10
  -1   2   2  842.32   13.40
  -1  -2   2  876.01   12.90
   1   2  -2  867.71   11.50
   1  -2  -2  841.62   13.90
  -1  -2   2  808.42   13.70
   1   2  -2  806.02   12.70
   1  -2  -2  910.31   13.20
  -1   2   2  828.32    8.80
   1   2  -2  865.81   13.40
   1   2  -2  849.41   12.90
   1  -2  -2  836.02    9.40
  -1   2   2  853.51   13.70
  -1   2   2  790.92   10.40
   1   2  -1  958.00   11.50
  -1   2   1  958.00   10.40
   1  -2  -1  966.60   10.70
  -1   2   1 1015.30   12.00
  -1  -2   1  997.60   10.70
   1   2  -1  929.11    9.30
  -1  -2   1  999.40    9.40
  -1  -2   1  971.60    9.00
  -1  -2   0  419.66    7.30
  -1  -2   0  423.56    7.00
   1  -2   0  416.66    7.40
  -1   2   0  435.56    7.60
   1   2   0  421.76    7.20
  -1   2  -1   59.79    3.20
   1  -2   1   56.09    3.10
  -1   2  -1   57.79    3.00
  -1  -2  -1   53.79    2.50
   1   2   1   54.89    2.40
   1  -2   1   64.99    3.20
   1   2   1   59.59    2.50
   1  -2   1   51.69    2.90
   1  -2   2  200.48    6.20
  -1  -2  -2  229.68    6.70
   1   2   2  205.38    6.40
   1   2   2  207.88    7.30
  -1  -2  -2  215.58    6.40
  -1   2  -2  214.88    6.10
   1  -2   2  207.78    6.10
   1  -2   2  204.38    7.40
  -1  -2  -2  215.98    4.80
   1   2   2  211.08    4.40
   1   2   2  215.38    6.80
  -1   2  -2  220.68    7.50
  -1   2  -3   26.60    3.00
   1   2   3   20.20    2.80
   1  -2   3   21.60    2.80
   1   2   3   24.50    2.90
   1  -2   3   22.70    2.60
   1   2   3   20.30    2.90
  -1   2  -3   20.30    1.90
   1  -2   4   20.10    3.30
   1  -2   4   19.40    2.80
  -1   2  -4   24.20    3.40
   1   2   4   28.50    3.90
  -1   2  -4   19.60    2.10
   1   2   4   25.80    3.50
   1   2   4   20.30    3.00
   1  -2   5    1.00    1.60
   1   2   5   -0.30    1.40
  -1   2  -5    0.30    0.50
   1   2   5   -1.50    1.60
   1  -2   6   -1.50    1.40
   1   2   6    1.00    1.90
  -1   2  -6   -0.40    1.40
  -1   2  -7   24.20    4.60
  -1  -2  -7   32.20    5.30
   1  -2   7   21.20    4.40
  -1  -2  -8    2.80    1.90
  -1   2  -8    3.30    2.00
   1  -2   8    3.20    1.90
  -1  -2  -9    3.30    2.60
   1  -2   9    2.10    2.60
  -1   2  -9    5.80    4.00
   1  -3  -9   10.60    3.60
   1   3  -9    9.00    6.10
  -1  -3   9   -0.70    1.70
   1  -3  -9    1.30    2.20
   1   3  -9    6.60    3.10
   1   3  -8    4.70    2.90
  -1  -3   8    3.60    2.70
   1  -3  -8    6.30    3.90
   1   3  -8    6.60    3.10
   1  -3  -8    5.80    2.90
   1   3  -7   -0.40    1.40
   1  -3  -7    1.80    1.90
  -1   3   7    0.60    2.10
  -1  -3   7    0.70    1.20
   1   3  -7    1.00    1.40
   1   3  -6    6.90    2.30
  -1   3   6    6.70    2.90
   1   3  -6    1.40    1.70
   1  -3  -6    5.10    2.10
  -1  -3   6    6.10    2.10
   1   3  -5    1.30    1.10
  -1  -3   5    2.90    2.20
   1  -3  -5    2.50    1.20
   1   3  -5    0.50    0.70
  -1   3   5    1.90    1.90
  -1  -3   5    1.90    1.50
  -1   3   4    5.70    1.80
   1  -3  -4    5.80    2.00
  -1   3   4    7.20    1.40
   1   3  -4    6.30    1.90
   1   3  -4    6.00    1.30
  -1   3   4    3.80    1.70
  -1  -3   4    5.70    1.70
  -1  -3   4    7.20    2.30
   1  -3  -3  197.78    8.30
  -1  -3   3  201.98    8.10
  -1   3   3  202.78    8.20
  -1   3   3  203.38    8.10
  -1   3   3  203.38    4.40
  -1  -3   3  205.28    8.20
   1  -3  -3  204.58    4.90
   1   3  -3  202.98    8.00
  -1   3   3  190.58    7.80
  -1   3   3  200.28    6.40
  -1   3   2  110.49    5.20
   1   3  -2  117.89    3.00
   1   3  -2  109.49    4.30
  -1   3   2   99.59    4.40
  -1   3   2  104.09    4.60
   1  -3  -2  102.19    5.10
   1  -3  -2  110.89    4.10
  -1  -3   2  104.79    5.00
  -1  -3   2  104.19    3.10
  -1  -3   2  109.49    5.20
   1   3  -2  111.49    5.10
  -1   3   2  107.59    3.80
  -1   3   1  880.81   12.30
   1   3  -1  881.61   10.00
   1  -3  -1  877.71   12.00
  -1  -3   1  895.21   10.40
  -1   3   1  892.21   11.80
  -1   3   1  912.11   11.70
   1  -3   0  414.76    8.70
  -1  -3   0  436.16    8.20
   1   3   0  405.26    7.70
  -1   3   0  442.96    8.50
   1  -3   1 1413.16   17.00
  -1   3  -1 1493.65   16.70
  -1  -3  -1 1418.06   16.50
   1   3   1 1403.66   14.10
   1  -3   1 1413.96   17.00
   1   3   2  165.28    5.90
   1   3   2  164.98    6.20
   1  -3   2  162.88    5.20
   1   3   2  158.78    6.60
   1  -3   2  169.18    7.00
   1   3   2  164.18    4.40
   1  -3   2  147.69    6.10
  -1   3  -2  171.78    6.00
   1   3   3   51.49    4.00
   1  -3   3   43.30    4.10
   1   3   3   44.10    4.10
  -1   3  -3   44.70    4.00
   1  -3   3   43.80    3.50
   1   3   3   48.70    4.10
  -1   3  -4   56.39    5.20
   1   3   4   54.09    5.30
   1   3   4   60.19    5.20
   1  -3   4   63.89    5.70
   1   3   5    8.50    2.70
  -1   3  -5    8.00    2.70
   1  -3   5    5.80    2.20
   1   3   6    4.40    2.40
  -1   3  -6    1.10    1.90
   1  -3   6    2.40    1.60
   1  -3   7    4.00    2.10
  -1  -3  -7    2.70    1.50
   1   3   7    8.80    3.00
  -1   3  -7    6.70    2.60
  -1  -3  -8    1.60    1.60
   1  -3   8    0.50    1.90
  -1  -3  -9    0.40    2.10
  -1   3  -9    4.50    3.60
  -1  -3  -9   -0.20    2.20
   1  -3   9   -2.40    2.70
   1   4  -9    1.30    2.00
   1  -4  -9   -3.20    1.60
   1  -4  -9    3.30    2.90
  -1  -4   9   -1.50    2.30
   1   4  -8    9.60    3.30
   1  -4  -8   11.40    3.60
  -1   4   8   16.00    4.40
   1   4  -8    4.10    2.60
  -1  -4   8    4.50    2.60
  -1   4   7    1.00    2.10
   1  -4  -7    5.60    3.00
   1   4  -7    1.50    1.40
   1   4  -7    4.10    2.50
  -1  -4   7    2.20    1.70
   1  -4  -6   30.90    4.90
   1   4  -6   34.10    5.30
  -1  -4   6   28.20    4.70
  -1   4   6   35.40    5.20
   1   4  -5   34.10    3.10
   1   4  -5   34.40    4.70
  -1  -4   5   24.90    3.90
   1  -4  -5   33.90    4.70
  -1  -4   5   34.60    4.70
  -1   4   5   31.80    4.40
  -1  -4   4  137.89    7.90
   1  -4  -4  150.88    8.40
  -1   4   4  150.48    3.30
  -1  -4   4  152.48    8.40
  -1   4   4  145.99    8.20
  -1   4   4  140.19    7.80
   1   4  -4  166.08    8.80
  -1   4   4  157.58    6.50
   1  -4  -3  167.18    7.80
  -1   4   3  174.48    7.40
  -1  -4   3  175.68    7.80
  -1   4   3  182.08    6.70
  -1  -4   3  181.08    7.70
  -1   4   3  178.58    4.90
   1   4  -3  191.18    4.00
   1   4  -3  178.08    8.00
  -1   4   3  174.68    7.90
  -1   4   2   38.00    2.60
   1   4  -2   32.60    2.20
   1   4  -2   36.40    2.10
  -1  -4   2   40.20    3.40
   1  -4  -2   34.80    3.10
  -1   4   2   37.90    2.80
   1  -4  -2   36.70    2.70
  -1  -4   2   33.00    2.10
  -1   4   2   36.50    2.90
  -1  -4   2   39.60    3.10
  -1   4   1    7.10    1.20
   1   4  -1    3.60    0.80
   1  -4  -1    5.40    1.30
  -1  -4   1    6.40    1.10
  -1   4   1    6.80    1.30
  -1   4   1    6.70    1.40
  -1   4   1    7.60    1.00
   1  -4   0    1.20    0.90
  -1  -4   0    3.00    1.00
   1   4   0    1.60    0.90
  -1   4   0    4.00    1.40
   1   4   1  261.57    7.50
   1  -4   1  260.47    8.20
   1  -4   2   23.10    1.80
   1  -4   2   20.70    2.70
   1   4   2   23.30    2.00
   1   4   2   23.00    2.60
   1   4   2   23.80    2.40
   1  -4   3   69.39    5.30
   1   4   3   66.29    4.60
   1   4   3   65.89    4.80
   1   4   3   69.49    2.90
   1   4   3   63.89    5.10
   1  -4   3   62.29    4.00
   1   4   4  113.09    7.20
   1  -4   4  108.19    7.60
  -1   4  -4  134.49    8.20
   1   4   4  115.19    7.80
   1  -4   5   12.30    2.90
  -1   4  -5   13.90    3.30
  -1   4  -6   24.60    4.70
   1   4   6   18.30    3.80
   1  -4   6   22.20    4.40
   1   4   7    4.10    2.80
   1  -4   7    6.60    3.00
  -1   4  -7    7.30    3.10
   1  -4   8   14.10    4.00
  -1  -4  -8   22.50    5.30
  -1  -4  -9   22.30    5.80
  -1  -4  -9   37.60    7.20
   1  -4   9   24.60    5.90
  -1  -5   9   -0.10    1.90
   1  -5  -9   -1.20    2.60
   1   5  -9    0.60    1.80
   1  -5  -9    2.70    2.70
  -1  -5   8   -0.10    1.50
   1   5  -8    2.10    2.20
   1  -5  -8   -1.30    1.50
  -1   5   8    3.20    2.30
   1   5  -7    0.70    1.80
   1  -5  -7    2.90    2.20
  -1  -5   7    2.70    1.70
  -1   5   7    4.90    3.00
   1   5  -7    3.50    2.60
   1   5  -6    5.80    1.90
   1  -5  -6    5.70    2.50
   1   5  -6    9.60    2.00
  -1  -5   6   10.50    3.20
  -1   5   6    6.10    2.20
   1   5  -6    9.40    2.70
   1   5  -5  123.99    8.70
   1  -5  -5  107.19    8.40
  -1   5   5  119.69    8.30
  -1   5   5  132.09    8.80
  -1   5   5  133.69    6.60
   1   5  -5  140.49    6.80
  -1  -5   5  110.09    8.10
  -1   5   4   11.30    2.50
  -1  -5   4   13.00    2.70
  -1   5   4    7.40    2.30
   1  -5  -4   10.50    2.40
  -1  -5   4    9.00    2.10
  -1   5   4   12.60    2.20
  -1   5   4   12.50    1.30
  -1   5   3  238.78    6.80
   1   5  -3  245.78    5.70
  -1   5   3  234.28    8.20
  -1  -5   3  245.28    9.60
  -1  -5   3  218.38    8.60
   1  -5  -3  218.48    9.00
  -1   5   3  225.28    9.10
   1   5  -2  222.58    5.50
   1  -5  -2  227.38    7.90
   1   5  -2  238.98    6.30
  -1   5   2  208.58    7.60
  -1   5   2  237.28    7.00
  -1  -5   2  231.68    6.50
  -1   5   2  242.88    7.20
  -1  -5   2  221.78    7.30
  -1   5   1   11.80    1.10
  -1   5   1   13.00    1.70
   1  -5  -1    9.30    1.80
   1   5  -1    9.10    1.50
  -1  -5   1   11.20    1.50
  -1   5   1    9.00    1.80
  -1   5   0    1.30    1.10
   1  -5   0   -0.60    1.00
   1   5   0    0.10    0.70
   1   5   1   25.30    2.70
   1  -5   1   23.00    2.90
   1   5   2  631.94   11.20
   1  -5   2  633.44   14.90
   1  -5   2  638.84    8.70
   1   5   2  612.54   13.40
   1   5   2  593.34   13.50
   1   5   3  133.29    7.50
   1   5   3  140.89    6.80
   1   5   3  138.39    4.90
   1  -5   3  136.49    7.70
   1  -5   4   30.60    4.30
   1   5   4   30.20    4.20
   1   5   4   27.90    3.70
   1   5   4   24.30    3.30
   1  -5   5    1.50    1.40
   1   5   5    1.70    1.50
   1  -5   6    1.50    2.00
   1   5   6   -0.30    2.00
   1  -5   7   37.30    6.20
   1   5   7   41.80    6.40
   1  -5   8    4.60    2.30
   1   5   8    2.70    2.00
  -1  -5  -9    2.60    2.20
   1  -5   9    0.70    2.80
  -1  -5  -9    0.00    2.50
  -1   6   9    4.50    3.10
   1  -6  -9    4.70    3.10
   1   6  -9    5.40    3.40
  -1  -6   9   -0.30    1.50
  -1  -6   8   24.60    5.40
   1  -6  -8   27.80    5.40
   1   6  -8   30.00    5.30
  -1   6   8   33.30    6.40
   1   6  -7    5.80    2.40
  -1  -6   7    4.30    2.30
   1  -6  -7    6.70    3.00
  -1   6   7    5.90    2.80
   1  -6  -6    3.90    2.40
  -1   6   6    4.20    2.40
   1   6  -6    3.50    1.30
  -1  -6   6    7.70    2.70
   1   6  -6    3.70    1.50
   1  -6  -5   21.90    3.90
  -1   6   5   29.40    3.50
  -1   6   5   17.10    3.60
  -1   6   5   23.90    4.00
  -1  -6   5   21.80    3.90
   1   6  -4    6.70    1.10
   1  -6  -4    4.20    1.70
  -1   6   4    4.20    1.70
  -1   6   4    3.30    1.00
  -1  -6   4    3.50    1.60
  -1   6   4    4.30    1.90
  -1  -6   4    6.70    2.10
  -1  -6   3    2.70    1.40
  -1  -6   3    2.40    1.00
  -1   6   3    3.80    1.40
   1   6  -3    4.50    1.00
   1  -6  -3    2.60    1.10
  -1   6   3    4.30    1.90
   1  -6  -2   16.20    2.40
   1   6  -2   18.10    1.50
  -1  -6   2   13.60    2.00
   1   6  -2   16.70    1.90
  -1   6   2   13.90    2.40
   1  -6  -1  116.49    4.70
  -1   6   1  118.89    3.40
  -1   6   1  114.79    6.10
   1   6  -1  110.19    5.20
   1   6   0  516.15   12.00
  -1   6   0  528.85   12.50
   1   6   1  987.40   15.30
  -1   6  -1 1047.50   10.70
   1   6   1 1012.80   17.50
   1  -6   2   45.40    4.30
   1   6   2   51.79    4.30
   1   6   2   46.60    4.00
   1   6   3    4.10    1.90
   1   6   3    8.60    2.00
   1   6   3    5.50    1.30
   1  -6   3    3.80    1.50
   1   6   4    1.20    0.80
   1   6   4    2.00    1.90
   1   6   4   -0.10    1.50
   1   6   4   -1.50    1.30
   1  -6   4    0.50    0.90
   1  -6   5    2.80    1.90
   1   6   5    1.60    1.50
   1   6   6    1.50    1.70
   1  -6   6    6.40    2.70
   1  -6   7   -1.50    1.90
   1   6   7    5.60    3.10
   1   6   8    3.80    2.90
   1  -6   8    6.40    3.20
   1  -6   9    1.30    2.90
  -1  -7   9    1.20    2.00
   1   7  -8   -1.30    1.90
  -1  -7   8    1.50    1.40
  -1   7   8    1.80    2.50
   1   7  -7    2.10    1.40
   1  -7  -7    3.80    2.30
  -1   7   7    6.30    3.10
  -1  -7   7    4.20    2.50
  -1   7   6    3.30    2.10
   1   7  -6    3.20    1.50
   1   7  -6    1.90    1.50
  -1  -7   6    4.10    1.90
   1  -7  -6    3.10    2.10
   1  -7  -5   55.89    6.00
  -1   7   5   58.79    6.10
  -1   7   5   66.49    5.40
  -1   7   5   57.59    6.00
  -1  -7   5   57.09    6.20
  -1  -7   4    3.80    1.60
  -1   7   4    8.30    2.60
   1  -7  -4    9.90    2.60
  -1   7   4    6.40    2.00
   1   7  -4   11.50    1.50
  -1  -7   4   10.90    2.50
  -1  -7   3    1.80    1.50
   1   7  -3    1.70    0.70
  -1   7   3    1.10    1.20
   1  -7  -3    1.10    1.50
  -1  -7   3    0.90    0.90
   1  -7  -2    7.30    1.70
   1   7  -2    7.00    0.90
  -1  -7   2    4.80    1.20
   1   7  -2    9.00    1.60
  -1   7   2    7.00    1.80
   1   7  -1   12.50    1.90
   1  -7  -1   12.30    1.60
  -1   7   1   10.60    2.10
   1   7   0   20.30    2.60
  -1   7   0   18.40    2.70
   1  -7   0   20.10    1.40
   1   7   1   30.60    3.30
  -1   7  -1   32.80    1.80
  -1   7  -1   28.20    3.20
   1   7   1   31.00    2.90
   1   7   2  665.43   16.00
   1  -7   2  637.94   16.60
  -1   7  -2  661.63   14.80
   1   7   2  672.43   15.20
   1  -7   3   73.59    6.20
   1   7   3   70.09    5.30
   1   7   3   71.79    5.70
   1   7   3   81.89    4.60
   1   7   3   79.39    5.80
   1   7   4   83.69    4.20
   1  -7   4   70.39    6.60
   1   7   4   70.89    5.90
   1   7   4   82.39    6.50
   1   7   4   74.19    6.60
   1   7   5   74.29    6.80
   1  -7   5   56.79    6.60
   1   7   5   70.89    6.90
  -1   7  -5   73.29    4.90
   1  -7   6   26.00    4.80
   1   7   6   23.30    4.60
   1  -7   7    6.10    3.20
   1   7   7    9.60    3.70
   1  -7   8    9.90    4.00
   1   7   8   11.00    4.30
  -1  -7  -8   12.00    4.50
  -1  -8   9   -3.10    2.50
   1  -8  -8    2.30    2.00
  -1  -8   8    1.10    1.60
  -1   8   8    3.70    2.80
   1   8  -8    1.00    2.30
  -1   8   7   -0.20    2.00
  -1  -8   7    2.60    2.10
   1  -8  -7    2.40    2.70
   1   8  -7    1.70    1.70
   1   8  -6   91.39    7.10
  -1   8   6   87.19    8.40
  -1  -8   6   74.79    8.00
  -1   8   6   90.09    8.50
   1   8  -6   85.69    6.60
   1  -8  -6   78.69    7.90
  -1   8   5   10.90    2.50
   1   8  -5    8.00    2.00
  -1   8   5    9.00    2.70
   1  -8  -5    7.40    2.70
  -1  -8   5    5.50    2.30
  -1   8   5    7.30    2.70
  -1   8   4    2.30    1.60
  -1  -8   4   -1.40    1.40
   1  -8  -4   -0.10    1.40
  -1   8   4   -0.20    1.60
   1   8  -4    2.20    1.10
  -1  -8   4    1.60    1.70
  -1   8   3   14.70    2.80
   1   8  -3   17.90    1.90
   1  -8  -3   17.80    2.80
  -1  -8   3   19.30    3.20
  -1  -8   3   20.10    2.80
   1   8  -3   16.80    2.20
  -1  -8   2    9.10    1.70
   1   8  -2    7.40    0.80
  -1   8   2    9.70    2.50
   1   8  -2   10.60    2.30
  -1   8   1   36.90    4.00
   1   8  -1   43.70    3.90
  -1   8   0    0.50    1.30
   1   8   0   -0.60    0.70
   1  -8   0    1.00    0.60
  -1  -8  -1   14.40    1.60
   1   8   1   16.00    2.20
  -1   8  -1   16.70    2.60
   1   8   1   18.80    2.90
   1   8   2    1.40    1.60
   1   8   2    3.00    1.50
  -1   8  -2    0.20    1.00
   1  -8   3   33.60    4.40
   1   8   3   34.10    4.10
   1   8   3   30.80    4.10
   1   8   3   28.40    3.50
  -1   8  -3   27.10    3.40
  -1   8  -4   14.80    2.50
   1   8   4   16.70    2.90
   1   8   4   17.30    2.30
   1  -8   4   17.30    3.50
   1   8   4   15.00    3.30
  -1   8  -5   19.60    2.70
   1   8   5   21.50    3.80
   1   8   5   15.80    3.50
   1  -8   5   17.70    3.90
   1  -8   6   29.80    5.20
   1   8   6   31.90    5.20
   1   8   7   19.60    4.60
   1  -8   7   16.00    4.70
  -1  -8  -7   13.30    4.00
  -1  -8  -8   66.09    9.00
   1   8   8   64.29    8.50
   1  -8   8   60.79    9.00
  -1  -9   9    3.20    2.40
  -1  -9   8    1.70    1.40
  -1   9   8    2.60    2.70
   1  -9  -8   -1.10    2.20
  -1   9   7    2.80    2.20
  -1  -9   7   -0.30    1.50
   1  -9  -7    2.80    2.20
   1   9  -7    3.00    1.80
  -1   9   6   11.30    3.40
   1   9  -6   12.30    2.90
  -1   9   6   13.80    3.40
   1  -9  -6    8.70    3.10
  -1  -9   6    3.90    1.90
  -1   9   6   12.80    3.10
  -1  -9   5   10.50    3.00
   1  -9  -5    6.30    2.00
  -1   9   5    6.90    2.60
  -1   9   5    9.30    2.60
   1   9  -5   11.30    2.20
  -1  -9   4   55.99    5.30
   1   9  -4   57.79    4.20
   1   9  -4   50.49    3.80
  -1   9   4   48.70    5.20
  -1  -9   4   50.89    5.60
  -1   9   4   46.80    5.20
   1  -9  -4   48.80    5.20
   1  -9  -3    2.10    1.70
  -1  -9   3    5.60    2.30
   1   9  -3    2.60    0.80
   1   9  -3    3.70    1.30
  -1   9   3    6.70    2.30
  -1  -9   3    4.20    1.60
   1   9  -2    7.90    1.70
  -1   9   2    8.20    2.20
  -1  -9   2    7.50    1.50
   1   9  -1   52.59    4.50
  -1   9   1   53.99    5.00
  -1   9   0   14.00    2.90
  -1   9   0   18.40    2.00
   1   9   0   16.00    2.60
  -1   9  -1  163.58    8.60
   1   9   1  175.98    7.00
  -1  -9  -1  171.78    5.60
   1   9   1  176.78    8.90
  -1   9  -2  327.57   11.80
   1   9   2  350.96   11.50
   1   9   2  339.57   12.70
  -1   9  -3   21.60    3.30
   1   9   3   27.30    3.80
   1  -9   3   31.60    4.50
   1   9   3   34.90    4.30
   1   9   4   23.80    2.80
   1   9   4   20.30    3.80
   1   9   4   21.80    3.50
  -1   9  -4   21.40    3.10
   1  -9   4   21.60    4.00
   1   9   5    1.40    1.30
   1   9   5   -0.90    1.70
   1  -9   5    2.60    2.40
  -1   9  -5    0.60    0.80
  -1  -9  -6    7.60    2.70
   1   9   6    9.30    3.00
   1  -9   6   10.00    3.20
  -1  -9  -7    0.60    1.70
   1  -9   7    5.50    2.60
   1   9   7    1.40    2.00
   1   9   8    1.50    2.40
  -1  -9  -8    4.30    3.00
   1  -9   8    4.00    2.90
  -1  10   8    3.70    2.60
   1 -10  -8   -0.60    1.80
  -1 -10   8    3.90    2.90
  -1  10   7    3.60    2.20
   1 -10  -7    2.50    3.20
  -1 -10   7    3.60    1.70
  -1  10   6   -0.50    1.70
  -1  10   6    1.00    1.70
  -1  10   6    4.90    2.90
   1 -10  -6   -0.30    1.80
  -1 -10   6    0.20    1.50
  -1  10   5    2.10    1.70
  -1 -10   5    0.30    1.40
   1  10  -5    0.20    1.10
  -1  10   5    6.30    2.90
   1 -10  -5    1.30    2.30
   1  10  -4   18.90    2.60
   1 -10  -4   14.50    3.20
  -1  10   4   18.40    3.80
  -1  10   4   17.40    3.60
  -1 -10   4   20.50    4.00
   1  10  -4   12.40    1.90
  -1  10   3   29.60    4.40
   1  10  -3   31.50    3.50
  -1 -10   3   33.40    3.60
  -1 -10   3   29.50    4.30
   1 -10  -3   33.70    4.30
   1  10  -3   26.30    2.10
  -1  10   2   -0.70    1.40
  -1 -10   2    0.30    1.00
   1  10  -2    1.50    1.10
   1  10  -1    7.20    2.50
  -1  10   1    0.40    1.40
   1  10   0    4.90    1.70
  -1  10   0    5.20    1.80
   1  10   0    5.10    1.20
  -1  10  -1    0.70    1.10
   1  10   1    0.90    1.10
   1  10   1    4.40    2.20
  -1 -10  -1    2.70    1.00
  -1  10  -2    5.90    1.90
   1  10   2    3.90    1.80
   1  10   2    8.30    2.50
  -1 -10  -2    6.50    1.50
   1  10   3   30.40    4.20
  -1 -10  -3   36.90    4.00
   1 -10   3   36.00    4.80
   1  10   3   33.70    4.60
  -1  10  -3   35.60    4.30
  -1  10  -4    9.00    2.30
   1  10   4   13.90    2.50
   1 -10   4    9.00    2.80
   1  10   4   12.50    3.40
   1  10   4    6.40    2.20
  -1 -10  -4    9.70    2.30
   1  10   4    7.80    2.40
  -1 -10  -5   29.90    4.70
   1  10   5   28.90    4.60
   1  10   5   25.60    4.30
  -1  10  -5   26.90    3.50
   1 -10   5   30.80    5.00
   1 -10   6    8.00    3.20
   1  10   6    9.00    3.30
   1  10   6    7.70    3.00
  -1 -10  -6    4.40    2.30
  -1 -10  -7    3.60    2.40
   1 -10   7   -2.50    1.70
   1  10   7   -3.00    2.50
   1  10   8   -2.20    2.00
  -1 -10  -8    3.90    3.40
   1 -10   8   -3.40    2.50
  -1  11   8    2.30    2.90
   1 -11  -8    8.90    3.90
  -1 -11   8    2.20    1.80
   1 -11  -7   16.00    4.50
  -1 -11   7   13.00    4.70
  -1  11   7   11.70    3.50
  -1  11   7   11.80    4.00
   1 -11  -6   -1.10    2.40
  -1  11   6    1.10    1.90
  -1  11   6    2.70    1.70
  -1  11   6    2.00    2.30
  -1 -11   6    7.20    3.10
  -1  11   5   19.50    4.00
  -1 -11   5   14.70    3.80
  -1  11   5   15.50    3.60
   1 -11  -5   21.50    4.30
  -1  11   4   65.19    6.70
   1  11  -4   77.49    4.20
  -1  11   4   77.99    7.00
   1 -11  -4   77.99    7.10
   1  11  -4   81.99    5.70
  -1 -11   4   69.59    7.20
  -1 -11   3  126.39    6.80
   1  11  -3  133.49    7.60
  -1  11   3  140.29    9.30
   1  11  -2   82.69    6.10
  -1  11   2   88.49    7.10
  -1 -11   2   87.69    4.70
   1  11  -1   57.09    5.30
  -1  11   1   57.69    5.70
  -1 -11   1   41.70    2.60
  -1  11   0   18.80    3.80
   1  11   0   16.90    3.40
   1  11   0   14.50    2.00
   1  11   1    2.60    1.10
  -1  11  -1    2.90    2.00
   1  11   1    4.00    2.10
  -1 -11  -2    1.10    1.10
   1  11   2    0.50    1.30
   1  11   2    1.70    1.70
  -1  11  -2    0.50    1.00
   1 -11   3    5.40    2.50
  -1 -11  -3    4.50    1.80
   1  11   3   -1.10    1.60
  -1  11  -3    1.20    1.10
   1  11   3   -0.50    1.60
  -1  11  -4   17.20    3.10
  -1 -11  -4   19.40    3.50
   1  11   4   20.00    3.50
   1  11   4   22.40    3.90
   1  11   4   20.80    3.00
   1 -11   4   17.60    3.70
  -1  11  -5   18.80    3.20
   1  11   5   16.60    3.50
   1 -11   5   22.40    4.70
  -1 -11  -5   16.80    3.60
   1  11   5   13.40    3.20
   1  11   6   17.20    4.10
   1  11   6   17.60    4.10
  -1 -11  -6   18.50    4.10
   1 -11   6   19.70    4.60
  -1 -11  -7   10.50    3.90
   1  11   7   13.10    4.20
   1 -11   7   12.80    4.30
   1 -11   8    6.20    3.70
  -1 -11  -8    0.40    2.50
   1  11   8    4.70    3.30
  -1 -12   8    1.50    1.60
   1 -12  -8    5.20    2.90
  -1 -12   7    2.40    2.00
  -1  12   7   11.40    4.10
  -1  12   7    3.00    2.20
   1 -12  -7    8.00    2.60
  -1  12   6    2.40    2.00
  -1 -12   6    3.30    2.20
  -1  12   6    4.60    2.60
   1 -12  -6    4.50    2.80
  -1  12   6   -1.50    1.50
  -1  12   5   11.90    3.00
  -1 -12   5   13.60    3.70
   1 -12  -5   14.20    3.60
  -1  12   5   10.10    3.10
   1  12  -4   31.20    3.80
  -1 -12   4   28.90    4.80
  -1  12   4   31.70    5.00
   1  12  -3  178.08    9.30
  -1  12   3  191.98   11.40
   1  12  -2  162.28    9.10
  -1 -12   2  174.78    6.40
  -1  12   2  161.38   10.10
   1  12  -1  167.48    9.50
  -1  12   1  155.68    9.70
   1  12   0  341.67    8.90
   1  12   0  316.77   13.40
  -1  12   0  297.27   13.10
   1  12   1  102.79    7.90
   1  12   1   98.89    5.90
  -1  12  -1   97.89    7.50
  -1  12  -2    1.00    1.30
  -1 -12  -2   -1.10    0.90
   1  12   2    1.00    1.80
   1  12   2    3.20    2.30
   1  12   3    1.10    2.50
   1  12   3    2.00    1.90
   1 -12   3    2.00    1.80
  -1 -12  -3    0.60    1.10
  -1  12  -3   -0.60    1.40
  -1  12  -4   14.30    2.90
   1  12   4   13.40    3.10
   1  12   4   16.10    3.80
   1  12   4   18.50    3.10
   1 -12   4   16.60    4.00
  -1 -12  -4   12.90    3.10
  -1 -12  -5   58.69    6.50
   1  12   5   60.49    6.70
   1 -12   5   61.89    7.60
  -1 -12  -6    8.90    3.00
   1 -12   6   13.40    4.20
   1  12   6    4.30    2.20
   1  12   6    9.50    3.60
  -1 -12  -7   11.40    3.70
   1 -12   7    7.30    3.30
   1  12   7    5.40    2.70
  -1 -12  -8    3.90    2.70
  -1 -13   8    1.60    1.60
   1 -13  -7    8.20    3.70
  -1  13   7    2.30    2.10
  -1  13   7   10.00    3.70
  -1 -13   7    5.10    3.20
   1 -13  -6    2.20    3.00
  -1  13   6    2.10    2.00
  -1  13   6    0.10    1.90
  -1 -13   6   -3.10    2.50
  -1  13   6    1.70    2.40
  -1 -13   5    2.90    2.20
  -1  13   5    7.50    3.30
  -1  13   5    1.40    2.20
  -1 -13   4    1.20    1.90
  -1  13   4    3.80    2.40
   1  13  -4    2.70    1.50
  -1  13   3    3.40    2.10
   1  13  -3    1.90    1.70
   1  13  -2   62.59    6.00
  -1  13   2   56.89    6.40
  -1  13   1   89.59    7.80
   1  13  -1   89.49    7.40
   1  13   0    8.40    2.60
   1  13   0   11.20    1.90
  -1  13   0    3.50    1.90
   1  13   1    5.00    1.90
  -1  13  -1    5.30    2.50
   1  13   1    7.00    2.00
  -1  13  -2   28.60    4.30
   1  13   2   34.00    4.10
   1  13   2   36.30    5.10
  -1 -13  -2   36.20    3.60
   1  13   3    5.40    2.20
  -1  13  -3    4.90    2.20
   1 -13   3    7.50    2.80
  -1 -13  -3    3.70    1.60
   1 -13   4    5.90    2.30
  -1 -13  -4    4.60    1.30
   1  13   4    2.00    1.30
   1  13   4    1.30    1.70
  -1  13  -4    1.50    1.20
   1  13   4    3.80    1.50
   1  13   5    1.10    1.40
  -1 -13  -5   -1.00    1.90
   1 -13   5    2.70    1.70
  -1 -13  -6    4.80    2.60
   1  13   6    4.90    2.10
   1  13   6    2.10    1.40
   1 -13   6    9.40    3.60
   1  13   7    2.60    2.30
  -1 -13  -7    1.20    2.20
   1 -13   7    3.70    2.30
  -1 -14   7    3.70    2.20
  -1  14   7    3.10    2.70
  -1  14   7    2.90    2.60
  -1 -14   6    2.20    1.80
  -1  14   6    6.50    3.30
  -1  14   5   15.90    4.00
  -1  14   5   16.50    3.70
  -1 -14   5   15.70    4.00
   1  14  -4  190.78   10.40
  -1 -14   4  180.68   12.50
  -1  14   4  214.38   13.40
  -1  14   3    1.70    2.50
   1  14  -3   -0.50    1.10
   1  14  -2    1.50    1.80
  -1  14   2   -3.30    2.30
   1  14  -1  343.57   15.00
  -1  14   1  342.27   15.80
  -1  14   0    6.40    2.90
   1  14   0   12.10    3.50
   1  14   1    9.80    2.90
   1  14   1    9.00    2.10
  -1  14  -1    8.90    2.80
   1  14   2   14.50    3.80
  -1  14  -2   11.90    3.20
   1 -14   3   23.90    4.70
  -1 -14  -3   24.40    3.50
   1  14   3   20.60    4.40
  -1  14  -3   17.00    3.50
   1  14   4   -0.90    1.90
   1  14   4    4.40    2.10
   1 -14   4    3.10    2.10
   1  14   4    1.90    1.60
  -1  14  -4    2.30    1.80
  -1 -14  -4    1.30    2.10
   1  14   5   -1.50    1.50
  -1 -14  -5    1.50    1.90
   1 -14   5   -0.80    1.60
  -1 -14  -6   13.90    4.00
   1  14   6   17.10    4.40
   1  14   6   23.20    4.90
   1 -14   6   31.10    6.10
   1 -14   7    5.00    2.90
   1  14   7    2.50    2.20
  -1 -15   7    2.80    2.20
  -1  15   7    2.60    3.40
  -1 -15   6    4.60    2.40
  -1  15   6    9.40    3.40
  -1  15   6    7.50    3.50
  -1 -15   5    8.30    3.10
  -1  15   5   10.00    3.80
  -1  15   5    9.20    3.20
  -1 -15   4    4.60    2.40
   1  15  -4    4.30    1.70
  -1  15   4    9.50    3.50
   1  15  -3   13.30    3.20
  -1  15   3   10.10    4.00
   1  15  -2   11.00    2.80
  -1  15   2   11.00    3.20
   1  15  -1   36.50    5.20
  -1  15   1   42.80    5.90
   1  15   0  190.98   12.00
  -1  15   0  185.28   11.90
   1  15   1   90.69    8.40
  -1  15  -1   74.09    7.50
   1  15   2   73.29    7.80
  -1  15  -2   67.69    7.10
   1 -15   3   21.10    4.50
  -1  15  -3   17.30    3.70
   1  15   3   19.50    4.20
   1 -15   4   30.70    5.60
   1  15   4   25.60    4.60
  -1  15  -4   23.80    4.20
   1  15   4   26.80    5.10
   1  15   4   38.50    5.00
  -1 -15  -4   25.90    4.30
   1  15   5   11.30    3.30
  -1 -15  -5   16.10    3.70
   1 -15   5   21.90    4.90
   1  15   6   -0.50    2.00
  -1 -15  -6    6.40    3.50
   1 -15   6    5.30    2.70
   1  15   6   -0.20    1.80
  -1 -15  -7   -5.90    2.90
   1  15   7   -2.00    1.70
  -1 -16   6    5.20    2.80
  -1  16   6    7.20    4.80
  -1  16   6    0.80    2.10
  -1  16   5   30.60    5.60
  -1  16   5   33.00    5.80
  -1 -16   5   30.30    5.90
   1  16  -4    1.10    1.70
  -1 -16   4    0.00    1.70
  -1  16   4   -0.30    2.00
  -1  16   3  100.79    9.80
   1  16  -3   89.89    8.00
  -1  16   2    7.10    2.70
   1  16  -2   10.10    3.10
   1  16  -1   15.70    3.70
  -1  16   1   13.70    3.70
   1  16   0   12.60    3.50
  -1  16   0   12.20    3.80
  -1  16  -1   36.10    5.70
   1  16   1   37.80    5.40
  -1  16  -2   60.19    6.90
   1  16   2   75.49    8.20
  -1  16  -3    9.70    3.20
   1  16   3   12.60    3.80
   1 -16   3    8.80    2.90
   1  16   4   15.10    3.40
   1 -16   4   17.80    4.50
  -1  16  -4   16.70    3.80
   1  16   4   14.10    4.00
   1  16   5    2.20    2.50
   1 -16   5    2.40    2.60
   1  16   6   -0.70    1.60
   1  16   6    1.20    2.60
  -1  17   6    0.60    2.30
  -1 -17   6    2.50    2.10
  -1  17   6    4.60    3.00
  -1 -17   5   12.70    4.00
  -1  17   5    7.90    3.90
  -1  17   5    4.10    2.20
  -1 -17   4   12.10    3.60
  -1  17   4   21.30    5.20
   1  17  -3   45.40    6.00
  -1  17   3   51.79    7.20
   1  17  -2   59.69    6.90
  -1  17   2   71.49    8.40
   1  17  -1   18.00    4.00
  -1  17   1   17.50    4.30
   1  17   0   63.19    7.30
  -1  17   0   60.99    7.20
  -1  17  -1   15.10    3.70
   1  17   1   18.30    4.40
  -1  17  -2    4.80    2.20
   1  17   2    9.70    3.00
   1 -17   3    0.20    1.30
  -1  17  -3    0.30    1.40
   1  17   3    1.40    3.20
  -1  17  -4    5.50    2.60
   1  17   4    4.70    2.30
   1  17   4    3.60    2.40
   1 -17   4    6.80    2.90
   1 -17   5    1.70    2.20
   1  17   5    2.50    2.40
   1  17   6    6.90    3.50
   1  17   6   11.20    4.10
  -1  18   6   19.50    5.60
  -1  18   5    0.80    2.00
  -1  18   5   -0.50    2.30
  -1 -18   5   -3.80    2.70
  -1  18   4    1.50    2.80
  -1 -18   4    4.30    2.80
  -1  18   3   -0.30    2.20
   1  18  -3    1.10    2.20
   1  18  -2   11.00    3.40
  -1  18   2    9.80    3.50
  -1  18   1    0.70    2.00
   1  18  -1    1.60    1.90
   1  18   0    0.30    1.70
  -1  18   0    6.80    3.50
   1  18   1    0.70    1.70
  -1  18  -1    2.60    2.50
  -1  18  -2    3.50    2.30
   1  18   2    6.50    3.20
   1  18   3   -0.90    1.90
   1 -18   3   -0.80    1.70
  -1  18  -3    0.80    1.60
   1 -18   4   15.70    4.40
  -1  18  -4   12.90    3.60
   1  18   4   13.40    4.90
   1 -18   5    0.90    2.40
   1  18   5   -0.50    1.60
  -1  19   5    5.50    3.60
  -1  19   5    4.70    3.10
  -1 -19   5   -4.30    2.70
  -1 -19   4    2.20    1.70
  -1  19   4    0.90    3.70
  -1  19   3    5.20    3.00
   1  19  -3    0.80    1.50
  -1  19   2    0.20    2.60
   1  19  -2   -0.70    1.70
   1  19  -1    8.60    3.20
  -1  19   1   14.00    4.60
  -1  19   0   31.40    5.70
   1  19   0   28.90    5.30
   1  19   1   20.20    5.00
  -1  19  -1   16.90    4.20
   1  19   2    4.30    2.20
  -1  19  -2    9.60    3.50
  -1  19  -3    9.80    3.00
   1 -19   3    9.40    3.80
   1  19   4   15.40    5.20
   1 -19   4    0.90    2.20
   1  19   5    3.80    2.10
  -1  20   4   37.10    6.60
  -1 -20   4   24.40    6.00
  -1  20   3   25.90    6.10
   1  20  -3   20.40    4.40
   1  20  -2    6.50    3.40
  -1  20   2    4.70    3.80
   1  20  -1   -0.60    2.50
  -1  20   1    3.30    3.10
   1  20   0    1.60    2.50
  -1  20   0    8.60    3.80
   1  20   1    0.70    2.00
  -1  20  -1    3.60    2.80
   1  20   2    7.60    3.00
  -1  20  -2    3.50    2.30
   1  20   3   -0.70    2.60
   1 -20   3    0.30    1.70
  -1  20  -3    0.40    1.60
  -1  21   3    6.30    3.70
   1  21  -3    1.00    2.10
   1  21  -2    5.60    2.50
  -1  21   2   20.50    5.80
   1  21  -1   10.20    3.70
  -1  21   1   17.40    5.10
  -1  21   0   11.70    3.50
   1  21   0   14.40    4.60
   1  21   1   13.60    4.10
  -1  21  -1   15.80    4.60
   1  21   2   14.70    5.00
  -1  21  -2   10.70    4.80
  -1  21  -3    1.90    2.40
   1  22  -2   23.60    6.00
   1  22  -1    8.70    2.90
  -1  22   1   14.90    5.70
   1  22   0    2.40    2.80
  -1  22   0    2.00    2.70
   1  22   1    3.60    3.20
  -1  22  -1    2.00    2.00
  -1  22  -2   -0.40    3.30
   1  22   3   -3.90    2.80
  -1  22  -3    4.40    2.80
   2   0  -9   -5.20    2.90
   2   0  -9    0.00    1.70
   2   0  -8   57.09    7.70
   2   0  -8   46.30    6.80
   2   0  -7    1.00    1.60
   2   0  -7    1.50    2.00
   2   0  -6    1.70    1.70
   2   0  -6   -1.30    1.60
  -2   0   6    0.30    0.90
  -2   0   6    1.50    1.90
  -2   0   5    1.00    1.80
   2   0  -5    1.90    0.80
  -2   0   5   -0.60    1.30
  -2   0   5    0.90    1.70
   2   0  -5    1.50    1.20
  -2   0   4    9.30    1.90
   2   0  -4   14.90    2.90
  -2   0   4   10.40    1.80
  -2   0   4   14.20    3.10
   2   0  -4   10.70    1.20
   2   0  -3    0.50    0.60
   2   0  -3    1.20    1.30
  -2   0   3    0.10    1.00
  -2   0   3    0.30    0.90
  -2   0   3   -0.10    0.50
  -2   0   3    0.40    0.50
  -2   0   2  348.77    7.90
  -2   0   2  345.87    6.70
   2   0  -2  359.76    7.70
  -2   0   2  337.37    7.50
   2   0  -2  358.76    6.90
  -2   0   1   -0.50    0.30
  -2   0   1    0.10    0.60
   2   0  -1   -0.50    0.60
  -2   0   1    0.40    0.50
   2   0  -1    0.40    0.60
   2   0   0  747.83   11.30
  -2   0   0  777.42    7.40
  -2   0   0  769.62   11.30
   2   0   0  813.02    7.40
  -2   0  -1    0.90    0.80
  -2   0  -1   -0.20    0.50
  -2   0  -1    0.90    0.60
   2   0   1   -0.30    0.70
  -2   0  -1    0.40    0.60
   2   0   1    0.00    0.60
   2   0   2 3125.09   24.30
  -2   0  -2 3101.39   25.80
   2   0   2 3117.49   29.30
  -2   0  -2 3149.58   23.40
   2   0   3   -1.20    0.80
  -2   0  -3    0.10    0.50
  -2   0  -3   -0.40    1.00
   2   0   3   -1.00    1.20
   2   0   3   -1.40    1.30
  -2   0  -4  266.17   10.70
   2   0   4  272.07   11.10
   2   0   4  235.88    7.60
  -2   0  -4  243.08    6.50
   2   0   4  260.57   11.40
   2   0   5    0.40    1.60
  -2   0  -5   -3.10    2.00
   2   0   5    0.20    1.50
  -2   0  -6    0.10    1.30
   2   0   6   -3.00    2.30
  -2   0  -7    0.30    1.60
   2   0   7    1.10    1.60
   2   0   8    1.20    1.80
  -2   0  -8    7.20    3.40
  -2   0  -9    0.50    2.70
   2  -1  -9    1.30    1.90
   2   1  -9    0.10    1.70
   2  -1  -9   -1.50    2.30
   2   1  -8   -0.20    1.60
   2  -1  -8    4.20    2.60
   2  -1  -8    3.10    2.50
   2   1  -7   11.00    3.30
   2  -1  -7   10.10    3.40
   2  -1  -7    6.50    2.80
  -2  -1   7    5.60    2.30
   2   1  -7    7.50    2.70
  -2   1   6   26.10    4.40
   2   1  -6   26.80    4.30
   2   1  -6   21.80    4.10
   2  -1  -6   26.20    4.40
  -2  -1   6   23.90    4.50
  -2  -1   6   23.50    3.90
  -2   1   6   24.20    4.50
   2  -1  -5   18.80    3.60
   2   1  -5   17.20    3.20
  -2  -1   5   17.40    3.50
  -2   1   5   18.10    3.50
   2   1  -5   11.30    2.70
  -2  -1   5   18.70    3.00
   2   1  -5   22.40    2.00
  -2   1   5   21.80    3.80
  -2   1   5   20.30    3.20
   2  -1  -5   18.50    1.60
  -2   1   4  992.70   18.80
   2  -1  -4 1025.20   21.00
   2   1  -4 1019.10   20.10
  -2   1   4 1000.80   19.50
   2   1  -4 1039.40   20.40
  -2   1   4 1000.90   12.80
  -2   1   4 1041.10   21.70
   2   1  -4 1061.29   14.20
  -2  -1   4  976.80   18.50
   2  -1  -4 1006.80   12.50
  -2  -1   4 1040.40   21.70
   2   1  -3  138.59    6.60
  -2   1   3  137.79    6.20
   2  -1  -3  132.49    7.00
   2   1  -3  147.09    5.30
  -2  -1   3  135.99    7.00
  -2  -1   3  130.79    5.90
  -2   1   3  147.79    7.20
  -2   1   3  135.49    4.90
  -2  -1   3  143.09    5.80
   2  -1  -3  148.09    4.90
  -2   1   3  139.69    4.40
   2   1  -2    1.20    0.60
  -2   1   2    2.20    0.80
  -2  -1   2    2.80    0.80
  -2   1   2    1.40    0.50
   2   1  -2    1.90    0.70
   2  -1  -2    2.70    0.70
  -2   1   2    1.30    0.80
   2   1  -2    0.70    0.60
  -2  -1   2    2.50    0.70
   2  -1  -2    1.10    0.50
  -2  -1   2    0.70    0.60
   2   1  -1    0.50    0.40
   2   1  -1    2.00    0.50
  -2  -1   1    2.70    1.00
   2   1  -1    1.40    0.90
   2  -1  -1    1.60    0.80
  -2   1   1    1.80    0.80
   2   1  -1    2.50    0.80
  -2   1   1    4.20    1.00
   2  -1   0  187.08    4.00
  -2  -1   0  181.48    3.90
  -2  -1   0  175.68    5.50
   2   1   0  179.88    5.60
  -2   1   0  177.88    5.60
   2  -1   0  183.08    5.70
   2  -1   1    1.40    0.80
  -2  -1  -1    2.30    0.90
   2   1   1    2.50    0.90
  -2   1  -1    2.20    0.80
   2  -1   1    3.60    1.10
  -2  -1  -1    1.90    0.60
  -2  -1  -1    1.40    0.70
   2   1   1    1.10    0.40
  -2  -1  -1    1.10    0.40
  -2   1  -1    2.60    1.00
   2   1   1    3.10    0.90
   2  -1   1    2.20    0.80
  -2  -1  -2  145.39    5.00
  -2  -1  -2  147.59    4.90
   2  -1   2  149.39    5.70
   2   1   2  153.88    5.80
  -2   1  -2  144.39    5.30
   2   1   2  145.19    5.10
  -2   1  -2  147.59    5.90
   2   1   2  136.69    6.30
   2  -1   2  140.39    6.40
   2   1   3   78.79    5.60
   2  -1   3   76.09    5.60
   2   1   3   76.29    5.00
   2  -1   3   74.39    5.10
   2   1   3   77.19    5.60
  -2  -1  -3   79.29    3.60
  -2   1  -3   76.19    5.20
   2   1   3   67.49    3.80
   2  -1   3   68.39    4.30
   2  -1   4   -0.50    1.00
   2   1   4    3.30    1.60
  -2  -1  -4   -2.30    1.40
  -2   1  -4   -0.60    1.20
   2  -1   4   -0.70    1.10
   2   1   4    0.40    1.20
   2  -1   4    2.30    1.70
   2   1   4   -0.30    0.60
  -2  -1  -4    0.10    0.50
   2   1   4    1.20    1.60
   2   1   5   49.70    5.60
  -2  -1  -5   41.90    4.90
   2  -1   5   50.79    5.50
   2  -1   5   52.79    5.90
   2   1   5   46.10    5.60
  -2   1  -5   46.60    5.30
  -2  -1  -6   18.50    3.80
   2   1   6   13.50    3.30
   2   1   6   22.90    4.70
   2  -1   6   16.10    3.80
  -2   1  -6   19.90    4.10
  -2   1  -7    4.20    2.30
   2  -1   7    4.30    2.80
   2   1   7    0.20    1.50
  -2  -1  -7    1.90    2.40
  -2   1  -8    2.70    2.60
  -2  -1  -8    4.80    2.90
   2  -1   8    5.60    3.30
  -2  -1  -9    5.00    3.50
  -2   1  -9    0.00    1.80
   2  -2  -9   -1.10    1.50
   2   2  -9    3.00    1.90
   2   2  -9    1.60    2.10
   2  -2  -9    1.30    1.60
   2  -2  -8   -1.10    1.80
   2  -2  -8   -0.90    1.50
   2   2  -8   -1.80    2.20
  -2  -2   8   -1.50    2.00
   2   2  -8    3.10    2.70
   2   2  -7    1.10    1.80
  -2   2   7    3.90    2.80
   2  -2  -7    1.80    2.00
   2   2  -7    1.60    1.90
  -2  -2   7    2.90    2.10
   2  -2  -6    6.00    2.30
  -2   2   6    8.50    2.60
   2   2  -6    8.90    2.70
  -2  -2   6   14.80    3.60
   2   2  -6   11.60    2.90
  -2  -2   6    6.70    2.20
   2   2  -5   25.20    3.70
   2  -2  -5   20.90    1.60
   2   2  -5   27.90    2.60
   2  -2  -5   29.20    4.10
  -2  -2   5   28.00    3.80
  -2  -2   5   25.40    4.10
  -2   2   5   30.40    4.50
  -2   2   5   24.70    3.60
   2   2  -5   24.00    3.60
   2   2  -4  628.14   15.80
  -2   2   4  684.63   10.70
   2  -2  -4  639.34   16.90
  -2   2   4  615.54   15.60
   2   2  -4  627.34   15.60
  -2   2   4  630.44    9.80
  -2  -2   4  621.14   15.10
  -2   2   4  634.34   16.80
  -2  -2   4  663.03   17.50
   2  -2  -4  638.24   10.30
   2   2  -4  676.63   12.20
   2  -2  -3  344.57   11.30
   2  -2  -3  353.06    7.90
  -2   2   3  356.36    8.00
  -2   2   3  343.57   10.80
   2   2  -3  359.66    8.70
   2   2  -3  345.77   10.10
  -2   2   3  335.57   10.50
  -2   2   3  344.57   10.00
  -2  -2   3  338.67   11.00
  -2  -2   3  320.67    8.90
  -2   2   3  335.77    7.60
   2   2  -3  342.17    9.90
   2   2  -2  427.06    8.70
  -2   2   2  395.56    9.70
   2   2  -2  394.76    8.60
  -2   2   2  380.66    8.10
   2  -2  -2  407.96    8.60
   2   2  -2  418.26    9.20
  -2  -2   2  393.96    8.00
   2  -2  -2  439.76    8.40
  -2  -2   1  819.42   13.10
   2   2  -1  813.12   12.70
  -2   2   1  824.12   12.30
   2  -2  -1  821.62   12.40
  -2  -2   0    2.90    1.10
   2  -2   0    1.00    0.80
   2   2   0    0.60    0.60
  -2   2   0   -0.20    0.70
   2  -2   0    1.50    0.80
   2  -2   1  497.15    9.30
  -2   2  -1  479.25   10.00
   2   2   1  452.65    7.50
  -2  -2  -1  440.66    9.10
   2   2   1  435.76    9.00
   2  -2   1  454.55   10.20
  -2  -2  -1  449.56    9.50
   2  -2   1  449.06    9.40
  -2  -2  -2  175.08    5.60
   2   2   2  175.88    6.30
  -2  -2  -2  163.78    5.50
   2   2   2  174.48    5.50
   2  -2   2  168.08    6.60
   2  -2   2  173.68    7.10
   2   2   3   40.60    3.80
   2   2   3   38.80    2.70
   2   2   3   45.80    4.50
   2  -2   3   41.00    3.70
   2  -2   3   39.60    4.10
  -2  -2  -3   39.60    2.70
  -2   2  -3   42.20    4.10
   2   2   3   39.60    4.10
   2  -2   3   40.40    3.60
   2  -2   4    6.60    2.00
  -2  -2  -4    3.60    1.00
  -2   2  -4    4.70    1.60
   2   2   4    4.10    1.70
   2   2   4    4.80    1.00
   2   2   4    5.40    1.90
   2   2   4    5.10    1.90
   2  -2   4    4.60    1.50
   2  -2   4    5.10    1.60
   2  -2   5   17.20    3.20
   2   2   5   21.30    3.60
   2  -2   5   16.80    3.40
   2   2   5   17.60    3.50
  -2   2  -5   19.10    3.60
   2   2   5   13.80    1.30
   2   2   5   20.10    3.90
  -2  -2  -6   38.60    5.30
  -2   2  -6   36.00    5.20
   2  -2   6   34.90    5.40
   2   2   6   40.10    5.80
   2  -2   7    1.10    1.70
  -2   2  -7    5.90    2.90
  -2   2  -8   14.40    4.30
   2  -2   8    7.70    3.40
  -2  -2  -8   17.20    4.50
  -2   2  -9    6.20    3.50
  -2  -2  -9    0.90    2.00
   2  -2   9    2.00    2.90
   2  -3  -9    4.50    2.50
  -2  -3   9    2.70    2.70
   2   3  -9    3.50    3.10
   2   3  -9    0.20    2.10
   2  -3  -9    5.40    3.20
   2   3  -8    9.10    3.60
   2  -3  -8    7.90    3.30
   2  -3  -8   11.50    4.10
   2   3  -8    6.30    2.80
  -2  -3   8    4.60    2.70
   2  -3  -7    7.60    3.30
  -2   3   7    2.70    1.60
   2   3  -7    8.20    3.10
  -2  -3   7    2.00    1.30
   2   3  -7    2.60    1.90
   2  -3  -6   24.40    4.40
   2   3  -6   23.90    3.90
  -2   3   6   25.00    4.30
  -2  -3   6   21.40    3.90
  -2  -3   6   29.20    4.90
   2   3  -6   20.90    3.90
   2   3  -5   -1.50    1.40
  -2   3   5   -0.10    1.40
   2  -3  -5   -1.50    1.70
   2   3  -5    0.40    0.60
  -2  -3   5    0.60    1.10
  -2  -3   5    1.40    1.70
  -2   3   5    0.50    1.70
   2   3  -5    0.80    1.50
  -2   3   5    0.80    0.80
   2   3  -4  244.58   10.10
  -2  -3   4  271.07   11.20
   2  -3  -4  247.48   10.70
  -2   3   4  252.37   10.20
   2   3  -4  262.27    8.40
  -2   3   4  261.97   10.80
  -2   3   4  273.47   11.10
  -2   3   4  249.68    6.20
  -2  -3   4  245.88    9.70
   2  -3  -4  246.48    6.70
  -2   3   4  270.17    7.70
   2   3  -4  258.97    9.80
  -2   3   3   10.80    2.00
   2   3  -3   11.80    2.00
   2   3  -3   11.60    1.90
  -2   3   3   11.00    1.80
  -2   3   3   11.90    2.00
   2  -3  -3   11.90    2.50
  -2   3   3   13.30    1.50
  -2  -3   3   10.90    1.00
  -2   3   3   10.50    2.10
  -2  -3   3   16.10    2.70
   2   3  -3   13.50    2.00
   2  -3  -3   10.70    1.50
  -2  -3   3   11.50    1.90
   2   3  -2    2.60    1.00
  -2  -3   2    1.40    0.70
  -2   3   2    3.20    1.00
   2   3  -2    2.20    0.60
  -2   3   2    2.00    0.80
  -2  -3   2    3.00    1.00
   2  -3  -2    1.90    0.90
   2   3  -2    3.00    1.10
  -2  -3   2    3.00    0.80
   2  -3  -1  511.35   10.80
   2   3  -1  517.25   10.80
  -2  -3   1  527.85    8.20
   2  -3   0  211.68    7.20
   2   3   0  226.38    7.00
   2   3   1  159.48    4.30
   2   3   1  156.88    5.50
   2  -3   1  157.98    6.50
   2  -3   1  159.48    6.10
   2   3   2  250.97    6.90
  -2  -3  -2  237.98    7.10
   2   3   2  246.08    6.90
   2  -3   2  249.88    8.90
   2  -3   2  235.28    8.40
   2   3   2  259.87    7.80
  -2  -3  -3    0.50    0.70
   2  -3   3    0.30    0.90
   2   3   3    1.40    1.30
   2  -3   3    2.00    1.10
   2   3   3   -1.20    1.00
   2   3   3    0.30    0.60
   2  -3   3   -2.50    1.30
   2   3   4   56.09    5.10
  -2   3  -4   59.19    5.50
   2   3   4   53.19    5.30
   2  -3   4   54.79    4.80
   2  -3   4   59.09    4.70
   2   3   4   50.89    3.00
   2  -3   4   56.39    5.50
  -2   3  -5  107.09    8.40
   2   3   5  101.59    8.10
   2  -3   5  100.19    7.20
   2  -3   5   95.79    8.20
   2   3   5   95.49    7.40
   2  -3   6    6.50    2.80
   2   3   6    9.30    2.90
  -2   3  -6   13.20    3.30
   2   3   6    9.00    3.40
  -2  -3  -7    1.00    1.70
  -2   3  -7    6.30    3.20
   2  -3   7    4.80    2.30
  -2  -3  -8   -0.50    1.80
   2  -3   8    0.90    1.90
  -2  -3  -9    5.80    3.30
   2  -3   9    4.00    2.90
   2   4  -9    7.70    3.60
   2   4  -9    3.40    2.80
   2  -4  -9    6.30    3.40
  -2  -4   9   -1.00    1.60
   2  -4  -9   -1.10    2.00
  -2   4   8    7.00    3.80
   2   4  -8    5.20    2.70
   2  -4  -8    7.70    3.00
  -2  -4   8    0.80    1.80
   2   4  -8    2.60    2.30
  -2   4   7   -0.30    1.80
   2   4  -7    1.80    1.40
   2  -4  -7    0.40    1.70
   2   4  -7    0.20    1.50
  -2  -4   7    2.10    1.60
   2   4  -6   14.40    3.30
   2   4  -6   12.60    2.90
  -2  -4   6   14.70    3.30
  -2   4   6   14.90    3.50
   2  -4  -6   14.00    3.50
   2   4  -6   15.40    2.10
  -2  -4   6   12.00    3.20
   2   4  -5   16.10    3.30
  -2   4   5   17.50    3.60
   2   4  -5   19.40    2.50
   2  -4  -5   16.80    3.60
   2   4  -5   14.10    2.80
  -2   4   5   12.60    2.80
  -2  -4   5   12.70    2.70
  -2  -4   5   15.50    3.50
  -2   4   5   16.70    2.20
  -2   4   4   14.90    2.20
   2   4  -4   13.30    2.60
   2   4  -4   16.20    2.30
  -2  -4   4   11.80    2.40
   2  -4  -4   13.80    3.00
   2   4  -4   15.10    2.60
  -2  -4   4   19.10    3.30
  -2   4   4   16.80    3.10
  -2   4   4   13.90    1.60
   2  -4  -4   13.50    1.90
  -2   4   4   12.50    2.70
  -2   4   4   12.90    2.60
  -2   4   3   34.70    3.80
   2   4  -3   29.90    3.40
   2  -4  -3   30.90    3.70
  -2  -4   3   30.90    1.90
  -2   4   3   36.00    3.60
   2   4  -3   34.80    3.30
  -2  -4   3   29.70    3.40
  -2  -4   3   30.40    3.30
  -2   4   3   34.50    2.70
  -2   4   3   28.90    2.90
   2  -4  -3   33.10    3.00
   2   4  -3   31.90    3.00
  -2  -4   2    1.10    1.00
  -2  -4   2    2.70    0.90
   2  -4  -2    1.50    0.90
   2   4  -2    1.90    1.10
   2   4  -1   73.59    4.50
  -2  -4   1   70.29    3.90
   2  -4  -1   66.59    4.20
   2  -4   0    4.40    1.60
   2   4   0    0.50    0.70
   2   4   1  290.87    8.10
   2  -4   1  286.57    8.70
   2  -4   1  283.67    9.20
   2   4   2   91.19    4.90
   2   4   2  100.49    4.70
   2   4   2   99.49    4.50
   2  -4   2   94.79    5.70
   2  -4   2   92.39    5.70
   2  -4   3   21.20    3.20
   2   4   3   15.30    2.80
   2  -4   3   18.70    2.30
   2   4   3   19.40    2.00
   2  -4   3   12.90    2.60
   2   4   3   17.30    2.50
   2   4   4   27.50    3.80
   2   4   4   25.50    4.00
   2  -4   4   25.90    3.30
   2   4   4   21.10    2.00
   2  -4   4   27.00    3.90
   2  -4   5   14.40    3.10
   2   4   5    9.30    1.10
   2   4   5   14.60    3.30
   2   4   5   15.00    3.60
   2   4   6    8.50    2.90
   2   4   6    5.90    3.20
   2  -4   6    4.50    1.90
  -2  -4  -7   52.79    7.00
   2   4   7   47.60    6.70
   2  -4   7   47.70    7.10
   2  -4   8   36.60    7.30
  -2  -4  -8   33.20    6.40
   2  -4   9    2.20    2.60
  -2  -4  -9    2.10    3.00
  -2  -5   9    2.70    2.00
   2  -5  -9    4.10    3.10
   2  -5  -9    0.80    2.70
   2   5  -9    0.60    1.90
  -2   5   8    0.50    2.30
   2   5  -8   -0.80    1.60
   2  -5  -8    3.80    2.80
  -2  -5   8    1.40    1.50
   2   5  -7   16.90    4.10
   2  -5  -7    7.60    3.10
   2   5  -7    7.60    3.00
  -2  -5   7   17.30    4.00
  -2   5   7    7.00    2.70
   2   5  -6    3.00    2.10
   2   5  -6    1.80    1.00
   2   5  -6   -0.40    1.60
   2  -5  -6    2.30    2.00
  -2   5   6    0.10    1.60
  -2  -5   6    4.60    2.50
  -2  -5   6    1.80    1.00
   2  -5  -5   91.29    7.90
   2   5  -5  101.49    6.80
   2   5  -5   99.79    7.90
  -2   5   5   98.79    7.60
  -2   5   5   98.39    7.80
   2   5  -5  121.09    6.60
  -2  -5   5  110.49    8.20
  -2   5   5  111.69    8.10
  -2   5   5  118.29    6.30
  -2  -5   5   96.59    7.20
   2  -5  -4   77.79    6.50
   2  -5  -4   76.99    4.50
   2   5  -4   67.79    4.90
  -2   5   4   71.09    5.80
   2   5  -4   76.39    5.20
  -2  -5   4   69.19    5.80
  -2   5   4   80.49    6.00
  -2   5   4   69.89    4.80
  -2  -5   4   77.49    5.90
  -2   5   4   73.79    6.10
  -2   5   3   44.30    4.10
   2  -5  -3   43.70    4.60
   2   5  -3   47.10    3.50
  -2  -5   3   42.90    4.10
   2   5  -3   46.50    4.00
  -2  -5   3   41.10    4.10
  -2   5   3   47.20    4.00
  -2  -5   3   43.80    2.70
  -2   5   3   42.00    3.70
   2  -5  -3   42.70    3.60
  -2  -5   2   51.69    3.40
  -2   5   2   56.39    4.30
   2  -5  -2   54.29    4.10
  -2   5   2   58.69    3.80
   2   5  -2   55.19    4.30
   2   5  -1  427.46   11.40
   2  -5  -1  435.86   11.60
   2   5   0  584.14   13.00
   2  -5   0  579.74   13.90
   2   5   1  125.09    5.90
   2  -5   1  128.29    6.90
   2   5   2   42.90    3.30
   2  -5   2   38.20    3.90
   2   5   2   40.70    3.20
   2  -5   2   41.80    4.20
   2   5   3   18.40    3.10
   2   5   3   15.70    2.00
   2   5   3   16.20    2.60
   2  -5   3   12.40    2.10
   2  -5   3   13.30    2.40
   2   5   3   14.70    2.40
   2  -5   3   13.60    2.50
   2  -5   4    0.20    1.10
   2   5   4    1.70    0.90
   2   5   4   -0.40    1.50
   2  -5   4    1.30    0.80
   2   5   4    0.90    0.90
   2  -5   5   35.60    5.20
   2   5   5   36.90    4.80
   2   5   5   43.60    5.70
   2   5   6   48.40    6.20
   2  -5   6   46.90    6.60
   2   5   6   48.80    6.80
   2   5   7   16.40    4.30
   2  -5   7   14.60    3.90
   2  -5   8    0.70    2.00
  -2  -5  -8    0.20    2.00
  -2  -6   9   -1.40    1.70
   2  -6  -9    5.80    3.50
   2   6  -9    4.40    2.70
  -2   6   9    8.70    4.30
  -2   6   8    2.60    3.00
  -2  -6   8    3.20    2.40
   2  -6  -8    7.50    3.60
   2   6  -8    3.10    2.60
   2  -6  -7   62.39    7.90
   2   6  -7   64.19    6.80
  -2   6   7   51.09    6.90
  -2  -6   7   52.29    6.70
   2  -6  -6    0.00    1.70
   2   6  -6    0.70    1.50
  -2   6   6    0.10    1.50
  -2  -6   6    5.50    2.80
  -2  -6   6    1.40    1.20
  -2   6   6    4.10    1.90
   2   6  -6    1.30    1.10
   2  -6  -5   34.10    4.90
  -2  -6   5   27.00    4.00
   2   6  -5   27.90    3.60
   2   6  -5   34.80    3.80
  -2   6   5   33.30    3.80
  -2   6   5   29.90    4.20
  -2   6   5   31.60    4.70
  -2  -6   5   31.40    4.50
  -2  -6   4   30.90    4.00
   2   6  -4   28.00    3.10
   2  -6  -4   27.80    4.30
  -2   6   4   31.20    4.00
  -2  -6   4   29.60    3.90
  -2   6   4   29.40    3.80
   2   6  -4   28.80    3.40
  -2   6   4   30.80    3.60
  -2   6   3   18.00    2.80
  -2  -6   3   16.70    2.80
   2   6  -3   18.70    2.20
   2  -6  -3   16.00    2.50
   2   6  -3   16.00    2.50
  -2  -6   3   18.70    2.80
  -2   6   3   17.30    3.00
  -2   6   3   15.50    2.40
  -2  -6   3   14.20    1.70
   2   6  -2   27.60    3.10
  -2   6   2   27.10    2.70
   2  -6  -2   29.00    3.20
  -2   6   2   25.80    3.20
   2  -6  -1  143.09    7.20
   2   6  -1  139.89    6.90
   2  -6   0   21.00    3.10
   2   6   0   19.50    2.70
   2  -6   1   28.80    3.50
   2   6   1   28.20    3.10
   2  -6   2   75.49    5.80
   2   6   2   79.49    4.80
   2  -6   2   78.49    5.80
   2   6   3   12.10    1.90
   2   6   3   10.60    2.20
   2  -6   3   11.90    2.70
   2   6   3   15.70    3.00
   2  -6   3    9.90    1.70
   2   6   3   10.90    2.20
   2  -6   3    8.80    2.20
   2   6   4  101.39    7.90
   2  -6   4  100.59    5.80
   2   6   4  102.29    7.20
   2   6   4   98.49    6.80
   2   6   4  108.69    5.00
   2  -6   4  110.59    8.30
   2   6   5   55.39    6.10
   2   6   5   50.69    6.20
   2  -6   5   44.90    5.80
   2  -6   6   -1.30    2.00
   2   6   6    1.80    2.00
   2   6   6    2.90    2.90
   2  -6   7   15.70    4.40
   2   6   7   15.80    4.00
   2   6   8   10.50    4.10
   2  -6   8    5.30    2.80
  -2  -7   9    3.20    2.40
   2  -7  -8    2.00    2.50
   2   7  -8   -0.90    1.70
  -2   7   8    2.10    1.80
  -2  -7   8    2.50    2.50
  -2  -7   7    2.70    2.30
   2  -7  -7    7.20    3.30
   2   7  -7    9.80    3.10
  -2   7   7    3.10    2.00
   2  -7  -6    5.60    2.70
  -2   7   6    6.90    2.00
   2   7  -6    3.90    1.80
  -2  -7   6    5.10    2.20
  -2   7   6    6.90    2.80
   2   7  -6    3.10    1.20
  -2   7   6    3.30    2.30
  -2  -7   6   11.20    3.40
  -2   7   5    5.90    2.00
   2   7  -5    3.10    1.70
  -2   7   5   -1.40    1.90
  -2  -7   5    2.20    1.70
  -2   7   5    3.10    2.00
   2   7  -5    2.50    1.30
  -2  -7   5    6.30    2.50
   2  -7  -5    4.10    2.30
   2  -7  -4    3.10    2.10
  -2   7   4   -0.80    1.20
   2   7  -4    0.80    0.80
   2   7  -4    5.70    1.60
  -2  -7   4    2.20    1.80
  -2   7   4    3.10    1.60
  -2   7   4    1.60    1.20
  -2  -7   4    3.20    2.00
  -2  -7   3    1.40    1.00
   2  -7  -3    0.30    0.70
  -2  -7   3    2.60    1.40
  -2   7   3    1.50    1.10
  -2   7   3    2.10    1.20
   2   7  -2  148.79    6.30
  -2   7   2  149.19    5.90
  -2   7   2  137.79    7.70
   2  -7  -2  134.29    7.40
   2   7  -1  222.28    8.20
   2  -7  -1  214.18    9.30
  -2   7   1  211.68    9.20
   2  -7   0  500.85   14.60
   2   7   0  504.75   13.10
   2   7   1  207.68    8.50
   2  -7   1  206.18    9.90
   2  -7   2   42.30    2.40
   2   7   2   38.90    4.10
   2  -7   2   36.70    4.30
   2   7   2   39.90    3.70
   2  -7   2   35.90    4.30
   2  -7   3   31.30    4.20
   2   7   3   26.80    3.20
   2  -7   3   33.10    2.70
   2   7   3   32.00    4.40
   2   7   3   35.00    3.40
   2   7   4   75.49    7.10
   2  -7   4   75.29    7.00
   2   7   4   74.79    6.30
   2   7   4   70.79    5.90
   2   7   4   75.49    4.50
   2   7   5    5.50    2.40
   2  -7   5    1.50    1.60
   2   7   5    0.30    2.10
   2  -7   6   17.70    4.20
   2   7   6   23.30    4.50
   2   7   6   24.10    4.90
   2   7   7    7.50    3.70
   2  -7   7    8.30    3.40
   2   7   8   36.80    6.40
   2  -7   8   31.80    6.60
  -2  -8   9    0.60    2.30
   2  -8  -8    7.80    3.90
  -2   8   8   10.90    3.80
  -2  -8   8    1.80    2.70
   2  -8  -7    2.50    2.20
   2   8  -7    3.70    2.30
  -2   8   7    6.20    3.50
  -2  -8   7    2.40    1.60
   2  -8  -6   16.40    3.90
   2   8  -6   13.00    2.80
  -2   8   6   14.10    3.10
  -2   8   6   11.50    3.30
  -2   8   6   14.10    3.60
  -2  -8   6   13.70    3.40
  -2  -8   6   15.60    3.70
   2   8  -6   14.60    2.90
   2  -8  -5    4.40    2.60
   2   8  -5    2.30    1.40
  -2   8   5    2.30    1.80
  -2  -8   5    1.70    1.70
   2   8  -5    1.70    1.50
  -2  -8   5    4.60    2.40
  -2   8   5    3.80    2.00
  -2   8   5    5.30    2.30
  -2   8   4    1.10    1.10
  -2  -8   4    0.00    0.90
   2   8  -4    0.50    0.70
   2  -8  -4    3.10    2.30
  -2   8   4   -0.60    1.30
   2   8  -4    2.00    1.40
  -2  -8   4    2.20    1.40
  -2  -8   3   34.50    4.40
  -2  -8   3   45.80    4.50
  -2   8   3   44.70    3.90
  -2   8   3   41.60    4.40
   2   8  -2    1.00    0.80
   2  -8  -2   -0.70    1.00
  -2   8   2    0.40    0.70
  -2   8   2   -0.60    1.00
  -2   8   1   79.89    3.20
   2  -8  -1   69.39    5.70
   2   8  -1   75.69    5.10
  -2   8   1   68.09    5.60
   2   8   0  702.03   16.30
   2  -8   0  715.53   18.20
  -2   8   0  709.93   17.60
   2  -8   1    9.70    2.60
   2   8   1   13.80    2.40
   2   8   1   14.40    2.50
   2   8   2   29.00    3.40
   2   8   2   25.70    3.50
   2  -8   2   22.80    3.50
   2  -8   2   28.50    1.70
   2  -8   3  165.58    9.80
   2   8   3  187.78   10.00
   2   8   3  172.68    8.40
   2   8   3  179.58    7.80
   2   8   4   19.90    2.50
   2   8   4   15.20    3.10
   2   8   4   18.90    3.90
   2   8   4   21.00    3.40
   2  -8   4   18.70    3.70
   2  -8   5   42.30    5.80
   2   8   5   37.30    4.90
   2   8   5   44.30    6.00
   2   8   5   34.90    4.80
   2   8   6  159.08   12.20
   2   8   6  146.19   10.80
   2  -8   6  126.59   10.90
   2  -8   7    0.40    1.40
   2   8   7   -1.00    2.10
   2   8   8   35.60    6.50
   2  -8   8   29.40    6.60
  -2  -9   9    2.00    2.60
  -2   9   8   17.30    5.00
   2  -9  -8   11.20    4.30
  -2  -9   8    6.20    3.40
   2  -9  -7    5.80    3.60
  -2   9   7    2.30    2.10
  -2  -9   7    1.50    2.10
  -2   9   6   32.40    4.50
   2  -9  -6   26.20    5.00
   2   9  -6   28.10    3.80
  -2   9   6   25.70    5.00
  -2  -9   6   26.50    4.90
   2   9  -6   30.00    4.20
  -2   9   6   22.90    4.60
   2  -9  -5    9.90    2.80
   2   9  -5   12.50    2.40
   2   9  -5    9.00    2.40
  -2   9   5    7.30    2.60
  -2   9   5   12.60    2.80
  -2  -9   5   10.00    2.90
  -2  -9   5   15.30    3.50
  -2   9   4    0.60    1.30
   2   9  -4   -0.70    1.00
  -2   9   4    0.60    1.70
  -2  -9   4    0.10    1.00
  -2   9   3    9.70    2.50
   2   9  -3   13.30    2.10
  -2  -9   3   12.70    2.50
  -2  -9   3   16.40    3.30
  -2   9   2   10.90    3.00
   2   9  -2   12.50    2.10
  -2   9   2   10.30    1.40
  -2   9   1   57.09    2.50
   2   9  -1   54.99    4.60
  -2   9   1   54.79    5.30
  -2   9   0   58.59    5.60
   2   9   0   56.39    4.90
  -2   9  -1   45.80    4.90
   2   9   1   49.10    4.80
   2   9   2   42.30    4.30
   2   9   2   45.00    4.40
   2  -9   2   42.00    4.90
   2   9   3    0.30    1.10
   2  -9   3    1.10    1.60
   2   9   3   -0.80    1.70
   2   9   3    1.10    0.90
   2  -9   4    1.60    1.40
   2   9   4    5.50    2.20
   2   9   4    6.80    1.70
   2   9   5   14.90    3.30
   2   9   5   21.70    4.50
   2   9   5   16.30    3.40
   2  -9   5   14.70    3.60
   2   9   6   30.80    5.20
   2  -9   6   32.00    5.80
   2   9   7    9.70    3.20
   2  -9   7    4.30    2.60
   2   9   8   -1.60    2.10
   2  -9   8   -0.20    1.70
  -2  -9  -8   -1.90    2.80
  -2 -10   8   -0.60    1.80
  -2  10   8    5.80    4.00
   2 -10  -8    8.10    3.90
  -2 -10   7    2.20    1.50
  -2  10   7    5.10    3.30
   2 -10  -7   -3.30    2.60
   2 -10  -6   11.40    3.80
  -2  10   6   11.80    3.60
   2  10  -6   11.00    2.70
  -2 -10   6    5.10    2.40
  -2  10   6   12.50    3.70
  -2  10   6   11.50    3.10
  -2  10   5   54.99    6.60
   2  10  -5   49.50    5.60
  -2 -10   5   52.59    5.90
  -2  10   5   55.79    5.90
  -2 -10   5   43.90    5.70
  -2 -10   4   30.00    4.50
  -2  10   4   24.60    3.90
  -2  10   4   29.20    4.60
  -2 -10   4   32.20    4.30
   2  10  -3    3.50    1.40
  -2 -10   3    3.20    1.80
  -2  10   3    2.30    1.60
   2  10  -2   31.70    3.60
  -2  10   2   31.40    4.20
  -2  10   1   39.80    4.90
   2  10  -1   38.00    4.00
   2 -10   0   83.49    3.50
   2  10   0   73.49    5.90
  -2  10   0   70.19    6.20
   2  10   1    1.60    1.20
   2  10   1    1.40    1.60
  -2  10  -1    2.80    1.70
  -2  10  -1    3.00    0.70
   2  10   2   11.50    2.70
   2  10   2    9.70    2.50
   2  10   2   10.40    2.10
  -2  10  -2    6.20    2.00
   2  10   3   52.89    5.70
   2  10   3   54.69    5.00
  -2  10  -3   47.00    5.30
   2 -10   3   51.29    5.90
   2  10   4    1.30    2.00
  -2  10  -4    0.80    1.20
   2  10   4   -1.00    1.80
   2  10   4   -1.30    1.10
   2 -10   4   -1.20    1.50
   2 -10   5   11.30    3.50
   2  10   5   12.10    3.10
   2  10   5   11.70    2.90
   2  10   5    5.70    2.70
  -2  10  -5   14.00    2.90
   2  10   6    5.80    2.70
   2 -10   6    4.00    2.60
   2 -10   7   20.10    5.00
   2  10   7   18.80    4.90
   2 -10   8    0.40    1.80
  -2 -10  -8    0.00    2.30
   2  10   8    2.40    2.20
  -2 -11   8   -0.50    2.30
  -2  11   8   -0.70    2.20
  -2  11   7    2.40    2.70
  -2 -11   7    0.20    2.20
  -2  11   7   -4.30    2.90
   2  11  -6   48.20    6.00
  -2  11   6   44.80    6.30
  -2  11   6   45.80    6.50
  -2  11   6   46.00    5.70
  -2 -11   6   46.30    6.50
  -2  11   5   74.19    7.50
   2  11  -5   69.89    6.90
  -2  11   5   69.69    7.50
  -2 -11   5   68.39    6.90
  -2 -11   5   61.19    7.10
  -2  11   4   81.79    7.60
  -2 -11   4   73.89    7.40
  -2 -11   4   78.79    6.60
  -2  11   4   82.09    7.30
   2  11  -4   84.29    5.60
  -2 -11   3   80.89    5.90
   2  11  -3   88.69    6.00
  -2  11   3   88.69    7.50
   2  11  -2   93.69    6.50
  -2  11   2   96.79    7.70
   2  11  -1    8.30    2.00
  -2  11   1   10.80    3.10
   2 -11   0   13.90    1.50
   2  11   0   15.20    2.90
  -2  11   0   12.00    3.10
   2  11   1    1.60    1.40
  -2 -11  -1    1.50    0.70
   2  11   1    1.50    1.60
  -2  11  -1    4.30    2.00
   2  11   2   85.49    6.50
   2  11   2   82.79    7.00
   2  11   2   88.09    6.70
  -2  11  -2   73.89    6.70
   2  11   3    3.40    1.80
   2 -11   3    4.00    2.30
   2  11   3    7.30    2.40
  -2  11  -3    4.50    2.10
   2 -11   4    2.70    1.40
   2  11   4    1.60    1.20
   2  11   4    2.60    2.50
   2  11   4    4.60    2.10
  -2  11  -4    2.50    1.50
   2  11   5   -1.10    2.00
   2 -11   5    5.50    2.70
   2  11   5    3.30    3.10
   2  11   5    2.50    1.20
  -2  11  -5    5.50    2.50
   2 -11   6    3.30    2.30
   2  11   6    2.60    2.30
   2  11   7    1.00    1.70
   2 -11   7    5.70    3.30
  -2 -11  -8   14.90    4.50
   2  11   8   14.20    4.90
  -2 -12   8   -0.10    1.40
  -2 -12   7    5.40    2.80
  -2  12   7    6.40    3.30
  -2  12   7   10.00    3.70
  -2 -12   6    5.20    2.70
  -2  12   6    8.30    3.20
   2  12  -6    5.90    2.00
  -2  12   6    2.00    2.50
  -2  12   6    8.80    3.70
  -2  12   5    4.50    2.70
  -2 -12   5    2.50    1.80
  -2  12   5    5.30    2.70
  -2 -12   5    2.70    1.70
   2  12  -5    2.70    2.10
  -2 -12   4    6.50    2.70
  -2  12   4    4.00    1.90
   2  12  -4    5.30    1.90
  -2 -12   4    2.60    1.50
   2  12  -3    7.40    2.10
  -2 -12   3    3.60    1.90
  -2  12   3    4.70    2.30
  -2 -12   2   78.09    5.10
   2  12  -2   69.59    5.90
  -2  12   2   77.29    7.10
   2  12  -1   40.60    4.70
  -2  12   1   33.10    4.70
   2  12   0   -1.90    1.50
  -2  12   0   -1.50    1.70
   2  12   1    2.90    2.60
   2  12   1    0.20    1.30
  -2  12  -1    2.30    1.90
  -2 -12  -1    2.10    0.80
  -2  12  -2    2.50    1.80
   2  12   2    3.60    2.20
  -2 -12  -2    1.90    1.40
   2  12   2   -0.90    1.50
   2 -12   3  172.38   11.40
  -2  12  -3  146.69    9.80
   2  12   3  164.88   10.00
   2  12   3  186.28   10.00
   2  12   4   84.09    8.00
   2  12   4   73.49    6.90
   2 -12   4   74.99    8.00
   2  12   4   83.39    6.50
  -2  12  -4   64.89    6.80
  -2  12  -5    2.90    1.50
  -2 -12  -5    0.60    1.40
   2  12   5    3.70    2.30
   2  12   5    3.50    2.80
   2  12   5    4.60    2.50
   2 -12   5    4.40    2.20
  -2 -12  -6   -2.60    1.60
   2  12   6    4.80    1.90
   2 -12   6   -0.60    1.60
   2  12   6    2.00    2.60
  -2 -12  -7    3.30    2.70
   2  12   7    4.70    2.50
   2 -12   7    4.30    2.70
  -2 -13   8   -2.60    2.20
  -2 -13   7    3.00    2.40
  -2  13   7    2.20    1.90
  -2  13   6   20.40    4.40
  -2  13   6   15.00    4.10
   2  13  -6   23.50    4.50
  -2  13   6   15.80    4.70
  -2 -13   6   17.30    4.40
  -2  13   5   18.30    4.20
  -2  13   5   19.90    4.50
   2  13  -5   24.70    4.60
  -2 -13   5   19.20    4.30
  -2 -13   4   45.40    6.00
  -2 -13   4   53.79    5.30
  -2  13   4   60.79    7.00
   2  13  -4   55.49    5.20
  -2 -13   3    1.60    1.80
   2  13  -3    1.00    0.90
  -2  13   3   -1.00    1.70
  -2 -13   2   55.19    4.30
   2  13  -2   51.99    5.40
  -2  13   2   53.89    6.30
   2  13  -1   34.50    4.60
  -2  13   1   33.00    5.00
  -2  13   0    0.40    1.50
   2  13   0    0.50    1.50
   2  13   0    1.30    1.60
  -2  13  -1    8.40    2.70
   2  13   1    7.50    2.20
   2  13   1   10.80    3.10
   2  13   2    5.40    2.50
  -2 -13  -2    6.40    1.70
  -2  13  -2    4.20    2.00
   2  13   2    5.60    2.40
  -2 -13  -3   20.10    3.10
   2 -13   3   19.10    4.00
  -2  13  -3   21.80    4.00
   2  13   3   22.00    3.70
   2  13   3   19.20    3.90
   2 -13   4   18.70    4.10
  -2  13  -4   19.50    4.00
  -2 -13  -4   19.10    3.70
   2  13   4   24.70    3.90
   2  13   4   21.90    4.70
   2  13   4   16.10    3.40
  -2 -13  -5   19.60    3.80
   2  13   5   24.20    4.60
  -2  13  -5   22.60    4.20
   2  13   5   22.50    4.40
   2 -13   5   24.20    5.00
  -2 -13  -6    3.30    2.70
   2  13   6   -5.00    2.90
   2  13   6   -0.30    2.00
   2 -13   6    1.90    1.80
  -2 -13  -7    2.30    1.70
   2  13   7    5.80    3.30
   2 -13   7    7.60    3.80
  -2 -14   7   -3.10    1.60
  -2  14   7   -0.70    2.20
  -2  14   6   31.60    5.90
  -2 -14   6   33.50    6.00
  -2  14   6   45.50    6.50
   2  14  -6   42.30    6.30
  -2 -14   5    4.00    2.60
  -2  14   5    4.20    2.90
  -2  14   5    3.00    2.70
   2  14  -4    3.90    1.80
  -2 -14   4    3.10    2.40
  -2  14   4    7.10    2.80
  -2  14   3  314.37   15.90
   2  14  -3  297.87   13.10
  -2  14   2   43.30    5.80
   2  14  -2   40.90    5.10
   2  14  -1   43.40    5.30
  -2  14   1   43.40    5.80
   2  14  -1   55.99    3.90
   2  14   0  201.18    8.30
   2  14   0  178.78   11.10
  -2  14   0  168.68   11.30
  -2  14  -1    2.60    1.60
   2  14   1    1.20    1.40
   2  14   1    2.10    1.50
  -2  14  -2   14.50    3.70
  -2 -14  -2   11.10    2.10
   2  14   2   13.30    3.40
   2  14   2   14.50    2.90
   2  14   3   28.30    4.40
  -2 -14  -3   24.00    3.50
   2 -14   3   25.80    5.00
  -2  14  -3   16.30    3.70
   2  14   3   25.20    4.20
  -2  14  -4   22.80    4.40
  -2 -14  -4   17.70    3.80
   2  14   4   25.20    3.90
   2  14   4   20.30    4.00
   2  14   4   25.00    5.00
   2 -14   4   23.00    4.60
  -2 -14  -5    4.40    3.00
   2  14   5    1.70    2.20
   2 -14   5    2.10    1.60
  -2 -14  -6    0.40    1.90
   2  14   6    0.70    2.20
   2 -14   6    2.10    1.60
   2  14   6    0.50    1.80
  -2 -14  -7   -1.80    2.10
   2  14   7    0.80    1.80
  -2 -15   7    6.60    1.90
  -2  15   6    6.10    3.60
  -2  15   6    8.20    3.40
   2  15  -6    5.80    2.80
  -2 -15   6    6.40    3.20
  -2  15   5    7.90    3.50
  -2  15   5    6.40    3.10
  -2 -15   5   -0.50    1.90
  -2  15   4    7.80    3.40
  -2 -15   4    4.40    2.50
   2  15  -3   13.00    3.10
  -2  15   3   13.20    3.90
  -2  15   2   50.69    6.70
   2  15  -2   45.70    5.50
  -2  15   1   45.70    6.30
   2  15  -1   47.30    5.90
   2  15   0   81.29    7.70
   2  15   0   88.29    5.60
  -2  15   0   75.79    7.90
  -2  15  -1   17.90    4.00
   2  15   1   15.10    2.90
   2  15   1   13.70    3.70
   2  15   2   47.30    6.30
   2  15   2   53.49    5.60
  -2  15  -2   51.09    6.50
   2 -15   3   20.70    4.60
   2  15   3   24.30    4.40
   2  15   3   19.40    3.80
  -2  15  -3   17.60    4.00
  -2  15  -4   -0.70    1.50
   2 -15   4    4.60    2.30
   2  15   4    0.90    1.70
   2  15   4    3.60    2.30
  -2 -15  -5   30.00    5.00
   2 -15   5   33.20    6.10
   2  15   5   35.40    5.70
  -2 -15  -6    3.20    2.60
   2  15   6    2.30    2.20
   2 -15   6    4.00    2.40
   2  15   6    7.00    2.90
  -2 -15  -7    0.30    2.20
  -2 -16   6    3.60    2.50
  -2  16   6    5.40    2.40
  -2  16   6   -0.80    2.50
   2  16  -6    1.40    2.00
  -2 -16   5    5.00    2.60
  -2  16   5    9.50    3.60
  -2  16   4   16.50    4.80
  -2 -16   4   15.20    3.90
  -2  16   3    3.20    3.30
   2  16  -3    1.50    1.30
   2  16  -2    7.50    2.80
  -2  16   2    7.40    2.80
  -2  16   1    9.10    3.40
   2  16  -1    3.10    1.80
   2  16   0   18.80    4.00
  -2  16   0   19.50    4.20
   2  16   1   38.20    5.70
  -2  16  -1   39.30    6.00
   2  16   2    1.30    2.50
   2  16   2    1.20    1.70
  -2  16  -2   -1.10    1.50
  -2  16  -3    3.10    2.50
   2 -16   3    3.50    2.50
   2  16   3    2.50    2.90
   2  16   3    1.80    2.40
   2  16   4    0.00    2.10
   2 -16   4   -1.70    1.40
   2  16   4    0.80    1.30
  -2  16  -4    3.60    2.20
   2 -16   5   25.80    5.90
   2  16   5   24.80    5.10
   2  16   6   -0.60    2.10
   2  16   6    1.00    2.10
   2 -16   6    4.50    3.30
   2  17  -6    3.00    1.80
  -2  17   6    7.80    3.50
  -2  17   5   36.30    6.40
   2  17  -5   36.40    6.30
  -2  17   5   34.90    6.50
  -2 -17   5   30.20    5.80
  -2  17   4   53.19    7.70
  -2 -17   4   42.50    6.80
  -2  17   3    7.40    3.10
   2  17  -3   10.30    3.00
   2  17  -2   31.60    5.10
  -2  17   2   45.10    6.70
  -2  17   1   34.00    5.50
   2  17  -1   27.40    4.90
   2  17   0   -2.40    2.00
  -2  17   0   -0.60    2.10
  -2  17  -1    9.00    3.00
   2  17   1    8.10    3.10
  -2  17  -2    0.30    1.60
   2  17   2    1.70    1.80
   2  17   3    1.00    1.80
  -2  17  -3   -2.30    1.90
  -2  17  -4    8.50    3.50
   2 -17   4    9.10    3.50
   2  17   4    9.70    3.30
   2  17   5   -1.80    1.90
   2 -17   5    0.30    1.40
   2  17   6    0.20    2.20
   2  17   6    1.20    2.40
   2  18  -6    5.20    2.50
  -2  18   6    8.50    4.20
  -2 -18   5   15.40    4.70
  -2  18   5   24.50    5.60
   2  18  -5   27.50    5.80
  -2  18   5   27.80    5.90
  -2 -18   4    3.40    2.70
  -2  18   4   -1.60    2.00
   2  18  -3   15.50    3.80
  -2  18   3   14.00    4.30
   2  18  -2    4.30    2.20
  -2  18   2   14.10    4.10
  -2  18   1    3.30    2.40
   2  18  -1    8.00    4.90
   2  18   0    2.60    2.10
  -2  18   0    3.20    2.80
   2  18   1    2.00    2.70
  -2  18  -1    5.20    3.20
   2  18   2    9.70    3.60
   2  18   2   14.60    4.00
  -2  18  -2    8.00    3.20
   2 -18   3    2.80    2.90
   2  18   3    2.90    2.40
  -2  18  -3    3.70    2.60
   2  18   4    2.30    1.60
   2 -18   4    7.80    3.30
  -2  18  -4    9.20    3.40
   2  18   5    3.80    2.70
   2 -18   5    6.10    3.70
  -2 -19   5    5.10    3.00
   2  19  -5   -0.10    2.60
  -2  19   5    5.30    3.90
  -2  19   4    4.30    5.00
  -2 -19   4   -2.20    2.50
  -2  19   3   -0.60    3.30
   2  19  -3    2.10    1.70
  -2  19   2   14.40    4.50
   2  19  -2   10.90    3.40
  -2  19   1   15.00    4.70
   2  19  -1   12.00    3.20
   2  19   0    3.80    3.30
  -2  19   0    1.40    2.20
  -2  19  -1   13.40    3.90
   2  19   1    9.30    3.70
  -2  19  -2    0.40    2.20
   2  19   2    0.90    2.30
   2  19   2    1.80    2.70
  -2  19  -3   33.90    6.10
   2  19   3   45.50    6.80
   2 -19   3   41.00    7.20
  -2  19  -4   11.40    3.80
   2  19   4    8.60    3.10
   2 -19   4   10.90    4.20
   2  19   5    6.60    3.40
  -2  20   4   17.40    5.80
  -2 -20   4    6.40    3.20
  -2  20   3   12.80    4.70
   2  20  -3    1.30    2.00
   2  20  -2   28.00    5.40
  -2  20   2   32.90    6.70
  -2  20   1    3.20    3.10
   2  20  -1    2.10    2.40
   2  20   0   17.80    5.00
  -2  20   0   13.20    3.90
  -2  20  -1   11.80    4.00
   2  20   1   14.70    4.50
   2  20   2   27.50    5.70
  -2  20  -2   25.60    5.30
   2  20   2   29.30    5.60
   2 -20   3   12.30    4.80
   2  20   3    5.60    3.20
  -2  20  -3    8.00    4.00
   2  20   4   -2.00    2.20
   2  21  -2    1.70    2.30
  -2  21   2    0.50    3.00
  -2  21   1    9.10    4.00
   2  21  -1    3.70    3.00
   2  21   0   -1.70    2.10
  -2  21   0    8.00    4.10
  -2  21  -1    1.10    2.10
   2  21   1    1.70    2.30
  -2  21  -2   11.70    4.10
   2  21   2    2.80    4.30
  -2  21  -3   43.70    7.40
   2  21   3   34.00    6.40
   2  22  -2    2.90    2.80
   2  22  -1    1.50    2.80
   2  22   0    2.80    3.10
  -2  22  -1    9.30    4.90
   2  22   1   10.10    4.10
   2  22   2   49.80    7.70
   3   0  -9   -1.50    1.90
   3   0  -9    2.60    2.80
   3   0  -8    9.00    3.40
   3   0  -8    5.00    2.70
   3   0  -7   -1.20    1.60
   3   0  -7    1.50    1.90
  -3   0   7   -1.80    2.40
   3   0  -6  103.89    8.40
   3   0  -6  109.79    9.30
  -3   0   6  119.29    9.40
   3   0  -5    2.20    1.10
   3   0  -5    4.10    2.30
  -3   0   5    1.50    2.00
  -3   0   5   -2.50    1.70
  -3   0   5   -0.70    0.80
  -3   0   4  124.69    6.80
  -3   0   4  129.99    8.30
   3   0  -4  134.19    6.00
  -3   0   4  123.59    6.20
   3   0  -3   -0.70    0.60
  -3   0   3   -1.20    1.10
   3   0  -3   -1.20    0.70
   3   0  -2   14.70    1.90
   3   0  -2   11.60    1.10
  -3   0   2   12.20    1.50
   3   0  -1    1.70    0.90
  -3   0   1    0.00    0.40
  -3   0   0  793.82    9.20
   3   0   0  810.82   14.60
   3   0   0  820.92    9.10
  -3   0  -1    0.50    0.40
  -3   0  -1    0.10    0.70
   3   0   1   -0.10    0.60
   3   0   1    0.20    0.80
   3   0   2  395.26   10.60
   3   0   2  381.56   10.90
  -3   0  -2  381.36    9.60
  -3   0  -3   -0.10    0.80
   3   0   3    0.30    0.70
   3   0   3   -0.30    1.00
   3   0   4   15.90    3.00
   3   0   4   12.70    2.20
  -3   0  -4   14.30    2.70
   3   0   4   14.60    3.00
  -3   0  -5   -0.30    1.00
   3   0   5   -0.40    1.30
   3   0   5   -0.60    1.30
   3   0   5    1.70    1.30
   3   0   6    5.60    2.70
   3   0   6    6.70    2.50
  -3   0  -6    6.30    2.80
  -3   0  -7    3.20    2.30
   3   0   7   -4.80    2.80
  -3   0  -8    3.30    2.50
   3  -1  -9    5.50    3.30
   3  -1  -9    2.30    2.10
   3   1  -9    5.20    2.60
   3   1  -9    6.10    3.80
   3   1  -8    3.30    2.60
   3  -1  -8   -4.10    2.70
   3   1  -8    2.50    2.30
   3  -1  -8    0.70    1.50
   3   1  -7   10.20    3.10
  -3  -1   7   10.60    3.00
   3  -1  -7   10.00    3.30
   3  -1  -7   15.20    4.00
   3   1  -7    7.30    2.70
  -3  -1   7   12.50    3.70
  -3   1   7   15.20    4.30
   3   1  -6   16.60    3.50
   3  -1  -6   27.70    4.90
   3   1  -6   18.20    3.90
  -3   1   6   17.60    3.60
  -3  -1   6    7.60    2.20
  -3  -1   6   18.80    4.30
  -3   1   6   20.10    4.50
   3   1  -5   88.49    6.80
   3  -1  -5   90.99    7.80
   3   1  -5   92.89    7.30
  -3   1   5   80.19    6.40
  -3  -1   5   79.39    7.30
  -3   1   5   82.19    7.20
   3   1  -5   90.39    4.90
   3  -1  -5   90.59    4.70
  -3  -1   5   81.99    6.00
  -3   1   4   -0.90    1.20
   3   1  -4   -0.20    1.00
   3  -1  -4   -0.40    0.70
  -3  -1   4   -0.10    0.90
   3   1  -4    0.60    0.80
  -3  -1   4    2.70    2.00
  -3   1   4    1.20    0.60
  -3   1   4   -0.50    1.00
   3   1  -3   88.59    4.40
  -3   1   3   86.79    4.90
  -3  -1   3   79.79    4.00
   3  -1  -3   88.09    4.20
   3   1  -3   89.49    5.00
   3  -1  -3   90.39    4.90
  -3   1   2  105.89    4.40
  -3   1   2  113.79    5.10
   3   1  -2  116.59    5.60
   3  -1  -2  110.69    5.40
  -3  -1   2  104.29    3.00
   3  -1  -2  112.99    3.20
  -3   1   1  302.97    6.70
   3   1  -1  297.47    8.90
   3   1  -1  304.87    4.50
   3  -1  -1  297.27    8.90
   3  -1   0  799.02    9.40
   3   1   0  803.62   14.60
   3  -1   0  813.32   14.80
  -3  -1   0  757.02    9.20
  -3  -1  -1   29.70    1.90
  -3   1  -1   32.30    2.70
  -3  -1  -1   27.50    1.90
  -3  -1  -1   27.50    1.30
  -3  -1  -1   29.60    2.60
   3   1   1   31.50    2.80
   3  -1   1   35.80    2.40
   3  -1   1   29.90    3.00
   3   1   1   26.70    2.40
   3  -1   1   31.40    2.60
  -3  -1  -2   35.40    2.80
  -3  -1  -2   37.00    2.50
   3   1   2   36.70    3.20
   3  -1   2   37.10    3.40
   3   1   2   38.30    3.50
   3  -1   2   34.70    3.40
  -3  -1  -3  174.78    7.70
  -3   1  -3  192.98    8.40
   3   1   3  204.68    7.70
   3  -1   3  197.18    8.20
   3   1   3  196.88    9.20
   3  -1   3  190.88    9.10
   3  -1   4    4.90    1.80
  -3  -1  -4    1.20    1.00
   3   1   4    3.20    1.40
   3   1   4    3.40    1.80
   3  -1   4    2.80    1.60
  -3   1  -4    5.60    1.80
   3  -1   4    4.30    1.80
   3   1   4    0.30    1.10
  -3  -1  -5    2.10    1.10
   3   1   5    1.90    1.20
  -3   1  -5    2.60    2.00
   3  -1   5    5.20    1.90
   3   1   5    4.10    1.80
   3  -1   5    1.90    1.90
   3  -1   5    0.40    1.60
   3   1   5    4.70    2.40
   3   1   6    4.10    2.10
   3  -1   6    2.80    2.10
  -3  -1  -6    1.40    1.60
   3  -1   6    0.80    1.60
   3   1   6    3.00    2.10
  -3   1  -6    0.80    1.40
  -3   1  -7    4.50    2.80
  -3  -1  -7    0.30    1.90
   3   1   7    1.80    2.40
   3  -1   7   -2.30    1.80
  -3   1  -8   13.10    4.40
  -3  -1  -8   13.80    4.70
   3  -1   8    5.30    2.90
   3   2  -9   -3.50    2.60
   3  -2  -9    4.90    3.40
   3  -2  -9    4.80    3.30
   3   2  -9    0.20    1.70
   3   2  -8   14.10    4.40
   3  -2  -8   20.40    4.40
  -3  -2   8   17.40    4.30
   3  -2  -8   24.30    5.40
   3   2  -8   18.10    4.80
  -3  -2   7    2.40    2.70
   3  -2  -7    6.60    2.70
   3   2  -7    2.10    2.10
  -3   2   7    1.10    2.00
  -3  -2   7    2.70    1.90
  -3   2   7    2.00    2.50
   3   2  -7   -2.30    2.10
   3   2  -6  114.59    8.80
   3  -2  -6  124.89    9.80
   3   2  -6  123.49    9.50
  -3  -2   6  133.39   10.20
  -3   2   6  121.19    9.80
  -3  -2   6  101.59    7.70
  -3   2   6  103.99    8.10
  -3   2   5   16.20    1.80
   3  -2  -5   15.60    3.70
   3   2  -5   12.20    3.10
   3   2  -5   10.30    2.50
  -3   2   5   10.10    2.50
   3   2  -5   15.20    2.20
   3  -2  -5   13.10    1.90
  -3  -2   5   11.50    3.00
  -3   2   5   14.10    3.30
  -3  -2   5    8.20    1.90
  -3  -2   4   50.69    2.00
   3   2  -4   66.09    5.20
  -3  -2   4   66.59    4.60
  -3   2   4   61.29    5.00
  -3  -2   4   65.79    6.00
  -3   2   4   58.59    5.30
   3   2  -4   68.89    4.50
   3  -2  -4   68.39    4.30
  -3   2   4   65.09    3.90
  -3  -2   3  266.07    7.60
  -3   2   3  255.97    8.60
   3   2  -3  266.97    8.50
  -3   2   3  252.47    9.30
   3   2  -3  279.97    9.10
   3  -2  -3  271.57    8.60
   3  -2  -3  285.47    7.90
   3   2  -2  136.99    4.90
   3   2  -2  150.58    5.00
  -3   2   2  138.29    5.90
  -3  -2   2  139.89    4.10
   3   2  -2  145.59    6.40
   3  -2  -2  138.09    6.10
   3  -2  -2  146.39    4.30
   3   2  -1  389.76    4.80
   3   2  -1  402.66    6.70
   3   2  -1  379.56   10.20
   3  -2  -1  359.16   10.00
   3   2   0 1042.90   16.90
   3  -2   0 1044.40   17.30
  -3  -2   0  960.00   11.70
   3  -2   0 1016.70   12.20
   3  -2   1  140.29    5.30
   3   2   1  140.29    4.20
   3   2   1  136.39    6.10
   3  -2   1  123.99    6.20
   3  -2   1  129.89    5.50
  -3  -2  -2  197.48    5.70
   3   2   2  211.28    7.00
   3   2   2  206.78    7.40
   3  -2   2  216.38    8.70
   3  -2   2  214.28    8.40
   3   2   3  116.09    6.40
   3   2   3  114.49    5.60
   3  -2   3  112.19    6.50
   3   2   3  109.19    7.10
   3  -2   3  113.19    7.10
  -3   2  -4  153.28    8.70
   3  -2   4  150.58    9.30
  -3  -2  -4  141.69    8.00
   3   2   4  154.58    9.30
   3  -2   4  170.68    9.00
   3   2   4  154.48    8.50
   3   2   4  154.08    6.60
   3  -2   4  156.18    8.00
   3   2   4  150.88    9.40
  -3  -2  -5    1.30    1.50
   3   2   5    0.70    1.40
   3  -2   5    1.70    1.50
   3  -2   5    1.40    1.10
  -3   2  -5    4.10    2.20
   3   2   5    0.70    0.70
   3  -2   5    3.40    2.10
  -3   2  -6   37.90    5.70
  -3  -2  -6   37.30    5.50
   3   2   6   42.40    6.10
   3  -2   6   39.90    5.40
   3  -2   6   31.60    5.30
  -3  -2  -7    1.50    2.50
   3   2   7    3.00    2.40
  -3   2  -7    6.50    2.90
   3  -2   7    0.00    1.30
  -3   2  -8    9.90    3.70
  -3  -2  -8    1.10    2.10
   3  -2   8    9.30    3.70
   3  -3  -9    7.50    3.40
   3  -3  -9    5.10    2.80
   3   3  -9    3.20    2.50
   3   3  -9    2.80    2.00
   3   3  -8   -3.10    2.30
   3  -3  -8    1.80    1.90
   3  -3  -8    6.90    3.30
   3   3  -8    1.90    2.50
  -3  -3   8    2.10    1.50
   3   3  -7    1.20    2.00
   3  -3  -7   -3.00    1.90
   3   3  -7    1.40    1.60
  -3   3   7    0.30    1.60
  -3  -3   7   -1.00    2.70
  -3  -3   7   -1.00    1.60
   3  -3  -6  152.18   10.80
   3   3  -6  159.48   10.20
  -3   3   6  134.09    9.40
  -3  -3   6  156.08   10.90
  -3   3   6  160.88   11.10
   3   3  -6  149.69    7.10
  -3  -3   6  131.09    8.80
   3   3  -6  130.09    9.20
   3   3  -5   18.20    3.10
   3  -3  -5   20.80    4.50
   3   3  -5   23.40    3.70
  -3  -3   5   19.90    3.10
   3  -3  -5   14.40    1.90
  -3   3   5   14.30    3.10
   3   3  -5   19.20    2.50
  -3  -3   5   20.90    3.90
  -3   3   5   15.50    3.40
  -3   3   5   21.80    2.40
   3   3  -4   36.10    3.80
  -3   3   4   27.80    3.50
  -3   3   4   35.20    4.20
   3   3  -4   40.50    3.80
  -3  -3   4   32.80    4.40
  -3   3   4   31.50    4.10
   3  -3  -4   34.30    3.30
  -3   3   4   35.10    3.30
  -3  -3   4   23.60    1.30
  -3  -3   4   32.80    3.40
  -3  -3   3    8.80    1.30
   3   3  -3    9.10    1.80
  -3   3   3   10.10    1.80
   3  -3  -3   11.00    1.90
  -3   3   3   11.00    2.20
  -3  -3   3   11.90    1.80
   3   3  -3    9.20    1.70
  -3  -3   2    7.90    1.30
   3   3  -2    6.60    1.60
   3   3  -2    9.20    1.30
   3  -3  -2   10.00    1.70
  -3   3   2   10.50    2.00
   3   3  -1   96.89    5.40
   3  -3  -1   93.69    5.30
   3  -3   0    6.20    1.20
   3   3   0    3.70    1.40
   3  -3   0    5.50    1.40
   3   3   1   60.59    2.90
   3   3   1   58.69    4.00
   3  -3   1   61.59    4.70
   3  -3   1   58.99    3.90
   3   3   2  102.99    5.00
   3   3   2  101.79    5.30
   3  -3   2   96.69    5.80
   3  -3   2  101.09    6.10
   3   3   3  243.98    9.20
   3   3   3  233.98    8.00
   3  -3   3  229.48    9.50
   3  -3   3  228.28   10.30
   3  -3   4    7.00    2.60
   3   3   4    9.60    2.80
   3  -3   4    5.70    2.10
   3   3   4    5.90    1.70
   3   3   4    5.40    1.50
   3  -3   4    7.60    2.20
   3  -3   5   34.00    5.10
   3   3   5   38.40    5.40
   3  -3   5   34.10    4.50
   3  -3   5   39.00    4.50
   3   3   5   44.40    5.20
   3   3   5   38.30    3.30
  -3  -3  -6    4.40    2.30
   3   3   6    1.70    2.70
   3  -3   6    1.80    2.10
   3  -3   6    4.70    2.30
  -3  -3  -7    1.70    1.60
   3   3   7    6.10    3.40
   3  -3   7    5.70    2.80
  -3  -3  -8    1.20    1.60
   3  -3   8    7.50    3.50
   3  -4  -9    3.00    3.00
   3   4  -9    0.90    1.80
   3   4  -8    0.00    2.10
   3  -4  -8    1.80    2.60
   3   4  -8    0.00    2.10
  -3   4   8    3.80    2.50
  -3  -4   8    1.90    1.70
   3  -4  -7    4.80    3.10
   3   4  -7    2.50    2.20
  -3  -4   7    1.10    1.00
  -3   4   7   -1.20    1.60
  -3  -4   7    0.00    2.00
   3   4  -6   39.40    5.40
   3  -4  -6   37.70    5.90
   3   4  -6   29.80    4.90
  -3   4   6   33.40    4.90
  -3  -4   6   36.50    4.80
   3   4  -6   34.00    3.70
  -3  -4   6   39.60    5.70
  -3   4   6   36.90    5.60
   3   4  -5   25.20    4.10
   3  -4  -5   23.50    4.30
   3   4  -5   27.60    4.00
  -3   4   5   26.20    4.00
  -3  -4   5   16.40    2.90
   3   4  -5   26.50    3.20
  -3  -4   5   22.20    3.90
  -3   4   5   21.20    3.70
  -3   4   5   29.10    3.10
   3  -4  -5   21.90    2.70
  -3  -4   4    5.70    1.60
   3  -4  -4    3.60    1.10
   3   4  -4    5.60    1.90
   3   4  -4    7.00    1.80
  -3   4   4    7.10    2.10
  -3   4   4    6.80    2.20
  -3  -4   4    3.60    1.70
  -3  -4   4    3.80    0.60
  -3   4   4   10.20    2.40
  -3   4   4    5.30    1.70
  -3   4   3  132.89    7.30
   3   4  -3  138.99    7.00
   3  -4  -3  131.49    6.70
  -3  -4   3  124.09    5.00
  -3  -4   3  131.19    6.20
   3   4  -2   36.40    3.60
   3  -4  -2   39.40    3.60
  -3  -4   2   34.30    3.00
  -3  -4   1  147.59    4.40
   3   4  -1  158.88    7.20
   3  -4  -1  158.78    7.30
   3   4   0   19.50    2.50
   3  -4   0   21.20    2.80
   3  -4   1    2.50    1.30
   3  -4   1    1.10    0.80
   3   4   1    2.00    1.00
   3   4   1    3.20    0.70
   3  -4   2   24.00    3.10
   3  -4   2   22.40    3.10
   3   4   2   24.70    2.60
   3   4   2   22.10    2.60
   3   4   3    0.40    0.90
   3  -4   3   -0.70    1.00
   3   4   3    0.70    0.80
   3  -4   3   -0.90    1.20
   3   4   4    6.10    2.10
   3  -4   4    8.20    2.20
   3   4   4    6.40    1.80
   3  -4   4    6.60    2.10
   3  -4   4    5.40    2.00
   3   4   4    4.90    1.30
   3  -4   5    9.20    2.90
   3   4   5    9.30    1.70
   3  -4   5   12.10    2.70
   3   4   5   11.20    3.30
   3   4   5   10.10    2.60
   3  -4   5    7.60    2.00
   3   4   6   74.09    8.20
   3  -4   6   71.09    7.10
   3   4   6   74.29    7.60
   3  -4   6   71.59    8.20
  -3  -4  -7   15.60    3.80
   3   4   7   29.30    5.90
   3  -4   7   23.80    5.10
  -3  -4  -8    7.10    2.50
   3  -4   8   11.20    4.10
   3  -5  -9    5.40    2.90
   3   5  -9    5.40    2.90
   3  -5  -8    3.90    3.10
   3   5  -8   11.80    3.90
  -3  -5   8    3.90    2.60
  -3   5   8    6.80    3.30
   3  -5  -7    8.70    3.70
   3   5  -7   12.50    3.20
  -3   5   7    7.10    2.90
  -3  -5   7   12.80    4.20
  -3  -5   7    8.20    2.90
   3  -5  -6   11.50    3.70
   3   5  -6    9.70    2.90
   3   5  -6   12.70    2.40
   3   5  -6   12.60    3.20
  -3   5   6    9.00    2.90
  -3  -5   6   12.00    3.90
  -3   5   6    8.60    2.70
  -3  -5   6    9.80    2.70
  -3   5   5   13.80    2.20
   3  -5  -5    9.60    1.90
   3   5  -5   10.70    2.70
   3   5  -5   12.30    2.40
  -3   5   5    7.70    2.40
  -3  -5   5   11.20    2.60
  -3   5   5   15.50    3.40
  -3  -5   5   11.60    3.10
  -3   5   5    9.40    2.40
  -3  -5   4    0.80    0.90
  -3   5   4    1.30    1.60
   3   5  -4    1.20    1.00
   3  -5  -4    0.10    0.70
  -3   5   4    1.90    1.20
  -3   5   4    1.80    1.40
  -3  -5   4    1.00    1.70
  -3   5   4    0.10    1.10
  -3  -5   4    0.40    0.50
  -3   5   3   45.30    4.50
  -3   5   3   47.40    4.40
   3   5  -3   47.80    4.30
  -3   5   3   41.30    4.20
   3  -5  -3   46.20    4.10
  -3  -5   3   42.10    3.80
   3   5  -2  146.29    7.40
   3  -5  -2  145.09    7.30
   3   5  -1   15.40    2.30
   3  -5  -1   18.50    2.70
   3   5   0  272.77    9.70
   3  -5   0  280.17   10.30
   3  -5   1   24.50    3.20
   3  -5   1   26.20    3.00
   3   5   1   29.40    3.20
   3  -5   2   96.09    6.60
   3   5   2   99.99    5.30
   3   5   2  105.99    4.70
   3   5   2   94.49    5.50
   3  -5   2   99.89    6.40
   3  -5   3    2.80    1.80
   3   5   3    0.00    1.50
   3   5   3    0.30    0.80
   3  -5   3    0.70    1.10
   3   5   3    2.00    1.30
   3   5   4   80.09    7.10
   3  -5   4   88.09    6.10
   3   5   4   84.19    6.40
   3   5   4   88.49    5.10
   3  -5   4   83.29    7.30
   3  -5   4   85.39    7.10
   3   5   5   57.39    6.80
   3  -5   5   56.19    5.40
   3   5   5   56.59    6.00
   3  -5   5   62.19    7.00
   3   5   5   53.79    3.80
   3   5   6   34.50    5.30
   3   5   6   40.10    6.40
   3  -5   6   31.80    5.90
  -3  -5  -7    2.30    1.70
   3  -5   7    6.60    3.30
   3   5   7   10.10    3.70
  -3  -5  -8    1.90    2.80
   3  -5   8    2.40    3.00
  -3   6   9   18.30    5.50
   3  -6  -8    2.40    2.30
   3   6  -8    4.90    2.70
  -3   6   8    3.00    2.80
  -3  -6   8    4.00    2.40
   3   6  -7   52.19    6.40
   3  -6  -7   41.70    6.70
  -3   6   7   39.30    6.30
  -3  -6   7   38.80    5.80
  -3  -6   7   42.20    6.30
  -3  -6   6   16.30    3.60
   3  -6  -6   20.80    4.80
   3   6  -6   17.20    3.50
   3   6  -6   14.40    2.60
  -3   6   6   12.30    3.20
  -3  -6   6   13.30    3.80
  -3   6   6   11.30    3.30
  -3  -6   5    1.30    1.20
  -3   6   5    3.10    1.40
   3   6  -5   -0.30    1.00
   3  -6  -5    0.20    1.00
  -3   6   5    1.50    1.50
  -3   6   5    0.90    1.40
  -3  -6   5   -1.00    1.90
  -3   6   5    1.60    1.80
  -3  -6   4   18.30    3.20
   3   6  -4   22.60    3.20
   3  -6  -4   19.30    2.90
  -3   6   4   17.30    3.40
  -3  -6   4   20.90    3.50
  -3   6   4   22.50    3.40
  -3   6   4   20.50    3.10
  -3  -6   4   19.20    1.80
  -3   6   3   13.90    2.50
  -3   6   3   18.60    3.10
   3  -6  -3   18.10    2.70
  -3   6   3   19.60    2.90
   3   6  -3   15.10    2.70
  -3  -6   3   17.20    2.70
   3   6  -2   17.10    2.80
  -3  -6   2   11.60    1.70
   3  -6  -2   10.60    2.20
   3   6  -1   51.59    4.50
   3  -6  -1   49.30    4.50
   3   6   0    9.50    1.90
   3  -6   0   11.20    2.30
   3  -6   1    1.90    1.30
   3   6   1    1.30    0.90
   3  -6   1    1.40    1.30
   3   6   2  260.67    8.10
   3   6   2  249.28    9.20
   3  -6   2  254.87   11.30
   3  -6   2  237.88   10.40
   3   6   3   60.59    6.00
   3  -6   3   71.19    4.70
   3   6   3   65.09    5.10
   3   6   3   66.39    4.80
   3   6   3   73.69    5.00
   3  -6   3   72.69    6.40
   3  -6   3   68.49    6.40
   3  -6   4    0.50    1.40
   3   6   4    1.10    1.50
   3   6   4    0.50    1.90
   3  -6   4    2.20    1.30
   3   6   4    1.30    1.20
   3  -6   4    1.10    1.60
   3   6   5   30.30    4.50
   3   6   5   37.80    5.80
   3  -6   5   29.40    5.00
   3  -6   5   29.40    3.90
   3   6   5   24.70    2.80
   3  -6   6    6.00    2.60
   3   6   6    3.90    1.80
   3   6   6    4.90    3.70
   3   6   7   75.29    9.40
   3   6   7   66.79    7.90
   3  -6   7   67.99    8.80
  -3  -6  -8   -1.00    1.70
   3  -6   8    3.40    2.50
  -3  -7   8    6.80    2.90
  -3   7   8    9.90    3.70
   3   7  -7    2.20    1.20
  -3  -7   7    3.40    2.40
  -3   7   7    3.00    2.50
  -3  -7   7    4.00    3.00
   3   7  -6   15.10    2.80
  -3   7   6   16.20    4.00
  -3   7   6   17.60    2.90
  -3   7   6   14.70    3.90
  -3  -7   6   17.50    4.20
  -3  -7   6   11.60    3.10
  -3   7   5    1.90    1.60
   3   7  -5    2.10    1.70
  -3   7   5    3.10    2.30
  -3   7   5    1.30    1.70
  -3  -7   5    0.40    1.00
  -3  -7   5    3.30    2.50
  -3   7   5    3.30    1.90
  -3   7   4   31.70    4.00
  -3   7   4   31.10    4.30
   3   7  -4   29.90    4.00
  -3  -7   4   31.30    4.30
  -3   7   4   32.40    4.00
  -3  -7   4   30.70    4.00
   3  -7  -4   26.90    3.50
   3   7  -3    8.00    1.90
  -3  -7   3   11.50    2.40
  -3   7   3   11.90    2.80
  -3   7   3   11.60    2.30
   3  -7  -3   11.10    2.30
   3  -7  -2    8.40    2.20
   3   7  -2    5.90    1.80
  -3   7   2    4.40    2.10
   3   7  -1   90.99    6.30
   3  -7  -1   94.59    6.70
   3   7   0    0.40    1.10
   3  -7   0    0.10    1.10
   3  -7   1   68.79    5.40
   3   7   1   69.99    5.30
   3  -7   1   64.19    5.90
   3   7   2    7.60    1.80
   3   7   2    6.60    1.50
   3  -7   2    6.10    2.40
   3  -7   2    6.70    2.10
   3   7   3  219.08   11.30
   3  -7   3  219.48    7.80
   3   7   3  209.58    9.50
   3   7   3  205.88    8.60
   3  -7   3  214.28   11.40
   3   7   3  211.88    8.80
   3  -7   3  203.08   10.80
   3   7   4  228.88   12.50
   3  -7   4  220.08    8.90
   3   7   4  210.08   10.50
   3   7   4  208.08    8.40
   3  -7   4  204.18   11.90
   3   7   5   98.19    9.30
   3  -7   5   94.49    6.60
   3   7   5   85.39    7.50
   3  -7   5   87.59    8.40
   3  -7   6  167.48   12.70
   3   7   6  198.38   13.70
   3   7   6  175.78   11.80
   3   7   7    7.00    3.00
   3   7   7   15.60    5.00
   3  -7   7   13.00    4.00
  -3  -7  -8   -0.90    1.50
   3  -7   8    3.60    2.40
  -3   8   8   21.80    5.40
  -3  -8   8   10.00    3.80
  -3   8   7    4.30    2.70
  -3  -8   7    4.90    3.00
  -3  -8   7    1.90    2.60
  -3  -8   6    0.30    1.20
  -3   8   6    2.40    2.00
   3   8  -6    0.30    1.50
  -3   8   6    0.00    2.00
  -3   8   6    3.40    2.90
  -3  -8   6   -0.70    2.10
  -3  -8   5   14.70    3.30
  -3   8   5   21.20    3.60
   3   8  -5   12.70    2.70
  -3   8   5   21.20    4.20
  -3   8   5   20.40    3.90
  -3  -8   5   17.60    3.70
  -3   8   5   20.50    3.70
  -3   8   4   10.50    2.80
   3   8  -4    6.90    2.20
  -3  -8   4    5.50    2.20
  -3   8   4    2.80    1.50
  -3  -8   4    5.80    2.50
   3  -8  -4    5.90    1.80
  -3   8   4    6.30    1.80
  -3  -8   3   65.39    5.90
   3  -8  -3   80.89    6.30
   3   8  -3   78.39    6.40
  -3   8   3   84.29    5.60
  -3   8   3   72.79    6.40
   3   8  -2  466.75   15.10
  -3   8   2  493.25   11.70
  -3   8   2  472.25   15.70
   3  -8  -2  493.05   15.70
   3   8  -1    1.10    1.20
   3  -8  -1   -0.20    1.20
   3   8   0    3.30    1.70
   3  -8   0    2.40    1.20
   3   8   1  202.58    9.40
   3  -8   1  214.98   11.00
   3  -8   2   15.10    3.10
   3   8   2   18.40    2.90
   3  -8   2   15.00    3.40
   3   8   3   -0.50    0.90
   3  -8   3   -0.70    1.30
   3   8   3   -0.70    1.90
   3  -8   3    1.00    0.80
   3   8   3    0.30    1.00
   3  -8   3    4.20    2.20
   3  -8   4    9.40    3.10
   3   8   4    5.90    1.80
   3   8   4    8.30    2.30
   3   8   4   13.70    3.50
   3  -8   4   13.50    2.30
   3   8   4    9.10    2.00
   3  -8   5   -1.20    1.60
   3   8   5    2.50    1.80
   3   8   5   -0.70    1.90
   3   8   6    3.80    3.40
   3  -8   6    5.30    2.70
   3   8   6    4.70    2.30
   3  -8   7   33.10    6.50
   3   8   7   33.40    5.80
   3   8   8   17.60    4.70
   3  -8   8   28.20    6.10
  -3  -9   8    0.30    1.90
  -3   9   8    2.70    3.10
  -3  -9   7   17.10    4.40
  -3   9   7   22.10    4.90
  -3  -9   7   18.20    4.90
  -3  -9   6    8.90    3.10
   3   9  -6    6.40    2.40
  -3   9   6   12.70    3.00
  -3   9   6    4.50    2.90
  -3   9   6    8.90    3.30
  -3  -9   6    8.60    3.20
   3   9  -5   -0.20    1.40
  -3   9   5    5.90    2.40
  -3   9   5    4.80    2.40
  -3  -9   5    6.30    2.50
  -3  -9   5    2.10    2.10
  -3   9   4   25.70    4.10
  -3  -9   4   27.70    4.20
  -3   9   4   29.20    4.50
  -3  -9   4   24.80    3.90
   3   9  -4   29.70    4.10
  -3   9   4   25.80    3.90
  -3   9   3    6.60    2.30
  -3  -9   3    6.60    2.10
   3  -9  -3    5.70    2.10
  -3   9   3    7.70    2.00
   3   9  -3    4.50    2.00
   3   9  -2  118.79    8.00
  -3   9   2  127.89    5.90
  -3   9   2  123.99    8.40
   3  -9  -2  132.19    8.60
   3   9  -1   21.60    3.40
   3  -9  -1   21.20    3.80
  -3   9   1   20.30    3.70
   3   9   0   37.20    4.30
   3  -9   0   36.10    4.80
   3  -9   1    1.40    1.90
   3   9   1    0.00    1.10
   3  -9   2   30.70    4.30
   3   9   2   25.20    3.60
   3  -9   2   28.40    4.30
   3   9   3   18.70    3.50
   3  -9   3   18.60    2.00
   3   9   3   13.70    2.50
   3  -9   3   12.20    2.90
   3   9   3   17.10    2.90
   3   9   4  112.99    9.30
   3   9   4   96.39    7.60
   3   9   4   89.49    6.80
   3   9   4   96.99    6.30
   3  -9   4   93.49    8.40
   3   9   5   72.39    8.10
   3   9   5   61.59    6.60
   3  -9   5   70.59    8.10
   3  -9   6    8.50    3.50
   3   9   6    6.80    2.70
   3   9   6    6.80    2.50
   3  -9   7    3.80    2.10
   3   9   7    4.40    2.60
   3   9   8    3.50    2.10
  -3 -10   8    9.10    3.40
  -3  10   8    5.20    3.70
  -3 -10   7   19.50    4.50
  -3  10   7   17.30    4.80
  -3 -10   6   28.90    5.00
  -3  10   6   22.40    4.60
  -3  10   6   32.60    4.70
  -3  10   6   25.70    5.30
  -3 -10   6   29.20    5.30
   3  10  -6   27.90    4.50
  -3  10   5    4.50    1.70
  -3  10   5    6.00    2.90
  -3 -10   5    5.70    3.00
   3  10  -5    3.40    2.00
  -3 -10   5    4.10    2.00
  -3  10   4   40.60    5.20
  -3 -10   4   45.50    5.40
  -3  10   4   42.80    5.40
   3  10  -4   44.00    5.30
  -3  10   4   44.30    4.70
  -3 -10   4   45.30    5.40
  -3  10   3   36.80    5.00
   3  10  -3   43.90    5.20
  -3  10   3   44.00    4.10
   3  10  -2   10.60    2.80
  -3  10   2   13.10    2.00
   3 -10  -2   10.90    2.80
  -3  10   2    9.80    3.10
   3 -10  -1    7.40    2.40
   3  10  -1    8.80    2.60
  -3  10   1    7.50    2.80
   3 -10   0    3.00    1.40
   3  10   0    4.20    1.80
  -3  10   0    2.60    1.80
   3  10   1   85.69    6.80
   3 -10   1   77.99    7.40
   3  10   2    0.10    1.30
   3  10   2    0.50    1.40
   3 -10   2    0.80    1.60
   3  10   3   62.99    6.60
   3  10   3   56.19    5.00
   3  10   3   61.79    5.50
   3 -10   3   56.19    6.30
   3  10   4  110.19    9.30
   3  10   4  106.09    8.10
   3  10   4  101.89    7.50
   3  10   4  111.19    7.00
   3 -10   4  104.89    9.10
   3  10   5    6.60    2.30
   3  10   5   14.40    3.90
   3  10   5    5.30    2.30
   3 -10   5   10.30    3.10
   3 -10   6   16.30    4.40
   3  10   6   14.70    4.10
   3  10   6   25.80    5.80
   3 -10   7   32.60    6.40
   3  10   7   39.80    6.70
   3  10   8    3.80    2.60
  -3 -11   8    4.70    2.50
  -3  11   8   14.40    5.20
  -3  11   7    7.80    3.50
  -3 -11   7    4.20    2.40
   3  11  -6   15.10    3.40
  -3 -11   6   11.40    3.40
  -3  11   6   13.70    3.50
  -3  11   6   10.40    3.50
  -3  11   6   15.30    4.30
  -3 -11   6   19.50    4.70
   3  11  -5   26.30    4.50
  -3  11   5   27.60    4.60
  -3  11   5   27.30    5.00
  -3 -11   5   25.80    4.50
  -3 -11   5   24.50    4.50
   3  11  -4   11.20    3.00
  -3  11   4   11.30    3.00
  -3  11   4   10.00    3.30
  -3 -11   4   13.60    3.30
  -3 -11   4   11.40    2.80
  -3  11   3    0.50    1.80
  -3 -11   3    4.40    2.00
  -3  11   3    2.70    1.40
   3  11  -3   -2.20    1.80
  -3  11   2   13.70    3.60
  -3  11   2   14.80    2.00
   3  11  -2    9.40    2.70
  -3  11   1    1.20    0.80
   3  11  -1    1.00    1.70
  -3  11   1    1.10    1.90
   3  11   0   68.09    6.30
  -3  11   0   65.49    6.70
   3  11   1    1.10    1.30
  -3  11  -1   -1.10    1.70
   3 -11   2   48.00    5.80
   3  11   2   45.60    5.00
   3  11   2   50.89    5.50
   3 -11   3   -0.20    1.30
   3  11   3    0.00    1.60
   3  11   3   -2.20    2.30
   3  11   3    0.60    1.30
   3  11   4    0.50    1.30
   3  11   4   -2.20    2.20
   3  11   4    0.90    1.90
   3  11   4    1.60    1.30
   3 -11   4    1.30    1.60
   3 -11   5   -0.30    2.10
   3  11   5   -3.30    2.00
   3  11   5    4.60    3.10
   3  11   5    0.40    1.60
   3 -11   6   16.80    4.30
   3  11   6   17.70    4.10
   3  11   6   24.50    5.50
   3  11   7   16.70    4.60
   3 -11   7   17.90    4.90
  -3 -12   8    0.40    1.60
  -3 -12   7    6.30    2.70
  -3  12   7    4.70    3.10
  -3  12   7    7.10    3.30
   3  12  -6   11.10    3.20
  -3  12   6   10.00    3.60
  -3  12   6    3.70    2.70
  -3  12   6    7.50    2.70
  -3 -12   6   16.30    3.90
  -3 -12   6   11.80    3.70
   3  12  -5    0.80    2.40
  -3  12   5    2.50    2.30
  -3  12   5    0.00    2.10
  -3 -12   5    1.30    1.70
  -3 -12   5   -1.10    1.60
   3  12  -4    5.50    2.30
  -3 -12   4    7.50    2.60
  -3  12   4    7.00    2.60
  -3 -12   4    9.70    2.80
  -3 -12   3    3.60    2.30
  -3  12   3    3.30    1.80
   3  12  -3    1.30    1.40
  -3  12   2   24.10    4.50
   3  12  -2   24.60    4.00
   3  12  -1   -0.10    1.60
  -3  12   1   -0.40    1.50
   3  12   0   20.50    3.80
  -3  12   0   18.80    4.10
   3  12   1   87.39    7.50
  -3  12  -1   84.99    7.90
   3  12   2  150.68    9.60
   3 -12   2  146.59   10.20
   3  12   2  152.38    9.60
  -3  12  -2  126.59    9.70
   3 -12   3    0.10    1.30
   3  12   3    0.90    1.50
   3  12   3   -0.20    2.10
   3  12   3    0.30    1.50
  -3  12  -3   -0.20    1.70
   3 -12   4   -0.30    1.40
   3  12   4    1.50    2.00
   3  12   4   -1.50    2.00
   3  12   4    0.90    1.70
  -3  12  -4    3.50    2.20
   3  12   5    7.50    3.80
   3  12   5    3.70    1.70
   3 -12   5    4.20    2.50
  -3  12  -5    2.00    1.50
   3  12   5    6.10    2.60
   3  12   6    6.10    2.70
   3 -12   6    8.90    3.60
   3  12   6    3.10    3.60
   3  12   7    7.60    3.10
   3 -12   7    4.80    2.70
  -3 -13   7   -0.10    1.90
  -3  13   7   -2.30    2.10
  -3  13   7    0.60    2.30
  -3 -13   6    6.80    3.10
   3  13  -6    3.80    2.00
  -3  13   6    2.20    2.20
  -3  13   6    6.90    2.80
  -3 -13   6    8.00    3.70
  -3 -13   5   33.70    5.80
  -3  13   5   30.70    5.70
  -3  13   5   43.10    6.40
  -3 -13   5   48.60    5.90
   3  13  -5   34.00    5.50
   3  13  -4   77.69    8.20
  -3 -13   4   83.89    7.30
  -3  13   4   74.29    8.00
  -3 -13   4   82.99    8.10
   3  13  -3   59.09    6.90
  -3 -13   3   67.39    6.00
  -3  13   3   58.09    6.70
   3  13  -2   66.79    7.30
  -3  13   2   70.29    7.70
   3  13  -1    0.10    1.90
  -3  13   1    3.50    2.40
   3  13   0    7.30    2.40
  -3  13   0    9.50    3.00
   3  13   1   63.29    6.00
   3  13   1   57.09    6.30
  -3  13  -1   54.09    6.60
   3  13   2    3.30    1.90
   3  13   2    0.60    1.60
   3 -13   2    6.90    2.90
  -3  13  -2    5.00    2.30
   3 -13   3    4.10    1.90
   3  13   3    5.60    2.00
   3  13   3    5.60    3.00
  -3  13  -3    5.20    2.40
   3 -13   4    1.00    1.60
   3  13   4    2.00    1.50
   3  13   4    1.90    3.10
   3  13   4    4.40    2.20
  -3  13  -4   -0.90    1.60
   3  13   5   -0.10    1.40
   3  13   5    5.60    3.40
   3  13   5    0.50    1.60
   3 -13   5    0.20    1.70
  -3  13  -5    1.70    1.70
   3 -13   6    2.90    1.90
   3  13   6    0.50    1.60
   3  13   7   12.20    4.30
  -3 -13  -7    9.00    3.40
  -3 -14   7    8.50    3.20
  -3  14   7    8.00    3.80
  -3  14   7    9.00    4.10
   3  14  -6   11.60    3.60
  -3  14   6   10.10    3.70
  -3 -14   6   10.30    3.80
  -3  14   6   12.60    4.30
   3  14  -5   43.50    6.30
  -3 -14   5   43.40    6.70
  -3  14   5   54.19    7.50
  -3  14   5   39.80    6.20
   3  14  -4    4.30    2.20
  -3  14   4    9.80    3.10
  -3 -14   4    9.60    3.00
  -3 -14   4    7.20    2.50
  -3 -14   3   17.80    3.50
  -3  14   3   11.30    3.30
   3  14  -3   13.90    3.60
   3  14  -2  146.49   10.70
  -3  14   2  142.39   10.80
  -3  14   1   12.80    4.00
   3  14  -1   13.80    3.50
  -3  14   0   45.70    6.50
   3  14   0   50.79    6.40
   3  14   1  118.89    8.10
   3  14   1  119.79    9.40
  -3  14  -1  105.89    9.40
   3  14   2    1.30    2.10
   3 -14   2    3.20    2.30
   3  14   2   -1.70    1.70
  -3  14  -2    0.10    1.50
   3  14   3   90.89    8.40
   3  14   3   81.99    7.50
  -3  14  -3   74.89    8.10
   3 -14   3   95.39    9.40
   3 -14   4    6.30    2.60
   3  14   4    5.40    2.30
  -3 -14  -4    4.20    1.90
   3  14   4   11.10    3.90
   3  14   4   10.50    3.30
  -3  14  -4    2.70    2.10
   3 -14   5   11.90    4.10
  -3 -14  -5   10.20    3.20
  -3  14  -5    7.00    2.90
   3  14   5   10.10    3.10
   3  14   5    9.60    3.70
   3  14   5    6.00    2.60
   3 -14   6    8.30    3.40
  -3 -14  -6    8.10    3.30
   3  14   6    2.40    1.90
  -3 -14  -7   -0.60    1.70
   3  14   7    5.30    3.20
  -3 -15   7    3.60    2.30
   3  15  -6    1.40    2.90
  -3  15   6    1.30    2.30
  -3 -15   6   -0.30    2.10
  -3  15   6    1.60    3.70
  -3  15   5   43.80    6.80
  -3 -15   5   39.30    6.50
   3  15  -5   45.10    6.90
  -3  15   5   45.80    6.80
   3  15  -4    5.20    2.70
  -3  15   4    5.60    3.00
  -3 -15   4    4.20    2.60
  -3  15   3    0.70    1.90
   3  15  -3   -1.80    2.20
  -3  15   2    2.70    2.90
   3  15  -2    4.00    2.40
  -3  15   1    3.60    1.90
   3  15  -1    1.70    1.70
  -3  15   0   19.60    4.60
   3  15   0   19.80    3.40
   3  15   0   23.90    4.50
  -3  15  -1    3.90    2.00
   3  15   1    2.10    2.60
   3  15   1    5.40    3.80
  -3  15  -2    6.60    3.10
   3 -15   2   13.10    3.80
   3  15   2    8.30    2.80
   3  15   2    7.10    3.00
   3  15   3   63.69    7.20
   3  15   3   56.99    6.70
   3 -15   3   51.99    7.10
  -3  15  -3   49.10    6.80
  -3  15  -4    6.30    2.50
   3  15   4    6.30    2.70
   3  15   4    7.40    3.50
   3  15   4    6.30    2.40
   3 -15   4    5.10    2.80
   3 -15   5    4.60    3.20
   3  15   5   -1.40    1.90
   3  15   5   -2.30    2.40
   3  15   5   -0.30    1.80
   3 -15   6    0.20    2.50
   3  15   6    3.60    2.30
   3  15   6    3.30    2.40
  -3 -16   7    2.70    2.30
  -3  16   6   32.40    6.40
  -3 -16   6   21.10    5.40
  -3  16   6   34.90    6.90
   3  16  -6   28.40    5.20
  -3 -16   5    3.00    1.80
  -3  16   5    3.10    2.40
  -3  16   5    8.80    3.80
   3  16  -5    8.30    3.60
   3  16  -4    5.20    2.90
  -3 -16   4    1.70    1.90
  -3  16   4    1.40    1.90
  -3  16   3   32.60    5.70
   3  16  -3   37.50    6.10
  -3  16   2    0.20    1.70
   3  16  -2    0.20    1.90
  -3  16   1    8.00    3.00
   3  16  -1    6.00    2.30
  -3  16   0    0.40    2.10
   3  16   0    2.20    2.10
   3  16   1    1.00    1.70
  -3  16  -1   -0.90    2.00
   3  16   1    0.90    1.70
  -3  16  -2    1.80    1.60
   3 -16   2    1.90    1.70
   3  16   2    0.30    2.40
   3  16   2    0.00    2.20
  -3  16  -3    1.60    2.80
   3  16   3    5.20    2.30
   3 -16   3    8.80    3.70
   3  16   3    0.20    1.90
  -3  16  -4    3.30    2.70
   3 -16   4    3.20    2.90
   3  16   4    3.90    2.10
   3  16   4    0.00    2.90
   3  16   4   -0.30    2.20
   3 -16   5    8.10    3.30
   3  16   5    3.10    2.30
   3  16   5   11.00    3.90
   3  16   6   10.80    4.00
  -3 -17   6    5.40    2.80
  -3  17   6    1.90    3.40
   3  17  -6    3.90    2.30
  -3 -17   5    6.40    3.10
  -3  17   5   11.00    4.20
  -3  17   5   10.70    4.30
   3  17  -5    4.50    3.00
   3  17  -4   16.10    4.60
  -3 -17   4    8.40    3.60
  -3  17   4   11.10    3.90
  -3  17   3   13.90    4.40
   3  17  -3   17.80    4.90
  -3  17   2    5.70    2.80
   3  17  -2    4.60    3.10
  -3  17   1   36.10    6.40
   3  17  -1   40.80    6.40
  -3  17   0    9.60    3.60
   3  17   0    8.70    3.60
   3  17   1   17.20    4.70
  -3  17  -1    9.40    3.80
  -3  17  -2    7.30    3.40
   3  17   2    7.10    2.90
   3 -17   2    8.70    3.40
  -3  17  -3    5.10    3.00
   3  17   3   -2.60    2.70
   3 -17   3    1.10    2.10
   3  17   3    3.20    2.60
   3 -17   4    2.20    2.30
  -3  17  -4   -2.30    2.00
   3  17   4    0.90    1.80
   3  17   4    0.60    2.80
   3 -17   5    3.50    3.00
   3  17   5    0.60    1.70
  -3  18   6    2.30    2.60
   3  18  -5    8.80    3.80
  -3  18   5    6.00    2.50
  -3 -18   5    6.20    3.00
  -3  18   5   13.40    4.50
   3  18  -4    9.80    4.10
  -3 -18   4    8.90    3.70
  -3  18   4   14.90    4.60
  -3  18   3   10.00    4.40
   3  18  -3    5.10    3.60
  -3  18   2    2.70    2.90
   3  18  -2    2.00    2.50
  -3  18   1    2.20    2.60
   3  18  -1    0.50    1.80
  -3  18   0    5.50    3.10
   3  18   0    1.40    2.20
  -3  18  -1   26.90    5.70
   3  18   1   22.80    4.80
   3  18   2    4.90    3.50
   3 -18   2    6.30    3.50
  -3  18  -2    2.90    2.70
  -3  18  -3   16.40    4.50
   3 -18   3   26.80    5.80
   3  18   3   20.60    4.90
  -3  18  -4    6.20    2.70
   3 -18   4    9.20    3.30
   3  18   4    3.90    2.10
   3  18   5    0.10    1.80
  -3 -19   5    4.40    2.70
   3  19  -4    5.60    2.80
  -3 -19   4    2.40    1.90
  -3  19   4   -1.00    2.50
   3  19  -3    0.80    2.00
  -3  19   3    6.70    4.30
  -3  19   2    1.80    3.10
   3  19  -2    4.60    3.00
  -3  19   1    3.30    2.50
   3  19  -1    1.30    2.90
  -3  19   0    3.50    3.40
   3  19   0    8.80    5.00
   3  19   1   11.80    3.70
  -3  19  -1   20.80    5.30
   3  19   2   24.20    5.50
  -3  19  -2   20.50    5.50
   3 -19   2   29.00    5.80
  -3  19  -3    0.50    2.10
   3 -19   3    6.00    3.00
   3  19   3    4.40    2.80
  -3  19  -4   28.10    5.90
  -3 -20   4   27.40    6.20
  -3  20   3    4.10    4.50
   3  20  -3    1.30    3.10
  -3  20   2   45.80    7.90
   3  20  -2    8.20    3.70
   3  20  -1    6.20    3.80
  -3  20   1   11.30    4.20
   3  20   0   44.10    7.40
  -3  20   0   53.69    8.20
  -3  20  -1   17.90    4.70
   3  20   1   26.30    6.00
  -3  20  -2    4.90    3.40
   3 -20   2    5.00    3.30
   3  20   2    9.80    4.20
   3  20   3   13.30    4.30
  -3  20  -3   13.20    4.00
   3  21  -1   27.20    6.40
  -3  21   1   25.00    5.80
  -3  21   0    7.80    4.90
   3  21   0    8.70    3.50
   3  21   1   15.80    4.90
  -3  21  -1   11.80    4.10
   3  21   2    7.50    3.50
  -3  21  -2    2.90    3.70
  -3  21  -3    8.60    3.60
   3  21   3    8.60    3.40
   4   0  -9    0.20    2.20
   4   0  -8   18.20    4.80
  -4   0   8   20.70    5.20
   4   0  -7   -1.90    2.10
  -4   0   7    2.90    2.80
   4   0  -6   17.10    3.60
  -4   0   6   14.20    3.60
   4   0  -5   -0.90    1.10
  -4   0   5   -0.40    1.70
  -4   0   4    7.00    1.80
   4   0  -4    8.30    1.90
  -4   0   3    0.30    0.90
   4   0  -3    0.20    0.70
  -4   0   2    2.30    0.70
   4   0  -2    3.80    1.10
   4   0  -1    1.10    1.40
  -4   0   0  203.38    5.40
  -4   0   0  212.18    3.10
   4   0   0  242.38    9.30
   4   0   1   -1.30    1.20
   4   0   1    0.60    0.60
  -4   0  -1    0.40    0.40
   4   0   2    9.70    2.10
   4   0   2    9.80    2.00
  -4   0  -3    2.30    1.40
   4   0   3    0.50    1.00
   4   0   3   -0.50    1.00
  -4   0  -4   13.60    2.70
   4   0   4   14.80    3.10
   4   0   4   11.60    2.60
   4   0   4    9.60    2.60
   4   0   5   -1.00    1.00
  -4   0  -5   -0.10    1.40
   4   0   5    1.70    1.90
   4   0   5   -0.10    1.40
   4   0   6    1.30    1.80
  -4   0  -6    2.10    1.50
   4   0   6    6.80    2.80
  -4   0  -7    3.80    1.70
   4   0   7    3.00    3.20
   4   0   7    3.40    2.30
  -4   0  -8   19.90    5.00
   4   1  -9    2.70    2.10
   4  -1  -9   -2.90    2.40
   4   1  -8    8.00    3.40
   4  -1  -8   11.90    3.90
  -4  -1   8   10.10    4.00
  -4   1   8   17.80    5.00
   4   1  -7   18.80    4.10
   4  -1  -7   19.20    4.30
  -4  -1   7   21.70    5.00
  -4   1   7   22.30    4.80
   4   1  -6   -0.90    1.30
  -4   1   6    3.60    2.30
  -4  -1   6    3.90    2.30
  -4   1   6    0.70    1.60
   4   1  -5   70.29    6.10
  -4   1   5   74.59    6.00
  -4  -1   5   70.39    6.80
  -4   1   5   76.59    7.20
   4   1  -5   79.19    5.50
   4  -1  -5   73.09    5.20
  -4   1   5   69.49    4.00
   4   1  -4   -1.60    1.60
   4  -1  -4    2.00    1.40
  -4   1   4   -0.20    1.00
   4   1  -4   -1.20    0.80
   4   1  -3  264.47    8.30
  -4   1   3  240.58    8.00
   4   1  -3  260.57    9.60
   4  -1  -3  258.17    9.60
   4  -1  -3  232.58    5.90
   4   1  -2   70.99    3.30
  -4   1   2   63.79    3.30
  -4   1   2   65.99    4.00
   4   1  -2   69.99    5.00
   4  -1  -2   65.59    4.90
  -4   1   1    1.00    0.70
   4   1  -1    1.50    1.20
   4  -1  -1    0.70    1.10
   4  -1   0   14.00    2.20
   4   1   0   14.50    2.40
   4  -1   0   14.70    1.40
  -4  -1   0   12.00    1.40
   4  -1   1   36.10    2.40
   4  -1   1   32.20    3.40
  -4   1  -1   31.70    2.30
   4   1   1   37.30    3.80
   4  -1   1   32.10    2.80
  -4  -1  -2  112.69    5.30
  -4  -1  -2  107.29    4.00
   4   1   2  120.49    6.80
   4  -1   2  120.79    7.00
   4   1   2  116.39    6.60
   4  -1   2  123.79    6.70
  -4  -1  -3    7.50    1.60
   4   1   3   11.30    2.30
   4  -1   3   10.00    2.30
   4  -1   3    9.70    2.40
   4   1   3   10.80    2.40
  -4   1  -4    1.90    1.40
  -4  -1  -4    1.20    1.30
   4  -1   4    0.50    1.20
   4   1   4   -0.50    1.80
   4   1   4    0.70    1.10
   4  -1   4    0.70    1.20
   4  -1   4   -0.20    1.10
   4   1   4   -1.00    1.30
  -4   1  -5    4.60    2.20
  -4  -1  -5    1.20    1.60
   4   1   5   -0.10    1.30
   4   1   5   -1.10    1.70
   4  -1   5    0.20    1.70
   4  -1   5    5.30    1.90
   4   1   5    2.60    1.60
   4  -1   5    5.20    2.40
  -4  -1  -6    5.80    2.70
   4   1   6    5.10    2.60
   4   1   6    5.00    2.70
   4  -1   6    4.20    2.40
   4  -1   6    5.00    1.90
  -4   1  -6    8.10    2.80
  -4   1  -7    9.30    3.20
  -4  -1  -7    7.80    3.00
   4   1   7   10.10    3.70
   4  -1   7   11.10    3.60
   4  -1   7    6.50    2.90
  -4  -1  -8    2.50    3.30
   4  -1   8    1.40    1.70
   4   2  -9    5.80    3.40
   4  -2  -9    3.00    2.80
   4   2  -8   -2.10    1.60
   4  -2  -8   -2.80    2.00
   4   2  -7    4.10    2.40
  -4  -2   7    5.60    2.80
  -4   2   7    7.40    2.80
  -4  -2   6    3.90    1.80
  -4   2   6    0.90    1.50
  -4  -2   6    7.40    2.80
  -4   2   6   -0.20    2.10
   4   2  -6    3.50    1.30
   4   2  -6    4.00    1.40
  -4   2   5    3.40    1.20
   4   2  -5   -1.30    1.20
   4  -2  -5    0.90    0.90
  -4   2   5    0.50    1.70
   4   2  -5    0.90    0.90
  -4  -2   5    1.90    2.10
  -4   2   5   -0.10    1.50
  -4  -2   5    0.70    0.90
   4   2  -4   44.50    4.30
  -4   2   4   41.30    4.10
   4   2  -4   47.50    4.40
   4  -2  -4   43.30    4.00
  -4  -2   4   39.30    3.20
   4  -2  -3   22.80    2.90
   4   2  -3   18.40    2.30
  -4   2   3   21.30    2.60
   4   2  -3   20.90    3.00
  -4   2   3   18.90    2.80
   4  -2  -3   20.90    1.80
  -4  -2   3   19.20    1.70
   4   2  -2  490.25    8.90
  -4   2   2  468.15   11.20
   4   2  -2  485.95   13.60
   4  -2  -2  487.45   13.40
   4  -2  -2  497.85    6.00
   4  -2  -1   20.40    2.90
   4   2  -1   23.50    3.30
   4  -2  -1   16.50    1.20
  -4  -2   1   14.00    0.90
   4   2   0  470.35   13.30
   4  -2   0  457.55    8.50
   4  -2   0  453.35   13.10
  -4  -2   0  405.06    8.10
   4  -2   1  835.02   12.90
   4   2   1  763.32   16.60
   4  -2   1  802.72   17.90
   4  -2   1  789.82   14.40
  -4  -2  -2   24.20    2.40
   4  -2   2   28.30    3.70
   4   2   2   28.90    3.40
   4  -2   2   34.10    3.60
   4   2   3    3.00    1.40
  -4  -2  -3    2.60    1.30
   4  -2   3    2.70    1.60
   4  -2   3    1.30    1.60
  -4  -2  -4   99.89    6.80
   4   2   4  116.29    8.70
   4  -2   4  116.19    8.10
   4   2   4  113.59    6.80
   4  -2   4  120.49    7.70
   4  -2   4  106.79    8.20
   4   2   5    4.20    2.60
   4  -2   5   -0.80    1.90
  -4  -2  -5   -0.70    1.20
   4   2   5    2.60    1.60
   4  -2   5    1.10    1.50
   4  -2   5    1.10    1.20
  -4  -2  -6   13.10    3.00
   4  -2   6   13.60    3.80
   4   2   6   19.80    4.50
   4  -2   6   25.90    4.90
  -4  -2  -7   15.10    4.00
   4   2   7   10.60    3.60
   4  -2   7   19.30    4.40
   4  -2   7   10.50    3.60
  -4  -2  -8    5.70    3.30
   4  -2   8    4.30    2.70
   4   3  -9   -0.90    2.00
   4  -3  -9    1.50    2.20
   4   3  -8   23.30    5.10
   4  -3  -8   25.70    5.70
  -4  -3   8   37.70    7.40
   4   3  -7   11.50    3.40
  -4  -3   7   10.60    2.80
  -4   3   7    7.20    2.80
  -4  -3   7   14.10    4.00
  -4   3   7   12.50    3.70
   4   3  -6   16.90    3.80
  -4   3   6   25.70    4.50
   4   3  -6   20.90    3.10
  -4  -3   6   25.20    4.80
  -4   3   6   25.50    4.70
  -4  -3   6   19.40    3.20
   4   3  -5   43.60    4.90
  -4   3   5   48.20    5.00
  -4   3   5   54.89    6.00
  -4  -3   5   48.80    6.10
   4   3  -5   49.99    4.60
   4  -3  -5   52.79    4.60
  -4   3   5   52.19    4.20
  -4  -3   5   42.00    4.20
   4   3  -4    0.00    1.00
  -4  -3   4   -0.40    0.90
  -4   3   4    0.20    1.10
   4  -3  -4   -0.50    1.20
   4   3  -4   -1.20    1.00
  -4   3   4    0.00    1.70
  -4   3   4   -0.60    1.30
  -4  -3   4    0.40    0.80
   4   3  -3   20.40    2.60
  -4  -3   3   17.10    1.80
   4  -3  -3   23.30    3.00
  -4   3   3   19.00    2.60
   4   3  -3   17.90    2.80
   4  -3  -3   21.00    2.10
  -4   3   3   18.40    2.80
   4   3  -2  244.58    6.00
  -4   3   2  241.38    8.50
   4   3  -2  232.58    9.60
   4  -3  -2  234.48    9.50
  -4  -3   2  238.78    5.40
   4   3  -1   49.90    2.40
   4   3  -1   47.80    4.30
   4  -3  -1   50.49    4.50
   4  -3  -1   39.20    2.50
   4  -3   0    6.30    1.10
   4  -3   0    6.20    1.70
   4   3   0    5.80    1.60
  -4  -3   0    5.10    1.20
   4  -3   1   14.40    2.10
  -4  -3  -1   12.10    1.20
   4   3   1   12.90    1.30
   4  -3   1   14.30    2.60
   4   3   1   10.60    2.20
   4   3   2  125.89    5.50
   4   3   2  117.19    6.60
   4  -3   2  123.09    7.70
   4  -3   2  122.89    6.90
   4  -3   3   31.80    4.00
  -4  -3  -3   25.70    3.00
   4   3   3   29.10    3.20
   4  -3   3   26.90    3.80
   4   3   3   29.00    3.40
   4   3   4    1.40    1.30
  -4  -3  -4    3.70    1.50
   4   3   4    1.80    1.40
   4  -3   4    2.90    1.60
   4  -3   4    5.60    1.80
   4  -3   4    2.10    1.70
   4  -3   5    0.90    1.20
  -4  -3  -5    2.70    1.50
   4   3   5   -1.20    1.80
   4   3   5    2.40    1.50
   4  -3   5    0.70    1.30
   4  -3   5   -0.70    1.20
  -4  -3  -6    7.00    2.50
   4   3   6    9.80    3.40
   4  -3   6    6.20    2.50
   4  -3   6    2.50    1.40
  -4  -3  -7   -4.20    2.50
   4   3   7    0.30    2.50
   4  -3   7    2.40    2.30
   4  -3   7   -0.10    1.50
  -4  -3  -8   11.70    3.50
   4  -3   8    3.80    2.70
   4  -4  -9   -8.50    3.50
   4   4  -8   27.40    5.70
  -4   4   8   26.30    5.30
  -4  -4   8   34.40    6.90
   4   4  -7    2.80    2.00
  -4   4   7    7.50    3.10
  -4  -4   7    7.40    3.70
  -4   4   7    4.70    2.80
  -4  -4   7    3.80    2.00
   4   4  -6    6.30    2.80
  -4   4   6    7.30    2.70
   4   4  -6    7.20    2.00
  -4  -4   6   12.70    3.80
  -4   4   6    6.50    2.80
  -4  -4   6    8.80    2.50
  -4   4   5    5.40    1.70
   4   4  -5    9.10    2.50
   4  -4  -5    5.00    1.60
  -4   4   5    7.30    2.70
   4   4  -5    7.30    1.90
  -4  -4   5    5.60    2.60
  -4   4   5    9.30    3.00
  -4  -4   5    8.20    1.90
   4   4  -4   49.40    4.70
  -4   4   4   53.39    5.00
  -4   4   4   49.90    5.10
  -4   4   4   52.89    5.50
   4   4  -4   55.99    5.00
  -4   4   4   46.00    4.70
   4  -4  -4   53.49    5.00
  -4  -4   4   54.39    4.20
  -4  -4   3    9.30    1.60
   4   4  -3    9.40    2.10
  -4   4   3    9.40    2.30
   4  -4  -3    7.80    1.90
   4   4  -2   27.30    2.20
   4   4  -2   25.10    3.30
  -4   4   2   26.30    3.10
   4  -4  -2   25.10    3.40
  -4  -4   2   24.80    2.20
   4   4  -1   29.40    1.60
   4  -4  -1   28.40    3.50
   4   4  -1   31.80    3.70
   4   4   0   87.59    2.60
   4   4   0   89.89    6.10
   4  -4   0   91.49    6.30
   4  -4   0   88.79    4.70
   4  -4   1   10.60    1.90
   4   4   1   15.60    1.60
   4   4   1   14.20    2.40
   4  -4   1   16.80    3.00
   4  -4   2   22.20    3.10
   4   4   2   23.00    2.50
   4   4   2   24.40    3.20
   4  -4   2   20.90    3.40
   4   4   3   44.70    4.10
   4   4   3   41.80    4.00
   4  -4   3   42.90    4.70
   4  -4   3   49.60    5.20
   4   4   4    7.20    3.00
   4  -4   4    1.50    1.20
   4  -4   4    5.80    2.20
   4   4   4    4.80    1.70
   4  -4   4    8.20    2.70
   4   4   4    5.70    1.90
   4  -4   5   21.80    4.50
  -4  -4  -5   22.60    3.70
   4   4   5   29.20    3.50
   4   4   5   30.00    5.00
   4  -4   5   28.30    4.20
   4  -4   5   33.70    4.80
  -4  -4  -6   28.80    4.70
   4   4   6   34.20    5.90
   4  -4   6   30.90    4.90
   4  -4   6   30.50    5.60
  -4  -4  -7   38.50    6.20
   4   4   7   53.39    7.90
   4  -4   7   41.40    7.00
  -4  -4  -8    2.10    2.50
   4  -4   8   -0.30    1.90
  -4   5   8    3.20    2.90
  -4  -5   8   11.20    4.50
  -4  -5   7    1.40    2.00
  -4  -5   7    1.80    2.00
  -4   5   6   11.00    3.30
   4   5  -6    9.50    2.30
  -4  -5   6    7.50    3.00
  -4   5   6   12.80    3.50
  -4  -5   6   12.70    2.80
  -4  -5   5   -0.50    0.80
  -4   5   5    1.80    1.30
   4  -5  -5    0.70    0.70
   4   5  -5    2.70    1.30
  -4   5   5    4.00    2.20
  -4   5   5   -0.90    2.10
  -4  -5   5    2.70    2.20
  -4   5   5    1.90    2.00
   4   5  -4    2.10    1.30
  -4   5   4    2.50    1.20
  -4   5   4    3.20    1.40
   4  -5  -4    5.00    1.80
  -4   5   4    5.50    2.30
  -4  -5   4    2.20    1.10
  -4   5   4    5.20    2.30
  -4  -5   3    1.10    0.90
   4   5  -3    1.80    1.30
  -4   5   3    0.70    1.40
   4  -5  -3    0.80    1.30
   4   5  -2   66.59    3.70
   4   5  -2   63.59    5.40
   4  -5  -2   69.89    5.60
  -4  -5   1    6.50    1.00
   4   5  -1    6.30    1.70
   4  -5  -1    7.80    2.00
   4   5   0  145.79    7.90
   4  -5   0  150.78    8.50
   4  -5   0  137.39    6.50
   4  -5   1    1.00    1.30
   4  -5   1    2.10    1.10
   4   5   1    1.00    0.70
   4   5   1    1.30    1.30
   4   5   1    1.30    0.50
   4   5   2  102.89    5.40
   4   5   2  102.49    6.50
   4  -5   2   99.79    6.80
   4  -5   2   97.79    7.10
   4   5   3   59.49    4.80
   4   5   3   63.49    5.30
   4  -5   3   56.69    6.00
   4  -5   3   55.59    5.50
   4   5   4  321.97   15.20
   4  -5   4  297.27   12.10
   4   5   4  318.67   12.70
   4   5   4  293.87   10.70
   4  -5   4  292.37   14.10
   4  -5   4  331.77   14.30
   4  -5   5   48.90    5.50
   4   5   5   47.80    5.60
   4   5   5   47.90    6.50
   4  -5   5   42.70    6.20
   4   5   5   37.60    3.80
   4  -5   5   48.50    6.10
   4  -5   6   10.20    3.10
  -4  -5  -6   13.30    3.60
   4   5   6   12.70    3.80
   4  -5   6   15.20    3.40
  -4  -5  -7    9.20    3.00
   4   5   7    9.90    3.70
   4  -5   7    8.70    3.40
  -4  -5  -8   -0.50    1.60
   4  -5   8    0.00    4.90
  -4   6   8   -0.70    1.90
  -4  -6   8    4.70    3.70
  -4   6   7   -3.70    2.70
  -4  -6   7    1.40    2.50
  -4   6   7   -0.60    2.20
  -4  -6   7    1.10    1.00
  -4  -6   6    9.10    2.60
   4   6  -6    7.50    2.10
  -4   6   6   10.00    3.10
  -4  -6   6    6.50    3.10
  -4   6   6    5.40    2.90
  -4  -6   5    6.00    1.90
  -4   6   5    8.90    2.50
   4   6  -5    4.80    1.80
  -4   6   5    6.10    2.50
  -4   6   5   10.00    3.00
  -4  -6   5    4.90    2.90
  -4   6   5    7.80    2.40
   4  -6  -5    8.10    2.20
   4   6  -4   15.90    3.00
   4  -6  -4   13.00    2.70
  -4   6   4   12.40    3.00
  -4   6   4   13.80    3.00
  -4   6   4   12.50    2.70
  -4  -6   4   17.00    2.70
   4  -6  -3   24.20    3.60
   4   6  -3   25.30    3.70
  -4   6   3   27.10    3.80
  -4  -6   3   22.10    2.90
   4   6  -2   21.00    3.10
   4  -6  -2   25.10    3.60
  -4  -6   1   34.70    2.70
   4   6  -1   41.20    4.30
   4  -6  -1   38.40    4.30
   4  -6   0   22.50    3.40
   4   6   0   21.80    3.20
   4  -6   1   15.60    2.60
   4  -6   1   16.30    3.10
   4   6   1   20.20    3.10
   4   6   1   17.70    1.70
   4  -6   2    8.10    2.20
   4   6   2   11.30    2.00
   4   6   2    8.90    1.90
   4  -6   2    9.10    2.50
   4   6   2   11.30    1.60
   4  -6   3    5.60    2.30
   4   6   3    6.10    1.90
   4   6   3    4.20    1.60
   4  -6   3    4.70    2.10
   4  -6   4   30.30    5.30
   4  -6   4   34.70    4.20
   4   6   4   37.80    5.60
   4   6   4   30.90    4.10
   4  -6   4   32.40    4.70
   4   6   4   35.40    3.80
   4   6   5  128.69   10.50
   4  -6   5  119.99    8.20
   4   6   5  110.89    8.50
   4   6   5  109.19    6.60
   4  -6   5  123.19   10.30
   4  -6   5  113.79    9.30
   4  -6   6    6.30    2.40
   4   6   6    3.80    2.10
   4   6   6    5.50    3.20
   4  -6   6    5.80    2.50
  -4  -6  -7    0.50    1.40
   4   6   7    3.80    3.80
   4  -6   7    0.60    2.50
  -4  -6  -8    3.80    2.70
   4  -6   8   10.00    4.00
  -4   7   8   16.20    4.90
  -4  -7   8   12.70    4.80
  -4   7   7    1.30    1.80
  -4  -7   7    0.40    1.60
  -4  -7   6    1.50    0.90
   4   7  -6   -1.10    1.50
  -4   7   6   -3.20    2.00
  -4   7   6   -0.50    1.60
  -4  -7   6   -2.70    2.10
  -4   7   6   -1.00    1.40
  -4  -7   5    7.80    2.30
   4   7  -5    7.20    2.20
  -4   7   5    5.80    2.10
   4  -7  -5    7.10    2.00
  -4   7   5    5.20    2.30
  -4  -7   5    6.70    3.00
  -4   7   5    5.20    2.20
  -4   7   5    8.20    2.60
   4   7  -4    3.20    2.00
  -4  -7   4    8.80    2.20
  -4   7   4    4.10    1.90
  -4   7   4    8.00    2.40
   4  -7  -4    6.20    1.70
  -4   7   4    5.30    2.00
  -4  -7   3    4.00    1.40
   4   7  -3    5.30    1.90
  -4   7   3    5.30    2.10
   4  -7  -3    4.60    1.70
  -4   7   3    0.70    1.20
   4   7  -2    2.80    1.50
   4  -7  -2    3.00    1.60
   4   7  -1  138.99    8.30
   4  -7  -1  131.89    8.30
   4   7   0   84.99    6.40
   4  -7   0   86.09    7.10
   4  -7   1  247.58   10.60
   4   7   1  260.77   11.10
   4  -7   1  275.07   12.80
   4   7   2  202.08    8.30
   4   7   2  213.98    7.20
   4   7   2  198.98    9.60
   4  -7   2  217.68   11.70
   4  -7   2  198.48   10.20
   4   7   3  242.58   10.20
   4   7   3  227.38   10.20
   4  -7   3  228.88   11.90
   4  -7   3  248.38   12.90
   4   7   4  208.68   12.80
   4  -7   4  212.68    9.60
   4   7   4  211.58   10.80
   4   7   4  205.38    9.60
   4  -7   4  202.78   12.20
   4  -7   4  207.38   12.70
   4   7   5   73.49    8.30
   4  -7   5   70.09    6.10
   4   7   5   71.09    7.00
   4  -7   5   65.79    7.60
   4  -7   6    8.90    3.30
   4   7   6    7.00    2.40
   4   7   6    8.00    4.10
   4  -7   7    1.20    1.60
  -4  -7  -7    0.80    2.10
   4   7   7    1.70    2.10
   4   7   7    1.80    3.10
  -4  -7  -8    4.70    2.60
  -4   8   8   -4.70    2.80
  -4  -8   8    3.20    3.00
  -4   8   7    8.20    2.90
  -4  -8   7    5.60    3.00
  -4  -8   6    0.60    1.50
   4   8  -6    1.70    1.70
  -4   8   6    0.10    1.70
  -4   8   6    1.80    2.20
  -4  -8   6    1.50    2.10
  -4   8   6   -3.00    1.90
  -4  -8   5    3.00    1.70
   4   8  -5    1.60    1.00
   4  -8  -5    3.00    1.50
  -4   8   5    5.60    2.20
  -4   8   5    0.20    1.70
  -4  -8   5    3.30    2.50
  -4   8   5    3.80    1.90
  -4   8   5    4.90    2.30
  -4   8   4   19.00    3.90
  -4  -8   4   16.70    3.20
   4   8  -4   19.50    3.60
   4  -8  -4   18.60    3.30
  -4   8   4   19.80    3.90
  -4   8   4   23.20    3.60
  -4  -8   3    2.80    1.50
   4   8  -3    5.40    2.00
   4  -8  -3    4.60    1.70
  -4   8   3    5.00    1.80
  -4   8   3    4.00    1.70
   4   8  -2   -0.80    1.60
   4  -8  -2   -1.00    1.50
   4   8  -1   33.00    4.40
   4  -8  -1   30.20    4.50
   4   8   0   37.10    4.40
   4  -8   0   42.70    5.20
   4  -8   1   91.79    6.80
   4   8   1   92.79    7.00
   4  -8   1   94.49    7.80
   4   8   2  122.69    6.00
   4   8   2  120.69    7.60
   4  -8   2  117.09    9.00
   4  -8   2  123.09    8.40
   4  -8   3    7.40    2.30
   4   8   3    8.80    2.30
   4   8   3    8.50    2.10
   4   8   3    7.80    2.00
   4  -8   3    8.40    2.80
   4  -8   4   45.80    4.40
   4   8   4   42.00    4.90
   4   8   4   48.40    6.30
   4   8   4   42.50    4.40
   4  -8   4   45.20    6.00
   4  -8   4   51.89    6.70
   4   8   5   89.99    9.20
   4   8   5   88.99    7.90
   4  -8   5   83.49    8.60
   4  -8   6   -2.90    2.50
   4   8   6    5.50    2.30
   4   8   6    1.10    2.70
   4  -8   7    5.70    2.90
   4   8   7    1.20    2.10
   4   8   7    3.60    4.30
  -4  -8  -8    0.50    1.40
  -4   9   8   10.70    4.60
  -4   9   7    6.70    3.70
  -4  -9   7   -0.90    2.10
  -4  -9   6   33.30    4.90
  -4   9   6   33.80    5.50
  -4   9   6   36.40    6.20
   4   9  -6   41.10    5.40
  -4  -9   6   33.80    5.40
  -4   9   6   34.40    5.20
  -4  -9   5   20.80    3.90
  -4   9   5   24.90    4.10
   4  -9  -5   22.00    3.70
   4   9  -5   20.20    3.80
  -4   9   5   20.00    3.80
  -4  -9   5   25.50    4.60
  -4   9   5   24.40    4.10
  -4   9   4  146.99   10.00
  -4  -9   4  150.58    9.80
   4   9  -4  137.99    9.50
  -4   9   4  137.29    8.60
   4  -9  -4  159.68    9.70
  -4   9   4  151.08   10.10
  -4  -9   4  156.88    9.40
  -4  -9   3    4.30    1.60
   4   9  -3    2.00    1.40
   4  -9  -3    4.90    1.80
  -4   9   3    3.10    1.30
  -4   9   3    3.90    2.00
   4   9  -2   11.40    2.90
   4  -9  -2    7.50    2.60
  -4   9   2    9.50    2.50
   4   9  -1    4.50    1.90
   4  -9  -1    4.70    2.10
   4   9   0   10.30    2.40
   4  -9   0   10.00    2.70
   4  -9   1   15.10    3.10
   4   9   1   10.40    2.60
   4  -9   1   16.60    3.80
   4  -9   2   -1.70    1.30
   4   9   2   -1.30    1.60
   4   9   2    0.30    1.10
   4  -9   2    0.60    1.40
   4  -9   3  111.19    6.00
   4   9   3  108.29    8.90
   4   9   3  111.69    7.40
   4   9   3   97.09    6.20
   4   9   3  102.39    7.20
   4  -9   3  106.79    8.70
   4  -9   3  110.59    9.10
   4  -9   4   11.30    3.10
   4   9   4   11.50    2.70
   4   9   4    8.00    3.10
   4   9   4   14.40    3.00
   4  -9   4    7.90    2.80
   4  -9   5    4.60    2.70
   4   9   5    7.80    2.50
   4   9   5    7.10    3.70
   4  -9   6   43.80    7.10
   4   9   6   40.50    6.00
   4   9   6   54.19    8.10
   4  -9   7    3.90    2.10
   4   9   7    3.90    2.40
   4   9   7    4.70    3.50
  -4  -9  -8    2.20    2.00
  -4  10   8    2.20    2.80
  -4  10   7    0.90    2.10
  -4 -10   7    6.70    3.90
  -4  10   6    0.60    2.10
   4  10  -6    0.70    1.40
  -4  10   6    4.60    2.50
  -4 -10   6    1.20    2.30
  -4  10   6    1.20    2.20
  -4 -10   6    5.10    3.00
  -4 -10   5    5.40    2.10
   4  10  -5    3.40    1.40
  -4  10   5    3.40    1.80
  -4 -10   5    3.90    2.50
  -4  10   5    5.80    2.30
  -4  10   5    3.60    2.50
  -4  10   4    3.90    2.00
  -4 -10   4    7.90    2.60
   4  10  -4    7.50    2.60
   4 -10  -4    7.80    2.50
  -4  10   4    2.00    1.90
  -4 -10   4    4.10    2.60
  -4  10   4    5.00    2.00
   4 -10  -3    8.70    2.40
  -4  10   3    9.50    3.00
  -4  10   3    8.30    2.00
   4  10  -3   12.50    3.50
   4  10  -2   -2.30    1.80
   4 -10  -2   -0.70    1.30
  -4  10   2   -0.80    1.50
   4  10  -1   37.60    5.20
   4 -10  -1   37.20    5.10
   4  10   0   29.30    4.40
   4 -10   0   27.60    4.70
   4 -10   1   49.30    6.10
   4  10   1   41.60    5.00
   4 -10   1   47.50    5.50
   4 -10   2  171.08   11.70
   4  10   2  163.78    9.80
   4 -10   2  175.88   10.80
   4 -10   3   16.30    3.40
   4  10   3   19.40    3.50
   4  10   3   11.20    3.30
   4 -10   3   22.80    4.70
   4  10   3   17.80    3.00
   4  10   4   53.49    5.70
   4  10   4   61.19    7.50
   4  10   4   42.90    5.00
   4  10   4   60.09    5.70
   4 -10   4   54.09    6.70
   4 -10   5  128.09   11.20
   4  10   5  132.89   11.60
   4  10   5  127.79    9.70
   4  10   6    2.30    2.10
   4  10   6    0.30    2.30
   4 -10   6    3.70    2.20
   4 -10   7   -2.10    2.90
   4  10   7   -2.60    2.50
   4  10   7    0.60    3.70
  -4  11   7    3.80    2.90
  -4  11   7   13.30    4.40
  -4 -11   7    9.90    3.80
  -4 -11   6    7.70    2.70
  -4  11   6    7.90    3.30
   4  11  -6    4.80    2.30
  -4  11   6    7.20    2.80
  -4  11   6    9.50    4.20
  -4 -11   6   10.80    3.10
  -4 -11   5   10.60    3.10
  -4  11   5    3.00    1.40
   4  11  -5    6.40    2.50
  -4  11   5    8.20    2.80
  -4 -11   5    8.10    3.30
  -4  11   4    8.40    2.90
  -4 -11   4    7.30    3.10
   4  11  -4    5.50    1.80
  -4  11   4    9.70    3.10
  -4 -11   4    7.50    3.00
  -4  11   4    5.10    2.20
  -4  11   3    2.80    2.40
   4  11  -3    0.50    1.70
  -4  11   3    3.30    1.40
   4  11  -2   32.70    4.90
  -4  11   2   37.40    3.50
   4 -11  -2   36.10    5.20
  -4  11   2   27.60    4.80
   4  11  -1   -1.50    1.80
   4 -11  -1    1.70    2.20
  -4  11   1    0.70    1.60
   4 -11   0  136.99   10.20
   4  11   0  135.79    9.50
   4  11   1   13.00    3.00
   4 -11   1   14.80    3.90
   4 -11   2   60.09    7.20
   4 -11   2   57.49    6.40
   4  11   2   53.99    6.00
   4  11   3   -1.60    1.40
   4 -11   3    2.10    1.40
   4  11   3   -0.70    1.90
   4  11   3    0.40    0.90
   4 -11   4   -1.20    1.40
   4  11   4    0.30    1.40
   4  11   4    1.00    1.10
   4  11   4    3.80    2.80
   4  11   4    0.30    1.20
   4 -11   5    8.50    3.00
   4  11   5    9.70    2.70
   4  11   5    7.20    3.30
   4 -11   6    0.40    1.30
   4  11   6    1.00    1.70
   4  11   6    3.60    3.60
   4 -11   7   -2.60    2.10
   4  11   7    5.50    3.20
   4  11   7    6.30    4.10
  -4  12   7   -0.80    2.00
  -4 -12   7   -5.30    3.90
  -4 -12   6   19.50    4.60
  -4  12   6   26.20    5.00
   4  12  -6   15.00    3.70
  -4  12   6   21.70    5.00
  -4  12   6   23.80    5.70
  -4 -12   6   23.20    5.00
  -4 -12   5   10.80    3.50
  -4  12   5    8.90    2.80
   4  12  -5   12.10    3.20
  -4  12   5   14.20    3.90
  -4 -12   5    7.50    3.20
  -4  12   4   55.29    7.00
   4  12  -4   56.89    6.70
  -4 -12   4   70.19    7.00
  -4  12   4   58.69    6.90
  -4 -12   4   59.99    6.60
  -4  12   3    3.60    2.60
   4  12  -3    0.40    1.50
   4  12  -2    1.80    2.10
   4 -12  -2    2.60    1.70
  -4  12   2    1.80    1.80
   4  12  -1   10.40    3.00
   4 -12  -1    7.40    2.80
  -4  12   1   11.30    3.60
   4 -12   0   26.30    4.90
   4  12   0   24.20    4.40
  -4  12   0   20.00    4.30
   4  12   1    0.50    1.70
   4 -12   1    0.70    1.80
   4 -12   2   12.70    3.40
   4  12   2   13.20    3.40
   4 -12   3    0.00    1.10
   4  12   3    3.80    2.40
   4  12   3    0.60    1.90
   4  12   3   -0.20    0.90
   4  12   4   23.40    3.80
   4  12   4   23.00    3.90
   4  12   4   31.30    6.10
   4  12   4   19.50    3.70
   4 -12   4   25.90    5.00
   4 -12   5   11.30    3.80
   4  12   5    9.00    2.50
   4  12   5   19.60    4.90
   4 -12   6    8.50    3.60
   4  12   6    3.30    2.40
   4  12   6    8.40    4.20
   4  12   7    6.90    4.00
  -4  13   7   20.90    5.20
  -4  13   7   23.60    5.70
  -4 -13   7   26.90    6.50
  -4  13   6   15.60    4.50
   4  13  -6   13.60    3.60
  -4  13   6    8.40    3.50
  -4  13   6   12.10    4.20
  -4 -13   6   14.10    4.60
  -4 -13   6   11.50    3.40
  -4 -13   5   13.00    3.70
  -4  13   5   11.30    3.60
   4  13  -5    6.00    2.70
  -4  13   5   13.10    3.90
  -4 -13   5   10.70    3.70
   4  13  -4   38.10    5.90
  -4 -13   4   38.60    5.70
  -4  13   4   37.90    6.10
  -4 -13   4   45.80    5.60
  -4  13   3   -1.20    1.90
   4  13  -3   -1.00    1.90
   4  13  -2   57.29    6.90
  -4  13   2   59.09    7.40
   4  13  -1   14.10    3.40
  -4  13   1   11.90    3.90
   4  13   0   12.00    3.10
  -4  13   0    7.10    3.10
  -4  13  -1   24.70    4.80
   4  13   1   34.30    5.00
   4 -13   2   16.00    3.70
   4  13   2   12.80    3.10
   4  13   2   13.50    3.60
  -4  13  -2   14.90    3.80
   4 -13   3    3.40    2.10
   4  13   3    0.50    1.80
   4  13   3    1.30    2.20
   4  13   3    4.50    1.90
   4 -13   4    2.50    1.50
   4  13   4    7.10    2.60
   4  13   4    1.80    1.20
   4  13   4    6.70    3.40
   4  13   4    2.80    1.40
  -4  13  -4    3.40    2.60
   4 -13   5    0.20    1.40
   4  13   5    3.10    1.80
   4  13   5    2.20    3.30
  -4  13  -5    0.30    1.30
   4 -13   6   10.40    4.20
   4  13   6    3.30    1.80
   4  13   6    4.00    4.00
   4  13   7    5.10    3.00
  -4 -14   6    6.40    3.10
  -4  14   6   -1.20    2.30
   4  14  -6    4.10    2.50
  -4  14   6    7.20    4.40
  -4 -14   5    6.00    3.20
   4  14  -5    2.50    2.30
  -4  14   5    2.00    2.20
  -4  14   5   -1.50    2.30
  -4 -14   5    4.40    2.90
  -4  14   4   15.60    4.20
  -4 -14   4   16.10    3.80
   4  14  -4   14.70    3.70
  -4 -14   4   13.00    3.20
  -4  14   3    1.50    2.00
   4  14  -3   -0.70    1.60
  -4 -14   3    1.80    1.80
  -4  14   2   26.90    5.30
   4  14  -2   24.80    4.60
   4  14  -1  100.49    9.10
  -4  14   1   94.89    9.40
   4  14   0   -0.80    2.00
  -4  14   0    0.00    1.90
   4  14   1  135.89   10.40
  -4  14  -1  131.89   11.10
   4 -14   2   25.40    4.90
   4  14   2   22.90    4.60
   4  14   2   26.00    5.00
  -4  14  -2   24.40    5.40
   4 -14   3   11.10    3.80
   4  14   3   12.10    3.20
   4  14   3   15.40    4.10
   4  14   3   14.50    3.00
  -4  14  -3    9.30    3.20
   4 -14   4   28.90    5.40
   4  14   4   32.10    4.90
  -4  14  -4   20.90    4.70
   4  14   4   23.50    4.30
   4  14   4   32.70    5.90
   4 -14   5    2.30    1.70
   4  14   5    5.30    3.00
   4  14   5    2.80    3.50
  -4  14  -5    4.70    2.90
   4 -14   6    4.60    2.90
   4  14   6    2.20    1.70
   4  14   6    3.40    3.50
   4  15  -6    0.20    2.30
  -4  15   6    1.10    2.10
  -4  15   6    1.10    2.40
  -4 -15   5    8.50    3.20
   4  15  -5    8.90    3.00
  -4  15   5    7.20    3.30
  -4  15   5    8.60    4.10
   4  15  -4   12.70    3.70
  -4  15   4    7.70    3.30
  -4 -15   4    8.70    3.00
  -4  15   3    3.80    2.60
   4  15  -3    4.60    2.60
  -4  15   2    1.00    2.50
   4  15  -2    0.10    2.20
  -4  15   1   46.90    7.30
   4  15  -1   46.20    6.60
   4  15   0    3.80    1.90
  -4  15   0    3.70    2.60
   4  15   1    8.00    2.80
   4  15   1    4.10    2.40
  -4  15  -1    4.30    3.00
   4 -15   2    2.10    2.10
   4  15   2    0.80    2.60
   4  15   2    5.70    2.60
  -4  15  -2    2.40    2.50
   4 -15   3   -0.60    1.90
   4  15   3    4.00    2.30
   4  15   3    2.40    2.40
  -4  15  -3    3.00    2.40
   4 -15   4    0.10    1.60
   4  15   4    1.00    1.90
   4  15   4   -1.90    2.70
  -4  15  -4    2.70    2.60
   4 -15   5    5.30    2.90
   4  15   5    1.00    2.30
   4  15   5    3.90    3.40
   4  15   6    8.00    3.20
   4  15   6   12.50    4.90
   4  16  -6    2.10    2.30
  -4  16   6    6.60    3.90
  -4 -16   5   20.20    4.90
   4  16  -5   13.80    4.10
  -4  16   5   12.70    3.80
  -4  16   5   17.20    4.70
   4  16  -4    1.50    2.10
  -4  16   4    3.20    3.10
  -4 -16   4    5.60    2.20
   4  16  -3    3.30    3.00
  -4  16   3    8.10    3.40
  -4  16   2    6.40    2.90
   4  16  -2   -1.30    1.80
  -4  16   1   29.40    6.30
   4  16  -1   22.80    5.00
  -4  16   0    2.70    2.50
   4  16   0    2.50    3.10
   4  16   1    1.30    2.20
   4  16   1   -1.00    2.10
  -4  16  -1    0.70    1.60
   4 -16   2   -1.60    1.50
   4  16   2    0.70    2.00
   4  16   2    0.30    2.60
  -4  16  -2   -0.80    1.60
   4 -16   3    7.50    3.60
   4  16   3    5.30    2.70
   4  16   3    8.90    3.50
  -4  16  -3    0.90    2.50
   4 -16   4    2.70    2.20
   4  16   4    1.90    2.60
  -4  16  -4    0.80    2.60
   4 -16   5   12.60    4.40
   4  16   5    7.10    2.60
   4  16   5   13.60    4.50
   4  16   6   21.40    4.80
   4  17  -6    0.70    2.00
  -4 -17   5    1.50    1.50
   4  17  -5   -1.80    2.00
  -4  17   5    4.20    3.50
  -4  17   5    7.70    3.30
   4  17  -4    1.90    2.60
  -4  17   4    3.40    3.00
  -4 -17   4    4.80    2.60
   4  17  -3    9.70    3.90
  -4  17   3   13.00    4.60
   4  17  -2   19.20    4.90
  -4  17   2   13.20    4.80
  -4  17   1   18.20    5.10
   4  17  -1   19.90    5.00
  -4  17   0   -0.30    2.20
   4  17   0    4.80    3.50
  -4  17  -1    1.80    2.40
   4  17   1    0.30    2.50
  -4  17  -2   -1.00    1.70
   4 -17   2    2.90    2.50
   4  17   2    0.70    2.20
   4  17   2    1.40    2.70
  -4  17  -3    4.70    2.40
   4 -17   3   11.20    3.80
   4  17   3    3.40    2.00
   4  17   3    4.40    2.80
  -4  17  -4    4.70    2.90
   4 -17   4   10.80    4.30
   4  17   4    5.10    2.40
   4  17   5    3.10    1.40
   4  17   5    0.90    3.30
  -4 -18   5   -1.30    1.90
   4  18  -5    0.40    1.80
  -4  18   5    3.90    3.10
   4  18  -4   -1.70    2.00
  -4 -18   4    1.60    2.30
  -4  18   4    0.10    2.40
  -4  18   3    7.40    4.00
   4  18  -3    6.30    3.30
   4  18  -2    5.70    3.40
  -4  18   2    3.80    4.20
   4  18  -1   18.20    5.20
  -4  18   1   16.40    4.40
  -4  18   0    1.70    2.40
   4  18   0    1.30    3.40
  -4  18  -1   -3.10    2.90
   4  18   1    1.40    2.60
  -4  18  -2    1.00    2.10
   4  18   2    2.00    2.80
   4 -18   2    2.20    2.50
  -4  18  -3    2.20    2.40
   4 -18   3    3.50    2.80
   4  18   3    2.00    2.00
   4 -18   4    3.60    2.80
  -4  18  -4    3.50    2.60
   4  18   5   23.90    5.00
   4  19  -4    0.60    2.90
  -4 -19   4    9.60    4.00
  -4  19   4    2.30    2.60
   4  19  -3   -0.90    2.80
  -4  19   3    3.50    4.40
   4  19  -2   13.50    4.10
  -4  19   2   11.90    3.70
   4  19  -1   11.10    4.30
  -4  19   1    4.70    3.50
  -4  19   0   12.90    4.30
   4  19   0   22.10    5.30
  -4  19  -1   35.40    6.80
   4  19   1   28.20    6.00
  -4  19  -2   20.80    5.40
   4  19   2   19.20    5.10
   4 -19   2   29.00    6.00
  -4  19  -3   41.20    7.00
   4 -19   3   53.29    8.50
   4  19   3   43.70    7.00
  -4  19  -4    1.50    2.30
  -4 -20   4    0.30    1.70
   4  20  -2   18.60    5.30
  -4  20   2   20.70    5.70
   4  20  -1   26.80    5.90
  -4  20   1   30.20    6.40
  -4  20   0    6.40    3.60
   4  20   0    1.60    3.80
  -4  20  -1    3.00    4.10
   4  20   1   11.50    4.50
   4 -20   2    8.80    3.30
   4  20   2    0.40    2.60
  -4  20  -2    9.70    4.00
  -4  20  -3   13.10    4.60
   4  20   3   14.60    4.40
   5   0  -9    0.40    1.70
   5   0  -8   -0.80    2.00
  -5   0   8    1.50    2.40
   5   0  -7    1.20    1.90
  -5   0   7    1.00    2.10
   5   0  -6   -0.40    1.10
  -5   0   6   -1.80    1.70
   5   0  -5   -0.10    0.80
   5   0  -5   -1.50    0.90
   5   0  -4    6.80    1.90
  -5   0   3    0.00    0.80
   5   0  -3    0.90    0.90
   5   0  -2   85.99    6.40
   5   0  -1    0.80    1.40
   5   0   0  139.39    8.00
   5   0   1   -1.20    1.30
  -5   0  -1    0.10    0.40
   5   0   1    0.60    0.50
   5   0   2   12.70    2.90
  -5   0  -2   14.40    1.50
   5   0   2   15.70    2.60
   5   0   3    0.10    1.10
   5   0   3    0.20    1.30
   5   0   4    4.90    2.10
   5   0   4    3.50    1.60
  -5   0  -5    4.10    2.10
   5   0   5   -1.00    2.10
   5   0   5    0.30    1.20
   5   0   5    1.40    1.70
  -5   0  -6   22.20    4.50
   5   0   6   30.60    5.70
   5   0   6   27.10    5.20
   5   0   7    2.10    1.90
   5   0   8    9.30    4.60
   5   1  -9   -0.30    1.50
   5  -1  -9   -2.20    2.10
   5   1  -8    4.00    3.20
   5  -1  -8    4.90    2.60
  -5  -1   8    3.80    3.40
  -5   1   8    2.60    2.40
   5   1  -7   13.30    3.80
   5  -1  -7   10.60    3.40
  -5  -1   7   13.80    4.20
  -5   1   7   17.50    4.60
   5   1  -6    3.80    1.60
   5  -1  -6    9.90    2.70
  -5  -1   6    7.30    3.00
  -5   1   6    1.20    1.80
   5   1  -5   73.79    6.00
  -5   1   5   54.09    5.40
  -5  -1   5   68.99    7.20
  -5   1   5   62.69    7.00
   5   1  -5   69.69    6.00
   5  -1  -5   65.99    5.80
   5  -1  -4    1.90    0.80
   5   1  -4    2.00    0.80
  -5   1   4    4.70    1.70
   5   1  -4    4.40    1.80
   5  -1  -3   -1.00    1.30
   5   1  -3   -0.30    0.70
  -5   1   3   -0.40    0.80
   5   1  -3   -0.30    1.10
   5  -1  -2   -1.00    1.00
   5   1  -2    0.30    0.50
  -5   1   2    1.10    0.50
   5   1  -2    0.00    1.00
  -5   1   1   90.99    3.90
   5   1  -1   89.29    6.50
   5  -1  -1   95.99    6.70
  -5  -1   0   13.10    1.50
   5  -1   0   19.60    3.20
   5   1   0   15.10    2.90
   5  -1   0   17.00    1.70
   5  -1   1    3.00    1.70
  -5   1  -1    2.10    0.70
   5   1   1    3.20    1.70
   5  -1   1    2.40    0.80
   5   1   2    8.70    1.90
   5  -1   2   12.30    2.80
  -5  -1  -2   10.50    1.20
   5  -1   2   12.90    2.40
  -5  -1  -3    5.40    2.10
   5   1   3    3.30    1.80
   5   1   3    4.00    1.90
   5  -1   3    4.80    2.10
   5  -1   3    2.50    1.80
  -5  -1  -4    2.70    1.70
   5   1   4    2.20    1.80
   5  -1   4    4.70    1.80
   5  -1   4    1.00    1.30
   5   1   4    2.30    1.60
  -5  -1  -5    4.80    2.10
   5   1   5    4.40    2.10
   5  -1   5    5.00    2.30
   5   1   5    1.50    1.80
   5  -1   5    5.60    2.60
   5   1   5    3.60    1.60
   5  -1   5    4.00    1.50
  -5  -1  -6   25.70    4.80
   5  -1   6   28.50    5.50
   5   1   6   31.20    5.50
   5  -1   6   26.20    5.20
  -5  -1  -7    4.60    2.50
   5   1   7    6.80    3.80
   5  -1   7    0.70    2.10
   5  -1   7    6.20    3.20
  -5  -1  -8    5.40    3.30
   5   1   8    3.90    4.20
   5   2  -9   14.80    4.60
   5  -2  -9   13.10    4.40
   5   2  -8   -1.10    1.30
   5  -2  -8   -0.10    2.00
  -5  -2   8    1.60    3.20
  -5   2   8    3.30    3.10
   5   2  -7   13.20    3.60
   5  -2  -7   15.50    3.70
  -5  -2   7   21.90    5.00
  -5   2   7   17.40    4.60
   5   2  -6    4.10    2.30
  -5   2   6    6.30    2.30
  -5  -2   6    0.50    1.70
   5   2  -6    3.80    1.90
   5   2  -5    7.20    2.60
   5  -2  -5    6.30    1.90
  -5   2   5    5.30    2.00
  -5  -2   5    8.70    2.90
  -5   2   5    4.90    2.60
   5   2  -5    4.90    1.80
  -5   2   5    4.50    1.60
   5   2  -4   14.50    2.30
   5  -2  -4   12.10    2.60
  -5   2   4   12.40    2.40
   5   2  -4   16.60    2.90
   5  -2  -3    0.40    1.00
   5   2  -3   -0.70    0.80
  -5   2   3   -0.80    0.80
   5   2  -3   -0.10    1.10
  -5   2   2  189.48    6.10
  -5   2   2  184.78    7.30
   5   2  -2  179.28    9.30
   5  -2  -2  192.48    9.60
  -5   2   1  368.16    8.90
   5   2  -1  369.76   13.20
   5  -2  -1  374.76   13.30
   5  -2   0   30.10    4.00
   5   2   0   29.40    3.90
   5  -2   0   31.30    2.40
  -5  -2   0   22.40    2.10
   5  -2   1    0.70    0.80
   5  -2   1    1.40    1.90
   5   2   1    0.60    1.20
   5   2   2  107.39    7.20
   5  -2   2  118.99    8.00
   5  -2   2  119.59    7.00
   5   2   3    0.30    1.20
  -5  -2  -3    0.70    1.20
   5  -2   3    3.10    1.80
   5  -2   3    0.90    1.30
  -5  -2  -4   19.50    3.10
   5   2   4   22.40    3.60
   5  -2   4   27.50    4.40
   5  -2   4   26.20    4.20
  -5  -2  -5   32.70    4.70
   5   2   5   32.00    5.30
   5  -2   5   30.70    4.80
   5  -2   5   36.50    5.10
   5   2   5   31.10    4.30
   5  -2   5   31.70    5.20
  -5  -2  -6    5.30    2.40
   5   2   6    3.40    2.90
   5  -2   6    0.50    1.60
   5  -2   6    0.90    1.20
  -5  -2  -7    0.60    1.80
   5   2   7   -2.70    3.20
   5  -2   7   -1.40    2.10
   5  -2   7    0.90    2.00
  -5  -2  -8    0.70    2.10
   5   2   8    6.00    5.10
   5  -2   8    3.10    1.80
   5   3  -9    0.30    2.10
   5  -3  -9    7.80    3.40
   5   3  -8    3.70    2.60
   5  -3  -8    3.40    2.70
  -5  -3   8    3.30    4.00
  -5   3   8    1.10    2.90
   5   3  -7    5.90    2.70
  -5   3   7   11.50    3.40
  -5  -3   7    6.10    3.40
  -5   3   7    4.70    2.30
   5   3  -6    4.30    1.90
  -5   3   6    5.20    2.50
  -5  -3   6    0.80    1.70
  -5   3   6    1.10    2.00
   5   3  -6    2.30    1.40
   5   3  -5    3.30    1.80
  -5   3   5    4.40    2.00
   5  -3  -5    6.50    2.00
   5   3  -5    7.20    2.10
  -5  -3   5    1.10    1.70
  -5   3   5    3.30    1.90
  -5   3   5    6.10    1.90
   5   3  -4  160.08    8.00
  -5   3   4  137.09    7.60
   5   3  -4  159.88    9.30
   5  -3  -4  155.88    8.90
  -5  -3   4  116.99    4.90
   5  -3  -3    4.90    0.80
   5  -3  -3    5.10    1.90
  -5   3   3    5.10    1.40
   5   3  -3    7.80    1.90
  -5  -3   3    5.70    0.80
  -5   3   3    6.40    1.70
   5  -3  -2    8.00    2.10
   5   3  -2   10.10    2.60
  -5   3   2    9.30    1.90
   5   3  -1   94.49    7.00
   5  -3  -1   96.29    7.00
   5  -3  -1   86.69    3.20
   5   3   0  106.09    7.30
   5  -3   0  103.09    7.20
  -5  -3   0   73.69    4.00
   5  -3   0  102.39    4.70
   5  -3   1    3.60    1.50
   5  -3   1    2.30    1.70
   5   3   1    2.50    1.60
  -5  -3  -2   45.00    3.10
   5   3   2   56.29    5.40
   5  -3   2   61.29    6.00
   5  -3   2   61.09    5.20
   5  -3   3    8.90    2.30
  -5  -3  -3    8.10    2.00
   5  -3   3    8.40    2.40
   5   3   3    7.40    2.20
   5   3   4    9.80    2.60
  -5  -3  -4    7.30    2.10
   5  -3   4   10.50    3.20
   5  -3   4    6.40    2.30
  -5  -3  -5   -0.20    1.10
   5   3   5   -0.30    1.30
   5   3   5    3.00    2.70
   5  -3   5    4.60    2.50
   5  -3   5    4.40    2.60
   5  -3   5   -1.10    1.70
  -5  -3  -6   18.50    3.80
   5   3   6   29.30    5.70
   5  -3   6   18.70    4.30
   5  -3   6   23.20    5.10
  -5  -3  -7    0.50    2.10
   5   3   7    3.90    2.70
   5  -3   7   -2.40    1.90
   5  -3   7    3.90    2.50
  -5  -3  -8   -2.10    1.90
   5   3   8    2.80    4.30
  -5  -4   8    1.50    2.30
  -5   4   8    3.40    3.30
   5   4  -7    2.80    2.00
  -5   4   7    4.20    3.00
  -5  -4   7    6.80    3.50
  -5   4   7    2.00    1.80
   5   4  -6   15.30    3.70
  -5   4   6   12.90    3.20
   5   4  -6   16.90    3.20
  -5  -4   6   15.00    4.20
  -5   4   6   16.90    3.80
  -5   4   5    2.10    1.80
   5   4  -5    0.10    1.10
  -5  -4   5   -1.80    2.10
  -5   4   5    0.10    1.40
   5  -4  -5    1.20    1.10
  -5   4   5    1.20    1.30
  -5   4   4    1.50    1.30
   5   4  -4    2.90    1.70
   5  -4  -4    3.10    1.60
  -5   4   4    1.20    1.50
  -5  -4   4    1.00    0.60
  -5  -4   3    0.70    0.50
   5   4  -3    1.70    1.80
   5  -4  -3   -0.60    1.10
  -5   4   3    2.50    1.90
  -5   4   2   98.79    6.00
   5   4  -2   94.49    7.10
   5  -4  -2  102.69    7.40
  -5  -4   2  101.89    3.70
   5  -4  -1    0.60    0.60
   5   4  -1    1.50    1.40
   5  -4  -1    2.20    1.60
  -5  -4   1    0.90    0.50
   5   4   0   24.50    3.60
   5  -4   0   26.70    3.80
   5  -4   0   23.10    2.50
   5   4   1  148.39    8.80
   5  -4   1  163.08    9.70
   5  -4   1  158.68    7.40
  -5  -4  -2   89.39    4.50
   5   4   2  112.89    7.50
   5  -4   2  125.49    8.60
   5  -4   2  119.99    7.40
   5  -4   3    3.10    1.50
   5  -4   3    5.70    1.90
  -5  -4  -3    4.80    1.50
   5   4   3    4.80    1.80
  -5  -4  -4   36.80    4.30
   5  -4   4   45.30    5.60
   5   4   4   41.50    4.80
   5  -4   4   42.90    5.70
   5  -4   5   47.10    6.10
  -5  -4  -5   45.70    5.30
   5   4   5   38.50    4.60
   5   4   5   46.60    6.70
   5  -4   5   37.20    5.10
   5  -4   5   43.90    6.20
  -5  -4  -6    0.80    1.60
   5   4   6    0.60    2.30
   5  -4   6    3.90    2.30
   5  -4   6    4.50    2.70
  -5  -4  -7    1.90    1.80
   5   4   7    2.30    2.40
   5  -4   7    6.30    3.00
   5  -4   7    8.80    3.60
  -5  -4  -8    1.20    2.00
  -5   5   8    5.90    2.90
  -5  -5   8    9.50    4.70
  -5   5   8   10.30    4.20
  -5   5   7   -0.30    2.00
  -5  -5   7    0.30    2.40
  -5   5   7    1.70    2.10
  -5   5   6    7.60    3.00
   5   5  -6    3.30    1.70
  -5  -5   6    7.20    3.00
  -5   5   6    3.20    2.30
   5  -5  -5    3.10    1.70
  -5   5   5    2.20    1.60
   5   5  -5    4.40    2.20
  -5  -5   5    0.50    1.80
  -5   5   5    1.50    2.00
  -5   5   5    1.60    1.60
  -5  -5   4    3.80    1.20
  -5   5   4    1.30    1.10
   5   5  -4    5.50    2.30
  -5   5   4    3.40    1.50
   5  -5  -4    7.10    2.10
  -5   5   3   48.00    4.90
   5   5  -3   47.80    5.10
   5  -5  -3   53.99    5.50
  -5  -5   3   50.29    3.40
  -5  -5   2    2.00    0.80
   5   5  -2    0.20    0.30
   5   5  -2   -1.10    1.50
   5  -5  -2    0.30    1.10
   5  -5  -1    7.80    1.60
   5   5  -1    9.90    2.60
   5   5  -1    7.40    1.10
   5  -5  -1   13.10    3.00
   5   5   0   79.89    6.50
   5  -5   0   87.29    7.10
   5  -5   0   78.79    5.00
   5  -5   1    1.20    0.70
   5   5   1    2.70    0.70
   5   5   1    1.20    1.20
   5  -5   1    2.10    1.30
   5   5   2  489.15   11.50
   5   5   2  466.35   15.80
   5  -5   2  481.05   17.30
   5  -5   2  461.45   14.90
   5   5   3  141.49    7.40
   5   5   3  142.39    8.50
   5  -5   3  156.88   10.10
   5  -5   3  138.69    9.20
   5  -5   4   23.10    4.40
  -5  -5  -4   20.20    3.10
   5  -5   4   29.40    4.80
   5   5   4   21.30    3.60
  -5  -5  -5   42.70    5.40
   5  -5   5   50.59    6.10
   5   5   5   41.50    6.20
   5   5   5   53.89    5.30
   5  -5   5   49.99    6.70
   5  -5   5   53.99    6.50
  -5  -5  -6    6.20    2.60
   5   5   6    8.40    3.50
   5  -5   6    4.10    2.20
   5  -5   6    5.00    2.50
  -5  -5  -7    6.40    2.80
   5  -5   7    3.10    2.10
  -5  -5  -8    0.00    2.50
  -5   6   8    1.20    2.80
  -5  -6   8    2.80    3.50
  -5   6   7   -0.30    1.80
  -5  -6   7    0.60    2.00
  -5   6   7   -2.50    2.00
  -5   6   6    5.40    2.70
   5   6  -6    5.40    2.20
  -5  -6   6    2.30    2.10
  -5   6   6    3.50    2.10
   5  -6  -5    4.10    1.50
  -5   6   5    0.90    1.50
   5   6  -5    0.60    1.00
  -5   6   5    1.90    1.90
  -5  -6   5    5.70    3.00
  -5   6   5   -0.40    1.60
  -5   6   5    1.10    1.60
  -5  -6   4    9.00    1.80
   5  -6  -4    9.90    2.60
   5   6  -4    8.80    2.40
  -5   6   4    6.80    2.60
  -5   6   4    8.00    2.40
  -5   6   4   12.20    3.10
   5   6  -3   16.30    3.20
  -5   6   3   18.80    3.30
  -5  -6   3   19.80    2.60
   5  -6  -3   16.00    3.00
   5   6  -2   29.10    4.30
   5  -6  -2   37.50    4.70
   5   6  -1   98.69    7.50
   5  -6  -1  101.99    7.80
   5  -6   0   13.00    2.40
   5   6   0   13.80    3.00
   5  -6   0   14.30    2.80
   5  -6   1    9.00    2.00
   5  -6   1   12.20    3.10
   5   6   1   10.30    1.50
   5   6   1   11.20    2.90
   5  -6   2    2.50    1.40
   5  -6   2    3.40    2.00
   5   6   2    3.10    1.10
   5   6   2    5.00    2.00
   5  -6   3    8.00    2.60
   5   6   3    4.00    1.50
   5  -6   3    8.80    2.90
   5   6   3    2.30    1.30
   5  -6   4   51.09    6.60
   5  -6   4   51.39    5.40
   5   6   4   54.79    6.80
   5   6   4   52.59    5.30
   5   6   4   53.99    5.50
   5  -6   4   53.39    6.40
   5  -6   5   12.30    3.70
  -5  -6  -5   10.00    2.90
   5   6   5    8.70    3.60
   5  -6   5    9.80    2.50
   5   6   5   10.20    2.90
   5  -6   5   12.90    3.50
  -5  -6  -6    2.90    1.70
   5  -6   6    6.80    2.40
   5  -6   6   11.00    4.00
  -5  -6  -7    3.60    2.50
   5   6   7    5.80    3.40
   5  -6   7    8.50    3.80
  -5  -6  -8    3.80    2.70
  -5   7   8    7.90    3.40
  -5  -7   8    2.70    3.40
  -5   7   7    0.70    2.10
  -5  -7   7    4.40    3.10
  -5   7   7   -3.00    1.80
  -5   7   6    1.00    2.00
   5   7  -6    3.30    1.50
  -5  -7   6    5.40    3.00
  -5   7   6    0.80    2.20
  -5   7   5    2.90    2.10
   5   7  -5    0.50    1.30
  -5   7   5    3.20    1.70
  -5   7   5    1.30    1.70
  -5  -7   5    2.60    2.00
  -5   7   5    0.20    1.20
   5  -7  -5    2.00    1.30
   5   7  -4   24.20    4.10
   5  -7  -4   23.30    3.90
  -5   7   4   28.60    4.30
  -5   7   4   22.60    3.80
  -5  -7   4   22.30    3.20
  -5   7   4   21.80    4.30
   5   7  -3   26.40    4.10
  -5   7   3   31.70    4.50
   5  -7  -3   36.00    4.90
  -5  -7   3   30.60    3.50
   5   7  -2   73.09    6.70
   5  -7  -2   70.99    6.50
   5  -7  -1    3.40    1.40
   5   7  -1    4.80    2.00
   5  -7   0   13.10    2.40
   5  -7   0   14.50    3.20
   5   7   0   12.60    2.90
   5   7   1  145.79    5.80
   5   7   1  143.59    4.10
   5   7   1  140.29    9.10
   5  -7   1  137.29    9.60
   5  -7   1  144.19    8.20
   5   7   2   74.69    4.90
   5   7   2   76.09    6.50
   5  -7   2   72.39    7.30
   5  -7   2   80.09    6.80
   5   7   3  473.05   14.20
   5   7   3  481.95   16.30
   5  -7   3  494.65   19.60
   5  -7   3  461.55   17.50
   5  -7   4   -0.30    1.20
   5   7   4   -0.30    2.00
   5  -7   4    2.60    1.90
   5   7   4    2.10    1.40
   5  -7   4   -1.10    2.20
   5   7   4   -0.80    1.30
   5  -7   5    3.40    1.50
   5   7   5    9.40    3.50
   5  -7   5    8.00    2.50
   5   7   5    8.00    2.60
   5  -7   5    4.90    2.70
   5  -7   6    6.60    2.80
  -5  -7  -6    1.00    1.30
   5   7   6    8.00    3.90
  -5  -7  -7   -2.40    1.90
   5   7   7    6.10    4.20
   5  -7   7    4.80    3.00
  -5   8   8    2.30    2.50
  -5  -8   8   -0.60    3.30
  -5   8   7    7.50    3.00
  -5  -8   7    6.60    4.10
  -5   8   7    5.60    3.10
   5   8  -6    9.20    2.90
  -5   8   6    8.00    3.10
  -5   8   6    9.00    3.70
  -5  -8   6    5.80    3.00
  -5   8   6    7.40    3.00
  -5   8   5    7.20    3.00
   5  -8  -5    2.00    1.50
   5   8  -5    3.80    2.10
  -5   8   5    4.50    2.10
  -5   8   5   -2.40    2.20
  -5  -8   5    2.80    2.50
  -5   8   5    0.90    1.20
  -5  -8   4    0.30    0.80
   5   8  -4   -0.80    1.40
  -5   8   4    1.50    2.10
  -5   8   4    3.60    1.70
   5  -8  -4    0.60    1.60
  -5   8   4    0.30    1.40
  -5  -8   3    1.90    1.40
   5   8  -3    0.20    1.40
  -5   8   3    3.40    1.90
   5  -8  -3    0.30    1.00
   5   8  -2    0.60    1.20
   5  -8  -2    2.50    1.70
   5   8  -1   65.19    6.40
   5  -8  -1   72.79    6.90
   5   8   0  114.79    8.40
   5  -8   0  122.89    9.10
   5  -8   0  113.09    7.30
   5   8   1   32.80    4.50
   5   8   1   33.10    2.50
   5  -8   1   38.80    5.30
   5  -8   1   37.50    4.40
   5   8   2   93.29    5.70
   5   8   2   93.49    7.60
   5  -8   2   92.39    8.40
   5  -8   2   91.49    7.40
   5  -8   3   34.60    5.60
   5   8   3   36.40    4.20
   5   8   3   33.00    4.50
   5  -8   3   37.40    5.30
   5  -8   4   22.30    4.20
   5  -8   4   22.60    4.70
   5   8   4   23.70    5.00
   5  -8   4   20.00    3.40
   5   8   4   18.90    3.30
   5   8   4   19.70    3.70
   5  -8   5   12.50    3.80
   5   8   5   15.80    4.40
   5   8   5   16.10    3.50
   5  -8   5   21.20    4.60
   5  -8   6    6.60    3.10
   5   8   6    7.50    4.40
   5   8   6    5.30    2.90
   5  -8   7    3.80    2.70
  -5  -8  -7   -0.20    1.80
   5   8   7    0.80    3.50
  -5   9   8    2.00    1.90
  -5  -9   8    9.50    4.20
  -5   9   7    0.10    1.90
  -5  -9   7    7.20    3.50
   5   9  -6   22.60    4.20
  -5   9   6   13.60    4.00
  -5   9   6   24.20    5.20
  -5  -9   6   22.90    4.90
  -5   9   6   20.50    4.30
  -5   9   5    6.00    2.50
   5   9  -5   -0.80    1.30
  -5   9   5   -1.30    1.80
  -5   9   5   -2.00    2.00
  -5  -9   5    0.60    1.70
  -5   9   5    0.40    1.80
   5  -9  -5    1.20    1.60
  -5  -9   4    4.70    1.70
   5  -9  -4    1.80    1.60
   5   9  -4    1.30    1.30
  -5   9   4    6.10    2.70
  -5   9   4    4.60    2.20
  -5   9   4    2.30    1.80
  -5  -9   3    5.40    2.00
   5   9  -3    1.50    1.40
   5  -9  -3    3.80    2.40
  -5   9   3   -2.00    2.20
   5   9  -2   20.60    3.90
   5  -9  -2   21.10    3.80
   5   9  -1   71.89    7.10
   5  -9  -1   80.59    7.70
   5   9   0  145.89    9.60
   5  -9   0  162.08   10.80
   5  -9   0  162.08    9.20
   5   9   1   58.09    6.00
   5  -9   1   63.89    7.00
   5  -9   1   62.39    6.10
   5   9   2  143.69    7.50
   5   9   2  132.19    9.20
   5  -9   2  151.28   11.30
   5  -9   2  147.49    9.80
   5   9   3   58.89    5.30
   5   9   3   63.49    6.30
   5  -9   3   62.09    6.80
   5  -9   3   66.39    7.90
   5  -9   4   20.00    4.20
   5   9   4   21.80    4.70
   5   9   4   22.00    3.80
   5   9   4   24.50    4.10
   5  -9   4   22.30    5.00
   5  -9   5    3.10    2.30
   5   9   5    1.10    2.50
   5   9   5    1.00    1.60
   5  -9   6    8.00    3.60
   5   9   6    9.20    2.90
   5   9   6   14.80    5.30
   5  -9   7    1.40    2.00
   5   9   7    2.80    4.30
  -5  10   8   10.00    4.20
  -5  10   7   -0.70    2.40
  -5 -10   7    0.20    2.80
   5  10  -6    3.10    2.00
  -5  10   6   11.60    4.10
  -5  10   6    3.60    2.60
  -5 -10   6    6.20    3.10
  -5  10   6    9.80    3.40
  -5  10   5    3.40    2.00
   5  10  -5    2.40    1.40
  -5  10   5    3.50    2.80
  -5 -10   5    0.00    2.10
  -5  10   5   -0.20    1.40
   5 -10  -5    4.60    1.50
  -5 -10   4    6.20    2.30
   5  10  -4   -0.30    2.00
  -5  10   4    3.50    2.50
  -5  10   4    2.00    1.80
   5 -10  -4    3.00    1.70
  -5  10   4    1.20    2.10
  -5 -10   3    2.00    1.30
   5  10  -3   -1.20    1.60
   5 -10  -3    2.40    1.70
  -5  10   3    1.80    1.60
  -5  10   3    1.80    1.90
   5  10  -2   62.09    6.70
   5 -10  -2   71.49    7.40
   5 -10  -1    1.60    1.70
   5  10  -1    2.20    1.70
   5 -10   0   23.00    4.50
   5  10   0   23.50    4.30
   5  10   1   78.19    7.20
   5 -10   1   82.09    8.30
   5 -10   1   81.19    7.10
   5 -10   2    5.50    2.20
   5  10   2    3.00    1.60
   5 -10   2    4.10    3.10
   5  10   3  140.09    8.50
   5  10   3  148.69    9.90
   5 -10   3  146.99   10.90
   5 -10   3  159.28   12.10
   5 -10   4   36.70    5.70
   5 -10   4   48.20    7.00
   5  10   4   39.00    6.10
   5  10   4   34.60    4.90
   5  10   4   36.80    4.90
   5 -10   5    1.80    2.30
   5  10   5   -3.30    3.60
   5  10   5   -0.30    1.60
   5 -10   6    3.60    2.70
   5  10   6    0.80    2.00
   5  10   6    6.40    4.70
   5  10   7   -0.70    1.50
  -5  11   7    7.30    3.40
  -5  11   7    1.70    2.70
  -5 -11   7    6.30    3.80
   5  11  -6   28.90    5.30
  -5  11   6   21.90    4.80
  -5  11   6   27.80    6.30
  -5 -11   6   32.50    6.30
  -5  11   5    4.60    2.80
   5  11  -5   -0.30    1.90
  -5  11   5   -2.70    2.60
  -5  11   5   -1.10    1.20
  -5  11   4   22.40    4.90
  -5 -11   4   27.80    4.20
   5  11  -4   28.20    5.00
  -5  11   4   22.80    4.60
   5 -11  -4   25.70    4.60
  -5  11   4   27.40    4.20
   5 -11  -3    1.60    1.70
   5  11  -3   -1.40    1.70
  -5  11   3   -0.30    1.00
  -5  11   3    2.00    1.70
   5  11  -2   19.60    4.10
  -5  11   2   17.50    4.40
   5 -11  -2   26.40    4.70
   5  11  -1   34.90    5.10
   5 -11  -1   42.20    6.20
   5  11   0   41.40    5.50
   5 -11   0   49.70    6.60
   5 -11   1   19.80    3.60
   5  11   1   18.80    3.80
   5 -11   1   21.40    4.40
   5 -11   2   23.70    4.10
   5  11   2   20.80    4.10
   5 -11   2   19.30    4.40
   5 -11   3    3.70    1.90
   5 -11   3    1.90    2.40
   5  11   3    4.20    2.60
   5  11   3    2.20    1.80
   5  11   3    3.90    1.80
   5 -11   4    0.30    1.30
   5  11   4    1.30    2.40
   5  11   4    1.20    1.30
   5  11   4    1.50    1.90
   5 -11   5    1.80    2.70
   5  11   5    0.60    1.30
   5  11   5    0.70    3.40
   5 -11   6    1.30    2.50
   5  11   6    3.30    1.70
   5  11   6    4.80    4.40
  -5  12   7    2.20    3.20
  -5  12   7   -1.30    2.50
  -5 -12   7   -0.50    2.70
   5  12  -6   17.20    4.30
  -5  12   6   13.00    4.00
  -5  12   6   20.30    5.40
  -5 -12   6   16.50    4.80
  -5  12   5    1.50    2.10
   5  12  -5    0.00    1.60
  -5  12   5    1.70    2.90
  -5 -12   5    1.80    2.80
  -5  12   4   -0.60    1.60
  -5 -12   4    2.80    2.00
   5  12  -4    1.00    1.80
  -5  12   4    2.90    2.40
   5 -12  -4    3.10    2.70
   5  12  -3   -2.40    2.20
   5 -12  -3    1.70    1.30
  -5  12   3    1.50    2.70
   5  12  -2    8.90    2.80
   5 -12  -2   12.30    3.40
  -5  12   2    9.80    3.40
   5  12  -1    6.00    3.00
   5 -12  -1   13.90    3.60
  -5  12   1    6.00    2.20
   5  12   0   99.69    8.80
   5 -12   0  109.19    9.90
   5 -12   1    5.60    2.50
   5  12   1    4.00    2.30
   5 -12   1    3.70    2.60
   5 -12   2    3.10    2.20
   5  12   2   -1.00    1.60
   5 -12   2   -0.40    1.90
   5 -12   3   15.70    3.70
   5  12   3   10.40    2.70
   5  12   3    9.20    2.60
   5  12   3   14.10    3.10
   5 -12   3   10.10    4.00
   5  12   4    0.50    1.00
   5  12   4   -2.10    2.60
   5  12   4   -0.60    1.60
   5 -12   5   10.40    3.70
   5  12   5    9.10    3.20
   5  12   5    9.10    4.10
   5 -12   6   11.80    4.30
   5  12   6    1.30    1.80
   5  12   6    5.70    4.00
  -5  13   7    3.20    2.80
  -5 -13   7    4.90    3.20
   5  13  -6    2.40    1.90
  -5  13   6   -1.40    2.40
  -5 -13   6    0.30    2.70
  -5  13   5    0.80    2.10
   5  13  -5    0.50    2.00
  -5  13   5   -4.00    3.10
  -5 -13   5    1.70    2.10
  -5  13   4   38.60    6.30
   5  13  -4   58.99    7.10
  -5  13   4   49.10    6.90
  -5 -13   4   53.79    6.70
  -5 -13   4   44.50    6.10
  -5  13   3    1.00    2.60
   5  13  -3    1.90    1.80
   5 -13  -3    1.20    1.40
   5  13  -2    9.40    3.10
   5 -13  -2    8.00    2.80
  -5  13   2   11.20    3.90
   5  13  -1   64.99    7.50
  -5  13   1   59.79    7.90
   5 -13  -1   76.19    8.60
   5  13   0   10.10    3.10
   5 -13   0    6.60    2.80
  -5  13   0    7.10    3.30
   5 -13   1    2.40    1.80
   5 -13   1    4.40    2.70
   5  13   1    0.30    1.80
   5  13   2   53.59    6.90
   5 -13   2   57.49    7.90
   5 -13   2   56.19    7.00
   5 -13   3    1.50    2.20
   5  13   3    0.90    2.20
   5  13   3    1.70    1.50
   5  13   3    2.60    2.90
   5 -13   4    9.80    3.30
   5  13   4    7.30    2.60
   5  13   4    3.50    2.40
   5  13   4   10.40    4.20
   5 -13   5    6.70    3.20
   5  13   5    7.90    2.80
   5  13   5    8.70    3.50
   5 -13   6    3.70    2.30
   5  13   6    3.90    3.90
   5  14  -6   -1.50    2.10
  -5  14   6    0.10    3.30
  -5  14   6    0.30    2.30
  -5  14   5   -1.80    2.40
   5  14  -5   -2.00    1.50
  -5  14   5    3.90    3.10
  -5 -14   5    6.30    3.40
  -5  14   4    1.60    1.90
  -5 -14   4    3.10    2.00
   5  14  -4    1.50    1.70
  -5  14   4    0.70    2.00
  -5 -14   4    2.70    3.00
  -5  14   3   22.70    5.30
   5  14  -3   27.30    5.40
   5  14  -2   -0.40    1.80
  -5  14   2   -2.20    1.70
   5  14  -1   41.60    6.30
   5 -14  -1   41.30    6.60
  -5  14   1   33.30    6.10
   5  14   0    9.20    3.20
   5 -14   0    9.40    3.80
  -5  14   0    9.70    3.80
   5 -14   1   19.20    4.30
   5  14   1   11.70    3.80
  -5  14  -1   10.70    3.80
   5 -14   2    8.20    3.20
   5  14   2   14.40    4.10
   5  14   2    8.60    3.00
   5 -14   3    6.60    2.40
   5  14   3    3.70    2.60
   5  14   3    6.00    3.60
   5 -14   4    0.60    2.50
   5  14   4    4.80    3.00
   5  14   4    0.00    2.70
   5 -14   5   -2.00    1.40
  -5  14  -5    2.20    2.30
   5  15  -6    9.60    3.40
  -5  15   5   -0.50    2.80
   5  15  -5    5.60    2.60
  -5  15   5   -0.20    2.20
  -5  15   4    4.30    3.50
   5  15  -4   -0.60    1.60
  -5  15   3   17.10    4.50
   5  15  -3   19.40    4.80
  -5  15   2    0.80    3.10
   5  15  -2    6.20    3.10
   5  15  -1    6.00    2.80
  -5  15   1    9.20    3.80
   5  15   0   -1.80    2.30
  -5  15   0    2.80    3.00
   5 -15   1    2.30    1.60
   5  15   1   -0.10    2.30
  -5  15  -1    3.50    3.20
   5 -15   2    0.80    2.40
   5  15   2   -0.40    1.90
   5  15   2    2.50    2.70
  -5  15  -2    5.20    2.70
   5 -15   3    7.00    3.40
   5  15   3    3.70    2.50
   5  15   3    8.50    4.10
  -5  15  -3    3.80    2.40
   5 -15   4    0.90    2.40
  -5  15  -4   -2.40    2.50
   5 -15   5    6.80    3.20
   5  15   5   -0.10    3.70
   5  16  -6    1.00    2.30
  -5  16   5   13.50    4.70
   5  16  -5    8.50    3.20
  -5  16   5   14.90    4.80
  -5  16   4    7.50    3.60
   5  16  -4    0.90    2.10
   5  16  -3   73.79    9.00
  -5  16   3   76.59    9.60
  -5  16   2    1.50    2.10
   5  16  -2   -0.30    1.90
  -5  16   1   -2.00    2.50
   5  16  -1    2.80    2.90
   5  16   0    1.80    1.90
  -5  16   0    2.70    2.50
   5 -16   1    5.10    3.30
   5  16   1   -0.80    1.80
   5  16   1    5.10    3.20
  -5  16  -1   -1.60    1.80
   5 -16   2    1.40    2.00
   5  16   2   -1.00    2.20
   5  16   2    0.20    2.10
  -5  16  -2    4.70    2.80
   5 -16   3   12.30    4.00
   5  16   3   13.20    4.50
   5  16   3    5.40    2.50
  -5  16  -3    9.20    3.60
   5 -16   4   23.00    5.30
   5  16   4    9.70    3.90
  -5  16  -4   10.20    4.40
   5  16   5   -3.10    3.50
  -5  17   5    6.80    3.80
   5  17  -5   -0.90    2.00
  -5  17   4   10.40    4.70
   5  17  -4    4.00    3.00
  -5  17   3   -0.50    2.20
   5  17  -3   -1.20    2.20
  -5  17   2    2.60    4.10
   5  17  -2    2.50    3.00
  -5  17   1    6.20    3.30
   5  17  -1    2.90    3.00
  -5  17   0    1.50    2.60
   5  17   0    5.20    2.60
   5 -17   1   22.50    5.00
   5  17   1   25.10    5.40
  -5  17  -1   30.20    7.10
   5 -17   2   19.40    4.70
   5  17   2   16.60    4.30
   5  17   2   17.80    4.40
  -5  17  -2   13.50    4.40
   5 -17   3   14.50    4.10
   5  17   3   13.80    4.30
   5  17   3   13.40    3.80
  -5  17  -3    8.20    3.70
   5 -17   4   43.60    7.70
   5  17   4   51.09    8.10
  -5  17  -4   35.90    7.20
  -5  18   4   -0.50    2.60
   5  18  -4    6.40    3.30
  -5  18   3    5.00    3.40
   5  18  -3    4.40    4.00
  -5  18   2    2.80    2.30
   5  18  -2    7.10    3.10
  -5  18   1    4.50    4.00
   5  18  -1    7.80    3.70
  -5  18   0   13.70    4.60
   5  18   0   18.20    5.40
  -5  18  -1    3.30    2.90
   5 -18   1    0.60    1.80
   5  18   1    2.40    2.50
  -5  18  -2    2.10    2.80
   5 -18   2    1.60    2.20
   5  18   2    1.60    2.40
   5 -18   3   -1.20    1.30
   5  18   3   -1.80    2.60
  -5  18  -4   -0.70    2.10
  -5  19   2    6.40    3.70
   5  19  -2    8.80    3.40
  -5  19   1   30.40    6.70
   5  19  -1   29.90    6.90
  -5  19   0   10.50    4.40
   5  19   0   10.80    4.10
  -5  19  -1   18.20    5.50
   5 -19   1   11.40    3.70
   5  19   1   17.10    5.30
  -5  19  -2    8.50    4.10
   5 -19   2   14.90    4.60
   5  19   2    8.20    3.70
   5  19   3   27.40    5.90
   5 -20   1    6.60    3.80
  -6   0   8    6.90    3.90
   6   0  -7   -1.10    2.10
  -6   0   7   -0.10    2.50
   6   0  -6   -0.20    1.20
  -6   0   6    2.40    2.50
   6   0  -5    1.10    0.90
   6   0  -5    0.00    0.90
   6   0  -4   24.60    4.00
   6   0  -4   24.90    3.10
   6   0  -3    1.40    0.80
   6   0  -3   -0.40    1.20
   6   0  -2   28.60    1.90
   6   0  -2   32.00    4.40
   6   0  -1   -0.10    1.20
   6   0   0   28.20    4.10
   6   0   1    0.30    1.70
   6   0   2    1.50    1.70
   6   0   2    1.90    1.30
   6   0   3    0.40    1.70
   6   0   3    0.30    1.10
   6   0   4    1.80    2.00
   6   0   4    2.20    1.50
   6   0   5    0.30    1.60
   6   0   5    1.50    2.30
   6   0   5    0.10    1.60
   6   0   6    6.00    2.60
   6   0   7   -4.30    3.30
   6  -1  -8    3.80    2.90
  -6  -1   8   -1.30    2.80
   6   1  -7    6.10    2.50
   6  -1  -7    6.40    2.30
  -6  -1   7    8.20    3.90
  -6   1   7    6.40    2.80
   6   1  -6    1.70    1.60
   6  -1  -6    1.80    2.10
  -6  -1   6    8.20    3.30
  -6   1   6    1.90    2.30
   6   1  -5    1.00    1.60
   6  -1  -5    1.80    1.90
   6   1  -5    0.40    1.60
   6  -1  -4   -1.20    1.60
   6   1  -4    0.40    0.70
  -6   1   4    1.60    1.00
   6   1  -4    0.70    1.40
   6   1  -3  142.49    5.70
  -6   1   3  112.19    5.00
   6   1  -3  146.09    9.30
   6  -1  -3  147.59    9.50
   6  -1  -2   21.60    3.80
   6   1  -2   17.30    3.30
   6  -1  -1   -1.10    1.60
   6   1  -1    2.80    2.00
   6  -1   0   16.90    3.10
  -6   1   0   12.00    0.80
   6   1   0   21.30    4.00
   6  -1   1    6.70    2.50
   6  -1   1    3.70    1.40
   6   1   1    3.10    1.50
   6   1   2   23.70    4.20
   6  -1   2   17.70    3.50
   6  -1   2   21.60    3.20
   6   1   3   37.60    5.10
   6  -1   3   46.00    6.00
   6  -1   3   47.30    5.40
   6   1   4   31.50    4.70
   6  -1   4   37.90    5.20
   6  -1   4   32.30    5.00
   6  -1   5    6.50    2.80
   6   1   5    6.00    2.50
   6  -1   5    4.90    2.70
   6   1   5    3.70    2.20
   6  -1   5    5.80    2.70
   6   1   6   -2.20    2.70
   6  -1   6    1.20    1.80
   6  -1   6    3.50    1.80
   6   1   7    8.30    3.30
   6  -1   7   16.10    4.60
   6  -2  -8    4.60    2.70
  -6  -2   8    5.00    3.00
  -6   2   8   -1.60    2.30
   6   2  -7    5.20    2.90
   6  -2  -7   10.80    3.20
  -6  -2   7    6.00    3.20
  -6   2   7    6.20    3.00
   6   2  -6    4.90    2.10
  -6  -2   6   11.60    4.20
  -6   2   6    5.90    3.30
   6   2  -6    4.40    1.80
   6   2  -5    2.50    1.70
   6  -2  -5    1.30    1.00
  -6   2   5    2.00    1.60
   6   2  -5   -0.40    1.00
   6   2  -4   35.90    3.80
  -6   2   4   28.90    3.30
   6   2  -4   35.40    4.80
   6  -2  -4   34.80    4.70
   6  -2  -3    2.40    1.60
  -6   2   3    4.30    1.30
   6   2  -3    5.60    2.20
   6  -2  -2   30.30    4.40
  -6   2   2   23.30    2.10
  -6   2   2   27.80    2.90
   6   2  -2   28.40    4.20
   6  -2  -1    6.20    2.60
  -6   2   1    0.80    0.80
   6   2  -1    4.70    1.90
   6  -2   0   -1.20    1.30
   6   2   0   -0.30    1.70
   6  -2   0    0.90    0.40
   6  -2   1   -0.50    1.60
   6   2   1    0.80    1.70
   6  -2   1    0.50    0.90
   6  -2   2    3.10    1.70
   6  -2   2    1.10    1.10
   6   2   2    4.50    2.40
   6   2   3    7.20    3.00
   6  -2   3   10.20    3.00
   6  -2   3    8.80    2.50
   6   2   4   64.79    6.70
   6  -2   4   62.39    6.90
   6  -2   4   61.59    6.80
  -6  -2  -5   10.80    3.00
   6  -2   5    9.10    3.00
   6   2   5   10.00    3.50
   6  -2   5    8.30    2.80
   6   2   5    8.60    3.00
   6  -2   5    7.50    3.00
  -6  -2  -6    0.00    1.50
   6   2   6   -0.80    1.90
   6  -2   6   -2.70    1.90
   6  -2   6    1.50    2.00
   6   2   7   -5.70    4.00
   6  -2   7   -1.70    2.60
   6  -2   7   -1.80    1.60
   6  -2   8    9.90    3.60
   6  -3  -8    2.20    1.70
  -6  -3   8    0.00    3.10
  -6   3   8   -0.30    2.30
  -6  -3   7    3.70    3.50
  -6   3   7    0.30    2.40
   6   3  -6   12.60    3.30
  -6   3   6   11.80    3.00
  -6  -3   6   20.50    4.80
  -6   3   6   14.80    4.10
   6   3  -6   18.20    3.70
   6   3  -5    4.60    2.00
  -6   3   5    5.80    2.30
   6  -3  -5    2.50    1.20
  -6   3   5   -0.40    1.70
   6   3  -5    4.60    2.20
   6  -3  -4    4.50    1.70
  -6   3   4    3.20    1.60
   6   3  -4    6.60    2.30
  -6   3   3   45.10    3.70
  -6   3   3   48.10    4.70
   6   3  -3   42.80    5.20
   6  -3  -3   50.89    5.50
  -6   3   2   38.90    3.60
   6   3  -2   36.70    4.80
   6  -3  -2   39.40    5.00
   6  -3  -1   39.50    5.20
  -6   3   1   40.00    3.40
   6   3  -1   33.30    4.60
   6  -3  -1   33.00    1.60
   6   3   0  305.27   13.50
   6  -3   0  301.37   13.90
   6  -3   0  311.17    8.40
   6  -3   1    0.90    1.50
   6   3   1    2.00    1.60
   6  -3   1   -0.50    0.80
   6  -3   2    1.60    1.50
   6   3   2    5.40    2.00
   6  -3   2    6.70    1.90
   6   3   3    1.00    1.50
   6  -3   3    3.60    2.50
   6  -3   3    2.00    1.50
   6  -3   4    0.20    2.00
  -6  -3  -4    0.80    1.10
   6   3   4   -2.50    2.20
   6  -3   4   -2.50    1.70
  -6  -3  -5    0.90    1.30
   6   3   5    2.90    2.20
   6  -3   5    0.10    1.40
   6   3   5    3.30    2.20
   6  -3   5   -1.10    1.70
   6  -3   5    0.30    1.70
   6   3   6   -0.90    3.00
   6  -3   6    2.80    1.90
   6  -3   6   -0.20    1.30
   6  -3   7    2.60    2.40
   6   3   7    0.10    2.60
   6  -3   7    4.80    2.30
   6  -4  -8   -4.00    2.30
  -6  -4   8    1.60    2.40
  -6   4   8    0.30    2.90
  -6   4   7    6.30    2.90
  -6  -4   7    3.10    3.50
  -6   4   6    9.20    2.80
  -6  -4   6   19.80    5.00
  -6   4   6   16.50    4.60
   6   4  -6    9.20    2.80
  -6   4   5    1.10    1.10
   6   4  -5    3.10    2.20
  -6   4   5    3.00    2.30
   6  -4  -5    2.00    1.50
  -6   4   4   23.20    3.30
   6  -4  -4   26.50    4.20
   6   4  -4   26.30    4.30
  -6   4   3   39.10    3.80
   6  -4  -3   36.70    5.00
   6   4  -3   40.20    5.20
  -6   4   3   32.80    4.00
   6  -4  -2   22.90    4.00
  -6   4   2   22.90    3.20
   6   4  -2   17.10    3.50
   6  -4  -1   29.60    4.50
   6   4  -1   31.90    4.50
   6  -4  -1   30.50    2.10
   6   4   0  173.68   10.40
   6  -4   0  171.28   10.60
   6  -4   0  167.48    6.70
   6  -4   1   50.89    5.90
   6   4   1   49.40    5.50
   6  -4   1   44.90    4.20
   6  -4   2   43.00    5.70
   6   4   2   36.80    5.20
   6  -4   2   38.90    4.60
   6  -4   3    2.10    1.60
   6  -4   3    4.40    2.50
  -6  -4  -3    3.20    1.30
   6   4   3    4.10    2.30
   6   4   4   38.20    5.20
  -6  -4  -4   26.60    3.70
   6  -4   4   38.60    5.90
   6  -4   4   36.80    5.50
   6   4   5   -1.10    2.00
   6  -4   5    1.80    1.90
   6  -4   5    1.80    2.40
   6  -4   5    0.20    1.80
   6   4   6   -2.20    3.00
   6  -4   6    2.60    2.10
   6  -4   6    1.20    1.30
   6   4   7    3.60    3.60
   6  -4   7    1.50    2.30
   6  -4   7    7.50    3.60
  -6   5   8    9.10    3.80
  -6   5   7    1.70    1.70
  -6  -5   7    5.70    3.70
  -6   5   7    5.10    3.60
  -6   5   6   -0.40    1.60
   6   5  -6    0.70    1.30
  -6  -5   6    4.00    3.10
  -6   5   6    0.00    1.60
  -6   5   5   13.30    3.10
   6   5  -5   14.80    3.60
  -6   5   5   14.60    3.70
   6  -5  -5    7.10    2.10
  -6   5   5   11.20    3.20
  -6   5   4   40.60    4.50
  -6   5   4   40.90    5.10
   6   5  -4   43.90    5.70
   6  -5  -4   47.40    5.60
   6   5  -3    6.70    2.20
  -6   5   3    8.20    2.20
   6  -5  -3    7.80    2.90
   6   5  -2   29.50    4.50
  -6   5   2   22.40    3.20
   6  -5  -2   21.70    4.00
   6  -5  -1    8.50    1.50
   6   5  -1    6.60    2.60
   6  -5  -1    8.70    2.60
   6   5   0  129.69    9.30
   6  -5   0  125.39    9.40
   6  -5   0  127.99    6.40
   6  -5   1    1.80    1.00
   6   5   1    1.30    1.90
   6  -5   1    1.50    1.50
   6   5   2   23.40    4.00
   6  -5   2   27.70    3.90
   6  -5   2   28.00    4.70
   6   5   3   69.69    6.90
   6  -5   3   76.99    7.80
   6  -5   3   74.59    7.10
   6  -5   4    5.00    1.80
   6  -5   4    7.00    2.80
   6   5   4    4.90    2.60
   6  -5   5   47.90    7.00
   6   5   5   50.99    7.50
   6  -5   5   46.40    6.10
   6  -5   5   45.90    6.60
   6   5   6   23.60    5.50
   6  -5   6   23.70    4.90
   6  -5   6   22.40    5.10
   6   5   7    4.70    3.60
   6  -5   7    9.70    3.50
  -6   6   8    3.00    2.10
  -6   6   7    2.90    2.70
  -6  -6   7    3.00    2.20
  -6   6   7   -2.50    2.50
  -6   6   6    1.70    1.80
   6   6  -6   -2.10    2.00
  -6  -6   6    1.10    2.70
  -6   6   6   -1.90    1.50
   6  -6  -5    0.30    1.40
  -6   6   5    2.50    1.60
   6   6  -5    0.10    1.40
  -6   6   5    1.60    2.20
  -6   6   5    0.20    1.40
  -6   6   5    4.70    2.60
   6  -6  -4   18.50    3.80
  -6   6   4   17.00    3.00
   6   6  -4   18.40    4.00
  -6   6   4   22.60    3.90
   6   6  -3   22.30    4.00
  -6   6   3   21.60    3.60
   6  -6  -3   24.70    4.40
   6   6  -2    1.30    1.30
   6  -6  -2    0.40    1.80
   6   6  -1   30.70    4.60
   6  -6  -1   37.50    5.10
   6  -6  -1   36.90    3.30
   6  -6   0   13.00    2.30
   6   6   0   14.20    3.30
   6  -6   0   22.40    4.00
   6   6   1  364.96   15.70
   6  -6   1  379.06   16.70
   6  -6   1  388.16   13.20
   6  -6   2   48.70    6.30
   6   6   2   44.10    5.60
   6  -6   2   49.50    5.20
   6  -6   3   24.90    4.20
   6  -6   3   30.80    5.70
   6   6   3   25.80    4.20
   6  -6   4    3.70    2.00
   6  -6   4   -0.80    2.50
   6   6   4    2.30    2.40
   6  -6   5   -0.90    1.20
   6   6   5    5.60    4.30
   6  -6   5    2.30    2.10
   6  -6   5    5.10    2.80
   6   6   6    5.00    4.20
   6  -6   6    4.10    2.70
   6   6   7   15.90    5.40
   6  -6   7    2.40    2.10
  -6   7   8    8.80    3.90
  -6   7   7    4.40    3.00
  -6  -7   7   -0.60    2.40
  -6   7   7    0.60    1.80
  -6   7   6    7.80    2.90
   6   7  -6    9.90    3.10
  -6   7   6    8.80    3.40
  -6   7   5    3.70    2.00
   6  -7  -5    5.30    2.70
   6   7  -5    6.10    2.30
  -6   7   5    6.30    2.70
  -6   7   5    6.50    2.80
  -6   7   5    3.00    2.30
   6  -7  -4    6.70    2.50
   6   7  -4    8.80    3.00
  -6   7   4    9.70    3.20
   6  -7  -3   28.70    4.60
   6   7  -3   26.80    4.60
  -6   7   3   28.70    4.30
   6  -7  -2    1.50    1.60
   6   7  -2    0.90    1.30
   6  -7  -1    5.70    2.20
   6  -7  -1    7.70    1.70
   6   7  -1    9.10    3.10
   6  -7   0   21.20    2.90
   6  -7   0   23.70    4.30
   6   7   0   27.70    4.80
   6   7   1  335.57   15.30
   6  -7   1  347.67   16.40
   6  -7   1  367.06   13.60
   6   7   2   85.39    8.00
   6  -7   2   91.69    8.60
   6  -7   2  101.59    7.80
   6  -7   3    9.40    2.80
   6  -7   3    9.20    3.10
   6   7   3    7.50    2.80
   6  -7   4   19.90    4.10
   6  -7   4   21.20    4.90
   6   7   4   18.50    4.00
   6  -7   5    2.30    2.20
   6   7   5    0.90    2.80
   6  -7   5   -2.40    2.00
   6   7   6   30.40    6.50
   6  -7   6   23.20    5.50
   6  -7   7   17.90    5.40
  -6   8   7    0.30    2.20
  -6  -8   7   -1.20    2.60
  -6   8   7    2.20    2.40
  -6   8   6    3.30    2.30
   6   8  -6   -1.00    1.70
  -6  -8   6    1.50    2.10
  -6   8   6    1.60    1.60
  -6   8   5    3.70    2.50
   6   8  -5   -0.20    1.30
  -6   8   5   -0.10    2.30
  -6   8   5    1.70    2.00
   6  -8  -5   -0.20    1.20
  -6   8   5    3.60    2.40
   6   8  -4    0.70    1.40
   6  -8  -4   -1.30    2.10
  -6   8   4   -0.70    1.60
  -6   8   4    0.80    1.20
  -6   8   4   -0.60    1.80
   6  -8  -3    0.20    1.60
   6   8  -3    2.40    2.10
  -6   8   3    3.10    1.90
   6  -8  -2    0.60    1.60
   6   8  -2   -0.30    1.60
   6  -8  -1   31.30    4.90
   6   8  -1   31.30    4.90
   6  -8  -1   35.40    4.00
   6  -8   0   17.00    3.00
   6  -8   0   16.10    3.50
   6   8   0   12.60    3.00
   6  -8   1    1.30    1.30
   6   8   1    0.90    1.50
   6  -8   1   -0.20    1.70
   6  -8   2   11.20    2.80
   6   8   2    9.70    3.80
   6  -8   2   13.60    4.00
   6   8   3   39.50    5.40
   6  -8   3   43.10    5.80
   6  -8   3   48.40    6.70
   6  -8   4    6.00    2.70
   6   8   4   10.00    4.90
   6  -8   4    4.50    2.40
   6   8   4    4.40    2.60
   6  -8   5    0.60    1.20
   6   8   5    5.60    3.50
   6  -8   5    3.90    2.90
   6  -8   6    5.60    2.80
   6   8   6    9.70    5.40
  -6   9   7   -1.40    2.40
  -6  -9   7   -4.80    3.40
  -6   9   7    0.30    2.30
  -6   9   6    4.10    2.60
   6   9  -6    6.70    2.70
  -6   9   6    3.70    2.90
  -6  -9   6   10.40    4.30
  -6   9   6    4.70    3.10
  -6   9   5    0.60    2.40
   6  -9  -5   -2.60    1.70
  -6   9   5    0.30    1.50
   6   9  -5   -0.80    1.50
  -6   9   5   -0.40    2.30
  -6  -9   5    0.80    2.00
  -6   9   5   -0.70    1.30
   6   9  -4   31.10    5.20
  -6   9   4   38.40    5.60
  -6   9   4   30.60    4.70
   6  -9  -4   33.30    5.20
  -6   9   4   27.10    5.70
   6   9  -3   20.40    4.10
  -6   9   3   21.80    4.10
   6  -9  -3   17.60    3.90
   6   9  -2  164.08   11.30
   6  -9  -2  165.48   11.50
   6  -9  -1   18.10    3.10
   6   9  -1   17.20    3.90
   6  -9  -1   15.50    3.70
   6   9   0  143.59   10.60
   6  -9   0  168.78   12.00
   6  -9   0  168.78    9.60
   6   9   1  149.39   10.60
   6  -9   1  166.68   12.10
   6  -9   1  164.48    9.90
   6  -9   2    4.20    2.40
   6   9   2    1.70    1.80
   6  -9   2    3.50    3.00
   6  -9   3   16.30    3.80
   6  -9   3   12.00    4.10
   6   9   3   12.60    3.50
   6  -9   4    3.70    2.60
   6  -9   4   15.00    4.20
   6   9   4    8.70    4.00
   6   9   4    8.50    2.70
   6  -9   5   -0.90    1.60
   6  -9   5    2.70    2.90
   6   9   5    2.60    3.20
   6  -9   6    7.40    3.20
   6   9   6   14.50    5.80
  -6  10   7    3.90    3.20
  -6 -10   7    4.00    3.20
  -6  10   6    6.70    3.20
   6  10  -6   12.40    3.70
  -6  10   6   10.20    3.80
  -6 -10   6    8.90    4.00
  -6  10   6    9.40    3.30
  -6  10   5    0.80    1.90
  -6  10   5   -0.20    1.90
   6  10  -5   -1.10    2.20
  -6  10   5    0.90    2.50
  -6 -10   5   -1.00    2.10
   6 -10  -5    0.40    1.40
  -6  10   5    1.90    2.30
   6 -10  -4   19.90    4.10
   6  10  -4   11.40    3.00
  -6  10   4    5.00    3.00
  -6  10   4    8.70    2.70
  -6  10   4   11.60    3.60
   6 -10  -3   51.99    6.70
   6  10  -3   34.80    5.50
  -6  10   3   37.60    6.80
   6  10  -2   14.20    3.60
   6 -10  -2   17.00    4.00
   6  10  -1   48.60    6.30
   6 -10  -1   55.59    7.10
   6  10   0   43.20    6.10
   6 -10   0   44.50    6.30
   6 -10   0   48.90    5.40
   6 -10   1   10.00    3.40
   6 -10   1    9.10    2.70
   6  10   1   10.20    3.80
   6 -10   2   26.30    4.40
   6 -10   2   26.00    5.50
   6  10   2   24.60    4.70
   6 -10   3    3.30    2.10
   6  10   3   -0.50    1.60
   6 -10   3    0.30    1.90
   6 -10   4   14.70    3.50
   6  10   4   14.10    4.50
   6  10   4    9.60    3.10
   6 -10   4   11.40    3.90
   6 -10   5    0.50    2.00
   6  10   5    5.60    3.50
   6 -10   6   11.40    4.20
   6  10   6   20.20    6.00
  -6  11   7   -1.50    2.10
  -6 -11   7    7.90    3.90
  -6  11   6    6.10    3.40
   6  11  -6    9.40    3.40
  -6  11   6   10.90    4.40
  -6 -11   6   14.40    4.70
  -6  11   5   -1.20    1.70
   6  11  -5    0.70    1.40
  -6  11   5   -0.40    2.10
  -6 -11   5    3.40    3.40
   6  11  -4    7.30    2.60
  -6  11   4    2.30    2.30
   6 -11  -4    2.30    1.30
  -6  11   4    7.90    4.10
   6  11  -3   17.60    3.90
   6 -11  -3   25.40    5.00
  -6  11   3   18.30    3.70
  -6  11   3   11.20    4.00
   6 -11  -2    1.80    2.70
   6  11  -2    3.60    2.10
   6 -11  -1   43.00    6.30
   6  11  -1   33.10    5.30
   6 -11   0   -0.60    0.90
   6 -11   0   -0.50    1.60
   6  11   0    1.30    1.90
   6 -11   1   13.60    3.30
   6  11   1   13.70    3.80
   6 -11   1   14.50    4.20
   6 -11   2   13.40    3.60
   6  11   2   10.10    3.10
   6 -11   2   19.00    5.00
   6 -11   3   -2.80    1.70
   6  11   3    0.10    1.90
   6 -11   4    4.20    3.10
   6  11   4   10.40    4.10
   6  11   4    3.80    3.00
   6 -11   4    2.00    2.20
   6 -11   5    2.70    2.10
   6  11   5    6.60    4.60
   6 -11   6    1.20    2.00
  -6  12   7   -1.00    2.10
  -6 -12   7    0.20    3.10
   6  12  -6    4.90    2.80
  -6  12   6   -1.30    2.40
  -6  12   6   -0.60    2.10
  -6 -12   6    7.40    3.90
  -6  12   5   -2.00    2.50
   6  12  -5   -1.80    1.90
  -6  12   5    3.30    2.80
  -6 -12   5    1.60    2.30
  -6  12   4    9.30    3.90
   6  12  -4    3.50    2.70
   6 -12  -4    5.60    2.60
  -6  12   4    9.30    3.70
   6 -12  -3   10.30    3.30
   6  12  -3    5.40    2.50
  -6  12   3    9.10    3.60
   6  12  -2   91.49    9.20
  -6  12   2   75.69    9.30
   6 -12  -2   98.69    9.80
   6  12  -1   12.40    3.70
   6 -12  -1   12.60    3.70
   6 -12   0   33.10    5.00
   6  12   0   30.90    5.50
   6 -12   0   33.10    6.00
   6 -12   1   13.20    3.20
   6  12   1    8.20    3.00
   6 -12   1    7.30    2.50
   6 -12   2    4.20    2.30
   6  12   2    1.20    1.80
   6 -12   2    1.00    2.00
   6 -12   3    0.50    1.30
   6 -12   3   -0.60    2.30
   6  12   3    2.90    2.20
   6 -12   4    4.80    2.70
   6  12   4    0.00    2.90
   6  12   4   -1.40    1.60
   6 -12   5    4.00    3.20
   6  12   5   13.80    5.50
   6  13  -6   12.20    4.30
  -6  13   6    6.00    3.50
  -6  13   6   12.30    4.20
  -6 -13   6   15.70    5.00
  -6  13   5    3.70    2.90
   6  13  -5    9.10    3.20
  -6  13   5    2.20    2.80
  -6 -13   5    3.70    2.70
  -6  13   4    3.60    2.90
   6 -13  -4    3.30    1.90
   6  13  -4    3.50    2.10
  -6  13   4    4.60    2.90
   6  13  -3   26.70    5.40
   6 -13  -3   29.50    5.60
  -6  13   3   22.80    5.60
   6  13  -2    4.40    3.20
   6 -13  -2   -0.70    2.30
  -6  13   2    0.70    2.20
   6 -13  -1   26.40    5.40
   6  13  -1   27.70    5.60
  -6  13   1   18.50    5.30
   6  13   0   36.30    6.10
   6 -13   0   41.40    6.80
   6 -13   0   44.70    6.00
   6 -13   1    8.50    3.00
   6  13   1    4.40    3.00
   6 -13   1    6.30    2.80
   6 -13   2    3.90    2.20
   6 -13   2    5.50    2.90
   6  13   2    6.70    3.40
   6 -13   3   25.30    4.90
   6  13   3   28.10    5.60
   6  13   3   21.70    5.00
   6 -13   3   30.70    6.60
   6 -13   4   18.00    4.70
   6  13   4   17.00    5.20
   6 -13   5   11.80    4.00
   6  13   5    9.00    4.80
   6  14  -6    1.60    1.70
  -6  14   6    1.00    2.00
  -6  14   5    1.20    2.80
   6  14  -5    4.20    2.50
  -6 -14   5    5.80    3.30
  -6  14   4    4.30    2.90
   6  14  -4   -3.20    2.70
  -6  14   4    0.80    2.40
   6  14  -3    1.10    2.20
   6 -14  -3    4.00    2.80
  -6  14   3    1.20    2.30
   6  14  -2    1.70    3.00
   6 -14  -2    1.70    1.80
  -6  14   2   -0.30    2.10
   6 -14  -1    1.10    2.20
   6  14  -1   -0.90    2.00
  -6  14   1    2.90    2.60
   6 -14   0    5.10    2.20
   6 -14   0    3.80    3.10
   6  14   0    2.60    2.00
  -6  14   0    2.60    2.80
   6 -14   1   -1.30    2.30
   6 -14   1    2.80    1.50
   6  14   1    1.10    2.80
   6 -14   2    0.50    2.20
   6 -14   2    4.10    3.00
   6  14   2    2.40    3.10
   6 -14   3    8.70    3.50
   6  14   3    9.50    4.20
   6  14   3    9.20    3.20
   6 -14   4    5.50    3.30
   6  14   4    0.60    2.70
   6 -14   5   22.30    5.40
   6  14   5   18.70    5.90
  -6  15   5    3.90    3.10
   6  15  -5    0.20    2.40
  -6  15   5    3.10    3.20
  -6  15   4    2.20    3.20
   6  15  -4    4.20    4.40
  -6  15   4    1.90    2.90
  -6  15   3   16.80    5.60
   6  15  -3   15.30    4.40
   6  15  -2   14.50    4.60
  -6  15   2    7.60    3.70
   6 -15  -1    6.40    2.70
   6  15  -1    5.00    2.60
  -6  15   1    5.50    3.70
   6 -15   0    2.30    2.80
   6 -15   0    5.10    3.30
   6  15   0    8.40    4.10
  -6  15   0    4.80    3.00
   6 -15   1   31.70    5.60
   6  15   1   23.80    5.30
  -6  15  -1   15.20    4.70
   6 -15   2    3.80    2.30
   6  15   2    6.80    3.00
   6  15   2    4.90    3.70
  -6  15  -2    7.10    3.70
   6 -15   3    1.90    1.90
   6  15   3    2.60    2.60
   6  15   3    4.40    3.90
   6 -15   4    3.90    2.50
  -6  15  -4    2.00    1.90
  -6  16   5   25.00    6.10
  -6  16   4    2.50    2.30
   6  16  -4    5.90    3.30
  -6  16   4    1.30    3.20
  -6  16   3   -3.20    2.50
   6  16  -3   -0.20    2.20
  -6  16   2    7.20    4.20
   6  16  -2    2.80    2.70
   6  16  -1   19.50    5.20
  -6  16   1   12.50    4.70
   6 -16   0    4.90    3.10
   6  16   0    0.10    2.10
  -6  16   0    1.00    2.50
   6 -16   1    1.70    2.60
   6  16   1    1.00    2.30
   6 -16   2   -2.70    2.00
   6  16   2   -1.80    2.10
   6  16   2    2.30    2.70
  -6  16  -2    5.10    3.60
   6 -16   3    8.80    3.90
   6  16   3   12.90    3.80
   6  16   3   13.80    4.10
  -6  16  -3    6.10    3.70
   6 -16   4    3.50    2.90
   6  16   4    6.30    4.40
  -6  16  -4   -0.30    2.10
  -6  17   4    1.40    2.80
  -6  17   3    6.70    4.80
   6  17  -3    9.10    3.50
  -6  17   2   11.80    5.20
   6  17  -2    4.70    4.00
   6  17  -1    9.60    4.10
  -6  17   1   10.70    4.00
   6 -17   0    6.90    3.60
   6  17   0    8.20    4.10
  -6  17   0    9.20    3.80
   6 -17   1    6.80    2.70
   6  17   1    5.70    3.00
  -6  17  -1    6.50    3.30
   6 -17   2   29.00    5.90
   6  17   2   26.90    5.80
   6  17   2   33.10    6.70
  -6  17  -2   18.90    5.10
   6 -17   3   16.50    4.90
   6  17   3   16.20    4.80
   6  17   3   17.30    5.10
  -6  17  -3   10.50    4.70
  -6  18   2   12.00    4.90
   6  18  -2   17.40    5.50
  -6  18   1    2.40    2.70
   6  18  -1    4.00    3.50
  -6  18   0   14.80    5.20
   6 -18   0   15.30    4.50
   6  18   0   17.80    4.70
   6 -18   1   26.90    5.60
   6  18   1   25.70    5.70
  -6  18  -1   25.50    7.50
   6 -18   2   21.70    5.30
   6  18   2   16.80    5.00
   6  18   3    1.00    2.70
   6 -19   0   21.30    5.20
   6 -19   1   18.80    5.00
  -7   0   7    6.90    3.20
  -7   0   6    9.60    3.60
   7   0  -5    1.90    1.90
   7   0  -4    0.70    1.20
   7   0  -3    0.40    1.70
   7   0  -2   19.00    4.00
   7   0  -1   -1.00    1.90
   7   0   0   30.20    5.00
   7   0   1    1.10    1.90
   7   0   2   32.40    5.20
   7   0   3    1.10    2.00
   7   0   4   -2.90    2.30
   7   0   5    1.00    2.20
   7   0   5    3.70    2.50
   7   0   6    5.10    3.40
   7   0   7   -1.60    2.50
  -7  -1   7    1.90    2.60
  -7   1   7    0.00    2.00
  -7  -1   6   -2.20    1.90
  -7   1   6    4.80    3.40
   7   1  -5   48.30    6.20
   7  -1  -5   52.39    6.40
   7  -1  -4   18.80    3.90
   7   1  -4   14.30    3.50
   7  -1  -3    0.90    1.70
   7   1  -3   -0.30    1.80
   7  -1  -2    1.40    1.90
   7   1  -2    4.40    2.20
   7  -1  -1    2.80    1.40
   7   1  -1    0.40    1.60
   7  -1   0    4.30    2.30
   7   1   0    2.10    1.70
   7   1   1   40.60    6.00
   7  -1   1   48.60    6.10
   7   1   2   -2.20    2.40
   7  -1   2    2.40    2.30
   7   1   3    1.20    1.90
   7  -1   3    2.20    1.80
   7  -1   3    1.90    1.50
   7   1   4    6.90    2.80
   7  -1   4    2.40    1.80
   7  -1   4    3.70    2.10
   7  -1   5   12.20    4.00
   7  -1   5   15.40    4.40
   7   1   5   15.30    4.60
   7   1   5   11.30    3.80
   7   1   6    0.90    2.90
   7  -1   6   -1.70    2.50
   7   1   7    2.40    2.50
   7  -1   7   -3.00    3.30
  -7  -2   7    3.40    2.20
  -7   2   7    0.70    3.00
  -7  -2   6    3.40    2.70
  -7   2   6    7.30    3.50
   7  -2  -5   16.10    3.90
   7   2  -5   22.70    4.40
   7  -2  -4    9.50    2.70
   7   2  -4    9.70    3.00
   7  -2  -3    2.30    1.50
   7   2  -3    4.70    2.30
   7   2  -2  109.99    9.10
   7  -2  -2  105.69    8.90
   7  -2  -1   -0.40    1.50
   7   2  -1    1.30    2.00
   7  -2   0    5.90    2.20
   7   2   0    7.00    2.60
   7  -2   1    4.00    2.40
   7  -2   1    3.50    1.30
   7   2   1    0.60    1.90
   7   2   2   35.80    5.20
   7  -2   2   50.69    6.60
   7  -2   2   37.60    4.40
   7   2   3   27.90    4.90
   7  -2   3   28.80    5.30
   7  -2   3   26.90    4.30
   7   2   4    1.80    2.30
   7  -2   4   -0.40    2.20
   7  -2   4   -1.30    1.40
   7  -2   5    6.40    3.30
   7   2   5    6.50    3.40
   7  -2   5    0.60    2.60
   7  -2   5    1.00    1.20
   7   2   6   35.80    6.80
   7  -2   6   28.70    5.60
   7  -2   6   28.70    6.00
   7  -2   7    5.30    3.30
  -7  -3   7    4.10    3.60
  -7   3   7    6.90    3.50
  -7  -3   6    3.60    3.50
   7   3  -6    1.70    1.80
   7  -3  -5   -1.70    1.90
   7   3  -5   -1.00    1.60
   7  -3  -4   29.90    4.90
   7   3  -4   26.70    4.60
   7  -3  -3   12.00    3.10
   7   3  -3   11.70    3.40
  -7   3   2  174.08    7.70
   7   3  -2  179.68   11.60
   7  -3  -2  188.28   11.90
   7  -3  -1    2.70    2.40
  -7   3   1    2.80    1.20
   7   3  -1    2.70    1.50
   7  -3   0    0.20    1.50
   7   3   0    0.00    1.60
   7  -3   1    0.00    2.10
   7   3   1    0.80    1.80
   7  -3   1    0.90    0.80
   7   3   2   68.19    7.40
   7  -3   2   90.09    8.80
   7  -3   2   82.79    6.50
   7   3   3   -3.10    2.90
   7  -3   3   -2.50    2.60
   7  -3   3    0.60    1.80
   7  -3   4    9.10    3.50
   7   3   4    7.80    3.20
   7  -3   4    8.70    3.40
   7   3   5    2.40    2.00
   7  -3   5    3.40    2.00
   7  -3   5    0.80    2.50
   7  -3   5    4.50    2.40
   7   3   6    8.80    4.40
   7  -3   6    6.50    2.50
   7  -3   6   10.70    3.50
   7  -3   7   -2.90    2.90
  -7  -4   7    2.40    3.30
  -7   4   7   -0.20    2.10
  -7  -4   6    1.10    2.70
  -7   4   6    1.90    2.10
   7   4  -6   -0.30    1.60
   7  -4  -5   21.40    4.40
   7   4  -5   20.50    4.50
   7  -4  -4    6.00    2.40
   7   4  -4    4.40    2.00
   7  -4  -3    4.10    2.30
  -7   4   3    4.70    1.90
   7   4  -3    5.50    2.60
   7  -4  -2   20.40    4.40
  -7   4   2   16.20    2.80
   7   4  -2   17.00    4.00
   7  -4  -1   -2.10    1.80
  -7   4   1    1.10    1.30
   7   4  -1    1.10    1.70
   7  -4   0    7.40    2.70
   7   4   0   11.90    3.30
   7  -4   1   21.90    4.70
   7   4   1   15.60    3.60
   7  -4   1   17.60    2.80
   7  -4   2   16.10    3.90
   7   4   2   12.50    3.70
   7  -4   2   14.50    2.90
   7   4   3   26.20    5.00
   7  -4   3   26.30    5.00
   7  -4   3   27.10    4.50
   7   4   4   12.90    3.50
   7  -4   4   21.70    5.20
   7  -4   4   18.50    4.00
   7   4   5   30.60    6.50
   7  -4   5   26.30    5.30
   7  -4   5   28.50    5.80
   7  -4   5   26.30    5.30
   7   4   6    2.90    3.60
   7  -4   6    4.50    3.30
   7  -4   6    0.80    1.70
  -7  -5   7   -2.10    2.30
  -7   5   7   -2.10    2.80
  -7  -5   6   34.60    6.50
  -7   5   6   40.00    6.40
   7   5  -6   24.90    5.10
  -7   5   5    0.30    1.70
   7   5  -5   -1.80    1.60
   7  -5  -5   -1.10    1.20
   7   5  -4    2.20    2.10
   7  -5  -4    0.30    1.60
  -7   5   3    4.00    1.80
   7   5  -3    0.00    1.70
   7  -5  -3    1.40    1.70
  -7   5   2    3.20    1.80
   7   5  -2    3.70    2.40
   7  -5  -2    3.40    2.60
   7   5  -1  118.29    9.60
   7  -5  -1  144.49   10.90
   7   5   0   30.90    5.30
   7  -5   0   38.90    5.80
   7  -5   1   15.50    2.70
   7   5   1   14.40    3.40
   7  -5   1   20.50    4.20
   7  -5   2    9.40    2.50
   7   5   2    8.40    3.00
   7  -5   2   11.00    3.90
   7  -5   3   25.90    5.20
   7   5   3   17.00    4.20
   7  -5   3   22.70    4.10
   7   5   4   32.40    5.50
   7  -5   4   27.70    5.60
   7  -5   4   26.20    4.80
   7   5   5    4.80    4.00
   7  -5   5   -0.20    1.80
   7  -5   5   -0.20    2.30
   7  -5   5    5.20    2.40
   7   5   6   26.90    6.50
   7  -5   6   18.90    5.00
  -7  -6   7    1.00    2.80
  -7   6   7    3.30    3.00
  -7  -6   6    4.80    2.30
   7   6  -6   -0.90    1.70
  -7   6   6    0.60    1.90
   7  -6  -5    0.50    1.60
   7   6  -5    0.60    1.40
  -7   6   5    4.40    2.60
   7   6  -4    2.10    1.80
  -7   6   4   -0.10    1.70
   7  -6  -4    2.60    1.70
   7   6  -3   22.30    4.50
  -7   6   3   28.30    4.30
   7  -6  -3   23.90    4.40
  -7   6   2   11.70    2.70
   7   6  -2    3.90    1.50
   7  -6  -2    5.00    2.10
   7   6  -1  334.37   16.70
   7  -6  -1  369.76   17.40
   7   6   0    6.10    2.80
   7  -6   0    8.20    3.40
   7   6   1   35.90    5.60
   7  -6   1   30.00    3.80
   7  -6   1   32.50    5.60
   7  -6   2   11.30    3.00
   7  -6   2   16.30    4.00
   7   6   2    6.90    2.80
   7  -6   3   12.50    3.00
   7  -6   3   14.90    4.20
   7   6   3   14.20    3.80
   7   6   4    2.00    1.80
   7  -6   4    3.70    3.10
   7  -6   4    1.60    2.10
   7  -6   5    1.10    3.10
   7   6   5    4.40    2.80
   7  -6   5    7.10    3.40
   7  -6   5    5.30    3.40
   7   6   6   -1.10    2.70
   7  -6   6    1.30    1.50
  -7  -7   7    3.00    3.30
  -7   7   7   -0.80    2.30
   7   7  -6   -3.50    1.80
  -7  -7   6    1.30    2.90
  -7   7   6    1.90    2.60
   7  -7  -5   18.30    4.20
   7   7  -5   16.30    4.50
  -7   7   5   14.90    3.80
  -7   7   5   18.00    4.60
  -7   7   5   11.60    4.10
   7  -7  -4    1.90    1.70
   7   7  -4   -1.30    1.80
   7  -7  -3   11.60    3.20
   7   7  -3    7.40    2.90
  -7   7   3   10.60    3.00
   7  -7  -2   25.70    4.70
   7   7  -2   24.10    4.70
  -7   7   2   23.10    3.80
   7  -7  -1   35.20    5.90
   7   7  -1   27.40    5.30
   7   7   0  108.99    9.80
   7  -7   0  137.59   10.80
   7  -7   1    3.00    1.60
   7  -7   1    2.00    2.00
   7   7   1    0.60    2.10
   7  -7   2   19.50    3.60
   7  -7   2   22.40    5.00
   7   7   2   15.40    3.80
   7  -7   3    1.80    1.40
   7  -7   3    0.80    2.10
   7   7   3    2.40    2.60
   7  -7   4   11.90    3.70
   7   7   4    5.30    3.30
   7  -7   4   10.40    4.20
   7   7   5   44.20    7.70
   7  -7   5   36.50    6.80
   7  -7   5   39.30    6.60
   7   7   6   11.20    4.90
   7  -7   6   12.20    4.20
  -7   8   7    6.10    4.10
   7   8  -6    3.30    2.70
  -7  -8   6    0.10    2.40
  -7   8   6    3.30    2.50
   7   8  -5    4.90    2.50
   7  -8  -5    5.00    2.80
  -7   8   5    8.50    3.80
  -7   8   5    4.00    2.90
  -7   8   5    7.10    3.50
   7  -8  -4   19.00    4.30
   7   8  -4   18.50    4.30
  -7   8   4   19.60    3.90
   7  -8  -3    5.40    2.90
   7   8  -3    7.70    3.20
  -7   8   3    9.50    2.70
   7  -8  -2    0.00    2.00
   7   8  -2    1.10    1.80
   7  -8  -1    0.90    1.60
   7   8  -1    0.80    1.90
   7  -8   0   23.30    4.80
   7   8   0   19.90    4.40
   7  -8   1   25.70    3.90
   7  -8   1   31.80    5.70
   7   8   1   19.60    4.50
   7  -8   2    4.80    2.20
   7   8   2    0.90    2.00
   7  -8   3   11.90    3.10
   7   8   3   10.30    3.30
   7  -8   3   12.20    3.80
   7  -8   4    6.90    3.10
   7  -8   4    5.20    3.30
   7   8   4    7.00    3.00
   7  -8   5    2.60    1.40
   7  -8   5    8.90    3.90
   7   8   5   10.30    5.10
   7  -8   6    7.30    3.70
  -7   9   7   -3.20    2.50
   7   9  -6   10.00    3.80
  -7  -9   6   14.20    4.50
  -7   9   6    8.80    3.20
   7   9  -5    0.40    1.70
  -7   9   5    3.70    2.50
  -7   9   5    3.50    1.80
   7  -9  -5    7.20    2.50
  -7   9   5    6.00    3.00
   7   9  -4   20.50    4.60
  -7   9   4   19.90    4.90
   7  -9  -4   20.00    4.60
  -7   9   4   23.70    5.40
   7   9  -3    6.80    3.50
   7  -9  -3    7.50    3.30
  -7   9   3    6.70    2.80
   7  -9  -2   41.00    6.20
   7   9  -2   38.30    6.20
   7   9  -1   68.99    7.90
   7  -9  -1   82.59    8.90
   7  -9   0    4.30    1.90
   7   9   0    2.10    2.40
   7   9   1   25.50    5.00
   7  -9   1   37.10    6.10
   7  -9   1   35.00    4.70
   7  -9   2    1.70    1.40
   7   9   2   -1.10    2.80
   7  -9   2    6.00    3.00
   7  -9   3    5.90    3.20
   7  -9   3    4.30    3.10
   7   9   3    3.10    2.10
   7  -9   4   62.89    8.50
   7   9   4   40.70    6.40
   7  -9   4   53.49    7.50
   7  -9   5   24.10    5.30
   7   9   5   40.90    7.90
   7  -9   5   30.60    6.10
   7  -9   6    5.10    2.90
   7  10  -6    1.40    2.60
  -7  10   6   -0.50    2.40
  -7 -10   6    5.30    4.00
   7  10  -5   20.30    4.70
  -7  10   5   25.70    5.40
  -7  10   5   27.20    5.20
  -7  10   5   25.80    6.10
   7  10  -4   18.40    4.30
  -7  10   4   21.20    4.60
  -7  10   4   16.90    4.20
  -7  10   4   15.00    4.70
   7 -10  -4   19.20    4.50
   7  10  -3    8.80    3.40
  -7  10   3   11.30    3.30
   7 -10  -3   10.30    3.20
   7  10  -2   47.10    7.00
   7 -10  -2   56.19    7.50
   7  10  -1   45.60    6.80
   7 -10  -1   55.49    7.50
   7  10   0    1.30    1.90
   7 -10   0   -0.30    2.50
   7 -10   1   10.10    2.80
   7  10   1   10.60    3.70
   7 -10   1   12.40    4.10
   7 -10   2   26.70    4.70
   7 -10   2   28.90    5.50
   7  10   2   13.60    3.80
   7 -10   3    1.70    1.90
   7 -10   3    6.90    3.70
   7  10   3    2.60    2.50
   7 -10   4   -0.20    1.20
   7 -10   4    3.70    3.10
   7  10   4    1.40    3.10
   7  10   4   -0.90    2.10
   7 -10   5   50.69    8.00
   7  10   5   67.89   10.10
   7 -10   5   45.20    7.90
   7  11  -6    1.00    1.60
  -7  11   6    0.10    2.10
  -7  11   5    0.00    2.10
   7  11  -5    3.30    2.50
  -7  11   5    2.50    2.20
   7 -11  -4   24.40    5.50
   7  11  -4   19.10    4.70
  -7  11   4   18.80    4.80
  -7  11   4   13.90    4.80
   7 -11  -3   28.60    5.50
   7  11  -3   24.40    5.20
  -7  11   3   23.20    4.50
  -7  11   3   18.40    6.10
   7  11  -2   42.20    6.90
   7 -11  -2   69.29    8.60
   7 -11  -1    0.80    1.90
   7  11  -1   -0.50    1.80
   7 -11   0   14.30    4.40
   7  11   0    6.90    2.90
   7 -11   1    2.40    1.80
   7 -11   1    1.00    2.60
   7  11   1    0.90    2.70
   7 -11   2    1.00    1.30
   7 -11   2    2.30    3.70
   7  11   2   -1.20    1.90
   7 -11   3    4.90    2.50
   7  11   3    1.50    2.20
   7 -11   3    5.10    3.30
   7 -11   4   -1.10    2.00
   7  11   4   -1.30    3.20
   7  11   4   -1.10    2.40
   7 -11   4    1.40    2.70
   7 -11   5    0.80    1.60
   7  12  -6    7.30    5.80
  -7  12   6    3.50    2.30
  -7 -12   6    2.30    2.70
  -7  12   5   -0.40    2.30
   7  12  -5    4.80    2.20
  -7  12   5   -0.30    2.00
  -7 -12   5   -2.00    2.40
   7  12  -4   10.40    4.40
  -7  12   4   13.10    3.70
   7 -12  -4   13.60    4.10
  -7  12   4   12.00    4.50
   7  12  -3    1.50    3.00
  -7  12   3    6.00    2.70
   7 -12  -3    8.70    4.00
  -7  12   3    6.40    3.70
   7  12  -2   20.80    5.20
   7 -12  -2   18.70    4.80
   7 -12  -1    5.60    3.30
   7  12  -1    1.60    2.50
   7  12   0    3.20    2.10
   7 -12   0    4.00    2.70
   7 -12   1    9.60    2.70
   7  12   1    7.10    4.00
   7 -12   1   13.00    4.90
   7 -12   2    4.60    2.70
   7  12   2    1.50    2.10
   7 -12   3    2.60    2.10
   7 -12   3    7.70    3.60
   7  12   3    3.50    2.60
   7 -12   4   21.70    5.00
   7  12   4   18.80    5.80
   7 -12   4   16.10    5.30
   7 -12   5    8.90    3.60
   7  13  -6    0.90    2.00
  -7 -13   6    2.60    2.40
  -7  13   5    5.70    4.10
   7  13  -5   -0.30    1.90
  -7  13   5   -2.00    2.50
  -7 -13   5    0.80    2.20
   7  13  -4   23.10    4.80
  -7  13   4   12.80    4.30
   7 -13  -4   19.30    4.90
  -7  13   4    9.90    4.40
   7 -13  -3   34.40    6.50
   7  13  -3   23.80    5.40
  -7  13   3   21.50    5.80
   7  13  -2   -1.90    2.40
   7 -13  -2    3.30    2.00
  -7  13   2    1.20    2.70
   7  13  -1   12.10    4.70
   7 -13  -1   16.50    4.40
   7  13   0    6.80    3.30
   7 -13   0   15.70    5.00
   7 -13   1    6.30    4.40
   7  13   1   -2.80    3.00
   7 -13   2   16.90    4.30
   7  13   2   13.30    4.70
   7 -13   2   12.80    4.60
   7 -13   3   25.30    5.20
   7  13   3   25.60    6.10
   7 -13   3   28.90    6.60
   7  13   3   19.60    4.70
   7 -13   4   21.40    5.10
   7  13   4   13.70    5.10
  -7  14   5    3.90    3.70
   7  14  -5    1.10    2.20
  -7  14   5    3.20    2.20
  -7  14   4    2.80    3.50
   7  14  -4    2.10    2.30
  -7  14   4   -0.20    2.30
   7 -14  -4    0.50    2.20
   7  14  -3   10.80    4.10
   7 -14  -3   11.30    3.90
  -7  14   3   10.20    3.30
   7  14  -2   13.10    4.50
   7 -14  -2    7.60    3.50
  -7  14   2   14.30    5.10
   7  14  -1    2.20    3.40
   7 -14  -1    0.40    2.20
  -7  14   1    7.00    4.40
   7  14   0    1.70    2.30
   7 -14   0    3.60    3.20
   7  14   1    9.60    4.30
   7 -14   1   18.70    5.50
   7 -14   2    0.30    1.20
   7  14   2    2.60    2.90
   7 -14   2    6.10    3.80
   7 -14   3    4.40    2.30
   7  14   3    4.80    4.00
   7  14   3    3.80    2.80
   7 -14   4   -0.70    1.70
  -7  15   5   -3.20    2.50
  -7  15   4   10.80    4.20
   7  15  -4   14.60    5.00
  -7  15   4   10.70    5.00
   7  15  -3   10.80    3.60
   7 -15  -3   10.10    3.70
  -7  15   3   15.30    5.50
   7  15  -2    4.80    4.30
   7 -15  -2    1.20    2.10
  -7  15   2    1.00    2.50
   7  15  -1    2.70    2.60
   7 -15  -1    6.40    3.40
  -7  15   1    6.90    4.30
   7  15   0    3.30    2.50
   7 -15   0    4.20    2.30
  -7  15   0    7.40    4.00
   7  15   1   11.60    4.10
   7 -15   1   33.20    7.20
   7 -15   2    7.30    3.10
   7  15   2    6.50    3.90
   7 -15   3    9.70    3.90
   7  15   3    2.10    3.20
   7  15   3    2.30    2.70
  -7  16   3    7.70    4.60
   7  16  -2    5.70    3.90
  -7  16   2   10.50    4.90
   7  16  -1   12.70    4.50
  -7  16   1   14.00    5.60
   7  16   0   13.40    4.70
  -7  16   0   12.30    4.90
   7  16   1   15.40    4.80
  -7  16  -1   15.60    5.00
   7  16   2    2.30    3.40
   7  16   2   -1.90    3.00
  -7  16  -2    1.70    2.70
   7 -16   3    4.10    3.10
   7  16   3    9.40    5.00
   7  16   3    2.80    3.70
   7  17   0    1.60    3.00
   7  17   1    3.40    3.60
  -8   0   6    9.50    4.00
   8   0  -5   -1.10    1.80
   8   0  -4    4.90    2.50
   8   0  -3   -0.30    1.60
   8   0  -2    8.50    3.30
   8   0  -1   -1.30    1.50
   8   0   0    2.50    1.80
   8   0   1    1.80    1.80
   8   0   2    6.60    3.70
   8   0   3   -0.30    2.10
   8   0   4    4.80    3.30
   8   0   5    4.80    3.20
   8   0   6    1.10    2.70
  -8  -1   6    8.30    4.60
  -8   1   6   11.40    4.00
   8   1  -5   -1.20    1.70
   8  -1  -5    0.40    2.10
   8   1  -4   45.00    6.50
   8  -1  -4   48.00    6.70
   8   1  -3   -0.80    1.70
   8  -1  -3    2.30    2.00
   8   1  -2    7.00    2.80
   8  -1  -2    5.30    2.20
   8   1  -1    4.90    2.50
   8  -1  -1    4.60    2.10
   8   1   0   20.10    4.10
   8  -1   0   25.40    5.40
   8   1   1   22.00    4.70
   8  -1   1   25.70    4.90
   8   1   2    1.30    1.70
   8  -1   2    0.80    2.60
   8   1   3    3.20    3.00
   8  -1   3    3.30    2.00
   8   1   4   -1.20    2.30
   8  -1   4    1.10    2.90
   8  -1   5    1.50    2.30
   8   1   5    5.00    3.50
   8   1   6   16.00    4.60
   8  -1   6    7.10    3.80
  -8  -2   6    6.50    3.40
  -8   2   6    9.10    3.90
   8   2  -5    4.50    2.80
   8  -2  -5    2.70    1.90
   8   2  -4   64.69    7.90
   8  -2  -4   72.89    8.30
   8  -2  -3   -0.90    1.60
   8   2  -3    1.40    1.70
   8  -2  -2    1.70    2.10
   8   2  -2    3.30    2.30
   8  -2  -1   15.60    4.30
   8   2  -1   16.30    4.30
   8   2   0    1.50    2.30
   8  -2   0    4.00    2.90
   8   2   1   12.30    3.80
   8  -2   1   11.20    4.10
   8   2   2    6.50    3.50
   8  -2   2    2.10    2.00
   8   2   3   11.10    3.70
   8  -2   3   10.70    3.80
   8   2   4    2.80    2.10
   8  -2   4    0.90    2.60
   8  -2   5    7.50    3.80
   8  -2   5    3.20    2.10
   8   2   5   -3.20    3.30
   8  -2   6   45.30    7.20
  -8  -3   6   13.80    4.70
  -8   3   6   11.70    4.50
   8  -3  -5    2.80    2.00
   8   3  -5    3.00    2.50
   8  -3  -4   18.60    4.50
   8   3  -4   38.50    6.10
   8  -3  -3    0.50    2.10
   8   3  -3    1.80    2.10
   8  -3  -2    9.30    3.40
   8   3  -2   11.40    3.70
   8  -3  -1    1.80    2.00
   8   3  -1   -0.70    1.70
   8   3   0   64.49    7.80
   8  -3   0   70.09    8.10
   8  -3   1   -0.40    1.70
   8   3   1    2.60    2.50
   8   3   2   26.90    5.80
   8  -3   2   31.20    6.10
   8   3   3   -0.10    2.10
   8  -3   3   -2.70    1.90
   8  -3   4   41.00    6.80
   8   3   4   43.30    6.70
   8  -3   4   40.70    6.10
   8  -3   5    2.40    2.20
   8   3   5    1.90    3.80
   8  -3   5    3.40    2.80
   8  -3   5   -1.30    2.30
   8  -3   6    7.10    4.10
  -8  -4   6    2.70    3.50
  -8   4   6    4.00    2.60
   8  -4  -5    7.10    2.40
   8   4  -5    1.00    1.90
   8  -4  -4    0.10    1.60
   8   4  -4    1.40    1.70
   8  -4  -3   40.10    6.30
   8   4  -3   36.10    6.00
   8  -4  -2    3.40    2.40
   8   4  -2    0.80    1.70
   8  -4  -1   17.50    4.30
   8   4  -1    7.70    3.00
   8  -4   0   26.60    5.20
   8   4   0   25.00    4.90
   8  -4   1   15.30    4.90
   8   4   1   16.40    4.40
   8  -4   2   25.20    5.30
   8   4   2   15.50    4.20
   8   4   3   29.30    5.70
   8  -4   3   36.70    6.80
   8  -4   4   -1.30    2.00
   8   4   4    3.50    3.00
   8  -4   5    4.40    3.30
   8   4   5   -0.50    2.70
   8  -4   5    0.30    2.80
   8  -4   5    2.60    2.10
   8  -4   6   29.00    6.30
  -8  -5   6    0.60    3.40
  -8   5   6    1.60    2.40
   8   5  -6    1.50    1.50
   8   5  -5    3.90    2.30
   8  -5  -5    5.60    2.30
   8  -5  -4   -1.00    1.50
   8   5  -4    0.50    2.10
   8   5  -3  140.99   11.60
   8  -5  -3  155.88   12.30
   8  -5  -2   19.60    4.70
   8   5  -2   23.40    4.90
   8  -5  -1    4.30    2.50
   8   5  -1    4.40    2.70
   8  -5   0   29.20    5.80
   8   5   0   19.40    4.80
   8  -5   1    8.30    2.80
   8   5   1    1.20    1.80
   8   5   2    4.60    2.70
   8  -5   2   10.00    4.50
   8   5   3   18.40    4.60
   8  -5   3   23.90    6.10
   8   5   4   37.40    6.40
   8  -5   4   48.40    7.60
   8   5   5   29.10    6.90
   8  -5   5   24.40    5.40
   8  -5   5   15.30    4.80
   8  -5   5   16.20    4.20
   8  -5   6    6.90    2.90
  -8  -6   6   -2.30    2.20
  -8   6   6    1.50    2.70
   8   6  -6    0.50    2.40
   8  -6  -5   11.30    6.00
   8   6  -5    1.60    1.90
   8   6  -4    2.40    2.30
   8  -6  -4   -1.90    1.50
   8   6  -3   45.40    6.90
   8  -6  -3   63.39    7.80
   8   6  -2    0.40    1.70
   8  -6  -2    0.40    1.80
   8   6  -1   11.90    3.70
   8  -6  -1   13.50    3.80
   8   6   0   10.90    3.40
   8  -6   0   11.70    3.50
   8   6   1   27.00    5.20
   8  -6   1   24.10    4.90
   8  -6   2    2.20    2.80
   8   6   2    3.70    2.90
   8  -6   3   23.80    5.10
   8   6   3   11.70    3.60
   8   6   4    1.00    1.90
   8  -6   4    4.70    2.80
   8  -6   5   24.90    5.90
   8  -6   5   23.80    5.30
   8  -6   6   -0.90    1.70
  -8  -7   6    9.90    4.70
  -8   7   6   10.30    3.70
   8   7  -6    5.80    2.80
   8  -7  -5   12.30    3.80
  -8   7   5   10.20    3.70
   8   7  -5    7.60    3.50
   8  -7  -4   10.10    3.60
   8   7  -4   14.90    4.50
   8  -7  -3    7.50    3.50
   8   7  -3    9.80    3.50
   8  -7  -2   33.50    5.90
   8   7  -2   27.60    5.80
   8  -7  -1    0.30    2.30
   8   7  -1   -3.40    2.20
   8  -7   0   11.20    4.50
   8   7   0    6.90    3.00
   8  -7   1    2.70    3.20
   8   7   1    0.40    2.10
   8  -7   2   19.00    5.60
   8   7   2    6.80    3.20
   8  -7   3   17.50    4.90
   8   7   3   17.80    5.00
   8   7   4   41.80    6.60
   8  -7   4   60.69    8.70
   8  -7   5    5.00    3.00
   8  -7   5    4.40    2.50
  -8  -8   6    6.50    3.30
   8   8  -6    1.60    1.90
  -8   8   6    3.10    3.10
   8  -8  -5    4.80    2.20
   8   8  -5    1.90    2.10
  -8   8   5    0.40    1.80
   8  -8  -4    1.60    2.60
   8   8  -4   -2.90    3.20
   8  -8  -3    3.20    1.80
   8   8  -3    2.60    3.10
   8   8  -2   59.49    8.20
   8  -8  -2   72.39    8.60
   8  -8  -1   -2.30    2.60
   8   8  -1    3.60    2.50
   8  -8   0    2.20    2.30
   8   8   0    0.40    2.30
   8  -8   1   24.90    5.50
   8   8   1   11.90    4.10
   8  -8   2    3.70    3.10
   8   8   2    4.40    2.70
   8  -8   3    6.00    3.70
   8   8   3    2.70    3.20
   8  -8   4    7.10    3.50
   8   8   4   -1.60    1.90
   8  -8   5   -2.10    3.00
   8   9  -6   -0.20    1.50
  -8   9   6    2.40    2.90
   8   9  -5    4.60    3.10
  -8   9   5    4.00    2.30
   8  -9  -4    2.90    2.90
   8   9  -4    4.30    3.20
   8  -9  -3    3.60    2.80
   8   9  -3   -2.90    2.10
   8  -9  -2    5.40    3.00
   8   9  -2    1.50    2.50
   8  -9  -1   15.20    4.00
   8   9  -1    7.40    3.30
   8  -9   0   14.00    4.90
   8   9   0    4.00    2.90
   8  -9   1    1.90    2.40
   8   9   1    3.50    3.00
   8   9   2   36.70    6.70
   8  -9   2   48.50    7.90
   8   9   3  113.79   11.10
   8  -9   3  149.88   13.70
   8  -9   4    4.20    3.60
   8   9   4   -2.70    2.70
   8  -9   5    9.10    3.50
   8  10  -6    7.80    3.70
   8  10  -5    3.70    2.20
   8  10  -4    3.20    2.40
   8 -10  -4    1.20    1.60
  -8  10   4    3.90    2.80
   8  10  -3   43.70    7.30
   8 -10  -3   56.19    7.80
   8  10  -2   -1.10    2.30
   8 -10  -2    6.10    3.40
   8  10  -1   20.60    5.20
   8 -10  -1   24.40    5.60
   8  10   0    1.40    2.70
   8 -10   0    6.70    4.60
   8  10   1    1.00    2.00
   8 -10   1    1.10    3.10
   8 -10   2   14.60    4.30
   8  10   2   10.00    3.90
   8 -10   3    9.30    4.20
   8  10   3    5.70    2.00
   8  10   4    2.90    3.30
   8 -10   4   11.10    3.90
   8 -10   5   -0.60    2.70
   8  11  -5   11.50    4.30
  -8  11   5   14.30    4.60
   8 -11  -4   51.49    8.30
   8  11  -4   39.80    7.30
  -8  11   4   41.30    6.60
  -8  11   4   38.30    8.00
   8 -11  -3   18.10    4.40
   8  11  -3    6.30    3.40
   8  11  -2    5.30    4.10
   8 -11  -2    2.00    2.60
   8  11  -1    6.20    3.40
   8 -11  -1    7.70    3.90
   8  11   0   10.30    4.10
   8 -11   0   17.50    5.10
   8 -11   1    3.70    4.30
   8  11   1   -2.90    2.00
   8 -11   2   17.60    5.30
   8  11   2   16.90    5.50
   8 -11   3    2.20    4.10
   8  11   3    2.40    2.90
   8 -11   4    5.00    3.00
   8  12  -5    0.50    2.70
  -8  12   5   -0.30    2.40
   8  12  -4    5.30    3.90
  -8  12   4   -1.80    2.50
   8 -12  -4    2.40    2.60
  -8  12   4    3.80    3.50
   8 -12  -3    6.50    4.20
   8  12  -3    4.80    4.60
  -8  12   3    5.80    3.10
  -8  12   3    5.70    4.00
   8 -12  -2   -0.90    2.50
   8  12  -2    3.30    3.00
   8 -12  -1    2.70    2.60
   8  12  -1    7.10    3.80
   8 -12   0   10.10    4.00
   8  12   0   10.40    4.60
   8 -12   1   40.00    7.40
   8  12   1   29.80    6.30
   8  12   2   25.20    5.60
   8 -12   2   31.20    6.80
   8 -12   3    1.80    3.70
   8  12   3   -2.70    2.50
  -8  13   5    1.30    2.10
   8 -13  -4   -5.00    3.70
   8  13  -4    6.20    4.10
  -8  13   4   -0.60    2.10
  -8  13   4    1.40    3.00
   8  13  -3    4.60    3.30
  -8  13   3    5.50    3.10
   8 -13  -3    4.80    3.30
  -8  13   3    6.40    4.20
   8  13  -2    4.60    3.40
   8 -13  -2    2.90    2.00
   8  13  -1    4.00    3.40
   8 -13  -1    5.30    3.50
   8  13   0   -0.30    1.90
   8 -13   0    2.60    3.50
   8  13   1   10.30    5.20
   8 -13   1    0.80    2.70
   8 -13   2    5.40    3.90
   8  13   2   -3.10    2.80
   8  13   3    6.30    3.40
   8 -14  -4    8.40    4.80
  -8  14   4    0.40    2.70
  -8  14   4    6.30    3.70
   8 -14  -3   -1.10    3.00
  -8  14   3    1.30    2.70
  -8  14   3    2.50    2.70
   8 -14  -2   -1.30    3.00
   8  14  -2    5.20    3.30
  -8  14   2    2.50    4.00
   8 -14  -1    1.90    3.00
   8  14  -1    3.80    2.30
   8 -14   0   10.00    4.80
   8  14   0    3.70    3.80
   8 -14   1    3.50    2.40
   8  14   1    2.60    3.00
   8  14   2    2.00    2.80
   8  14   3    2.00    3.40
  -8  15   3    2.60    2.50
   8 -15  -2    4.50    2.20
   9   0  -5    4.00    2.00
   9   0  -4   -2.50    2.20
   9   0  -3   -1.00    1.70
   9   0  -2   -1.50    2.00
   9   0  -1    1.50    1.80
   9   0   0    5.00    2.60
   9   0   1    9.80    4.60
   9   0   2    3.60    2.90
   9   0   3    2.90    2.60
   9   0   4    4.20    3.70
   9   1  -5   -0.80    1.60
   9  -1  -5    3.90    3.10
   9   1  -4    6.70    2.50
   9  -1  -4    6.20    3.20
   9   1  -3   -0.60    1.90
   9  -1  -3   -0.60    2.40
   9   1  -2   -1.30    2.40
   9  -1  -2    3.20    3.10
   9   1  -1   16.80    4.60
   9  -1  -1   22.00    5.20
   9   1   0    5.20    3.50
   9  -1   0    5.20    3.00
   9   1   1    0.90    2.00
   9  -1   1   -3.20    3.80
   9   1   2    3.00    3.30
   9  -1   2   -0.90    2.40
   9   1   3    4.60    3.20
   9  -1   3    3.80    4.10
   9   1   4    2.40    2.80
   9  -1   4    2.40    2.30
   9   2  -5   -1.60    1.80
   9  -2  -5    1.90    2.70
   9   2  -4    0.40    2.10
   9  -2  -4   -0.90    2.20
   9   2  -3   12.40    4.20
   9  -2  -3   12.10    3.80
   9   2  -2   17.10    4.70
   9  -2  -2   20.30    4.80
   9   2  -1    9.60    3.70
   9  -2  -1    0.80    2.20
   9   2   0   30.80    6.10
   9  -2   0   24.40    5.80
   9   2   1   10.90    4.00
   9  -2   1   12.30    5.00
   9   2   2    4.90    3.60
   9  -2   2    3.50    3.00
   9   2   3   -0.30    2.40
   9  -2   3    4.10    2.90
   9   2   4    5.00    3.90
   9  -2   4    6.30    3.60
   9   3  -5   14.50    4.50
   9  -3  -5   11.10    4.10
   9   3  -4    2.90    2.10
   9  -3  -4   -2.30    2.40
   9  -3  -3    0.50    2.20
   9   3  -3   -0.70    2.20
   9  -3  -2   -3.10    2.80
   9   3  -2    0.70    2.80
   9  -3  -1    3.10    3.00
   9   3  -1    2.60    2.70
   9   3   0   16.80    4.70
   9  -3   0   13.10    4.60
   9   3   1    0.90    2.50
   9  -3   1   -0.10    2.90
   9   3   2   32.40    6.60
   9  -3   2   39.60    7.40
   9   3   3    1.10    2.30
   9  -3   3    3.90    3.30
   9  -3   4   63.29    9.30
   9   3   4   55.89    8.40
   9  -3   5    9.10    2.60
   9  -4  -5   28.10    5.90
   9   4  -5   21.00    5.50
   9  -4  -4   15.80    4.50
   9   4  -4   13.70    4.40
   9  -4  -3   -0.80    1.90
   9   4  -3   -0.40    1.80
   9  -4  -2   52.79    7.90
   9   4  -2   51.09    7.70
   9  -4  -1   -1.90    2.70
   9   4  -1    1.20    1.90
   9  -4   0    0.80    2.80
   9   4   0    3.30    2.60
   9   4   1    0.30    2.10
   9  -4   1   -2.50    2.60
   9   4   2   -0.60    2.70
   9  -4   2    1.60    2.40
   9  -4   3   -0.80    2.30
   9   4   3    6.00    3.60
   9  -4   4   -1.80    3.30
   9   4   4    0.30    2.50
   9  -4   5   17.70    4.60
   9   5  -5   22.30    5.50
   9  -5  -5   31.30    5.90
   9  -5  -4   -2.00    2.60
   9   5  -4    2.30    3.30
   9  -5  -3   14.50    4.40
   9   5  -3   10.10    3.80
   9  -5  -2    7.70    3.60
   9   5  -2    6.30    3.10
   9  -5  -1   35.90    6.60
   9   5  -1   32.00    6.30
   9  -5   0    1.00    2.80
   9   5   0    0.70    2.40
   9  -5   1   74.59    9.60
   9   5   1   52.49    7.70
   9  -5   2   65.29    9.30
   9   5   2   58.69    8.40
   9   5   3   -1.80    2.60
   9  -5   3   21.50    5.70
   9   5   4   28.20    7.00
   9  -5   4   30.10    7.20
   9  -6  -5    4.30    3.30
   9   6  -5    0.80    4.60
   9   6  -4    2.50    2.20
   9  -6  -4   -0.90    2.30
   9   6  -3    6.80    3.50
   9  -6  -3   -1.60    2.80
   9   6  -2    5.90    3.20
   9  -6  -2   -1.20    2.00
   9   6  -1    7.00    4.10
   9  -6  -1    9.60    4.00
   9   6   0    3.40    2.20
   9  -6   0    8.20    3.60
   9  -6   1    4.30    3.70
   9   6   1    3.70    2.80
   9  -6   2    4.10    4.00
   9   6   2   -2.20    2.40
   9   6   3   50.69    8.00
   9  -6   3   56.19    8.70
   9   6   4    3.40    3.40
   9  -6   4    3.30    3.30
   9   7  -5   41.50    8.10
   9  -7  -4   -3.60    2.40
   9   7  -4   -2.20    1.90
   9  -7  -3   -1.20    2.50
   9   7  -3    0.40    1.80
   9  -7  -2   -2.70    2.60
   9   7  -2    1.10    1.90
   9  -7  -1   -5.60    3.40
   9   7  -1    1.10    3.30
   9  -7   0   16.30    5.20
   9   7   0   19.90    5.10
   9  -7   1   13.40    4.30
   9   7   1    3.60    3.50
   9  -7   2   63.09    9.50
   9   7   2   54.79    8.10
   9   7   3   -0.10    2.60
   9  -7   3    9.00    4.50
   9  -7   4   43.50    8.10
  -9   8   5    3.90    1.80
   9   8  -5    5.60    3.40
   9  -8  -4   22.80    5.60
   9   8  -4   25.20    6.00
   9  -8  -3    0.90    2.00
   9   8  -3   -1.40    2.90
   9  -8  -2   14.00    4.70
   9   8  -2    6.40    4.00
   9  -8  -1    3.50    3.50
   9   8  -1    5.70    3.20
   9  -8   0   10.60    3.90
   9   8   0   11.60    4.90
   9  -8   1   11.80    4.30
   9   8   1    7.50    3.60
   9  -8   2    6.40    3.40
   9   8   2    3.80    3.80
   9  -8   3    7.10    4.20
   9   8   3    0.30    2.50
   9  -8   4    2.40    3.20
   9  -9  -4   22.00    5.80
   9   9  -4    9.50    4.00
   9  -9  -3    0.40    2.50
   9   9  -3    3.80    2.40
   9  -9  -2    5.80    3.60
   9   9  -2    8.70    4.30
   9  -9  -1    4.10    3.20
   9   9  -1    3.50    3.00
   9  -9   0   10.10    3.80
   9   9   0    6.90    4.10
   9   9   1   87.69   10.70
   9  -9   1  115.09   12.20
   9  -9   2    6.80    5.40
   9   9   2   11.90    3.40
   9  -9   3    2.10    3.40
   9   9   3   -0.40    2.30
   9  10  -4   -0.40    2.30
   9 -10  -4    3.50    3.30
  -9  10   4   -0.90    2.90
   9  10  -3    7.50    3.80
   9 -10  -3    5.30    2.70
   9 -10  -2    6.00    3.20
   9  10  -2    8.60    4.00
   9 -10  -1    6.60    3.90
   9  10  -1   11.10    5.00
   9 -10   0    2.50    3.50
   9  10   0   -0.60    2.60
   9  10   1   19.50    5.80
   9 -10   1   32.70    7.10
   9  10   2   -0.20    2.60
   9 -10   2    5.40    4.20
   9  10   3    1.30    3.00
   9 -11  -4    4.10    1.90
  -9  11   4    7.10    4.50
   9  11  -3    5.20    3.50
   9 -11  -3    5.50    3.20
   9  11  -2   16.80    5.50
   9 -11  -2   16.50    4.90
   9  11  -1    7.60    3.90
   9 -11  -1    7.50    3.70
   9  11   0   45.40    8.10
   9 -11   0   65.19    9.50
   9 -11   1   -1.20    2.50
   9  11   1    3.20    2.90
   9  11   2    0.70    2.60
   9  11   3    4.60    3.90
   9 -12  -3    2.80    2.40
  -9  12   3    0.70    2.70
   9 -12  -2    3.00    3.50
   9 -12  -1   21.20    5.90
   9  12  -1    6.70    3.20
   9  12   0    1.40    2.50
   9  12   1    0.60    3.90
  10   0  -5    4.60    3.10
  10   0  -4   -1.70    3.50
  10   0  -3   -2.00    2.30
  10   0  -2    9.50    4.00
  10   0  -1   -0.40    2.80
  10   0   0    2.90    2.90
  10   0   1    4.10    4.10
  10   0   2    7.10    3.80
  10   0   3    4.20    2.50
  10   0   4  101.99   12.80
  10   1  -5    2.50    2.20
  10  -1  -5   -2.10    2.30
  10   1  -4    1.40    2.50
  10  -1  -4    4.30    3.20
  10   1  -3    4.20    3.70
  10  -1  -3    1.40    2.70
  10   1  -2    5.00    3.70
  10  -1  -2    2.40    2.40
  10   1  -1    5.30    3.60
  10  -1  -1    4.90    3.40
  10   1   0    6.00    4.20
  10  -1   0   16.20    5.30
  10   1   1    3.60    3.00
  10  -1   1   -1.60    2.30
  10   1   2    5.90    4.30
  10  -1   2    6.30    4.00
  10   1   3   16.50    5.60
  10  -1   3   10.60    5.30
  10   1   4   -4.30    3.50
  10   2  -5   -0.10    2.20
  10  -2  -5   -3.10    2.60
  10   2  -4    0.50    2.20
  10  -2  -4    7.10    3.40
  10   2  -3    3.80    2.60
  10  -2  -3    8.80    4.90
  10   2  -2   20.70    5.50
  10  -2  -2   25.10    6.20
  10   2  -1    4.30    3.50
  10  -2  -1    8.30    4.40
  10   2   0   21.70    5.60
  10  -2   0   22.10    5.80
  10   2   1   -2.70    2.20
  10  -2   1    7.80    4.80
  10   2   2    6.40    3.60
  10  -2   2    4.00    4.20
  10   2   3   14.10    5.40
  10  -2   3   12.60    4.70
  10   2   4   15.70    5.50
  10   3  -5    3.50    2.70
  10  -3  -5    6.00    3.70
  10   3  -4   13.60    4.60
  10  -3  -4    9.60    4.60
  10   3  -3    7.10    4.50
  10  -3  -3    1.80    2.50
  10   3  -2   -2.60    3.20
  10  -3  -2    4.10    3.80
  10   3  -1    7.90    4.20
  10  -3  -1    4.50    4.70
  10   3   0    4.50    3.60
  10  -3   0   11.90    4.80
  10   3   1    2.40    3.10
  10  -3   1    6.50    5.10
  10   3   2   22.90    6.20
  10  -3   2   24.60    6.40
  10   3   3   11.70    4.80
  10  -3   3   20.20    6.80
  10  -4  -5    6.90    3.80
  10   4  -4   11.40    5.20
  10  -4  -4   11.20    4.70
  10   4  -3    9.20    3.60
  10  -4  -3    5.00    2.70
  10   4  -2    5.80    3.90
  10  -4  -2    9.60    4.40
  10   4  -1   12.00    5.50
  10  -4  -1    8.40    3.60
  10   4   0    3.00    3.10
  10  -4   0    4.40    4.00
  10   4   1    0.00    3.10
  10  -4   1    2.10    3.30
  10   4   2   57.59    9.50
  10  -4   2   84.99   11.20
  10  -4   3   55.49    9.30
  10   4   3   49.10    8.70
  10  -5  -4   -2.00    2.40
  10   5  -4   -3.80    2.80
  10  -5  -3   17.10    5.10
  10   5  -3   12.80    4.50
  10  -5  -2    7.50    4.30
  10   5  -2    4.20    4.20
  10  -5  -1   37.30    7.50
  10   5  -1   32.00    6.50
  10   5   0   42.40    7.80
  10  -5   0   49.90    8.30
  10   5   1   15.90    5.50
  10  -5   1   27.60    7.00
  10  -5   2   18.60    6.60
  10   5   2   13.90    5.70
  10   5   3    5.70    3.60
  10  -6  -4    2.90    4.00
  10   6  -3   -2.30    2.70
  10  -6  -3    7.40    4.90
  10   6  -2    9.90    4.20
  10  -6  -2   15.70    5.10
  10   6  -1   -2.70    2.20
  10  -6  -1    2.10    3.60
  10  -6   0    9.60    4.80
  10   6   0    1.40    2.70
  10   6   1   18.90    5.70
  10  -6   1   21.00    5.70
  10   6   2   -0.20    2.50
  10  -7  -3   -0.70    2.10
  10  -7  -2    6.80    3.80
  10   7  -2    8.90    4.80
  10  -7  -1    8.40    4.30
  10   7  -1    7.40    4.30
  10  -7   0   42.30    7.80
  10   7   0   24.60    6.20
  10  -7   1    5.00    3.80
  10   7   1    6.70    4.20
  10   7   2   20.60    6.10
  10  -8  -2    8.80    4.00
  10  -8  -1   20.90    6.50
  10   8   0   15.80    5.30
   0   0   0    0.00    0.00

_computing_structure_solution     'SHELXT 2018/2 (Sheldrick, 2018)'
;
_shelx_hkl_checksum              5811
loop_
_space_group_symop_operation_xyz
'x, y, z'
'-x, y+1/2, -z+1/2'
'-x, -y, -z'
'x, -y-1/2, z-1/2'
loop_
_atom_site_label
_atom_site_type_symbol
_atom_site_fract_x
_atom_site_fract_y
_atom_site_fract_z
_atom_site_U_iso_or_equiv
_atom_site_adp_type
_atom_site_occupancy
_atom_site_site_symmetry_order
_atom_site_calc_flag
_atom_site_refinement_flags_posn
_atom_site_refinement_flags_adp
_atom_site_refinement_flags_occupancy
_atom_site_disorder_assembly
_atom_site_disorder_group
O1 O 0.46529(15) 0.52534(8) 0.25893(17) 0.0244(3) Uani 1 1 d . . . . .
O2 O 0.22630(17) 0.43041(8) 0.04983(18) 0.0296(3) Uani 1 1 d . . . . .
O3 O 0.28092(17) 0.29322(8) 0.05350(19) 0.0327(3) Uani 1 1 d . . . . .
N7 N 0.3564(2) 0.70423(11) 0.2580(2) 0.0220(3) Uani 1 1 d . . . . .
N6 N 0.1314(2) 0.61396(11) 0.1339(2) 0.0233(4) Uani 1 1 d . . . . .
N1 N 0.72787(19) 0.44815(9) 0.3321(2) 0.0218(4) Uani 1 1 d . . . . .
N4 N 0.49328(18) 0.37655(9) 0.18639(19) 0.0210(3) Uani 1 1 d . . . . .
N2 N 0.78460(19) 0.51824(10) 0.4087(2) 0.0224(3) Uani 1 1 d . . . . .
N5 N 0.32749(19) 0.36848(9) 0.09512(19) 0.0218(3) Uani 1 1 d . . . . .
N8 N 0.0823(2) 0.76032(11) 0.1480(2) 0.0218(3) Uani 1 1 d . . . . .
N3 N 0.8449(2) 0.57818(11) 0.4795(2) 0.0321(4) Uani 1 1 d . . . . .
C2 C 0.1915(2) 0.69300(11) 0.1791(2) 0.0175(4) Uani 1 1 d . . . . .
C1 C 0.5446(2) 0.45660(11) 0.2529(2) 0.0186(4) Uani 1 1 d . . . . .
H8A H -0.020(3) 0.7516(13) 0.084(3) 0.034(6) Uiso 1 1 d . . . . .
H7A H 0.426(3) 0.6608(15) 0.278(3) 0.038(6) Uiso 1 1 d . . . . .
H7B H 0.406(3) 0.7573(15) 0.281(3) 0.036(6) Uiso 1 1 d . . . . .
H6A H 0.022(3) 0.6080(15) 0.076(3) 0.043(6) Uiso 1 1 d . . . . .
H8B H 0.124(3) 0.8123(15) 0.165(3) 0.039(6) Uiso 1 1 d . . . . .
H6B H 0.207(3) 0.5686(15) 0.144(3) 0.043(6) Uiso 1 1 d . . . . .
loop_
_atom_site_aniso_label
_atom_site_aniso_U_11
_atom_site_aniso_U_22
_atom_site_aniso_U_33
_atom_site_aniso_U_23
_atom_site_aniso_U_13
_atom_site_aniso_U_12
O1 0.0201(7) 0.0147(7) 0.0375(7) -0.0023(5) -0.0042(5) 0.0031(5)
O2 0.0221(7) 0.0188(7) 0.0457(8) 0.0003(5) -0.0124(5) 0.0048(6)
O3 0.0282(8) 0.0157(7) 0.0520(8) -0.0053(6) -0.0103(6) -0.0033(6)
N7 0.0196(9) 0.0127(8) 0.0330(8) -0.0010(6) -0.0028(6) -0.0001(7)
N6 0.0167(9) 0.0155(8) 0.0369(8) -0.0035(6) -0.0044(6) -0.0005(7)
N1 0.0188(8) 0.0155(8) 0.0299(8) -0.0030(6) -0.0055(6) -0.0002(6)
N4 0.0179(8) 0.0158(8) 0.0282(7) -0.0012(5) -0.0048(6) 0.0005(6)
N2 0.0167(8) 0.0223(9) 0.0274(8) 0.0004(6) -0.0030(6) 0.0013(7)
N5 0.0192(8) 0.0180(9) 0.0277(8) -0.0002(6) -0.0022(6) -0.0004(6)
N8 0.0217(9) 0.0150(9) 0.0279(8) -0.0009(6) -0.0037(6) 0.0003(7)
N3 0.0266(10) 0.0255(10) 0.0435(9) -0.0066(7) -0.0030(7) -0.0046(8)
C2 0.0179(9) 0.0158(9) 0.0187(8) 0.0000(6) 0.0016(6) -0.0006(7)
C1 0.0178(10) 0.0162(10) 0.0217(8) 0.0024(6) 0.0004(6) 0.0016(7)
loop_
_atom_type_symbol
_atom_type_description
_atom_type_scat_dispersion_real
_atom_type_scat_dispersion_imag
_atom_type_scat_source
C C 0.0033 0.0016 'International Tables Vol C Tables 4.2.6.8 and 6.1.1.4'
H H 0.0000 0.0000 'International Tables Vol C Tables 4.2.6.8 and 6.1.1.4'
N N 0.0061 0.0033 'International Tables Vol C Tables 4.2.6.8 and 6.1.1.4'
O O 0.0106 0.0060 'International Tables Vol C Tables 4.2.6.8 and 6.1.1.4'
loop_
_geom_angle_atom_site_label_1
_geom_angle_atom_site_label_2
_geom_angle_atom_site_label_3
_geom_angle
_geom_angle_site_symmetry_1
_geom_angle_site_symmetry_3
_geom_angle_publ_flag
C2 N7 H7A 120.3(15) . . ?
C2 N7 H7B 122.8(14) . . ?
H7A N7 H7B 117(2) . . ?
C2 N6 H6A 118.7(15) . . ?
C2 N6 H6B 120.1(14) . . ?
H6A N6 H6B 120(2) . . ?
N2 N1 C1 110.64(14) . . ?
N5 N4 C1 117.30(14) . . ?
N3 N2 N1 175.73(17) . . ?
O3 N5 O2 120.91(14) . . ?
O3 N5 N4 114.92(14) . . ?
O2 N5 N4 124.16(14) . . ?
C2 N8 H8A 118.0(14) . . ?
C2 N8 H8B 119.5(15) . . ?
H8A N8 H8B 121(2) . . ?
N7 C2 N6 120.16(17) . . ?
N7 C2 N8 120.36(17) . . ?
N6 C2 N8 119.46(17) . . ?
O1 C1 N4 132.66(16) . . ?
O1 C1 N1 121.41(15) . . ?
N4 C1 N1 105.90(14) . . ?
loop_
_geom_bond_atom_site_label_1
_geom_bond_atom_site_label_2
_geom_bond_distance
_geom_bond_site_symmetry_2
_geom_bond_publ_flag
O1 C1 1.222(2) . ?
O2 N5 1.2454(18) . ?
O3 N5 1.2417(18) . ?
N7 C2 1.317(2) . ?
N7 H7A 0.86(2) . ?
N7 H7B 0.91(2) . ?
N6 C2 1.331(2) . ?
N6 H6A 0.89(2) . ?
N6 H6B 0.90(2) . ?
N1 N2 1.2583(19) . ?
N1 C1 1.439(2) . ?
N4 N5 1.3461(19) . ?
N4 C1 1.361(2) . ?
N2 N3 1.120(2) . ?
N8 C2 1.332(2) . ?
N8 H8A 0.86(2) . ?
N8 H8B 0.87(2) . ?
loop_
_geom_contact_atom_site_label_1
_geom_contact_atom_site_label_2
_geom_contact_distance
_geom_contact_site_symmetry_1
_geom_contact_site_symmetry_2
_geom_contact_publ_flag
? ? ? ? ? ?
loop_
_geom_hbond_atom_site_label_D
_geom_hbond_atom_site_label_H
_geom_hbond_atom_site_label_A
_geom_hbond_distance_DH
_geom_hbond_distance_HA
_geom_hbond_distance_DA
_geom_hbond_angle_DHA
_geom_hbond_site_symmetry_A
? ? ? ? ? ? ? ?
loop_
_geom_torsion_atom_site_label_1
_geom_torsion_atom_site_label_2
_geom_torsion_atom_site_label_3
_geom_torsion_atom_site_label_4
_geom_torsion
_geom_torsion_site_symmetry_1
_geom_torsion_site_symmetry_2
_geom_torsion_site_symmetry_3
_geom_torsion_site_symmetry_4
_geom_torsion_publ_flag
C1 N4 N5 O3 -173.84(13) . . . . ?
C1 N4 N5 O2 7.6(2) . . . . ?
N5 N4 C1 O1 5.4(3) . . . . ?
N5 N4 C1 N1 -176.73(12) . . . . ?
N2 N1 C1 O1 2.0(2) . . . . ?
N2 N1 C1 N4 -176.13(12) . . . . ?
