#------------------------------------------------------------------------------
#$Date: 2021-02-04 02:53:14 +0200 (Thu, 04 Feb 2021) $
#$Revision: 261473 $
#$URL: file:///home/coder/svn-repositories/cod/cif/4/13/56/4135602.cif $
#------------------------------------------------------------------------------
#
# This file is available in the Crystallography Open Database (COD),
# http://www.crystallography.net/
#
# All data on this site have been placed in the public domain by the
# contributors.
#
data_4135602
loop_
_publ_author_name
'Benz, Maximilian'
'Klap\"otke, Thomas M'
'Krumm, Burkhard'
'Lommel, Marcus'
'Stierstorfer, J\"org'
_publ_section_title
;
 Nitrocarbamoyl Azide O<sub>2</sub>NN(H)C(O)N<sub>3</sub>: A Stable but
 Highly Energetic Member of the Carbonyl Azide Family.
;
_journal_issue                   3
_journal_name_full               'Journal of the American Chemical Society'
_journal_page_first              1323
_journal_page_last               1327
_journal_paper_doi               10.1021/jacs.0c12507
_journal_volume                  143
_journal_year                    2021
_chemical_formula_moiety         'C H2 N5 Na O4'
_chemical_formula_sum            'C H2 N5 Na O4'
_chemical_formula_weight         171.07
_chemical_name_common            'sodium nitrocarbamoylazide monohydrate'
_chemical_name_systematic
;
sodium nitrocarbamoylazide monohydrate
;
_space_group_IT_number           14
_space_group_name_Hall           '-P 2ybc'
_space_group_name_H-M_alt        'P 1 21/c 1'
_symmetry_cell_setting           monoclinic
_symmetry_Int_Tables_number      14
_symmetry_space_group_name_Hall  '-P 2ybc'
_symmetry_space_group_name_H-M   'P 1 21/c 1'
_atom_sites_solution_hydrogens   difmap
_audit_creation_date
;
'Tue Jan 24 20:30:13 2017'
;
_audit_creation_method           SHELXL-2013
_audit_update_record             25.01.2017
_cell_angle_alpha                90
_cell_angle_beta                 105.130(8)
_cell_angle_gamma                90
_cell_formula_units_Z            4
_cell_length_a                   11.9484(9)
_cell_length_b                   3.6295(2)
_cell_length_c                   14.0899(10)
_cell_measurement_reflns_used    1201
_cell_measurement_temperature    173(2)
_cell_measurement_theta_max      31.1770
_cell_measurement_theta_min      5.1820
_cell_volume                     589.85(7)
_computing_cell_refinement
;
CrysAlisPro, Agilent Technologies,
Version 1.171.37.33 (release 27-03-2014 CrysAlis171 .NET)
(compiled Mar 27 2014,17:12:48)
;
_computing_data_collection
;
CrysAlisPro, Agilent Technologies,
Version 1.171.37.33 (release 27-03-2014 CrysAlis171 .NET)
(compiled Mar 27 2014,17:12:48)
;
_computing_data_reduction
;
CrysAlisPro, Agilent Technologies,
Version 1.171.37.33 (release 27-03-2014 CrysAlis171 .NET)
(compiled Mar 27 2014,17:12:48)
;
_computing_structure_refinement  'SHELXL-2013 (Sheldrick, 2013)'
_diffrn_ambient_temperature      173(2)
_diffrn_detector                 'CCD plate'
_diffrn_detector_area_resol_mean 15.9809
_diffrn_detector_type            Sapphire3
_diffrn_measured_fraction_theta_full 0.994
_diffrn_measured_fraction_theta_max 0.995
_diffrn_measurement_details
;
#__ type_ start__ end____ width___ exp.time_
  1 omega   21.00   73.00   1.0000    7.0000
omega____ theta____ kappa____ phi______ frames
    -       29.9494  -99.0000  -90.0000 52

#__ type_ start__ end____ width___ exp.time_
  2 omega    3.00   97.00   1.0000    7.0000
omega____ theta____ kappa____ phi______ frames
    -       29.9494   38.0000  150.0000 94

#__ type_ start__ end____ width___ exp.time_
  3 omega   29.00   75.00   1.0000    7.0000
omega____ theta____ kappa____ phi______ frames
    -       29.9494  -99.0000  150.0000 46

#__ type_ start__ end____ width___ exp.time_
  4 omega  -46.00   73.00   1.0000    7.0000
omega____ theta____ kappa____ phi______ frames
    -       29.9494  -19.0000  150.0000 119

#__ type_ start__ end____ width___ exp.time_
  5 omega   44.00  108.00   1.0000    7.0000
omega____ theta____ kappa____ phi______ frames
    -       29.9494  179.0000  120.0000 64

#__ type_ start__ end____ width___ exp.time_
  6 omega  -76.00  -34.00   1.0000    7.0000
omega____ theta____ kappa____ phi______ frames
    -      -28.8557 -179.0000 -150.0000 42

#__ type_ start__ end____ width___ exp.time_
  7 omega  -90.00  -64.00   1.0000    7.0000
omega____ theta____ kappa____ phi______ frames
    -      -28.8557 -179.0000    0.0000 26

;
_diffrn_measurement_device       'four-circle diffractometer'
_diffrn_measurement_device_type  'Xcalibur, Sapphire3'
_diffrn_measurement_method       '\w scans'
_diffrn_orient_matrix_UB_11      0.0078374000
_diffrn_orient_matrix_UB_12      0.0864074000
_diffrn_orient_matrix_UB_13      -0.0429655000
_diffrn_orient_matrix_UB_21      0.0344726000
_diffrn_orient_matrix_UB_22      -0.1505754000
_diffrn_orient_matrix_UB_23      -0.0076487000
_diffrn_orient_matrix_UB_31      -0.0503550000
_diffrn_orient_matrix_UB_32      -0.0896354000
_diffrn_orient_matrix_UB_33      -0.0285047000
_diffrn_radiation_monochromator  graphite
_diffrn_radiation_probe          x-ray
_diffrn_radiation_type           MoK\a
_diffrn_radiation_wavelength     0.71073
_diffrn_reflns_av_R_equivalents  0.0269
_diffrn_reflns_av_sigmaI/netI    0.0551
_diffrn_reflns_av_unetI/netI     0.0270
_diffrn_reflns_Laue_measured_fraction_full 0.994
_diffrn_reflns_Laue_measured_fraction_max 0.995
_diffrn_reflns_limit_h_max       9
_diffrn_reflns_limit_h_min       -14
_diffrn_reflns_limit_k_max       4
_diffrn_reflns_limit_k_min       -4
_diffrn_reflns_limit_l_max       17
_diffrn_reflns_limit_l_min       -17
_diffrn_reflns_number            4048
_diffrn_reflns_point_group_measured_fraction_full 0.994
_diffrn_reflns_point_group_measured_fraction_max 0.995
_diffrn_reflns_theta_full        25.242
_diffrn_reflns_theta_max         25.989
_diffrn_reflns_theta_min         5.198
_diffrn_source                   'Enhance (Mo) X-ray Source'
_exptl_absorpt_coefficient_mu    0.242
_exptl_absorpt_correction_T_max  1.00000
_exptl_absorpt_correction_T_min  0.87374
_exptl_absorpt_correction_type   multi-scan
_exptl_absorpt_process_details
;
CrysAlisPro, Agilent Technologies,
Version 1.171.37.33 (release 27-03-2014 CrysAlis171 .NET)
(compiled Mar 27 2014,17:12:48)
Empirical absorption correction using spherical harmonics,
 implemented in SCALE3 ABSPACK scaling algorithm.
;
_exptl_crystal_colour            colorless
_exptl_crystal_density_diffrn    1.926
_exptl_crystal_description       rod
_exptl_crystal_F_000             344
_exptl_crystal_size_max          0.400
_exptl_crystal_size_mid          0.150
_exptl_crystal_size_min          0.020
_refine_diff_density_max         0.224
_refine_diff_density_min         -0.273
_refine_diff_density_rms         0.054
_refine_ls_extinction_method     none
_refine_ls_goodness_of_fit_ref   1.081
_refine_ls_hydrogen_treatment    refall
_refine_ls_matrix_type           full
_refine_ls_number_parameters     108
_refine_ls_number_reflns         1157
_refine_ls_number_restraints     0
_refine_ls_restrained_S_all      1.081
_refine_ls_R_factor_all          0.0392
_refine_ls_R_factor_gt           0.0297
_refine_ls_shift/su_max          0.001
_refine_ls_shift/su_mean         0.000
_refine_ls_structure_factor_coef Fsqd
_refine_ls_weighting_details
'w=1/[\s^2^(Fo^2^)+(0.0385P)^2^+0.0330P] where P=(Fo^2^+2Fc^2^)/3'
_refine_ls_weighting_scheme      calc
_refine_ls_wR_factor_gt          0.0685
_refine_ls_wR_factor_ref         0.0761
_reflns_Friedel_coverage         0.000
_reflns_number_gt                948
_reflns_number_total             1157
_reflns_threshold_expression     'I > 2\s(I)'
_cod_data_source_file            ja0c12507_si_001.cif
_cod_data_source_block           mx033
_cod_database_code               4135602
_shelx_space_group_comment
;
The symmetry employed for this shelxl refinement is uniquely defined
by the following loop, which should always be used as a source of
symmetry information in preference to the above space-group names.
They are only intended as comments.
;
_shelx_estimated_absorpt_t_min   0.909
_shelx_estimated_absorpt_t_max   0.995
_shelxl_version_number           2013-4
_shelx_res_file
;
TITL mx033_v1 in P2(1)/c
CELL  0.71073  11.9484   3.6295  14.0899   90.000  105.130   90.000
ZERR     4.00   0.0009   0.0002   0.0010    0.000    0.008    0.000
LATT   1
SYMM  - X, 1/2 + Y, 1/2 - Z
SFAC  C    H    N    O    NA
UNIT  4    8    20   16   4
MERG   2
OMIT    -2.00  52.00
EQIV $1 x, -y+1/2, z+1/2
HTAB O4 N1_$1
EQIV $2 x, y-1, z
HTAB O4 O1_$2
HTAB O4 N1_$1
HTAB O4 O1_$2
FMAP   2
PLAN   20
SIZE     0.020   0.150   0.400
ACTA
BOND   $H
CONF
L.S.   4
TEMP  -100.00
WGHT    0.038500    0.033000
FVAR       0.27679
O4    4    0.712860   -0.227412    0.505493    11.00000    0.02110    0.02721 =
         0.01948   -0.00254    0.00648   -0.00091
H42   2    0.728153   -0.149161    0.565163    11.00000    0.06151
H41   2    0.775503   -0.240342    0.493646    11.00000    0.05389
MOLE    1
NA    5    0.604946    0.271589    0.421849    11.00000    0.02599    0.02121 =
         0.02643   -0.00051    0.00582    0.00046
O2    4    0.597158    0.055479    0.250379    11.00000    0.02535    0.02370 =
         0.02971    0.00275    0.01227   -0.00253
O1    4    0.784419    0.355792    0.362226    11.00000    0.02560    0.03486 =
         0.01623    0.00320    0.00704   -0.00262
N2    3    0.619436    0.234289    0.183213    11.00000    0.01776    0.01551 =
         0.02196   -0.00237    0.00576    0.00247
O3    4    0.547184    0.249031    0.099763    11.00000    0.01844    0.02953 =
         0.02332   -0.00359   -0.00171   -0.00060
C1    1    0.792763    0.444901    0.281450    11.00000    0.01784    0.01561 =
         0.01883    0.00028    0.00706    0.00271
N1    3    0.718715    0.415753    0.189213    11.00000    0.01581    0.02064 =
         0.01796    0.00067    0.00385   -0.00128
N3    3    0.894502    0.625262    0.267448    11.00000    0.01840    0.02825 =
         0.01536    0.00052    0.00279   -0.00314
N4    3    0.967512    0.682065    0.348338    11.00000    0.02165    0.02902 =
         0.02081    0.00153    0.00779   -0.00272
N5    3    1.038609    0.744395    0.415599    11.00000    0.02780    0.05672 =
         0.02410    0.00032   -0.00076   -0.01200
HKLF    4

REM  mx033_v1 in P2(1)/c
REM R1 =  0.0297 for     948 Fo > 4sig(Fo)  and  0.0392 for all    1157 data
REM    108 parameters refined using      0 restraints

END

WGHT      0.0385      0.0330

REM Highest difference peak  0.224,  deepest hole -0.273,  1-sigma level  0.054
Q1    1   0.7374  0.4998  0.1371  11.00000  0.05    0.22
Q2    1   0.9209  0.5875  0.2151  11.00000  0.05    0.18
Q3    1   0.7089  0.5656  0.3522  11.00000  0.05    0.17
Q4    1   0.7597  0.3946  0.2190  11.00000  0.05    0.16
Q5    1   0.9219  0.4171  0.2256  11.00000  0.05    0.15
Q6    1   0.7667  0.2467  0.1537  11.00000  0.05    0.15
Q7    1   0.6121  0.0941  0.0632  11.00000  0.05    0.14
Q8    1   0.8413  0.5072  0.4231  11.00000  0.05    0.14
Q9    1   0.6192  0.4105  0.0467  11.00000  0.05    0.14
Q10   1   0.7808  0.6501  0.3873  11.00000  0.05    0.14
Q11   1   0.7211 -0.5112  0.5973  11.00000  0.05    0.14
Q12   1   0.8449  0.4860  0.2728  11.00000  0.05    0.14
Q13   1   0.7774  0.4688  0.3225  11.00000  0.05    0.13
Q14   1   1.1248  0.6508  0.3310  11.00000  0.05    0.13
Q15   1   0.8631  0.3610  0.4173  11.00000  0.05    0.13
Q16   1   0.5196 -0.1015  0.2220  11.00000  0.05    0.13
Q17   1   0.7319  0.7858  0.3228  11.00000  0.05    0.13
Q18   1   0.6763  0.0431  0.3212  11.00000  0.05    0.13
Q19   1   0.7939  0.4477  0.1413  11.00000  0.05    0.12
Q20   1   1.0576  0.6460  0.2739  11.00000  0.05    0.12
;
_shelx_res_checksum              64238
_shelx_hkl_file
;
   0   0  -3    0.04    0.06
   0   0  -3    0.07    0.04
   0   0   3    0.06    0.08
   0   0  -4    0.76    0.13
   0   0  -4    0.66    0.09
   0   0   4    0.53    0.14
   0   0   5    0.00    0.12
   0   0  -5    0.34    0.23
   0   0   6   75.07    1.44
   0   0  -6   69.75    1.78
   0   0  -7   -0.15    0.27
   0   0   7   -0.09    0.17
   0   0   8    8.33    0.58
   0   0  -8    8.18    0.76
   0   0  -9    0.22    0.35
   0   0   9   -0.02    0.19
   0   0  10   10.01    0.73
   0   0 -10   10.15    0.98
   0   0  11   -0.08    0.22
   0   0 -11   -0.11    0.38
   0   0 -12   79.50    2.90
   0   0  12   77.35    2.16
   0   0 -13   -0.26    0.48
   0   0  13    0.21    0.27
   0   0 -14   12.21    1.29
   0   0  14   12.39    0.95
   0   0 -15   -0.38    0.47
   0   0 -16    0.16    0.46
   0   0 -17    0.10    0.38
   0   0 -18    6.78    1.22
   0   0 -19    0.10    0.42
   0   1   0    0.18    0.15
   0   1  -1   14.85    0.64
   0  -1  -1   14.82    0.46
   0   1   1   15.29    0.65
   0   1   2   68.74    1.37
   0   1   2   67.26    1.07
   0  -1  -2   64.90    1.20
   0   1  -2   65.20    1.33
   0   1  -3   32.23    0.97
   0  -1  -3   33.05    0.97
   0   1   3   34.90    0.76
   0   1  -4   97.80    1.77
   0   1   4   99.02    1.31
   0  -1  -4   97.98    1.89
   0   1   5    3.59    0.28
   0   1  -5    3.43    0.38
   0  -1  -5    3.67    0.44
   0   1  -6    0.18    0.11
   0   1  -6    0.10    0.18
   0  -1  -6   -0.08    0.25
   0   1   6    0.16    0.10
   0   1   7    0.22    0.12
   0  -1  -7    0.16    0.12
   0   1  -7    0.23    0.12
   0  -1  -7    0.26    0.28
   0  -1  -7    0.07    0.12
   0  -1  -8    3.75    0.30
   0  -1  -8    3.66    0.42
   0   1   8    4.01    0.35
   0  -1  -8    3.27    0.57
   0   1  -8    3.88    0.55
   0   1  -8    3.61    0.38
   0  -1  -9    8.76    0.65
   0   1  -9    7.84    0.58
   0   1   9    8.01    0.52
   0   1  -9    8.27    0.78
   0  -1  -9    8.21    0.86
   0  -1  -9    7.55    0.41
   0  -1 -10    1.61    0.31
   0  -1  10    2.57    0.52
   0   1 -10    1.55    0.46
   0  -1 -10    1.80    0.20
   0   1  10    2.09    0.30
   0  -1 -10    0.87    0.45
   0   1 -10    1.53    0.29
   0   1  11   32.42    1.14
   0   1 -11   30.06    1.66
   0  -1 -11   29.58    1.23
   0  -1 -11   30.78    1.78
   0  -1  11   33.04    1.55
   0   1 -11   29.40    1.21
   0  -1  12   16.09    1.14
   0  -1 -12   18.25    1.46
   0  -1 -12   17.05    0.95
   0   1 -12   16.74    1.33
   0   1 -12   17.60    0.98
   0  -1  13   14.20    1.12
   0  -1 -13   15.70    1.43
   0   1 -13   15.42    1.34
   0   1 -13   16.06    0.97
   0  -1 -14    0.81    0.51
   0   1 -14    1.10    0.49
   0  -1  14    1.03    0.33
   0  -1  15    0.67    0.34
   0   1 -15    1.07    0.53
   0  -1 -15    0.85    0.49
   0   1 -16   16.36    1.54
   0  -1 -16   16.38    1.65
   0  -1  16   16.55    1.33
   0  -1 -17    0.19    0.46
   0   1 -17   -0.12    0.41
   0  -1  17    0.12    0.29
   0   1 -18    0.61    0.40
   0  -1 -18    1.94    0.72
   0   1 -19   -0.12    0.38
   0  -1 -19   -0.84    0.53
   0   2   0  271.25    3.81
   0   2  -1    0.21    0.27
   0   2   1   -0.07    0.28
   0   2   2  173.37    3.07
   0  -2  -2  174.78    2.20
   0   2  -2  178.33    3.08
   0  -2  -3   32.63    1.08
   0   2   3   32.39    1.37
   0   2  -3   31.52    1.32
   0   2   4   88.60    2.28
   0   2  -4   91.21    2.27
   0  -2  -4   86.63    1.94
   0   2  -5   19.40    1.08
   0  -2  -5   19.31    1.02
   0   2   5   17.74    0.79
   0   2   5   18.50    1.09
   0  -2  -6    0.23    0.24
   0   2   6    0.22    0.13
   0   2   6    0.45    0.30
   0   2  -6    0.51    0.30
   0  -2  -7    6.88    0.74
   0   2  -7    8.32    0.77
   0   2   7    7.33    0.51
   0   2  -7    7.75    0.61
   0   2  -8    7.81    0.78
   0  -2  -8    8.33    0.85
   0   2  -8    6.76    0.63
   0  -2  -8    8.30    0.84
   0   2   8    7.80    0.53
   0  -2  -9   14.86    1.11
   0   2  -9   13.53    0.94
   0   2  -9   14.36    1.03
   0   2  -9   13.88    0.90
   0  -2  -9   14.41    1.18
   0   2 -10   20.34    1.11
   0  -2 -10   22.73    1.05
   0  -2 -10   22.29    1.50
   0  -2 -10   20.47    1.31
   0   2 -10   21.82    1.27
   0   2 -11    7.42    0.69
   0   2 -11    7.58    0.82
   0  -2 -11    7.15    0.94
   0  -2 -11    6.73    0.78
   0   2 -12   32.53    1.49
   0  -2 -12   30.72    1.64
   0  -2  12   33.11    1.85
   0   2 -12   34.85    1.80
   0  -2 -12   37.09    2.12
   0  -2 -13    5.51    0.72
   0  -2 -13    8.16    1.08
   0  -2  13    7.42    0.95
   0   2 -13    6.28    0.82
   0   2 -13    6.24    0.67
   0  -2 -14    4.85    0.90
   0   2 -14    4.89    0.77
   0  -2  14    4.86    0.79
   0   2 -14    5.96    0.68
   0  -2  15    0.05    0.33
   0   2 -15    0.75    0.40
   0   2 -16   -0.17    0.33
   0  -2  16    0.32    0.40
   0  -2 -16   -0.78    0.57
   0  -2  17    0.75    0.45
   0  -2 -17    1.25    0.51
   0  -2  18    0.50    0.35
   0  -2 -18    0.96    0.52
   0   3   0   -0.26    0.37
   0   3   1    7.97    0.89
   0   3  -1    8.86    0.94
   0   3   2    1.35    0.48
   0   3  -2    1.53    0.51
   0   3  -3   18.31    1.28
   0   3   3   18.31    1.33
   0   3   4    6.67    0.84
   0   3  -4    6.52    0.81
   0  -3  -5    5.11    0.56
   0   3  -5    4.89    0.73
   0   3   5    5.29    0.77
   0   3   6    5.69    0.79
   0   3  -6    6.98    0.83
   0  -3  -6    6.88    0.70
   0   3  -7    0.01    0.32
   0  -3  -7    0.77    0.33
   0   3   7    0.91    0.45
   0   3   8   -0.10    0.43
   0  -3  -8   -0.23    0.42
   0  -3  -8   -0.06    0.22
   0   3  -8    0.00    0.34
   0   3   9    2.03    0.54
   0  -3  -9    2.91    0.57
   0   3  -9    2.38    0.56
   0  -3  -9    2.47    0.57
   0   3 -10    1.71    0.54
   0  -3 -10    1.93    0.57
   0  -3 -10    1.67    0.45
   0   3 -10    2.08    0.43
   0   3  10    2.34    0.63
   0   3  11    1.94    0.63
   0   3 -11    1.73    0.41
   0   3 -11    2.19    0.56
   0  -3 -11    1.96    0.52
   0  -3 -11    1.69    0.51
   0  -3 -12    0.46    0.35
   0   3 -12    0.27    0.25
   0  -3 -12   -0.02    0.27
   0   3  12    1.08    0.52
   0  -3 -13    1.72    0.54
   0   3 -13    1.84    0.44
   0  -3 -13    0.82    0.35
   0  -3  14    0.17    0.41
   0  -3 -14   -0.09    0.20
   0   3  14   -0.06    0.41
   0  -3 -14   -0.19    0.34
   0  -3 -15    0.05    0.34
   0  -3  15    0.62    0.40
   0   3  15    0.35    0.47
   0   3  16    3.15    0.80
   0  -3  16    1.30    0.56
   0  -3 -16    1.85    0.63
   0   4   0   14.46    1.37
   0   4  -1    1.38    0.56
   0   4   1    1.68    0.60
   0   4  -2    8.94    1.08
   0   4   2   10.35    1.15
   0   4  -3    1.84    0.58
   0   4   3    2.04    0.59
   0   4   4    0.62    0.47
   0   4  -4    0.42    0.42
   0   4  -5    5.39    0.88
   0   4   5    5.19    0.90
   0  -4  -6    3.18    0.75
   0   4   6    2.37    0.66
   0   4  -6    1.80    0.55
   0   4   7    8.30    1.13
   0  -4  -7    6.94    1.03
   0   4  -7    6.87    0.98
   0   4   8    2.39    0.66
   0  -4  -8    2.84    0.73
   0   4  -8    2.90    0.71
   0   4   9    1.48    0.55
   0   4  -9    1.30    0.52
   0  -4  -9    0.95    0.48
   0   4 -10    9.42    1.17
   0  -4 -10    8.76    1.23
   0   4  10    7.86    1.17
   0   4 -11    2.97    0.57
   0   4  11    5.03    0.96
   0   4 -11    3.60    0.76
   0  -4 -11    2.82    0.74
   0   4  12    7.71    1.23
   0  -4 -12    6.74    1.12
   0   4 -12    5.78    0.98
   0   4 -12    6.02    0.85
   0   4  13    0.27    0.49
   0  -4 -13    1.71    0.59
   0  -5   0   -0.59    0.47
   0   5   0   -0.68    0.44
   0   5  -1    1.20    0.51
   0  -5   1    0.40    0.36
   0   5   1    1.20    0.53
   0  -5  -1    1.37    0.58
   0   5  -2   -0.27    0.34
   0  -5  -2    0.03    0.32
   0   5   2   -0.25    0.46
   0  -5   2    0.41    0.35
   0  -5  -3    2.18    0.69
   0   5  -3    2.51    0.70
   0  -5   3    1.92    0.60
   0   5   3    2.76    0.77
   0   5   4    1.85    0.64
   0  -5  -4    1.31    0.56
   0   5  -4    1.51    0.53
   0  -5  -5   -0.75    0.46
   0   5  -5   -0.12    0.40
   0   5   5   -0.58    0.40
   1   0 -19   -1.16    0.62
   1   0 -18   -0.10    0.54
   1   0 -17   -0.07    0.42
   1   0 -16    2.39    0.73
  -1   0  15    0.17    0.22
   1   0 -15    0.38    0.49
  -1   0  14   29.83    1.50
   1   0 -14   27.99    1.89
  -1   0  13    0.06    0.21
   1   0 -13   -0.41    0.41
  -1   0  12  185.54    3.40
   1   0 -12  182.45    4.31
  -1   0  11    0.11    0.22
   1   0 -11    0.22    0.43
   1   0 -10    0.96    0.51
  -1   0  10    0.26    0.23
  -1   0   9   -0.22    0.22
  -1   0   8    0.05    0.18
   1   0  -8   -0.11    0.06
  -1   0   7   -0.05    0.18
   1   0  -7    0.02    0.05
   1   0  -6    5.83    0.27
  -1   0   6    6.66    0.47
  -1   0   5   -0.05    0.14
  -1   0   4    1.33    0.20
  -1   0   3    0.10    0.08
  -1   0  -3    0.11    0.16
  -1   0  -3    0.27    0.11
  -1   0  -3    0.24    0.14
  -1   0  -4   28.88    0.78
  -1   0  -4   29.15    0.99
  -1   0  -4   29.17    1.01
  -1   0  -5   -0.21    0.20
  -1   0  -5    0.14    0.13
   1   0   6  132.03    1.86
  -1   0  -6  132.67    2.56
   1   0   7   -0.03    0.15
  -1   0  -7    0.40    0.31
  -1   0  -8   34.51    1.53
   1   0   8   35.45    1.13
   1   0   9    0.29    0.20
  -1   0  -9   -0.09    0.37
  -1   0 -10   89.00    2.77
   1   0  10   88.44    2.02
  -1   0 -11    0.06    0.39
   1   0  11    0.15    0.23
   1   0  12   34.17    1.40
  -1   0 -12   30.92    1.86
  -1   0 -13   -0.13    0.39
   1   0  13   -0.04    0.17
  -1   0 -14    1.28    0.53
  -1   0 -15    0.07    0.48
  -1   0 -16   18.54    1.74
  -1   0 -17   -0.13    0.44
  -1   0 -18    2.33    0.80
  -1   0 -19   -1.76    0.73
   1   1 -20    1.89    0.72
   1  -1 -19    0.73    0.58
   1   1 -19    0.13    0.42
   1  -1 -18    6.18    1.13
  -1  -1  18    7.71    0.99
   1   1 -18    5.31    1.05
  -1  -1  17    0.47    0.40
   1   1 -17   -0.11    0.43
   1  -1 -17    0.37    0.43
   1  -1 -16    7.12    1.10
  -1  -1  16    7.88    0.96
   1   1 -16    8.11    1.13
   1   1 -15    0.70    0.43
  -1  -1  15    0.60    0.42
   1  -1 -15    0.75    0.46
   1   1 -14   10.17    1.16
  -1  -1  14    9.14    0.94
   1  -1 -14    9.59    1.18
   1   1 -13    1.50    0.29
   1   1 -13    1.77    0.57
   1  -1 -13    1.75    0.62
  -1  -1  13    1.25    0.43
   1  -1 -12   39.15    1.40
   1  -1 -12   42.98    2.17
  -1  -1  12   37.92    1.74
  -1   1  12   39.79    1.42
   1   1 -12   40.07    1.99
   1   1 -12   42.39    1.41
  -1  -1  11    0.25    0.33
   1  -1 -11   -0.25    0.17
  -1   1  11    0.39    0.22
   1   1 -11   -0.02    0.11
   1   1 -11    0.29    0.41
   1  -1 -11    0.23    0.43
  -1   1  10   10.85    0.68
   1  -1 -10   10.15    0.72
   1  -1 -10   10.00    0.99
   1  -1 -10   10.60    0.41
  -1  -1  10   10.32    0.88
   1   1 -10    9.66    0.63
   1  -1  -9   -0.23    0.15
   1   1  -9    0.03    0.12
   1  -1  -9    0.14    0.08
  -1  -1   9    0.31    0.31
  -1   1   9    0.01    0.15
   1  -1  -9    0.22    0.33
  -1  -1   8   77.57    2.06
  -1   1   8   77.67    1.63
   1   1  -8   77.84    1.61
   1  -1  -8   77.43    2.29
  -1   1   7    6.87    0.47
   1  -1  -7    7.31    0.69
   1   1  -7    6.95    0.45
   1   1  -6   18.63    0.86
   1  -1  -6   17.69    0.95
  -1   1   6   16.97    0.69
   1  -1  -5    0.47    0.25
   1   1  -5    0.24    0.20
  -1   1   5    0.09    0.11
   1  -1  -4   40.36    1.15
   1   1  -4   41.01    1.14
  -1   1   4   42.54    0.99
   1   1  -3   24.88    0.84
   1  -1  -3   24.28    0.78
  -1   1   3   25.12    0.75
  -1   1   2    8.85    0.45
  -1   1   2    9.52    0.54
   1  -1  -2    8.84    0.40
   1   1  -2    9.10    0.50
  -1   1   1  178.10    2.04
   1  -1  -1  183.01    1.33
   1   1  -1  181.83    2.13
  -1   1   1  177.69    2.20
   1   1   0  162.26    2.03
  -1   1   0  160.71    2.09
   1   1   1   79.16    1.42
  -1  -1  -1   78.33    1.32
  -1   1  -1   77.90    1.46
   1   1   2  168.19    2.11
  -1   1  -2  168.41    2.16
  -1   1  -2  168.69    1.54
  -1  -1  -2  168.96    2.13
  -1   1  -2  172.39    1.39
  -1  -1  -3   15.67    0.74
   1   1   3   15.28    0.41
  -1   1  -3   15.11    0.55
  -1   1  -3   15.63    0.69
  -1   1  -3   15.63    0.54
  -1  -1  -3   15.34    0.73
  -1  -1  -4  383.69    3.97
   1   1   4  381.92    2.06
  -1   1  -4  382.72    3.50
  -1   1  -4  385.92    3.28
  -1   1  -4  385.04    3.15
  -1  -1  -4  391.73    3.79
  -1   1  -5   35.21    1.08
  -1  -1  -5   34.75    1.16
  -1  -1  -5   34.49    1.32
  -1   1  -5   32.66    1.09
  -1   1  -5   33.84    1.10
  -1   1  -5   34.79    1.05
   1   1   5   36.29    0.69
  -1   1  -6   63.35    1.56
  -1  -1  -6   61.31    1.59
  -1   1  -6   61.90    1.65
   1   1   6   60.07    1.00
  -1  -1  -6   60.66    1.85
  -1  -1  -6   61.38    1.29
  -1   1  -6   61.20    1.45
   1   1   7    3.87    0.28
  -1   1  -7    4.05    0.40
  -1  -1  -7    3.24    0.38
  -1   1  -7    4.14    0.51
  -1  -1  -7    3.27    0.54
  -1  -1  -7    4.25    0.36
   1   1   8   27.52    0.80
  -1   1  -8   28.61    1.33
  -1  -1  -8   29.30    0.89
  -1   1  -8   27.36    1.07
  -1  -1  -8   28.26    1.14
  -1  -1  -8   27.37    1.45
  -1  -1  -9    5.49    0.39
  -1   1  -9    6.01    0.55
  -1  -1  -9    6.88    0.83
  -1   1  -9    5.98    0.71
  -1  -1  -9    6.50    0.57
   1   1   9    6.09    0.42
  -1   1 -10    5.07    0.68
  -1  -1 -10    5.33    0.38
  -1  -1 -10    7.15    0.89
   1   1  10    6.10    0.44
  -1  -1 -10    6.17    0.58
  -1   1 -10    5.88    0.56
  -1  -1 -11   13.80    1.26
   1  -1  11   11.79    0.94
  -1   1 -11   13.74    1.15
  -1   1 -11   13.52    0.87
  -1  -1 -12   23.40    1.68
  -1   1 -12   27.04    1.66
   1  -1  12   23.94    1.38
  -1   1 -12   22.43    1.17
  -1  -1 -13   16.14    1.47
   1  -1  13   13.79    1.10
  -1   1 -13   13.42    1.26
  -1   1 -13   14.53    0.98
  -1   1 -14   13.71    1.34
   1  -1  14   16.79    1.26
  -1  -1 -14   16.40    1.53
  -1   1 -15    3.85    0.81
   1  -1  15    4.25    0.68
  -1  -1 -15    2.97    0.75
  -1   1 -16    4.97    0.90
  -1  -1 -16    5.91    1.06
   1  -1  16    6.18    0.83
  -1   1 -17   -0.87    0.48
  -1  -1 -17    0.27    0.49
  -1  -1 -18   10.91    1.52
  -1   1 -18    9.22    1.32
  -1   1 -19   -0.46    0.44
  -1  -2  19    0.32    0.41
   1  -2 -18    1.13    0.57
  -1  -2  18    0.54    0.41
   1  -2 -17    2.10    0.68
  -1  -2  17    2.81    0.71
   1   2 -17    2.23    0.64
   1   2 -16    0.74    0.47
  -1  -2  16    0.46    0.45
   1  -2 -16    0.34    0.32
  -1  -2  15   10.34    1.16
   1  -2 -15    9.82    1.28
   1   2 -15   10.34    1.17
   1  -2 -14    0.68    0.50
  -1  -2  14    0.40    0.36
   1   2 -14    0.38    0.31
  -1  -2  13    1.81    0.57
   1   2 -13    1.86    0.38
   1  -2 -13    1.40    0.38
   1   2 -13    1.86    0.51
   1  -2 -13    1.52    0.57
   1   2 -12    5.07    0.72
  -1  -2  12    6.02    0.85
   1  -2 -12    5.43    0.73
   1  -2 -12    5.00    0.79
   1   2 -12    5.97    0.62
   1  -2 -11    6.48    0.86
   1   2 -11    7.94    0.85
   1   2 -11    6.65    0.64
   1  -2 -11    6.71    0.78
  -1  -2  11    7.28    0.91
   1  -2 -10   58.75    2.35
   1   2 -10   57.32    1.79
  -1   2   9    0.05    0.13
   1   2  -9   -0.13    0.31
   1  -2  -9    0.00    0.26
   1   2  -9    0.03    0.13
  -1  -2   8   13.71    0.59
   1   2  -8   13.61    0.99
  -1   2   8   15.49    0.83
   1  -2  -8   14.07    1.04
   1   2  -7   11.28    0.88
   1  -2  -7   12.04    0.91
  -1   2   7   11.38    0.70
  -1   2   6    0.11    0.14
   1   2  -6    0.38    0.32
   1  -2  -6   -0.04    0.25
  -1   2   6    0.13    0.34
  -1   2   5   12.37    0.72
   1  -2  -5   11.59    0.76
   1   2  -5   13.45    0.90
  -1   2   5   12.37    0.92
   1   2  -4   41.08    1.51
  -1   2   4   39.62    1.28
   1  -2  -4   39.32    1.25
  -1   2   4   41.28    1.59
  -1   2   3    4.67    0.59
  -1   2   3    5.68    0.50
   1   2  -3    4.83    0.56
   1  -2  -3    4.43    0.38
  -1   2   2   13.95    0.92
   1   2  -2   14.11    0.88
   1  -2  -2   12.92    0.53
   1  -2  -1   34.37    0.65
   1   2  -1   34.38    1.35
  -1   2   1   35.54    1.41
   1   2   0   25.50    1.18
  -1   2   0   25.51    1.20
  -1   2  -1    3.27    0.49
   1   2   1    2.68    0.44
  -1   2  -2   38.36    1.46
  -1  -2  -2   39.52    1.20
   1   2   2   39.48    1.46
  -1   2  -3    1.20    0.12
   1   2   3    1.40    0.35
  -1  -2  -3    1.74    0.30
  -1   2  -3    1.38    0.35
  -1   2  -3    1.46    0.12
  -1   2  -4    0.03    0.04
  -1   2  -4   -0.05    0.26
   1   2   4    0.22    0.26
  -1   2  -4    0.01    0.07
  -1  -2  -4   -0.11    0.18
  -1   2  -5    5.06    0.61
  -1  -2  -5    3.80    0.55
  -1   2  -5    4.87    0.37
  -1  -2  -5    5.03    0.57
   1   2   5    4.58    0.58
  -1   2  -6   12.64    0.92
  -1  -2  -6   13.80    0.98
   1   2   6   15.52    1.05
  -1   2  -6   13.37    0.70
  -1  -2  -6   12.70    0.99
  -1  -2  -7    3.09    0.51
  -1  -2  -7    3.36    0.56
  -1   2  -7    3.17    0.53
   1   2   7    3.13    0.29
  -1   2  -7    3.65    0.42
  -1   2  -8   10.19    0.75
  -1  -2  -8    9.58    0.93
  -1   2  -8   11.05    0.81
  -1  -2  -8   10.83    0.94
  -1   2  -8   13.02    0.97
  -1  -2  -9    2.64    0.49
  -1   2  -9    3.47    0.55
  -1   2  -9    3.06    0.47
  -1   2  -9    3.90    0.51
  -1  -2  -9    2.49    0.57
  -1  -2  -9    2.74    0.42
  -1  -2 -10    3.55    0.58
  -1  -2 -10    3.91    0.46
  -1  -2 -10    4.32    0.76
  -1   2 -10    4.30    0.59
  -1   2 -10    2.92    0.46
  -1   2 -11   -0.07    0.23
  -1  -2 -11   -0.06    0.22
  -1   2 -11    0.18    0.18
  -1  -2 -11    0.18    0.34
  -1  -2 -12    1.30    0.47
  -1   2 -12    0.93    0.30
  -1   2 -12    0.28    0.25
  -1  -2 -12    0.85    0.32
  -1   2 -13    1.75    0.40
  -1   2 -13    2.71    0.58
  -1  -2 -13    2.41    0.50
   1  -2  13    2.35    0.59
  -1  -2 -13    2.21    0.70
  -1  -2 -14    0.56    0.40
  -1   2 -14    0.64    0.28
   1  -2  14    1.60    0.58
  -1   2 -14    0.85    0.36
  -1  -2 -15   -0.37    0.42
   1  -2  15    0.17    0.37
  -1  -2 -16    1.97    0.71
   1  -2  16    1.25    0.54
   1  -2  17   -0.47    0.42
  -1  -2 -17   -0.26    0.46
   1  -2  18   -0.41    0.37
   1  -3 -17    1.93    0.67
   1  -3 -16    2.95    0.81
  -1  -3  16    3.31    0.82
  -1   3  16    2.85    0.75
  -1   3  15    0.01    0.40
  -1  -3  15    0.35    0.36
   1  -3 -15    0.48    0.34
   1  -3 -14    0.10    0.22
  -1   3  14    0.09    0.36
   1  -3 -13    1.91    0.55
  -1  -3  13    2.03    0.67
  -1   3  13    1.02    0.56
   1  -3 -13    0.94    0.40
  -1   3  12    0.17    0.39
   1   3 -12   -0.06    0.14
   1  -3 -12   -0.60    0.34
   1  -3 -12    0.00    0.32
  -1   3  11   10.77    1.22
   1  -3 -11   11.76    1.17
   1   3 -11    9.42    1.03
   1  -3 -11    9.11    1.10
   1   3 -11    9.52    0.88
  -1   3  10    6.09    0.92
   1   3 -10    7.00    0.89
   1  -3 -10    5.80    0.89
   1  -3 -10    7.43    0.91
   1   3  -9    3.75    0.66
  -1   3   9    4.04    0.73
   1  -3  -9    3.80    0.63
   1  -3  -8   12.08    1.02
   1   3  -8   11.63    1.09
  -1   3   8   12.50    1.21
   1   3  -7    0.63    0.40
   1  -3  -7    0.58    0.26
  -1   3   7    0.36    0.47
  -1   3   6   10.28    1.05
   1   3  -6   11.13    1.02
  -1   3   5    0.51    0.40
   1   3  -5    0.48    0.39
  -1   3   4    0.68    0.46
   1   3  -4    0.08    0.33
   1   3  -3    0.09    0.32
  -1   3   3    0.10    0.42
  -1   3   2   12.59    1.11
   1   3  -2   12.19    1.06
  -1   3   1    7.63    0.90
   1   3  -1    6.20    0.79
   1   3   0    3.36    0.63
  -1   3   0    3.62    0.67
  -1   3  -1    5.12    0.73
   1   3   1    4.60    0.69
  -1   3  -2    0.38    0.45
   1   3   2    0.32    0.31
  -1   3  -3    9.48    0.96
   1   3   3    7.40    0.86
  -1   3  -4   55.10    2.20
  -1  -3  -4   55.36    1.76
   1   3   4   54.03    2.20
  -1   3  -5    0.94    0.48
  -1  -3  -5    1.31    0.34
   1   3   5    1.07    0.44
  -1  -3  -5    1.34    0.46
   1   3   6   17.14    1.30
  -1   3  -6   16.52    1.24
  -1  -3  -6   18.50    1.18
  -1  -3  -6   17.42    1.38
  -1  -3  -7    9.99    1.07
   1   3   7   12.04    1.13
  -1  -3  -7   12.08    1.02
  -1   3  -7   11.42    1.05
  -1  -3  -8    5.11    0.79
  -1   3  -8    5.96    0.82
  -1  -3  -8    7.00    0.86
   1   3   8    6.79    0.90
  -1  -3  -9    3.01    0.62
   1   3   9    3.21    0.68
  -1  -3  -9    2.57    0.59
  -1   3  -9    2.97    0.63
  -1   3 -10    1.30    0.36
  -1  -3 -10    1.37    0.48
   1   3  10    1.53    0.61
  -1  -3 -10    1.70    0.53
  -1   3 -10    1.28    0.46
   1   3  11   -0.18    0.43
  -1  -3 -11    0.81    0.44
  -1   3 -11   -0.20    0.23
  -1  -3 -11   -0.19    0.27
  -1   3 -11    0.12    0.29
   1   3  12    8.79    1.13
  -1  -3 -12    8.78    1.13
  -1  -3 -12    7.63    1.00
  -1   3 -12    8.33    0.90
  -1   3 -13    1.60    0.41
  -1  -3 -13    1.30    0.44
  -1  -3 -13    1.48    0.53
   1   3  13    1.51    0.54
   1  -3  14    1.45    0.57
  -1  -3 -14    1.97    0.54
  -1   3 -14    2.93    0.57
  -1  -3 -14    2.60    0.69
   1   3  14    1.63    0.60
   1  -3  15    1.39    0.54
   1   3  15    0.82    0.45
  -1  -3 -15    2.55    0.72
  -1  -3 -16   14.56    1.70
   1   3  16   13.39    1.56
   1  -3  16   11.52    1.40
   1  -4 -13   -0.42    0.33
  -1   4  13   -0.99    0.55
  -1   4  12    1.33    0.62
   1  -4 -12    1.10    0.57
   1   4 -12    2.27    0.66
  -1   4  11   -0.23    0.43
   1   4 -11    0.02    0.37
  -1   4  10    3.63    0.82
   1   4 -10    5.41    0.88
   1  -4 -10    4.08    0.88
  -1   4   9    0.35    0.53
   1   4  -9    0.51    0.45
   1  -4  -9   -0.43    0.39
  -1   4   8    0.73    0.47
   1   4  -8    1.06    0.45
   1   4  -7    0.45    0.42
  -1   4   7    0.48    0.44
   1   4  -6    6.40    0.94
  -1   4   6    5.42    0.92
   1   4  -5    1.63    0.57
  -1  -4   5    1.09    0.42
  -1   4   5    2.53    0.67
   1   4  -4    2.86    0.67
  -1  -4   4    2.05    0.52
  -1   4   3    0.56    0.42
   1   4  -3    0.38    0.39
   1   4  -2    0.11    0.38
  -1   4   2    0.01    0.41
  -1   4   1   14.31    1.36
   1   4  -1   16.51    1.42
   1   4   0   21.12    1.61
  -1   4   0   22.07    1.66
  -1  -4  -1    0.47    0.35
  -1   4  -1    0.05    0.33
   1   4   1   -0.13    0.35
   1   4   2    0.96    0.49
  -1  -4  -2    0.04    0.26
  -1   4  -2    0.64    0.41
   1   4   3    0.15    0.34
  -1   4  -3    0.11    0.33
  -1  -4  -3    0.12    0.35
  -1   4  -4    0.38    0.36
  -1  -4  -4    0.74    0.46
   1   4   4    0.45    0.33
  -1  -4  -5    0.85    0.42
   1   4   5    1.30    0.54
  -1   4  -5    1.23    0.54
  -1  -4  -6    0.05    0.24
   1   4   6    0.87    0.47
  -1   4  -6    0.06    0.35
   1   4   7    2.91    0.74
  -1  -4  -7    2.84    0.70
  -1   4  -7    3.63    0.75
  -1   4  -8    1.03    0.49
  -1  -4  -8    1.99    0.61
   1   4   8    2.02    0.60
  -1   4  -9    3.08    0.75
   1   4   9    2.40    0.65
  -1  -4  -9    1.75    0.59
  -1  -4 -10    1.17    0.60
  -1   4 -10    0.63    0.41
   1   4  10    0.57    0.49
  -1   4 -11   13.41    1.40
   1   4  11   15.13    1.60
  -1  -4 -11   13.30    1.50
  -1   4 -11   12.33    1.21
  -1   4 -12    1.09    0.40
  -1  -4 -12    1.69    0.61
   1   4  12    1.90    0.80
  -1   4 -12    0.95    0.45
   1  -5  -5    0.78    0.45
  -1   5   5    0.14    0.42
   1   5  -5    0.75    0.51
  -1   5   4    8.43    1.23
   1  -5  -4    6.06    1.10
   1   5  -4    6.90    1.07
  -1   5   3    1.45    0.60
   1   5  -3    2.21    0.72
  -1  -5   3    2.02    0.61
   1   5  -2    8.55    1.19
  -1   5   2    6.22    1.03
  -1  -5   2    6.24    0.99
  -1   5   1    2.86    0.74
  -1  -5   1    1.72    0.59
   1   5  -1    2.52    0.74
   1   5   0    4.42    0.88
  -1  -5   0    4.66    0.94
  -1   5  -1    0.42    0.44
   1   5   1   -0.41    0.59
  -1  -5  -1   -0.31    0.39
  -1   5  -2    3.18    0.77
  -1  -5  -2    2.71    0.71
   1   5   2    3.36    0.79
  -1  -5  -3    0.20    0.34
   1   5   3    0.67    0.50
  -1   5  -3    0.36    0.38
  -1   5  -4    0.61    0.42
   1   5   4    0.83    0.50
  -1  -5  -5    0.23    0.36
   1   5   5   -0.22    0.42
   2   0 -20   -0.08    0.45
   2   0 -19   -0.67    0.42
   2   0 -18    0.70    0.56
   2   0 -17    0.43    0.47
  -2   0  16   47.09    2.06
   2   0 -16   45.64    2.62
   2   0 -15   -0.16    0.38
  -2   0  15    0.09    0.23
   2   0 -14    8.87    1.12
  -2   0  14   11.14    0.94
   2   0 -13    0.03    0.42
  -2   0  13    0.10    0.22
  -2   0  12   40.73    1.64
  -2   0  11    0.17    0.26
  -2   0  10   23.20    1.15
   2   0 -10   22.96    0.59
   2   0  -9   -0.03    0.05
  -2   0   9    0.03    0.21
  -2   0   8    0.46    0.27
  -2   0   7    0.07    0.20
  -2   0   6  231.19    2.77
  -2   0   5    0.03    0.14
  -2   0   4 1000.00    4.87
  -2   0   3    0.07    0.15
  -2   0   3    0.07    0.04
  -2   0  -2   44.28    1.05
  -2   0  -2   41.51    0.88
  -2   0  -2   40.79    1.04
  -2   0  -2   43.54    0.82
  -2   0  -3    0.02    0.12
  -2   0  -3    0.11    0.11
  -2   0  -3    0.00    0.16
  -2   0  -4   73.00    1.67
  -2   0  -4   72.93    1.71
  -2   0  -4   71.45    1.39
  -2   0  -5   -0.04    0.11
  -2   0  -5    0.05    0.24
  -2   0  -5    0.06    0.16
  -2   0  -6  305.20    4.11
  -2   0  -6  301.98    4.03
  -2   0  -7   -0.33    0.29
  -2   0  -8   24.84    1.35
   2   0   8   21.81    0.88
   2   0   9    0.04    0.17
  -2   0  -9   -0.04    0.37
  -2   0 -10   71.14    2.57
   2   0  10   71.64    1.78
   2   0  11   -0.20    0.21
  -2   0 -11   -0.66    0.51
   2   0  12    8.53    0.69
  -2   0 -12    9.10    1.06
  -2   0 -13    0.03    0.41
  -2   0 -14    4.12    0.81
  -2   0 -15    0.32    0.46
  -2   0 -16    0.95    0.54
  -2   0 -17   -0.47    0.55
  -2   0 -18    2.08    0.71
   2   1 -20    1.11    0.55
   2  -1 -19   -0.55    0.49
   2   1 -19   -0.36    0.45
   2   1 -18   -0.78    0.48
  -2  -1  18   -0.33    0.30
   2  -1 -18   -0.19    0.42
   2   1 -17    0.17    0.33
  -2  -1  17    0.53    0.42
   2  -1 -17    0.75    0.52
   2   1 -16    0.98    0.50
   2  -1 -16    1.08    0.68
  -2  -1  16    0.97    0.44
  -2  -1  15    0.09    0.32
   2   1 -15   -0.64    0.42
   2   1 -14   21.20    1.62
   2  -1 -14   21.74    1.71
  -2   1  14   22.24    1.22
  -2  -1  14   24.21    1.57
   2  -1 -13   -0.03    0.44
  -2  -1  13    0.16    0.35
  -2   1  13    0.78    0.28
   2   1 -12   31.19    1.13
   2  -1 -12   29.30    1.24
   2  -1 -12   29.52    1.78
  -2   1  12   33.59    1.38
  -2  -1  12   30.24    1.58
  -2   1  11    2.40    0.38
   2   1 -11    2.22    0.31
   2  -1 -11    2.37    0.36
  -2  -1  11    2.16    0.50
   2  -1 -11    1.54    0.51
   2   1 -10    6.56    0.47
  -2  -1  10    6.70    0.73
   2  -1 -10    6.81    0.82
  -2   1  10    6.48    0.57
   2   1  -9   13.69    0.65
  -2  -1   9   12.66    0.94
  -2   1   9   13.09    0.76
   2   1  -8   38.19    1.02
  -2  -1   8   39.06    1.50
  -2   1   8   40.03    1.26
  -2  -1   7   40.88    1.45
   2   1  -7   39.67    1.01
  -2   1   7   41.87    1.24
  -2  -1   6    4.32    0.49
  -2   1   6    5.30    0.44
  -2  -1   5   72.20    1.69
  -2   1   5   72.92    1.51
   2   1  -5   78.30    1.63
  -2   1   4   24.14    0.84
  -2  -1   4   24.60    0.62
   2   1  -4   23.70    0.86
  -2  -1   3  113.77    1.46
  -2   1   3  113.83    1.76
   2   1  -3  113.45    1.75
   2   1  -2  501.02    3.53
  -2  -1   2  512.11    3.35
  -2   1   2  502.09    3.72
  -2  -1   1  178.47    1.65
  -2   1   1  171.73    2.20
  -2  -1   1  168.23    2.05
   2   1  -1  171.84    2.03
  -2   1   1  174.36    2.21
  -2  -1   0  337.78    3.05
  -2   1   0  330.20    3.06
   2   1   0  339.21    2.85
  -2   1   0  338.32    3.19
  -2  -1   0  344.17    2.64
  -2  -1  -1  103.06    1.76
  -2  -1  -1   98.10    1.73
   2   1   1  100.94    1.57
  -2  -1  -1  101.63    1.66
  -2   1  -1  102.59    1.69
  -2  -1  -2   62.28    1.46
   2   1   2   60.64    1.25
  -2  -1  -2   57.39    1.38
  -2   1  -2   59.40    1.00
  -2  -1  -2   58.74    1.43
  -2   1  -2   60.69    1.22
  -2   1  -2   59.79    1.30
  -2   1  -3   80.50    1.50
  -2  -1  -3   80.31    1.69
  -2  -1  -3   78.33    1.79
  -2   1  -3   79.03    1.54
  -2   1  -3   79.29    1.37
  -2  -1  -3   79.50    1.84
  -2   1  -4    0.12    0.13
  -2  -1  -4    0.16    0.15
  -2   1  -4    0.03    0.16
  -2   1  -4    0.04    0.10
  -2  -1  -4    0.61    0.19
  -2   1  -4    0.06    0.11
  -2  -1  -4    0.68    0.23
  -2  -1  -4   -0.07    0.21
  -2   1  -5    4.22    0.40
  -2   1  -5    3.50    0.40
  -2  -1  -5    4.17    0.37
  -2   1  -5    4.40    0.44
  -2   1  -5    4.15    0.41
  -2  -1  -5    4.59    0.45
  -2  -1  -5    4.27    0.54
  -2   1  -6  184.18    2.70
  -2  -1  -6  182.31    2.38
  -2   1  -6  181.88    2.92
  -2  -1  -6  184.24    2.85
   2   1   6  178.91    1.29
  -2   1  -6  181.16    2.90
  -2   1  -6  185.77    2.67
  -2  -1  -6  184.88    3.38
  -2  -1  -7   21.70    0.83
  -2  -1  -7   21.33    1.00
  -2   1  -7   19.92    1.06
  -2  -1  -7   19.36    1.21
  -2   1  -7   20.89    0.96
  -2   1  -7   22.82    1.13
   2   1   7   21.30    0.53
   2   1   8   27.08    0.68
  -2  -1  -8   28.10    0.96
  -2   1  -8   27.15    1.15
  -2  -1  -8   27.70    1.53
  -2   1  -8   26.68    1.32
  -2  -1  -8   29.45    1.22
  -2  -1  -9   48.33    2.11
  -2   1  -9   46.71    1.86
  -2   1  -9   46.31    1.56
  -2  -1  -9   49.44    1.28
  -2  -1 -10    8.21    0.52
  -2  -1 -10    8.18    0.99
  -2   1 -10    8.21    0.86
  -2   1 -10    8.46    0.70
  -2   1 -11   22.26    1.18
  -2  -1 -11   24.70    1.67
  -2   1 -11   22.97    1.48
  -2  -1 -12    5.73    0.91
  -2   1 -12    5.39    0.78
   2  -1  12    7.19    0.79
  -2   1 -12    6.09    0.66
  -2  -1 -13    0.72    0.51
  -2   1 -13    0.77    0.44
  -2   1 -13    1.06    0.31
   2  -1  13    0.53    0.34
  -2   1 -14    1.92    0.61
  -2  -1 -14    2.46    0.70
   2  -1  14    2.87    0.56
  -2  -1 -15    0.10    0.44
  -2   1 -15   -1.01    0.46
   2  -1  15   -0.08    0.23
  -2  -1 -16    3.95    0.92
  -2   1 -16    1.09    0.52
  -2   1 -17    0.36    0.41
  -2  -1 -17    0.66    0.57
  -2  -1 -18    4.38    1.03
  -2   1 -18    3.99    0.89
  -2   1 -19   -0.03    0.38
  -2  -2  19    0.11    0.29
  -2  -2  18   -0.01    0.44
   2  -2 -18    0.78    0.49
  -2  -2  17   -0.04    0.38
   2   2 -17    0.09    0.35
   2  -2 -17   -0.44    0.44
   2  -2 -16   22.40    1.92
   2   2 -16   21.60    1.74
  -2  -2  16   24.62    1.82
   2  -2 -15    1.12    0.54
   2   2 -15    2.62    0.62
  -2  -2  15    3.06    0.73
   2  -2 -14    1.30    0.54
   2   2 -14    1.38    0.43
  -2  -2  14    1.48    0.50
   2   2 -13   12.81    1.18
   2  -2 -13   11.81    1.04
  -2  -2  13   13.81    1.26
   2  -2 -13   12.55    1.26
   2  -2 -12    8.58    0.92
   2   2 -12    8.54    0.69
  -2  -2  12    8.51    1.00
   2  -2 -12    8.81    1.03
  -2   2  11    0.39    0.21
  -2  -2  11    0.21    0.45
   2   2 -11    0.13    0.13
   2  -2 -11    0.42    0.35
  -2  -2  10   15.43    1.21
  -2   2  10   15.60    0.94
   2   2 -10   15.75    0.90
   2  -2 -10   15.84    1.21
   2   2  -9    2.45    0.47
   2  -2  -9    2.30    0.46
  -2   2   9    2.64    0.40
   2   2  -8   -0.19    0.31
  -2  -2   8   -0.27    0.10
  -2   2   8   -0.07    0.15
   2  -2  -8   -0.09    0.26
  -2  -2   7    5.10    0.39
   2   2  -7    5.30    0.64
  -2   2   7    4.95    0.52
   2  -2  -7    4.53    0.56
   2   2  -6   59.00    1.86
  -2  -2   6   59.14    1.41
   2  -2  -6   58.35    1.77
  -2   2   6   58.40    2.02
  -2   2   6   59.73    1.70
  -2   2   5   15.99    1.05
  -2  -2   5   15.17    0.76
  -2   2   5   14.46    0.84
   2  -2  -5   13.83    0.80
   2   2  -5   15.77    0.95
   2   2  -4  220.18    3.41
  -2  -2   4  210.64    2.98
  -2   2   4  205.30    3.54
   2  -2  -4  208.02    2.75
  -2   2   4  216.32    3.19
   2   2  -3    9.72    0.74
  -2   2   3    8.71    0.75
  -2  -2   3   10.00    0.69
   2  -2  -3    9.07    0.50
  -2   2   3    9.92    0.72
   2  -2  -2   15.90    0.54
  -2   2   2   15.94    0.98
  -2  -2   2   14.24    0.84
   2   2  -2   17.52    0.97
  -2   2   2   16.50    0.91
   2   2  -1   70.16    1.89
  -2   2   1   73.05    2.03
  -2  -2   1   66.00    1.85
   2   2   0   49.11    1.59
  -2   2   0   51.69    1.71
  -2  -2   0   49.66    1.65
   2   2   1  124.67    2.56
  -2   2  -1  122.41    2.62
  -2  -2  -1  118.89    2.65
  -2  -2  -2    1.40    0.35
  -2   2  -2    1.32    0.36
   2   2   2    1.14    0.33
  -2  -2  -2    1.85    0.33
  -2  -2  -3    1.77    0.39
  -2   2  -3    1.10    0.36
  -2   2  -3    0.94    0.16
  -2  -2  -3    0.88    0.25
   2   2   3    0.99    0.32
   2   2   4    0.00    0.24
  -2  -2  -4    0.10    0.21
  -2   2  -4    0.56    0.33
  -2  -2  -4    0.19    0.23
  -2   2  -4    0.24    0.10
  -2   2  -4    0.24    0.10
   2   2   5   11.24    0.85
  -2  -2  -5    9.64    0.84
  -2   2  -5   10.50    0.57
  -2  -2  -5   10.36    0.85
  -2   2  -5   11.02    0.86
  -2   2  -5   10.19    0.55
  -2  -2  -6   10.09    0.89
   2   2   6   12.44    0.92
  -2   2  -6   11.32    0.66
  -2   2  -6   11.37    0.88
  -2  -2  -6   12.05    0.96
  -2   2  -6   10.84    0.63
  -2  -2  -7    1.64    0.46
  -2   2  -7    1.72    0.33
  -2   2  -7    1.44    0.40
  -2  -2  -7    1.33    0.37
  -2   2  -7    1.13    0.29
   2   2   7    1.61    0.45
  -2  -2  -8   69.07    2.52
  -2  -2  -8   67.91    1.97
  -2  -2  -8   68.94    2.33
  -2   2  -8   70.63    1.97
  -2   2  -8   69.37    2.12
  -2   2  -8   68.23    2.14
  -2  -2  -9    5.50    0.58
  -2   2  -9    5.61    0.62
  -2   2  -9    4.12    0.54
  -2  -2  -9    5.60    0.70
  -2  -2  -9    5.34    0.78
  -2   2  -9    5.43    0.66
  -2   2 -10    0.58    0.27
  -2  -2 -10   -0.30    0.24
  -2  -2 -10   -0.22    0.43
  -2  -2 -10    0.20    0.15
  -2   2 -10    0.01    0.22
  -2   2 -11   -0.36    0.25
  -2   2 -11   -0.19    0.22
  -2  -2 -11   -0.73    0.42
  -2  -2 -11    0.19    0.20
  -2  -2 -12    6.04    0.76
  -2   2 -12    5.48    0.69
  -2   2 -12    6.42    0.79
  -2  -2 -12    5.75    0.96
  -2   2 -13    0.55    0.28
  -2  -2 -13   -0.08    0.32
  -2   2 -13    0.09    0.21
  -2  -2 -14    0.01    0.44
  -2   2 -14    0.43    0.22
   2  -2  14    0.15    0.33
  -2  -2 -15    0.10    0.33
  -2   2 -15    0.37    0.23
   2  -2  15    0.39    0.41
   2  -2  16    0.34    0.32
  -2  -2 -16   -0.30    0.45
   2  -2  17    2.66    0.67
  -2  -2 -17    1.94    0.73
   2  -3 -17    0.57    0.41
  -2  -3  16    0.91    0.49
  -2   3  16    1.45    0.66
   2  -3 -16    1.21    0.48
  -2  -3  15    1.87    0.63
  -2   3  15    1.98    0.70
   2  -3 -15    1.21    0.52
  -2  -3  14    0.74    0.47
   2  -3 -14    0.18    0.24
  -2   3  14    0.77    0.55
   2  -3 -13    0.39    0.33
  -2   3  13    1.19    0.61
  -2  -3  13    0.32    0.33
   2  -3 -13    0.16    0.26
  -2  -3  12   10.29    1.20
  -2   3  12   12.08    1.34
   2  -3 -12   10.55    1.19
   2  -3 -12    9.36    1.10
  -2  -3  11    1.43    0.55
  -2   3  11    1.92    0.58
   2  -3 -11    1.89    0.52
   2   3 -11    1.49    0.52
  -2   3  10   13.29    1.32
   2  -3 -10   12.36    1.12
   2   3 -10   14.36    1.23
   2   3  -9    2.79    0.59
  -2   3   9    3.94    0.76
   2  -3  -9    3.61    0.61
  -2   3   8   22.24    1.24
  -2   3   8   24.54    1.66
   2   3  -8   21.11    1.43
   2  -3  -8   22.80    1.34
  -2  -3   7   -0.19    0.17
  -2   3   7    0.23    0.16
   2   3  -7    0.14    0.32
  -2   3   7    0.69    0.53
   2   3  -6    0.68    0.39
  -2   3   6    0.32    0.39
  -2  -3   6   -0.07    0.17
  -2  -3   5    0.84    0.29
   2   3  -5    0.30    0.34
  -2   3   5    1.40    0.52
  -2  -3   4   36.01    1.60
  -2   3   4   34.56    1.80
   2   3  -4   35.16    1.74
  -2   3   3    0.56    0.41
   2   3  -3    0.66    0.35
  -2  -3   3    0.64    0.29
   2   3  -2    0.25    0.33
  -2  -3   2    0.32    0.27
  -2   3   2   -0.06    0.33
   2   3  -1    3.40    0.60
  -2  -3   1    2.80    0.51
  -2   3   1    3.71    0.66
   2   3   0    9.32    0.92
  -2   3   0    9.59    0.97
  -2  -3   0    9.07    0.91
  -2   3  -1    0.61    0.43
   2   3   1    0.55    0.39
  -2  -3  -1    0.79    0.33
  -2   3  -2   21.83    1.40
  -2  -3  -2   22.91    1.47
   2   3   2   20.87    1.34
  -2   3  -3    0.92    0.42
  -2  -3  -3    1.10    0.39
   2   3   3    1.32    0.48
  -2  -3  -4   24.51    1.59
  -2   3  -4   26.80    1.56
   2   3   4   27.55    1.56
  -2  -3  -4   25.55    1.31
  -2   3  -5   17.37    1.27
  -2  -3  -5   17.93    1.38
   2   3   5   15.47    1.21
  -2  -3  -5   17.13    1.13
   2   3   6    1.17    0.41
  -2  -3  -6    1.38    0.46
  -2   3  -6    1.17    0.45
  -2  -3  -6    1.16    0.35
  -2  -3  -7    2.80    0.56
   2   3   7    2.84    0.61
  -2  -3  -7    2.74    0.60
  -2   3  -7    1.72    0.51
  -2   3  -8   17.49    1.32
   2   3   8   17.66    1.39
  -2  -3  -8   15.30    1.34
  -2  -3  -8   16.31    1.30
  -2  -3  -9    1.39    0.45
  -2   3  -9    1.38    0.47
  -2  -3  -9    1.07    0.45
  -2  -3  -9    1.34    0.40
   2   3   9    1.15    0.43
  -2   3  -9    0.70    0.29
  -2  -3 -10   -0.11    0.24
   2   3  10   -0.10    0.40
  -2   3 -10   -0.12    0.26
  -2   3 -10    0.12    0.22
  -2  -3 -10   -0.04    0.23
  -2  -3 -10    0.26    0.30
  -2  -3 -11    0.32    0.30
   2   3  11    0.05    0.33
  -2  -3 -11   -0.57    0.39
  -2   3 -11    0.05    0.24
  -2   3 -12   10.37    1.03
   2   3  12   10.71    1.25
  -2  -3 -12    9.26    1.19
  -2  -3 -12    9.82    1.12
  -2  -3 -13    3.82    0.87
  -2  -3 -13    2.63    0.64
  -2   3 -13    3.54    0.64
   2   3  13    2.83    0.75
  -2  -3 -14    1.45    0.68
   2   3  14    0.46    0.45
  -2   3 -14    0.22    0.25
  -2  -3 -14    1.49    0.49
   2  -3  15    1.13    0.52
  -2  -3 -15    0.41    0.44
   2   3  15   -0.10    0.37
   2   3  16    0.44    0.46
  -2   4  13    1.59    0.64
   2  -4 -13    0.47    0.33
  -2  -4  12    3.86    0.86
   2  -4 -12    3.72    0.86
  -2   4  12    3.77    0.92
   2   4 -12    4.54    0.87
   2   4 -11    2.48    0.66
  -2   4  11    3.99    0.92
   2  -4 -11    2.12    0.69
  -2  -4  11    3.72    0.86
  -2   4  10    0.69    0.59
   2   4 -10    0.16    0.31
  -2   4   9    1.94    0.71
   2   4  -9    1.71    0.58
   2   4  -8    0.17    0.32
  -2   4   8    0.36    0.44
  -2   4   7    2.21    0.68
   2   4  -7    1.89    0.60
   2   4  -6    3.39    0.71
  -2   4   6    2.70    0.72
   2   4  -5    9.25    1.11
  -2   4   5   10.69    1.25
  -2  -4   5    7.90    0.91
   2   4  -4   26.79    1.79
  -2   4   4   27.57    1.91
  -2  -4   4   26.54    1.66
  -2  -4   3    6.24    0.85
  -2   4   3    6.22    0.95
   2   4  -3    7.18    0.96
   2   4  -2    1.34    0.57
  -2  -4   2    1.93    0.54
  -2   4   2    0.83    0.45
   2   4  -1   10.18    1.12
  -2   4   1    9.96    1.17
  -2  -4   1    9.28    1.09
  -2  -4   0    2.97    0.66
   2   4   0    4.09    0.76
  -2   4   0    3.21    0.73
  -2   4  -1    0.40    0.40
  -2  -4  -1    0.03    0.28
   2   4   1    0.80    0.45
  -2  -4  -2    0.88    0.41
  -2   4  -2    0.56    0.43
   2   4   2    0.11    0.42
   2   4   3    0.55    0.43
  -2   4  -3    0.12    0.33
  -2  -4  -3    0.91    0.44
  -2   4  -4    0.54    0.39
  -2  -4  -4    0.13    0.40
   2   4   4    0.63    0.43
  -2  -4  -5    1.94    0.61
  -2   4  -5    0.84    0.49
   2   4   5    1.53    0.50
  -2  -4  -6    1.35    0.52
  -2   4  -6    1.96    0.59
   2   4   6    2.78    0.70
   2   4   7    1.83    0.58
  -2   4  -7    1.47    0.54
  -2  -4  -7    0.89    0.48
   2   4   8    5.93    0.95
  -2  -4  -8    4.78    0.87
  -2   4  -8    5.10    0.85
  -2   4  -9    1.85    0.60
  -2  -4  -9    2.94    0.70
   2   4   9    2.79    0.72
  -2  -4 -10    0.44    0.39
  -2   4 -10    0.29    0.26
  -2   4 -10   -0.36    0.42
   2   4  10    0.64    0.46
   2   4  11   -0.02    0.28
  -2   4 -11   -0.68    0.32
  -2   4 -11    0.06    0.28
  -2  -4 -11   -0.56    0.42
   2   4  12    6.10    1.08
  -2  -4 -12    6.04    1.04
  -2   4 -12    4.20    0.74
  -2   4 -13   -0.08    0.22
   2   5  -5    3.31    0.76
  -2   5   5    2.95    0.81
   2   5  -4    1.08    0.48
  -2   5   4    1.96    0.67
  -2  -5   3    0.71    0.41
  -2   5   3    0.32    0.47
   2   5  -3    0.31    0.34
  -2   5   2   -1.43    0.59
   2   5  -2   -0.08    0.35
  -2  -5   2   -0.69    0.40
  -2   5   1   -0.04    0.40
   2   5  -1   -0.30    0.36
  -2  -5   1   -0.39    0.34
  -2  -5   0    3.44    0.84
   2   5   0    3.80    0.84
  -2   5   0    4.72    0.93
  -2   5  -1    1.15    0.56
   2   5   1    0.65    0.40
  -2  -5  -1    1.19    0.54
   2   5   2    0.34    0.34
  -2   5  -2   -0.12    0.34
  -2  -5  -2   -0.01    0.26
  -2   5  -3    1.77    0.59
  -2  -5  -3    1.29    0.58
  -2  -5  -4    0.35    0.41
  -2   5  -4   -0.35    0.47
   2   5   4    0.55    0.39
   2   5   5    1.07    0.50
   3   0 -20    0.26    0.38
   3   0 -19   -0.25    0.44
   3   0 -18    0.77    0.56
  -3   0  17   -0.06    0.26
   3   0 -17   -0.04    0.37
   3   0 -16   11.57    1.35
  -3   0  16   12.42    1.11
   3   0 -15    0.89    0.46
  -3   0  15    0.35    0.30
  -3   0  14    6.87    0.79
  -3   0  13    0.04    0.26
  -3   0  12   16.24    1.08
  -3   0  11   -0.10    0.24
  -3   0  10    2.16    0.41
  -3   0   9    0.04    0.21
  -3   0   8   46.07    1.47
  -3   0   7    0.19    0.25
  -3   0   6  208.33    2.79
  -3   0   5   -0.16    0.19
  -3   0   4   12.82    0.62
  -3   0   3   -0.03    0.15
  -3   0   3    0.00    0.07
  -3   0   2    6.52    0.23
  -3   0   2    6.61    0.32
  -3   0   2    7.36    0.39
  -3   0   1    0.17    0.10
  -3   0   1    0.34    0.09
  -3   0   1    0.26    0.10
  -3   0   0  148.67    1.57
  -3   0   0  150.20    1.54
  -3   0   0  146.30    1.63
  -3   0  -1    0.04    0.09
  -3   0  -1    0.11    0.11
  -3   0  -1    0.09    0.10
  -3   0  -1    0.20    0.19
  -3   0  -1    0.10    0.09
  -3   0  -2   56.39    1.17
  -3   0  -2   57.94    1.42
  -3   0  -2   59.74    1.43
  -3   0  -2   59.41    1.15
  -3   0  -2   60.66    1.03
  -3   0  -3    0.03    0.11
  -3   0  -3    0.03    0.15
  -3   0  -3    0.15    0.18
  -3   0  -4    0.18    0.17
  -3   0  -4    0.02    0.21
  -3   0  -4    0.46    0.19
  -3   0  -5    0.03    0.22
  -3   0  -5    0.00    0.16
  -3   0  -5   -0.03    0.14
  -3   0  -6    5.35    0.59
  -3   0  -6    5.05    0.61
  -3   0  -7    0.03    0.28
  -3   0  -7   -0.23    0.26
  -3   0  -8   24.98    1.41
  -3   0  -8   24.74    1.41
  -3   0  -9    0.54    0.39
   3   0   9    0.02    0.15
   3   0  10   15.31    0.83
  -3   0 -10   16.96    1.30
  -3   0 -11   -0.51    0.42
   3   0  11    0.00    0.17
  -3   0 -12   54.05    2.54
  -3   0 -13   -0.33    0.42
  -3   0 -14    2.16    0.64
  -3   0 -15   -0.44    0.39
  -3   0 -16    1.95    0.65
  -3   0 -17    1.00    0.54
  -3   0 -18   13.67    1.68
   3   1 -20    1.27    0.61
   3   1 -19    2.25    0.77
  -3  -1  19    3.30    0.70
   3  -1 -19    3.28    0.88
   3  -1 -18    1.74    0.69
  -3  -1  18    1.10    0.48
   3   1 -18    1.50    0.61
  -3  -1  17    4.14    0.75
   3  -1 -17    4.29    0.93
   3   1 -17    5.73    1.02
   3  -1 -16    3.79    0.83
   3   1 -16    3.86    0.80
  -3  -1  16    4.92    0.87
  -3   1  15    0.97    0.33
  -3  -1  15    1.61    0.56
   3  -1 -15    0.53    0.43
   3   1 -15    0.81    0.44
  -3  -1  14    2.93    0.61
  -3   1  14    4.21    0.57
   3  -1 -14    2.12    0.60
  -3  -1  13    0.34    0.38
  -3   1  13    0.22    0.20
   3  -1 -13    0.23    0.39
   3  -1 -12   40.84    2.07
  -3  -1  12   38.26    1.83
  -3   1  12   41.69    1.60
  -3   1  11    0.61    0.25
  -3  -1  11    0.98    0.45
   3   1 -11    0.74    0.18
   3   1 -10   44.13    1.12
  -3  -1  10   42.26    1.76
  -3   1  10   42.56    1.51
   3   1  -9   19.08    0.69
  -3   1   9   18.81    0.98
  -3  -1   9   17.24    1.10
  -3   1   8    0.47    0.21
   3   1  -8    0.59    0.14
  -3  -1   7    7.09    0.64
  -3   1   7    7.06    0.56
  -3  -1   6  100.06    2.18
  -3   1   6   99.39    1.97
  -3  -1   5   21.14    0.96
   3   1  -5   21.36    0.85
  -3   1   5   20.16    0.87
   3   1  -4   93.81    1.68
  -3  -1   4   93.68    1.84
  -3   1   4   92.11    1.80
   3   1  -3   81.23    1.46
  -3  -1   3   78.02    1.56
  -3   1   3   77.98    1.61
   3   1  -2  406.65    3.10
  -3  -1   2  412.10    3.32
  -3   1   2  410.91    3.56
  -3   1   2  413.34    3.70
  -3  -1   1  146.44    1.77
   3   1  -1  147.90    1.82
  -3  -1   1  146.10    2.08
  -3   1   1  150.54    2.09
  -3   1   1  143.69    2.20
  -3  -1   1  149.60    1.94
  -3  -1   0  203.58    1.84
   3   1   0  203.09    2.14
  -3  -1   0  202.54    2.44
  -3   1   0  202.84    2.66
  -3   1   0  205.75    2.45
  -3  -1   0  201.04    2.55
  -3   1  -1   51.71    1.21
   3   1   1   50.41    1.09
  -3  -1  -1   52.29    1.34
  -3   1  -1   53.33    1.41
  -3  -1  -1   47.98    1.26
  -3  -1  -1   50.58    0.77
  -3  -1  -1   49.72    1.32
  -3   1  -2   80.28    1.68
  -3  -1  -2   83.50    1.89
   3   1   2   81.16    1.42
  -3  -1  -2   81.78    1.74
  -3   1  -2   81.21    1.52
  -3  -1  -2   80.92    1.83
  -3  -1  -2   79.02    1.62
  -3   1  -2   81.94    1.42
  -3  -1  -2   79.19    0.70
  -3  -1  -3    2.27    0.33
  -3   1  -3    1.75    0.28
  -3   1  -3    2.06    0.28
  -3  -1  -3    2.19    0.33
  -3   1  -3    1.89    0.29
  -3  -1  -3    2.18    0.35
  -3   1  -3    1.84    0.26
  -3  -1  -3    2.09    0.39
  -3   1  -4   63.23    1.44
  -3   1  -4   63.49    1.57
  -3  -1  -4   62.58    1.86
  -3  -1  -4   66.44    1.93
  -3   1  -4   61.95    1.51
  -3  -1  -4   63.44    1.49
  -3  -1  -4   62.83    1.66
  -3   1  -4   61.70    1.61
  -3   1  -5   10.00    0.65
  -3  -1  -5   10.20    0.83
  -3   1  -5    9.59    0.66
  -3   1  -5   10.64    0.63
  -3  -1  -5   10.32    0.61
  -3   1  -5    9.46    0.68
  -3  -1  -5   11.32    0.87
  -3  -1  -6   43.11    1.79
  -3   1  -6   48.06    1.48
  -3  -1  -6   48.58    1.84
  -3   1  -6   48.15    1.58
  -3  -1  -6   48.27    1.33
  -3   1  -6   46.67    1.59
  -3   1  -7    1.94    0.35
  -3   1  -7    1.60    0.35
  -3  -1  -7    1.22    0.47
  -3   1  -7    1.49    0.35
  -3  -1  -7    1.68    0.28
  -3  -1  -8   56.88    1.48
  -3   1  -8   54.17    1.94
  -3   1  -8   53.62    1.71
  -3   1  -8   53.12    1.94
  -3  -1  -8   59.65    2.29
  -3  -1  -9    1.80    0.30
  -3   1  -9    1.27    0.31
  -3  -1  -9    1.55    0.54
  -3   1  -9    1.61    0.44
  -3   1 -10   53.57    1.85
  -3  -1 -10   56.76    1.51
  -3   1 -10   54.36    2.17
  -3  -1 -10   52.09    2.38
  -3   1 -11    2.27    0.54
  -3   1 -11    2.36    0.44
  -3  -1 -11    3.00    0.71
  -3   1 -12   49.29    1.90
  -3  -1 -12   46.90    2.45
  -3   1 -12   46.65    2.26
  -3   1 -13    0.11    0.20
  -3   1 -13   -0.43    0.35
   3  -1  13    0.29    0.29
  -3  -1 -13   -0.29    0.40
  -3  -1 -14    0.14    0.36
  -3   1 -14    0.30    0.28
   3  -1  14    0.62    0.30
  -3  -1 -15    1.53    0.66
  -3   1 -15    2.01    0.57
  -3   1 -16    0.50    0.40
  -3  -1 -16   -0.95    0.56
  -3  -1 -17    0.52    0.54
  -3   1 -17    0.63    0.46
  -3   1 -18   -0.79    0.52
  -3  -2  19    0.98    0.46
   3   2 -18   -0.53    0.47
  -3  -2  18    0.43    0.41
   3  -2 -18   -0.50    0.52
  -3  -2  17   -0.01    0.45
   3   2 -17    0.43    0.34
   3  -2 -17    0.22    0.33
  -3  -2  16    3.04    0.73
   3   2 -16    3.54    0.75
   3  -2 -16    2.77    0.72
   3   2 -15    5.14    0.88
   3  -2 -15    6.45    1.03
  -3  -2  15    5.66    0.90
  -3  -2  14   21.73    1.61
   3  -2 -14   19.71    1.65
  -3  -2  13   20.58    1.52
   3  -2 -13   22.85    1.68
  -3   2  12    2.24    0.42
  -3  -2  12    2.29    0.59
   3  -2 -12    2.99    0.68
  -3  -2  11   18.34    1.36
  -3   2  11   20.56    1.17
   3  -2 -11   20.59    1.44
   3   2 -11   19.46    0.96
   3  -2 -10    1.95    0.48
  -3   2  10    1.07    0.30
  -3  -2  10    1.15    0.50
  -3  -2   9    0.36    0.37
   3  -2  -9   -0.27    0.28
  -3   2   9    0.04    0.18
  -3  -2   8    7.31    0.82
   3  -2  -8    5.53    0.65
   3   2  -8    6.37    0.69
  -3   2   8    6.36    0.63
   3   2  -7   10.66    0.85
  -3  -2   7   11.63    0.59
   3  -2  -7   12.19    0.86
  -3  -2   7   10.55    0.92
  -3   2   7   12.11    0.85
   3   2  -6   11.82    0.85
  -3   2   6   12.29    0.97
  -3  -2   6   12.19    0.65
  -3   2   6   13.16    0.86
   3  -2  -6   11.39    0.79
   3   2  -5   15.35    0.93
  -3   2   5   15.38    1.04
   3  -2  -5   14.71    0.80
  -3  -2   5   16.46    0.80
  -3   2   5   17.24    0.99
  -3  -2   5   15.17    0.39
   3   2  -4   31.22    1.28
  -3   2   4   32.59    1.44
  -3  -2   4   30.82    1.14
  -3   2   4   31.38    1.32
   3  -2  -4   31.47    1.05
  -3  -2   4   29.08    0.53
   3   2  -3    8.46    0.68
  -3   2   3    7.93    0.68
  -3  -2   3    7.44    0.60
  -3  -2   3    7.43    0.32
  -3   2   3    7.93    0.74
  -3  -2   2    1.97    0.21
  -3   2   2    2.12    0.44
  -3   2   2    1.64    0.34
  -3  -2   2    1.66    0.32
   3  -2  -2    1.94    0.20
   3   2  -2    1.70    0.36
  -3  -2   1    1.00    0.18
   3  -2  -1    0.64    0.08
  -3  -2   1    0.68    0.22
   3   2  -1    0.36    0.25
  -3   2   1    0.31    0.30
   3   2   0   46.59    1.53
  -3  -2   0   41.18    1.53
  -3  -2   0   43.48    1.26
  -3   2  -1   12.01    0.86
  -3  -2  -1   12.29    0.88
   3   2   1   12.27    0.81
   3   2   2    8.42    0.68
  -3   2  -2    7.99    0.70
  -3  -2  -2    7.45    0.71
  -3   2  -3    0.26    0.11
  -3   2  -3    0.58    0.33
   3   2   3    0.64    0.30
  -3  -2  -3    0.00    0.26
  -3  -2  -3    0.63    0.28
   3   2   4    8.91    0.73
  -3   2  -4    8.45    0.45
  -3  -2  -4    8.23    0.77
  -3  -2  -4    7.58    0.74
  -3   2  -4    7.80    0.54
  -3   2  -4    7.59    0.70
  -3  -2  -5    2.89    0.51
  -3   2  -5    2.70    0.31
  -3  -2  -5    2.52    0.46
  -3   2  -5    2.60    0.34
   3   2   5    2.52    0.44
  -3   2  -5    3.49    0.51
  -3   2  -6    0.06    0.25
  -3  -2  -6   -0.09    0.30
   3   2   6    0.08    0.25
  -3   2  -6    0.00    0.09
  -3   2  -6   -0.28    0.19
  -3   2  -6    0.14    0.16
  -3  -2  -6    0.28    0.23
  -3  -2  -6    0.19    0.21
  -3  -2  -7    5.44    0.68
   3   2   7    5.78    0.67
  -3   2  -7    5.48    0.64
  -3   2  -7    5.66    0.62
  -3  -2  -7    5.77    0.78
  -3  -2  -7    5.93    0.63
  -3   2  -7    5.96    0.55
  -3   2  -7    4.80    0.52
  -3   2  -8    1.75    0.42
  -3   2  -8    2.15    0.41
  -3   2  -8    1.25    0.30
  -3  -2  -8    1.78    0.36
  -3  -2  -8    2.35    0.55
  -3  -2  -8    1.70    0.42
  -3  -2  -9   25.00    1.68
  -3  -2  -9   24.95    1.47
  -3   2  -9   24.45    1.33
  -3   2  -9   22.66    1.25
  -3  -2  -9   23.81    1.20
  -3  -2 -10   -0.26    0.23
  -3   2 -10    0.12    0.19
  -3  -2 -10    0.50    0.43
  -3   2 -10    0.32    0.22
  -3  -2 -10    0.37    0.21
  -3  -2 -11   23.33    1.75
  -3   2 -11   23.06    1.38
  -3   2 -11   23.84    1.45
  -3  -2 -12   28.27    2.02
  -3   2 -12   26.52    1.61
  -3   2 -12   27.87    1.57
  -3  -2 -13    2.39    0.70
  -3   2 -13    2.67    0.52
  -3   2 -14    1.38    0.41
  -3  -2 -14    0.99    0.55
  -3   2 -15    0.38    0.26
   3  -2  15    0.64    0.40
  -3  -2 -15    0.60    0.49
   3  -2  16    4.59    0.82
  -3   2 -16    3.24    0.62
  -3  -2 -16    3.34    0.89
   3  -3 -17    2.10    0.64
  -3   3  16    0.42    0.44
   3  -3 -16    0.39    0.40
  -3  -3  16    0.92    0.55
  -3  -3  15    0.21    0.36
  -3   3  15   -0.52    0.53
   3  -3 -15   -0.69    0.42
  -3   3  14    2.41    0.68
   3  -3 -14    1.62    0.52
  -3  -3  14    2.32    0.65
   3  -3 -14    2.68    0.68
  -3   3  13    1.20    0.59
  -3  -3  13    1.19    0.51
   3  -3 -13    0.46    0.35
  -3   3  12    1.87    0.63
  -3  -3  12    1.37    0.53
   3  -3 -12    1.18    0.43
  -3  -3  11    1.96    0.58
  -3   3  11    1.22    0.50
   3  -3 -11    1.25    0.42
  -3  -3  10   17.26    1.42
  -3   3  10   17.35    1.50
   3   3 -10   16.01    1.28
  -3   3   9    1.45    0.39
  -3   3   9    0.91    0.48
   3   3  -9    0.96    0.42
  -3  -3   9    1.59    0.57
   3   3  -8    2.52    0.55
  -3   3   8    1.91    0.59
  -3   3   8    2.00    0.44
   3   3  -7    7.43    0.85
  -3  -3   7    8.78    0.72
  -3   3   7    9.06    0.85
  -3   3   7    9.44    1.05
  -3   3   6    0.80    0.31
  -3   3   6    1.98    0.56
   3   3  -6    1.62    0.49
  -3  -3   6    1.55    0.33
   3   3  -5   10.58    0.97
  -3  -3   5   11.84    0.89
  -3   3   5   10.18    1.04
   3   3  -4   10.50    0.97
  -3  -3   4    9.81    0.84
  -3   3   4   10.96    1.09
   3   3  -3    8.03    0.85
  -3  -3   3    6.96    0.75
  -3   3   3    6.94    0.85
  -3  -3   2    0.10    0.20
   3   3  -2   -0.37    0.32
  -3   3   2    0.02    0.41
  -3  -3   1    7.52    0.80
  -3   3   1    6.15    0.79
   3   3  -1    6.59    0.79
   3   3   0  115.65    3.06
  -3  -3   0  119.68    3.17
  -3   3   0  113.63    3.16
  -3  -3  -1    4.27    0.67
  -3   3  -1    3.37    0.60
   3   3   1    4.72    0.68
   3   3   2   13.51    1.09
  -3  -3  -2   15.25    1.21
  -3   3  -2   13.93    1.14
  -3   3  -3    0.19    0.32
  -3  -3  -3   -0.13    0.30
   3   3   3   -0.08    0.32
  -3  -3  -4   -0.28    0.38
   3   3   4    0.39    0.41
  -3   3  -4    0.20    0.30
  -3   3  -5    8.96    0.93
  -3  -3  -5    9.88    0.94
   3   3   5    9.21    0.93
  -3  -3  -5    8.23    0.95
   3   3   6    0.30    0.34
  -3   3  -6    0.26    0.29
  -3  -3  -6    0.13    0.28
  -3  -3  -6    0.37    0.31
  -3  -3  -7    0.05    0.28
  -3   3  -7    0.08    0.29
  -3  -3  -7    0.10    0.28
   3   3   7   -0.24    0.33
  -3   3  -8   20.45    1.42
   3   3   8   23.66    1.59
  -3  -3  -8   20.82    1.53
  -3   3  -8   16.99    1.26
  -3  -3  -8   19.60    1.34
  -3  -3  -8   19.56    1.52
  -3  -3  -9    0.78    0.38
   3   3   9    1.29    0.48
  -3   3  -9    0.59    0.29
  -3   3  -9    1.08    0.39
  -3  -3  -9    0.35    0.28
  -3  -3  -9    0.64    0.46
  -3  -3 -10   25.30    1.78
   3   3  10   23.06    1.67
  -3   3 -10   25.42    1.62
  -3  -3 -10   24.82    1.81
  -3  -3 -10   25.66    1.49
  -3   3 -10   26.38    1.61
  -3   3 -11    3.23    0.60
   3   3  11    2.91    0.67
  -3  -3 -11    4.64    0.88
  -3  -3 -11    3.36    0.70
  -3  -3 -12    3.67    0.74
  -3   3 -12    2.47    0.53
   3   3  12    4.15    0.80
  -3  -3 -12    4.41    0.88
  -3   3 -13    0.02    0.24
  -3  -3 -13    0.40    0.42
   3   3  14    2.17    0.63
  -3  -3 -14    0.89    0.46
  -3   3 -14    1.97    0.52
  -3   3 -15    1.35    0.44
  -3  -3 -15    0.90    0.49
   3  -4 -14    0.25    0.27
  -3  -4  13    1.33    0.54
   3  -4 -13    0.48    0.35
  -3   4  12    0.09    0.59
  -3  -4  12    1.35    0.60
  -3   4  11    0.05    0.44
   3   4 -11    0.42    0.34
  -3  -4  11    1.18    0.55
  -3   4  10    0.25    0.48
  -3  -4  10    0.75    0.46
   3   4 -10    0.24    0.43
  -3   4   9   -0.04    0.43
  -3  -4   9   -0.04    0.43
   3   4  -9    0.10    0.32
   3   4  -8    0.98    0.39
  -3   4   8    0.76    0.52
  -3   4   7    1.45    0.58
   3   4  -7    1.40    0.57
   3   4  -6    0.56    0.38
  -3   4   6    1.09    0.53
  -3   4   5   10.36    1.21
  -3  -4   5    9.35    0.97
   3   4  -4   12.36    1.22
  -3   4   4   11.50    1.29
  -3  -4   4   11.82    1.11
  -3  -4   3    0.57    0.31
  -3   4   3    0.54    0.44
   3   4  -3    0.66    0.39
   3   4  -2    0.05    0.34
  -3  -4   2    0.17    0.27
  -3   4   2    0.41    0.48
  -3  -4   1    0.25    0.38
   3   4  -1    0.37    0.32
  -3   4   1   -0.11    0.42
  -3   4   0    6.00    0.92
   3   4   0    4.90    0.79
  -3  -4  -1    0.27    0.34
  -3   4  -1   -0.30    0.46
   3   4   1   -0.12    0.30
  -3  -4  -2    0.17    0.38
  -3   4  -2   -0.32    0.41
   3   4   2    0.48    0.39
  -3  -4  -3   -0.14    0.25
  -3   4  -3   -0.06    0.39
   3   4   3   -0.03    0.34
  -3  -4  -4    4.40    0.82
   3   4   4    4.98    0.84
  -3   4  -4    4.27    0.78
  -3   4  -5    0.85    0.48
   3   4   5    0.78    0.46
  -3  -4  -5    0.74    0.43
  -3  -4  -6    1.68    0.53
  -3   4  -6    1.47    0.54
   3   4   6    1.44    0.51
   3   4   7   13.77    1.40
  -3   4  -7   13.31    1.32
  -3  -4  -7   15.79    1.53
  -3  -4  -8    0.34    0.38
  -3   4  -8    0.91    0.46
   3   4   8    1.33    0.57
  -3   4  -9    0.17    0.34
  -3   4  -9    0.29    0.24
  -3  -4  -9   -0.23    0.34
   3   4   9   -0.04    0.29
  -3  -4  -9    0.44    0.29
   3   4  10    0.13    0.38
  -3   4 -10    0.54    0.33
  -3  -4 -10   -0.22    0.35
  -3   4 -10   -0.82    0.37
   3   4  11    0.42    0.48
  -3   4 -11   -0.03    0.28
  -3   4 -11   -0.16    0.21
  -3  -4 -11    0.06    0.33
   3   4  12    3.39    0.81
  -3   4 -12    3.13    0.68
  -3  -5   7   -0.51    0.41
   3   5  -5    0.68    0.41
  -3   5   5    0.20    0.47
   3   5  -4    3.19    0.74
  -3   5   4    2.66    0.75
   3   5  -3    0.09    0.30
  -3  -5   3    0.39    0.33
   3   5  -2   -0.01    0.24
  -3  -5   2    0.19    0.24
  -3   5   1    0.93    0.52
   3   5  -1    1.46    0.49
  -3  -5   1    1.32    0.49
   3   5   0   13.36    1.45
  -3   5   0   12.57    1.44
  -3  -5   0   11.50    1.38
  -3  -5  -1   -0.55    0.42
  -3   5  -1    0.17    0.37
   3   5   1    0.02    0.36
  -3  -5  -2    0.85    0.42
   3   5   2    0.98    0.44
  -3   5  -2    1.02    0.51
  -3  -5  -3    4.84    0.96
   3   5   3    5.49    0.97
  -3   5  -3    3.87    0.87
   3   5   4    1.63    0.59
   3   5   5    0.40    0.39
   4   0 -20    8.26    1.38
   4   0 -19    0.82    0.46
  -4   0  18    2.48    0.57
   4   0 -18    3.11    0.89
   4   0 -17    0.30    0.41
  -4   0  17    0.23    0.30
   4   0 -16   34.48    2.26
  -4   0  16   36.69    1.93
  -4   0  15    0.00    0.27
  -4   0  14   15.62    1.20
  -4   0  13    0.26    0.34
  -4   0  12   11.41    0.96
  -4   0  11   -0.02    0.31
  -4   0  10   19.54    1.12
  -4   0   9   -0.03    0.25
  -4   0   8   42.98    1.48
  -4   0   7    0.16    0.25
  -4   0   6   85.07    1.88
  -4   0   5   -0.15    0.19
  -4   0   4  117.86    1.95
  -4   0   3    0.04    0.05
  -4   0   3   -0.07    0.10
  -4   0   2    5.74    0.36
  -4   0   2    6.71    0.30
  -4   0   2    5.89    0.41
  -4   0   1   -0.11    0.12
  -4   0   1   -0.06    0.10
  -4   0   1   -0.01    0.06
  -4   0   0    1.46    0.20
  -4   0   0    0.87    0.18
  -4   0   0    1.11    0.17
  -4   0  -1   -0.02    0.14
  -4   0  -1    0.08    0.10
  -4   0  -1    0.14    0.13
  -4   0  -1    0.04    0.13
  -4   0  -2  189.76    2.35
  -4   0  -2  177.23    2.76
  -4   0  -2  181.61    2.06
  -4   0  -2  186.92    2.88
  -4   0  -3   -0.09    0.14
  -4   0  -3    0.15    0.18
  -4   0  -3   -0.14    0.21
  -4   0  -4   41.16    1.52
  -4   0  -4   39.76    1.24
  -4   0  -4   40.04    1.45
  -4   0  -5    0.21    0.26
  -4   0  -5    0.01    0.17
  -4   0  -6  238.50    4.08
  -4   0  -6  240.32    3.99
  -4   0  -7    0.04    0.34
  -4   0  -7    0.02    0.21
  -4   0  -8    4.50    0.66
  -4   0  -8    5.08    0.72
  -4   0  -9    0.14    0.29
  -4   0  -9   -0.15    0.39
  -4   0 -10    1.04    0.51
   4   0  10    1.39    0.29
  -4   0 -11   -0.31    0.46
  -4   0 -12   12.87    1.32
  -4   0 -13   -0.63    0.49
  -4   0 -14    1.38    0.52
  -4   0 -15    0.30    0.50
  -4   0 -16    4.05    0.92
  -4   0 -17    0.96    0.59
  -4   0 -18    3.19    0.92
  -4  -1  20    0.71    0.37
   4   1 -20    1.30    0.57
  -4  -1  19    0.07    0.27
   4  -1 -19    0.10    0.35
   4   1 -19    0.50    0.51
  -4  -1  18    4.30    0.78
   4  -1 -18    6.10    1.11
   4   1 -18    5.57    1.02
  -4  -1  17   -0.15    0.29
   4  -1 -17    0.22    0.42
   4   1 -17    0.16    0.34
  -4   1  16    5.95    0.75
  -4  -1  16    6.96    0.94
   4  -1 -16    7.02    1.06
  -4  -1  15    3.75    0.71
  -4   1  15    3.79    0.56
   4  -1 -15    4.85    0.89
  -4   1  14    0.50    0.29
   4  -1 -14    0.66    0.48
  -4  -1  14    0.72    0.45
  -4  -1  13   11.88    1.11
  -4   1  13   11.53    0.93
  -4  -1  12   10.49    0.99
  -4   1  12   10.72    0.87
  -4   1  11   18.13    1.08
  -4  -1  11   17.82    1.22
  -4  -1  10   36.21    1.66
  -4  -1  10   37.67    0.91
   4   1 -10   38.29    0.91
  -4   1  10   39.35    1.53
  -4  -1   9    0.05    0.34
  -4   1   9    0.24    0.24
   4   1  -9    0.14    0.07
  -4  -1   9    0.29    0.13
  -4   1   8  122.20    2.51
   4   1  -8  126.27    1.48
  -4  -1   8  122.14    1.82
  -4  -1   8  126.75    2.79
  -4  -1   7   18.17    1.03
  -4   1   7   19.00    0.97
  -4   1   6    4.47    0.47
  -4  -1   6    4.84    0.54
  -4  -1   5    0.19    0.22
  -4   1   5    0.21    0.19
   4   1  -4  171.03    2.26
  -4  -1   4  173.52    2.58
  -4   1   4  172.08    2.64
  -4  -1   3   34.17    1.07
   4   1  -3   33.14    0.93
  -4   1   3   33.18    1.15
  -4  -1   3   33.41    1.05
  -4   1   3   35.65    1.12
  -4  -1   2   19.92    0.76
  -4   1   2   20.52    0.82
   4   1  -2   18.31    0.64
  -4   1   2   19.39    0.88
  -4  -1   2   20.00    0.84
  -4  -1   1    8.83    0.47
   4   1  -1    9.00    0.44
  -4   1   1    9.45    0.55
  -4  -1   1    9.44    0.59
  -4  -1   1    8.15    0.55
  -4   1   1    9.52    0.62
  -4  -1   0  339.62    2.54
   4   1   0  336.29    2.63
  -4   1   0  335.49    3.14
  -4  -1   0  343.80    3.50
  -4  -1   0  334.96    3.60
  -4   1   0  338.63    3.70
  -4   1  -1   15.67    0.68
   4   1   1   15.93    0.60
  -4  -1  -1   14.74    0.75
  -4  -1  -1   15.51    0.83
  -4   1  -1   16.21    0.84
  -4  -1  -1   15.53    0.48
  -4   1  -2   61.71    1.33
  -4  -1  -2   60.45    1.73
   4   1   2   63.22    1.23
  -4   1  -2   60.77    1.51
  -4  -1  -2   63.92    1.85
  -4   1  -2   61.41    1.68
  -4  -1  -2   61.96    1.52
  -4  -1  -2   62.90    0.74
  -4   1  -3   12.73    0.62
  -4  -1  -3   11.06    0.82
   4   1   3   13.36    0.61
  -4   1  -3   12.09    0.71
  -4   1  -3   12.13    0.69
  -4  -1  -3   12.74    0.86
  -4  -1  -3   12.48    0.70
  -4   1  -3   11.99    0.76
  -4   1  -4   62.79    1.44
  -4   1  -4   65.59    1.68
  -4  -1  -4   67.20    2.07
  -4   1  -4   67.60    1.71
  -4  -1  -4   64.41    2.04
  -4  -1  -4   66.27    1.63
  -4   1  -4   63.62    1.82
  -4   1  -5   14.92    0.74
  -4   1  -5   13.80    0.85
  -4   1  -5   14.95    0.93
  -4   1  -5   15.38    0.85
  -4  -1  -5   14.26    1.03
  -4  -1  -5   14.82    0.79
  -4  -1  -5   12.51    0.97
  -4  -1  -6    5.19    0.68
  -4   1  -6    5.73    0.61
  -4   1  -6    4.95    0.53
  -4  -1  -6    5.24    0.50
  -4   1  -6    5.18    0.59
  -4  -1  -6    6.30    0.77
  -4   1  -7    7.43    0.65
  -4   1  -7    7.70    0.75
  -4   1  -7    7.32    0.72
  -4  -1  -7    6.45    0.82
  -4  -1  -7    7.53    0.86
  -4  -1  -7    7.74    0.61
  -4   1  -8    0.82    0.29
  -4   1  -8    0.96    0.30
  -4  -1  -8    1.58    0.48
  -4  -1  -8    0.85    0.24
  -4   1  -8    0.39    0.28
  -4   1  -9    0.25    0.22
  -4   1  -9    0.73    0.28
  -4  -1  -9    0.29    0.19
  -4  -1  -9    0.62    0.41
  -4   1  -9    0.69    0.36
  -4   1 -10   23.15    1.28
  -4  -1 -10   23.48    1.67
  -4   1 -10   22.95    1.47
  -4  -1 -10   23.11    1.04
  -4   1 -11    0.32    0.26
  -4  -1 -11    0.38    0.40
  -4   1 -11   -0.37    0.40
  -4   1 -12    1.39    0.36
  -4  -1 -12    1.40    0.57
  -4   1 -12    1.73    0.52
  -4  -1 -13    4.19    0.84
  -4   1 -13    3.19    0.69
  -4   1 -14    9.96    1.20
  -4  -1 -14   10.05    1.33
  -4  -1 -15    5.23    1.00
  -4   1 -15    5.41    0.95
  -4   1 -16    1.99    0.66
  -4  -1 -16    1.14    0.65
  -4   1 -17    3.54    0.82
  -4  -1 -17    6.54    1.26
  -4   1 -18    0.39    0.38
  -4  -2  19    1.79    0.57
   4  -2 -19    1.06    0.52
   4   2 -19    1.85    0.62
  -4  -2  18    1.08    0.54
   4  -2 -18    0.98    0.52
   4   2 -18    0.77    0.43
  -4  -2  17   -0.08    0.35
   4  -2 -17   -0.10    0.34
   4   2 -17    0.94    0.48
  -4  -2  16    7.49    1.05
   4  -2 -16    5.14    0.96
  -4  -2  15    1.39    0.55
   4  -2 -15    1.10    0.53
   4  -2 -14    1.00    0.50
  -4  -2  14    0.31    0.44
  -4   2  13    0.89    0.29
  -4  -2  13    0.65    0.46
  -4   2  12    1.65    0.40
   4  -2 -12    1.74    0.51
  -4  -2  12    2.35    0.68
  -4   2  11    3.05    0.50
  -4  -2  11    2.63    0.59
   4  -2 -11    2.48    0.58
  -4   2  10    0.17    0.22
  -4  -2  10   -0.02    0.38
   4  -2 -10    0.32    0.32
  -4   2   9    4.01    0.55
  -4  -2   9    4.09    0.66
  -4  -2   8   61.00    2.18
  -4   2   8   60.15    1.98
   4   2  -8   60.15    1.97
  -4   2   7    3.92    0.53
   4   2  -7    3.70    0.53
  -4  -2   7    3.98    0.62
  -4   2   6    0.51    0.26
   4   2  -6    0.64    0.31
  -4   2   6    0.69    0.40
  -4  -2   6    0.76    0.40
   4   2  -5    8.00    0.68
  -4  -2   5    7.92    0.73
  -4   2   5    7.50    0.78
  -4  -2   5    8.96    0.61
  -4   2   5    8.32    0.73
  -4  -2   4    8.47    0.70
   4   2  -4    8.41    0.69
  -4   2   4    7.73    0.75
  -4  -2   4    8.18    0.62
  -4   2   4    8.22    0.73
  -4  -2   4    8.25    0.44
  -4  -2   3  176.71    2.90
   4   2  -3  174.09    2.93
  -4   2   3  174.94    3.26
  -4  -2   3  173.09    2.13
  -4  -2   3  171.78    2.89
  -4   2   3  170.24    3.21
  -4   2   2    4.80    0.60
  -4  -2   2    5.10    0.49
  -4   2   2    4.29    0.55
   4   2  -2    5.02    0.52
  -4  -2   2    4.17    0.48
  -4  -2   2    4.79    0.40
  -4  -2   1   94.60    1.89
   4   2  -1   95.92    2.14
  -4   2   1   93.59    2.37
  -4  -2   1   92.82    1.88
  -4  -2   1   96.41    2.31
  -4   2   1   95.94    2.45
  -4  -2   0    1.67    0.29
   4   2   0    2.11    0.37
  -4   2   0    1.88    0.41
  -4  -2   0    1.74    0.27
  -4  -2   0    1.83    0.36
  -4  -2  -1   11.38    0.57
  -4   2  -1   11.19    0.83
   4   2   1   12.07    0.80
  -4  -2  -1   11.15    0.77
  -4  -2  -1   11.19    0.85
  -4  -2  -2    0.00    0.22
  -4  -2  -2   -0.04    0.11
  -4   2  -2   -0.01    0.23
  -4  -2  -2    0.09    0.14
   4   2   2   -0.01    0.20
   4   2   3    0.38    0.23
  -4  -2  -3    0.06    0.23
  -4  -2  -3    0.62    0.24
  -4   2  -3    0.22    0.23
  -4  -2  -3    0.32    0.09
  -4  -2  -3    0.49    0.31
  -4   2  -3    0.10    0.11
  -4   2  -4   48.43    1.69
   4   2   4   45.80    1.59
  -4  -2  -4   47.11    1.87
  -4  -2  -4   48.61    1.88
  -4   2  -4   43.84    1.47
  -4  -2  -4   49.35    1.76
   4   2   5    0.05    0.23
  -4   2  -5    0.10    0.14
  -4  -2  -5    0.04    0.24
  -4   2  -5    0.00    0.18
  -4  -2  -5   -0.05    0.30
  -4   2  -5    0.10    0.27
  -4   2  -5    0.23    0.15
  -4  -2  -5    0.05    0.27
  -4   2  -6    2.32    0.41
  -4  -2  -6    3.00    0.59
   4   2   6    2.55    0.47
  -4   2  -6    1.78    0.39
  -4   2  -6    2.21    0.37
  -4  -2  -6    1.43    0.38
  -4  -2  -6    1.72    0.41
  -4   2  -6    2.17    0.33
  -4   2  -7    0.36    0.20
   4   2   7    0.67    0.29
  -4   2  -7    0.25    0.22
  -4   2  -7    1.04    0.33
  -4  -2  -7    0.73    0.47
  -4  -2  -7    0.90    0.36
  -4  -2  -7    0.40    0.24
  -4   2  -7    0.64    0.22
  -4  -2  -8   53.17    2.41
   4   2   8   54.35    2.04
  -4   2  -8   50.24    1.88
  -4   2  -8   53.71    2.00
  -4   2  -8   51.03    1.79
  -4  -2  -8   49.71    1.79
  -4   2  -8   49.95    1.85
  -4   2  -9    1.07    0.28
  -4   2  -9    1.11    0.34
  -4  -2  -9    1.80    0.58
  -4  -2  -9    1.47    0.37
  -4   2  -9    1.44    0.38
  -4   2 -10    9.79    0.93
  -4   2 -10    8.76    0.87
  -4  -2 -10    9.60    0.79
  -4  -2 -10    8.23    1.07
  -4  -2 -11    4.86    0.87
  -4   2 -11    4.74    0.66
  -4   2 -12    0.17    0.20
  -4  -2 -12    0.62    0.47
  -4  -2 -13    0.60    0.42
  -4   2 -13    0.40    0.27
  -4   2 -14    0.14    0.27
  -4  -2 -14    0.35    0.52
   4  -2  15    1.29    0.45
  -4   2 -15    1.54    0.46
  -4   2 -16    1.66    0.44
  -4  -2 -16    0.67    0.44
  -4  -3  16    0.31    0.42
  -4   3  16    0.32    0.60
  -4  -3  15    0.63    0.47
  -4   3  15    1.31    0.63
  -4  -3  14    7.05    1.04
  -4   3  14    8.04    1.18
  -4   3  13    0.98    0.58
  -4  -3  13    0.55    0.39
  -4  -3  12   25.94    1.85
  -4   3  12   27.17    1.94
  -4   3  11    0.91    0.53
  -4  -3  11    1.02    0.49
  -4   3  10    9.53    1.14
  -4   3  10    9.11    0.92
  -4  -3  10    8.53    1.02
   4   3 -10    8.58    0.95
  -4   3   9    0.97    0.34
  -4   3   9    0.94    0.48
   4   3  -9    0.93    0.38
  -4  -3   9    1.86    0.55
  -4  -3   8    4.15    0.72
  -4   3   8    3.79    0.61
  -4   3   8    3.42    0.73
   4   3  -8    3.99    0.64
   4   3  -7   22.29    1.41
  -4  -3   7   19.59    1.37
  -4   3   7   22.30    1.40
  -4   3   7   20.82    1.51
  -4  -3   7   20.38    1.10
  -4  -3   6   10.81    1.00
  -4  -3   6   11.24    0.84
  -4   3   6   11.72    1.13
   4   3  -6   10.77    1.00
  -4   3   6   11.70    1.01
  -4   3   5    1.16    0.35
   4   3  -5    1.40    0.42
  -4  -3   5    0.84    0.30
  -4   3   5    1.27    0.50
   4   3  -4   64.40    2.27
  -4   3   4   56.74    2.32
  -4  -3   4   60.24    2.07
   4   3  -3    9.06    0.88
  -4   3   3    8.77    0.95
  -4  -3   3    7.85    0.81
   4   3  -2    1.89    0.47
  -4  -3   2    2.17    0.46
  -4   3   2    1.95    0.54
   4   3  -1    0.51    0.32
  -4   3   1    0.54    0.39
  -4  -3   1    0.20    0.28
  -4  -3   0    5.54    0.71
   4   3   0    6.45    0.75
  -4   3   0    5.83    0.80
  -4  -3  -1    0.83    0.40
  -4   3  -1    0.95    0.38
   4   3   1    1.20    0.40
  -4   3  -2   41.47    1.92
   4   3   2   43.09    1.88
  -4  -3  -2   41.60    1.99
  -4  -3  -3   -0.24    0.27
  -4   3  -3    0.22    0.31
   4   3   3    0.13    0.28
   4   3   4    7.56    0.85
  -4  -3  -4    7.43    0.90
  -4   3  -4    6.35    0.79
  -4  -3  -5    0.94    0.42
   4   3   5    0.78    0.39
  -4   3  -5    0.10    0.29
   4   3   6    0.07    0.32
  -4   3  -6    0.66    0.33
  -4  -3  -6    0.29    0.37
  -4  -3  -6    0.61    0.37
  -4  -3  -6   -0.21    0.38
   4   3   7    4.51    0.71
  -4   3  -7    4.40    0.70
  -4  -3  -7    4.14    0.74
  -4   3  -7    3.48    0.61
  -4  -3  -7    4.57    0.78
  -4  -3  -7    3.93    0.66
  -4   3  -8   22.47    1.47
  -4  -3  -8   23.47    1.68
   4   3   8   22.94    1.55
  -4  -3  -8   21.38    1.61
  -4   3  -8   21.13    1.44
  -4  -3  -8   21.00    1.41
   4   3   9    1.71    0.52
  -4   3  -9    0.67    0.31
  -4   3  -9    1.21    0.40
  -4  -3  -9    1.08    0.43
  -4  -3  -9    1.05    0.41
  -4  -3  -9    1.19    0.45
  -4   3 -10    7.86    0.92
   4   3  10   12.55    1.23
  -4   3 -10    7.93    0.90
  -4  -3 -10   10.70    1.17
  -4  -3 -10   10.40    0.99
  -4  -3 -10    8.41    1.12
   4   3  11    1.47    0.54
  -4  -3 -11    2.72    0.71
  -4   3 -11    1.84    0.52
   4   3  12    2.44    0.63
  -4   3 -12    2.29    0.54
  -4  -3 -12    2.79    0.74
  -4   3 -13    1.32    0.47
  -4  -3 -13   -0.50    0.45
  -4   3 -14    2.06    0.53
  -4  -3 -14    2.32    0.79
  -4   3 -15    0.18    0.15
   4  -4 -14    0.36    0.33
  -4  -4  13   -0.26    0.40
  -4  -4  12    0.35    0.37
  -4   4  12   -0.05    0.45
  -4   4  11    0.48    0.49
   4   4 -11    0.31    0.38
  -4  -4  11    0.50    0.50
  -4   4  10    0.81    0.62
   4   4 -10    0.40    0.46
  -4  -4  10    0.10    0.35
  -4   4   9    1.03    0.62
   4   4  -9    2.17    0.60
  -4  -4   9    2.34    0.63
   4   4  -8   11.07    1.20
  -4   4   8    9.77    1.24
  -4  -4   8    9.85    1.18
  -4   4   7    2.38    0.62
  -4  -4   7    4.74    0.80
   4   4  -7    3.54    0.68
   4   4  -6    3.06    0.64
  -4  -4   6    3.75    0.72
  -4   4   6    4.19    0.85
   4   4  -5   13.32    1.27
  -4   4   5   12.97    1.38
  -4  -4   5   12.31    1.12
  -4  -4   4    1.01    0.42
   4   4  -4    0.89    0.44
  -4   4   4    0.19    0.44
  -4  -4   3    0.26    0.28
   4   4  -3    0.00    0.32
  -4   4   3   -0.41    0.45
  -4  -4   2    0.69    0.38
   4   4  -2    0.57    0.33
  -4   4   2    0.55    0.39
  -4  -4   1    6.14    0.89
  -4   4   1    4.57    0.79
   4   4  -1    4.11    0.73
  -4   4   0    4.84    0.86
  -4  -4   0    4.20    0.75
   4   4   0    2.78    0.61
  -4  -4  -1    5.57    0.84
  -4   4  -1    5.70    0.90
   4   4   1    4.77    0.78
  -4  -4  -2   -0.07    0.24
  -4   4  -2    0.00    0.33
   4   4   2    0.08    0.35
  -4  -4  -3    0.75    0.50
  -4   4  -3    0.61    0.40
   4   4   3    0.31    0.28
   4   4   4    9.96    1.11
  -4   4  -4    8.31    1.04
  -4  -4  -4    9.98    1.18
  -4  -4  -5    1.35    0.49
  -4   4  -5    0.90    0.49
   4   4   5    0.70    0.41
  -4  -4  -6    0.57    0.40
  -4   4  -6    1.10    0.38
   4   4   6    0.43    0.38
   4   4   7    0.12    0.36
  -4   4  -7    0.76    0.36
  -4  -4  -7   -0.14    0.36
  -4  -4  -7    0.55    0.38
  -4   4  -8    3.16    0.67
  -4  -4  -8    3.63    0.81
  -4   4  -8    3.24    0.65
   4   4   8    2.55    0.67
  -4  -4  -8    3.82    0.74
   4   4   9    2.71    0.69
  -4  -4  -9    1.23    0.45
  -4   4  -9    1.54    0.54
  -4  -4  -9    2.47    0.68
  -4   4  -9    2.21    0.55
  -4   4 -10    0.34    0.29
  -4   4 -10    0.32    0.39
  -4  -4 -10   -0.30    0.35
  -4   4 -11    1.56    0.50
  -4   4 -11    1.31    0.48
  -4  -5   7   -0.13    0.34
  -4  -5   6    0.90    0.46
   4   5  -5    0.55    0.36
   4   5  -4    0.27    0.33
  -4   5   4    0.52    0.52
  -4  -5   3   -0.50    0.33
  -4   5   3    0.22    0.34
  -4   5   2   -0.37    0.42
  -4  -5   2    0.58    0.32
   4   5  -2   -0.57    0.37
  -4  -5   1    3.44    0.79
  -4   5   1    2.86    0.81
   4   5  -1    1.04    0.50
   4   5   0    2.29    0.65
  -4  -5   0    1.50    0.57
  -4   5   0    2.04    0.70
   4   5   1   -0.89    0.46
  -4   5  -1    0.01    0.35
  -4  -5  -1   -0.01    0.35
  -4   5  -2   -0.25    0.41
  -4  -5  -2    1.19    0.51
   4   5   2    0.87    0.47
   4   5   3    0.67    0.40
   4   5   4    6.83    1.06
   4   5   5    0.80    0.50
   5   0 -20    1.00    0.49
  -5   0  19   -0.37    0.32
   5   0 -19    0.35    0.40
   5   0 -18   12.79    1.52
  -5   0  18   14.98    1.36
  -5   0  17   -0.40    0.43
  -5   0  16    1.46    0.50
  -5   0  15   -0.17    0.30
  -5   0  14    0.18    0.29
  -5   0  13    0.18    0.32
  -5   0  12    3.38    0.58
  -5   0  11    0.09    0.30
  -5   0  10   14.03    1.01
  -5   0   9    0.24    0.32
  -5   0   8   50.13    1.67
  -5   0   7   -0.14    0.24
  -5   0   6  151.03    2.60
  -5   0   5   -0.13    0.23
  -5   0   4  471.38    4.16
  -5   0   3   -0.08    0.13
  -5   0   3    0.16    0.16
  -5   0   2   91.29    1.30
  -5   0   2   89.50    1.57
  -5   0   2   91.64    1.70
  -5   0   1    0.11    0.15
  -5   0   1    0.10    0.04
  -5   0   1    0.08    0.10
  -5   0   1    0.16    0.13
  -5   0   0  221.89    2.47
  -5   0   0  227.75    2.65
  -5   0   0  216.90    2.48
  -5   0  -1   -0.02    0.12
  -5   0  -1   -0.13    0.22
  -5   0  -1    0.14    0.14
  -5   0  -2    0.09    0.12
  -5   0  -2    0.05    0.17
  -5   0  -3   -0.03    0.16
  -5   0  -3   -0.03    0.24
  -5   0  -3    0.10    0.19
  -5   0  -4    0.00    0.16
  -5   0  -4   -0.16    0.29
  -5   0  -4    0.26    0.20
  -5   0  -5   -0.04    0.33
  -5   0  -5    0.08    0.22
  -5   0  -6   40.96    1.76
  -5   0  -6   42.19    1.84
  -5   0  -7   -0.16    0.33
  -5   0  -7    0.40    0.37
  -5   0  -8   95.64    3.05
  -5   0  -8   94.53    2.94
  -5   0  -9    0.09    0.26
  -5   0  -9    0.00    0.34
  -5   0 -10   27.26    1.80
  -5   0 -10   24.97    1.68
  -5   0 -11    0.46    0.46
  -5   0 -12   18.48    1.59
  -5   0 -13    0.47    0.47
  -5   0 -14   13.92    1.52
  -5   0 -15    0.00    0.42
  -5   0 -16    2.31    0.75
  -5   0 -17    0.65    0.58
  -5  -1  20    2.90    0.70
   5   1 -20    2.01    0.74
  -5  -1  19    0.53    0.33
   5   1 -19    1.33    0.59
  -5  -1  18    4.00    0.78
   5  -1 -18    2.35    0.71
  -5   1  17    0.27    0.26
   5  -1 -17    1.04    0.56
  -5  -1  17    0.22    0.42
  -5   1  16    6.59    0.83
  -5  -1  16    6.84    0.96
   5  -1 -16    6.15    1.06
  -5   1  15    6.30    0.76
  -5  -1  15    6.40    0.90
  -5   1  14    4.14    0.63
  -5  -1  14    2.56    0.58
  -5   1  13    1.67    0.44
  -5  -1  13    1.61    0.50
  -5  -1  12   13.65    1.16
  -5   1  12   14.45    1.05
  -5   1  11    0.78    0.36
  -5  -1  11    0.77    0.43
  -5  -1  10    9.67    0.93
  -5  -1  10    8.14    0.46
  -5   1  10    8.17    0.75
   5   1  -9    0.00    0.03
  -5   1   9    0.04    0.23
  -5  -1   9    0.07    0.36
  -5  -1   9    0.02    0.10
  -5  -1   8   58.53    1.94
  -5  -1   8   55.56    1.30
  -5   1   8   56.76    1.81
  -5  -1   7    6.48    0.67
  -5  -1   7    6.52    0.47
  -5   1   7    6.43    0.62
  -5  -1   6   79.98    2.08
  -5  -1   6   84.80    1.69
  -5   1   6   85.60    2.10
  -5   1   5    0.53    0.23
  -5  -1   5    0.66    0.26
  -5  -1   5    0.65    0.20
  -5  -1   4   85.36    1.90
  -5  -1   4   82.06    1.72
  -5   1   4   85.02    1.99
   5   1  -4   86.57    1.57
  -5  -1   3   28.82    1.03
  -5   1   3   31.99    1.08
   5   1  -3   29.50    0.86
  -5  -1   3   30.05    1.06
  -5   1   3   31.54    1.20
  -5  -1   2   31.81    1.01
   5   1  -2   30.84    0.81
  -5   1   2   31.13    1.02
  -5  -1   2   34.58    1.16
  -5   1   2   30.32    1.19
  -5  -1   1   79.78    1.48
   5   1  -1   80.40    1.22
  -5  -1   1   78.20    1.89
  -5   1   1   82.13    1.59
  -5  -1   1   80.90    1.79
  -5   1   1   81.54    1.92
   5   1   0   11.45    0.46
  -5   1   0   11.62    0.60
  -5  -1   0   12.15    0.72
  -5   1   0   11.92    0.66
  -5  -1   0   11.45    0.76
  -5   1   0   11.19    0.75
  -5  -1   0   11.03    0.50
  -5   1  -1    1.06    0.30
  -5  -1  -1    0.96    0.26
  -5  -1  -1    1.45    0.17
  -5   1  -1    1.06    0.24
  -5   1  -1    1.54    0.24
   5   1   1    1.86    0.21
  -5  -1  -1    1.56    0.31
  -5   1  -2   38.82    1.06
   5   1   2   36.08    0.91
  -5   1  -2   35.85    1.36
  -5   1  -2   34.17    1.40
  -5  -1  -2   36.38    1.26
  -5  -1  -2   38.14    1.50
  -5   1  -2   35.47    1.23
  -5  -1  -2   36.81    0.70
  -5   1  -3   24.61    0.86
  -5   1  -3   23.65    1.05
  -5  -1  -3   22.91    0.42
   5   1   3   24.38    0.80
  -5   1  -3   23.86    1.04
  -5  -1  -3   24.52    1.04
  -5  -1  -3   24.81    1.27
  -5  -1  -3   24.51    1.32
  -5   1  -3   25.90    1.23
  -5   1  -4   -0.05    0.16
  -5   1  -4    0.01    0.13
  -5  -1  -4   -0.43    0.25
  -5   1  -4   -0.12    0.16
  -5   1  -4    0.21    0.22
  -5  -1  -4   -0.01    0.18
  -5  -1  -4    0.39    0.36
  -5   1  -5   19.67    1.16
  -5  -1  -5   19.24    1.27
  -5   1  -5   18.75    1.02
  -5  -1  -5   20.00    1.28
  -5   1  -5   20.56    1.10
  -5  -1  -5   20.64    0.99
  -5   1  -5   19.80    0.84
  -5   1  -6   43.26    1.67
  -5  -1  -6   42.46    1.95
  -5  -1  -6   40.89    1.41
  -5  -1  -6   41.88    1.93
  -5   1  -6   40.92    1.74
  -5   1  -6   41.73    1.58
  -5  -1  -7    1.75    0.47
  -5   1  -7    1.42    0.38
  -5  -1  -7    1.66    0.51
  -5   1  -7    1.66    0.37
  -5   1  -7    2.37    0.46
  -5  -1  -7    1.67    0.32
  -5   1  -8   15.98    1.15
  -5  -1  -8   17.92    1.41
  -5   1  -8   16.05    1.20
  -5   1  -8   16.37    1.06
  -5  -1  -8   15.24    1.28
  -5  -1  -8   16.41    0.93
  -5   1  -9    0.53    0.28
  -5   1  -9    0.02    0.25
  -5   1  -9    0.12    0.26
  -5  -1  -9    0.16    0.16
  -5  -1  -9   -0.08    0.40
  -5  -1 -10    4.45    0.51
  -5  -1 -10    3.29    0.73
  -5   1 -10    4.37    0.72
  -5   1 -10    3.96    0.58
  -5   1 -10    3.23    0.64
  -5   1 -11   -0.17    0.22
  -5  -1 -11    0.19    0.39
  -5   1 -11   -0.01    0.43
  -5   1 -12   10.92    0.99
  -5  -1 -12   11.76    1.37
  -5   1 -12   10.77    1.16
  -5  -1 -13    0.87    0.53
  -5   1 -13    0.82    0.45
  -5   1 -14    0.25    0.38
  -5  -1 -14    0.54    0.49
  -5  -1 -15    2.43    0.77
  -5   1 -15    1.67    0.59
  -5  -1 -16    0.42    0.48
  -5   1 -16    0.22    0.40
  -5   1 -17   -0.69    0.55
   5  -2 -19    2.73    0.80
   5   2 -19    2.70    0.72
  -5  -2  18    4.87    0.96
   5  -2 -18    5.43    1.08
   5   2 -18    3.81    0.85
  -5  -2  17    2.01    0.65
   5  -2 -17    1.68    0.61
   5  -2 -16   -0.75    0.48
  -5  -2  16   -0.14    0.42
  -5  -2  15    6.79    1.00
   5  -2 -15    7.18    1.04
  -5   2  14    2.10    0.46
  -5  -2  14    2.28    0.63
   5  -2 -14    2.14    0.61
  -5  -2  13    9.08    1.06
   5  -2 -13    8.89    1.07
  -5   2  13    9.51    0.93
  -5   2  12    0.34    0.23
  -5  -2  12    0.17    0.41
   5  -2 -12    0.24    0.35
  -5   2  11    2.84    0.50
  -5  -2  11    2.07    0.56
  -5  -2  10    0.57    0.45
  -5   2  10    0.16    0.22
  -5   2   9    0.89    0.33
  -5  -2   9    0.40    0.41
  -5  -2   8   12.44    1.05
  -5   2   8   13.18    1.00
   5   2  -8   13.23    0.94
  -5   2   7    9.27    0.83
  -5   2   7   11.50    0.99
   5   2  -7    9.88    0.79
  -5  -2   7    9.30    0.87
  -5   2   6    0.06    0.24
  -5   2   6   -0.02    0.31
   5   2  -6   -0.05    0.22
  -5  -2   6    0.04    0.33
   5   2  -5    6.12    0.61
  -5   2   5    5.26    0.64
  -5   2   5    5.29    0.69
  -5  -2   5    5.41    0.62
  -5  -2   4  262.75    3.77
   5   2  -4  263.77    3.58
  -5   2   4  262.27    4.11
  -5  -2   4  259.98    3.03
  -5   2   4  262.29    4.15
  -5   2   3    0.52    0.33
  -5   2   3    0.38    0.32
  -5  -2   3    0.21    0.11
  -5  -2   3    0.43    0.27
   5   2  -3    0.32    0.20
  -5   2   2   -0.02    0.26
  -5  -2   2   -0.06    0.10
  -5   2   2    0.01    0.27
  -5  -2   2    0.10    0.19
   5   2  -2    0.29    0.23
  -5   2   1    2.59    0.51
  -5  -2   1    2.25    0.33
   5   2  -1    2.11    0.34
  -5  -2   1    1.60    0.30
  -5   2   1    2.55    0.44
  -5  -2   0   13.87    0.69
   5   2   0   13.28    0.80
  -5   2   0   15.07    0.96
  -5  -2   0   14.18    0.89
  -5   2   0   12.36    0.96
  -5  -2  -1    1.33    0.33
  -5  -2  -1    1.27    0.29
  -5   2  -1    1.86    0.39
   5   2   1    1.99    0.36
  -5  -2  -1    1.53    0.23
  -5  -2  -1    1.57    0.47
  -5   2  -2   15.00    0.95
   5   2   2   14.53    0.86
  -5  -2  -2   13.94    0.53
  -5  -2  -2   13.81    0.99
  -5  -2  -2   14.68    1.00
  -5   2  -3   11.15    0.81
   5   2   3   12.26    0.80
  -5  -2  -3   10.12    0.86
  -5  -2  -3   11.12    0.93
  -5   2  -3   12.29    0.85
  -5  -2  -4    3.11    0.54
   5   2   4    4.55    0.52
  -5   2  -4    3.35    0.48
  -5   2  -4    3.28    0.50
  -5  -2  -4    2.64    0.53
  -5   2  -4    2.96    0.44
  -5  -2  -4    2.86    0.49
  -5   2  -5    0.17    0.14
   5   2   5   -0.01    0.25
  -5  -2  -5    0.04    0.25
  -5   2  -5    0.14    0.25
  -5  -2  -5    0.46    0.34
  -5   2  -5    0.06    0.18
  -5  -2  -5    0.16    0.28
  -5   2  -6    5.70    0.63
   5   2   6    5.92    0.62
  -5   2  -6    4.69    0.61
  -5   2  -6    6.37    0.59
  -5  -2  -6    6.18    0.68
  -5   2  -6    5.73    0.64
  -5  -2  -6    5.78    0.80
   5   2   7    5.29    0.63
  -5   2  -7    4.45    0.57
  -5   2  -7    4.60    0.61
  -5   2  -7    4.47    0.62
  -5  -2  -7    4.29    0.75
  -5   2  -7    4.49    0.54
  -5  -2  -7    4.53    0.61
  -5   2  -8  112.82    3.04
   5   2   8  121.29    2.98
  -5   2  -8  106.74    2.94
  -5   2  -8  110.86    2.76
  -5  -2  -8  113.48    3.65
  -5  -2  -8  112.49    2.78
  -5   2  -8  112.05    2.73
  -5   2  -9    6.72    0.78
  -5   2  -9    5.80    0.73
   5   2   9    7.77    0.82
  -5  -2  -9    6.47    0.70
  -5  -2  -9    6.81    1.00
   5   2  10    0.75    0.34
  -5   2 -10    0.16    0.25
  -5  -2 -10    0.03    0.18
  -5  -2 -10   -0.11    0.45
  -5   2 -11    0.94    0.38
  -5  -2 -11    1.27    0.54
  -5  -2 -12    4.71    0.92
  -5   2 -12    4.33    0.71
  -5  -2 -13    1.31    0.56
  -5   2 -13    2.74    0.58
  -5   2 -14    2.39    0.54
  -5  -2 -14    2.71    0.82
  -5   2 -15    4.44    0.73
  -5  -2 -15    6.19    1.13
  -5   3  16    8.86    1.32
  -5  -3  16    5.27    1.01
  -5   3  15    6.38    1.07
  -5  -3  15    5.48    1.01
  -5   3  14    0.67    0.41
  -5  -3  14    0.68    0.48
  -5   3  13    0.26    0.40
  -5  -3  13    0.02    0.42
  -5   3  12    1.10    0.56
  -5  -3  12    1.60    0.61
  -5   3  11    0.24    0.26
  -5  -3  11    0.90    0.48
  -5   3  11    0.07    0.37
  -5  -3  10   11.17    1.17
  -5   3  10   11.63    1.26
  -5   3  10   12.44    1.12
   5   3 -10   11.34    1.07
  -5   3   9    0.34    0.26
  -5   3   9    0.36    0.39
   5   3  -9    0.19    0.30
  -5  -3   9    0.17    0.43
  -5   3   8    1.87    0.47
  -5  -3   8    1.77    0.54
  -5   3   8    2.24    0.62
   5   3  -8    2.59    0.54
  -5  -3   7   11.41    1.07
  -5   3   7   10.22    1.08
  -5   3   7   10.64    1.02
   5   3  -7   12.06    1.05
  -5   3   6    1.11    0.42
  -5   3   6    0.99    0.51
  -5  -3   6    1.79    0.52
   5   3  -6    0.72    0.34
  -5  -3   5   13.60    1.07
   5   3  -5   13.54    1.06
  -5   3   5   12.47    1.15
  -5   3   5   12.51    1.10
  -5  -3   5   14.19    1.03
  -5  -3   4   79.96    2.45
   5   3  -4   81.96    2.52
  -5   3   4   77.40    2.73
  -5  -3   4   78.99    2.46
  -5   3   4   74.17    2.61
  -5  -3   3    0.02    0.20
   5   3  -3   -0.04    0.27
  -5  -3   3    0.10    0.24
  -5   3   3   -0.17    0.34
  -5  -3   2    9.22    0.80
   5   3  -2    8.61    0.85
  -5  -3   2    9.10    0.89
  -5   3   2    7.49    0.90
  -5  -3   1   18.93    1.06
   5   3  -1   19.76    1.25
  -5   3   1   19.37    1.35
  -5  -3   1   18.86    1.28
   5   3   0    2.88    0.52
  -5  -3   0    2.86    0.52
  -5  -3   0    2.95    0.43
  -5   3   0    2.61    0.57
  -5  -3  -1    2.98    0.59
   5   3   1    3.22    0.55
  -5   3  -1    3.35    0.60
  -5  -3  -2    1.03    0.39
  -5   3  -2    0.82    0.38
   5   3   2    0.77    0.36
  -5  -3  -3    1.29    0.44
  -5   3  -3    0.95    0.40
   5   3   3    1.46    0.38
  -5   3  -4   16.38    1.23
   5   3   4   16.73    1.21
  -5  -3  -4   17.12    1.38
  -5  -3  -4   16.94    1.32
  -5  -3  -5    0.79    0.38
  -5   3  -5   -0.06    0.30
  -5  -3  -5    0.06    0.29
   5   3   5    0.10    0.28
  -5   3  -6   30.00    1.66
  -5  -3  -6   30.01    1.88
  -5  -3  -6   30.18    1.72
   5   3   6   33.25    1.74
  -5   3  -6   29.83    1.70
   5   3   7    1.68    0.42
  -5   3  -7    1.34    0.43
  -5  -3  -7    1.93    0.56
  -5  -3  -7    2.53    0.61
  -5   3  -7    1.41    0.42
  -5  -3  -7    1.25    0.45
   5   3   8    0.45    0.35
  -5  -3  -8    0.19    0.32
  -5   3  -8   -0.08    0.25
  -5  -3  -8    0.35    0.25
  -5   3  -8   -0.07    0.20
   5   3   9    5.42    0.80
  -5   3  -9    4.77    0.74
  -5  -3  -9    3.99    0.77
  -5  -3  -9    5.93    0.78
  -5   3  -9    4.80    0.74
  -5   3 -10    1.87    0.49
  -5  -3 -10    1.99    0.61
  -5  -3 -10    1.81    0.46
  -5   3 -10    2.42    0.53
  -5   3 -11    2.37    0.54
  -5  -3 -11    2.76    0.74
  -5  -3 -12    0.30    0.45
  -5   3 -12    0.61    0.34
  -5   3 -13    0.79    0.40
  -5  -3 -13   -0.58    0.48
  -5   3 -14    0.11    0.23
  -5  -3 -14   -0.82    0.52
  -5   4  12    2.54    0.75
  -5  -4  12    2.13    0.70
  -5   4  11    2.21    0.76
  -5  -4  11    3.50    0.78
   5   4 -11    3.86    0.75
  -5   4  10    0.26    0.50
   5   4 -10    0.31    0.43
  -5  -4  10   -0.17    0.37
  -5   4   9    0.19    0.43
   5   4  -9    0.00    0.35
  -5  -4   9    0.04    0.38
  -5   4   8    5.47    0.96
   5   4  -8    3.81    0.74
  -5  -4   8    4.93    0.87
  -5   4   7    1.21    0.58
  -5  -4   7    1.86    0.56
   5   4  -7    1.24    0.45
   5   4  -6    2.21    0.56
  -5  -4   6    1.86    0.55
  -5   4   6    2.80    0.75
  -5  -4   5    0.25    0.27
  -5  -4   5    0.85    0.45
  -5   4   5    1.54    0.65
   5   4  -5    1.33    0.54
  -5  -4   4    2.68    0.60
   5   4  -4    1.83    0.54
  -5  -4   4    3.22    0.61
  -5   4   4    2.96    0.67
  -5  -4   3    0.01    0.24
   5   4  -3    0.15    0.33
  -5  -4   3    0.24    0.26
  -5   4   3    0.28    0.47
   5   4  -2   12.25    1.20
  -5   4   2   10.32    1.19
  -5  -4   2   10.41    1.11
  -5  -4   1    1.15    0.48
   5   4  -1    1.28    0.45
  -5   4   1    0.93    0.46
   5   4   0    9.75    1.07
  -5   4   0    8.24    1.06
  -5  -4   0   10.35    1.17
  -5  -4  -1   -0.16    0.27
  -5   4  -1   -0.12    0.37
  -5  -4  -2    0.40    0.34
  -5   4  -2    0.25    0.35
   5   4   2   -0.17    0.29
  -5  -4  -3    2.15    0.61
  -5   4  -3    1.61    0.53
   5   4   3    1.78    0.52
  -5  -4  -4    5.85    0.95
  -5   4  -4    5.61    0.87
   5   4   4    5.03    0.82
  -5  -4  -5    1.03    0.48
  -5   4  -5    1.71    0.53
   5   4   5    1.22    0.45
  -5  -4  -5    1.66    0.52
  -5   4  -6   14.61    1.36
   5   4   6   14.26    1.36
  -5  -4  -6   17.48    1.64
  -5  -4  -6   13.87    1.37
  -5   4  -7    0.45    0.35
  -5  -4  -7    0.51    0.44
  -5   4  -7    0.83    0.40
  -5  -4  -7    1.63    0.56
  -5   4  -8   11.30    1.22
  -5  -4  -8   11.47    1.38
  -5  -4  -8   12.01    1.28
  -5   4  -8   11.71    1.25
  -5   4  -9    0.98    0.37
  -5   4  -9    0.73    0.37
  -5  -4  -9   -0.08    0.27
  -5   4 -10    0.05    0.28
  -5   4 -10    0.28    0.24
  -5  -5   7    0.66    0.41
   5   5  -5    0.69    0.44
   5   5  -4    2.20    0.65
  -5  -5   3   -0.47    0.37
   5   5  -3    0.08    0.28
  -5  -5   2   -0.03    0.07
   5   5  -2    0.19    0.34
  -5  -5   1    0.86    0.41
   5   5  -1    0.97    0.48
  -5   5   1    1.22    0.56
  -5  -5   0    0.30    0.28
   5   5   0    0.50    0.37
  -5   5   0   -0.15    0.37
  -5  -5  -1    1.43    0.55
   5   5   1    0.09    0.34
   5   5   2    0.31    0.31
   5   5   3   -0.32    0.30
  -6   0  20    1.69    0.51
   6   0 -20    1.70    0.68
  -6   0  19    0.09    0.17
   6   0 -19    0.26    0.38
  -6   0  18    0.24    0.31
  -6   0  17   -0.21    0.32
  -6   0  16    3.95    0.72
  -6   0  15    0.06    0.30
  -6   0  14    1.00    0.36
  -6   0  13    0.05    0.30
  -6   0  12   32.88    1.66
  -6   0  11   -0.47    0.43
  -6   0  10    4.82    0.66
  -6   0   9   -0.25    0.36
  -6   0   8    0.66    0.29
  -6   0   7   -0.22    0.27
  -6   0   6   18.01    0.97
  -6   0   5    0.29    0.27
  -6   0   4   13.17    0.76
  -6   0   3    0.04    0.17
  -6   0   2  350.85    2.91
  -6   0   2  346.98    3.65
  -6   0   1    0.11    0.15
  -6   0   1    0.07    0.12
  -6   0   0  231.13    2.79
  -6   0   0  240.03    2.85
  -6   0  -1   -0.18    0.15
  -6   0  -1   -0.02    0.13
  -6   0  -1   -0.04    0.17
  -6   0  -2   87.86    1.94
  -6   0  -2   88.12    2.41
  -6   0  -2   86.62    1.73
  -6   0  -3    0.08    0.13
  -6   0  -3    0.09    0.26
  -6   0  -3    0.14    0.25
  -6   0  -4   17.27    1.12
  -6   0  -4   15.77    1.11
  -6   0  -5   -0.07    0.35
  -6   0  -5   -0.39    0.28
  -6   0  -6   70.16    2.41
  -6   0  -6   68.57    2.50
  -6   0  -7   -0.09    0.37
  -6   0  -7   -0.50    0.30
  -6   0  -8    0.23    0.25
  -6   0  -8    0.03    0.35
  -6   0  -9   -0.40    0.34
  -6   0  -9    0.11    0.36
  -6   0 -10    1.08    0.40
  -6   0 -10    0.36    0.31
  -6   0 -11   -1.44    0.57
  -6   0 -12    3.29    0.81
  -6   0 -13   -0.30    0.41
  -6   0 -14   -1.08    0.55
  -6   0 -15    0.60    0.49
  -6   0 -16   15.72    1.78
  -6  -1  20    3.88    0.81
   6   1 -20    4.27    0.99
  -6  -1  19    2.33    0.62
   6  -1 -19    2.61    0.74
  -6  -1  18    1.70    0.63
   6  -1 -18    1.47    0.60
  -6   1  17    3.99    0.73
  -6  -1  17    3.70    0.74
   6  -1 -17    4.12    0.93
  -6  -1  16   29.49    1.93
  -6   1  16   28.01    1.71
  -6  -1  15   15.96    1.38
  -6   1  15   13.14    1.15
  -6  -1  14   25.14    1.67
  -6   1  14   22.09    1.44
  -6  -1  13   20.66    1.46
  -6   1  13   20.89    1.34
  -6   1  12    4.23    0.62
  -6  -1  12    4.82    0.77
  -6   1  11    1.76    0.48
  -6  -1  11    3.01    0.62
  -6   1  10    1.46    0.41
  -6  -1  10    1.78    0.48
  -6  -1  10    1.38    0.22
  -6   1   9    0.25    0.30
  -6  -1   9    0.37    0.38
  -6  -1   9    0.09    0.13
  -6   1   8    0.04    0.25
  -6  -1   8    0.16    0.36
  -6  -1   8   -0.07    0.15
  -6   1   7    0.03    0.25
  -6  -1   7    0.57    0.36
  -6  -1   7    0.20    0.17
  -6  -1   6   12.71    0.88
  -6  -1   6   11.40    0.68
  -6   1   6   11.16    0.83
  -6  -1   5    8.20    0.68
  -6  -1   5    7.15    0.55
  -6   1   5    8.39    0.71
  -6  -1   4  104.20    2.16
  -6  -1   4  104.38    2.06
  -6   1   4  104.85    2.38
  -6  -1   3   18.54    0.88
  -6   1   3   18.97    0.85
  -6  -1   3   18.15    0.89
  -6   1   3   21.05    1.05
   6   1  -2   41.42    0.90
  -6   1   2   43.66    1.22
  -6   1   2   41.59    1.20
  -6  -1   2   43.37    1.40
  -6   1   2   44.11    1.51
  -6  -1   2   44.07    1.27
   6   1  -1    2.11    0.20
  -6   1   1    2.13    0.38
  -6  -1   1    2.58    0.40
  -6  -1   1    2.03    0.28
  -6   1   1    1.86    0.28
  -6  -1   1    2.43    0.39
  -6   1   1    2.02    0.28
   6   1   0  153.84    1.53
  -6   1   0  156.04    2.14
  -6   1   0  159.34    2.54
  -6  -1   0  156.31    2.70
  -6  -1   0  157.82    3.05
  -6   1   0  161.09    2.90
  -6  -1   0  156.56    2.03
  -6   1  -1    0.45    0.24
  -6  -1  -1    0.35    0.12
  -6   1  -1    0.18    0.13
  -6  -1  -1    0.25    0.21
   6   1   1    0.20    0.09
  -6   1  -1    0.38    0.14
  -6  -1  -1    0.22    0.24
  -6   1  -2    0.80    0.26
  -6   1  -2    1.01    0.30
  -6  -1  -2    1.14    0.34
  -6  -1  -2    0.93    0.15
  -6   1  -2    0.59    0.16
  -6   1  -2    0.75    0.21
  -6  -1  -2    0.36    0.24
   6   1   2    0.71    0.14
  -6   1  -3   16.07    0.70
   6   1   3   15.75    0.62
  -6   1  -3   14.54    0.88
  -6  -1  -3   14.40    0.87
  -6  -1  -3   16.37    1.12
  -6   1  -3   14.87    1.03
  -6  -1  -3   15.26    0.47
   6   1   4   -0.18    0.15
  -6   1  -4    0.06    0.12
  -6  -1  -4    0.15    0.19
  -6   1  -4   -0.08    0.24
  -6  -1  -4    0.05    0.36
  -6   1  -4   -0.05    0.16
  -6  -1  -4    0.07    0.19
  -6   1  -4    0.03    0.20
  -6  -1  -5   13.01    1.12
  -6  -1  -5   12.19    0.82
  -6   1  -5   11.78    0.86
  -6   1  -5   13.18    0.95
  -6  -1  -5   12.99    1.11
  -6   1  -5   11.45    0.96
  -6  -1  -6    0.56    0.36
  -6   1  -6    0.46    0.28
  -6   1  -6    0.28    0.26
  -6  -1  -6    0.60    0.26
  -6  -1  -6    0.78    0.43
  -6   1  -6    0.93    0.31
  -6  -1  -7    0.62    0.32
  -6   1  -7    0.66    0.32
  -6   1  -7    1.01    0.34
  -6  -1  -7    0.63    0.44
  -6  -1  -7    0.78    0.28
  -6   1  -7    0.78    0.32
  -6  -1  -8   -0.11    0.35
  -6   1  -8    0.13    0.20
  -6   1  -8   -0.04    0.21
  -6   1  -8    0.27    0.29
  -6  -1  -8   -0.38    0.49
  -6  -1  -8    0.16    0.19
  -6   1  -9    3.05    0.62
  -6   1  -9    2.84    0.50
  -6  -1  -9    2.92    0.43
  -6  -1  -9    3.21    0.69
  -6   1  -9    2.87    0.61
  -6  -1  -9    4.06    0.76
  -6   1 -10    6.49    0.90
  -6   1 -10    7.86    0.83
  -6  -1 -10    6.25    0.97
  -6   1 -10    6.05    0.87
  -6   1 -11    0.01    0.22
  -6   1 -11    0.53    0.27
  -6  -1 -11    0.24    0.42
  -6   1 -11   -0.31    0.29
  -6  -1 -12   14.64    1.52
  -6   1 -12   14.17    1.38
  -6  -1 -13    2.63    0.78
  -6   1 -13    2.73    0.70
  -6  -1 -14    5.47    1.01
  -6   1 -14    5.82    0.98
  -6  -1 -15    2.56    0.79
  -6   1 -15    5.49    1.00
  -6  -1 -16   -0.83    0.57
  -6   1 -16   -1.34    0.58
  -6   1 -17    0.47    0.49
   6   2 -19    6.96    1.13
  -6  -2  18    1.42    0.57
   6  -2 -18    0.15    0.48
  -6  -2  17    0.48    0.44
   6  -2 -17    0.19    0.38
  -6  -2  16    4.56    0.89
   6  -2 -16    3.54    0.85
  -6   2  15    2.17    0.53
  -6  -2  15    2.07    0.57
   6  -2 -15    1.72    0.55
  -6   2  14    0.46    0.27
  -6  -2  14    0.10    0.40
   6  -2 -14   -0.07    0.31
  -6   2  13    1.65    0.44
  -6  -2  13    1.88    0.60
  -6  -2  12    3.82    0.78
  -6   2  12    4.74    0.70
  -6   2  11    0.57    0.26
  -6  -2  11    0.48    0.39
  -6   2  10    4.76    0.67
  -6  -2  10    3.65    0.70
  -6  -2  10    4.98    0.56
  -6   2   9    0.16    0.23
  -6  -2   9    0.21    0.37
  -6  -2   9    0.48    0.24
  -6  -2   8   10.46    0.96
  -6   2   8    9.51    0.90
  -6   2   7    1.66    0.44
   6   2  -7    0.60    0.24
  -6   2   7    1.10    0.43
  -6  -2   7    1.33    0.44
   6   2  -6   10.46    0.77
  -6  -2   6   11.64    0.94
  -6   2   6   12.07    0.99
  -6   2   6   10.17    0.92
   6   2  -5    5.77    0.56
  -6   2   5    4.76    0.63
  -6  -2   5    4.51    0.61
  -6   2   5    5.89    0.71
  -6  -2   4   88.85    2.24
   6   2  -4   92.29    2.09
  -6   2   4   91.24    2.46
  -6  -2   4   90.66    2.06
  -6   2   4   89.25    2.60
  -6   2   3    0.43    0.28
  -6   2   3    0.60    0.36
   6   2  -3    0.43    0.22
  -6  -2   3    0.75    0.29
  -6  -2   3    0.43    0.17
  -6  -2   3    0.82    0.41
  -6   2   2    1.81    0.46
  -6  -2   2    1.93    0.33
  -6  -2   2    2.09    0.35
   6   2  -2    2.05    0.33
  -6  -2   2    2.37    0.51
  -6   2   2    1.94    0.43
  -6   2   1    1.41    0.47
  -6  -2   1    0.96    0.25
   6   2  -1    0.66    0.24
  -6   2   1    0.71    0.26
  -6  -2   1    0.92    0.37
  -6  -2   1    0.76    0.25
  -6  -2   0    4.16    0.40
  -6   2   0    4.33    0.66
   6   2   0    4.62    0.47
  -6  -2   0    4.31    0.55
  -6   2   0    4.69    0.56
  -6  -2   0    3.85    0.61
  -6  -2  -1    9.18    0.51
  -6   2  -1    9.17    0.74
   6   2   1    9.74    0.67
  -6  -2  -1    8.41    0.80
  -6  -2  -1    8.14    0.76
  -6   2  -2   44.91    1.60
   6   2   2   42.74    1.43
  -6  -2  -2   43.04    1.74
  -6  -2  -2   43.40    1.84
  -6   2  -3   51.23    1.72
   6   2   3   50.63    1.61
  -6   2  -3   53.29    1.90
  -6  -2  -3   54.56    2.15
  -6  -2  -3   53.34    1.93
  -6   2  -3   54.01    1.95
  -6   2  -4   13.27    0.89
  -6   2  -4   13.93    1.02
   6   2   4   14.28    0.88
  -6  -2  -4   13.55    1.14
  -6  -2  -4   13.60    1.00
  -6   2  -4   13.78    1.02
  -6   2  -5   15.50    1.10
  -6   2  -5   16.19    0.99
  -6  -2  -5   14.96    1.25
   6   2   5   14.75    0.91
  -6  -2  -5   15.94    1.31
  -6  -2  -5   15.43    1.07
  -6   2  -5   15.52    1.10
  -6   2  -6   21.91    1.17
   6   2   6   21.89    1.16
  -6   2  -6   21.70    1.32
  -6  -2  -6   23.64    1.64
  -6   2  -6   21.64    1.33
  -6  -2  -6   23.18    1.62
  -6  -2  -6   21.15    1.26
  -6   2  -7   23.79    1.24
   6   2   7   23.24    1.24
  -6   2  -7   24.05    1.43
  -6  -2  -7   24.15    1.71
  -6  -2  -7   23.21    1.33
  -6   2  -7   21.92    1.39
  -6  -2  -8    2.61    0.62
  -6   2  -8    2.04    0.47
  -6   2  -8    2.21    0.48
  -6  -2  -8    2.68    0.48
  -6   2  -9    5.70    0.76
  -6   2  -9    5.26    0.72
  -6  -2  -9    5.76    0.92
  -6  -2  -9    5.37    0.66
  -6  -2 -10    4.25    0.87
  -6  -2 -10    3.36    0.53
  -6   2 -10    3.90    0.63
  -6   2 -11    1.78    0.46
  -6  -2 -11    1.93    0.64
  -6  -2 -12    0.08    0.43
  -6   2 -12    0.00    0.20
  -6   2 -13    0.09    0.23
  -6  -2 -13    0.50    0.44
  -6   2 -14    6.78    0.92
  -6  -2 -14    6.66    1.15
  -6   2 -15   -0.11    0.23
  -6  -3  16   13.18    1.50
  -6   3  16   14.53    1.64
  -6   3  15   -0.11    0.40
  -6  -3  15    0.32    0.48
  -6   3  14    1.18    0.56
  -6  -3  14    0.95    0.53
  -6   3  13    0.67    0.47
  -6  -3  13    0.74    0.50
  -6   3  12    4.78    0.75
  -6   3  12    4.11    0.83
  -6  -3  12    4.13    0.82
  -6   3  11    3.99    0.68
  -6   3  11    3.37    0.78
  -6  -3  11    3.62    0.75
  -6   3  10    3.69    0.66
  -6   3  10    3.42    0.73
  -6  -3  10    3.86    0.73
  -6   3   9    1.94    0.50
  -6   3   9    0.97    0.50
   6   3  -9    1.09    0.44
  -6  -3   9    1.79    0.54
   6   3  -8   41.91    1.91
  -6  -3   8   40.77    2.04
  -6   3   8   36.81    2.06
  -6   3   8   41.98    2.09
  -6   3   7    1.10    0.44
  -6   3   7    0.49    0.38
   6   3  -7    0.89    0.42
  -6  -3   7    1.24    0.46
   6   3  -6   17.43    1.21
  -6  -3   6   16.55    1.23
  -6   3   6   17.30    1.38
  -6   3   6   18.33    1.39
  -6   3   5    2.63    0.61
  -6   3   5    2.62    0.58
  -6  -3   5    3.46    0.58
   6   3  -5    2.76    0.50
  -6   3   4    1.72    0.55
  -6   3   4    1.76    0.54
   6   3  -4    1.64    0.40
  -6  -3   4    1.79    0.42
  -6  -3   3    8.83    0.82
   6   3  -3   10.12    0.88
  -6   3   3    9.77    1.02
  -6   3   3    8.38    0.92
  -6  -3   2   23.44    1.23
   6   3  -2   24.66    1.37
  -6   3   2   24.07    1.51
  -6  -3   1   -0.31    0.22
   6   3  -1   -0.05    0.29
  -6   3   1    0.32    0.34
   6   3   0    5.98    0.70
  -6   3   0    4.80    0.70
  -6   3  -1    3.10    0.58
   6   3   1    3.41    0.55
  -6   3  -2    1.99    0.52
   6   3   2    2.34    0.47
  -6  -3  -2    1.74    0.54
  -6   3  -3    4.16    0.65
   6   3   3    5.29    0.67
  -6  -3  -3    5.29    0.81
  -6   3  -4    0.52    0.30
   6   3   4    1.13    0.37
  -6  -3  -4    1.15    0.43
  -6   3  -5    6.36    0.79
  -6   3  -5    6.94    0.85
  -6  -3  -5    6.31    0.83
   6   3   5    6.82    0.79
  -6   3  -6    1.84    0.48
  -6   3  -6    1.17    0.40
  -6  -3  -6    1.41    0.49
  -6   3  -7    1.72    0.45
  -6   3  -7    2.26    0.54
  -6  -3  -7    1.72    0.45
  -6  -3  -8    7.49    1.08
  -6   3  -8    6.77    0.83
  -6   3  -8    6.17    0.85
  -6  -3  -8    5.69    0.79
  -6   3  -9    2.30    0.51
  -6   3  -9    3.02    0.65
  -6  -3  -9    3.47    0.76
  -6  -3  -9    2.92    0.60
  -6   3 -10    8.84    1.06
  -6  -3 -10    9.52    1.28
  -6  -3 -10    7.59    0.89
  -6   3 -11    2.20    0.55
  -6  -3 -11    2.53    0.77
  -6  -3 -12    7.68    1.21
  -6   3 -12    6.36    0.95
  -6  -3 -13    0.57    0.48
  -6   3 -13    0.14    0.23
  -6   4  12    3.22    0.92
  -6  -4  12    3.58    0.85
  -6   4  11    0.81    0.51
  -6  -4  11    1.84    0.65
  -6   4  10    0.50    0.47
  -6  -4  10   -0.72    0.51
   6   4 -10    0.12    0.30
  -6   4   9   -0.63    0.48
   6   4  -9    0.31    0.30
  -6  -4   9   -0.01    0.37
  -6   4   8    1.78    0.57
   6   4  -8    1.35    0.48
  -6  -4   8    0.93    0.44
  -6  -4   7    1.92    0.59
   6   4  -7    2.41    0.61
  -6   4   7    3.24    0.81
   6   4  -6    0.82    0.41
  -6  -4   6    1.43    0.51
  -6   4   6    1.45    0.58
   6   4  -5    1.53    0.50
  -6  -4   5    0.79    0.41
  -6   4   5    1.80    0.62
  -6  -4   4   13.03    1.18
   6   4  -4   14.66    1.29
  -6   4   4   13.17    1.39
   6   4  -3    0.24    0.38
  -6   4   3    0.39    0.41
  -6  -4   2    1.75    0.50
   6   4  -2    1.17    0.41
  -6   4   2    2.68    0.66
  -6  -4   1    0.29    0.36
   6   4  -1    0.48    0.30
  -6   4   1    0.81    0.43
  -6   4   0    0.98    0.45
  -6  -4   0   -0.30    0.32
   6   4   0    0.65    0.35
  -6  -4  -1    2.27    0.56
  -6   4  -1    1.40    0.51
   6   4   1    2.04    0.55
  -6  -4  -2    1.45    0.48
  -6   4  -2    0.73    0.43
   6   4   2    1.48    0.45
  -6   4  -3    0.60    0.41
  -6  -4  -3    1.51    0.53
   6   4   3    0.86    0.42
  -6  -4  -3    1.78    0.53
  -6   4  -4    3.49    0.75
  -6  -4  -4    4.44    0.84
  -6  -4  -5   10.61    1.24
  -6   4  -5   10.28    1.16
  -6   4  -6    0.23    0.35
  -6   4  -6    0.21    0.24
  -6  -4  -6    0.13    0.37
  -6   4  -7    0.16    0.36
  -6   4  -7    0.09    0.23
  -6  -4  -7    0.53    0.46
  -6   4  -8    5.28    0.86
  -6   4  -8    6.71    0.98
  -6  -4  -8    5.38    0.89
  -6   4  -9    1.04    0.46
  -6  -4  -9    2.33    0.58
  -6   4 -10    0.81    0.38
   6   5  -5    0.18    0.25
   6   5  -4    5.00    0.89
   6   5  -3   -0.21    0.37
   6   5  -2   -0.01    0.23
   6   5  -1    0.24    0.27
  -7   0  20   12.90    1.37
  -7   0  19    0.51    0.35
  -7   0  18    1.88    0.53
  -7   0  17    0.39    0.30
  -7   0  16    3.29    0.65
  -7   0  15   -0.26    0.32
  -7   0  14   40.76    2.03
  -7   0  13   -0.52    0.41
  -7   0  12   36.70    1.81
  -7   0  11    0.03    0.31
  -7   0  10   37.90    1.71
  -7   0   9    0.05    0.32
  -7   0   8  151.49    3.11
  -7   0   7    0.04    0.26
  -7   0   6    0.41    0.26
  -7   0   5    0.10    0.25
  -7   0   4   80.46    1.98
  -7   0   3   -0.07    0.19
  -7   0   2    2.13    0.35
  -7   0   2    2.16    0.17
  -7   0   1   -0.10    0.15
  -7   0   0   10.54    0.66
  -7   0  -1    0.08    0.16
  -7   0  -1   -0.01    0.20
  -7   0  -2   98.03    2.76
  -7   0  -2   99.28    2.02
  -7   0  -3   -0.12    0.15
  -7   0  -3    0.03    0.19
  -7   0  -4  226.40    4.27
  -7   0  -4  226.77    4.45
  -7   0  -5   -0.02    0.38
  -7   0  -5   -0.32    0.32
  -7   0  -6   -0.10    0.23
  -7   0  -6   -0.26    0.36
  -7   0  -7   -0.11    0.33
  -7   0  -7   -0.25    0.32
  -7   0  -8   58.89    2.66
  -7   0  -8   56.05    2.47
  -7   0  -9   -0.43    0.33
  -7   0  -9    0.12    0.37
  -7   0 -10    2.15    0.61
  -7   0 -10    1.77    0.60
  -7   0 -11   -0.72    0.48
  -7   0 -11    0.11    0.31
  -7   0 -12    4.22    0.89
  -7   0 -13   -0.43    0.46
  -7   0 -14    3.08    0.77
  -7   0 -15   -0.53    0.44
  -7   0 -16    5.66    1.16
  -7  -1  20    0.93    0.47
  -7  -1  19    0.29    0.33
   7  -1 -19    0.71    0.49
  -7   1  18   -0.71    0.40
  -7  -1  18    0.17    0.41
  -7   1  17   -0.57    0.31
  -7  -1  17    0.10    0.40
  -7   1  16    1.24    0.42
  -7  -1  16    1.63    0.58
  -7   1  15    2.88    0.59
  -7  -1  15    3.39    0.74
  -7  -1  14    9.98    1.11
  -7   1  14    8.81    0.97
  -7   1  13    0.80    0.37
  -7  -1  13    1.50    0.52
  -7  -1  12   17.65    1.34
  -7   1  12   19.20    1.32
  -7   1  11    0.34    0.30
  -7  -1  11    0.73    0.38
  -7  -1  10   17.34    1.25
  -7  -1  10   16.94    0.78
  -7   1  10   18.55    1.24
  -7   1   9    0.31    0.31
  -7  -1   9    0.69    0.42
  -7  -1   9    0.45    0.19
  -7  -1   8   12.77    0.99
  -7  -1   8   15.09    0.79
  -7   1   8   14.60    1.05
  -7   1   7   -0.06    0.30
  -7  -1   7    0.33    0.29
  -7  -1   7   -0.16    0.20
  -7  -1   6   45.12    1.67
  -7  -1   6   46.28    1.43
  -7   1   6   48.60    1.82
  -7  -1   5   11.42    0.82
  -7   1   5    9.92    0.54
  -7  -1   5    9.56    0.67
  -7   1   5   10.73    0.84
  -7   1   4    0.37    0.30
  -7  -1   4    0.13    0.22
  -7   1   4   -0.16    0.19
  -7   1   4    0.07    0.09
  -7  -1   4   -0.17    0.23
  -7   1   3    5.46    0.45
  -7   1   3    5.04    0.46
  -7  -1   3    5.40    0.54
  -7   1   3    5.57    0.61
  -7  -1   3    6.26    0.55
  -7   1   2   16.15    0.75
  -7   1   2   16.78    0.80
  -7  -1   2   15.51    0.90
  -7   1   2   15.92    0.98
  -7  -1   2   17.10    0.83
  -7   1   1    2.03    0.41
  -7  -1   1    2.52    0.32
  -7   1   1    2.08    0.32
  -7  -1   1    3.17    0.47
  -7   1   1    1.95    0.28
  -7  -1   1    1.99    0.38
   7   1  -1    2.05    0.18
   7   1   0   19.02    0.46
  -7   1   0   19.26    0.75
  -7   1   0   19.31    0.94
  -7  -1   0   19.66    1.03
  -7  -1   0   18.40    1.14
  -7   1   0   20.39    1.11
  -7  -1   0   20.19    0.80
   7   1   1   20.00    0.47
  -7   1  -1   21.40    0.78
  -7   1  -1   20.66    1.02
  -7  -1  -1   23.26    1.14
  -7  -1  -1   19.20    1.18
  -7   1  -1   21.27    1.16
  -7  -1  -1   22.01    0.79
  -7   1  -2    7.76    0.47
   7   1   2    7.22    0.32
  -7   1  -2    7.42    0.64
  -7  -1  -2    7.79    0.69
  -7  -1  -2    8.23    0.83
  -7   1  -2    8.02    0.73
  -7  -1  -2    7.67    0.44
  -7   1  -2    7.04    0.77
  -7   1  -3   29.97    0.93
   7   1   3   29.43    0.76
  -7  -1  -3   29.20    1.59
  -7  -1  -3   28.93    1.30
  -7   1  -3   27.92    1.27
  -7   1  -3   28.17    1.52
  -7  -1  -3   29.28    0.77
  -7   1  -4    6.38    0.65
  -7  -1  -4    6.43    0.65
  -7  -1  -4    6.72    0.81
  -7   1  -4    6.60    0.76
  -7   1  -4    7.04    0.47
  -7   1  -5    5.19    0.71
  -7   1  -5    6.78    0.70
  -7  -1  -5    6.61    0.85
  -7  -1  -5    6.14    0.64
  -7  -1  -5    6.23    0.87
  -7  -1  -6    0.80    0.40
  -7   1  -6    0.32    0.24
  -7   1  -6    0.44    0.31
  -7  -1  -6    0.85    0.51
  -7  -1  -6    0.56    0.29
  -7   1  -6    0.80    0.31
  -7  -1  -7    0.52    0.42
  -7   1  -7    0.93    0.34
  -7   1  -7    0.59    0.29
  -7   1  -7    1.02    0.37
  -7  -1  -7    0.96    0.52
  -7  -1  -7    1.35    0.35
  -7  -1  -8   13.78    1.35
  -7  -1  -8   15.15    1.01
  -7   1  -8   15.16    1.23
  -7  -1  -8   14.58    1.38
  -7   1  -8   14.70    1.31
  -7   1  -8   14.78    1.11
  -7  -1  -9    5.22    0.92
  -7   1  -9    4.88    0.78
  -7   1  -9    5.73    0.72
  -7   1  -9    4.63    0.75
  -7  -1  -9    3.70    0.79
  -7   1 -10    1.03    0.44
  -7  -1 -10    0.96    0.48
  -7   1 -10    0.67    0.36
  -7   1 -10    0.93    0.41
  -7  -1 -10    0.75    0.44
  -7   1 -11    0.80    0.35
  -7   1 -11    1.37    0.43
  -7   1 -11    1.14    0.47
  -7  -1 -11    1.07    0.55
  -7   1 -12   -0.19    0.48
  -7  -1 -12   -0.80    0.55
  -7   1 -13   -0.63    0.43
  -7  -1 -13   -0.93    0.53
  -7   1 -14    0.25    0.35
  -7  -1 -14   -0.15    0.41
  -7   1 -15    1.69    0.65
  -7  -1 -15    0.16    0.40
  -7   1 -16    0.84    0.54
  -7  -2  18    6.36    1.13
   7  -2 -18    3.47    0.91
  -7  -2  17    1.31    0.56
   7  -2 -17    1.15    0.56
  -7  -2  16    9.02    1.20
   7  -2 -16    8.11    1.15
  -7   2  16    9.96    1.09
  -7   2  15   -0.08    0.24
  -7  -2  15    1.18    0.58
  -7   2  14    0.40    0.37
  -7  -2  14    0.06    0.35
  -7   2  13    4.37    0.70
  -7  -2  13    3.91    0.76
  -7   2  12    0.22    0.28
  -7  -2  12    0.96    0.40
  -7   2  11    4.64    0.70
  -7  -2  11    3.55    0.72
  -7  -2  10   20.07    1.43
  -7  -2  10   20.09    1.11
  -7   2  10   21.45    1.40
  -7  -2   9   49.36    2.11
  -7  -2   9   48.98    1.73
  -7   2   9   48.74    2.07
  -7  -2   8   89.76    2.75
  -7  -2   8   87.88    2.38
  -7   2   8   89.15    2.74
  -7   2   8   89.98    2.79
  -7  -2   7   16.51    1.16
  -7   2   7   17.85    1.22
  -7  -2   7   17.23    1.08
  -7   2   7   16.99    1.22
  -7   2   6    0.44    0.37
  -7   2   6    0.20    0.29
   7   2  -6    0.28    0.21
  -7  -2   6    0.10    0.28
  -7  -2   6    0.00    0.26
  -7   2   5    2.03    0.49
  -7   2   5    2.39    0.48
   7   2  -5    2.48    0.39
  -7  -2   5    2.70    0.48
  -7  -2   5    3.04    0.52
  -7  -2   4   41.23    1.56
   7   2  -4   40.78    1.37
  -7   2   4   41.17    1.68
  -7  -2   4   39.37    1.65
  -7  -2   4   40.65    1.53
  -7   2   4   41.73    1.85
  -7   2   3    0.80    0.35
  -7  -2   3    0.51    0.19
  -7   2   3    0.72    0.38
   7   2  -3    0.81    0.24
  -7  -2   3    0.93    0.31
  -7  -2   3    0.58    0.29
  -7   2   2    0.67    0.35
  -7  -2   2    0.43    0.22
   7   2  -2    0.51    0.20
  -7  -2   2    0.42    0.21
  -7  -2   2    0.57    0.30
  -7   2   2    0.61    0.31
  -7   2   1    0.40    0.38
  -7  -2   1    0.05    0.20
  -7  -2   1    0.11    0.17
   7   2  -1    0.12    0.16
  -7   2   1   -0.07    0.25
  -7  -2   1    0.02    0.29
  -7   2   0    2.99    0.58
   7   2   0    2.73    0.36
  -7   2   0    3.77    0.50
  -7  -2   0    2.81    0.46
  -7  -2   0    2.30    0.50
  -7  -2   0    3.46    0.37
  -7   2  -1    9.03    0.79
  -7   2  -1    8.89    0.74
   7   2   1    9.75    0.64
  -7  -2  -1    8.77    0.86
  -7  -2  -1    9.36    0.86
  -7   2  -2   59.11    1.83
   7   2   2   57.66    1.58
  -7   2  -2   57.31    2.01
  -7  -2  -2   57.49    2.25
  -7  -2  -2   56.64    2.05
  -7  -2  -3    0.08    0.20
  -7   2  -3    0.21    0.24
  -7   2  -3   -0.09    0.23
  -7  -2  -3    0.02    0.25
   7   2   3    0.00    0.17
  -7   2  -3    0.19    0.21
  -7   2  -4   76.13    2.09
  -7   2  -4   76.35    2.43
  -7  -2  -4   77.19    2.85
  -7  -2  -4   70.52    2.34
  -7   2  -4   73.42    2.49
  -7  -2  -5    4.30    0.72
  -7   2  -5    3.29    0.57
  -7   2  -5    3.61    0.49
  -7   2  -5    4.24    0.63
  -7  -2  -5    3.23    0.56
  -7  -2  -6    0.42    0.33
  -7   2  -6    0.27    0.23
  -7   2  -6    0.48    0.30
  -7  -2  -6    0.84    0.50
  -7  -2  -6    0.25    0.22
  -7   2  -6    0.30    0.21
  -7  -2  -7    0.10    0.24
  -7   2  -7   -1.11    0.39
  -7   2  -7    0.32    0.24
  -7  -2  -7   -0.70    0.42
  -7  -2  -7    0.01    0.26
  -7   2  -7   -0.61    0.25
  -7   2  -8    8.48    0.96
  -7   2  -8    8.59    0.94
  -7  -2  -8    9.21    0.89
  -7  -2  -8    9.53    1.17
  -7   2  -9    0.86    0.42
  -7   2  -9    0.16    0.23
  -7  -2  -9    0.53    0.44
  -7  -2  -9    0.48    0.26
  -7   2 -10    0.04    0.17
  -7  -2 -10   -0.26    0.44
  -7  -2 -10    0.02    0.16
  -7   2 -11    0.37    0.27
  -7  -2 -11    0.14    0.51
  -7   2 -12    1.79    0.49
  -7  -2 -12    0.10    0.34
  -7   2 -13    1.36    0.49
  -7  -2 -13    2.85    0.80
  -7   2 -14   12.92    1.30
  -7  -2 -14   11.31    1.56
  -7   3  16    0.83    0.51
  -7   3  15    0.65    0.53
  -7  -3  15   -0.43    0.56
  -7   3  14    1.25    0.67
  -7  -3  14    1.00    0.53
  -7   3  13   -0.37    0.31
  -7   3  13    0.71    0.48
  -7  -3  13    0.51    0.44
  -7  -3  12    1.36    0.54
  -7   3  12    0.96    0.42
  -7   3  12    0.67    0.49
  -7   3  11    0.80    0.37
  -7   3  11   -0.15    0.44
  -7  -3  11   -0.04    0.33
  -7   3  10   -0.14    0.24
  -7   3  10   -0.39    0.42
  -7  -3  10   -0.13    0.42
  -7  -3  10    0.52    0.30
  -7   3   9   -0.07    0.25
  -7   3   9    0.56    0.45
  -7  -3   9   -0.30    0.33
   7   3  -9   -0.06    0.31
   7   3  -8    7.83    0.83
  -7  -3   8    7.93    0.96
  -7   3   8    7.23    0.95
  -7   3   8    8.21    1.00
  -7   3   7    0.23    0.28
  -7   3   7    0.04    0.32
   7   3  -7    0.09    0.28
  -7  -3   7   -0.10    0.31
   7   3  -6    9.25    0.87
  -7  -3   6   10.71    1.01
  -7   3   6    9.87    1.07
  -7   3   6   10.35    1.09
  -7  -3   5   11.38    0.99
   7   3  -5   12.55    0.99
  -7   3   5   10.97    1.09
  -7   3   5   11.99    1.16
  -7  -3   4   10.73    0.93
   7   3  -4    9.87    0.86
  -7   3   4    8.68    0.99
   7   3  -3    0.80    0.29
  -7  -3   3    0.54    0.27
  -7   3   3    0.80    0.42
  -7   3   3    0.31    0.33
   7   3  -2    6.13    0.69
  -7  -3   2    5.00    0.59
  -7   3   2    5.05    0.75
  -7  -3   2    4.31    0.73
   7   3  -1    6.56    0.70
  -7  -3   1    8.04    0.94
  -7   3   1    6.55    0.81
   7   3   0    3.06    0.50
  -7   3   0    2.55    0.55
  -7  -3   0    4.10    0.72
  -7   3  -1   -0.08    0.30
   7   3   1   -0.17    0.24
  -7  -3  -1    0.03    0.29
  -7  -3  -1   -0.10    0.26
  -7   3  -2    4.41    0.66
  -7  -3  -2    5.24    0.81
  -7   3  -3    0.00    0.28
  -7   3  -3   -0.21    0.23
  -7  -3  -3    0.42    0.35
  -7   3  -4    6.17    0.77
  -7   3  -4    7.68    0.91
  -7  -3  -4    6.97    0.90
  -7   3  -5   10.65    0.98
  -7   3  -5   10.31    1.05
  -7  -3  -5   10.80    1.12
  -7   3  -6    1.66    0.44
  -7   3  -6    2.31    0.55
  -7  -3  -6    2.46    0.57
  -7   3  -7   12.33    1.08
  -7   3  -7   12.40    1.19
  -7  -3  -7   10.32    1.09
  -7   3  -8    4.07    0.67
  -7   3  -8    6.03    0.88
  -7  -3  -8    5.24    0.79
  -7   3  -9   -0.01    0.22
  -7  -3  -9    0.45    0.35
  -7   3  -9   -0.06    0.27
  -7   3 -10    0.32    0.33
  -7  -3 -10    0.20    0.31
  -7  -3 -10    0.08    0.28
  -7  -3 -11   -0.35    0.40
  -7   3 -11    0.32    0.32
  -7  -3 -12    0.46    0.41
  -7  -4  12   -0.02    0.37
  -7   4  11   -0.60    0.44
  -7  -4  11    0.35    0.44
  -7   4  10    2.75    0.76
  -7  -4  10    1.84    0.65
   7   4 -10    2.88    0.65
  -7   4   9   -0.09    0.37
   7   4  -9    0.43    0.33
  -7  -4   9    0.27    0.37
   7   4  -8   12.92    1.25
  -7   4   8   11.34    1.37
  -7  -4   8   10.77    1.23
   7   4  -7    2.60    0.59
  -7  -4   7    2.22    0.57
  -7   4   7    3.36    0.78
   7   4  -6    0.86    0.42
  -7  -4   6    0.34    0.30
  -7   4   6    0.88    0.52
   7   4  -5    1.48    0.48
  -7   4   5    2.87    0.76
   7   4  -4   13.28    1.20
  -7   4   4   11.43    1.27
   7   4  -3    5.13    0.78
  -7   4   3    2.93    0.67
   7   4  -2   -0.64    0.35
  -7   4   2   -0.01    0.39
   7   4  -1    2.96    0.61
  -7   4   1    3.59    0.75
  -7   4   0    0.49    0.34
  -7  -4   0    0.72    0.39
  -7   4  -1    1.13    0.51
  -7  -4  -1    1.39    0.54
  -7   4  -2   12.32    1.24
  -7  -4  -2   11.34    1.29
  -7   4  -3    0.43    0.39
  -7  -4  -3   -0.14    0.37
  -7   4  -4    8.71    1.10
  -7   4  -4    7.15    0.95
  -7  -4  -4    6.78    1.04
  -7   4  -5    2.51    0.61
  -7   4  -5    1.97    0.58
  -7  -4  -5    1.20    0.59
  -7   4  -6    1.59    0.52
  -7   4  -6    1.03    0.43
  -7  -4  -6    1.03    0.54
  -7   4  -7   -0.53    0.38
  -7   4  -7   -0.54    0.33
  -7  -4  -7    0.26    0.31
  -7   4  -8    0.80    0.39
  -7  -4  -8    0.08    0.31
  -7   4  -9    0.68    0.33
  -7  -4  -9    0.09    0.23
  -8   0  20    1.80    0.54
  -8   0  19    0.26    0.39
  -8   0  18   16.32    1.49
  -8   0  17   -0.02    0.24
  -8   0  16    4.31    0.78
  -8   0  15    0.00    0.29
  -8   0  14    0.85    0.41
  -8   0  13    0.28    0.37
  -8   0  12    1.73    0.49
  -8   0  11   -0.28    0.32
  -8   0  10   52.79    2.08
  -8   0   9    0.17    0.37
  -8   0   8   15.37    1.07
  -8   0   7   -0.16    0.29
  -8   0   6   30.62    1.41
  -8   0   5   -0.08    0.24
  -8   0   4   92.87    2.30
  -8   0   3   -0.94    0.30
  -8   0   2   12.36    0.33
  -8   0   2   12.87    0.83
  -8   0   1   -0.01    0.16
  -8   0   0    2.91    0.40
  -8   0  -1   -0.15    0.18
  -8   0  -1    0.00    0.20
  -8   0  -2    3.84    0.44
  -8   0  -2    4.32    0.68
  -8   0  -3    0.02    0.18
  -8   0  -3    0.01    0.22
  -8   0  -4   25.44    1.60
  -8   0  -5    0.00    0.25
  -8   0  -6    9.78    1.03
  -8   0  -6    8.76    1.02
  -8   0  -7    0.42    0.33
  -8   0  -7   -0.41    0.41
  -8   0  -8    7.25    0.98
  -8   0  -8    5.32    0.85
  -8   0  -9    0.09    0.31
  -8   0  -9    0.19    0.32
  -8   0 -10    2.86    0.74
  -8   0 -10    3.22    0.78
  -8   0 -11    0.22    0.26
  -8   0 -11   -0.21    0.45
  -8   0 -12    0.41    0.46
  -8   0 -13   -0.86    0.46
  -8   0 -14    1.67    0.61
  -8   0 -15   -1.43    0.59
  -8   1  19    1.08    0.44
  -8  -1  19    1.45    0.55
  -8   1  18   -0.13    0.25
  -8  -1  18    1.46    0.58
  -8   1  17    0.39    0.31
  -8  -1  17    0.58    0.42
  -8   1  16   -0.65    0.35
  -8  -1  16   -0.15    0.40
  -8   1  15    0.28    0.26
  -8  -1  15   -0.02    0.39
  -8  -1  14   10.59    1.12
  -8   1  14    9.73    1.03
  -8   1  13    0.30    0.34
  -8  -1  13    0.92    0.47
  -8  -1  12    8.45    0.99
  -8   1  12    7.08    0.85
  -8   1  11    3.00    0.61
  -8  -1  11    3.90    0.69
  -8   1  10    6.20    0.78
  -8  -1  10    5.72    0.78
  -8  -1  10    7.07    0.54
  -8  -1   9   30.24    1.60
  -8  -1   9   28.38    1.12
  -8   1   9   28.36    1.55
  -8  -1   8   17.17    1.18
  -8  -1   8   15.11    0.85
  -8   1   8   16.43    1.18
  -8   1   7   32.57    0.92
  -8  -1   7   33.93    1.30
  -8   1   7   32.90    1.60
  -8  -1   7   33.14    1.54
  -8   1   6   48.78    1.19
  -8  -1   6   46.31    1.52
  -8   1   6   47.86    1.89
  -8  -1   6   46.35    1.74
  -8   1   5   17.49    0.93
  -8  -1   5   19.23    1.00
  -8   1   5   18.43    0.78
  -8   1   5   18.25    1.16
  -8  -1   5   17.70    1.04
  -8   1   4   28.58    1.12
  -8   1   4   27.80    1.01
  -8  -1   4   28.15    1.23
  -8   1   4   28.22    1.40
  -8  -1   4   28.30    1.24
  -8   1   3   24.97    0.99
  -8   1   3   25.33    1.01
  -8  -1   3   24.61    1.18
  -8   1   3   25.33    1.32
  -8  -1   3   26.02    1.13
  -8   1   2   21.86    0.87
  -8   1   2   21.95    0.99
  -8  -1   2   20.96    1.10
  -8   1   2   20.55    1.19
  -8  -1   2   22.06    0.99
  -8   1   1   14.38    0.67
  -8   1   1   14.46    0.83
  -8  -1   1   13.21    0.91
  -8   1   1   13.28    0.96
  -8  -1   1   14.57    1.08
  -8  -1   1   14.86    0.78
  -8   1   0    0.86    0.33
  -8  -1   0    0.21    0.15
  -8  -1   0    0.43    0.26
  -8   1   0    0.51    0.21
  -8   1   0    0.58    0.17
  -8  -1   0    0.56    0.32
  -8   1  -1   12.81    0.59
  -8   1  -1   13.56    0.88
  -8  -1  -1   13.59    0.94
  -8  -1  -1   12.54    1.04
  -8   1  -1   13.12    0.97
  -8  -1  -1   13.55    0.68
  -8   1  -2    0.53    0.31
  -8  -1  -2    0.11    0.10
  -8  -1  -2    0.33    0.25
  -8   1  -2    0.23    0.13
  -8   1  -2    0.02    0.20
  -8  -1  -2    0.24    0.26
  -8   1  -2    0.16    0.22
  -8   1  -3   10.53    0.84
  -8  -1  -3    9.49    0.81
  -8  -1  -3   10.37    1.02
  -8   1  -3   10.16    0.99
  -8   1  -3   10.03    0.53
  -8  -1  -4   47.44    2.22
  -8   1  -4   48.87    1.83
  -8  -1  -4   51.70    1.85
  -8   1  -4   53.44    2.26
  -8   1  -5    8.51    0.81
  -8  -1  -5    8.56    0.79
  -8  -1  -5    9.53    1.07
  -8   1  -5    8.35    0.95
  -8   1  -6   80.35    2.49
  -8  -1  -6   77.59    2.33
  -8  -1  -6   72.20    2.94
  -8  -1  -6   76.14    3.03
  -8   1  -6   75.16    2.87
  -8  -1  -7   10.48    1.20
  -8   1  -7   13.54    1.08
  -8  -1  -7   13.54    1.01
  -8   1  -7   14.64    1.24
  -8  -1  -7   11.32    1.28
  -8   1  -7   12.72    1.23
  -8   1  -8   58.66    2.28
  -8  -1  -8   59.30    2.88
  -8   1  -8   53.32    2.40
  -8  -1  -8   54.68    2.71
  -8   1  -8   56.51    2.66
  -8  -1  -9    7.26    1.07
  -8   1  -9    6.29    0.94
  -8   1  -9    7.55    0.86
  -8   1  -9    6.91    0.93
  -8  -1  -9    6.91    1.08
  -8   1 -10    0.35    0.36
  -8   1 -10    0.81    0.38
  -8   1 -10    1.58    0.56
  -8  -1 -10    0.46    0.44
  -8  -1 -10    0.68    0.33
  -8   1 -11   -0.14    0.30
  -8   1 -11    0.02    0.24
  -8  -1 -11   -0.65    0.46
  -8   1 -12    3.24    0.76
  -8   1 -12    2.91    0.73
  -8  -1 -12    2.97    0.83
  -8   1 -13    0.33    0.36
  -8  -1 -13   -0.28    0.53
  -8   1 -14   -1.06    0.48
  -8  -1 -14    0.17    0.32
  -8   1 -15   -0.79    0.44
  -8  -2  18    1.56    0.57
   8  -2 -18    1.67    0.62
  -8  -2  17    1.91    0.64
   8  -2 -17    1.29    0.57
  -8   2  16    0.99    0.44
  -8  -2  16   -0.08    0.45
  -8   2  15    2.46    0.59
  -8  -2  15    3.85    0.84
  -8   2  14    1.14    0.43
  -8  -2  14    0.68    0.47
  -8   2  13    0.79    0.36
  -8  -2  13    0.94    0.47
  -8   2  12    0.65    0.38
  -8  -2  12    0.97    0.47
  -8   2  11    1.82    0.50
  -8  -2  11    2.27    0.59
  -8   2  10    2.20    0.54
  -8  -2  10    1.81    0.55
  -8  -2  10    2.03    0.39
  -8   2   9    5.53    0.78
  -8  -2   9    4.74    0.75
  -8   2   9    5.50    0.77
  -8  -2   9    5.63    0.64
  -8  -2   8   43.16    1.94
  -8   2   8   44.68    1.98
  -8  -2   8   46.99    1.80
  -8   2   8   45.00    2.08
  -8  -2   7    8.79    0.87
  -8   2   7    7.79    0.83
  -8  -2   7    8.36    0.79
  -8   2   7    8.74    0.96
  -8   2   6    0.23    0.29
  -8   2   6    0.74    0.36
  -8  -2   6    0.63    0.34
  -8  -2   6    1.12    0.35
  -8   2   5    0.83    0.37
  -8   2   5    0.17    0.25
   8   2  -5    0.09    0.19
  -8  -2   5    0.05    0.16
  -8  -2   5    0.11    0.24
  -8  -2   5    0.36    0.29
  -8   2   4    1.20    0.36
  -8   2   4    1.61    0.49
   8   2  -4    0.80    0.22
  -8  -2   4    1.90    0.39
  -8  -2   4    1.07    0.37
  -8  -2   4    0.77    0.27
  -8  -2   3    7.32    0.68
   8   2  -3    6.65    0.54
  -8   2   3    6.23    0.79
  -8   2   3    8.22    0.77
  -8  -2   3    6.85    0.75
  -8  -2   3    6.88    0.71
   8   2  -2    4.99    0.45
  -8   2   2    6.23    0.79
  -8  -2   2    4.81    0.63
  -8  -2   2    5.03    0.68
  -8   2   2    5.20    0.60
  -8  -2   2    5.84    0.56
  -8   2   1    0.61    0.39
  -8  -2   1    0.62    0.26
  -8  -2   1    0.43    0.20
   8   2  -1    0.29    0.14
  -8   2   1    0.24    0.20
  -8   2   1    0.22    0.22
  -8  -2   1    0.35    0.31
  -8   2   0    1.27    0.42
  -8   2   0    0.96    0.30
  -8   2   0    1.00    0.31
  -8  -2   0    1.14    0.41
  -8  -2   0    2.09    0.46
  -8   2  -1    6.44    0.62
  -8   2  -1    7.43    0.74
  -8  -2  -1    6.66    0.77
  -8  -2  -1    7.83    0.86
  -8   2  -2   28.13    1.25
  -8   2  -2   26.74    1.42
  -8  -2  -2   27.39    1.66
  -8  -2  -2   27.90    1.51
  -8   2  -2   26.99    1.60
  -8   2  -3   43.14    1.55
  -8   2  -3   41.21    1.80
  -8  -2  -3   40.25    2.07
  -8  -2  -3   40.34    1.83
  -8   2  -3   38.43    1.92
  -8  -2  -4   -0.30    0.28
  -8   2  -4    0.06    0.18
  -8   2  -4    0.25    0.26
  -8  -2  -4    0.26    0.27
  -8   2  -4   -0.05    0.21
  -8  -2  -5    1.17    0.43
  -8   2  -5    0.98    0.28
  -8   2  -5    1.10    0.39
  -8   2  -5    0.36    0.25
  -8  -2  -5    1.05    0.37
  -8  -2  -6   -0.30    0.33
  -8   2  -6   -0.02    0.26
  -8  -2  -6    0.00    0.27
  -8   2  -6    0.15    0.22
  -8  -2  -7    2.63    0.65
  -8   2  -7    2.43    0.52
  -8   2  -7    2.02    0.51
  -8  -2  -7    2.82    0.54
  -8   2  -8    0.48    0.30
  -8  -2  -8    1.10    0.49
  -8   2  -8    0.31    0.31
  -8  -2  -8    0.46    0.44
  -8  -2  -8    0.02    0.21
  -8   2  -9    0.21    0.23
  -8  -2  -9    0.69    0.35
  -8   2 -10    0.27    0.27
  -8  -2 -10   -0.14    0.44
  -8  -2 -10    0.55    0.32
  -8   2 -11    0.56    0.36
  -8  -2 -11   -0.16    0.41
  -8   2 -12    0.38    0.33
  -8  -2 -12    0.35    0.35
  -8   2 -13    1.35    0.44
  -8  -2 -13    0.46    0.49
  -8   3  15   -0.42    0.42
  -8  -3  15    0.51    0.48
  -8   3  14    1.11    0.44
  -8   3  14    0.42    0.42
  -8  -3  14    1.13    0.47
  -8   3  13    1.73    0.54
  -8   3  13    3.01    0.74
  -8  -3  13    4.21    0.85
  -8   3  12   -0.44    0.29
  -8   3  12   -0.64    0.55
  -8  -3  12    0.13    0.35
  -8   3  11    1.03    0.42
  -8   3  11   -0.05    0.43
  -8  -3  11    0.56    0.46
  -8   3  10    0.35    0.33
  -8   3  10    0.40    0.42
  -8  -3  10    0.48    0.40
  -8  -3  10    0.36    0.27
  -8   3   9    0.24    0.28
  -8   3   9    0.60    0.47
  -8  -3   9    0.57    0.38
  -8   3   8    0.23    0.31
  -8   3   8    0.00    0.35
  -8  -3   8   -0.02    0.28
  -8  -3   8    0.75    0.37
   8   3  -8   -0.03    0.22
  -8   3   7    1.58    0.50
  -8   3   7    1.28    0.48
   8   3  -7    0.89    0.36
  -8  -3   7    1.08    0.45
  -8  -3   7    1.24    0.43
  -8   3   6    2.37    0.56
  -8   3   6    4.03    0.73
   8   3  -6    2.79    0.49
  -8  -3   6    2.41    0.55
  -8  -3   6    3.32    0.62
  -8   3   5    4.89    0.78
  -8   3   5    3.89    0.74
   8   3  -5    2.65    0.47
  -8  -3   5    3.02    0.56
  -8  -3   5    3.80    0.66
  -8  -3   4   33.40    1.64
   8   3  -4   33.22    1.54
  -8   3   4   30.67    1.78
  -8  -3   4   34.77    1.89
  -8   3   4   31.27    1.93
  -8   3   3   -0.28    0.28
   8   3  -3    0.43    0.23
  -8  -3   3    0.07    0.22
  -8   3   3   -0.20    0.31
  -8  -3   3   -0.16    0.27
  -8   3   2    0.18    0.26
  -8  -3   2   -0.03    0.30
  -8   3   1    1.98    0.49
  -8  -3   1    2.38    0.56
  -8   3   0    0.98    0.35
  -8  -3   0    1.59    0.54
  -8   3  -1   -0.60    0.32
  -8  -3  -1   -0.19    0.30
  -8   3  -2   11.56    1.03
  -8   3  -2   10.28    1.02
  -8  -3  -2   10.76    1.10
  -8  -3  -2    9.70    1.05
  -8  -3  -3    0.12    0.26
  -8   3  -3   -0.17    0.24
  -8   3  -3    0.27    0.27
  -8  -3  -3    0.31    0.28
  -8   3  -4   -0.02    0.24
  -8   3  -4   -0.27    0.25
  -8  -3  -4    0.47    0.32
  -8   3  -5    0.35    0.32
  -8   3  -5    0.13    0.21
  -8  -3  -5    0.50    0.38
  -8   3  -6    3.85    0.64
  -8   3  -6    4.09    0.73
  -8  -3  -6    4.61    0.76
  -8   3  -7    1.62    0.52
  -8  -3  -7    1.34    0.48
  -8   3  -8   19.45    1.58
  -8  -3  -8   21.39    1.58
  -8   3  -9    0.42    0.33
  -8  -3  -9    0.50    0.33
  -8   3 -10    0.04    0.27
  -8  -3 -10    0.23    0.25
  -8  -4  12   -0.15    0.38
  -8   4  11    1.57    0.60
  -8  -4  11    1.91    0.69
  -8   4  10    0.56    0.31
  -8   4  10   -0.37    0.40
  -8  -4  10   -0.40    0.43
  -8   4   9    2.56    0.74
   8   4  -9    1.74    0.48
  -8  -4   9    1.39    0.55
  -8   4   9    2.46    0.66
  -8  -4   9    2.36    0.59
   8   4  -8    9.55    1.06
  -8  -4   8    6.67    0.95
  -8  -4   8    9.48    1.14
  -8   4   8    8.58    1.20
   8   4  -7    3.05    0.62
  -8  -4   7    3.51    0.70
  -8   4   7    3.70    0.83
  -8  -4   7    4.11    0.82
   8   4  -6    0.03    0.22
  -8   4   6   -0.07    0.31
  -8  -4   6    0.66    0.44
  -8   4   5   -0.13    0.34
  -8  -4   5    0.24    0.35
  -8   4   4   -0.79    0.47
  -8  -4   4    0.15    0.38
  -8   4   3   -0.47    0.39
  -8  -4   3   -0.12    0.52
  -8   4   2    3.42    0.72
  -8  -4   2    5.10    0.89
  -8   4   1    0.74    0.42
  -8  -4   1    0.61    0.46
  -8   4   0    0.17    0.29
  -8  -4   0   -0.40    0.47
  -8   4  -1    1.40    0.47
  -8  -4  -1    2.46    0.68
  -8   4  -2    3.90    0.75
  -8  -4  -2    5.04    0.90
  -8   4  -3    0.19    0.31
  -8   4  -3    0.36    0.29
  -8  -4  -3    0.64    0.47
  -8   4  -4    0.36    0.35
  -8   4  -4    1.34    0.46
  -8  -4  -4    1.10    0.53
  -8   4  -5    4.15    0.76
  -8   4  -5    4.09    0.78
  -8  -4  -5    5.55    0.94
  -8   4  -6    0.32    0.34
  -8  -4  -6    0.20    0.40
  -8  -4  -7    6.32    1.04
  -9   0  20    0.61    0.36
  -9   0  19    1.13    0.45
  -9   0  18    2.68    0.67
  -9   0  17    0.73    0.46
  -9   0  16   16.15    1.44
  -9   0  15    1.29    0.55
  -9   0  14   -0.09    0.40
  -9   0  13    0.23    0.38
  -9   0  12   43.03    2.08
  -9   0  11   -0.14    0.33
  -9   0  10    5.09    0.75
  -9   0   9    0.33    0.41
  -9   0   8  160.38    3.51
  -9   0   7   -0.16    0.29
  -9   0   6    6.51    0.71
  -9   0   5    0.02    0.24
  -9   0   4   27.14    1.32
  -9   0   3   -0.20    0.24
  -9   0   2   49.70    1.72
  -9   0   1   -0.02    0.17
  -9   0   0   39.66    1.49
  -9   0   0   37.76    1.91
  -9   0  -1   -0.02    0.18
  -9   0  -1   -0.07    0.23
  -9   0  -2    0.54    0.23
  -9   0  -2    0.41    0.37
  -9   0  -3    0.03    0.12
  -9   0  -3   -0.08    0.21
  -9   0  -4    0.12    0.30
  -9   0  -5   -0.09    0.28
  -9   0  -6    0.47    0.36
  -9   0  -7   -0.05    0.29
  -9   0  -8   -0.58    0.40
  -9   0  -8   -0.20    0.41
  -9   0  -9   -0.38    0.35
  -9   0  -9   -0.29    0.39
  -9   0 -10    6.35    1.08
  -9   0 -10    5.34    0.94
  -9   0 -11    0.35    0.36
  -9   0 -11   -0.37    0.41
  -9   0 -12   15.34    1.72
  -9   0 -12   13.56    1.56
  -9   0 -13   -0.83    0.52
  -9   0 -14    0.83    0.44
  -9   1  20    0.16    0.30
  -9   1  19    3.61    0.78
  -9  -1  19    4.37    0.87
  -9   1  18    1.38    0.57
  -9  -1  18    1.76    0.59
  -9   1  17    1.50    0.49
  -9  -1  17    1.58    0.55
  -9   1  16    0.73    0.36
  -9  -1  16    0.54    0.51
  -9   1  15    0.31    0.37
  -9  -1  15    0.81    0.44
  -9   1  14    5.21    0.81
  -9  -1  14    5.27    0.87
  -9   1  13    3.77    0.68
  -9  -1  13    3.36    0.68
  -9   1  12   -0.14    0.33
  -9  -1  12   -0.06    0.34
  -9   1  11   15.92    1.28
  -9  -1  11   16.09    1.29
  -9  -1  10   13.74    0.81
  -9   1  10   12.97    1.13
  -9  -1  10   14.53    1.20
  -9  -1   9   14.29    0.86
  -9   1   9   13.80    1.14
  -9  -1   9   15.17    1.17
  -9  -1   8   26.96    1.20
  -9   1   8   25.61    1.52
  -9  -1   8   25.56    1.46
  -9   1   7    2.51    0.54
  -9  -1   7    1.65    0.41
  -9  -1   7    2.29    0.40
  -9   1   6    0.18    0.29
  -9  -1   6    0.22    0.31
  -9   1   6   -0.05    0.10
  -9  -1   6    0.15    0.21
  -9   1   5   14.19    0.85
  -9   1   5   13.10    0.71
  -9  -1   5   12.48    0.87
  -9   1   5   13.01    1.03
  -9  -1   5   13.59    0.95
  -9   1   4   97.42    2.04
  -9   1   4   97.51    2.03
  -9  -1   4   97.76    2.43
  -9   1   4   99.44    2.74
  -9  -1   4   98.95    2.40
  -9   1   3   11.98    0.68
  -9   1   3   11.82    0.74
  -9  -1   3   11.38    0.87
  -9   1   3   11.76    0.96
  -9  -1   3   11.65    0.80
  -9   1   2    7.88    0.52
  -9   1   2    8.32    0.66
  -9  -1   2    8.39    0.77
  -9   1   2    9.29    0.85
  -9  -1   2    8.50    0.90
  -9  -1   2    8.83    0.68
  -9   1   1    1.14    0.38
  -9  -1   1    1.07    0.36
  -9  -1   1    1.53    0.29
  -9   1   1    1.00    0.27
  -9   1   1    1.31    0.22
  -9  -1   1    1.23    0.38
  -9   1   0   -0.03    0.24
  -9  -1   0    0.01    0.16
  -9  -1   0    0.00    0.21
  -9   1   0   -0.19    0.18
  -9  -1   0   -0.15    0.28
  -9   1  -1    2.03    0.44
  -9  -1  -1    2.61    0.33
  -9   1  -1    2.11    0.40
  -9  -1  -1    2.41    0.48
  -9  -1  -1    2.16    0.50
  -9   1  -2    1.96    0.44
  -9  -1  -2    1.81    0.46
  -9   1  -2    1.99    0.48
  -9   1  -2    1.17    0.30
  -9  -1  -2    1.25    0.36
  -9  -1  -3    7.73    0.95
  -9   1  -3    7.11    0.90
  -9   1  -3    6.62    0.71
  -9  -1  -3    7.26    0.76
  -9   1  -4   28.15    1.46
  -9  -1  -4   27.27    1.45
  -9  -1  -4   26.83    1.78
  -9   1  -4   28.80    1.78
  -9   1  -5    7.08    0.93
  -9   1  -5    6.30    0.74
  -9  -1  -5    6.47    0.94
  -9  -1  -5    6.00    0.69
  -9  -1  -6   -0.17    0.29
  -9   1  -6    0.64    0.34
  -9  -1  -6    0.81    0.32
  -9   1  -6    0.18    0.26
  -9  -1  -7   -0.11    0.34
  -9   1  -7    0.14    0.25
  -9   1  -7   -0.15    0.28
  -9  -1  -8    8.50    1.16
  -9   1  -8    9.51    1.17
  -9   1  -8    9.93    1.00
  -9  -1  -8   11.29    1.32
  -9  -1  -9   -0.37    0.37
  -9   1  -9   -0.08    0.24
  -9   1  -9    0.29    0.32
  -9   1  -9    0.03    0.30
  -9  -1  -9    0.70    0.52
  -9  -1 -10    5.23    1.02
  -9   1 -10    6.61    1.05
  -9   1 -10    5.76    0.91
  -9  -1 -10    5.74    1.08
  -9   1 -11    0.66    0.43
  -9   1 -11    0.18    0.33
  -9  -1 -11    0.22    0.41
  -9   1 -12    1.04    0.55
  -9  -1 -12    0.67    0.47
  -9   1 -12    1.79    0.61
  -9   1 -13    0.84    0.51
  -9  -1 -13    0.95    0.54
  -9   1 -14   12.35    1.51
   9  -2 -18    1.14    0.53
  -9   2  17    0.05    0.12
  -9  -2  17    0.91    0.51
  -9   2  16    0.09    0.34
  -9  -2  16    0.72    0.46
  -9   2  15    2.87    0.67
  -9  -2  15    1.77    0.61
  -9  -2  14    8.48    1.12
  -9   2  14    9.85    1.12
  -9   2  13    0.38    0.29
  -9  -2  13    0.58    0.47
  -9  -2  12   16.51    1.42
  -9   2  12   15.70    1.37
  -9   2  11    1.05    0.36
  -9  -2  11    1.41    0.51
  -9   2  10    0.58    0.36
  -9  -2  10    1.19    0.46
  -9   2  10    0.89    0.42
  -9  -2  10    1.01    0.30
  -9   2   9    6.73    0.87
  -9   2   9    7.77    0.91
  -9  -2   9    6.33    0.85
  -9  -2   9    7.16    0.73
  -9  -2   8   21.95    1.42
  -9   2   8   24.39    1.48
  -9  -2   8   23.63    1.33
  -9   2   8   23.13    1.56
  -9   2   7   -0.08    0.30
  -9   2   7   -0.37    0.37
  -9  -2   7    0.06    0.30
  -9  -2   7    0.16    0.26
  -9   2   6   -0.08    0.33
  -9   2   6    0.07    0.24
  -9  -2   6    0.00    0.25
  -9  -2   6    0.11    0.25
  -9   2   5    3.38    0.56
  -9   2   5    2.64    0.60
  -9  -2   5    3.05    0.51
  -9  -2   5    3.44    0.55
  -9  -2   5    3.82    0.59
  -9   2   4    8.37    0.79
  -9   2   4    6.70    0.64
  -9  -2   4    8.85    0.85
  -9  -2   4    7.30    0.78
  -9   2   4   10.14    1.05
  -9  -2   4    8.02    0.75
  -9   2   3   -0.24    0.38
  -9  -2   3    0.11    0.22
  -9  -2   3    0.19    0.21
  -9   2   3   -0.05    0.14
  -9  -2   3    0.21    0.32
  -9   2   3   -0.06    0.21
  -9   2   2   26.36    1.29
  -9   2   2   28.71    1.37
  -9  -2   2   27.33    1.52
  -9  -2   2   27.34    1.53
  -9   2   2   25.21    1.60
  -9  -2   2   30.08    1.27
  -9   2   1    2.64    0.60
  -9  -2   1    2.35    0.49
  -9   2   1    2.76    0.46
  -9   2   1    3.02    0.46
  -9  -2   1    3.17    0.58
  -9   2   0   13.33    0.89
  -9   2   0   14.39    1.03
  -9  -2   0   14.37    1.12
  -9  -2   0   14.59    1.20
  -9   2   0   14.38    1.23
  -9   2  -1    1.89    0.43
  -9   2  -1    1.95    0.36
  -9  -2  -1    2.05    0.52
  -9  -2  -1    0.77    0.39
  -9   2  -2    0.26    0.30
  -9   2  -2    0.24    0.27
  -9  -2  -2    0.13    0.23
  -9  -2  -2    0.41    0.32
  -9  -2  -3    2.24    0.58
  -9   2  -3    3.54    0.65
  -9   2  -3    2.77    0.54
  -9  -2  -3    2.52    0.52
  -9  -2  -4    2.28    0.58
  -9   2  -4    1.41    0.42
  -9  -2  -4    2.03    0.50
  -9   2  -4    2.17    0.51
  -9  -2  -5    0.53    0.36
  -9   2  -5    1.43    0.45
  -9   2  -5    1.72    0.47
  -9  -2  -5    0.95    0.40
  -9   2  -6    0.72    0.36
  -9  -2  -6    1.70    0.57
  -9   2  -6    0.88    0.35
  -9  -2  -6    0.38    0.28
  -9  -2  -7    1.52    0.58
  -9   2  -7    0.53    0.33
  -9   2  -7    1.54    0.50
  -9  -2  -7    1.64    0.47
  -9   2  -8    0.25    0.23
  -9   2  -8    0.66    0.35
  -9  -2  -8    0.19    0.27
  -9  -2  -8    0.58    0.46
  -9   2  -9    3.07    0.63
  -9  -2  -9    2.65    0.55
  -9   2 -10    8.13    1.02
  -9  -2 -10   10.31    1.40
  -9  -2 -10    7.55    0.88
  -9   2 -11    0.84    0.41
  -9  -2 -11    0.17    0.42
  -9   2 -12   -0.25    0.32
  -9  -2 -12   -0.69    0.51
  -9   3  15    0.84    0.50
  -9  -3  15    1.24    0.54
  -9   3  14    0.23    0.26
  -9   3  14    0.81    0.49
  -9  -3  14    0.55    0.41
  -9   3  13    0.29    0.30
  -9   3  13    0.02    0.38
  -9  -3  13    0.57    0.53
  -9   3  12    0.25    0.30
  -9   3  12    0.03    0.35
  -9   3  11    2.98    0.67
  -9   3  11    1.01    0.47
  -9  -3  11    3.00    0.71
  -9   3  10    0.23    0.30
  -9   3  10    0.91    0.48
  -9  -3  10    1.36    0.51
  -9  -3  10    0.93    0.41
  -9   3   9    1.53    0.56
  -9   3   9    0.21    0.36
  -9  -3   9    1.12    0.46
  -9  -3   9    1.48    0.43
  -9   3   8    0.77    0.44
  -9   3   8    1.41    0.53
  -9  -3   8    1.55    0.51
  -9  -3   8    0.63    0.35
  -9  -3   7    8.80    0.97
  -9   3   7    8.44    1.01
  -9   3   7    6.63    0.95
  -9  -3   7    8.01    0.94
   9   3  -7    7.24    0.76
  -9   3   6   -0.04    0.34
  -9   3   6   -0.23    0.32
  -9  -3   6    0.21    0.34
  -9  -3   6   -0.41    0.31
  -9   3   5    0.23    0.35
  -9  -3   5    0.40    0.31
  -9  -3   5   -0.17    0.28
  -9   3   5    0.54    0.37
  -9   3   4   11.50    1.12
  -9  -3   4   11.39    1.12
  -9   3   4   13.36    1.31
  -9   3   3    0.47    0.40
  -9   3   3    0.37    0.34
  -9  -3   3    0.20    0.29
  -9   3   2    3.31    0.61
  -9  -3   2    2.30    0.57
  -9   3   1    0.04    0.25
  -9  -3   1    0.02    0.33
  -9   3   0    6.89    0.85
  -9   3   0    6.79    0.81
  -9  -3   0    7.86    0.96
  -9   3  -1   -0.42    0.27
  -9   3  -1    0.05    0.21
  -9   3  -2   14.47    1.15
  -9   3  -2   14.37    1.25
  -9  -3  -2   12.57    1.25
  -9  -3  -2   12.73    1.25
  -9   3  -3   -0.31    0.25
  -9  -3  -3    0.08    0.35
  -9  -3  -3   -0.22    0.31
  -9  -3  -4   -0.04    0.41
  -9   3  -4    0.91    0.42
  -9  -3  -4    0.33    0.39
  -9   3  -5    1.65    0.47
  -9  -3  -5    1.91    0.53
  -9   3  -6   -0.27    0.24
  -9  -3  -6   -0.48    0.39
  -9   3  -7    0.51    0.40
  -9  -3  -7    1.06    0.48
  -9   3  -8    3.31    0.71
  -9  -3  -8    2.14    0.54
  -9   3  -9    0.29    0.41
  -9  -3  -9    0.90    0.42
  -9   4  11    0.59    0.41
  -9  -4  11    3.13    0.77
  -9   4  10    2.84    0.74
  -9   4  10    2.73    0.72
  -9  -4  10    3.54    0.75
  -9   4   9    1.51    0.55
  -9   4   9    1.12    0.48
  -9  -4   9    2.12    0.61
  -9  -4   9    1.99    0.56
  -9  -4   8    1.07    0.40
  -9   4   8    0.28    0.32
  -9  -4   8    0.06    0.27
  -9  -4   7    9.82    1.19
  -9   4   7    8.01    1.13
  -9   4   6   -1.15    0.51
  -9  -4   6    0.06    0.34
  -9   4   5    7.69    1.09
  -9  -4   5    5.49    0.91
  -9   4   4    0.30    0.35
  -9  -4   4    0.98    0.50
  -9   4   3   -0.29    0.33
  -9  -4   3   -0.25    0.31
  -9   4   2    1.38    0.53
  -9  -4   2    1.59    0.59
  -9   4   1    0.83    0.44
  -9  -4   1    0.52    0.46
  -9   4   0    9.33    1.11
  -9  -4   0    9.05    1.19
  -9   4  -1    1.04    0.41
  -9   4  -1    0.60    0.40
  -9  -4  -1    0.85    0.45
  -9   4  -2    1.12    0.45
  -9   4  -2    1.36    0.49
  -9  -4  -2    1.35    0.54
  -9   4  -3   -0.17    0.27
  -9  -4  -3    0.20    0.36
  -9   4  -4   -0.95    0.40
  -9  -4  -4    0.46    0.47
  -9  -4  -5    1.20    0.52
 -10   0  19    0.04    0.24
 -10   0  18    0.63    0.38
 -10   0  17    0.72    0.44
 -10   0  16    9.68    1.15
 -10   0  15   -0.04    0.30
 -10   0  14    2.64    0.64
 -10   0  13    0.79    0.46
 -10   0  12    7.55    0.94
 -10   0  11    0.60    0.40
 -10   0  10    0.06    0.29
 -10   0   9    0.18    0.35
 -10   0   8   20.69    1.36
 -10   0   7   -0.06    0.26
 -10   0   6    2.18    0.49
 -10   0   5   -0.01    0.26
 -10   0   4    0.21    0.28
 -10   0   3   -0.04    0.22
 -10   0   2    1.49    0.37
 -10   0   1   -0.12    0.21
 -10   0   0   78.32    2.22
 -10   0   0   78.91    2.93
 -10   0  -1   -0.46    0.37
 -10   0  -1   -0.03    0.18
 -10   0  -2   60.50    2.63
 -10   0  -2   63.01    2.01
 -10   0  -3   -0.29    0.20
 -10   0  -3   -0.69    0.39
 -10   0  -4  128.25    4.01
 -10   0  -5    0.32    0.37
 -10   0  -6    3.94    0.80
 -10   0  -7   -0.26    0.32
 -10   0  -8    1.68    0.56
 -10   0  -9    0.14    0.31
 -10   0 -10    3.65    0.89
 -10   0 -11    0.32    0.45
 -10   0 -11   -0.34    0.44
 -10   0 -12    1.02    0.57
 -10   0 -12   -0.37    0.42
 -10   0 -13    0.00    0.33
 -10   1  19    0.66    0.39
 -10   1  18    3.12    0.70
 -10  -1  18    1.78    0.66
 -10   1  17    0.56    0.39
 -10  -1  17    0.33    0.41
 -10   1  16    8.31    1.10
 -10  -1  16    9.27    1.20
 -10   1  15    0.66    0.32
 -10  -1  15    1.78    0.61
 -10   1  14   -0.13    0.35
 -10  -1  14    0.03    0.35
 -10   1  13   -0.14    0.44
 -10  -1  13    0.04    0.36
 -10   1  12   -0.04    0.39
 -10  -1  12    0.09    0.32
 -10   1  11    9.37    1.04
 -10  -1  11    9.83    1.06
 -10   1  10    4.72    0.73
 -10  -1  10    6.42    0.84
 -10  -1  10    6.05    0.59
 -10  -1   9   17.37    1.01
 -10   1   9   18.56    1.38
 -10  -1   9   15.32    1.21
 -10  -1   8   49.21    1.73
 -10   1   8   51.58    2.22
 -10  -1   8   48.22    2.03
 -10  -1   7   10.46    0.83
 -10   1   7    8.20    0.90
 -10  -1   7   10.62    0.94
 -10   1   6    2.07    0.50
 -10  -1   6    2.28    0.47
 -10   1   6    2.47    0.40
 -10  -1   6    3.07    0.49
 -10   1   5    0.41    0.30
 -10   1   5    0.13    0.18
 -10  -1   5    0.25    0.30
 -10   1   5    0.28    0.14
 -10  -1   5    0.57    0.29
 -10   1   4   17.85    0.93
 -10  -1   4   18.02    1.12
 -10   1   4   15.55    1.16
 -10  -1   4   19.17    1.12
 -10   1   3    0.37    0.30
 -10  -1   3    0.14    0.21
 -10   1   3    0.18    0.15
 -10  -1   3    0.25    0.26
 -10   1   2   11.80    0.83
 -10  -1   2   11.56    0.93
 -10   1   2   12.89    1.05
 -10  -1   2   11.87    1.12
 -10  -1   2   12.62    0.87
 -10   1   1    1.42    0.40
 -10  -1   1    1.27    0.28
 -10   1   1    1.14    0.29
 -10  -1   1    1.73    0.44
 -10  -1   1    0.85    0.37
 -10   1   0    2.80    0.53
 -10  -1   0    2.94    0.39
 -10  -1   0    2.52    0.53
 -10   1   0    2.72    0.45
 -10  -1   0    2.56    0.50
 -10   1  -1   -0.16    0.30
 -10   1  -1    0.47    0.27
 -10  -1  -1    0.36    0.30
 -10  -1  -1    0.00    0.27
 -10   1  -1    0.15    0.31
 -10   1  -2   82.86    2.45
 -10  -1  -2   79.20    2.54
 -10  -1  -2   86.11    3.14
 -10   1  -2   81.36    2.64
 -10   1  -2   82.44    3.09
 -10  -1  -3    1.06    0.41
 -10   1  -3    1.77    0.52
 -10   1  -3    1.51    0.37
 -10  -1  -3    1.62    0.44
 -10   1  -4   34.72    1.69
 -10  -1  -4   37.65    1.78
 -10  -1  -4   37.68    2.21
 -10   1  -4   36.66    2.12
 -10   1  -5    0.55    0.40
 -10  -1  -5    0.93    0.35
 -10   1  -5    0.71    0.35
 -10  -1  -5    1.26    0.50
 -10  -1  -6    4.61    0.86
 -10   1  -6    5.48    0.74
 -10   1  -6    5.02    0.88
 -10  -1  -7   -0.29    0.33
 -10   1  -7    0.48    0.30
 -10   1  -7    0.31    0.31
 -10  -1  -8    0.50    0.40
 -10   1  -8    0.90    0.42
 -10   1  -8    0.24    0.27
 -10  -1  -9   -0.24    0.43
 -10   1  -9   -0.47    0.41
 -10  -1 -10    2.45    0.74
 -10   1 -10    1.14    0.53
 -10   1 -11    1.16    0.51
 -10  -1 -11    0.93    0.50
 -10  -1 -11    2.02    0.75
 -10   1 -12    1.31    0.61
 -10  -1 -12    0.09    0.45
 -10   2  18    0.53    0.37
 -10   2  17    0.52    0.37
 -10  -2  17    0.21    0.37
 -10   2  16    1.25    0.49
 -10  -2  16    1.61    0.60
 -10   2  15    0.90    0.44
 -10  -2  15    1.33    0.58
 -10   2  14    5.65    0.89
 -10  -2  14    5.43    0.93
 -10   2  13    0.29    0.38
 -10  -2  13   -0.07    0.34
 -10   2  12    2.84    0.64
 -10  -2  12    2.59    0.66
 -10   2  11    1.00    0.37
 -10  -2  11    2.06    0.56
 -10   2  11    2.03    0.54
 -10   2  10    1.08    0.44
 -10  -2  10    1.13    0.48
 -10   2  10    1.52    0.45
 -10  -2  10    1.74    0.40
 -10   2   9    3.63    0.70
 -10   2   9    4.61    0.71
 -10  -2   9    3.96    0.68
 -10  -2   9    4.28    0.58
 -10   2   8    0.48    0.34
 -10   2   8    0.44    0.29
 -10  -2   8    0.72    0.36
 -10  -2   8    0.06    0.23
 -10   2   7    2.87    0.61
 -10   2   7    3.36    0.58
 -10  -2   7    2.48    0.52
 -10  -2   7    1.80    0.47
 -10   2   6    1.28    0.46
 -10   2   6    1.35    0.42
 -10  -2   6    1.53    0.42
 -10   2   6    1.38    0.31
 -10  -2   6    1.42    0.42
 -10   2   5    8.36    0.80
 -10   2   5    8.82    0.75
 -10  -2   5    8.67    0.86
 -10   2   5    8.63    0.99
 -10  -2   5    8.44    0.87
 -10  -2   5    8.34    0.82
 -10   2   4    4.19    0.73
 -10  -2   4    4.32    0.57
 -10   2   4    4.44    0.54
 -10  -2   4    4.40    0.64
 -10  -2   4    4.82    0.68
 -10   2   4    4.51    0.59
 -10   2   3   20.03    1.15
 -10   2   3   18.46    1.12
 -10  -2   3   18.46    1.28
 -10  -2   3   18.90    1.34
 -10   2   3   18.39    1.42
 -10  -2   3   19.97    1.13
 -10   2   2   16.03    1.08
 -10  -2   2   16.52    1.23
 -10  -2   2   17.03    1.30
 -10   2   2   18.45    1.42
 -10   2   1    0.13    0.36
 -10  -2   1    0.10    0.24
 -10   2   1    0.24    0.21
 -10  -2   1   -0.54    0.42
 -10  -2   0    1.27    0.42
 -10   2   0    0.84    0.42
 -10   2   0    0.38    0.22
 -10  -2   0    0.35    0.37
 -10   2  -1    0.04    0.20
 -10  -2  -1   -0.05    0.32
 -10  -2  -1   -0.03    0.25
 -10   2  -2    6.83    0.92
 -10   2  -2    7.79    0.86
 -10  -2  -2    8.87    0.93
 -10  -2  -2    7.68    1.01
 -10   2  -3    1.27    0.41
 -10  -2  -3    1.47    0.50
 -10   2  -3    1.07    0.37
 -10  -2  -3    1.57    0.44
 -10  -2  -4    3.01    0.68
 -10   2  -4    2.67    0.56
 -10   2  -4    3.24    0.65
 -10  -2  -4    2.29    0.54
 -10  -2  -5    1.63    0.52
 -10   2  -5    2.27    0.57
 -10   2  -5    1.81    0.48
 -10  -2  -5    1.39    0.47
 -10  -2  -6    5.00    0.92
 -10   2  -6    3.18    0.63
 -10  -2  -6    4.15    0.68
 -10   2  -6    5.02    0.82
 -10  -2  -7    0.73    0.48
 -10   2  -7    0.97    0.41
 -10   2  -7    1.53    0.53
 -10  -2  -7    0.39    0.30
 -10  -2  -8    9.65    1.35
 -10   2  -8    9.93    1.11
 -10   2  -8    9.18    1.20
 -10  -2  -8    8.87    0.99
 -10   2  -9    1.05    0.42
 -10  -2  -9    0.30    0.27
 -10  -2 -10   -0.17    0.27
 -10   2 -10    0.12    0.30
 -10   3  15    0.08    0.25
 -10   3  15   -0.80    0.52
 -10   3  14    3.53    0.78
 -10   3  14    2.07    0.70
 -10  -3  14    1.26    0.55
 -10   3  13    0.15    0.28
 -10   3  13   -0.73    0.46
 -10  -3  13    0.04    0.44
 -10   3  12   -0.68    0.42
 -10  -3  12   -0.59    0.37
 -10   3  11    0.98    0.47
 -10   3  11    1.07    0.52
 -10  -3  11    0.90    0.49
 -10   3  10    9.22    1.17
 -10   3  10    9.42    1.16
 -10  -3  10    8.21    1.06
 -10  -3  10    9.16    0.99
 -10   3   9    0.54    0.38
 -10   3   9    1.36    0.55
 -10  -3   9    0.78    0.44
 -10  -3   9    0.98    0.39
 -10   3   8    4.52    0.80
 -10   3   8    5.06    0.90
 -10  -3   8    2.87    0.67
 -10  -3   8    3.92    0.69
 -10   3   7    0.36    0.36
 -10   3   7    0.24    0.45
 -10  -3   7    0.13    0.25
 -10  -3   7    0.09    0.26
 -10   3   6    1.10    0.48
 -10  -3   6    1.31    0.43
 -10  -3   6    1.38    0.45
 -10   3   6    1.50    0.48
 -10   3   5    6.20    0.96
 -10  -3   5    6.96    0.92
 -10   3   5    6.57    0.87
 -10   3   4    3.37    0.70
 -10  -3   4    4.34    0.73
 -10   3   4    2.12    0.55
 -10   3   3    1.06    0.48
 -10   3   3    0.21    0.18
 -10   3   3    0.12    0.26
 -10  -3   3    0.80    0.46
 -10   3   2    1.91    0.48
 -10   3   2    3.07    0.56
 -10  -3   2    3.59    0.70
 -10   3   1    3.17    0.60
 -10   3   1    2.97    0.56
 -10  -3   1    3.99    0.73
 -10   3   0    0.56    0.28
 -10  -3   0    0.41    0.34
 -10   3  -1    1.37    0.44
 -10  -3  -1    1.91    0.58
 -10   3  -2   13.52    1.25
 -10  -3  -2   13.00    1.33
 -10  -3  -2   13.27    1.29
 -10  -3  -3   -0.19    0.29
 -10   3  -3    0.57    0.31
 -10  -3  -3    0.20    0.33
 -10   3  -4   12.81    1.26
 -10  -3  -4   14.74    1.52
 -10  -3  -4   13.37    1.31
 -10   3  -5    0.53    0.40
 -10  -3  -5    0.63    0.37
 -10   3  -6   -0.09    0.31
 -10  -3  -6   -0.05    0.21
 -10   3  -7    1.21    0.50
 -10  -3  -7    0.00    0.31
 -10   3  -8    1.90    0.58
 -10  -3  -8    1.88    0.58
 -10  -3  -9    0.93    0.40
 -10  -4  11    2.86    0.75
 -10   4  10    0.27    0.39
 -10   4  10   -0.19    0.30
 -10  -4  10    0.84    0.45
 -10   4   9    1.64    0.54
 -10  -4   9    0.66    0.35
 -10   4   9    0.90    0.46
 -10  -4   8    0.29    0.33
 -10   4   8    0.82    0.44
 -10   4   7    1.96    0.61
 -10  -4   7    3.79    0.77
 -10   4   6    0.33    0.37
 -10  -4   6    0.40    0.37
 -10   4   5    2.68    0.68
 -10  -4   5    4.22    0.84
 -10   4   4    1.29    0.51
 -10  -4   4   -0.33    0.41
 -10   4   3    0.16    0.33
 -10  -4   3    0.26    0.32
 -10   4   2   -0.45    0.36
 -10  -4   2    0.44    0.38
 -10   4   1    1.41    0.46
 -10  -4   1    2.59    0.72
 -10   4   0    0.15    0.26
 -10  -4   0    0.19    0.38
 -10   4  -1    0.15    0.19
 -10  -4  -1    0.24    0.37
 -10   4  -2    1.66    0.53
 -10  -4  -2    2.92    0.75
 -11   0  18    2.80    0.70
 -11   0  17   -0.05    0.26
 -11   0  16    3.59    0.76
 -11   0  15    0.15    0.33
 -11   0  14   -0.25    0.29
 -11   0  13    0.57    0.43
 -11   0  12   62.90    2.68
 -11   0  11   -0.23    0.31
 -11   0  10   58.80    2.46
 -11   0   9    0.03    0.29
 -11   0   8   15.03    1.21
 -11   0   7   -0.09    0.32
 -11   0   6    4.72    0.69
 -11   0   5    0.22    0.28
 -11   0   4   10.11    0.92
 -11   0   3    0.22    0.27
 -11   0   2   13.45    1.01
 -11   0   1   -0.04    0.20
 -11   0   0    1.84    0.40
 -11   0   0    1.61    0.49
 -11   0  -1    0.15    0.20
 -11   0  -1   -0.64    0.36
 -11   0  -2    7.44    1.01
 -11   0  -2    8.23    0.77
 -11   0  -3    0.12    0.30
 -11   0  -4   -0.21    0.29
 -11   0  -5   -0.30    0.34
 -11   0  -6    8.54    1.19
 -11   0  -7    0.07    0.38
 -11   0  -8    0.74    0.49
 -11   0  -9   -0.51    0.45
 -11   0 -10    2.14    0.62
 -11   0 -11   -0.35    0.36
 -11   1  18    2.02    0.62
 -11   1  17   -0.37    0.40
 -11  -1  17   -0.03    0.30
 -11   1  16   -0.50    0.50
 -11  -1  16    0.62    0.51
 -11   1  15   -0.36    0.33
 -11  -1  15   -0.07    0.32
 -11   1  14    0.34    0.37
 -11  -1  14    0.25    0.34
 -11   1  13    0.86    0.45
 -11  -1  13    0.99    0.45
 -11   1  12    0.64    0.47
 -11  -1  12    0.97    0.46
 -11   1  11   -0.18    0.32
 -11  -1  11    0.35    0.36
 -11   1  10    0.01    0.32
 -11  -1  10    0.65    0.40
 -11   1   9   -0.04    0.33
 -11  -1   9    0.63    0.39
 -11  -1   9    0.02    0.17
 -11  -1   8   61.99    2.04
 -11   1   8   56.79    2.43
 -11  -1   8   59.73    2.32
 -11   1   7    0.13    0.34
 -11  -1   7    0.22    0.31
 -11  -1   7   -0.13    0.21
 -11   1   6    7.07    0.86
 -11  -1   6    7.73    0.75
 -11  -1   6    7.02    0.79
 -11   1   5    0.47    0.37
 -11  -1   5    1.56    0.45
 -11  -1   5    0.73    0.32
 -11   1   4    9.63    0.72
 -11  -1   4    8.98    0.85
 -11   1   4    7.76    0.88
 -11  -1   4   10.00    0.86
 -11   1   3    1.80    0.49
 -11  -1   3    2.12    0.42
 -11   1   3    1.69    0.34
 -11  -1   3    1.89    0.45
 -11   1   2    6.18    0.79
 -11   1   2    6.16    0.63
 -11  -1   2    5.55    0.83
 -11  -1   2    5.30    0.70
 -11  -1   2    6.33    0.66
 -11   1   1    2.53    0.53
 -11  -1   1    2.41    0.40
 -11   1   1    2.99    0.47
 -11  -1   1    2.53    0.59
 -11  -1   1    3.52    0.60
 -11  -1   0    6.39    0.91
 -11   1   0    7.66    0.74
 -11  -1   0    7.82    0.83
 -11   1   0    7.91    0.87
 -11   1  -1   17.99    1.17
 -11  -1  -1   20.33    1.33
 -11  -1  -1   20.93    1.60
 -11   1  -1   20.40    1.39
 -11   1  -1   17.98    1.53
 -11   1  -2   13.40    1.05
 -11  -1  -2   13.73    1.13
 -11  -1  -2   12.04    1.27
 -11   1  -2   13.22    1.31
 -11   1  -2   13.63    1.13
 -11  -1  -3    5.08    0.86
 -11   1  -3    3.85    0.74
 -11   1  -3    4.57    0.66
 -11  -1  -3    2.96    0.57
 -11   1  -4    7.51    1.06
 -11   1  -4    5.94    0.75
 -11  -1  -4    5.99    0.94
 -11   1  -5    0.23    0.34
 -11   1  -5   -0.36    0.28
 -11  -1  -5    0.12    0.26
 -11  -1  -6    3.87    0.88
 -11   1  -6    3.31    0.60
 -11   1  -6    3.80    0.78
 -11  -1  -7   -0.74    0.48
 -11   1  -7    0.57    0.43
 -11  -1  -8    3.14    0.84
 -11   1  -8    1.92    0.60
 -11  -1  -9    1.67    0.64
 -11   1  -9    0.57    0.37
 -11  -1 -10    0.33    0.29
 -11   1 -10    0.24    0.34
 -11   1 -11    0.69    0.50
 -11  -1 -11    2.18    0.74
 -11   1 -12    1.20    0.59
 -11   2  17    0.12    0.25
 -11   2  16    3.22    0.77
 -11  -2  16    3.49    0.83
 -11   2  15    7.85    1.12
 -11  -2  15    6.70    1.06
 -11   2  14    2.83    0.69
 -11  -2  14    3.07    0.76
 -11   2  13    2.91    0.70
 -11  -2  13    2.52    0.68
 -11   2  12    1.38    0.50
 -11  -2  12    1.98    0.63
 -11   2  12    1.18    0.48
 -11   2  11    0.36    0.49
 -11  -2  11   -0.16    0.38
 -11   2  11    0.80    0.41
 -11   2  10    0.71    0.40
 -11   2  10    0.72    0.36
 -11  -2  10    0.48    0.35
 -11  -2  10    0.69    0.29
 -11   2   9    1.79    0.56
 -11   2   9    1.31    0.41
 -11  -2   9    2.38    0.58
 -11  -2   9    1.57    0.39
 -11   2   8    6.53    0.93
 -11   2   8    7.38    0.85
 -11  -2   8    7.01    0.87
 -11  -2   8    7.16    0.81
 -11   2   7    0.53    0.39
 -11   2   7    0.50    0.30
 -11  -2   7   -0.09    0.28
 -11  -2   7    0.69    0.32
 -11   2   6    1.94    0.55
 -11  -2   6    1.96    0.44
 -11  -2   6    2.36    0.52
 -11  -2   6    2.63    0.53
 -11   2   5    0.04    0.35
 -11  -2   5    0.18    0.25
 -11  -2   5    0.27    0.19
 -11   2   5   -0.02    0.09
 -11  -2   5    0.24    0.28
 -11   2   4   20.69    1.19
 -11  -2   4   21.02    1.39
 -11  -2   4   22.13    1.55
 -11   2   4   21.37    1.59
 -11  -2   4   22.96    1.30
 -11   2   3    2.25    0.56
 -11   2   3    2.40    0.43
 -11  -2   3    2.62    0.55
 -11  -2   3    2.69    0.58
 -11   2   2    0.25    0.35
 -11  -2   2    0.19    0.24
 -11   2   2    0.47    0.26
 -11  -2   2    0.25    0.29
 -11   2   1    0.54    0.39
 -11  -2   1    0.30    0.25
 -11   2   1   -0.40    0.23
 -11  -2   1    0.01    0.29
 -11  -2   0    0.16    0.29
 -11   2   0    0.49    0.42
 -11   2   0   -0.25    0.24
 -11  -2   0    0.23    0.29
 -11   2  -1    1.04    0.40
 -11   2  -1    0.58    0.31
 -11  -2  -1    1.15    0.46
 -11  -2  -1    1.47    0.46
 -11   2  -2    0.93    0.42
 -11   2  -2    1.96    0.49
 -11  -2  -2    2.41    0.64
 -11  -2  -2    1.99    0.51
 -11   2  -3    0.31    0.25
 -11  -2  -3    0.43    0.41
 -11   2  -3   -0.11    0.26
 -11  -2  -3   -0.06    0.30
 -11  -2  -4    0.00    0.30
 -11   2  -4    0.24    0.27
 -11   2  -4    0.45    0.35
 -11  -2  -4   -0.12    0.30
 -11   2  -5    0.00    0.16
 -11  -2  -5    0.57    0.39
 -11   2  -5   -0.22    0.25
 -11  -2  -5    0.11    0.22
 -11  -2  -6    1.89    0.65
 -11   2  -6    3.26    0.64
 -11  -2  -6    3.00    0.62
 -11   2  -6    3.58    0.72
 -11  -2  -7    0.35    0.39
 -11   2  -7    0.59    0.34
 -11  -2  -7    0.65    0.35
 -11  -2  -8    2.27    0.74
 -11   2  -8    2.43    0.67
 -11   2  -8    2.98    0.67
 -11  -2  -8    2.37    0.59
 -11  -2  -9   -0.10    0.24
 -11   2  -9    0.26    0.28
 -11   3  14    0.75    0.39
 -11   3  14   -0.61    0.38
 -11   3  13    0.11    0.31
 -11   3  13   -0.18    0.38
 -11  -3  13    0.35    0.39
 -11   3  12    3.68    0.81
 -11   3  12    2.73    0.72
 -11  -3  12    3.70    0.83
 -11   3  11    3.32    0.77
 -11   3  11    2.86    0.75
 -11  -3  11    2.67    0.68
 -11   3  10    3.16    0.74
 -11   3  10    3.13    0.71
 -11  -3  10    3.04    0.73
 -11   3   9    4.23    0.78
 -11   3   9    3.76    0.80
 -11  -3   9    4.16    0.75
 -11  -3   9    3.60    0.65
 -11   3   8    7.80    1.01
 -11   3   8    9.81    1.23
 -11  -3   8    9.63    1.09
 -11  -3   8   10.52    1.12
 -11   3   7    4.39    0.78
 -11   3   7    5.47    0.92
 -11  -3   7    2.64    0.58
 -11  -3   7    4.44    0.73
 -11   3   6    6.85    1.04
 -11  -3   6    6.42    0.89
 -11   3   6    6.04    0.88
 -11   3   5    0.60    0.44
 -11   3   5    0.40    0.24
 -11  -3   5    0.81    0.39
 -11   3   4   -0.28    0.43
 -11   3   4   -0.07    0.15
 -11  -3   4   -0.14    0.34
 -11   3   3    2.31    0.64
 -11   3   3    2.05    0.46
 -11  -3   3    2.18    0.58
 -11   3   2   -0.05    0.17
 -11  -3   2    1.06    0.50
 -11   3   1    0.48    0.26
 -11  -3   1   -0.30    0.36
 -11   3   0    0.20    0.18
 -11  -3   0    0.19    0.35
 -11   3  -1    6.78    0.89
 -11  -3  -1    7.23    1.01
 -11   3  -2   -0.45    0.30
 -11  -3  -2    0.23    0.29
 -11  -3  -3   -0.15    0.28
 -11   3  -3    0.06    0.25
 -11  -3  -3    0.14    0.36
 -11  -3  -4    8.34    1.18
 -11   3  -4   10.12    1.17
 -11  -3  -4    9.11    1.12
 -11  -3  -5   -0.50    0.44
 -11   3  -5   -0.02    0.25
 -11  -3  -5    0.49    0.42
 -11   3  -6   -0.22    0.29
 -11  -3  -6   -0.13    0.27
 -11  -3  -7   -0.23    0.25
 -11  -4   9   -0.10    0.19
 -11   4   9    0.06    0.34
 -11  -4   8   -0.29    0.36
 -11   4   8   -0.38    0.44
 -11  -4   7   -0.14    0.38
 -11   4   7   -0.09    0.33
 -11  -4   6    0.71    0.43
 -11  -4   5    0.47    0.41
 -11   4   4    0.94    0.37
 -11  -4   4    0.49    0.40
 -11   4   3    0.37    0.24
 -11  -4   3   -0.41    0.38
 -11   4   2    0.38    0.27
 -11   4   1    2.75    0.64
 -11   4   0   -0.23    0.28
 -12   0  17    0.14    0.37
 -12   0  16    6.15    1.02
 -12   0  15   -0.58    0.41
 -12   0  14    2.65    0.69
 -12   0  13   -0.22    0.40
 -12   0  12    4.63    0.81
 -12   0  11   -0.35    0.35
 -12   0  10    0.43    0.38
 -12   0   9   -0.36    0.32
 -12   0   8    5.13    0.77
 -12   0   7   -0.35    0.36
 -12   0   6    4.79    0.71
 -12   0   5    0.17    0.27
 -12   0   4    2.20    0.50
 -12   0   3   -0.03    0.20
 -12   0   2    9.56    0.91
 -12   0   1   -0.10    0.21
 -12   0   1    0.40    0.46
 -12   0   0   98.51    3.63
 -12   0   0   93.13    2.73
 -12   0  -1   -0.34    0.22
 -12   0  -1   -0.22    0.38
 -12   0  -2    8.10    1.09
 -12   0  -3    0.16    0.29
 -12   0  -4   28.64    2.12
 -12   0  -5    0.22    0.42
 -12   0  -6    4.90    0.94
 -12   0  -7    0.73    0.50
 -12   0  -8    0.58    0.42
 -12   0  -9   -0.16    0.38
 -12   0 -10   18.78    2.02
 -12   1  17    0.42    0.45
 -12  -1  17    0.02    0.33
 -12   1  16    1.12    0.51
 -12  -1  16    1.74    0.62
 -12   1  15    0.80    0.46
 -12  -1  15    1.45    0.54
 -12   1  14    6.55    1.02
 -12  -1  14    7.03    1.05
 -12   1  13   -0.81    0.44
 -12  -1  13    0.26    0.33
 -12   1  12   19.81    1.64
 -12  -1  12   18.87    1.54
 -12   1  11    1.25    0.47
 -12  -1  11    2.00    0.55
 -12   1  10   21.66    1.62
 -12  -1  10   24.63    1.65
 -12   1   9    0.26    0.40
 -12  -1   9    0.02    0.30
 -12   1   8    1.37    0.47
 -12  -1   8    1.08    0.40
 -12  -1   8    0.73    0.27
 -12   1   7    0.87    0.42
 -12  -1   7    0.14    0.29
 -12  -1   7    0.34    0.23
 -12   1   6    2.01    0.50
 -12  -1   6    1.69    0.46
 -12  -1   6    1.75    0.43
 -12   1   5    3.22    0.58
 -12  -1   5    4.59    0.66
 -12  -1   5    3.36    0.56
 -12   1   4   -0.10    0.27
 -12  -1   4   -0.21    0.23
 -12   1   4    0.29    0.20
 -12  -1   4    0.01    0.25
 -12   1   3    2.93    0.59
 -12  -1   3    2.69    0.47
 -12   1   3    3.05    0.46
 -12  -1   3    2.42    0.50
 -12  -1   3    2.45    0.60
 -12  -1   2    7.50    1.00
 -12   1   2    9.23    0.80
 -12  -1   2    8.53    0.90
 -12   1   2    7.84    0.94
 -12  -1   2    7.60    0.74
 -12   1   1    4.33    0.71
 -12  -1   1    4.91    0.84
 -12   1   1    6.46    0.70
 -12  -1   1    6.71    0.82
 -12   1   0   25.14    1.41
 -12  -1   0   22.29    1.46
 -12  -1   0   22.30    1.73
 -12   1   0   23.63    1.55
 -12   1   0   23.65    1.83
 -12   1  -1   10.32    0.94
 -12  -1  -1   11.42    1.06
 -12  -1  -1   10.66    1.21
 -12   1  -1   10.54    1.07
 -12   1  -1   11.19    1.29
 -12  -1  -2    8.39    1.12
 -12   1  -2    8.54    1.14
 -12   1  -2    9.54    0.93
 -12   1  -2   10.69    1.04
 -12   1  -3   11.66    1.06
 -12  -1  -3   12.00    1.36
 -12   1  -3   12.39    1.35
 -12   1  -4    0.81    0.46
 -12   1  -4    0.35    0.28
 -12  -1  -4    0.45    0.35
 -12   1  -5    0.15    0.30
 -12  -1  -5    1.57    0.57
 -12  -1  -6    0.43    0.42
 -12   1  -6    0.05    0.31
 -12  -1  -7    0.93    0.52
 -12   1  -7   -0.56    0.43
 -12  -1  -8    2.92    0.86
 -12   1  -8    1.07    0.53
 -12  -1  -9    1.77    0.72
 -12   1  -9    0.12    0.26
 -12   1 -10    0.26    0.35
 -12   2  16    5.89    1.01
 -12   2  15    0.03    0.28
 -12  -2  15    0.43    0.39
 -12   2  14    0.56    0.43
 -12  -2  14    0.16    0.32
 -12   2  14    0.22    0.31
 -12   2  13    4.08    0.85
 -12  -2  13    4.10    0.83
 -12   2  13    4.25    0.78
 -12   2  12    6.09    0.98
 -12  -2  12    5.93    0.94
 -12   2  12    6.69    0.91
 -12   2  11    1.06    0.45
 -12   2  11    0.98    0.42
 -12  -2  11    1.63    0.55
 -12   2  10   -0.06    0.29
 -12  -2  10    0.83    0.43
 -12   2   9    0.13    0.30
 -12  -2   9   -0.29    0.40
 -12  -2   9    0.21    0.23
 -12   2   8    1.25    0.52
 -12  -2   8    0.55    0.33
 -12  -2   8    0.88    0.35
 -12   2   7    0.09    0.27
 -12  -2   7    0.97    0.36
 -12  -2   7    0.17    0.28
 -12   2   6    0.25    0.32
 -12  -2   6   -0.17    0.24
 -12  -2   6    0.33    0.27
 -12  -2   6    0.28    0.29
 -12   2   5   -0.42    0.36
 -12  -2   5   -0.28    0.29
 -12  -2   5    0.07    0.31
 -12  -2   5   -0.28    0.28
 -12   2   4    4.75    0.83
 -12  -2   4    5.74    0.85
 -12   2   4    5.51    0.65
 -12  -2   4    7.23    0.87
 -12   2   3    1.12    0.49
 -12   2   3    1.16    0.34
 -12  -2   3    1.71    0.48
 -12  -2   3    2.24    0.55
 -12   2   2    9.46    1.13
 -12   2   2    7.93    0.84
 -12  -2   2    7.71    1.02
 -12  -2   2    8.49    0.96
 -12   2   1    0.33    0.43
 -12  -2   1   -0.60    0.36
 -12   2   1    0.32    0.28
 -12  -2   1    0.53    0.42
 -12   2   0   18.68    1.33
 -12  -2   0   16.05    1.34
 -12  -2   0   16.70    1.52
 -12   2   0   17.49    1.51
 -12   2  -1    8.56    0.94
 -12  -2  -1    9.80    1.08
 -12  -2  -1   10.56    1.24
 -12   2  -1   10.67    1.24
 -12   2  -2   -0.11    0.20
 -12   2  -2    0.20    0.32
 -12  -2  -2    0.71    0.45
 -12  -2  -2    0.05    0.27
 -12   2  -3    8.87    1.16
 -12   2  -3    8.53    0.98
 -12  -2  -3    5.63    0.97
 -12  -2  -3    8.83    1.04
 -12   2  -4   14.57    1.30
 -12  -2  -4   15.87    1.37
 -12  -2  -4   15.87    1.63
 -12   2  -4   16.50    1.60
 -12   2  -5    0.19    0.25
 -12  -2  -5    0.72    0.45
 -12   2  -5    0.45    0.29
 -12  -2  -5    0.09    0.29
 -12   2  -6   -0.35    0.27
 -12  -2  -6    0.03    0.26
 -12  -2  -7    1.33    0.61
 -12   2  -7    0.15    0.29
 -12   2  -7    1.09    0.51
 -12  -2  -7    0.54    0.38
 -12  -2  -8    5.44    1.13
 -12   2  -8    6.94    1.03
 -12   3  14    3.77    0.88
 -12   3  13    0.30    0.37
 -12  -3  13   -0.30    0.39
 -12   3  12   -0.04    0.31
 -12   3  12   -0.37    0.35
 -12  -3  12   -0.10    0.28
 -12   3  11    0.90    0.49
 -12   3  11    0.66    0.38
 -12  -3  11    0.84    0.46
 -12   3  10    3.62    0.83
 -12  -3  10    3.95    0.75
 -12   3   9    1.26    0.53
 -12  -3   9    1.67    0.55
 -12  -3   9    1.36    0.44
 -12  -3   8   20.37    1.56
 -12   3   8   18.94    1.76
 -12   3   7    0.87    0.54
 -12  -3   7   -0.33    0.34
 -12   3   6    0.30    0.41
 -12  -3   6    1.23    0.46
 -12   3   5    0.89    0.56
 -12  -3   5    0.10    0.34
 -12   3   4    1.28    0.50
 -12   3   4    1.04    0.35
 -12  -3   4    2.30    0.61
 -12   3   3    0.49    0.27
 -12  -3   3    1.04    0.45
 -12   3   2   11.30    1.11
 -12  -3   2   11.88    1.25
 -12   3   1    0.09    0.20
 -12  -3   1    0.24    0.37
 -12   3   0    0.93    0.38
 -12  -3   0    1.05    0.45
 -12   3  -1    0.60    0.35
 -12  -3  -1    0.48    0.40
 -12   3  -2    0.55    0.35
 -12  -3  -2    0.80    0.44
 -12   3  -3    1.32    0.48
 -12  -3  -3    4.18    0.82
 -12  -3  -4   -0.33    0.38
 -12   3  -4   -0.26    0.32
 -12  -3  -4   -0.25    0.33
 -12  -3  -5   -0.28    0.44
 -12  -3  -5    1.36    0.60
 -12   4   3    1.76    0.49
 -13   0  16    1.89    0.63
 -13   0  15    0.65    0.47
 -13   0  14    0.46    0.37
 -13   0  13    0.70    0.44
 -13   0  12    9.10    1.14
 -13   0  11   -0.46    0.37
 -13   0  10    2.68    0.65
 -13   0   9   -1.16    0.47
 -13   0   8    6.66    0.89
 -13   0   7   -0.16    0.30
 -13   0   6    0.50    0.31
 -13   0   5    0.11    0.28
 -13   0   4    0.89    0.34
 -13   0   3   -0.20    0.28
 -13   0   2   21.86    1.42
 -13   0   2   20.37    1.76
 -13   0   1    0.49    0.27
 -13   0   1    0.29    0.34
 -13   0   0   -0.22    0.22
 -13   0   0    0.07    0.39
 -13   0  -1   -0.29    0.29
 -13   0  -2    1.41    0.53
 -13   0  -3    0.23    0.36
 -13   0  -4    7.03    1.15
 -13   0  -5    0.46    0.40
 -13   0  -6    1.95    0.68
 -13   0  -7   -0.68    0.46
 -13   0  -8    0.13    0.39
 -13   1  16    1.37    0.56
 -13  -1  16    0.29    0.40
 -13   1  15    3.82    0.81
 -13  -1  15    4.00    0.85
 -13   1  14   -0.56    0.41
 -13  -1  14    0.50    0.40
 -13   1  13    1.14    0.50
 -13  -1  13    1.15    0.45
 -13   1  12   30.23    2.09
 -13  -1  12   32.92    2.06
 -13   1  11    0.38    0.41
 -13  -1  11    1.61    0.56
 -13   1  10    1.92    0.58
 -13  -1  10    1.71    0.50
 -13   1   9    1.95    0.55
 -13  -1   9    2.37    0.60
 -13   1   8    0.23    0.39
 -13  -1   8    0.17    0.28
 -13   1   7    0.35    0.33
 -13  -1   7    0.17    0.29
 -13   1   6    0.55    0.37
 -13  -1   6    0.42    0.27
 -13   1   5    0.36    0.39
 -13  -1   5    0.64    0.30
 -13  -1   5    0.56    0.31
 -13   1   4    0.47    0.33
 -13  -1   4    0.92    0.32
 -13  -1   4    1.54    0.42
 -13  -1   4    0.57    0.39
 -13   1   3    3.20    0.63
 -13  -1   3    2.89    0.52
 -13  -1   3    2.67    0.66
 -13  -1   3    2.95    0.57
 -13   1   3    3.02    0.49
 -13   1   2    2.54    0.59
 -13   1   2    3.52    0.55
 -13  -1   2    2.44    0.65
 -13   1   1    4.43    0.72
 -13  -1   1    4.02    0.80
 -13   1   1    5.17    0.66
 -13   1   0    1.02    0.41
 -13   1   0    0.76    0.29
 -13  -1   0    0.62    0.43
 -13   1   0    0.58    0.45
 -13   1  -1    6.48    0.87
 -13  -1  -1    6.10    1.03
 -13   1  -1    7.03    0.81
 -13   1  -1    6.83    1.06
 -13   1  -2   20.66    1.41
 -13  -1  -2   19.80    1.80
 -13   1  -2   19.57    1.78
 -13   1  -3    3.09    0.74
 -13  -1  -3    2.05    0.60
 -13   1  -4    8.01    1.19
 -13  -1  -4    8.18    1.21
 -13   1  -5   -0.23    0.32
 -13  -1  -5   -0.28    0.43
 -13  -1  -6    0.34    0.46
 -13   1  -6    1.04    0.52
 -13  -1  -7    0.09    0.46
 -13   1  -7   -0.35    0.38
 -13  -1  -8    0.06    0.31
 -13   1  -8   -0.38    0.39
 -13   2  14    1.08    0.47
 -13  -2  14    0.26    0.33
 -13   2  13    3.75    0.81
 -13  -2  13    4.12    0.82
 -13   2  12    0.22    0.41
 -13  -2  12    0.06    0.37
 -13   2  11   17.55    1.66
 -13  -2  11   15.52    1.42
 -13   2  10    2.57    0.69
 -13  -2  10    2.74    0.61
 -13   2   9   11.32    1.34
 -13  -2   9   10.80    1.05
 -13  -2   9   10.48    1.13
 -13  -2   8   15.04    1.26
 -13   2   8   12.45    1.37
 -13  -2   8   12.98    1.21
 -13  -2   7    0.40    0.29
 -13   2   7   -0.33    0.37
 -13  -2   7    0.68    0.37
 -13  -2   7    0.33    0.31
 -13  -2   6   -0.45    0.30
 -13   2   6    0.24    0.43
 -13  -2   6   -0.31    0.25
 -13  -2   6   -0.21    0.28
 -13   2   5    0.34    0.32
 -13  -2   5    0.44    0.30
 -13  -2   5    0.44    0.33
 -13  -2   4   -0.08    0.24
 -13   2   4   -0.03    0.32
 -13  -2   4    0.64    0.36
 -13   2   3   -0.05    0.35
 -13   2   3   -0.34    0.22
 -13  -2   3   -0.08    0.30
 -13  -2   3    0.22    0.32
 -13   2   2    3.80    0.78
 -13  -2   2    1.72    0.57
 -13   2   2    2.58    0.50
 -13  -2   2    2.83    0.63
 -13   2   1    3.01    0.71
 -13  -2   1    1.71    0.59
 -13   2   1    2.77    0.54
 -13  -2   1    2.74    0.61
 -13   2   0    2.76    0.55
 -13   2   0    2.81    0.72
 -13  -2   0    3.10    0.66
 -13   2   0    4.78    0.87
 -13  -2   0    3.05    0.71
 -13   2  -1   -0.54    0.35
 -13   2  -1   -0.04    0.23
 -13  -2  -1    0.17    0.23
 -13  -2  -1   -0.19    0.27
 -13   2  -2    4.12    0.85
 -13   2  -2    4.67    0.73
 -13  -2  -2    4.50    0.90
 -13  -2  -2    4.88    0.82
 -13  -2  -3    0.96    0.43
 -13   2  -3    1.12    0.38
 -13  -2  -3    1.42    0.49
 -13   2  -3    1.41    0.54
 -13  -2  -4    1.28    0.60
 -13   2  -4    1.68    0.56
 -13   2  -4    2.28    0.57
 -13  -2  -4    2.19    0.56
 -13   2  -5   -0.37    0.36
 -13  -2  -5   -0.34    0.37
 -13   2  -5    0.05    0.25
 -13  -2  -5    0.28    0.29
 -13  -2  -6    0.58    0.41
 -13  -2  -6    0.02    0.32
 -13   2  -6    1.00    0.39
 -13   2  -6    0.51    0.38
 -13   2  -7    0.94    0.51
 -13  -3  12    2.20    0.64
 -13  -3  11   -0.28    0.29
 -13   3  10    1.96    0.69
 -13  -3  10    2.59    0.66
 -13   3   9    0.35    0.34
 -13  -3   9    0.13    0.26
 -13   3   8   -0.13    0.35
 -13  -3   8   -0.50    0.34
 -13   3   7    2.10    0.67
 -13  -3   7    1.92    0.55
 -13   3   6   -0.18    0.41
 -13  -3   6    1.50    0.49
 -13   3   5    1.33    0.56
 -13  -3   5    2.91    0.69
 -13   3   4    1.15    0.52
 -13  -3   4    1.73    0.59
 -13   3   3    0.28    0.24
 -13  -3   3   -0.21    0.29
 -13   3   2    0.57    0.28
 -13  -3   2    0.87    0.48
 -13   3   1    1.20    0.40
 -13  -3   1    1.87    0.59
 -13   3   0    4.93    0.81
 -13  -3   0    6.01    0.97
 -13   3  -1    1.38    0.48
 -13  -3  -1    0.98    0.46
 -13   3  -2   -0.41    0.26
 -13   3  -3    0.42    0.30
 -14   0  15   -0.42    0.29
 -14   0  14    1.27    0.56
 -14   0  13   -0.18    0.38
 -14   0  12   25.61    1.93
 -14   0  11   -0.32    0.39
 -14   0  10    5.61    0.89
 -14   0   9    0.17    0.32
 -14   0   8    7.13    0.96
 -14   0   7   -0.76    0.38
 -14   0   6   22.43    1.59
 -14   0   5   -0.48    0.31
 -14   0   4    2.17    0.51
 -14   0   3   -0.07    0.21
 -14   0   2    1.08    0.38
 -14   0   2    1.22    0.60
 -14   0   1   -0.82    0.46
 -14   0   0    5.07    0.98
 -14   0  -1    0.39    0.34
 -14   0  -2    3.48    0.83
 -14   0  -3   -0.06    0.39
 -14   0  -4    3.05    0.87
 -14   0  -5    0.51    0.39
 -14   0  -6   19.42    2.00
 -14   0  -7   -0.69    0.50
 -14  -1  15   -0.40    0.40
 -14   1  14    7.52    1.12
 -14  -1  14    7.41    1.09
 -14   1  13    0.44    0.43
 -14  -1  13   -0.05    0.37
 -14   1  12    0.12    0.30
 -14  -1  12    0.03    0.29
 -14   1  11    7.66    1.09
 -14  -1  11    8.45    1.10
 -14   1  10    1.23    0.51
 -14  -1  10    2.75    0.66
 -14   1   9    6.43    0.96
 -14  -1   9    5.70    0.89
 -14   1   8    3.14    0.69
 -14  -1   8    3.83    0.70
 -14   1   7    0.46    0.36
 -14  -1   7    0.41    0.29
 -14   1   6    2.23    0.60
 -14  -1   6    2.20    0.53
 -14   1   5   -0.43    0.35
 -14  -1   5    0.05    0.22
 -14  -1   4    0.33    0.34
 -14   1   4    1.44    0.53
 -14  -1   3   -0.35    0.35
 -14   1   3   -0.23    0.31
 -14   1   2    3.53    0.71
 -14  -1   2    2.31    0.66
 -14  -1   1    0.10    0.25
 -14   1   1    0.17    0.35
 -14   1   1    0.56    0.40
 -14   1   0   -0.65    0.47
 -14  -1   0    0.02    0.24
 -14   1  -1    1.05    0.43
 -14  -1  -1    0.60    0.41
 -14   1  -1   -0.12    0.38
 -14  -1  -2    4.12    0.92
 -14   1  -2    4.04    0.87
 -14   1  -3    0.00    0.40
 -14  -1  -3    0.47    0.45
 -14   1  -4    6.14    1.09
 -14  -1  -4    6.13    1.13
 -14   1  -5    1.10    0.48
 -14  -1  -5    1.21    0.59
 -14  -1  -6    0.59    0.50
 -14   1  -6    0.26    0.45
 -14  -2  13    0.24    0.33
 -14   2  12    3.95    0.87
 -14  -2  12    4.84    0.87
 -14   2  11    0.27    0.33
 -14  -2  11    1.35    0.48
 -14   2  10   -0.03    0.37
 -14  -2  10    0.76    0.41
 -14   2   9    2.82    0.75
 -14  -2   9    1.96    0.53
 -14  -2   9    3.79    0.67
 -14  -2   8   12.59    1.19
 -14   2   8   14.22    1.51
 -14  -2   8   13.07    1.26
 -14   2   7    0.09    0.26
 -14  -2   7    0.66    0.38
 -14   2   6    2.50    0.66
 -14  -2   6    3.77    0.77
 -14  -2   6    3.91    0.72
 -14   2   5    0.88    0.48
 -14  -2   5    0.31    0.24
 -14  -2   5    0.94    0.35
 -14   2   4    5.10    0.92
 -14  -2   4    6.35    0.90
 -14  -2   4    5.43    0.91
 -14   2   3    1.86    0.54
 -14  -2   3    4.24    0.82
 -14  -2   3    3.24    0.68
 -14   2   2    1.23    0.55
 -14  -2   2    0.50    0.45
 -14   2   2    0.83    0.33
 -14  -2   2    0.72    0.39
 -14   2   1   13.40    1.53
 -14  -2   1   12.12    1.43
 -14   2   1   12.85    1.16
 -14  -2   1   13.94    1.33
 -14   2   1   13.10    1.40
 -14   2   0    8.54    1.26
 -14   2   0    8.86    0.99
 -14  -2   0    8.27    1.06
 -14  -2   0    6.49    1.06
 -14   2  -1   10.63    1.11
 -14   2  -1   10.09    1.34
 -14  -2  -1   10.25    1.18
 -14  -2  -1   10.81    1.39
 -14   2  -2    3.79    0.83
 -14   2  -2    3.76    0.70
 -14  -2  -2    3.81    0.88
 -14  -2  -2    3.89    0.79
 -14  -2  -3    2.04    0.65
 -14   2  -3    2.77    0.59
 -14   2  -3    2.39    0.69
 -14  -2  -3    2.75    0.64
 -14   2  -4    4.07    0.88
 -14  -2  -4    4.67    1.01
 -14  -2  -4    4.83    0.84
 -14   2  -4    3.81    0.73
 -14   2  -5    0.57    0.44
 -14  -2  -5    0.13    0.49
 -14   2  -6    1.31    0.59
 -14  -3   9    0.28    0.32
 -14  -3   8    2.98    0.68
 -14  -3   7    0.99    0.45
 -14  -3   6    0.54    0.32
 -14   3   5    1.53    0.57
 -14  -3   5    0.92    0.42
 -14   3   4    1.27    0.56
 -14  -3   4    2.39    0.60
 -14  -3   3    0.94    0.46
 -14   3   1    0.34    0.32
 -14   3   0    4.76    0.80
 -15   0  14    0.71    0.54
 -15   0  13    0.27    0.47
 -15   0  12    0.46    0.45
 -15   0  11   -0.19    0.38
 -15   0  10    1.66    0.53
 -15   0   9   -0.20    0.29
 -15   0   8    0.60    0.39
 -15   0   7    0.32    0.30
 -15   0   6   22.68    1.68
 -15   0   5    0.06    0.22
 -15   0   4    0.00    0.23
 -15   0   3   -0.20    0.18
 -15   0   3   -1.12    0.56
 -15   0   2    2.10    0.67
 -15   0   1    0.00    0.36
 -15   0   0    0.33    0.46
 -15   0  -1   -0.77    0.41
 -15   0  -2    3.33    0.89
 -15   0  -3    0.18    0.49
 -15   0  -4    0.26    0.40
 -15   1  13    1.58    0.55
 -15  -1  13    1.15    0.54
 -15   1  12    0.79    0.47
 -15  -1  12   -0.02    0.22
 -15   1  11    0.34    0.40
 -15  -1  11    1.70    0.56
 -15   1  10    1.77    0.59
 -15  -1  10    2.28    0.64
 -15   1   9    0.29    0.31
 -15  -1   9    1.03    0.44
 -15   1   8    2.94    0.69
 -15  -1   8    3.06    0.68
 -15   1   7    0.77    0.37
 -15  -1   7   -0.04    0.23
 -15   1   6    0.22    0.31
 -15  -1   6    1.14    0.44
 -15   1   5    1.06    0.47
 -15  -1   5    0.12    0.36
 -15   1   4   -0.34    0.30
 -15  -1   4   -0.29    0.39
 -15   1   3    0.25    0.32
 -15  -1   3   -0.01    0.37
 -15  -1   2   23.89    2.04
 -15   1   2   23.16    1.75
 -15   1   2   23.90    2.09
 -15   1   1    2.39    0.60
 -15   1   1    2.80    0.78
 -15  -1   1    1.20    0.54
 -15   1   0    3.69    0.74
 -15  -1   0    5.19    1.03
 -15   1   0    3.22    0.82
 -15   1  -1    1.18    0.55
 -15  -1  -1    2.53    0.80
 -15  -1  -2    0.09    0.39
 -15   1  -2    0.41    0.39
 -15   1  -3   -0.69    0.42
 -15  -1  -3    0.48    0.45
 -15   1  -4    0.17    0.27
 -15  -1  -4    0.35    0.39
 -15  -2  12    3.25    0.71
 -15  -2  11    2.72    0.67
 -15   2  10    0.18    0.33
 -15  -2  10    0.76    0.42
 -15   2   9    2.92    0.76
 -15  -2   9    1.95    0.56
 -15  -2   9    2.75    0.59
 -15   2   8    0.66    0.45
 -15  -2   8    1.36    0.50
 -15   2   7    0.21    0.33
 -15  -2   7    0.44    0.32
 -15   2   6    1.20    0.52
 -15  -2   6    1.70    0.50
 -15   2   5    0.29    0.42
 -15  -2   5   -0.19    0.28
 -15  -2   5   -0.72    0.43
 -15   2   4    6.18    1.03
 -15  -2   4    5.94    1.05
 -15  -2   4    5.87    0.90
 -15  -2   3    0.16    0.32
 -15  -2   3   -0.51    0.35
 -15   2   2    9.33    1.23
 -15  -2   2    7.14    1.14
 -15  -2   2   10.56    1.21
 -15  -2   1    2.09    0.66
 -15  -2   1    2.01    0.58
 -15   2   1    2.14    0.64
 -15   2   1    1.95    0.73
 -15   2   0    1.26    0.41
 -15  -2   0    1.70    0.51
 -15  -2   0    2.25    0.72
 -15   2   0    1.73    0.51
 -15   2  -1    1.92    0.61
 -15   2  -1    2.19    0.53
 -15  -2  -1    3.09    0.82
 -15  -2  -2   -0.12    0.33
 -15   2  -2    0.28    0.25
 -15   2  -2   -0.23    0.31
 -15   2  -3   -0.31    0.40
 -16   0  12    6.91    1.11
 -16   0  11   -0.20    0.29
 -16   0  10    0.05    0.27
 -16   0   9   -0.35    0.33
 -16   0   8    8.11    1.10
 -16   0   7    0.45    0.35
 -16   0   6   -0.17    0.24
 -16   0   5    0.54    0.35
 -16   0   4    1.33    0.47
 -16   0   4   -0.22    0.45
 -16   0   3   -0.25    0.41
 -16   0   2    0.03    0.35
 -16   0   1    0.04    0.43
 -16   0   0   28.09    2.39
 -16   0  -1    0.03    0.38
 -16   0  -2   -0.52    0.43
 -16  -1  12    2.16    0.66
 -16   1  11    6.66    1.07
 -16  -1  11    7.29    1.07
 -16   1  10    0.50    0.48
 -16  -1  10    0.53    0.43
 -16   1   9    1.39    0.56
 -16  -1   9    2.06    0.59
 -16   1   8   -0.55    0.41
 -16  -1   8    0.31    0.34
 -16   1   7   -0.15    0.34
 -16  -1   7    1.12    0.39
 -16   1   6    0.55    0.38
 -16  -1   6    0.70    0.48
 -16   1   5    0.11    0.28
 -16  -1   5   -0.12    0.27
 -16   1   4    0.08    0.28
 -16  -1   4   -0.27    0.29
 -16   1   3   -0.22    0.33
 -16  -1   3    0.52    0.47
 -16   1   3    0.51    0.43
 -16   1   2   -0.14    0.23
 -16   1   2    0.25    0.53
 -16  -1   2   -0.86    0.54
 -16  -1   1   -0.05    0.34
 -16   1   1    0.31    0.40
 -16  -1   0   13.20    1.66
 -16   1   0   15.46    1.80
 -16  -1  -1    0.44    0.43
 -16   1  -1    0.07    0.30
 -16  -2   8    0.74    0.35
 -16  -2   7   -0.76    0.37
 -16   2   6    0.61    0.43
 -16  -2   6    0.36    0.30
 -16   2   5    0.36    0.36
 -16  -2   5    0.15    0.23
 -16   2   4    6.96    1.10
 -16  -2   4    5.89    1.06
 -16  -2   4    7.11    1.01
 -16   2   3   -0.22    0.40
 -16  -2   3   -0.71    0.46
 -16   2   2    6.70    1.12
 -16  -2   2    7.53    1.25
 -16  -2   1    0.99    0.54
 -17   0  10    2.10    0.64
 -17   0   9   -0.86    0.47
 -17   0   8    1.50    0.56
 -17   0   7    0.03    0.24
 -17   0   6   -0.02    0.23
 -17   0   5   -0.62    0.54
 -17   0   4    3.57    0.92
 -17   0   3   -0.07    0.54
 -17  -1  10    0.81    0.43
 -17  -1   9   -0.06    0.19
 -17  -1   8   -1.64    0.66
 -17   1   8    0.24    0.29
 -17   1   7    0.68    0.41
 -17  -1   7   -0.04    0.36
 -17   1   6    3.94    0.85
 -17  -1   6    3.95    0.94
 -17   1   5    0.05    0.18
 -17  -1   5   -0.11    0.29
 -17   1   4    7.91    1.12
 -17  -1   4    5.88    1.17
 -17  -1   3    0.24    0.38
 -17   1   3    1.69    0.53
   0   0   0    0.00    0.00
;
_shelx_hkl_checksum              6721
loop_
_space_group_symop_operation_xyz
'x, y, z'
'-x, y+1/2, -z+1/2'
'-x, -y, -z'
'x, -y-1/2, z-1/2'
loop_
_atom_site_label
_atom_site_type_symbol
_atom_site_fract_x
_atom_site_fract_y
_atom_site_fract_z
_atom_site_U_iso_or_equiv
_atom_site_adp_type
_atom_site_occupancy
_atom_site_site_symmetry_order
_atom_site_calc_flag
_atom_site_refinement_flags_posn
_atom_site_refinement_flags_adp
_atom_site_refinement_flags_occupancy
_atom_site_disorder_assembly
_atom_site_disorder_group
O4 O 0.71286(11) -0.2274(3) 0.50549(9) 0.0224(3) Uani 1 1 d . . . . .
H42 H 0.728(2) -0.149(7) 0.5652(18) 0.062(8) Uiso 1 1 d . . . . .
H41 H 0.776(2) -0.240(6) 0.4936(18) 0.054(8) Uiso 1 1 d . . . . .
Na Na 0.60495(6) 0.27159(16) 0.42185(5) 0.0247(2) Uani 1 1 d . . . . .
O2 O 0.59716(9) 0.0555(3) 0.25038(8) 0.0253(3) Uani 1 1 d . . . . .
O1 O 0.78442(10) 0.3558(3) 0.36223(8) 0.0253(3) Uani 1 1 d . . . . .
N2 N 0.61944(11) 0.2343(3) 0.18321(10) 0.0183(3) Uani 1 1 d . . . . .
O3 O 0.54718(9) 0.2490(3) 0.09976(8) 0.0251(3) Uani 1 1 d . . . . .
C1 C 0.79276(12) 0.4449(4) 0.28145(11) 0.0170(3) Uani 1 1 d . . . . .
N1 N 0.71871(10) 0.4158(4) 0.18921(9) 0.0182(3) Uani 1 1 d . . . . .
N3 N 0.89450(11) 0.6253(4) 0.26745(9) 0.0210(3) Uani 1 1 d . . . . .
N4 N 0.96751(12) 0.6821(4) 0.34834(10) 0.0234(3) Uani 1 1 d . . . . .
N5 N 1.03861(14) 0.7444(5) 0.41560(12) 0.0376(4) Uani 1 1 d . . . . .
loop_
_atom_site_aniso_label
_atom_site_aniso_U_11
_atom_site_aniso_U_22
_atom_site_aniso_U_33
_atom_site_aniso_U_23
_atom_site_aniso_U_13
_atom_site_aniso_U_12
O4 0.0211(6) 0.0272(7) 0.0195(6) -0.0025(5) 0.0065(5) -0.0009(5)
Na 0.0260(4) 0.0212(4) 0.0264(4) -0.0005(2) 0.0058(3) 0.0005(2)
O2 0.0253(6) 0.0237(7) 0.0297(7) 0.0028(5) 0.0123(5) -0.0025(5)
O1 0.0256(6) 0.0349(7) 0.0162(6) 0.0032(5) 0.0070(5) -0.0026(5)
N2 0.0178(7) 0.0155(7) 0.0220(7) -0.0024(5) 0.0058(6) 0.0025(5)
O3 0.0184(6) 0.0295(7) 0.0233(6) -0.0036(4) -0.0017(5) -0.0006(4)
C1 0.0178(7) 0.0156(8) 0.0188(8) 0.0003(6) 0.0071(6) 0.0027(6)
N1 0.0158(6) 0.0206(7) 0.0180(7) 0.0007(5) 0.0039(5) -0.0013(5)
N3 0.0184(7) 0.0282(8) 0.0154(7) 0.0005(5) 0.0028(6) -0.0031(5)
N4 0.0216(7) 0.0290(8) 0.0208(8) 0.0015(6) 0.0078(7) -0.0027(5)
N5 0.0278(9) 0.0567(12) 0.0241(9) 0.0003(7) -0.0008(8) -0.0120(7)
loop_
_atom_type_symbol
_atom_type_description
_atom_type_scat_dispersion_real
_atom_type_scat_dispersion_imag
_atom_type_scat_source
C C 0.0033 0.0016 'International Tables Vol C Tables 4.2.6.8 and 6.1.1.4'
H H 0.0000 0.0000 'International Tables Vol C Tables 4.2.6.8 and 6.1.1.4'
N N 0.0061 0.0033 'International Tables Vol C Tables 4.2.6.8 and 6.1.1.4'
O O 0.0106 0.0060 'International Tables Vol C Tables 4.2.6.8 and 6.1.1.4'
Na Na 0.0362 0.0249 'International Tables Vol C Tables 4.2.6.8 and 6.1.1.4'
loop_
_geom_angle_atom_site_label_1
_geom_angle_atom_site_label_2
_geom_angle_atom_site_label_3
_geom_angle
_geom_angle_site_symmetry_1
_geom_angle_site_symmetry_3
_geom_angle_publ_flag
Na O4 Na 100.75(5) . 1_545 ?
Na O4 H42 100.6(17) . . ?
Na O4 H42 133.7(17) 1_545 . ?
Na O4 H41 110.9(16) . . ?
Na O4 H41 105.5(16) 1_545 . ?
H42 O4 H41 104(2) . . ?
O4 Na O4 100.75(5) . 1_565 ?
O4 Na O3 152.91(5) . 2_655 ?
O4 Na O3 79.03(4) 1_565 2_655 ?
O4 Na O1 81.81(5) . . ?
O4 Na O1 70.79(5) 1_565 . ?
O3 Na O1 122.47(5) 2_655 . ?
O4 Na O2 96.83(5) . . ?
O4 Na O2 126.71(5) 1_565 . ?
O3 Na O2 104.97(4) 2_655 . ?
O1 Na O2 62.56(4) . . ?
O4 Na O3 76.78(4) . 2_645 ?
O4 Na O3 153.99(5) 1_565 2_645 ?
O3 Na O3 91.60(4) 2_655 2_645 ?
O1 Na O3 133.05(5) . 2_645 ?
O2 Na O3 79.05(4) . 2_645 ?
O4 Na O3 76.07(4) . 4_566 ?
O4 Na O3 78.55(4) 1_565 4_566 ?
O3 Na O3 77.38(4) 2_655 4_566 ?
O1 Na O3 137.78(4) . 4_566 ?
O2 Na O3 154.74(4) . 4_566 ?
O3 Na O3 75.73(4) 2_645 4_566 ?
O4 Na Na 39.68(3) . 1_545 ?
O4 Na Na 140.43(3) 1_565 1_545 ?
O3 Na Na 134.51(3) 2_655 1_545 ?
O1 Na Na 96.97(3) . 1_545 ?
O2 Na Na 71.86(3) . 1_545 ?
O3 Na Na 42.91(3) 2_645 1_545 ?
O3 Na Na 88.45(3) 4_566 1_545 ?
O4 Na Na 140.32(3) . 1_565 ?
O4 Na Na 39.57(3) 1_565 1_565 ?
O3 Na Na 45.49(3) 2_655 1_565 ?
O1 Na Na 83.03(3) . 1_565 ?
O2 Na Na 108.15(3) . 1_565 ?
O3 Na Na 137.09(3) 2_645 1_565 ?
O3 Na Na 91.55(3) 4_566 1_565 ?
Na Na Na 180.0 1_545 1_565 ?
O4 Na Na 112.00(4) . 3_666 ?
O4 Na Na 75.57(4) 1_565 3_666 ?
O3 Na Na 41.29(3) 2_655 3_666 ?
O1 Na Na 145.57(4) . 3_666 ?
O2 Na Na 140.12(4) . 3_666 ?
O3 Na Na 81.38(3) 2_645 3_666 ?
O3 Na Na 36.09(2) 4_566 3_666 ?
Na Na Na 113.882(17) 1_545 3_666 ?
Na Na Na 66.118(17) 1_565 3_666 ?
O4 Na H42 18.6(6) . . ?
O4 Na H42 86.6(5) 1_565 . ?
O3 Na H42 137.9(6) 2_655 . ?
O1 Na H42 88.4(6) . . ?
O2 Na H42 115.2(6) . . ?
O3 Na H42 84.3(5) 2_645 . ?
O3 Na H42 61.0(6) 4_566 . ?
Na Na H42 54.8(5) 1_545 . ?
Na Na H42 125.2(6) 1_565 . ?
Na Na H42 96.9(6) 3_666 . ?
N2 O2 Na 127.68(10) . . ?
C1 O1 Na 129.18(10) . . ?
O2 N2 O3 120.27(12) . . ?
O2 N2 N1 125.13(13) . . ?
O3 N2 N1 114.58(13) . . ?
N2 O3 Na 112.72(9) . 2_645 ?
N2 O3 Na 115.34(9) . 2_655 ?
Na O3 Na 91.60(4) 2_645 2_655 ?
N2 O3 Na 124.70(9) . 4_565 ?
Na O3 Na 102.62(4) 2_645 4_565 ?
Na O3 Na 104.27(4) 2_655 4_565 ?
O1 C1 N1 132.69(14) . . ?
O1 C1 N3 121.98(13) . . ?
N1 C1 N3 105.32(13) . . ?
N2 N1 C1 116.04(13) . . ?
N4 N3 C1 111.17(13) . . ?
N5 N4 N3 173.91(16) . . ?
loop_
_geom_bond_atom_site_label_1
_geom_bond_atom_site_label_2
_geom_bond_distance
_geom_bond_site_symmetry_2
_geom_bond_publ_flag
O4 Na 2.3534(13) . ?
O4 Na 2.3589(13) 1_545 ?
O4 H42 0.86(3) . ?
O4 H41 0.81(3) . ?
Na O1 2.5175(13) . ?
Na O2 2.5186(13) . ?
Na H42 2.65(2) . ?
O2 N2 1.2325(17) . ?
O1 C1 1.2121(19) . ?
N2 O3 1.2652(16) . ?
N2 N1 1.3400(18) . ?
C1 N1 1.3721(19) . ?
C1 N3 1.439(2) . ?
N3 N4 1.2584(18) . ?
N4 N5 1.1183(18) . ?
loop_
_geom_contact_atom_site_label_1
_geom_contact_atom_site_label_2
_geom_contact_distance
_geom_contact_site_symmetry_1
_geom_contact_site_symmetry_2
_geom_contact_publ_flag
? ? ? ? ? ?
loop_
_geom_hbond_atom_site_label_D
_geom_hbond_atom_site_label_H
_geom_hbond_atom_site_label_A
_geom_hbond_distance_DH
_geom_hbond_distance_HA
_geom_hbond_distance_DA
_geom_hbond_angle_DHA
_geom_hbond_site_symmetry_A
O4 H42 N1 0.86(3) 1.97(3) 2.8090(18) 164(2) 4_566
O4 H41 O1 0.81(3) 2.39(2) 2.8276(18) 115.3(19) 1_545
O4 H42 N1 0.86(3) 1.97(3) 2.8090(18) 164(2) 4_566
O4 H41 O1 0.81(3) 2.39(2) 2.8276(18) 115.3(19) 1_545
loop_
_geom_torsion_atom_site_label_1
_geom_torsion_atom_site_label_2
_geom_torsion_atom_site_label_3
_geom_torsion_atom_site_label_4
_geom_torsion
_geom_torsion_site_symmetry_1
_geom_torsion_site_symmetry_2
_geom_torsion_site_symmetry_3
_geom_torsion_site_symmetry_4
_geom_torsion_publ_flag
Na O2 N2 O3 -127.44(11) . . . . ?
Na O2 N2 N1 54.52(18) . . . . ?
O2 N2 O3 Na -15.27(16) . . . 2_645 ?
N1 N2 O3 Na 162.96(9) . . . 2_645 ?
O2 N2 O3 Na 88.13(13) . . . 2_655 ?
N1 N2 O3 Na -93.63(12) . . . 2_655 ?
O2 N2 O3 Na -140.59(11) . . . 4_565 ?
N1 N2 O3 Na 37.64(15) . . . 4_565 ?
Na O1 C1 N1 -25.0(3) . . . . ?
Na O1 C1 N3 153.82(11) . . . . ?
O2 N2 N1 C1 -9.8(2) . . . . ?
O3 N2 N1 C1 172.06(12) . . . . ?
O1 C1 N1 N2 -4.9(2) . . . . ?
N3 C1 N1 N2 176.15(12) . . . . ?
O1 C1 N3 N4 -1.9(2) . . . . ?
N1 C1 N3 N4 177.16(12) . . . . ?
