#------------------------------------------------------------------------------
#$Date: 2020-08-05 01:48:28 +0300 (Wed, 05 Aug 2020) $
#$Revision: 254804 $
#$URL: file:///home/coder/svn-repositories/cod/cif/4/13/51/4135139.cif $
#------------------------------------------------------------------------------
#
# This file is available in the Crystallography Open Database (COD),
# http://www.crystallography.net/
#
# All data on this site have been placed in the public domain by the
# contributors.
#
data_4135139
loop_
_publ_author_name
'Andres, R\'emi'
'Wang, Qian'
'Zhu, Jieping'
_publ_section_title
;
 Asymmetric Total Synthesis of (-)-Arborisidine and
 (-)-19-epi-Arborisidine Enabled by a Catalytic Enantioselective
 Pictet-Spengler Reaction.
;
_journal_name_full               'Journal of the American Chemical Society'
_journal_paper_doi               10.1021/jacs.0c05804
_journal_year                    2020
_chemical_absolute_configuration rmad
_chemical_formula_moiety         'C15 H18 N2 O2'
_chemical_formula_sum            'C15 H18 N2 O2'
_chemical_formula_weight         258.31
_space_group_crystal_system      monoclinic
_space_group_IT_number           4
_space_group_name_Hall           'P 2yb'
_space_group_name_H-M_alt        'P 1 21 1'
_atom_sites_solution_hydrogens   mixed
_atom_sites_solution_primary     dual
_atom_sites_solution_secondary   difmap
_audit_creation_date             2019-04-16
_audit_creation_method
;
Olex2 1.2
(compiled 2018.05.29 svn.r3508 for OlexSys, GUI svn.r5506)
;
_cell_angle_alpha                90
_cell_angle_beta                 93.445(3)
_cell_angle_gamma                90
_cell_formula_units_Z            2
_cell_length_a                   7.4744(3)
_cell_length_b                   9.0004(3)
_cell_length_c                   9.4211(3)
_cell_measurement_reflns_used    4601
_cell_measurement_temperature    140.00(10)
_cell_measurement_theta_max      73.2810
_cell_measurement_theta_min      4.6680
_cell_volume                     632.64(4)
_computing_cell_refinement       'CrysAlisPro 1.171.40.20a (Rigaku OD, 2018)'
_computing_data_collection       'CrysAlisPro 1.171.40.20a (Rigaku OD, 2018)'
_computing_data_reduction        'CrysAlisPro 1.171.40.20a (Rigaku OD, 2018)'
_computing_molecular_graphics    'Olex2 (Dolomanov et al., 2009)'
_computing_publication_material  'Olex2 (Dolomanov et al., 2009)'
_computing_structure_refinement  'ShelXL (Sheldrick, 2015)'
_computing_structure_solution    'ShelXT (Sheldrick, 2015)'
_diffrn_ambient_environment      N~2~
_diffrn_ambient_temperature      140.00(10)
_diffrn_detector                 'CCD plate'
_diffrn_detector_area_resol_mean 10.2665
_diffrn_detector_type            Atlas
_diffrn_measured_fraction_theta_full 1.000
_diffrn_measured_fraction_theta_max 0.987
_diffrn_measurement_details
;
List of Runs (angles in degrees, time in seconds):

  # Type    Start    End  Width  t~exp~   \w     \q     \k     \f   Frames
--------------------------------------------------------------------------
  1  \w      6.00  32.00   1.00    3.00    --   42.00  87.00 151.76   26
  2  \w    -54.00 -19.00   1.00    3.00    --  -43.01 -37.00-150.00   35
  3  \w    -56.00 -16.00   1.00    3.00    --  -43.01 -57.00 120.00   40
  4  \w    -54.00 -17.00   1.00    3.00    --  -43.01 -57.00  30.00   37
  5  \w   -107.00 -77.00   1.00    3.00    --  -43.01 -37.00-150.00   30
  6  \w    -98.00 -73.00   1.00    3.00    --  -43.01 -57.00 120.00   25
  7  \w   -113.00 -79.00   1.00    3.00    --  -43.01 -99.00   0.00   34
  8  \w   -114.00 -75.00   1.00    3.00    --  -43.01 -57.00  30.00   39
  9  \w     23.00  68.00   1.00    3.00    --   43.01-125.00-150.00   45
 10  \w     11.00  82.00   1.00    3.00    --   43.01 -99.00  30.00   71
 11  \w     70.00  96.00   1.00    3.00    --   43.01-125.00-150.00   26
 12  \w     13.00  39.00   1.00    3.00    --   46.00  80.00 -34.16   26
 13  \w     15.00  40.00   1.00    3.00    --   46.00  82.00-126.93   25
 14  \w     17.00  42.00   1.00    3.00    --   50.00  80.00  24.14   25
 15  \w     16.00  41.00   1.00    3.00    --   50.00  82.00  71.83   25
 16  \w     27.00  64.00   1.00    3.00    --   58.00  76.00 -14.15   37
 17  \w     98.00 132.00   1.00    3.00    --   58.00  77.00 144.94   34
 18  \w     25.00  59.00   1.00    3.00    --   58.00  77.00 144.94   34
 19  \w     32.00  58.00   1.00    3.00    --   62.00  64.00  74.15   26
 20  \w     30.00  58.00   1.00    3.00    --   62.00  75.00-139.60   28
 21  \w     33.00  59.00   1.00    3.00    --   66.00  77.00  76.65   26
 22  \w     90.00 138.00   1.00    3.00    --   66.00  77.00  76.65   48
 23  \w     40.00  66.00   1.00    3.00    --   70.00  73.00  79.61   26
 24  \w     39.00  66.00   1.00    3.00    --   70.00  77.00-112.45   27
 25  \w     42.00  74.00   1.00    3.00    --   70.00  75.00 -85.04   32
 26  \w     46.00  72.00   1.00   12.00    --   78.00  76.00 132.29   26
 27  \w    122.00 154.00   1.00   12.00    --   78.00  77.00 -14.93   32
 28  \w     45.00  77.00   1.00   12.00    --   78.00  77.00 -14.93   32
 29  \w     48.00  74.00   1.00   12.00    --   78.00  66.00-144.37   26
 30  \w     54.00  81.00   1.00   12.00    --   86.00  75.00 146.09   27
 31  \w     58.00  84.00   1.00   12.00    --   86.00  74.00 -46.56   26
 32  \w    120.00 158.00   1.00   12.00    --   86.00  70.00  86.25   38
 33  \w     58.00  84.00   1.00   12.00    --   86.00  70.00  86.25   26
 34  \w     60.00  86.00   1.00   12.00    --   90.00  64.00 113.94   26
 35  \w    103.00 143.00   1.00   12.00    --   94.00  68.00-109.49   40
 36  \w     68.00  96.00   1.00   12.00    --   94.00  68.00-109.49   28
 37  \w    104.00 132.00   1.00   12.00    --  105.68 -45.00 -30.00   28
 38  \w     46.00  85.00   1.00   12.00    --  105.68 -45.00 -30.00   39
 39  \w     80.00 128.00   1.00   12.00    --  105.68  61.00  60.00   48
 40  \w     76.00 158.00   1.00   12.00    --  105.68  77.00 -60.00   82
 41  \w     76.00 151.00   1.00   12.00    --  105.68  77.00 -90.00   75
 42  \w     74.00 135.00   1.00   12.00    --  105.68  76.00-171.00   61
 43  \w     78.00 168.00   1.00   12.00    --  105.68  77.00 150.00   90
 44  \w    103.00 129.00   1.00   12.00    --  105.68  77.00   0.00   26
 45  \w    124.00 175.00   1.00   12.00    --  105.68 125.00 -90.00   51
 46  \w     74.00 100.00   1.00   12.00    --  105.68  77.00   0.00   26
 47  \w     24.00 102.00   1.00   12.00    --  105.68 -94.00 -30.00   78
 48  \w     73.00 178.00   1.00   12.00    --  105.68  77.00 -30.00  105
 49  \w     49.00 108.00   1.00   12.00    --  105.68 -94.00  60.00   59
 50  \w    130.00 156.00   1.00   12.00    --  105.68 125.00-120.00   26
 51  \w     51.00 117.00   1.00   12.00    --  105.68-125.00 -90.00   66
 52  \w     77.00 104.00   1.00   12.00    --  105.68  61.00 -90.00   27
 53  \w    115.00 161.00   1.00   12.00    --  105.68  77.00-150.00   46
 54  \w     74.00 139.00   1.00   12.00    --  105.68  77.00  90.00   65
 55  \w     76.00 102.00   1.00   12.00    --  105.68  77.00-150.00   26
 56  \w    122.00 153.00   1.00   12.00    --  105.68  61.00  30.00   31
 57  \w     88.00 114.00   1.00   12.00    --  105.68  61.00  30.00   26
 58  \w     79.00 160.00   1.00   12.00    --  105.68  77.00 120.00   81
 59  \w     96.00 169.00   1.00   12.00    --  105.68 125.00  30.00   73
;
_diffrn_measurement_device       'four-circle diffractometer'
_diffrn_measurement_device_type  'SuperNova, Dual, Cu at home/near, Atlas'
_diffrn_measurement_method       '\w scans'
_diffrn_orient_matrix_type
'CrysAlisPro convention (1999,Acta A55,543-557)'
_diffrn_orient_matrix_UB_11      -0.1717748000
_diffrn_orient_matrix_UB_12      0.0528174000
_diffrn_orient_matrix_UB_13      -0.0835243000
_diffrn_orient_matrix_UB_21      -0.0288198000
_diffrn_orient_matrix_UB_22      0.1176462000
_diffrn_orient_matrix_UB_23      0.1151965000
_diffrn_orient_matrix_UB_31      0.1109094000
_diffrn_orient_matrix_UB_32      0.1124866000
_diffrn_orient_matrix_UB_33      -0.0812412000
_diffrn_radiation_monochromator  mirror
_diffrn_radiation_probe          x-ray
_diffrn_radiation_type           CuK\a
_diffrn_radiation_wavelength     1.54184
_diffrn_reflns_av_R_equivalents  0.0452
_diffrn_reflns_av_unetI/netI     0.0329
_diffrn_reflns_Laue_measured_fraction_full 1.000
_diffrn_reflns_Laue_measured_fraction_max 0.987
_diffrn_reflns_limit_h_max       9
_diffrn_reflns_limit_h_min       -9
_diffrn_reflns_limit_k_max       11
_diffrn_reflns_limit_k_min       -11
_diffrn_reflns_limit_l_max       11
_diffrn_reflns_limit_l_min       -11
_diffrn_reflns_number            9756
_diffrn_reflns_point_group_measured_fraction_full 0.996
_diffrn_reflns_point_group_measured_fraction_max 0.971
_diffrn_reflns_theta_full        67.684
_diffrn_reflns_theta_max         73.716
_diffrn_reflns_theta_min         4.702
_diffrn_source                   'micro-focus sealed X-ray tube'
_diffrn_source_type              'SuperNova (Cu) X-ray Source'
_exptl_absorpt_coefficient_mu    0.732
_exptl_absorpt_correction_T_max  1.000
_exptl_absorpt_correction_T_min  0.587
_exptl_absorpt_correction_type   gaussian
_exptl_absorpt_process_details
;
CrysAlisPro 1.171.40.20a (Rigaku Oxford Diffraction, 2018).
 Numerical absorption correction based on Gaussian integration over
 a multifaceted crystal model.
 Empirical absorption correction using spherical harmonics
 as implemented in SCALE3 ABSPACK scaling algorithm
;
_exptl_crystal_colour            'clear colourless'
_exptl_crystal_density_diffrn    1.356
_exptl_crystal_description       prism
_exptl_crystal_F_000             276
_exptl_crystal_size_max          0.314
_exptl_crystal_size_mid          0.098
_exptl_crystal_size_min          0.083
_refine_diff_density_max         0.195
_refine_diff_density_min         -0.174
_refine_diff_density_rms         0.040
_refine_ls_abs_structure_details
;
 Flack x determined using 1002 quotients [(I+)-(I-)]/[(I+)+(I-)]
 (Parsons, Flack and Wagner, Acta Cryst. B69 (2013) 249-259).
;
_refine_ls_abs_structure_Flack   0.04(15)
_refine_ls_extinction_method     none
_refine_ls_goodness_of_fit_ref   1.051
_refine_ls_hydrogen_treatment    mixed
_refine_ls_matrix_type           full
_refine_ls_number_parameters     182
_refine_ls_number_reflns         2487
_refine_ls_number_restraints     1
_refine_ls_restrained_S_all      1.051
_refine_ls_R_factor_all          0.0357
_refine_ls_R_factor_gt           0.0323
_refine_ls_shift/su_max          0.000
_refine_ls_shift/su_mean         0.000
_refine_ls_structure_factor_coef Fsqd
_refine_ls_weighting_details
'w=1/[\s^2^(Fo^2^)+(0.0423P)^2^+0.0897P] where P=(Fo^2^+2Fc^2^)/3'
_refine_ls_weighting_scheme      calc
_refine_ls_wR_factor_gt          0.0803
_refine_ls_wR_factor_ref         0.0828
_reflns_Friedel_coverage         0.845
_reflns_Friedel_fraction_full    0.992
_reflns_Friedel_fraction_max     0.954
_reflns_number_gt                2326
_reflns_number_total             2487
_reflns_threshold_expression     'I > 2\s(I)'
_iucr_refine_instructions_details
;
TITL ra-2rat117.res in P2(1)
    ra-2rat117.res
    created by SHELXL-2018/3 at 11:37:09 on 16-Apr-2019
CELL 1.54184 7.474426 9.000402 9.421108 90 93.4447 90
ZERR 2 0.000284 0.000309 0.000303 0 0.0033 0
LATT -1
SYMM -X,0.5+Y,-Z
SFAC C H N O
UNIT 30 36 4 4
EQIV $1 -X,0.5+Y,1-Z

L.S. 20
PLAN  10
HTAB N2 O2_$1
BOND $H
CONF
fmap 2
acta
REM <olex2.extras>
REM <HklSrc "%.\\RA-2RAT117.hkl">
REM </olex2.extras>

WGHT    0.042300    0.089700
FVAR      14.31775
O1    4    0.153775    0.365610    0.561160    11.00000    0.02526    0.02566 =
         0.02035    0.00131   -0.00183   -0.00320
O2    4    0.055682    0.170891    0.679578    11.00000    0.03341    0.02643 =
         0.02979    0.00278   -0.00044   -0.00573
N1    3    0.607627    0.501072    0.495437    11.00000    0.02455    0.03215 =
         0.02428    0.00004    0.00599    0.00003
H1    2    0.684122    0.486605    0.423752    11.00000    0.03532
N2    3    0.235865    0.620593    0.560852    11.00000    0.02633    0.02291 =
         0.01896    0.00207   -0.00212    0.00301
H2    2    0.161405    0.638659    0.486885    11.00000    0.01991
C1    1    0.437027    0.425281    0.462805    11.00000    0.02929    0.02207 =
         0.02278    0.00009    0.00244    0.00017
AFIX  13
H1A   2    0.456979    0.318047    0.472457    11.00000   -1.20000
AFIX   0
C2    1    0.306463    0.473189    0.573285    11.00000    0.02327    0.02189 =
         0.01905    0.00057   -0.00047   -0.00147
C3    1    0.192609    0.667710    0.696671    11.00000    0.02270    0.02354 =
         0.02098   -0.00067    0.00178   -0.00215
C4    1    0.103095    0.796879    0.731479    11.00000    0.02514    0.02365 =
         0.03113    0.00228    0.00213    0.00281
AFIX  43
H4    2    0.056108    0.860815    0.661202    11.00000   -1.20000
AFIX   0
C5    1    0.086021    0.827499    0.875115    11.00000    0.02737    0.02626 =
         0.03618   -0.00485    0.00480    0.00195
AFIX  43
H5    2    0.027059    0.913519    0.900778    11.00000   -1.20000
AFIX   0
C6    1    0.155035    0.732486    0.980463    11.00000    0.02882    0.03597 =
         0.02547   -0.00916    0.00180   -0.00044
AFIX  43
H6    2    0.139250    0.753677    1.075515    11.00000   -1.20000
AFIX   0
C7    1    0.248236    0.604988    0.943976    11.00000    0.02724    0.02912 =
         0.02158    0.00069   -0.00022   -0.00040
AFIX  43
H7    2    0.297991    0.542433    1.014322    11.00000   -1.20000
AFIX   0
C8    1    0.265695    0.572788    0.801542    11.00000    0.02230    0.02283 =
         0.02350   -0.00062   -0.00038   -0.00175
C9    1    0.378209    0.457555    0.730350    11.00000    0.02356    0.02209 =
         0.01835    0.00187   -0.00107    0.00077
C10   1    0.336872    0.292919    0.760263    11.00000    0.02460    0.02021 =
         0.02322    0.00113   -0.00110    0.00153
AFIX  13
H10   2    0.432024    0.233768    0.720652    11.00000   -1.20000
AFIX   0
C11   1    0.168269    0.266530    0.667586    11.00000    0.02678    0.02180 =
         0.02265   -0.00144    0.00236    0.00127
C12   1    0.576999    0.502281    0.750599    11.00000    0.02616    0.02421 =
         0.02398   -0.00110   -0.00418    0.00053
AFIX  23
H12A  2    0.584699    0.609664    0.757248    11.00000   -1.20000
H12B  2    0.626243    0.461489    0.839902    11.00000   -1.20000
AFIX   0
C13   1    0.690752    0.450186    0.631954    11.00000    0.02487    0.03028 =
         0.03060    0.00015    0.00016    0.00314
AFIX  23
H13A  2    0.810919    0.490443    0.645763    11.00000   -1.20000
H13B  2    0.698933    0.342627    0.632678    11.00000   -1.20000
AFIX   0
C14   1    0.367050    0.456928    0.311199    11.00000    0.03270    0.03330 =
         0.02026   -0.00028    0.00354   -0.00339
AFIX 137
H14A  2    0.335388    0.560014    0.302226    11.00000   -1.50000
H14B  2    0.263199    0.396803    0.288359    11.00000   -1.50000
H14C  2    0.458316    0.433977    0.247149    11.00000   -1.50000
AFIX   0
C15   1    0.322712    0.243051    0.913254    11.00000    0.03477    0.02956 =
         0.02612    0.00820   -0.00343   -0.00023
AFIX 137
H15A  2    0.225066    0.294008    0.953696    11.00000   -1.50000
H15B  2    0.432354    0.265770    0.967193    11.00000   -1.50000
H15C  2    0.301769    0.137868    0.915539    11.00000   -1.50000
AFIX   0
HKLF 4




REM  ra-2rat117.res in P2(1)
REM wR2 = 0.0828, GooF = S = 1.051, Restrained GooF = 1.051 for all data
REM R1 = 0.0323 for 2326 Fo > 4sig(Fo) and 0.0357 for all 2487 data
REM 182 parameters refined using 1 restraints

END  
     
WGHT      0.0423      0.0897 

REM Highest difference peak  0.195,  deepest hole -0.174,  1-sigma level  0.040
Q1    1   0.3504  0.4591  0.6584  11.00000  0.05    0.19
Q2    1   0.1781  0.8240  0.8201  11.00000  0.05    0.14
Q3    1   0.1597  0.2833  0.3274  11.00000  0.05    0.14
Q4    1   0.6280  0.4549  0.6951  11.00000  0.05    0.14
Q5    1   0.3733  0.4496  0.5199  11.00000  0.05    0.13
Q6    1  -0.0401  0.6620  0.5252  11.00000  0.05    0.13
Q7    1   0.8548  0.5596  0.6219  11.00000  0.05    0.13
Q8    1   0.9670  0.5632  0.5599  11.00000  0.05    0.13
Q9    1   0.8849  0.3938  0.7160  11.00000  0.05    0.12
Q10   1   0.0635  0.3666  0.4813  11.00000  0.05    0.12

  REM The information below was added by Olex2.
  REM
  REM R1 = 0.0323 for 2326 Fo > 4sig(Fo) and 0.0357 for all 9784 data
  REM n/a parameters refined using n/a restraints
  REM Highest difference peak 0.19, deepest hole -0.17
  REM Mean Shift 0, Max Shift 0.000.

  REM +++ Tabular Listing of Refinement Information +++
  REM R1_all = 0.0357
  REM R1_gt = 0.0323
  REM wR_ref = 0.0828
  REM GOOF = 1.051
  REM Shift_max = 0.000
  REM Shift_mean = 0
  REM Reflections_all = 9784
  REM Reflections_gt = 2326
  REM Parameters = n/a
  REM Hole = -0.17
  REM Peak = 0.19
  REM Flack = 0.04(15)

  
;
_cod_data_source_file            ja0c05804_si_015.cif
_cod_data_source_block           ra-2rat117
_cod_depositor_comments
;
The following automatic conversions were performed:

data item '_exptl_absorpt_correction_type' value 'Gaussian' was
changed to 'gaussian' in accordance with the
/home/data/users/saulius/crontab/automatic-downloads/rss-feeds/ACS/lib/dictionaries/cif_core.dic
dictionary named 'cif_core.dic' version 2.4.2 last updated on
2011-04-26.

Automatic conversion script
Id: cif_fix_values 7556 2019-12-06 15:28:31Z antanas 
;
_cod_database_code               4135139
_shelx_shelxl_version_number     2018/3
_audit_contact_author            'Farzaneh Fadaei Tirani'
_chemical_oxdiff_formula         'C15 H16 N2 O1'
_shelx_space_group_comment
;
The symmetry employed for this shelxl refinement is uniquely defined
by the following loop, which should always be used as a source of
symmetry information in preference to the above space-group names.
They are only intended as comments.
;
_reflns_odcompleteness_completeness 100.00
_reflns_odcompleteness_iscentric 1
_reflns_odcompleteness_theta     66.97
_olex2_refinement_description
;
1. Fixed Uiso
 At 1.2 times of:
  All C(H) groups, All C(H,H) groups
 At 1.5 times of:
  All C(H,H,H) groups
2.a Ternary CH refined with riding coordinates:
 C1(H1A), C10(H10)
2.b Secondary CH2 refined with riding coordinates:
 C12(H12A,H12B), C13(H13A,H13B)
2.c Aromatic/amide H refined with riding coordinates:
 C4(H4), C5(H5), C6(H6), C7(H7)
2.d Idealised Me refined as rotating group:
 C14(H14A,H14B,H14C), C15(H15A,H15B,H15C)
;
_olex2_submission_special_instructions 'No special instructions were received'
_oxdiff_exptl_absorpt_empirical_details
;
Empirical correction (ABSPACK) includes:
- Absorption correction using spherical harmonics
- Frame scaling
- Detector area scaling
- B-factor correction
;
_oxdiff_exptl_absorpt_empirical_full_max 2.457
_oxdiff_exptl_absorpt_empirical_full_min 0.557
loop_
_space_group_symop_operation_xyz
'x, y, z'
'-x, y+1/2, -z'
loop_
_atom_site_label
_atom_site_type_symbol
_atom_site_fract_x
_atom_site_fract_y
_atom_site_fract_z
_atom_site_U_iso_or_equiv
_atom_site_adp_type
_atom_site_occupancy
_atom_site_site_symmetry_order
_atom_site_calc_flag
_atom_site_refinement_flags_posn
_atom_site_refinement_flags_adp
_atom_site_refinement_flags_occupancy
_atom_site_disorder_assembly
_atom_site_disorder_group
O1 O 0.1538(2) 0.36561(18) 0.56116(17) 0.0239(4) Uani 1 1 d . . . . .
O2 O 0.0557(2) 0.1709(2) 0.67958(19) 0.0300(4) Uani 1 1 d . . . . .
N1 N 0.6076(3) 0.5011(3) 0.4954(2) 0.0268(5) Uani 1 1 d . . . . .
H1 H 0.684(4) 0.487(4) 0.424(3) 0.035(8) Uiso 1 1 d . . . . .
N2 N 0.2359(3) 0.6206(2) 0.5609(2) 0.0229(4) Uani 1 1 d . . . . .
H2 H 0.161(4) 0.639(3) 0.487(3) 0.020(7) Uiso 1 1 d . . . . .
C1 C 0.4370(3) 0.4253(3) 0.4628(2) 0.0247(5) Uani 1 1 d . . . . .
H1A H 0.456979 0.318047 0.472457 0.030 Uiso 1 1 calc R . . . .
C2 C 0.3065(3) 0.4732(3) 0.5733(2) 0.0215(5) Uani 1 1 d . . . . .
C3 C 0.1926(3) 0.6677(3) 0.6967(2) 0.0224(5) Uani 1 1 d . . . . .
C4 C 0.1031(3) 0.7969(3) 0.7315(3) 0.0266(5) Uani 1 1 d . . . . .
H4 H 0.056108 0.860815 0.661202 0.032 Uiso 1 1 calc R . . . .
C5 C 0.0860(3) 0.8275(3) 0.8751(3) 0.0298(5) Uani 1 1 d . . . . .
H5 H 0.027059 0.913519 0.900778 0.036 Uiso 1 1 calc R . . . .
C6 C 0.1550(3) 0.7325(3) 0.9805(3) 0.0301(6) Uani 1 1 d . . . . .
H6 H 0.139250 0.753677 1.075515 0.036 Uiso 1 1 calc R . . . .
C7 C 0.2482(3) 0.6050(3) 0.9440(2) 0.0260(5) Uani 1 1 d . . . . .
H7 H 0.297991 0.542433 1.014322 0.031 Uiso 1 1 calc R . . . .
C8 C 0.2657(3) 0.5728(3) 0.8015(2) 0.0229(5) Uani 1 1 d . . . . .
C9 C 0.3782(3) 0.4576(3) 0.7304(2) 0.0214(5) Uani 1 1 d . . . . .
C10 C 0.3369(3) 0.2929(2) 0.7603(2) 0.0228(5) Uani 1 1 d . . . . .
H10 H 0.432024 0.233768 0.720652 0.027 Uiso 1 1 calc R . . . .
C11 C 0.1683(3) 0.2665(3) 0.6676(2) 0.0237(5) Uani 1 1 d . . . . .
C12 C 0.5770(3) 0.5023(3) 0.7506(2) 0.0250(5) Uani 1 1 d . . . . .
H12A H 0.584699 0.609664 0.757248 0.030 Uiso 1 1 calc R . . . .
H12B H 0.626243 0.461489 0.839902 0.030 Uiso 1 1 calc R . . . .
C13 C 0.6908(3) 0.4502(3) 0.6320(3) 0.0286(5) Uani 1 1 d . . . . .
H13A H 0.810919 0.490443 0.645763 0.034 Uiso 1 1 calc R . . . .
H13B H 0.698933 0.342627 0.632678 0.034 Uiso 1 1 calc R . . . .
C14 C 0.3671(3) 0.4569(3) 0.3112(2) 0.0287(5) Uani 1 1 d . . . . .
H14A H 0.335388 0.560014 0.302226 0.043 Uiso 1 1 calc GR . . . .
H14B H 0.263199 0.396803 0.288359 0.043 Uiso 1 1 calc GR . . . .
H14C H 0.458316 0.433977 0.247149 0.043 Uiso 1 1 calc GR . . . .
C15 C 0.3227(4) 0.2431(3) 0.9133(3) 0.0304(6) Uani 1 1 d . . . . .
H15A H 0.225066 0.294008 0.953696 0.046 Uiso 1 1 calc GR . . . .
H15B H 0.432354 0.265770 0.967193 0.046 Uiso 1 1 calc GR . . . .
H15C H 0.301769 0.137868 0.915539 0.046 Uiso 1 1 calc GR . . . .
loop_
_atom_site_aniso_label
_atom_site_aniso_U_11
_atom_site_aniso_U_22
_atom_site_aniso_U_33
_atom_site_aniso_U_23
_atom_site_aniso_U_13
_atom_site_aniso_U_12
O1 0.0253(8) 0.0257(8) 0.0204(8) 0.0013(6) -0.0018(6) -0.0032(6)
O2 0.0334(9) 0.0264(9) 0.0298(9) 0.0028(7) -0.0004(7) -0.0057(8)
N1 0.0246(9) 0.0321(12) 0.0243(10) 0.0000(9) 0.0060(8) 0.0000(8)
N2 0.0263(10) 0.0229(10) 0.0190(9) 0.0021(8) -0.0021(8) 0.0030(8)
C1 0.0293(11) 0.0221(11) 0.0228(11) 0.0001(9) 0.0024(9) 0.0002(9)
C2 0.0233(10) 0.0219(11) 0.0190(10) 0.0006(9) -0.0005(8) -0.0015(9)
C3 0.0227(10) 0.0235(11) 0.0210(10) -0.0007(9) 0.0018(8) -0.0022(9)
C4 0.0251(11) 0.0236(12) 0.0311(12) 0.0023(10) 0.0021(10) 0.0028(9)
C5 0.0274(12) 0.0263(12) 0.0362(13) -0.0049(11) 0.0048(10) 0.0019(10)
C6 0.0288(12) 0.0360(14) 0.0255(12) -0.0092(10) 0.0018(10) -0.0004(10)
C7 0.0272(11) 0.0291(12) 0.0216(11) 0.0007(10) -0.0002(9) -0.0004(10)
C8 0.0223(10) 0.0228(11) 0.0235(11) -0.0006(9) -0.0004(9) -0.0018(9)
C9 0.0236(10) 0.0221(11) 0.0184(10) 0.0019(9) -0.0011(8) 0.0008(9)
C10 0.0246(11) 0.0202(12) 0.0232(11) 0.0011(9) -0.0011(9) 0.0015(9)
C11 0.0268(11) 0.0218(11) 0.0226(11) -0.0014(9) 0.0024(9) 0.0013(9)
C12 0.0262(11) 0.0242(12) 0.0240(11) -0.0011(9) -0.0042(9) 0.0005(9)
C13 0.0249(11) 0.0303(13) 0.0306(13) 0.0001(10) 0.0002(10) 0.0031(10)
C14 0.0327(12) 0.0333(13) 0.0203(10) -0.0003(10) 0.0035(9) -0.0034(11)
C15 0.0348(13) 0.0296(14) 0.0261(12) 0.0082(10) -0.0034(10) -0.0002(11)
loop_
_atom_type_symbol
_atom_type_description
_atom_type_scat_dispersion_real
_atom_type_scat_dispersion_imag
_atom_type_scat_source
C C 0.0181 0.0091 'International Tables Vol C Tables 4.2.6.8 and 6.1.1.4'
H H 0.0000 0.0000 'International Tables Vol C Tables 4.2.6.8 and 6.1.1.4'
N N 0.0311 0.0180 'International Tables Vol C Tables 4.2.6.8 and 6.1.1.4'
O O 0.0492 0.0322 'International Tables Vol C Tables 4.2.6.8 and 6.1.1.4'
loop_
_exptl_crystal_face_index_h
_exptl_crystal_face_index_k
_exptl_crystal_face_index_l
_exptl_crystal_face_perp_dist
1 0 1 0.0462
1 2 -2 0.1074
0 -1 0 0.1742
2 -1 -5 0.0315
-1 0 2 0.0441
-1 0 -1 0.0378
-1 1 -1 0.0648
-4 1 3 0.0423
0 2 1 0.1087
0 0 1 0.0433
5 -1 -2 0.0410
1 -1 1 0.1018
loop_
_geom_angle_atom_site_label_1
_geom_angle_atom_site_label_2
_geom_angle_atom_site_label_3
_geom_angle
_geom_angle_site_symmetry_1
_geom_angle_site_symmetry_3
_geom_angle_publ_flag
C11 O1 C2 110.26(17) . . ?
C1 N1 H1 111(2) . . ?
C1 N1 C13 110.89(19) . . ?
C13 N1 H1 110(2) . . ?
C2 N2 H2 116.7(19) . . ?
C3 N2 H2 119.8(18) . . ?
C3 N2 C2 108.04(18) . . ?
N1 C1 H1A 108.3 . . ?
N1 C1 C2 108.00(18) . . ?
N1 C1 C14 110.9(2) . . ?
C2 C1 H1A 108.3 . . ?
C14 C1 H1A 108.3 . . ?
C14 C1 C2 112.9(2) . . ?
O1 C2 C1 106.28(17) . . ?
O1 C2 C9 103.46(17) . . ?
N2 C2 O1 108.55(17) . . ?
N2 C2 C1 116.92(19) . . ?
N2 C2 C9 105.50(18) . . ?
C1 C2 C9 115.18(19) . . ?
C4 C3 N2 127.4(2) . . ?
C4 C3 C8 121.3(2) . . ?
C8 C3 N2 111.1(2) . . ?
C3 C4 H4 121.1 . . ?
C3 C4 C5 117.9(2) . . ?
C5 C4 H4 121.1 . . ?
C4 C5 H5 119.3 . . ?
C6 C5 C4 121.4(2) . . ?
C6 C5 H5 119.3 . . ?
C5 C6 H6 120.0 . . ?
C5 C6 C7 120.0(2) . . ?
C7 C6 H6 120.0 . . ?
C6 C7 H7 120.4 . . ?
C8 C7 C6 119.2(2) . . ?
C8 C7 H7 120.4 . . ?
C3 C8 C9 108.1(2) . . ?
C7 C8 C3 120.2(2) . . ?
C7 C8 C9 131.1(2) . . ?
C8 C9 C2 101.00(18) . . ?
C8 C9 C10 116.97(19) . . ?
C8 C9 C12 108.84(19) . . ?
C10 C9 C2 101.54(18) . . ?
C12 C9 C2 111.74(18) . . ?
C12 C9 C10 115.51(19) . . ?
C9 C10 H10 107.1 . . ?
C11 C10 C9 102.42(18) . . ?
C11 C10 H10 107.1 . . ?
C11 C10 C15 113.5(2) . . ?
C15 C10 C9 118.9(2) . . ?
C15 C10 H10 107.1 . . ?
O1 C11 C10 110.8(2) . . ?
O2 C11 O1 121.0(2) . . ?
O2 C11 C10 128.1(2) . . ?
C9 C12 H12A 108.8 . . ?
C9 C12 H12B 108.8 . . ?
H12A C12 H12B 107.6 . . ?
C13 C12 C9 114.00(19) . . ?
C13 C12 H12A 108.8 . . ?
C13 C12 H12B 108.8 . . ?
N1 C13 C12 108.81(19) . . ?
N1 C13 H13A 109.9 . . ?
N1 C13 H13B 109.9 . . ?
C12 C13 H13A 109.9 . . ?
C12 C13 H13B 109.9 . . ?
H13A C13 H13B 108.3 . . ?
C1 C14 H14A 109.5 . . ?
C1 C14 H14B 109.5 . . ?
C1 C14 H14C 109.5 . . ?
H14A C14 H14B 109.5 . . ?
H14A C14 H14C 109.5 . . ?
H14B C14 H14C 109.5 . . ?
C10 C15 H15A 109.5 . . ?
C10 C15 H15B 109.5 . . ?
C10 C15 H15C 109.5 . . ?
H15A C15 H15B 109.5 . . ?
H15A C15 H15C 109.5 . . ?
H15B C15 H15C 109.5 . . ?
loop_
_geom_bond_atom_site_label_1
_geom_bond_atom_site_label_2
_geom_bond_distance
_geom_bond_site_symmetry_2
_geom_bond_publ_flag
O1 C2 1.496(3) . ?
O1 C11 1.341(3) . ?
O2 C11 1.214(3) . ?
N1 H1 0.92(3) . ?
N1 C1 1.462(3) . ?
N1 C13 1.468(3) . ?
N2 H2 0.88(3) . ?
N2 C2 1.430(3) . ?
N2 C3 1.404(3) . ?
C1 H1A 0.9800 . ?
C1 C2 1.531(3) . ?
C1 C14 1.518(3) . ?
C2 C9 1.550(3) . ?
C3 C4 1.390(4) . ?
C3 C8 1.393(3) . ?
C4 H4 0.9300 . ?
C4 C5 1.394(3) . ?
C5 H5 0.9300 . ?
C5 C6 1.386(4) . ?
C6 H6 0.9300 . ?
C6 C7 1.396(4) . ?
C7 H7 0.9300 . ?
C7 C8 1.387(3) . ?
C8 C9 1.517(3) . ?
C9 C10 1.543(3) . ?
C9 C12 1.540(3) . ?
C10 H10 0.9800 . ?
C10 C11 1.508(3) . ?
C10 C15 1.519(3) . ?
C12 H12A 0.9700 . ?
C12 H12B 0.9700 . ?
C12 C13 1.519(3) . ?
C13 H13A 0.9700 . ?
C13 H13B 0.9700 . ?
C14 H14A 0.9600 . ?
C14 H14B 0.9600 . ?
C14 H14C 0.9600 . ?
C15 H15A 0.9600 . ?
C15 H15B 0.9600 . ?
C15 H15C 0.9600 . ?
loop_
_geom_hbond_atom_site_label_D
_geom_hbond_atom_site_label_H
_geom_hbond_atom_site_label_A
_geom_hbond_distance_DH
_geom_hbond_distance_HA
_geom_hbond_distance_DA
_geom_hbond_angle_DHA
_geom_hbond_site_symmetry_A
_geom_hbond_publ_flag
N2 H2 O2 0.88(3) 2.21(3) 3.081(3) 172(2) 2_556 yes
loop_
_geom_torsion_atom_site_label_1
_geom_torsion_atom_site_label_2
_geom_torsion_atom_site_label_3
_geom_torsion_atom_site_label_4
_geom_torsion
_geom_torsion_site_symmetry_1
_geom_torsion_site_symmetry_2
_geom_torsion_site_symmetry_3
_geom_torsion_site_symmetry_4
_geom_torsion_publ_flag
O1 C2 C9 C8 -89.47(19) . . . . ?
O1 C2 C9 C10 31.3(2) . . . . ?
O1 C2 C9 C12 154.95(18) . . . . ?
N1 C1 C2 O1 -165.29(17) . . . . ?
N1 C1 C2 N2 73.4(2) . . . . ?
N1 C1 C2 C9 -51.4(3) . . . . ?
N2 C2 C9 C8 24.5(2) . . . . ?
N2 C2 C9 C10 145.22(18) . . . . ?
N2 C2 C9 C12 -91.1(2) . . . . ?
N2 C3 C4 C5 -175.2(2) . . . . ?
N2 C3 C8 C7 175.9(2) . . . . ?
N2 C3 C8 C9 4.0(3) . . . . ?
C1 N1 C13 C12 -67.7(3) . . . . ?
C1 C2 C9 C8 154.99(19) . . . . ?
C1 C2 C9 C10 -84.3(2) . . . . ?
C1 C2 C9 C12 39.4(3) . . . . ?
C2 O1 C11 O2 178.4(2) . . . . ?
C2 O1 C11 C10 -2.2(3) . . . . ?
C2 N2 C3 C4 -172.6(2) . . . . ?
C2 N2 C3 C8 12.7(3) . . . . ?
C2 C9 C10 C11 -32.1(2) . . . . ?
C2 C9 C10 C15 -158.1(2) . . . . ?
C2 C9 C12 C13 -40.2(3) . . . . ?
C3 N2 C2 O1 86.8(2) . . . . ?
C3 N2 C2 C1 -153.03(19) . . . . ?
C3 N2 C2 C9 -23.5(2) . . . . ?
C3 C4 C5 C6 -0.3(4) . . . . ?
C3 C8 C9 C2 -17.4(2) . . . . ?
C3 C8 C9 C10 -126.5(2) . . . . ?
C3 C8 C9 C12 100.4(2) . . . . ?
C4 C3 C8 C7 0.8(4) . . . . ?
C4 C3 C8 C9 -171.0(2) . . . . ?
C4 C5 C6 C7 1.8(4) . . . . ?
C5 C6 C7 C8 -2.0(4) . . . . ?
C6 C7 C8 C3 0.7(4) . . . . ?
C6 C7 C8 C9 170.4(2) . . . . ?
C7 C8 C9 C2 172.0(2) . . . . ?
C7 C8 C9 C10 62.9(3) . . . . ?
C7 C8 C9 C12 -70.3(3) . . . . ?
C8 C3 C4 C5 -1.0(3) . . . . ?
C8 C9 C10 C11 76.7(2) . . . . ?
C8 C9 C10 C15 -49.3(3) . . . . ?
C8 C9 C12 C13 -150.8(2) . . . . ?
C9 C10 C11 O1 22.5(2) . . . . ?
C9 C10 C11 O2 -158.1(2) . . . . ?
C9 C12 C13 N1 53.6(3) . . . . ?
C10 C9 C12 C13 75.2(3) . . . . ?
C11 O1 C2 N2 -130.76(19) . . . . ?
C11 O1 C2 C1 102.7(2) . . . . ?
C11 O1 C2 C9 -19.0(2) . . . . ?
C12 C9 C10 C11 -153.18(19) . . . . ?
C12 C9 C10 C15 80.8(3) . . . . ?
C13 N1 C1 C2 65.8(2) . . . . ?
C13 N1 C1 C14 -170.0(2) . . . . ?
C14 C1 C2 O1 71.7(2) . . . . ?
C14 C1 C2 N2 -49.6(3) . . . . ?
C14 C1 C2 C9 -174.4(2) . . . . ?
C15 C10 C11 O1 152.0(2) . . . . ?
C15 C10 C11 O2 -28.7(4) . . . . ?
loop_
_refln_index_h
_refln_index_k
_refln_index_l
_refln_F_squared_meas
_refln_F_squared_sigma
_refln_scale_group_code
0 -11 -1 2448.27 399.874 54
0 -10 0 9739.13 1037.95 33
0 -10 0 7368.64 767.283 39
0 -10 1 5447.08 729.419 39
0 -10 -1 6335.44 840.495 33
0 -10 1 5959.89 850.402 33
0 -10 -1 5278.4 623.35 39
0 -10 -2 17079.6 999.463 39
0 -10 -2 18533.6 1251.7 33
0 -10 -2 18295.7 1205.49 34
0 -10 2 21008.8 1355.66 39
0 -10 -3 11921.8 905.127 34
0 -10 3 14033.8 1129.43 39
0 -10 -3 12980.2 995.131 54
0 -10 -4 11407.1 830.498 54
0 -9 0 23.6612 404.512 39
0 -9 0 313.236 515.769 33
0 -9 0 315.319 939.133 23
0 -9 1 17558.9 2961.41 21
0 -9 1 18125.3 3124 23
0 -9 -1 16413.6 1434.03 33
0 -9 -1 15560.1 1219.28 39
0 -9 2 810.914 647.487 23
0 -9 -2 960.273 382.572 39
0 -9 -2 763.372 515.412 33
0 -9 2 129.299 1085.17 21
0 -9 -3 8965.48 1011.37 33
0 -9 -3 9044.96 941.632 34
0 -9 -3 8343.09 799.114 39
0 -9 3 8088.44 2163.6 23
0 -9 -4 2176.83 468.712 34
0 -9 -4 1253.03 346.31 39
0 -9 -4 1789.95 543.469 54
0 -9 -5 6104.07 652.56 34
0 -9 -5 7224.66 781.163 54
0 -9 -6 2955.92 430.318 54
0 -8 0 5343.14 1753.64 21
0 -8 0 5611.6 1901.17 23
0 -8 -1 2566.71 773.451 33
0 -8 1 5166.47 1960.73 19
0 -8 -1 2243.88 581.983 39
0 -8 1 4191.88 2002.62 21
0 -8 1 1300.21 1539.27 23
0 -8 -1 1720.09 1213.52 23
0 -8 -2 57322.4 2316.83 39
0 -8 2 60242.8 5741.31 19
0 -8 -2 58724.8 2657.27 33
0 -8 2 53660.3 5554.68 21
0 -8 2 56444.9 5655 23
0 -8 3 3154.88 1577.11 19
0 -8 -3 4966.66 713.378 39
0 -8 -3 4508.2 848.697 33
0 -8 3 4638.13 1979.77 21
0 -8 4 3798.98 1565.34 19
0 -8 -4 2602.58 510.229 39
0 -8 -4 2092.35 571.068 34
0 -8 -4 2955.23 732.848 54
0 -8 -5 6330.88 777.867 34
0 -8 -5 6241.61 705.316 39
0 -8 -5 6503.3 868.194 54
0 -8 -5 7310.31 1842.22 22
0 -8 -6 6980.89 832.946 54
0 -8 7 1799.77 353.718 46
0 -8 -7 2040.94 373.969 59
0 -8 -7 2294.57 436.349 54
0 -7 0 -129.726 930.767 23
0 -7 0 106.612 793.645 21
0 -7 0 186.732 885.229 4
0 -7 0 544.353 903.174 19
0 -7 -1 -145.886 884.132 21
0 -7 -1 -875.366 926.883 23
0 -7 1 169.408 877.373 4
0 -7 1 694.673 870.822 19
0 -7 -1 -43.9557 1025.82 4
0 -7 1 1100.5 986.341 21
0 -7 1 96.8865 865.461 15
0 -7 2 17297.2 2831.28 15
0 -7 -2 19477.9 3136.59 4
0 -7 -2 17767 1481.26 33
0 -7 2 15973.5 2747.08 19
0 -7 -2 14975.7 2660.84 23
0 -7 -2 16320.2 1242.16 39
0 -7 -3 6645.87 961.616 33
0 -7 3 6779.98 1788.04 15
0 -7 -3 7058.75 798.806 39
0 -7 -3 9327.32 2128.16 4
0 -7 3 6313.4 2058.07 19
0 -7 -4 10023.8 974.338 39
0 -7 4 13298.8 2801.57 15
0 -7 4 11993.4 2508.15 19
0 -7 -4 9678.37 1037.37 34
0 -7 -4 10088.1 1124.69 33
0 -7 -4 7452.05 1968.42 4
0 -7 -5 32394.2 1639.12 39
0 -7 -5 30948.7 1741.35 34
0 -7 -5 31289.8 1882.7 54
0 -7 -6 33491.4 1876.59 54
0 -7 -6 34309.3 1629.65 39
0 -7 -6 36269.8 3948.28 22
0 -7 -7 824.87 443.633 54
0 -7 -8 2853.87 389.989 59
0 -7 -8 2618.67 458.913 54
0 -7 9 1982.52 312.037 46
0 -6 0 120046 6745.15 4
0 -6 0 121917 6516.24 21
0 -6 0 113565 6182.46 15
0 -6 0 123349 6694.67 23
0 -6 0 111549 6136.78 19
0 -6 1 53050.6 4214.21 15
0 -6 1 58427 4765.99 4
0 -6 -1 52771.3 4536.75 4
0 -6 1 51980.1 4333.62 19
0 -6 -1 50712.5 4225.81 21
0 -6 -1 56794.2 4497.8 23
0 -6 -2 27628.7 3299.74 4
0 -6 2 25272.4 3203.62 4
0 -6 -2 28945.4 1517.03 39
0 -6 -2 28488.6 3237.89 23
0 -6 2 29037.1 3424.86 19
0 -6 2 27681.4 3254.84 15
0 -6 3 7036.97 1759.45 15
0 -6 -3 6647.36 765.446 39
0 -6 -3 6755.34 918.059 33
0 -6 -3 5764.7 1486.99 4
0 -6 4 1202.93 978.274 14
0 -6 -4 1614.27 393.68 39
0 -6 -4 2319.97 649.793 33
0 -6 4 2092.67 438.82 28
0 -6 4 3452.35 1151.64 16
0 -6 -4 2873.34 1399.17 4
0 -6 -4 2292.11 592.348 34
0 -6 -5 15077.4 1252.8 34
0 -6 5 17406.2 1190.53 28
0 -6 -5 17151.8 1199.5 39
0 -6 -5 16809 1375.84 54
0 -6 5 16747.9 2341.41 16
0 -6 6 8216.03 880.409 28
0 -6 -6 8831.87 955.767 34
0 -6 -6 9105.7 1082.42 54
0 -6 -6 9881.81 943.679 39
0 -6 -6 10685.9 2216.54 22
0 -6 6 5753.43 1219.65 16
0 -6 6 5187.4 1580.89 14
0 -6 -7 8874.3 1955.66 22
0 -6 -7 9530.24 1060.62 54
0 -6 7 8544.02 893.154 28
0 -6 8 3878.97 486.586 48
0 -6 -8 4212.08 677.748 54
0 -6 8 3740.18 546.216 28
0 -6 -8 3511.35 487.486 59
0 -6 9 1035.89 242.73 48
0 -6 -9 1222.64 314.042 54
0 -5 0 -10.8507 657.125 15
0 -5 0 399.89 761.693 4
0 -5 0 226.964 863.916 19
0 -5 0 -959.506 742.871 21
0 -5 -1 16756.7 2054.15 19
0 -5 1 13492.2 1978.82 15
0 -5 -1 15185.5 2045.38 23
0 -5 -1 14919.4 2188.96 4
0 -5 1 14569.5 2233.56 4
0 -5 -1 15850.2 2081.24 21
0 -5 -1 14217.8 1686.79 6
0 -5 1 16798.3 2182.03 19
0 -5 2 3493.98 785.432 16
0 -5 -2 3711.02 1066.82 6
0 -5 2 3816.66 1267.89 4
0 -5 -2 4580.4 1351.18 23
0 -5 2 3306.84 1104.33 14
0 -5 -2 2239.56 978.913 4
0 -5 -2 3684.42 1173.55 21
0 -5 3 25928.6 1154.13 28
0 -5 3 26527.7 2381.24 16
0 -5 -3 25525.7 1447.98 33
0 -5 3 27117.1 3015.78 14
0 -5 -3 24338.5 2788.05 4
0 -5 -4 10303.5 950.051 34
0 -5 -4 13357.2 999.101 39
0 -5 -4 10977.4 1047.05 33
0 -5 4 11327.5 876.845 28
0 -5 -4 9520.04 1810.83 4
0 -5 4 10172.9 1965.71 14
0 -5 4 11015.2 1763.59 16
0 -5 -5 1892.7 576.783 54
0 -5 -5 1471.57 418.76 39
0 -5 5 459.351 822.439 14
0 -5 5 1752.87 471.326 28
0 -5 -5 1060.28 457.026 34
0 -5 5 1704.94 988.128 16
0 -5 -6 1936.99 628.358 54
0 -5 -6 2116.07 1018.48 22
0 -5 -6 2462.34 532.58 39
0 -5 6 2941.53 1081.31 16
0 -5 6 2106.3 552.114 28
0 -5 6 2403.4 1140.68 14
0 -5 -7 31654.1 3760.21 22
0 -5 7 27760.1 3770.69 14
0 -5 -7 29496 1821.33 54
0 -5 7 26444.7 1600.51 28
0 -5 7 25776.4 3220.81 16
0 -5 -8 616.607 431.32 54
0 -5 -8 1476.55 873.163 22
0 -5 8 369.936 358.617 28
0 -5 -8 21.3844 290.867 59
0 -5 9 5287.86 653.122 28
0 -5 -9 6127.58 723.132 54
0 -5 -9 5706.21 696.856 32
0 -5 -10 2439.97 375.431 54
0 -5 10 1681.61 289.695 48
0 -4 0 62793.1 2685.02 6
0 -4 0 63146.1 3605.46 4
0 -4 0 63622.5 3428.03 15
0 -4 0 62393.6 3417.95 19
0 -4 1 104131 4697.9 4
0 -4 -1 111428 4614.77 21
0 -4 -1 110184 4739.37 23
0 -4 -1 109543 4760.36 4
0 -4 -1 108696 4085.84 6
0 -4 1 97521.6 3107.84 16
0 -4 1 97995 4248.52 14
0 -4 -1 100389 4383.21 19
0 -4 -2 22017 2237.32 23
0 -4 2 19548.3 2130.04 14
0 -4 -2 20009.9 2058.45 6
0 -4 2 18963.7 1647.5 16
0 -4 -2 21757 2232.53 21
0 -4 2 21795.2 869.211 28
0 -4 -2 22602 2233.25 4
0 -4 2 18344.9 2040.93 4
0 -4 3 96570.3 4202.66 16
0 -4 -3 102642 2548.85 33
0 -4 3 90431.5 4820.13 14
0 -4 -3 98139.6 4779.5 4
0 -4 -3 95761 4904.48 6
0 -4 -4 24861.9 1293.54 34
0 -4 -4 24496.3 2734.88 6
0 -4 -4 25376.8 1183.28 26
0 -4 -4 26340.2 1428.45 33
0 -4 4 26434.4 2924.34 14
0 -4 4 26506.5 2512.19 16
0 -4 -4 26612.1 2589.39 4
0 -4 5 23852 2641.55 16
0 -4 5 25297.3 3026.46 14
0 -4 -5 26280.1 1517.72 54
0 -4 -5 24171.7 1423.42 34
0 -4 -5 25281.9 2980.52 22
0 -4 5 25308.1 1157.12 31
0 -4 -5 28531.9 1454.63 39
0 -4 -6 13976.7 1211.95 54
0 -4 -6 12797 1096.46 39
0 -4 -6 14142.4 2456.59 22
0 -4 6 11590.8 2032.04 16
0 -4 6 14026.6 947.865 31
0 -4 6 12202.4 2295.2 14
0 -4 -7 19995.5 3104.95 22
0 -4 -7 15772.3 1351.54 54
0 -4 7 14019 2356.91 16
0 -4 7 16825.9 1115.96 31
0 -4 7 14461.9 2676.95 14
0 -4 7 16542.2 1308.09 28
0 -4 8 40662.6 1702.9 31
0 -4 8 42642.9 2000.23 28
0 -4 -8 42096.2 4305.32 22
0 -4 -8 40528.2 2060.7 54
0 -4 -8 39637.6 1705 59
0 -4 8 37084.2 3922.75 16
0 -4 -9 3364.02 600.615 32
0 -4 9 3007.59 471.073 31
0 -4 -9 3237.09 626.359 54
0 -4 9 3111.82 582.195 28
0 -4 -10 5722.92 653.872 54
0 -4 10 6405.95 565.47 48
0 -4 -10 5785.1 629.381 32
0 -3 0 411.58 572.796 4
0 -3 0 442.312 510.365 15
0 -3 0 -84.4342 459.989 19
0 -3 0 109.076 329.707 6
0 -3 1 128730 3203.11 16
0 -3 -1 144583 4519.19 23
0 -3 1 126577 4317.38 4
0 -3 -1 134461 4285.75 19
0 -3 -1 142700 4416.22 21
0 -3 -1 131190 3952.54 6
0 -3 1 114478 4005.53 14
0 -3 1 122893 2285.21 6
0 -3 2 29018.4 2150.05 4
0 -3 -2 31109.9 2259.2 23
0 -3 2 28303.1 1833.77 16
0 -3 2 29250.8 1818.51 12
0 -3 2 30894.7 2245.09 14
0 -3 -2 30793.1 2263.15 6
0 -3 3 26617.8 2010.33 12
0 -3 3 26846.4 2063.16 16
0 -3 -3 32129.1 1751.81 1
0 -3 -3 28924.9 2468.7 6
0 -3 -3 31191.8 2053.14 18
0 -3 4 12743.9 1715.27 16
0 -3 -4 16091.4 863.45 26
0 -3 -4 15770.7 2058.59 6
0 -3 -5 25565.5 2801.63 22
0 -3 5 22120.9 2386.91 16
0 -3 -5 25560.4 1369.34 34
0 -3 -6 724.93 1131.91 22
0 -3 6 255.719 657.33 16
0 -3 -6 -53.8851 384.739 54
0 -3 7 43181.8 1807.73 31
0 -3 7 43420.9 4052.05 16
0 -3 -7 43271.8 4264.12 22
0 -3 -7 39797.8 1743.39 59
0 -3 -7 42188 2071.6 54
0 -3 -8 32326.1 1838.77 32
0 -3 8 31850.6 1750.91 28
0 -3 8 27527.9 3580.73 14
0 -3 -8 32196.5 1876.55 54
0 -3 -8 32219.2 3806.21 22
0 -3 8 29748.2 1546.91 31
0 -3 8 36817.9 3852.63 16
0 -3 9 8695.94 830.359 31
0 -3 -9 9079.29 2038.98 22
0 -3 -9 10214.2 1063.04 54
0 -3 -9 11070.7 1067.31 32
0 -3 9 9318.35 798.922 40
0 -3 9 10660.9 1007.79 28
0 -3 10 1021.45 265.018 40
0 -3 -10 1543.36 416.127 32
0 -3 10 1152.43 276.99 31
0 -3 -10 1559.17 463.351 54
0 -3 10 1494.48 393.823 28
0 -3 11 738.907 206.45 48
0 -3 -11 1188.88 286.8 47
0 -2 0 33460.3 1407.47 6
0 -2 0 35802.1 1744.84 14
0 -2 1 414131 2782.68 6
0 -2 1 403610 6182.22 4
0 -2 1 411088 4650.17 12
0 -2 1 413512 5013.92 16
0 -2 -1 416426 6161.56 6
0 -2 2 4199.08 765.698 12
0 -2 -2 7015.22 1059.42 6
0 -2 2 5508.97 860.028 4
0 -2 3 129133 2525.1 13
0 -2 3 133980 4317.91 12
0 -2 -3 134851 4730.87 6
0 -2 4 16730.7 1454.84 25
0 -2 4 15977.1 1266.89 8
0 -2 -4 17657.2 1958.06 22
0 -2 4 16323 1839.38 12
0 -2 -4 15298.1 1910.38 6
0 -2 5 11319.1 1425.25 25
0 -2 5 6847.98 1367.54 16
0 -2 5 10528.8 1663.44 12
0 -2 -5 9555.8 1742.81 22
0 -2 6 14659.5 2161.02 16
0 -2 -6 14009.6 2277.75 22
0 -2 -7 8062.97 2070.66 22
0 -2 -7 7790.36 940.007 54
0 -2 7 6768.22 1489.45 16
0 -2 8 24635.7 3045.64 16
0 -2 -8 22517.6 1543.37 32
0 -2 8 21529.2 1333.25 31
0 -2 -8 23442.5 3335.43 22
0 -2 -8 22099.8 1548.44 54
0 -2 -9 12507.9 2455.54 22
0 -2 9 9851.81 981.884 28
0 -2 9 10158.3 933.484 31
0 -2 -9 10506.9 1119.66 54
0 -2 9 12823.9 2266.5 16
0 -2 -9 11221 1112.62 32
0 -2 -10 7292.83 814.286 32
0 -2 10 5301.39 582.684 40
0 -2 10 5601.66 612.315 31
0 -2 10 5063.53 628.922 28
0 -2 11 3559.22 374.908 48
0 -2 -11 3092.45 456.598 47
0 -2 11 2844.65 330.787 40
0 -1 0 -18.8205 165.722 14
0 -1 -1 230425 3690.95 6
0 -1 1 232180 3361.3 4
0 -1 -2 80909.8 2775.77 6
0 -1 2 84846 1800.38 13
0 -1 -3 9985.97 1182.78 22
0 -1 -3 9294.31 1201.14 6
0 -1 3 8532.31 737.698 8
0 -1 3 8483.24 1146.88 12
0 -1 -4 94537.1 3999.33 6
0 -1 4 94781.9 3606.58 25
0 -1 4 93401.3 3885.3 12
0 -1 -4 95385.7 4070.01 22
0 -1 5 94448.2 4506.03 12
0 -1 -5 88960.3 4579.86 22
0 -1 5 87199.4 4074.18 25
0 -1 6 24284.4 2594.13 16
0 -1 6 25758.7 2494.11 25
0 -1 -6 27006.7 2907.14 22
0 -1 7 12232.9 2020.74 16
0 -1 -7 11062 1045.84 32
0 -1 -7 11015.5 1056.34 54
0 -1 -7 11224.1 2121.82 22
0 -1 -8 24292.6 1648.92 54
0 -1 -8 24733.5 1645.13 32
0 -1 -8 24370.3 3404.1 22
0 -1 8 24402.9 3079.12 16
0 -1 8 24896.6 1491.07 31
0 -1 -9 2003.97 646.428 54
0 -1 -9 1910.15 563.611 32
0 -1 9 1890.64 485.902 31
0 -1 9 1952.08 487.179 28
0 -1 -10 828.023 483.838 47
0 -1 10 680.093 334.295 40
0 -1 10 494.191 259.607 31
0 -1 -10 812.458 385.121 32
0 -1 10 77.8036 287.335 28
0 -1 11 26339.3 1029.79 40
0 -1 11 25034.8 952.806 48
0 -1 -11 26503.6 1254.72 47
0 0 -1 445125 3751.13 6
0 0 1 444637 3702.45 12
0 0 -2 12761.4 958.726 6
0 0 -3 74421.5 2842.1 6
0 0 3 83393.6 2980.77 12
0 0 3 83160.3 2959.79 25
0 0 4 149399 4694.53 25
0 0 -4 140549 3916.65 17
0 0 4 147351 4704.33 12
0 0 -4 144816 4961.63 22
0 0 5 106130 4589.58 25
0 0 -5 106360 2466.02 32
0 0 5 107022 4588.33 12
0 0 -5 103564 4946.74 22
0 0 6 8856.55 1546.1 25
0 0 -6 9844.82 1831.42 22
0 0 -6 9332.02 889.006 32
0 0 7 12662.2 2039.41 16
0 0 -7 11031.7 1057.73 32
0 0 -7 10757.3 2270.39 22
0 0 -7 10581.4 1025.17 54
0 0 7 11608.6 947.648 41
0 0 -8 17446 1437.74 32
0 0 8 17861.4 2449.83 16
0 0 -8 17661.9 1438.1 54
0 0 8 17060.3 1236.97 31
0 0 8 16922.5 1174.68 41
0 0 -9 13586.9 1284.72 32
0 0 9 14562 1116.49 31
0 0 9 14793.1 2268.89 16
0 0 9 13524.1 986.288 41
0 0 9 13756.4 1039.93 28
0 0 10 2852.32 503.835 40
0 0 -10 4142.39 727.083 47
0 0 10 3541.35 517.485 31
0 0 10 3241.14 437.545 41
0 0 -10 4119.39 690.437 32
0 0 11 62.2549 135.948 48
0 0 -11 287.037 313.155 47
0 0 11 -26.9539 198.248 40
0 1 0 233.604 170.637 10
0 1 0 77.4144 92.543 9
0 1 1 235851 2203.96 12
0 1 1 227132 2426.27 10
0 1 1 230311 3150.15 7
0 1 2 82562.1 2147.06 12
0 1 -2 76248.7 2413.23 17
0 1 3 8898.66 986.335 12
0 1 -3 8264.17 955.744 17
0 1 3 9422.24 1060.17 25
0 1 -3 8503.99 1156.24 22
0 1 -4 83337.4 3252.33 17
0 1 -4 85805.1 4066.12 22
0 1 4 93055.3 3834.72 25
0 1 4 92897.3 3530.31 12
0 1 5 93600 4059.69 12
0 1 -5 83947.9 4685.48 22
0 1 5 89612.8 4356.85 25
0 1 -5 87145.4 4009.14 10
0 1 -5 83369.3 3705.65 17
0 1 -5 88224.6 2347.92 32
0 1 -6 24328.2 1435.53 32
0 1 -6 23692.7 2302.22 10
0 1 -7 10519.3 936.772 58
0 1 -7 10401.7 1066.64 32
0 1 7 10514.2 896.938 52
0 1 -7 10120 1052.39 54
0 1 7 10223.7 916.7 41
0 1 7 11175.9 1765.76 16
0 1 8 25371.6 1426.81 31
0 1 8 24155.8 1445.31 41
0 1 -8 24582.6 1678.71 32
0 1 -9 1798.18 621.701 47
0 1 9 1670.05 435.384 31
0 1 9 2038.35 493.285 41
0 1 -9 1935.27 603.639 32
0 1 -10 227.402 437.414 47
0 1 10 799.676 321.691 40
0 1 10 919.939 306.003 41
0 1 10 586.68 255.697 31
0 1 11 23639.1 872.529 41
0 1 11 26349.7 1022.57 40
0 1 -11 26541.6 1289.08 47
0 2 0 35705.7 1731.95 10
0 2 0 36961.3 1267.61 11
0 2 1 441529 4885.43 2
0 2 1 428199 3348.53 9
0 2 2 5898.3 515.277 12
0 2 -2 6503.47 936.967 17
0 2 -2 5887.75 963.92 10
0 2 2 5968.05 819.261 7
0 2 3 152240 4462.85 25
0 2 3 143102 3309.38 12
0 2 3 153894 4449.64 7
0 2 -3 135012 4527.69 10
0 2 -3 133732 4344.85 17
0 2 -4 17138.6 982.989 32
0 2 -4 16985.3 1818.7 10
0 2 4 17183.3 1754.79 7
0 2 4 17111.4 1798.41 25
0 2 -4 14914.7 1677.73 17
0 2 5 9911.71 1568.86 7
0 2 -5 9132.21 837.245 32
0 2 -5 7832.65 1428.92 10
0 2 6 14358.4 993.019 41
0 2 -6 12362.2 1060.79 47
0 2 6 12772.2 1969.58 7
0 2 -6 13693.5 1133.85 32
0 2 6 15848.4 1805.78 16
0 2 -6 12511.9 1899.17 10
0 2 -7 7226.64 965.246 32
0 2 7 7201.8 825.833 52
0 2 7 7855.13 757.527 35
0 2 -7 8105.72 972.376 47
0 2 -7 7081.08 840.425 58
0 2 7 7298.79 698.14 31
0 2 7 7211.36 810.886 41
0 2 8 18990.9 2799.89 2
0 2 8 23335.7 1438.91 41
0 2 8 22728.2 1282.27 35
0 2 -8 22835.2 1677.11 32
0 2 -8 22298.3 1454.18 58
0 2 -8 22983.3 1643.42 47
0 2 8 23969.3 1318.27 31
0 2 9 10764.5 887.119 40
0 2 9 10537.3 857.98 31
0 2 9 10234.9 932.695 41
0 2 -9 10081.5 1117.28 47
0 2 -10 5900.57 820.172 47
0 2 10 5879.44 595.878 40
0 2 10 5370.41 601.771 41
0 2 11 2849.45 331.734 41
0 2 -11 3583.13 502.634 47
0 2 11 3252.86 342.105 40
0 3 0 -96.1215 217.842 5
0 3 0 255.194 255.79 11
0 3 0 53.8892 385.522 10
0 3 1 124269 3521.19 10
0 3 -1 132452 4299.97 10
0 3 1 123453 2342.55 9
0 3 -2 33119.8 2394.75 10
0 3 2 30779.1 1824.73 2
0 3 2 31339.5 1101.86 9
0 3 3 28879.7 2096.16 2
0 3 -3 26495.2 2376.57 10
0 3 3 28339.9 2125.63 7
0 3 -4 15557.5 1982.35 10
0 3 4 16904.9 1803.84 7
0 3 4 14136.4 1706.34 2
0 3 5 23910.5 2554.73 2
0 3 5 24369.2 2530.21 7
0 3 5 24650.8 1001.88 31
0 3 -5 25029.9 2736.51 10
0 3 -6 -643.768 413.257 58
0 3 6 -378.59 341.458 35
0 3 6 460.317 796.013 2
0 3 -6 262.147 347.435 47
0 3 6 166.372 225.056 31
0 3 6 5.23347 255.136 37
0 3 6 75.6219 230.775 41
0 3 -6 689.528 667.002 10
0 3 6 1036.61 667.837 7
0 3 6 823.598 366.507 52
0 3 7 43114.2 1873.82 41
0 3 -7 39773.4 1975.99 58
0 3 7 42263.5 1836.04 35
0 3 -7 42424.5 2214.94 47
0 3 7 39835.6 3864.33 2
0 3 7 42850.7 1606.18 31
0 3 7 45603.4 1964.8 52
0 3 -8 29626 1749.08 58
0 3 8 32078.9 1417.3 31
0 3 8 30002.5 1435.42 40
0 3 8 31854.6 1671.3 41
0 3 -8 31431.1 1937.7 47
0 3 8 31573.4 1572.52 35
0 3 9 9286.93 778.429 35
0 3 9 9817.59 799.802 40
0 3 9 10802.7 943.249 41
0 3 -9 10504 1162.12 47
0 3 10 1167.77 331.701 41
0 3 10 1550.05 305.25 40
0 3 -10 1841.56 490.243 47
0 3 11 769.234 192.009 41
0 3 -11 658.867 260.247 47
0 4 0 63714.7 3243.14 10
0 4 0 61653.3 2114.55 5
0 4 0 58073.3 2190.53 11
0 4 -1 107858 4556.63 10
0 4 1 100814 2416.07 11
0 4 1 108895 3862.98 10
0 4 2 22435.9 1679.38 2
0 4 2 21691.7 1575.89 10
0 4 -2 22831.5 2279.85 10
0 4 3 104708 4122.55 2
0 4 -3 99453.6 5082.03 10
0 4 -4 26964.8 2879.61 10
0 4 4 27502.7 2502.24 2
0 4 5 24427.4 1322.75 35
0 4 -5 24911.4 1532.4 47
0 4 -5 22287.9 1418.54 58
0 4 5 26925.5 1326.56 41
0 4 -5 26037.4 3065.78 10
0 4 5 27132.8 1384.03 52
0 4 5 27961.2 1368.45 37
0 4 5 25255.7 2659.07 2
0 4 6 14479.5 1051.29 37
0 4 -6 11848.9 1129.43 58
0 4 6 11954.1 2067.9 2
0 4 6 13250.1 1053.72 35
0 4 -6 16299.9 2637.01 10
0 4 6 12890.9 984.004 41
0 4 6 14606.8 1107.92 52
0 4 -6 14274.2 1282.54 47
0 4 -7 13944.8 2419.31 10
0 4 -7 15959.7 1433.29 47
0 4 7 15771.7 1180.01 35
0 4 7 16741.2 2505.19 2
0 4 7 16088.3 1136.54 37
0 4 7 14704.5 1119.08 41
0 4 -7 14821.5 1280.57 58
0 4 -8 39293.5 2190.64 47
0 4 8 40963.1 1519.89 40
0 4 8 38711.7 1775.89 35
0 4 8 40736.2 1824.13 41
0 4 -9 2968.82 694.816 47
0 4 9 3239.44 411.841 40
0 4 9 2884.51 502.88 41
0 4 9 2531.93 441.839 35
0 4 10 5632.04 545.891 41
0 4 -10 6055.99 704.514 47
0 5 0 -113.185 502.967 10
0 5 -1 13652.2 1895.63 10
0 5 1 14687.9 1635.31 10
0 5 2 2998.66 423.784 35
0 5 -2 3450.96 1064.04 10
0 5 2 2018.64 557.403 10
0 5 3 25875.1 1254.86 35
0 5 -3 25130.9 2864.94 10
0 5 4 10525.1 899.944 35
0 5 -4 12421.6 1034.24 43
0 5 4 11893.9 897.918 53
0 5 -4 10514.1 894.563 51
0 5 4 12122.7 912.138 52
0 5 -4 12591.3 2204.41 10
0 5 -4 11076.8 1050.34 47
0 5 -5 2253.28 524.372 47
0 5 5 1548.03 430.107 35
0 5 5 1413.84 308.135 53
0 5 -5 1631.47 349.751 43
0 5 5 1508.66 376.316 41
0 5 5 1099.72 377.469 37
0 5 -5 950.615 798.426 10
0 5 6 2256.15 482.965 37
0 5 -6 2289.42 482.143 43
0 5 -6 1468.63 606.707 47
0 5 -6 768.917 650.889 10
0 5 6 1749.8 455.226 35
0 5 6 1585.21 393.301 41
0 5 7 29149.9 1520.41 37
0 5 7 29035.3 1595.43 35
0 5 -7 28185.2 1896.82 47
0 5 7 28159.8 1493.81 41
0 5 8 220.603 284.347 41
0 5 -8 115.663 483.888 47
0 5 8 413.616 278.617 35
0 5 9 6442.4 647.056 41
0 5 9 5753.7 595.897 35
0 5 -9 5598.81 773.527 47
0 5 10 2079.19 305.115 41
0 5 -10 1446.36 363.819 47
0 6 0 112272 5548.93 10
0 6 1 51546.9 1898.08 53
0 6 -1 53011.9 2045 43
0 6 1 53864.6 2010.23 38
0 6 1 54526.3 3545.97 10
0 6 -1 50465.7 3956.75 10
0 6 2 26833.9 1280.06 35
0 6 2 27884 1414.03 53
0 6 -2 26943.3 1599.66 47
0 6 -2 28566.8 1546.35 38
0 6 -2 26421.8 3024.13 10
0 6 -2 27843.4 1533.29 43
0 6 2 29190.5 1469.94 38
0 6 3 6878.34 730.281 53
0 6 -3 7007.86 928.64 47
0 6 3 6220.75 691.26 35
0 6 -3 6674.88 799.088 43
0 6 -3 7317.87 1653.87 10
0 6 -4 2015.06 629.662 47
0 6 4 2322.62 490.958 35
0 6 4 2093.42 441.926 53
0 6 -4 1237.09 683.042 10
0 6 -4 2235.14 516.416 43
0 6 5 16162.5 1193.81 37
0 6 5 17436.5 1105.43 41
0 6 5 16985.2 1200.94 35
0 6 -5 16027.4 1448.42 47
0 6 -5 16950.4 1301.33 43
0 6 5 18207.4 1200.64 53
0 6 6 8804.85 898.245 37
0 6 -6 9066.57 922.207 43
0 6 6 8826.08 922.527 35
0 6 -6 8964.01 1158.48 47
0 6 6 9396.18 829.662 41
0 6 7 9492.32 825.634 41
0 6 7 8528.28 873.758 35
0 6 -7 9965.65 1162.88 47
0 6 7 9671.18 877.206 37
0 6 8 4403.93 540.983 41
0 6 8 4400.59 577.51 35
0 6 -8 4094.69 735.136 47
0 6 9 1160.56 250.411 41
0 6 -9 1242.12 386.072 47
0 6 9 714.925 199.035 35
0 7 0 -483.926 356.853 38
0 7 0 -151.589 252.439 53
0 7 0 582.18 675.123 10
0 7 -1 734.021 313.111 53
0 7 -1 480.084 380.97 38
0 7 -1 603.901 406.18 47
0 7 1 480.727 285.529 53
0 7 1 318.663 337.197 38
0 7 -1 -631.35 595.139 10
0 7 2 18626.7 1261.93 53
0 7 -2 18466.4 1330.99 38
0 7 2 17847.8 1270.62 38
0 7 2 17758.3 1101.28 35
0 7 -2 17256 1359.08 47
0 7 -2 16271 1057.24 53
0 7 -2 15071.8 2497.41 10
0 7 -3 7352.48 999.57 47
0 7 3 7659.72 843.658 53
0 7 -3 7271.77 863.405 38
0 7 -3 7539.11 904.926 43
0 7 -3 6704.45 1725.27 10
0 7 3 7052.84 771.226 35
0 7 4 10650.4 950.057 35
0 7 -4 10221.1 1004.93 43
0 7 -4 9729.15 983.015 38
0 7 -4 9242.65 1126.01 47
0 7 4 10150.7 954.274 53
0 7 5 33996.5 1639.31 53
0 7 5 31793.6 1682.16 37
0 7 -5 36019 1790.59 38
0 7 5 33496.7 1668.45 35
0 7 -5 30826.9 1944.44 47
0 7 6 35683.4 1667.45 37
0 7 -6 34846 2023.89 47
0 7 6 33950.9 1650.92 35
0 7 6 32127.3 1454.63 53
0 7 6 34956.7 1447.71 41
0 7 -6 30475.8 1561.63 38
0 7 7 578.171 286.751 35
0 7 7 695.83 338.649 37
0 7 7 370.656 189.837 41
0 7 -7 190.445 390.2 47
0 7 8 2316.8 319.144 41
0 7 -8 1868.04 425.715 47
0 7 8 3007.05 447.303 35
0 8 0 5491.39 717.05 53
0 8 0 5906.38 797.95 38
0 8 -1 3021.29 618.838 38
0 8 1 2225.26 535.261 53
0 8 1 2065.59 532.259 38
0 8 -1 3054.63 583.243 53
0 8 -2 57250.4 2349.87 38
0 8 -2 60730 2051.03 53
0 8 2 60489.4 2290.89 53
0 8 2 62800.1 2261.46 49
0 8 -2 55673.6 2454.31 47
0 8 3 2777.68 470.851 35
0 8 -3 4765.08 721.558 38
0 8 3 4236.99 661.331 53
0 8 -3 4238.4 801.321 47
0 8 4 3258.67 520.88 35
0 8 -4 3864.35 632.402 38
0 8 -4 4057.55 788.946 47
0 8 4 3137.62 574.428 53
0 8 5 6163.85 740.899 37
0 8 -5 6484.53 707.858 38
0 8 -5 6647.03 735.682 49
0 8 -5 5455.1 815.684 47
0 8 5 6538.7 702.708 53
0 8 5 6661.6 702.817 35
0 8 -6 7199.02 857.675 47
0 8 6 6724.87 672.203 37
0 8 6 7671.45 707.676 35
0 8 7 2053.98 343.066 35
0 8 -7 2082.56 439.138 47
0 9 0 336.987 389.861 38
0 9 0 11.252 296.48 53
0 9 0 -43.6375 341.01 49
0 9 -1 13234.8 1093.41 38
0 9 -1 14672.1 1051.17 53
0 9 1 15869.1 1156.06 49
0 9 1 16216.6 1165.19 53
0 9 -2 1147.58 490.52 49
0 9 2 510.269 205.197 49
0 9 -2 662.55 392.893 38
0 9 2 653.26 360.393 53
0 9 3 9252.55 863.731 53
0 9 -3 9337.45 864.065 38
0 9 -3 10681.5 972.926 49
0 9 -4 2069.56 457.288 49
0 9 -4 1582.47 371.319 38
0 9 4 1379.46 391.369 37
0 9 4 2201.59 432.521 53
0 9 -5 6832.08 629.219 49
0 9 -5 5155.82 503.473 38
0 9 -5 6801.92 746.558 47
0 9 5 7205.84 661.227 37
0 9 6 2978.37 367.126 37
0 10 0 8271.85 731.96 49
0 10 -1 5188.32 618.828 49
0 10 1 5861.69 586.491 49
0 10 -2 18903.6 1101.64 49
0 10 3 12213.8 819.002 37
0 10 -3 12666 863.053 49
0 10 4 10293.6 680.868 37
0 10 -4 9815.46 667.144 49
0 10 5 203.851 154.112 37
0 11 -1 2097.16 279.029 49
0 11 1 2181.31 296.66 37
0 11 2 5132.81 407.725 37
0 11 -2 5688.59 425.984 49
-1 -11 -1 11264.8 820.187 54
1 -10 -4 542.806 192.683 39
1 -10 -4 737.437 247.487 54
1 -10 -3 6301.89 661.171 54
1 -10 -3 4873.77 533.49 39
1 -10 -2 5213.48 677.699 33
-1 -10 2 5800.49 920.791 33
1 -10 -2 4169.23 621.179 54
1 -10 -2 4168.83 551.116 39
1 -10 -2 4104.52 556.23 34
1 -10 -1 24090.8 1438.03 33
1 -10 -1 24537.2 1338.72 39
-1 -10 1 27086.1 1753.99 33
1 -10 0 1414.25 444.505 33
-1 -10 0 1852.81 556.096 33
1 -10 0 1696.48 483.098 39
1 -10 1 556.409 382.643 33
1 -10 1 482.952 416.565 39
-1 -10 -1 406.467 390.27 33
-1 -10 -1 578.888 377.909 34
-1 -10 -2 4714.6 661.367 33
-1 -10 -2 5932.41 766.039 34
-1 -10 -2 5735.38 792.391 54
1 -10 2 4879.66 691.231 39
-1 -10 -3 1821.83 446.633 34
-1 -10 -3 1537.86 505.644 54
-1 -10 -4 950.327 351.033 54
1 -9 -5 903.498 311.439 39
1 -9 -5 1479.77 417.34 54
1 -9 -4 917.313 422.447 54
1 -9 -4 1383.46 387.543 34
1 -9 -4 557.071 336.003 39
-1 -9 3 10340.2 2561.41 23
1 -9 -3 11573.4 1080.23 33
1 -9 -3 10513.4 1002.97 54
1 -9 -3 9903.79 913.798 34
1 -9 -3 10717.5 953.593 39
-1 -9 2 3996.18 1509.87 21
-1 -9 2 5766.78 1887.02 23
1 -9 -2 5131.03 801.461 33
1 -9 -2 5436.52 742.228 39
-1 -9 1 1699.7 1136.05 23
1 -9 -1 380.614 400.194 39
-1 -9 1 1534.24 953.455 21
1 -9 -1 1421.04 570.007 33
1 -9 0 13662.4 1309.03 33
1 -9 0 12467.1 1203.12 39
1 -9 0 15080.3 2679.9 23
-1 -9 0 14839.1 1419.29 33
-1 -9 0 9607.42 2231.74 23
1 -9 1 -1137.19 978.649 23
1 -9 1 -2452.02 1261.34 21
-1 -9 -1 923.823 542.089 33
-1 -9 -2 7911.01 990.59 33
1 -9 2 7297.32 2094.53 21
1 -9 2 4826.05 1759.97 23
-1 -9 -3 2431.9 599.922 34
-1 -9 -3 2197.36 586.523 33
1 -9 3 1320.93 432.35 57
-1 -9 -3 1625.16 634.675 54
-1 -9 -4 9298.12 1003.16 54
-1 -9 -4 8919.31 901.637 34
-1 -9 -5 17716.6 1207.68 54
-1 -9 -6 1007.91 333.997 54
1 -8 -7 2409.5 442.636 59
1 -8 -7 2309.53 362.592 54
1 -8 -6 916.484 364.094 39
1 -8 -6 968.841 382.948 54
1 -8 -5 1679.47 790.032 22
1 -8 -5 2425.12 558.145 54
1 -8 -5 2125.41 488.111 39
-1 -8 4 12011.7 2618.67 21
-1 -8 4 10593.6 2078.33 19
1 -8 -4 11259 1001.55 34
1 -8 -4 13164 1174.95 54
1 -8 -4 11905.1 1041.27 39
1 -8 -3 84607.9 2799.65 39
-1 -8 3 90097.6 7611.1 21
1 -8 -3 84588.7 3005.15 33
-1 -8 3 84414.8 7226.36 19
-1 -8 2 18078 3421.55 23
-1 -8 2 18510 3307 19
1 -8 -2 19838.9 1526.59 33
-1 -8 2 17798.5 3109.22 21
1 -8 -2 18883.4 1416.25 39
-1 -8 1 6609.18 1886.81 21
1 -8 -1 8837.98 2095.27 23
1 -8 -1 8245.04 1045.08 39
-1 -8 1 4744.43 1708.63 23
1 -8 0 1060.96 821.054 23
1 -8 0 5494.59 1663.69 21
-1 -8 0 2625.82 1398.19 23
-1 -8 0 5370.61 1656.84 21
1 -8 1 1682.74 1171.13 19
1 -8 1 3852.29 1513.41 21
1 -8 1 2812.72 628.072 57
-1 -8 -1 4606.84 907.273 33
-1 -8 -1 1708.57 1323.19 23
1 -8 1 3029.46 1425.39 23
-1 -8 -2 33581.9 3912.96 18
1 -8 2 28292.1 3963.23 21
1 -8 2 27376 3815.91 19
-1 -8 -2 31350.8 1968.4 33
1 -8 2 33330.4 4310.97 23
1 -8 3 45536 4938.64 21
-1 -8 -3 47224.1 2279.36 34
-1 -8 -3 48037.3 2323.81 33
1 -8 3 44671.3 5123.49 19
1 -8 4 8315.42 804.21 46
1 -8 4 10164.1 2380.16 21
-1 -8 -4 7984.51 964.87 34
1 -8 4 7711.04 2103.67 19
-1 -8 -4 8263.11 1085.4 54
-1 -8 -5 36713 1839.19 34
1 -8 5 36670.5 1592.31 46
-1 -8 -5 37791.5 1982.64 54
1 -8 6 334.416 280.065 46
-1 -8 -6 645.684 424.048 54
-1 -8 -7 8598.2 766.413 54
1 -8 7 5678.06 561.834 46
1 -7 -8 5833.47 568.032 59
1 -7 -8 5754.54 554.045 54
1 -7 -7 18564.4 1181.22 54
1 -7 -6 5433.5 717.215 39
-1 -7 6 6303.47 2177.56 19
1 -7 -6 9281.83 2098.72 22
1 -7 -6 5047.62 762.275 54
1 -7 -5 1104.33 534.138 54
1 -7 -5 1688.39 1176.81 22
1 -7 -5 2011.27 511.32 39
1 -7 -5 779.963 396.178 34
1 -7 -4 43541.6 1965.74 39
-1 -7 4 37756.3 4938.99 15
-1 -7 4 45322.1 5423.26 19
1 -7 -4 38268.3 1974.45 54
1 -7 -4 42397.4 2125.65 33
1 -7 -4 39694.1 1888.53 34
1 -7 -3 -84.6935 419.303 39
-1 -7 3 2618.97 1653.13 19
1 -7 -3 1059.48 1030.11 4
-1 -7 3 134.942 1003.7 15
1 -7 -3 -127.126 474.153 33
1 -7 -2 9728.93 1087.43 33
-1 -7 2 6437.39 1841.54 21
1 -7 -2 6860.13 1718.39 23
-1 -7 2 9004.94 2236.25 15
1 -7 -2 8173.83 944.298 39
-1 -7 2 7983.52 2102.08 4
-1 -7 2 9102.84 2092.17 19
1 -7 -2 11494.3 2459.41 4
-1 -7 1 11784.5 2526.18 23
1 -7 -1 11969.1 2373.78 23
-1 -7 1 10877.3 2259.15 21
-1 -7 1 14553.8 2679.11 19
-1 -7 1 10102.8 2125.41 15
-1 -7 1 14115.6 2787.68 4
1 -7 -1 12570 2604.71 4
1 -7 -1 10778.5 2271.71 21
1 -7 0 4740.68 678.093 57
-1 -7 0 7915.13 2171.49 23
-1 -7 0 8880.84 2098.42 4
-1 -7 0 8977.32 2181.48 21
1 -7 0 7746.03 1840.64 23
1 -7 0 8653.25 2003.83 21
1 -7 0 7283.63 2023.23 4
1 -7 0 6334.81 1656.33 19
-1 -7 -1 6646.46 1874.3 4
-1 -7 -1 4047.04 1601.13 23
1 -7 1 4587.36 1670.57 21
1 -7 1 3633.52 1394.68 19
-1 -7 -1 4371.57 1423.33 21
-1 -7 -2 11674.1 1193.97 33
-1 -7 -2 10653 1998.02 1
1 -7 2 9645.48 2324.07 19
1 -7 2 8710.7 1938.71 15
-1 -7 -2 13104.9 2469.2 4
1 -7 3 -589.794 1055.7 19
1 -7 3 180.334 482.843 15
-1 -7 -3 144.98 543.918 33
-1 -7 -3 207.795 800.432 18
-1 -7 -3 740.453 631.246 4
1 -7 4 6206.96 2107.8 19
-1 -7 -4 6146.13 905.904 34
-1 -7 -4 6483.45 829.532 26
-1 -7 -4 5142.22 913.487 54
-1 -7 -4 4716.33 646.873 39
-1 -7 -4 5651.88 928.422 33
-1 -7 -5 7189.74 1732.12 22
-1 -7 -5 7398.31 1021.83 54
-1 -7 -5 6419.29 731.413 39
-1 -7 -5 7097.54 960.68 34
-1 -7 -6 16655.7 2682.21 22
-1 -7 -6 17495.4 1427.5 54
-1 -7 -7 17055.8 1257.65 54
-1 -7 -8 8982.25 768.796 54
1 -6 -9 4610.48 489.468 54
1 -6 -9 3891.24 438.341 59
-1 -6 9 3864.23 401.832 48
1 -6 -8 10194.6 843.812 59
-1 -6 8 9814.22 872.81 28
1 -6 -8 11610 930.571 54
1 -6 -7 2645.1 597.817 54
1 -6 -7 4304.84 1373 22
-1 -6 7 2490.27 511.029 28
1 -6 -6 22496 1556.83 54
1 -6 -6 23203.3 1445.15 39
-1 -6 6 24195.6 1449.28 28
-1 -6 6 26014.9 3641.19 14
1 -6 -6 25442.9 3404.79 22
-1 -6 6 24921 2991.46 16
1 -6 -5 26198.7 1505 34
1 -6 -5 26163.5 1542.39 39
-1 -6 5 29497.7 1510.69 28
-1 -6 5 27302.4 3657.77 14
1 -6 -5 25877.7 1644.31 54
-1 -6 4 1340.76 670.142 14
1 -6 -4 5255.32 828.57 33
1 -6 -4 2556.32 1030.37 4
1 -6 -4 4638.27 683.271 34
1 -6 -4 5070.44 724.256 39
-1 -6 3 424.127 844.625 15
1 -6 -3 382.278 732.076 4
1 -6 -3 964.027 409.551 39
-1 -6 3 215.707 729.378 4
-1 -6 3 1367.92 1085.37 14
1 -6 -3 1091.77 539.368 33
1 -6 -2 9164.13 916.917 39
1 -6 -2 8745.25 1852.15 23
-1 -6 2 7831.17 1895.45 19
-1 -6 2 8798.44 1863.24 4
1 -6 -2 6800.47 1645.47 4
-1 -6 2 6853.51 1783.89 15
1 -6 -1 361.293 896.862 23
1 -6 -1 -1211.53 1101.49 21
-1 -6 1 -265.196 882.654 19
-1 -6 1 626.549 1002.6 4
-1 -6 1 330.288 658.385 15
1 -6 -1 -883.963 1125.38 4
1 -6 0 33852.4 3393.44 21
1 -6 0 37412.2 3897.13 4
-1 -6 0 33006.5 3670.6 4
1 -6 0 31337.3 3333.28 23
-1 -6 0 27637.5 3019.83 19
-1 -6 0 30100.2 3346.46 23
-1 -6 0 33187 3393.86 21
1 -6 0 30560.9 3342.53 19
1 -6 1 25251.3 2906.3 15
1 -6 1 29137.7 3631.22 4
1 -6 1 25479.8 3220.65 19
-1 -6 -1 27782.5 3200.59 23
-1 -6 -1 27675.6 3146.92 21
-1 -6 -1 27988 3423.18 4
1 -6 2 27954.9 3276.88 15
-1 -6 -2 38018.2 3959.68 4
-1 -6 -2 34180.6 3393.3 6
-1 -6 -2 32148.5 1788.77 33
1 -6 2 28092.5 3440.54 19
-1 -6 -2 29650.6 3256.78 23
-1 -6 -3 5221.01 1552.43 4
1 -6 3 5287.01 583.826 28
1 -6 3 7182.7 1711.82 15
-1 -6 -3 6323.62 1498.22 6
-1 -6 -3 4155.51 1349.16 18
-1 -6 -3 6007.2 856.528 33
-1 -6 -4 18559.5 1430.96 34
-1 -6 -4 19987.3 1498.2 33
1 -6 4 18829.3 1181.43 28
-1 -6 -4 19582.5 2954.81 4
-1 -6 -4 19084.2 1238.07 39
-1 -6 -4 16886.2 2711.02 6
1 -6 4 19329.6 2802.76 8
-1 -6 -4 18777.9 1300.72 26
-1 -6 -5 19769.5 2966.95 22
-1 -6 -5 22377.5 1343.11 39
-1 -6 -5 21222.1 1575.83 54
-1 -6 -5 20934.5 1511.61 34
1 -6 5 22820.6 1369.44 28
-1 -6 -5 21834.6 1459.18 26
-1 -6 -6 12621.8 1268.42 54
-1 -6 -6 12002.5 1108.8 58
-1 -6 -6 15453 2565.72 22
1 -6 6 12814.8 1076.88 28
1 -6 7 8968.92 898.037 28
1 -6 7 9411.13 772.367 48
-1 -6 -7 9525.82 1096.12 54
1 -6 8 5584.17 553.623 48
1 -6 8 5094.65 648.664 28
-1 -6 -8 5569.51 756.679 54
1 -6 9 1790.18 289.32 48
-1 -6 -9 1787.31 371.117 54
-1 -5 10 305.745 182.321 48
-1 -5 9 397.302 266.943 28
1 -5 -9 413.368 279.649 32
1 -5 -9 199.1 262.769 59
1 -5 -9 134.514 257.542 54
1 -5 -8 11499 2192.08 22
1 -5 -8 8100.76 839.22 59
-1 -5 8 10731.2 1015.94 28
1 -5 -8 9242.94 913.575 54
-1 -5 7 11441.4 2422.91 14
-1 -5 7 12650.8 1130.68 28
1 -5 -7 13053.3 1177.77 54
-1 -5 7 12829 2207.05 16
1 -5 -7 15002.2 2497.73 22
1 -5 -6 21574.3 1234.36 56
-1 -5 6 21566.1 2855.09 16
1 -5 -6 20003.6 2870.1 22
-1 -5 6 17885.8 2827.62 14
1 -5 -6 19708.8 1351.87 39
1 -5 -6 19472.4 1424.04 54
1 -5 -5 75699 2512.45 39
1 -5 -5 67416.1 5094.58 22
1 -5 -5 69954.2 2326.55 34
-1 -5 5 73887.2 5693.83 14
1 -5 -5 72491.4 2129.7 56
-1 -5 5 80682.3 5038.34 16
1 -5 -5 69374 2518.98 54
1 -5 -4 378.596 415.515 33
1 -5 -4 -275.591 628.968 4
-1 -5 4 1003.67 581.6 16
1 -5 -4 733.177 336.679 34
-1 -5 4 354.447 776.911 14
1 -5 -4 1357.31 431.4 39
1 -5 -3 41550.8 1849.25 33
-1 -5 3 46456.7 3808.89 14
1 -5 -3 46917.1 3763.18 4
-1 -5 3 44926.6 3675.21 4
-1 -5 3 49072.9 3166.05 16
1 -5 -2 4451.2 1255.93 4
-1 -5 2 6101.65 1343.93 14
1 -5 -2 4753.49 1394.73 23
-1 -5 2 4714.55 1231.98 4
1 -5 -1 38241.1 3250.87 23
-1 -5 1 32366.9 3027.14 15
1 -5 -1 35055.8 3145.09 19
-1 -5 1 36181.7 3249.87 4
1 -5 -1 37823.6 3493.01 4
-1 -5 1 31962.8 2900.73 19
1 -5 -1 37777.1 3206.16 21
1 -5 0 62636.5 4057.17 21
1 -5 0 67020.5 4251.52 19
-1 -5 0 59436.7 3983.2 21
-1 -5 0 65880.4 3452.72 6
1 -5 0 62873.8 3943.49 15
-1 -5 0 63546.1 4063.53 15
-1 -5 0 63486.2 4439.14 4
-1 -5 0 62627.8 3953.48 19
1 -5 0 66583.6 4684.24 4
1 -5 1 78912.3 4492.91 15
-1 -5 -1 75918 4201.46 6
-1 -5 -1 75747.1 4562.08 23
-1 -5 -1 74244.8 4466.8 21
1 -5 1 80868.8 5174 4
1 -5 1 78481.5 4690.75 19
1 -5 2 42575.1 1399.64 28
-1 -5 -2 48031.5 3685.14 6
1 -5 2 44574.1 3612.29 15
-1 -5 -2 43166.1 3474.47 23
-1 -5 -2 44467.4 1850.83 33
-1 -5 -3 10097.7 982.145 33
1 -5 3 8300.24 1840.63 14
-1 -5 -3 9026.16 1632.35 18
1 -5 3 8313.22 716.249 28
-1 -5 -3 9309.02 1506.84 1
-1 -5 -3 9573.99 1856.06 6
-1 -5 -4 3271.39 635.359 34
1 -5 4 1908.59 965.18 8
1 -5 4 2990.1 574.051 28
1 -5 4 4013.72 1089.91 16
-1 -5 -4 3903.14 1348.46 6
-1 -5 -4 3712.87 604.164 26
-1 -5 -4 3965.59 720.748 33
-1 -5 -4 2526.06 925.795 18
1 -5 4 2726.39 1281.42 14
-1 -5 -5 44035.5 4205.27 4
-1 -5 -5 37577.5 1830.23 26
-1 -5 -5 35712.8 1653.32 39
1 -5 5 35570.9 3412.81 16
1 -5 5 33508.5 3601.41 14
1 -5 5 32421.8 1630.77 28
-1 -5 -5 36226.8 3979.02 6
-1 -5 -5 36411.8 3839.57 22
-1 -5 -5 34831.9 1854.57 34
-1 -5 -5 35771.9 1898.76 54
1 -5 6 2013.93 552.07 28
-1 -5 -6 2332.83 1419.49 22
-1 -5 -6 2818.37 779.723 54
1 -5 6 2587.2 1155.11 14
1 -5 6 2680.32 1073.74 16
-1 -5 -6 1827.48 538.013 58
-1 -5 -7 733.021 521.492 54
1 -5 7 1452.64 486.992 28
1 -5 7 -128.688 734.369 16
-1 -5 -7 1403.14 811.921 22
-1 -5 -8 1888.83 617.453 54
1 -5 8 1838.37 501.583 28
1 -5 8 2263.02 461.36 48
-1 -5 -9 6680.36 779.563 54
-1 -5 -9 6331.57 710.585 32
1 -5 9 5853 591.94 48
-1 -5 -10 1417.72 310.016 54
1 -5 10 1205.7 230.876 48
1 -4 -9 6092.16 671.486 59
-1 -4 9 5836.77 762.453 28
1 -4 -9 5545.93 697.213 32
1 -4 -9 6037.25 741.274 54
-1 -4 9 5439.38 616.937 31
-1 -4 9 4612.17 516.03 40
1 -4 -8 13070.3 1073.04 59
1 -4 -8 13595.9 1155 54
-1 -4 8 13062.5 1019.31 31
1 -4 -8 13219.8 2294.69 22
-1 -4 8 16268.6 2588.05 16
-1 -4 7 7652.52 1853.19 16
1 -4 -7 5673.87 791.841 54
1 -4 -7 4673.52 1595.06 22
-1 -4 7 1989.88 780.78 14
1 -4 -6 25905.2 3283.7 22
1 -4 -6 26120.8 1548.39 39
-1 -4 6 27814 3197.5 16
1 -4 -6 23421.3 1500.78 54
1 -4 -6 25487 1341.7 56
1 -4 -5 22615.2 1189.64 56
1 -4 -5 22036.5 1354.74 54
1 -4 -5 24703.5 2999.18 22
1 -4 -5 24275.9 1385.12 39
1 -4 -5 22156.1 1229.67 34
-1 -4 5 23101.3 2608.28 12
-1 -4 5 22912.9 2670.21 16
-1 -4 4 33286.2 2735.98 12
1 -4 -4 36187.3 2930.29 4
1 -4 -4 32719.8 1379.39 34
-1 -4 4 32777.1 2812.66 16
1 -4 -4 32190.9 1550.06 33
1 -4 -3 51662.4 1790.08 33
-1 -4 3 47743 2929.92 16
-1 -4 3 51349.2 2983 12
-1 -4 3 49185.9 3214.32 4
1 -4 -3 51416.8 3383.57 4
-1 -4 2 7433.07 1063.66 16
-1 -4 2 6221.59 961.876 12
-1 -4 2 5684.17 1207.89 14
-1 -4 2 7132.9 1298.15 4
1 -4 -2 5331.98 1198.01 23
1 -4 -2 5265.98 1168.09 4
1 -4 -1 122927 5219.86 4
1 -4 -1 117941 4895.26 19
-1 -4 1 116833 3020.58 12
-1 -4 1 115693 4945.01 4
1 -4 -1 114016 4923.58 23
-1 -4 1 116557 4806.8 15
-1 -4 1 115279 4283.71 14
1 -4 -1 112254 4768.27 21
1 -4 0 164331 5481.75 15
-1 -4 0 150780 5204.98 19
-1 -4 0 160532 5503.1 15
1 -4 0 161882 5624.88 19
1 -4 0 153645 6094.08 4
1 -4 1 27032.1 2318.09 15
1 -4 1 27001.1 2689.21 4
-1 -4 -1 25153 2325.32 21
1 -4 1 23827 860.694 28
-1 -4 -1 25560.2 2365.6 23
1 -4 2 14515.6 2048.11 14
1 -4 2 16161.1 795.316 28
-1 -4 -2 16728.4 2017.03 6
-1 -4 -2 19305.8 1108.7 33
-1 -4 -2 15901.4 1960.79 23
1 -4 2 15855.7 1589.35 16
1 -4 3 9324.01 1441.67 16
-1 -4 -3 10507.3 1830.55 6
-1 -4 -3 9281.89 829.314 33
-1 -4 -3 8911.99 1516.58 18
1 -4 3 10897.2 1796.01 14
-1 -4 -3 7551.72 1299.62 1
1 -4 3 7803.26 660.861 28
-1 -4 -4 11424.6 1033.19 33
-1 -4 -4 11415.8 927.003 26
1 -4 4 12037.1 1883.58 8
1 -4 4 11250.1 843.386 28
-1 -4 -4 12463.9 996.98 34
1 -4 4 11470.3 1997.81 14
-1 -4 -4 10223.7 1626.93 18
-1 -4 -4 12137.9 2049.06 6
1 -4 4 9117.91 1534.45 16
-1 -4 -5 2584.05 1077.91 22
1 -4 5 2617.62 553.864 28
1 -4 5 1104.92 871.542 16
1 -4 5 3736.61 1342.69 14
-1 -4 -5 2697.98 640.625 54
-1 -4 -5 3086.53 1237.09 6
-1 -4 -5 2347.11 520.442 26
-1 -4 -5 2732.9 481.082 39
1 -4 5 2525.28 383.515 31
-1 -4 -5 2930.5 683.815 34
1 -4 6 8126.87 1873.03 14
-1 -4 -6 10105.4 1007.99 58
1 -4 6 10641.3 2061.53 16
1 -4 6 11085.8 835.297 31
1 -4 6 10145.5 1001.76 28
-1 -4 -6 12289.8 2400.25 22
-1 -4 -6 12191 1223.81 54
-1 -4 -7 8832.4 1095.17 54
1 -4 7 8883.34 2065.39 14
1 -4 7 9177.33 989.159 28
-1 -4 -7 9175.51 2181.15 22
1 -4 7 8396.59 1865.79 16
1 -4 7 8803.37 789.131 31
-1 -4 -7 8720.27 989.818 58
1 -4 8 2173.41 918.59 16
-1 -4 -8 1698.63 594.446 54
1 -4 8 2709.39 499.368 31
1 -4 8 2477.91 533.098 28
-1 -4 -8 2672.53 1119.57 22
-1 -4 -9 1244.86 511.159 54
1 -4 9 1052.99 378.498 48
-1 -4 -9 880.043 451.173 32
1 -4 9 1036.89 380.418 28
-1 -4 -10 3064.73 504.575 54
1 -4 10 2493.81 374.155 48
1 -3 -11 4082.42 405.693 47
-1 -3 10 7079.78 728.078 28
1 -3 -10 6046.08 674.979 32
-1 -3 10 4885.18 525.319 40
-1 -3 10 5536.47 582.03 31
1 -3 -9 198.622 379.142 54
1 -3 -9 -10.9886 310.745 59
-1 -3 9 15.7458 351.642 28
-1 -3 9 576.155 327.144 31
1 -3 -9 439.755 384.603 32
1 -3 -8 2819.75 654.578 32
1 -3 -8 2407.17 504.214 59
-1 -3 8 2882.89 1067.92 16
1 -3 -8 1944.28 554.552 54
1 -3 -7 69086.9 5276.03 22
1 -3 -7 62161.1 2264.78 59
1 -3 -7 61691.2 2422.09 54
-1 -3 7 63518.6 4988.36 16
-1 -3 6 3958.89 1263.86 16
1 -3 -6 4810.01 678.271 39
1 -3 -6 4429.28 1382.15 22
1 -3 -6 4318.29 651.341 54
-1 -3 6 2171.69 971.564 12
1 -3 -5 50285.5 3883.67 22
1 -3 -5 47521.9 1677.2 34
-1 -3 5 51141.4 3697.78 12
-1 -3 4 6999.18 1251.29 12
1 -3 -4 7724.96 1132.54 4
-1 -3 3 2038.28 642.414 12
-1 -3 3 1730.41 662.917 4
1 -3 -3 1404.98 609.845 4
-1 -3 2 35368.1 1450.83 3
-1 -3 2 39247 2352.49 4
1 -3 -2 34328.6 2344.11 23
1 -3 -2 35197.6 2342.26 4
1 -3 -1 106354 4132.45 4
-1 -3 1 102750 2776.34 3
1 -3 -1 116320 4076.48 23
1 -3 -1 110016 3898.38 21
-1 -3 1 100551 3565.39 14
1 -3 -1 103369 3953.84 19
-1 -3 0 130089 3597.07 3
1 -3 0 127994 4729.33 4
-1 -3 0 129427 4155.53 15
-1 -3 0 123595 3341.79 14
-1 -3 0 134601 4063.39 19
1 -3 0 133628 4167.05 15
1 -3 0 134430 4358.57 19
1 -3 1 48901.8 3060.45 4
-1 -3 -1 57727.7 2966 23
-1 -3 -1 55311 2870.3 21
1 -3 2 42199.2 1170.99 28
1 -3 2 45633.8 2792.69 14
-1 -3 -2 44902.5 2812.07 23
-1 -3 -2 47973.8 2608.93 1
1 -3 2 41252.7 2326.49 16
1 -3 3 7444.47 603.796 28
-1 -3 -3 7542.16 1119.66 1
1 -3 3 7334.21 1491.43 14
-1 -3 -3 8145.29 704.832 33
-1 -3 -3 6754.84 1313.9 6
1 -3 3 6556.46 1139.16 16
-1 -3 -3 7700.67 1315.71 18
-1 -3 -4 119536 5062.18 18
-1 -3 -4 106899 2572.62 26
1 -3 4 108871 4569.2 8
-1 -3 -4 117255 5619.49 6
1 -3 4 105474 2030.46 31
-1 -3 -4 121185 2830.06 34
1 -3 4 114342 4968.72 16
1 -3 4 106051 5365.23 14
1 -3 4 111558 2330.72 28
-1 -3 -5 50672.3 4037.45 6
1 -3 5 48545.4 3603.68 16
1 -3 5 46224.8 1721.6 28
-1 -3 -5 50956.5 2082.22 34
1 -3 5 46686.5 1541.29 31
-1 -3 -5 50141.9 1975.21 26
1 -3 5 45693.9 3734.05 14
-1 -3 -5 54470.2 4138.34 22
1 -3 6 6170.93 1655.13 16
1 -3 6 4777.94 578.556 31
-1 -3 -6 5427.06 794.561 54
-1 -3 -6 4515.27 1418.04 22
1 -3 6 6067.04 1661.43 14
1 -3 6 4269.12 661.891 28
-1 -3 -6 5968.75 1589.51 6
-1 -3 -6 5314.72 778.925 58
1 -3 7 24218.9 3076.52 16
-1 -3 -7 23774.9 1545.78 58
-1 -3 -7 30241.2 3643.15 22
1 -3 7 26807.3 1551.26 28
-1 -3 -7 26653.6 1759.91 54
1 -3 7 28249.5 3419.18 14
1 -3 7 25209.1 1357.38 31
1 -3 7 26364.7 1305.84 40
-1 -3 -8 6861.31 981.038 54
-1 -3 -8 7217.6 978.937 32
1 -3 8 6352.92 882.787 28
1 -3 8 5185.28 1742.08 14
1 -3 8 6213.3 688.645 40
1 -3 8 7374.33 1617.13 16
-1 -3 -8 6115.17 1696.04 22
1 -3 8 6268.26 742.069 31
-1 -3 -9 1023.49 503.932 32
1 -3 9 771.112 335.798 31
1 -3 9 712.452 273.622 40
1 -3 9 1291.84 434.176 28
-1 -3 -9 1113.2 584.71 54
-1 -3 -10 1596.8 482.673 54
1 -3 10 1051.64 342.34 48
1 -3 10 1268.22 261.13 40
-1 -3 -10 716.06 326.655 32
1 -3 11 1362.38 224.102 48
-1 -3 -11 1864.89 311.013 47
1 -2 -11 4007.27 474.427 47
-1 -2 11 4295.04 406.167 40
1 -2 -10 2583.73 544.626 47
1 -2 -10 2048.86 459.564 32
-1 -2 10 1611.66 377.946 31
-1 -2 10 2235.74 446.598 28
1 -2 -9 6467.93 751.169 59
1 -2 -9 6978.68 1831.97 22
-1 -2 9 9902 1934.51 16
-1 -2 9 6824.75 813.184 31
1 -2 -9 7768.2 920.856 32
1 -2 -9 8082.55 937.752 54
1 -2 -8 6961.65 878.542 54
1 -2 -8 8340.1 956.277 32
1 -2 -8 9276.11 2075.15 22
1 -2 -8 6353.22 772.452 59
-1 -2 8 9939.97 2111.44 16
1 -2 -7 30732.1 1560.77 59
-1 -2 7 35339 3570.86 12
1 -2 -7 32132.5 3517.42 22
-1 -2 7 33286.7 3454.41 16
-1 -2 7 27939.3 2845.94 25
1 -2 -7 32077 1722.47 54
1 -2 -6 9521.73 1866 22
-1 -2 6 11635.9 1931.42 12
-1 -2 6 12625.6 1780.85 25
1 -2 -5 16678.2 2114.14 22
-1 -2 5 13388.2 1705.87 25
-1 -2 5 16872.1 2069.54 12
1 -2 -4 29103.5 2441.01 22
-1 -2 4 26947.1 1985.42 13
-1 -2 4 29282.3 2359.37 12
1 -2 -4 28486.5 1689.39 4
1 -2 -3 39029.9 2000.5 4
-1 -2 3 37346.7 1768.35 4
-1 -2 2 1584.09 409.572 4
1 -2 -2 2412.52 576.224 4
1 -2 -1 777197 8660.88 19
-1 -2 1 763546 6614.86 3
1 -2 0 718294 7737.66 15
-1 -2 0 729974 6062.35 14
-1 -2 0 721914 7212.83 3
1 -2 0 701918 9074.21 4
-1 -2 0 748762 7943.58 15
1 -2 1 23915.8 1391.38 16
-1 -2 -1 26348.4 1670.76 21
-1 -2 -1 25425.1 1585.58 3
1 -2 2 75516.6 2860.51 16
-1 -2 -2 74958.9 3080.78 18
-1 -2 -3 69115.8 3329.78 18
1 -2 3 68211.3 3477.91 8
-1 -2 -4 336822 4383.84 26
-1 -2 -4 356411 8862 6
1 -2 4 337698 3570.99 31
-1 -2 -4 349926 8566.42 22
1 -2 4 330228 6865.4 8
1 -2 4 354016 7884.68 16
-1 -2 -5 54553.8 3861.26 6
-1 -2 -5 62012.2 4115.18 22
1 -2 5 53953.4 1681.39 31
1 -2 5 59035.5 3691.63 16
-1 -2 -6 31989.9 3264.15 6
-1 -2 -6 35373.1 1781.33 54
1 -2 6 31418 1431.36 31
1 -2 6 34241.4 3214.6 16
-1 -2 -6 33444.7 3483.86 22
-1 -2 -7 17100 1296.9 58
-1 -2 -7 19586 1447.07 54
-1 -2 -7 20456.2 2958.35 22
1 -2 7 16857.9 2516.16 14
1 -2 7 18096 1251.99 28
1 -2 7 18787.8 2594.28 16
1 -2 7 19183.1 1218.32 31
1 -2 8 4232.67 697.396 28
-1 -2 -8 4004.86 780.513 32
1 -2 8 4249.7 651.577 31
1 -2 8 4069.16 632.922 40
-1 -2 -8 4202.87 1499.43 22
1 -2 8 5544.46 1506.23 16
-1 -2 -8 4857.32 735.287 58
-1 -2 -8 4762.4 821.416 54
-1 -2 -9 7074.61 946.756 32
1 -2 9 7507.32 823.168 28
1 -2 9 6412.55 721.8 40
-1 -2 -9 6997.34 1028.07 54
1 -2 9 5917.39 698.916 31
-1 -2 -10 -79.6679 303.74 32
1 -2 10 936.284 319.918 28
1 -2 10 342.549 274.886 48
1 -2 10 828.241 279.716 40
-1 -2 -11 1038.63 274.39 47
1 -2 11 1465.74 256.766 48
1 -2 11 1083.32 184.324 40
-1 -1 11 3561.13 414.944 40
1 -1 -11 4768.9 557.336 47
1 -1 -10 509.963 359.456 47
-1 -1 10 628.875 326.283 31
-1 -1 10 364.651 292.116 28
1 -1 -10 600.843 347.863 32
-1 -1 9 1518.26 439.121 31
1 -1 -9 1670.22 534.234 32
-1 -1 9 1133.44 318.977 41
1 -1 -9 1714.07 461.402 59
1 -1 -8 99322.6 2915.97 59
1 -1 -8 103148 3231.31 54
1 -1 -8 111325 7006.78 22
1 -1 -8 102474 3162.03 32
-1 -1 8 101584 6228.54 16
1 -1 -7 117071 3163.72 32
1 -1 -7 113626 2915.91 59
-1 -1 7 122875 6108.84 25
1 -1 -7 118167 6723.73 22
1 -1 -7 114975 3189.26 54
1 -1 -6 49229.8 3950.02 22
-1 -1 6 49966.1 3599.57 25
-1 -1 6 49030.9 3749.35 12
-1 -1 5 41019.5 2772.16 24
1 -1 -5 42138.5 3181.15 22
-1 -1 5 37760.1 2858.38 25
-1 -1 5 42355.2 3097.17 12
1 -1 -4 13397.2 1596.54 22
-1 -1 4 12535.9 1460.81 24
-1 -1 3 51014 2485.25 13
1 -1 -3 52316.5 1520.89 4
1 -1 -3 52178 2619.47 22
1 -1 -2 212993 3318.4 4
-1 -1 2 204638 2728.5 4
1 -1 -1 249220 3880.89 4
1 -1 -1 245325 2132.27 9
1 -1 0 338311 3553.34 15
-1 -1 0 331521 3831.98 15
-1 -1 0 341242 2321.85 5
-1 -1 -1 48399.5 1850.88 3
-1 -1 -1 46883.3 1924.49 1
-1 -1 -2 69125.9 2601.61 3
-1 -1 -2 76652.2 2818.16 18
-1 -1 -3 56359.3 2774.76 22
1 -1 3 57317.4 2627.15 8
1 -1 3 58623.5 2803.62 16
-1 -1 -4 68611.8 3544.29 6
1 -1 4 67394.6 3324.56 16
1 -1 4 67906.1 2823.04 8
-1 -1 -4 68719.7 3575.69 22
-1 -1 -5 2420.45 1104.89 22
1 -1 5 1697.47 331.708 31
-1 -1 -5 1237.44 692.243 6
1 -1 5 342.351 654.31 16
-1 -1 -6 6399.28 1614.48 22
1 -1 6 4148.03 1188.19 16
1 -1 6 6030.86 669.329 31
-1 -1 -6 5233.35 1350.6 6
1 -1 7 51008.4 2019.38 28
-1 -1 -7 53890.7 2302.61 54
-1 -1 -7 50116.5 4507.34 22
-1 -1 -7 46203.1 2105.96 58
1 -1 7 48850.4 3971.72 16
-1 -1 -7 52529.1 2220.22 32
1 -1 7 50711.3 1942.21 31
1 -1 8 44023.9 1926.81 28
1 -1 8 40681.2 3850.36 16
1 -1 8 42102.7 1796.32 40
-1 -1 -8 38483.9 1925.44 58
-1 -1 -8 41692.5 4421.65 22
-1 -1 -8 44479 2261.37 54
-1 -1 -8 46323.8 2257.88 32
1 -1 8 43742.8 1914.56 31
1 -1 9 28069.4 3184.1 16
1 -1 9 29567 1483.14 40
1 -1 9 29846.3 1515.82 31
-1 -1 -9 26890.2 1507.7 58
-1 -1 -9 30800.8 1881.22 32
1 -1 9 28610.8 1502.23 28
-1 -1 -9 32526.1 1978.1 54
-1 -1 -10 5321.92 770.205 47
1 -1 10 4617.02 542.55 48
1 -1 10 4274.11 529.76 40
-1 -1 -10 4380.98 686.684 32
1 -1 11 2126.28 282.303 48
1 -1 11 2170.64 299.896 40
-1 -1 -11 2693.28 452.631 47
1 0 -11 2146.95 416.508 47
-1 0 11 2310.14 362.856 40
1 0 -10 7006.81 808.669 32
1 0 -10 8684.93 930.046 47
-1 0 10 6847.32 655.061 41
-1 0 10 8385.49 775.492 31
-1 0 10 8379.27 757.764 28
1 0 -9 37255.4 2008.92 47
1 0 -9 39145.5 2029.17 32
-1 0 9 37513.1 1732.55 41
-1 0 9 42369.7 3856.92 16
-1 0 9 37384.6 1753.01 31
1 0 -8 19999.6 1451.12 32
1 0 -8 17381.9 1386.21 54
1 0 -8 16992 1226.99 59
-1 0 8 18570.4 2689.87 2
-1 0 8 18350 2590.19 16
-1 0 7 -147.403 726.017 25
1 0 -7 744.202 403.267 54
-1 0 7 1006.98 340.984 52
-1 0 7 -217.21 600.034 12
1 0 -7 341.81 836.75 22
1 0 -7 137.726 384.652 32
1 0 -7 57.5743 265.472 59
1 0 -6 58254 4196.7 22
1 0 -6 53050.8 1952.13 32
-1 0 6 59122.6 4004.21 25
-1 0 6 60023.2 3956.68 12
1 0 -5 180561 3119.86 32
1 0 -5 179561 6473.47 22
-1 0 5 195286 6277.28 12
-1 0 5 177256 6261.34 25
-1 0 5 191996 6365.91 24
1 0 -4 72825.5 3535.27 22
-1 0 4 77546.7 3546.85 25
-1 0 4 77530.9 3589.57 24
1 0 -4 78949.1 2507.54 10
1 0 -3 297.084 273.872 10
-1 0 3 319.423 348.265 24
1 0 -3 239.842 444.994 22
1 0 -2 4432.48 456.488 10
1 0 -2 3870.1 529.506 11
-1 0 2 4902.75 904.095 13
-1 0 2 4673.76 393.083 1
1 0 -1 290524 2855.46 8
-1 0 1 298045 3797.44 2
1 0 -1 292077 3083.4 10
1 0 -1 290277 3297.09 9
-1 0 1 288317 3302.55 1
1 0 0 29974.8 1037.18 7
1 0 0 30274.7 1200.39 8
-1 0 -1 985935 6602.3 3
1 0 1 984848 5398.86 14
1 0 1 999999 7887.15 8
-1 0 -2 614.569 378.091 3
1 0 2 479.054 329.811 16
1 0 2 99.113 390.549 8
-1 0 -3 331140 6542.19 22
1 0 3 342204 5853.6 16
1 0 4 139568 4424.38 16
-1 0 -4 132494 4927.67 22
-1 0 -4 141366 4545.56 6
-1 0 -5 172166 5686.99 6
1 0 5 172691 2825.07 31
1 0 5 165563 5555.85 16
-1 0 -5 162194 3150.04 32
-1 0 -5 172111 6513.33 22
-1 0 -6 -266.479 880.03 22
-1 0 -6 -72.5733 377.131 32
1 0 6 469.421 539.804 16
1 0 6 328.547 283.159 31
-1 0 -6 -511.982 692.33 17
-1 0 -7 45687.6 2072.66 58
1 0 7 49119.8 3769.28 16
-1 0 -7 47520 2192.96 54
1 0 7 49395.3 1871.31 28
-1 0 -7 51327.6 2220.43 32
1 0 7 51267.6 1931.38 31
1 0 7 49065.5 1838.32 41
-1 0 -7 46615.5 4382.36 22
1 0 8 8082.76 1551.84 16
1 0 8 8438.67 880.625 31
-1 0 -8 8233.32 1066.27 32
1 0 8 8033.87 767.599 41
1 0 8 7623.48 813.839 40
1 0 8 8137.72 812.221 28
-1 0 -8 7762.3 905.998 58
-1 0 -8 7953.88 1020.65 54
-1 0 -9 888.223 581.12 32
1 0 9 79.4471 327.439 40
1 0 9 548.863 343.812 31
-1 0 -9 -238.209 383.59 58
1 0 9 159.29 193.57 41
-1 0 -10 14235.8 1182.36 32
-1 0 -10 13770.6 1146.37 47
1 0 10 12425.9 803.648 48
1 0 10 13308.3 925.88 40
1 0 11 10229 521.411 48
1 0 11 10769.7 655.664 40
-1 0 -11 10669.9 790.28 47
1 1 -11 4253.59 553.182 47
-1 1 11 2995.49 353.976 41
-1 1 11 4169.45 433.666 40
-1 1 10 674.725 309.298 40
1 1 -10 102.748 397.182 47
-1 1 10 499.154 244.725 31
-1 1 10 70.1112 241.556 41
1 1 -9 1665.5 528.96 32
-1 1 9 1370.69 409.331 31
1 1 -9 1925.71 643.862 47
-1 1 9 966.225 379.904 41
-1 1 9 1860.66 452.11 52
-1 1 8 100916 2906.33 52
-1 1 8 103555 5778.32 16
1 1 -8 105010 3369.64 47
1 1 -8 106070 3338.23 32
-1 1 8 98461.8 2955.83 41
1 1 -8 96691.5 2872.36 59
-1 1 8 111556 6665.82 2
-1 1 7 119283 2896.36 36
1 1 -7 112506 2982.78 59
-1 1 7 122497 3078.04 52
-1 1 7 123139 6474.2 25
1 1 -7 122089 3351.79 32
-1 1 7 125714 6106.3 12
-1 1 7 115400 6240.28 2
-1 1 6 50739 1801 36
-1 1 6 50516 3800.53 25
-1 1 6 54748.9 3652.01 12
1 1 -6 50511.3 1962.05 32
-1 1 5 37165.2 2916.21 25
1 1 -5 43377.3 2609.48 10
1 1 -5 41549.9 1560.13 32
-1 1 5 40381 2735.96 12
-1 1 4 13946.3 1587.59 25
-1 1 4 14190.3 1662.14 24
1 1 -4 13677.5 1367.77 10
1 1 -4 13800.8 1622.15 22
-1 1 3 52549.6 2740.93 24
1 1 -3 46569.1 2498.91 22
1 1 -3 45605.8 2249.76 11
1 1 -3 51035.2 2333.67 10
-1 1 2 196963 4372.33 2
1 1 -2 200032 4130.76 10
-1 1 1 235424 4052.11 2
1 1 -1 239333 3970.84 10
1 1 0 339658 3972.36 9
1 1 1 50053.9 2046.14 7
-1 1 -1 55103.2 2145.16 5
1 1 2 72214.7 1908.7 16
-1 1 -2 69606.2 2211.34 3
-1 1 -3 53961.8 2995.03 22
1 1 3 52382.3 2090.21 16
1 1 4 66213.9 2833.31 16
-1 1 -4 64612.1 3677.72 22
-1 1 -4 61726.8 3487.03 17
-1 1 -4 66355.8 2757.22 6
-1 1 -5 1915.34 458.609 32
1 1 5 2269.18 828.5 16
1 1 5 1608.84 325.365 31
-1 1 -5 2508.04 943.061 17
1 1 6 5829.98 1209.7 16
-1 1 -6 5703.56 1288.91 17
1 1 6 5249.97 605.302 31
-1 1 -6 6792.56 787.178 32
-1 1 -7 53719.9 2317.14 32
1 1 7 41346.4 4095.38 7
1 1 7 49559.4 1845.85 31
1 1 7 53092 1772.85 28
1 1 7 51264.7 1950.39 41
-1 1 -7 44650.7 2056.18 58
-1 1 -7 49832.3 2272.37 54
1 1 7 56613.6 3794.45 16
1 1 8 43215.8 1855.68 41
-1 1 -8 47366.8 2348.34 32
1 1 8 40009.7 4226.15 7
-1 1 -8 40225.6 2025.95 58
1 1 8 44616.9 1837.27 40
1 1 8 44641.1 1835.94 31
-1 1 -9 29838.2 1870.61 32
1 1 9 29271.1 1454.09 41
-1 1 -9 28860.4 1660.58 58
1 1 9 30096.8 1499.18 40
1 1 9 30251.7 1501.98 31
-1 1 -9 30147 1817.56 47
-1 1 -10 3989.27 697.933 47
1 1 10 4896.59 559.48 40
1 1 10 4038.6 478.713 41
-1 1 -11 2358.98 421.325 47
1 1 11 2337.64 313.601 40
1 2 -11 5066.01 574.14 47
-1 2 11 4054.93 414.476 41
-1 2 11 4280.13 390.89 40
1 2 -10 1991.61 558.928 47
-1 2 10 2207.59 405.473 40
-1 2 10 2243.5 434.506 41
-1 2 10 1374.07 302.276 31
-1 2 9 7463.85 737.097 31
1 2 -9 7190.14 985.446 47
-1 2 9 7510.02 838.2 41
1 2 -8 7788.93 1021.01 47
1 2 -8 6387.87 756.158 59
-1 2 8 9827.08 2122.28 2
-1 2 8 6759.26 824.712 41
-1 2 8 7258.63 776.005 31
-1 2 8 7154.44 847.438 52
-1 2 8 7400.75 795.582 35
-1 2 7 32980.1 1677.54 52
1 2 -7 29663.2 1581.42 59
1 2 -7 33538.5 1869.48 47
-1 2 7 36632.5 3668.5 2
1 2 -7 35376.7 1883.01 32
1 2 -6 11835.5 1007.21 47
-1 2 6 12586.4 2084 25
-1 2 6 13004.6 2099.71 2
1 2 -6 12901.3 1765.5 10
-1 2 6 12345.6 969.785 36
-1 2 6 12814 973.787 52
1 2 -6 11638.2 1020.66 32
-1 2 6 15316.9 1858.81 12
1 2 -5 18534.5 2027.44 10
-1 2 5 15171.6 1727.55 7
-1 2 5 13259 1824.79 2
-1 2 5 16198.9 1702.71 12
1 2 -5 15062.7 1040.48 32
-1 2 5 16590.7 2069.98 25
-1 2 5 16516.6 992.607 36
-1 2 4 28859.1 2342.88 25
-1 2 4 30626.2 2008.67 12
-1 2 4 30170.2 2480.73 2
-1 2 4 31071.9 2029.84 7
1 2 -4 30104.4 2375.55 10
-1 2 3 41019.2 2381.24 25
1 2 -3 39855.9 2494.15 10
-1 2 3 38706.3 2463.39 2
-1 2 3 40956.7 1885.05 7
1 2 -3 35210.6 2261.83 11
1 2 -2 2593.93 671.224 11
-1 2 2 1732.17 629.187 2
-1 2 2 2626.04 699.386 24
1 2 -2 2714.59 726.693 10
1 2 -1 750886 7754.15 9
-1 2 1 757135 6285.67 10
-1 2 0 716535 7940.11 17
1 2 0 688890 7032.95 9
1 2 1 25801.4 1752.76 7
-1 2 -1 26214.7 1487.45 5
1 2 1 23215.7 1472.15 10
1 2 2 75877 3206.21 7
-1 2 -2 113347 3937.66 17
1 2 3 69324.9 2030.93 16
1 2 3 70921.3 3543.28 7
1 2 4 340875 8711.08 7
1 2 4 343273 5709.34 16
1 2 5 54438.6 1553.55 31
-1 2 -5 49778.7 2000.76 32
1 2 5 58134.7 3977.86 7
1 2 5 57765.3 1730.66 35
-1 2 -5 52835 3647.64 17
-1 2 -6 31300 3124.92 10
-1 2 -6 32925 1769.08 32
1 2 6 30859.7 1318.44 31
1 2 6 31549.6 1391.3 35
1 2 6 31141.7 3301.27 7
1 2 6 34244.6 1513.85 41
-1 2 -6 28310.4 1559.85 58
-1 2 -7 19025.6 1425.01 47
1 2 7 15683.3 2526.15 7
-1 2 -7 20044 1535.84 32
1 2 7 19087.1 1115.93 31
-1 2 -7 16973 1307.38 58
1 2 7 20455.7 1185.57 35
1 2 7 19458.4 1167.24 40
1 2 7 18756.1 1226.45 41
-1 2 -8 4177.15 874.384 32
1 2 8 4037.49 579.299 40
-1 2 -8 3910.55 724.418 58
-1 2 -8 5000.15 858.589 47
1 2 8 4519.83 575.669 31
1 2 8 3397.81 594.143 41
-1 2 -9 7154.48 942.087 47
-1 2 -9 6380.72 847.271 58
1 2 9 6692.64 717.196 40
1 2 9 6918.23 750.042 41
1 2 10 276.192 236.097 40
1 2 10 446.719 226.981 41
-1 2 -10 569.818 334.845 58
-1 2 -10 411.99 392.503 47
1 2 11 1534.18 235.75 40
1 2 11 1203.56 185.166 41
-1 3 11 3841.79 371.523 41
1 3 -11 4161.27 484.719 47
-1 3 10 5122.68 589.151 41
-1 3 10 4767.46 481.621 40
1 3 -10 6169.08 797.635 47
-1 3 9 665.405 395.102 41
1 3 -9 211.779 497.06 47
-1 3 9 344.526 250.731 35
-1 3 9 197.545 276.169 40
-1 3 8 2224.37 481.746 35
-1 3 8 3550.83 522.141 31
1 3 -8 2636.61 755.107 47
-1 3 8 2921.08 606.243 52
-1 3 8 3218.91 595.706 41
-1 3 7 64514.7 4991.49 2
1 3 -7 61975.3 2605.55 47
-1 3 7 67999.7 2444.43 52
1 3 -7 61864 2345.46 59
-1 3 7 64817.9 2337.36 41
1 3 -6 4437.22 558.345 51
1 3 -6 5305.14 675.018 59
1 3 -6 5061.51 727.113 47
-1 3 6 5421.21 709.079 36
-1 3 6 5423.61 688.394 52
1 3 -6 5832.96 1422.21 10
-1 3 6 5215.28 1417.36 2
-1 3 5 47078.5 3686.53 2
-1 3 5 49056.2 1830.66 36
-1 3 5 48300 3555.51 25
1 3 -5 46774.7 3569.32 10
1 3 -4 9023.33 1554.59 10
-1 3 4 8370.73 1327.69 25
-1 3 4 7579.42 946.559 12
-1 3 4 7187.5 1377.96 2
-1 3 3 1334.5 618.093 25
-1 3 3 1755.57 752.674 2
1 3 -3 1292.78 699.392 10
1 3 -3 572.069 533.193 11
-1 3 2 33759.5 1319.11 10
-1 3 2 34909.4 1961.37 25
1 3 -2 40945.4 2705.86 10
1 3 -2 39387.1 2347.36 11
-1 3 2 32947.7 2198.04 2
1 3 -1 111150 4066.23 10
-1 3 1 108274 3181.68 10
1 3 0 133380 4142.86 10
1 3 0 130059 3410.7 9
-1 3 0 128067 3571.01 5
-1 3 0 133657 3965.93 10
-1 3 -1 49587.4 2894.29 17
-1 3 -1 50159.5 2321.88 5
1 3 1 53803.2 2473.29 10
1 3 1 53527.1 1462.07 2
1 3 1 53038 2091.24 9
1 3 2 43760.5 2012.06 2
-1 3 -2 40535.9 2711.8 17
1 3 2 45331.3 2778.38 7
1 3 3 6432.47 1284.93 7
-1 3 -3 6714.12 1348.89 17
-1 3 -4 110664 5269.26 17
1 3 4 113987 2405.63 35
1 3 4 122450 5586.99 7
1 3 5 48699.9 3851.8 7
1 3 5 49121.6 1437.09 31
-1 3 -5 46440.7 3774.95 17
1 3 5 47849.3 1716.05 35
-1 3 -5 50263.5 3979.48 10
1 3 6 5098.15 1530.46 7
-1 3 -6 4868.08 726.022 47
1 3 6 5221.96 629.979 35
1 3 6 5626.69 567.225 31
1 3 6 5358.51 674.616 37
-1 3 -6 5048.97 687.566 58
1 3 6 4395.9 517.201 40
1 3 6 5099.47 623.649 41
-1 3 -6 5662.18 1521.77 10
1 3 7 26751.7 1265.77 31
-1 3 -7 26498.8 1712.09 47
-1 3 -7 27349.2 3360.48 10
1 3 7 24279.9 3148.32 2
-1 3 -7 24458.4 1633.97 58
1 3 7 27470 1480.9 41
1 3 7 28447.9 3392.34 7
1 3 7 24737.7 1275.23 40
1 3 7 28652.5 1484.26 35
1 3 8 5826.74 717.853 41
-1 3 -8 5159.26 874.3 47
1 3 8 6141.89 679.729 40
1 3 8 6370.79 707.731 35
-1 3 -8 5727.54 844.757 58
1 3 9 609.247 314.006 41
1 3 9 744.562 295.543 40
-1 3 -9 621.522 462.792 47
-1 3 -9 1025.42 430.877 58
1 3 10 957.764 256.052 40
-1 3 -10 966.976 393.126 47
1 3 10 871.336 299.554 41
-1 3 -11 1064.08 251.707 47
-1 4 10 487.55 224.571 41
1 4 -10 995.125 415.724 47
1 4 -9 6453.49 943.537 47
-1 4 9 5706.51 680.601 41
-1 4 9 5379.68 635.968 35
-1 4 8 11638.6 1014.29 35
1 4 -8 14298.3 1353.7 47
-1 4 8 15030.7 1206.27 52
-1 4 8 13290.8 1064.42 41
-1 4 7 5305.52 747.555 35
-1 4 7 5497.56 639.499 37
1 4 -7 5719.17 781.803 59
-1 4 7 6427.69 1752.78 2
-1 4 7 5781.85 745.666 41
1 4 -7 5379.48 852.001 47
1 4 -7 5069 651.032 51
-1 4 7 5314.84 753.124 52
1 4 -6 23590 2954.81 10
-1 4 6 25913.2 3125.97 2
-1 4 6 27042.5 1364.34 37
1 4 -6 24488.8 1673.57 47
1 4 -6 21849.7 1329.94 51
-1 4 6 26205.8 1431.07 41
-1 4 6 26969.8 1514.59 52
1 4 -6 25538 1557.06 59
-1 4 5 22966.9 2742.88 2
1 4 -5 21572.7 1349.14 59
1 4 -5 22604.2 1294.34 51
1 4 -5 23026.3 1465.52 47
-1 4 5 25208.1 1388.58 36
-1 4 5 23816.4 1264.23 41
1 4 -5 24311.3 2862.06 10
-1 4 5 24040.4 1319.96 52
-1 4 4 30843.5 2901.8 2
-1 4 4 33694.6 1482.03 36
1 4 -4 33013.1 3133.77 10
1 4 -3 44553.1 2907.42 11
-1 4 3 48123.9 3203.3 2
1 4 -3 49580.1 3555.99 10
1 4 -2 7090 1354.37 10
1 4 -2 2935.07 730.422 11
-1 4 1 113861 3863.53 10
1 4 -1 115729 4741.2 10
1 4 -1 111367 3981.99 11
1 4 0 163920 5350.39 10
-1 4 0 158556 5154.83 10
1 4 0 146022 4160.59 9
-1 4 0 149013 4328.71 5
1 4 1 23667.7 1593.77 9
-1 4 -1 24666.8 2222.26 10
1 4 1 25462.1 2012.33 10
1 4 2 16285.8 1303.1 9
-1 4 -2 13360.8 1793.49 10
1 4 3 10699.1 1250.04 2
1 4 3 9698.18 710.249 35
-1 4 -3 10690 1807.16 10
1 4 4 12095.3 860.114 35
1 4 4 10846.3 1558.71 2
-1 4 -4 11608.8 2022.76 10
-1 4 -5 1931.6 444.518 47
1 4 5 2566.36 801.924 2
1 4 5 3012.34 480.814 41
-1 4 -5 2672.46 506.359 43
-1 4 -5 3063.49 606.322 58
1 4 5 2447.8 457.064 35
-1 4 -5 3124.66 1212.98 10
1 4 5 1632.59 942.926 7
1 4 5 3307.65 547.881 37
-1 4 -6 10351.1 2183.69 10
-1 4 -6 10881.3 986.549 43
-1 4 -6 10393.8 1123.8 58
-1 4 -6 9979.87 1097.18 47
1 4 6 11531.8 935.175 41
1 4 6 8718.56 1784.55 7
1 4 6 10886.7 978.109 37
1 4 6 10502 931.558 35
-1 4 -7 10213.7 1147.7 47
1 4 7 9682.07 764.353 40
1 4 7 9551.08 902.702 41
1 4 7 10025.3 942.301 35
-1 4 -7 9277.21 1119.08 58
-1 4 -8 2030.82 595.853 47
-1 4 -8 2231.92 607.551 58
1 4 8 2250.64 388.174 40
1 4 8 2069.82 499.704 41
1 4 8 1711.54 426.589 35
1 4 9 1086.01 270.582 40
-1 4 -9 1578.88 499.31 47
1 4 9 1494.36 316.335 35
1 4 9 1317.69 395.636 41
-1 4 -10 2121.95 428.256 47
1 4 10 2845.28 409.239 41
1 5 -10 482.975 288.075 47
-1 5 10 785.299 208.828 41
-1 5 9 544.447 263.461 41
1 5 -9 672.994 496.151 47
-1 5 9 391.466 216.607 35
1 5 -8 10637 1167.94 47
-1 5 8 10020.9 933.489 35
-1 5 8 10560.2 898.736 41
-1 5 7 14827.6 1199.82 52
-1 5 7 13235.1 1115.38 35
1 5 -7 13894.1 1366.95 47
-1 5 7 13678.4 1061.96 41
-1 5 7 13016.9 969.999 37
-1 5 6 19859 2882.26 2
-1 5 6 20961.5 1257.81 37
-1 5 6 19782.2 1330.52 52
1 5 -6 19914.7 2839.26 10
-1 5 6 19868.7 1249.36 41
1 5 -6 19466.6 1555.23 47
1 5 -6 16526.6 1212.32 51
-1 5 6 19356.3 1336.33 35
-1 5 5 72311.5 2233.13 41
-1 5 5 71725.5 2297.93 53
-1 5 5 70643.2 4970.71 2
1 5 -5 73153 2366.66 43
1 5 -5 75487.8 5454.11 10
1 5 -5 67594.8 2379.54 51
-1 5 5 73331.3 2394.06 52
1 5 -5 72451.1 2802.71 47
1 5 -4 158.266 271.986 51
1 5 -4 1306.93 354.962 43
1 5 -4 724.1 429.379 47
-1 5 4 936.652 358.765 53
-1 5 4 745.387 298.114 52
1 5 -4 -130.652 813.509 10
1 5 -3 46642.3 3811.74 10
1 5 -2 5184.12 1332.25 10
1 5 -2 3657.83 961.227 11
-1 5 1 33369.6 2507.26 10
1 5 -1 34829.6 2989.07 10
1 5 -1 30711.4 2304.05 11
-1 5 1 35777.2 2435.85 5
1 5 0 67307.8 3880.05 10
1 5 0 62387.5 3069.9 11
-1 5 0 61742.2 3059.91 5
-1 5 0 65366.9 3752.91 10
-1 5 -1 78771.6 4494.72 10
1 5 1 77000.6 3920.03 10
-1 5 -2 42615 3595.31 10
1 5 2 42310.9 1500.43 35
-1 5 -3 7454.05 1581.21 10
1 5 3 9343.23 782.697 35
-1 5 -4 4078.52 669.862 47
1 5 4 3912.98 534.568 53
-1 5 -4 3958.41 621.503 43
1 5 4 3079.87 529.894 35
-1 5 -4 3108.51 597.887 58
1 5 4 3926.54 516.78 41
-1 5 -4 2706.43 1161.64 10
-1 5 -5 33846.2 1964.75 47
-1 5 -5 34391.8 1824.98 43
1 5 5 36646.8 1606.41 41
1 5 5 35713.7 1686.75 37
-1 5 -5 36907.2 1973.06 58
-1 5 -5 40595 4331.65 10
1 5 5 35964.8 1675.76 35
1 5 6 2433.31 523.416 35
-1 5 -6 3409.67 1426.66 10
-1 5 -6 1806.91 483.621 43
-1 5 -6 2764.71 697.322 58
1 5 6 2471.77 467.119 41
-1 5 -6 2160.98 603.227 47
1 5 6 2049.86 490.784 37
-1 5 -7 1959.14 603.616 47
-1 5 -7 869.403 411.811 43
-1 5 -7 611.708 482.225 58
1 5 7 954.036 396.809 37
1 5 7 850.843 379.57 35
1 5 7 1274.68 402.639 41
-1 5 -8 1956.77 521.9 47
1 5 8 1066.86 356.945 41
1 5 8 1939.51 422.664 35
1 5 9 6007.48 601 41
-1 5 -9 5828.94 704.615 47
1 5 9 5655.58 560.04 35
-1 5 -10 1067.26 249.675 47
1 5 10 1473.83 240.875 41
-1 6 9 4125.28 465.911 35
1 6 -9 3295.48 530.164 47
-1 6 9 3863.57 422.314 41
-1 6 8 9852.98 776.476 41
1 6 -8 10534.2 1054.92 47
-1 6 8 10511.2 873.167 35
-1 6 7 2828.25 483.22 37
-1 6 7 2650.87 558.884 35
-1 6 7 2343.12 444.191 41
1 6 -7 2846.93 764.14 47
-1 6 6 23794.5 1472.56 35
-1 6 6 23511.3 1290.09 41
-1 6 6 23133.9 1308.71 53
-1 6 6 23618 1349.54 37
1 6 -6 24425.1 1783.89 47
1 6 -5 24518.7 1552.79 51
-1 6 5 27299 1535.42 35
1 6 -5 27934.3 1509.54 49
-1 6 5 27166.8 1347.52 41
-1 6 5 27884 1482.01 52
-1 6 5 27325.8 1507.15 53
1 6 -5 26071.6 1777.68 47
1 6 -5 26571.8 3310.18 10
1 6 -4 4331.82 710.359 51
1 6 -4 5402.5 850.532 47
-1 6 4 4600.83 636.191 35
1 6 -4 5113.3 1406.11 10
-1 6 4 4612.24 662.676 53
-1 6 4 5685.96 665.059 52
1 6 -3 1211.2 357.964 38
-1 6 3 1430.68 392.058 53
1 6 -3 1144.53 414.763 51
1 6 -3 1590.01 553.599 47
-1 6 3 1449.02 413.501 38
-1 6 3 1069.83 335.385 35
1 6 -3 1749.61 821.628 10
-1 6 2 9387.58 865.334 38
1 6 -2 9695.63 893.551 38
1 6 -2 7419.91 1584.74 10
1 6 -2 8754.75 1027.74 47
-1 6 2 8783.69 743.816 35
1 6 -2 8690.48 835.623 51
-1 6 2 8119.49 809.946 53
-1 6 1 251.765 224.397 38
-1 6 1 200.561 240.364 53
1 6 -1 -56.0287 341.11 47
-1 6 1 -3.27004 284.469 42
1 6 -1 248.059 729.246 10
1 6 -1 -156.754 322.134 11
-1 6 0 35578.3 1692.19 38
1 6 0 31288.2 2981.12 10
-1 6 0 36067 1622.35 42
-1 6 0 31817.6 2943.78 10
1 6 0 33137.8 1653.66 47
1 6 0 33660 1477.63 53
-1 6 -1 25892.8 1464.82 43
-1 6 -1 28084.9 1452.26 42
1 6 1 26438.9 1213.92 35
1 6 1 27394.6 1422.57 38
-1 6 -1 29101.3 1580.66 38
1 6 1 25062.5 2519.78 10
-1 6 -1 25789.5 2873.03 10
1 6 1 28413.4 1390.07 53
-1 6 -2 30174.9 3288.45 10
1 6 2 32500 1519.23 53
-1 6 -2 32228.2 1701.8 43
-1 6 -2 30541.4 1634.76 47
1 6 2 30434.6 1416.35 35
-1 6 -3 5269.73 801.996 47
-1 6 -3 5356 774.71 43
-1 6 -3 4044.87 1386.51 10
1 6 3 4860.9 637.627 35
1 6 3 5183.16 633.77 53
-1 6 -4 17658.3 1377.5 47
1 6 4 18783.2 1122.95 41
1 6 4 18043.4 1171.2 53
1 6 4 19036.9 1240.36 35
-1 6 -4 18071.1 1368.22 43
-1 6 -4 16249.8 2739.77 10
-1 6 -5 23987.8 1578.16 43
1 6 5 23747.4 1325.88 53
-1 6 -5 23048.2 1669.6 47
1 6 5 24380.6 1318.26 41
-1 6 -5 23136.9 3417.28 10
1 6 5 22103.6 1398.69 37
1 6 5 23245.8 1410.53 35
1 6 6 14958.1 1175.53 35
-1 6 -6 13514.1 1319.17 47
1 6 6 13899.4 1096.49 37
1 6 6 13721 1011.94 41
-1 6 -6 13282.9 1160.92 43
-1 6 -7 10207.7 1119.73 47
-1 6 -7 9698.21 874.056 43
1 6 7 10538.9 864.78 41
1 6 7 10321.8 943.008 37
1 6 7 10455 938.209 35
1 6 8 5744.65 604.664 41
-1 6 -8 5328.53 720.031 47
1 6 8 4771.51 571.534 35
-1 6 -9 1691.03 336.235 47
1 6 9 1850.35 291.538 41
1 7 -9 2356.29 342.293 47
1 7 -8 5412.34 691.546 47
-1 7 8 5682.37 560.487 35
-1 7 8 5813.49 465.04 41
1 7 -7 16462.1 1340.26 47
-1 7 7 17419.3 1116.19 35
-1 7 7 17340 916.248 41
-1 7 7 15928.7 950.393 37
1 7 -6 6496.84 974.445 47
-1 7 6 5247.79 616.83 53
-1 7 6 5946.58 693.099 37
-1 7 6 6214.58 741.18 35
-1 7 5 868.254 400.958 37
1 7 -5 1260.75 554.41 47
1 7 -5 1152.22 353.455 49
-1 7 5 580.871 308.732 53
-1 7 5 593.909 297.979 35
1 7 -4 41962.4 2262.42 47
-1 7 4 42228.1 1921.55 53
1 7 -4 42713.4 1982.9 49
-1 7 4 42581.7 1828.59 35
-1 7 3 64.1909 254.919 35
1 7 -3 23.3379 485.499 47
-1 7 3 -176.094 300.518 53
1 7 -3 -138.182 279.067 38
1 7 -2 9975.01 1135.18 47
1 7 -2 8131.82 706.928 50
1 7 -2 9264.26 968.252 38
-1 7 2 9710.36 936.308 53
-1 7 2 9487.22 953.041 38
1 7 -1 12468 1188.33 47
1 7 -1 11812 1033.5 38
1 7 -1 12049 867.243 50
-1 7 1 12282.1 1104.83 38
1 7 -1 10470.4 914.299 53
-1 7 1 13415.6 1090.39 53
1 7 0 5162.09 1333.64 10
1 7 0 6655.12 804.314 38
-1 7 0 8189.12 931.099 38
1 7 0 7758.62 720.593 50
-1 7 0 7643.8 808.809 53
1 7 0 6954.11 759.798 53
1 7 1 5852.12 762.823 49
-1 7 -1 2882.72 900.332 10
-1 7 -1 4835.48 623.291 53
-1 7 -1 3803.03 626.865 47
1 7 1 4558.71 688.616 38
-1 7 -1 5861.12 787.333 43
1 7 1 5117.62 679.523 53
-1 7 -1 6338.1 827.352 38
-1 7 -2 10905.5 1083.17 47
-1 7 -2 10271.5 1065.19 43
-1 7 -2 10965.8 1081.65 38
1 7 2 10941 895.894 35
1 7 2 12466.9 1000.83 49
1 7 2 11549.2 989.454 53
-1 7 -2 8404.65 1792.83 10
-1 7 -3 796.02 482.204 38
1 7 3 558.172 295.027 35
-1 7 -3 727.825 436.649 47
-1 7 -3 800.491 789.01 10
-1 7 -3 1069.63 518.967 43
1 7 3 1108.89 399.993 53
-1 7 -4 4793.64 776.14 47
1 7 4 5828.38 726.849 53
-1 7 -4 6058.66 866.459 43
1 7 4 6382.48 766.382 35
-1 7 -5 7025.19 941.364 47
1 7 5 7404.66 834.786 35
1 7 5 7793.38 717.913 41
-1 7 -5 6300.93 835.625 43
1 7 5 8355.02 791.278 53
1 7 5 8078.28 900.326 37
1 7 6 16270.7 1153.25 37
-1 7 -6 15050.8 1144.8 43
1 7 6 17143 1174.33 35
-1 7 -6 15295.1 1288.3 47
1 7 6 16150.7 993.895 41
-1 7 -7 14975.5 1128.33 47
1 7 7 17824.4 1082.21 35
-1 7 -7 15559.8 1061.84 38
1 7 7 15951.3 913.94 41
1 7 7 17555.7 1071.14 37
-1 7 -8 6355.57 617.096 47
1 7 8 8635.51 576.501 41
1 8 -8 573.084 210.064 47
1 8 -7 1883.64 443.579 47
-1 8 7 2331.19 365.688 35
-1 8 6 486.629 240.991 53
1 8 -6 438.371 382.982 47
-1 8 6 504.54 253.923 37
-1 8 6 776.336 285.345 35
-1 8 5 2077.17 469.122 37
1 8 -5 2486.99 458.263 49
1 8 -5 2700.79 678.45 47
-1 8 5 1924.03 414.977 53
-1 8 5 2194.48 430.435 35
1 8 -4 13007.5 1280.38 47
-1 8 4 11376.8 1021.59 53
-1 8 4 12535.2 972.007 35
1 8 -4 13231.9 1089.74 49
1 8 -3 88347.9 2642.37 38
-1 8 3 86496.5 2812.41 53
-1 8 3 94244.1 2551.92 35
1 8 -3 91304.9 2960.95 49
1 8 -3 90324.8 3159.16 47
1 8 -2 21234.6 1471.99 49
-1 8 2 20281.6 1383.98 53
-1 8 2 18403.7 1322.07 38
1 8 -2 20388.9 1354.49 38
1 8 -2 21395.9 1564.56 47
1 8 -1 9278.84 1032.17 49
1 8 -1 7457.29 846.745 38
-1 8 1 7712.47 934.387 38
-1 8 1 8426.6 894.205 53
-1 8 0 4908.77 701.774 53
1 8 0 4429.3 557.007 50
1 8 0 5216.21 776.117 49
1 8 0 4687.14 694.95 53
-1 8 0 4018.11 712.753 38
1 8 0 4602.78 671.618 38
1 8 1 3564.82 607.88 49
-1 8 -1 3914.25 607.05 53
-1 8 -1 3446.26 664.986 38
1 8 1 3845.21 549.413 50
1 8 1 3955.02 660.809 53
-1 8 -2 32283.2 1850.84 38
1 8 2 33398.3 1691.38 53
1 8 2 33532.7 1606.07 49
-1 8 -3 47789.3 2146.9 47
-1 8 -3 50694.5 2295.12 38
1 8 3 50158 2045.01 53
1 8 4 9291.88 879.221 53
1 8 4 8734.23 819.229 35
1 8 4 6961.81 840.528 37
-1 8 -4 7109.17 875.903 38
-1 8 -4 7781.18 931.098 47
-1 8 -5 37178.4 1802.47 38
-1 8 -5 36325.4 1791.4 47
1 8 5 37723.6 1681.22 37
1 8 5 41800.8 1699.25 35
-1 8 -6 200.245 228.489 38
-1 8 -6 33.9519 281.709 47
1 8 6 254.207 282.011 37
-1 8 -7 5178.9 474.42 38
-1 8 -7 5832.4 542.569 47
1 9 -6 1971.33 405.844 47
-1 9 6 1769.94 283.823 37
1 9 -5 1191.92 430.446 47
1 9 -5 1496.12 314.119 49
-1 9 5 1225.1 340.042 37
-1 9 5 1602.74 341.831 53
-1 9 5 1656.67 305.437 35
1 9 -4 1270.92 374.401 49
1 9 -4 1113.89 463.496 47
-1 9 4 1122.91 371.367 37
-1 9 4 1239.65 376.495 53
1 9 -3 10477.2 821.787 38
1 9 -3 13427.6 1057.95 49
-1 9 3 12716.7 1012.4 53
1 9 -2 4992.17 699.334 49
-1 9 2 4952.61 599.097 49
1 9 -2 5439.95 640.582 38
-1 9 2 5928.03 739.843 53
1 9 -1 1319.05 473.627 49
-1 9 1 858.989 427.663 38
-1 9 1 1829.13 497.714 53
-1 9 0 12226.1 1161.82 38
1 9 0 14489.3 1125.97 49
-1 9 0 14921.2 1087.48 53
-1 9 -1 588.242 382.638 38
-1 9 -1 585.884 259.755 53
1 9 1 615.151 293.173 49
1 9 2 6978.04 670.642 49
1 9 2 7406.33 651.911 50
-1 9 -2 6921.95 814.969 38
1 9 3 2144.26 390.766 50
-1 9 -3 1486.65 439.403 38
1 9 3 1164.91 381.691 37
-1 9 -4 8638.39 835.426 38
1 9 4 9737.48 724.108 50
-1 9 -4 9848.07 869.249 49
1 9 4 8963.3 803.88 37
-1 9 -5 18148.1 976.085 49
1 9 5 18160.4 987.266 37
-1 9 -5 16338.4 992.719 38
1 9 6 956.09 253.146 37
1 9 6 1185.49 218.421 50
-1 10 4 1355.82 269.606 53
-1 10 4 1187.72 262.196 37
1 10 -4 1218.84 263.104 49
1 10 -3 6168.12 607.725 49
-1 10 3 4664.76 531.249 37
-1 10 3 6764.88 619.703 53
-1 10 2 5220.18 579.582 53
1 10 -2 5187.62 598.548 49
1 10 -1 24091.1 1202.31 49
-1 10 1 24920.2 1166.3 49
-1 10 1 25403.3 1240.18 53
-1 10 0 1955.86 415.102 49
-1 10 0 1652.5 339.717 53
1 10 0 1486.97 354.566 49
-1 10 -1 372.887 307.987 49
1 10 1 287.078 195.428 49
-1 10 -1 263.446 277.329 38
-1 10 -2 5907.69 652.063 49
1 10 2 4713.56 538.118 37
-1 10 -2 4640.57 565.745 38
-1 10 -3 1710.79 354.159 49
-1 10 -3 1880.32 369.244 38
1 10 3 1500.91 304.387 37
-1 10 -4 1054.35 257.363 49
-1 10 -4 525.777 191.429 38
1 10 4 985.866 233.694 37
1 10 5 797.899 194.222 37
1 11 -1 1517.52 226.101 49
-1 11 -1 9395.26 550.142 49
2 -10 -4 3161.73 368.273 39
2 -10 -3 4528.71 513.295 39
2 -10 -2 10679 830.895 39
2 -10 -1 475.056 360.47 39
2 -10 0 4360.5 640.153 39
-2 -10 0 4430.56 722.982 33
2 -10 0 3490.06 554.213 33
-2 -10 0 5483.98 832.334 34
-2 -10 -1 2182.14 536.985 34
2 -10 1 1991.66 492.104 39
2 -10 2 1448.15 441.359 39
-2 -10 -2 1283.77 489.865 54
-2 -10 -2 1652.75 500.377 34
2 -10 3 1692.88 468.862 39
-2 -10 -3 1863.76 487.997 54
-2 -10 -4 4041.88 535.698 54
2 -10 4 2432.01 445.89 39
2 -9 -6 2835.92 414.847 59
2 -9 -5 14645.7 901.775 39
2 -9 -4 2244.18 493.607 39
2 -9 -3 6066.43 750.233 39
2 -9 -2 1256.2 675.397 39
2 -9 -2 1192.6 570.751 33
-2 -9 1 9463.17 1167.53 33
2 -9 -1 8435.14 934.814 33
2 -9 -1 10034 1026.85 39
2 -9 0 24900.4 1627.95 33
2 -9 0 26205 1672.66 39
2 -9 0 19496.4 2872.17 23
2 -9 0 23124.3 1387.29 57
-2 -9 0 24243.9 1745.23 33
2 -9 1 6850.52 1737.77 23
-2 -9 -1 7285.97 946.738 33
2 -9 1 7016.52 814.633 57
-2 -9 -2 2071.49 595.508 26
-2 -9 -2 1011.2 528.206 34
2 -9 2 2151.76 564.368 57
2 -9 2 3548.37 1284 23
-2 -9 -2 2000.16 572.788 33
-2 -9 -3 2025.82 581.701 34
-2 -9 -3 883.491 434.296 26
2 -9 3 1720.73 474.644 57
-2 -9 -3 1813.9 659.875 54
-2 -9 -4 1154.44 446.647 34
-2 -9 -4 991.141 579.896 54
2 -9 4 781.161 419.047 57
-2 -9 -5 93.2092 296.95 58
-2 -9 -5 242.828 357.86 54
2 -9 5 231.324 338.645 57
-2 -9 -6 4617.52 504.379 54
2 -8 -7 2449.94 415.741 59
2 -8 -6 372.278 300.044 39
2 -8 -5 628.744 398 39
-2 -8 4 10072.5 2656.39 21
2 -8 -4 11059 1035.08 39
2 -8 -3 1806.74 445.625 56
2 -8 -3 2211.4 596.786 39
-2 -8 3 192.918 935.133 21
-2 -8 3 229.983 1037.02 23
2 -8 -3 2252.1 578.04 33
2 -8 -3 1709.36 516.934 54
2 -8 -2 30323.2 2137.62 39
2 -8 -2 25860.8 1956.64 33
-2 -8 2 26557.3 4013.5 21
-2 -8 2 27644 4073.9 23
2 -8 -1 8862.81 907.2 57
-2 -8 1 8957.48 2282.7 21
2 -8 -1 7347.21 1038.54 39
2 -8 -1 7147.91 1802.48 23
-2 -8 1 6192.32 1944.1 23
2 -8 -1 8483.48 1011.09 33
2 -8 0 14760.2 2784.5 23
2 -8 0 16458.3 2776.79 21
-2 -8 0 12537.5 2628.53 23
2 -8 0 15832.7 1257.71 57
-2 -8 0 16849.6 1510.63 33
-2 -8 -1 1286.87 535.69 18
2 -8 1 1080.47 521.693 57
2 -8 1 1584.35 1281.29 23
-2 -8 -1 1457.37 590.586 33
2 -8 1 -448.389 971.304 21
-2 -8 -2 15426.8 1395.02 34
-2 -8 -2 19377.6 3024.52 18
2 -8 2 17957.4 3126.4 19
-2 -8 -2 16126.9 1393.34 33
2 -8 2 14730.5 2649.92 21
2 -8 2 17989.2 3038.79 23
-2 -8 -3 4041.33 791.688 34
2 -8 3 4963.55 1578.76 21
-2 -8 -3 4698.67 807.807 26
-2 -8 -3 4166.19 743.061 33
2 -8 3 4609.15 1554.09 23
2 -8 3 1728.79 941.505 19
2 -8 3 4504.93 623.091 46
-2 -8 -4 3697.02 702.547 34
2 -8 4 4362.76 1603.45 21
-2 -8 -4 2843.88 598.522 26
2 -8 4 2899.72 521.524 46
-2 -8 -4 3464.67 875.589 54
-2 -8 -5 15761.3 1236.62 34
-2 -8 -5 15259.6 1299.88 54
2 -8 5 14261.7 973.86 46
-2 -8 -6 9258.38 827.486 58
2 -8 6 8968.43 722.953 46
-2 -8 -6 11134.7 990.582 54
2 -8 7 2340.62 344.684 46
-2 -8 -7 5091.12 561.754 54
2 -7 -8 719.259 288.492 59
2 -7 -7 4340.74 673.649 59
2 -7 -6 -194.683 450.602 39
2 -7 -6 593.08 286.328 56
2 -7 -6 -949.645 721.917 22
2 -7 -5 1481.85 559.725 39
2 -7 -5 1502.94 354.876 56
-2 -7 4 32626.8 4817.33 15
2 -7 -4 29807.3 1482.26 56
2 -7 -4 31343.9 1754.71 39
2 -7 -4 29609.2 1640.23 54
-2 -7 4 25788.2 4218.23 19
2 -7 -3 52407.8 2253.17 39
2 -7 -3 48381 2174.52 33
-2 -7 3 44401.5 5105.37 15
-2 -7 3 43732.9 4883.82 19
2 -7 -2 8376.96 988.39 33
2 -7 -2 8446.35 877.646 57
2 -7 -2 8710.56 1018.14 39
-2 -7 2 10072.6 2324.41 4
-2 -7 2 7728.42 2125.35 15
-2 -7 2 7928.13 1945.3 21
-2 -7 2 8602.99 2079.68 19
-2 -7 1 9457.13 2166.38 21
-2 -7 1 14447.2 2932.23 4
2 -7 -1 9912.96 2107.45 23
-2 -7 1 6263.96 1829.25 23
2 -7 -1 10274.6 970.555 57
2 -7 0 40580 1935.47 57
2 -7 0 40302.1 4119.41 21
-2 -7 0 40301.6 4351.87 21
-2 -7 0 39786.4 4248.88 23
2 -7 0 40227.2 4277.86 23
-2 -7 0 51806.6 5282.48 4
-2 -7 -1 49396.8 5139.18 4
2 -7 1 43035.7 4501.25 19
2 -7 1 41081.2 4379.91 23
-2 -7 -1 38734.8 4144.15 23
2 -7 1 38119.6 4109.58 21
-2 -7 -1 44132.6 2216.54 33
-2 -7 -1 40674.9 4194 1
-2 -7 -2 23286.1 1628.53 33
-2 -7 -2 23820.2 3144.89 1
2 -7 2 21646.7 1316.4 46
2 -7 2 16686 2795.86 15
2 -7 2 20794.7 3087.12 21
-2 -7 -2 26480.6 3474.53 18
2 -7 2 21025.2 3317.2 19
-2 -7 -2 30079.1 4044.46 4
-2 -7 -3 12784.5 1282.8 34
2 -7 3 8137.71 2215.48 19
-2 -7 -3 10282.3 2084.49 18
2 -7 3 11755.2 1017.99 46
2 -7 3 7927.91 1990.72 15
2 -7 3 7434.17 1960.65 8
-2 -7 -3 12043.9 1208.22 33
2 -7 4 49046.5 5106.06 19
-2 -7 -4 52960 2388.79 26
-2 -7 -4 50915 2404.14 34
2 -7 4 48297.1 2038.47 46
-2 -7 -4 47910.7 2314.82 54
2 -7 5 25285.6 3807.66 19
-2 -7 -5 25743.4 1633.71 26
-2 -7 -5 23836.2 3184.78 22
-2 -7 -5 24639.2 1710.43 54
-2 -7 -5 25654.9 1720.58 34
-2 -7 -6 26204.5 1571.7 58
2 -7 6 26536.3 1460.78 46
-2 -7 -6 30098.9 1755.88 54
2 -7 7 12967.7 917.175 46
-2 -7 -7 16177.7 1171.91 54
-2 -7 -7 13644.3 980.239 58
2 -7 8 4136.71 468.194 46
-2 -7 -8 6066.18 606.488 54
2 -6 -9 3534.81 447.402 59
2 -6 -8 5799.98 603.879 32
2 -6 -8 6057.91 702.149 59
2 -6 -7 361.688 765.093 22
-2 -6 7 565.258 307.591 28
-2 -6 6 9597.2 909.885 28
2 -6 -6 9252.64 2079.63 22
2 -6 -6 8550.16 811.401 56
2 -6 -6 7916.06 915.641 39
2 -6 -5 14359.1 1150.29 39
-2 -6 5 17513.4 2985.2 14
2 -6 -5 11984.2 949.869 56
2 -6 -5 15464.2 2613.92 22
-2 -6 4 5155.14 1917.6 15
2 -6 -4 8463.3 847.159 56
-2 -6 4 9846.61 2169.53 14
2 -6 -4 9607.48 1002.99 39
2 -6 -4 8703.32 964.472 33
2 -6 -3 6819.33 858.122 33
-2 -6 3 3429.52 1251.28 19
-2 -6 3 6406.52 1852.6 15
-2 -6 3 4815.47 1335.99 14
2 -6 -3 7614.28 898.738 39
2 -6 -2 19041.9 1354.41 39
-2 -6 2 19539.9 2927.69 4
-2 -6 2 17684.4 2665.55 15
2 -6 -2 17330.5 1302.21 33
2 -6 -2 14000.1 2240.46 23
2 -6 -2 18771.2 1199.54 57
-2 -6 2 16765.9 2563.26 19
-2 -6 1 3358.17 1233.66 21
2 -6 -1 4275.56 607.583 57
-2 -6 1 3849.84 1394.66 15
-2 -6 1 2861.18 1223.94 4
2 -6 -1 6329.67 1699.36 23
2 -6 -1 4135.51 1392.07 21
-2 -6 1 3589.39 1128.13 19
-2 -6 0 43927.4 4474.78 4
2 -6 0 41220.6 3907.38 19
2 -6 0 38842 3630.27 21
-2 -6 0 37651.2 3713.42 23
2 -6 0 38223 3725.01 23
-2 -6 0 32276 3389.41 21
-2 -6 -1 53758.4 4542.95 1
2 -6 1 55442.9 4302.72 15
-2 -6 -1 51317.4 4346.92 23
-2 -6 -1 49965 4182.67 21
2 -6 1 46054.4 4064.83 21
2 -6 1 52051 4442.5 19
2 -6 1 52897.6 1847.96 46
-2 -6 -1 64122.6 4613.56 6
2 -6 2 945.482 307.406 46
2 -6 2 -5.43534 580.029 15
-2 -6 -2 1112.97 484.205 33
-2 -6 -2 478.739 872.199 18
2 -6 2 945.36 940.471 19
-2 -6 -2 2520.04 1082.11 1
-2 -6 -2 2868.25 1040.82 6
-2 -6 -3 4712.42 813.944 34
-2 -6 -3 4853.57 1280.81 6
-2 -6 -3 4619.34 1398.5 18
-2 -6 -3 3182.99 1122.48 1
2 -6 3 3984.25 1207.58 15
2 -6 3 4244.67 1557.42 8
-2 -6 -3 4503.16 800.177 33
-2 -6 -4 22735 1649.6 34
-2 -6 -4 21046.9 2926.54 18
2 -6 4 21895.1 3069.21 8
2 -6 4 21199.8 3105.18 15
-2 -6 -4 25143.1 1689.18 26
-2 -6 -4 21407.8 1584.02 54
-2 -6 -4 30508.1 3949.33 6
2 -6 5 19125.9 3058.75 15
-2 -6 -5 22527.9 1405.49 30
-2 -6 -5 23098.1 1618.18 26
-2 -6 -5 20992.9 3070.22 22
-2 -6 -5 21899.9 1638.66 34
-2 -6 -5 21941.9 1629.74 54
-2 -6 -6 2562.43 678.504 58
-2 -6 -6 3825.62 828.934 54
-2 -6 -6 3985.09 1317.31 22
2 -6 6 3631.05 508.362 48
2 -6 7 21618.4 1105.15 48
-2 -6 -7 20589.6 1401.61 58
-2 -6 -7 23279.3 1528.29 54
2 -6 8 -37.1592 186.677 48
-2 -6 -8 392.418 299.129 32
-2 -6 -8 -313.126 330.908 54
2 -6 9 2246.14 352.819 46
-2 -6 -9 2892.89 407.602 54
2 -5 -9 585.817 353.211 59
2 -5 -8 9159.92 858.23 32
-2 -5 8 10058.9 980.064 28
2 -5 -8 8505.61 1810.3 22
2 -5 -8 9675.57 930.753 59
2 -5 -7 17930.2 2799.36 22
-2 -5 7 13440.6 2300.62 16
2 -5 -7 17110.4 1306.93 59
-2 -5 6 46965.7 5072.12 14
-2 -5 6 56991.1 4627.76 16
2 -5 -6 48232.2 1920.8 56
2 -5 -6 55020.4 4704.63 22
2 -5 -6 50594.4 2146.3 39
-2 -5 5 6229.88 1717.26 14
2 -5 -5 6306.27 706.632 56
2 -5 -5 6403.13 798.655 39
-2 -5 5 6536.75 1530 12
2 -5 -5 7777.03 1822.2 22
-2 -5 5 8137.43 1710.23 16
-2 -5 4 56597.4 4828.83 14
2 -5 -4 53498.3 2115.48 39
-2 -5 4 57246.3 4072.8 16
2 -5 -4 51116.8 2043.75 33
2 -5 -4 50462.7 1817.06 56
2 -5 -3 17745.8 1215.15 39
-2 -5 3 16846.8 2253.64 4
-2 -5 3 13328.2 2111.52 14
2 -5 -3 15388.3 1116.92 33
2 -5 -2 51203.1 1953.53 33
-2 -5 2 50644.5 4056.98 4
2 -5 -2 44240.1 3637.97 23
-2 -5 2 50219.1 4016.69 15
-2 -5 2 49987.5 3537.12 14
-2 -5 2 47956 3701.34 19
-2 -5 1 4533.47 1231.71 15
2 -5 -1 4848.89 1227.59 23
2 -5 -1 5908.59 1395.99 21
-2 -5 1 5301.83 1241.74 19
-2 -5 0 51630.9 3761.4 15
-2 -5 0 54230.8 3899.77 23
2 -5 0 55337.3 3796.13 21
-2 -5 0 53970.2 3865.44 21
2 -5 0 55648 4004.31 19
-2 -5 -1 34975.9 3120.19 21
2 -5 1 33169.1 2917.27 15
-2 -5 -1 29568.8 2896.28 23
-2 -5 -1 37083.1 3411.51 1
2 -5 1 33389.8 3207.79 19
-2 -5 -2 61913.7 4479.22 18
-2 -5 -2 57834.5 2173.22 33
2 -5 2 50102.3 3813.61 15
-2 -5 -2 56437.7 4139.46 1
-2 -5 -3 17211.4 1262.35 34
-2 -5 -3 19850.4 2646.92 18
2 -5 3 17940.9 2651.01 8
2 -5 3 17346.2 1090 28
-2 -5 -3 17600.8 2688 6
-2 -5 -3 17060 2210.39 1
-2 -5 -3 16856.7 1264.55 33
-2 -5 -4 27226.8 3038.85 18
2 -5 4 21906.1 1183.78 48
-2 -5 -4 23041.7 3201.26 6
-2 -5 -4 24486.9 1608.46 26
-2 -5 -4 25228.7 1607.18 34
-2 -5 -4 24668.8 1565.2 54
2 -5 4 22921.4 2973.55 8
-2 -5 -5 21118.7 2903.19 18
2 -5 5 21625 1444.56 28
-2 -5 -5 23295.2 1620.96 26
-2 -5 -5 23301.5 1651.43 54
-2 -5 -5 24795.1 1487.57 30
-2 -5 -5 24802.9 3403.69 6
2 -5 5 21383.9 1168.67 48
-2 -5 -5 24213 3156.81 22
-2 -5 -5 22727.5 1643.95 34
2 -5 6 7313.66 727.103 48
2 -5 6 7926.93 939.402 28
-2 -5 -6 7154.19 996.922 58
-2 -5 -6 8274.39 2089.88 22
-2 -5 -6 8742.18 1109.51 54
2 -5 7 15490.9 1042.46 48
-2 -5 -7 15146.3 1317.07 58
2 -5 7 16078 1243.17 28
-2 -5 -7 17087.6 1431.96 54
-2 -5 -7 14019.1 2289.27 22
2 -5 8 4575.75 657.106 28
-2 -5 -8 4420.96 688.529 32
-2 -5 -8 5109.23 710.225 58
2 -5 8 4731.6 575.965 48
-2 -5 -8 4932.87 801.35 54
-2 -5 -9 2567.96 443.821 32
2 -5 9 2424.04 382.675 48
-2 -5 -9 2574.96 508.338 54
-2 -5 -10 6866.01 540.025 54
2 -4 -10 4884.53 502.143 59
2 -4 -9 12369.1 927.22 32
-2 -4 9 10222.9 819.949 31
-2 -4 9 12582.8 1057.07 28
2 -4 -9 11164.1 939.491 59
2 -4 -8 5912.39 1575.28 22
2 -4 -8 6041.82 759.081 32
2 -4 -8 4372.24 694.424 59
-2 -4 8 6758.49 1699.76 16
2 -4 -7 34856.1 1798.58 59
-2 -4 7 39823 4113.95 16
2 -4 -7 34199.6 3640.07 22
-2 -4 6 37042 3775.79 16
2 -4 -6 35774.3 1651.13 56
-2 -4 6 39240.5 3835.3 12
2 -4 -6 40498.6 3829.07 22
2 -4 -6 35911.8 1813.4 39
2 -4 -5 19849.7 2505.13 22
2 -4 -5 23655 1374.53 39
-2 -4 5 25000.6 2864.98 12
2 -4 -5 23838 1272.28 56
-2 -4 4 1081.38 679.881 12
2 -4 -3 9240.86 761.192 33
-2 -4 3 9067.73 1406.15 4
-2 -4 3 10692.7 1471.37 12
-2 -4 2 4543.35 1098.9 4
2 -4 -2 4461.3 1086.22 23
2 -4 -2 5600.29 597.713 33
2 -4 -1 817.882 678.556 21
-2 -4 1 1358.41 614.633 3
-2 -4 1 807.062 674.702 15
-2 -4 1 565.236 420.543 14
2 -4 -1 737.682 703.817 23
2 -4 -1 2155.84 922.504 19
-2 -4 1 124.222 425.356 19
2 -4 0 17482.3 1903.28 21
2 -4 0 19811 1934.11 15
-2 -4 0 17824.7 1882.04 15
-2 -4 0 15495.5 1836.73 21
2 -4 0 17232.9 1981.9 19
-2 -4 0 15786.8 1831.48 23
-2 -4 0 17272 1770.6 19
-2 -4 0 20746.7 1953.31 3
-2 -4 -1 19913.4 2133.5 23
2 -4 1 20473.7 2013.96 15
-2 -4 -1 20552.4 2256.45 1
-2 -4 -1 18509.7 2005.14 21
-2 -4 -2 32477.5 1446.91 33
-2 -4 -2 29944.5 2853.6 18
2 -4 2 28266.5 1168.17 28
-2 -4 -2 27832 2608.2 1
-2 -4 -3 83380.3 4860.18 18
2 -4 3 81846.3 4975.14 8
-2 -4 -3 85623.5 4677.72 1
-2 -4 -3 80179.1 2433.74 34
-2 -4 -3 82232.4 2435.46 33
-2 -4 -4 72092.9 2546.78 34
2 -4 4 72620.4 4649.41 8
-2 -4 -4 80185.5 5422.77 6
-2 -4 -4 73657.8 2604.29 26
-2 -4 -4 75992 5038.8 18
-2 -4 -4 78929.1 2613.94 54
-2 -4 -5 11096.1 1000.97 30
-2 -4 -5 13124.2 2336.79 22
2 -4 5 14052.6 1156.65 28
2 -4 5 13896.6 2685.85 14
-2 -4 -5 11022.2 1178.12 26
2 -4 5 9396.11 1773.79 8
-2 -4 -5 10041.8 1133.8 34
-2 -4 -5 11467.4 1140.31 54
-2 -4 -5 11962.9 2306.97 6
2 -4 6 10286.5 1054.74 28
-2 -4 -6 10490.6 2088.22 22
-2 -4 -6 11871.6 2489.19 6
2 -4 6 8390.96 1830.86 14
-2 -4 -6 10915.8 1219.23 54
-2 -4 -6 8258.23 1062.55 58
2 -4 7 4388.43 626.878 48
2 -4 7 4704.29 776.732 28
-2 -4 -7 2491.81 1165.54 22
-2 -4 -7 3790.99 781.166 58
-2 -4 -7 5053.89 914.638 54
2 -4 8 19346.8 1178.1 48
-2 -4 -8 21582.2 1450.57 32
2 -4 8 20777.8 1363.55 28
-2 -4 -8 21203.6 1563.76 54
-2 -4 -8 20456.4 2925.58 22
-2 -4 -8 18509.1 1389.12 58
-2 -4 -9 206.443 306.737 32
-2 -4 -9 371.907 381.63 54
2 -4 9 610.141 332.574 28
-2 -4 -9 486.372 281.923 58
2 -4 9 885.085 355.439 48
-2 -4 -10 1117.38 317.698 54
2 -4 10 1337.16 258.466 48
2 -4 10 480.618 219.112 46
2 -3 -10 1424.12 320.997 47
-2 -3 10 1547.27 325.647 31
2 -3 -10 2092.45 402.886 59
2 -3 -9 8629.72 869.875 59
2 -3 -9 8916.58 814.151 32
-2 -3 9 8333.93 842.039 31
2 -3 -9 8744.4 1883.65 22
2 -3 -8 34218.3 3785.4 22
2 -3 -8 40533.7 1833.01 54
-2 -3 8 40493.6 4203.86 16
2 -3 -8 39523.6 1880.19 59
2 -3 -8 39442.6 1834.76 32
2 -3 -7 8008.3 1793.59 22
-2 -3 7 5586.03 1560.49 12
2 -3 -7 5800.29 807.467 59
2 -3 -6 5418.68 675.998 56
-2 -3 6 4019.63 1107.38 25
-2 -3 6 5328.33 1450.51 12
2 -3 -6 4160.49 1188.37 22
2 -3 -6 5121.47 712.676 39
2 -3 -5 29289.6 2878.24 22
-2 -3 5 32012.4 3095.37 12
2 -3 -4 34950.2 2793.46 22
-2 -3 4 34417.2 2755.7 13
2 -3 -3 37200.4 1021.3 27
-2 -3 3 36558.3 2314.28 4
-2 -3 2 114143 3718.48 3
2 -3 -2 111454 1704.24 27
-2 -3 1 269199 5816.5 3
2 -3 -1 261295 5998.66 21
2 -3 -1 254454 6519.69 19
2 -3 -1 250982 6148.67 23
2 -3 0 13458 1553.17 19
-2 -3 0 14258.8 1424.92 21
2 -3 0 15129.3 1440.06 15
-2 -3 0 14260.2 1456.97 15
-2 -3 0 13815.1 1008.21 14
-2 -3 0 16455.9 1526.53 3
-2 -3 0 14562.1 1336.09 19
-2 -3 -1 54691.2 2977.88 3
2 -3 1 51358.8 2680.94 15
-2 -3 -1 56199.7 3029.72 23
-2 -3 -1 52067.5 3138.8 1
-2 -3 -1 56875 2985.33 21
-2 -3 -2 3658.03 943.28 3
2 -3 2 5215.44 486.156 28
-2 -3 -2 4243.48 1095.34 18
-2 -3 -2 5393.91 1177.33 1
-2 -3 -3 4724.56 1255.68 18
-2 -3 -3 6196.52 653.724 33
2 -3 3 10945.4 747.496 28
2 -3 3 8398.21 1588.92 14
2 -3 3 10926 1733.14 8
-2 -3 -3 6232.68 665.938 34
-2 -3 -3 6351.74 749.044 26
2 -3 4 8894.6 762.192 28
2 -3 4 11454.5 1807.82 14
2 -3 4 8693.52 1557.12 8
-2 -3 -4 4653.75 765.299 26
-2 -3 -4 5398.26 731.494 34
-2 -3 -4 5592.18 1459.71 18
2 -3 4 9258.19 1550.89 16
-2 -3 -4 4611.05 1316.51 22
2 -3 4 8311.48 630.633 31
-2 -3 -5 24760.4 2883.73 22
-2 -3 -5 25315.6 1451.59 30
2 -3 5 33354.7 1591.93 28
2 -3 5 34075.8 3035.03 8
-2 -3 -5 24687.5 1567.3 54
2 -3 5 24200.1 1172.28 31
-2 -3 -5 23344.9 2990.58 6
2 -3 5 22849.5 2861.57 14
2 -3 5 31713.2 3162.19 16
-2 -3 -6 38261.1 2065.48 54
2 -3 6 36110.7 1534.05 31
-2 -3 -6 34446.1 1984.66 58
2 -3 6 38475 1803.14 28
2 -3 6 39364.2 3747.24 16
-2 -3 -6 38802.5 4038.08 6
2 -3 6 31664.7 3227.72 14
-2 -3 -6 39356.9 3833.13 22
2 -3 7 38720.2 3856.61 16
-2 -3 -7 38384.4 4211.58 6
2 -3 7 39706.6 1892.78 28
2 -3 7 27512.9 3322.84 14
2 -3 7 38292.6 1545.87 40
-2 -3 -7 36533.5 3964.09 22
-2 -3 -7 40642.5 2191.69 54
-2 -3 -7 35326.5 2066.6 58
-2 -3 -8 35447.1 1954.07 58
-2 -3 -8 36328.9 4037.38 22
2 -3 8 39248.9 1546.54 40
-2 -3 -8 41477.8 2071.12 32
2 -3 8 38987.5 1853.36 28
2 -3 8 36977.7 1628.05 48
-2 -3 -8 41927.5 2201.31 54
-2 -3 -9 7137.82 932.852 54
-2 -3 -9 7063.79 855.738 32
2 -3 9 6819.99 739.109 28
2 -3 9 6698.74 609.162 40
-2 -3 -9 6948.66 787.488 58
2 -3 9 7440.17 718.629 48
2 -3 10 4978.97 487.077 48
-2 -3 -10 5055.83 663.84 54
-2 -2 11 250.8 166.738 40
-2 -2 10 766.57 299.486 31
2 -2 -10 -206.285 330.307 47
2 -2 -10 651.125 299.108 59
2 -2 -9 1770.47 456.829 32
2 -2 -9 1450.52 481.577 59
2 -2 -8 23723.5 1454.06 32
2 -2 -8 23003.9 1476.61 59
-2 -2 8 18053.2 2497.45 25
2 -2 -8 21693.5 3002.94 22
2 -2 -8 24389.8 1475.07 54
-2 -2 8 27865.4 3515.14 16
2 -2 -7 2493.35 557.924 32
2 -2 -7 2293.08 558.59 59
2 -2 -7 2270.57 521.024 54
-2 -2 7 2949.74 1102.4 25
-2 -2 7 2206.48 936.768 12
-2 -2 7 2465.2 1010.42 2
2 -2 -7 3210.65 1385.45 22
2 -2 -6 9044.43 880.236 59
-2 -2 6 8599.09 1647.68 2
2 -2 -6 9447.14 856.927 56
-2 -2 6 10855.7 1834.9 25
-2 -2 6 9286.39 1857.6 12
2 -2 -6 8246.96 1780.12 22
-2 -2 5 14732.6 1998.42 24
-2 -2 5 16113.5 2077.52 12
2 -2 -5 16834.1 2070.27 22
2 -2 -4 90095.9 4267.37 22
-2 -2 4 90653.4 3781.12 2
-2 -2 4 95830.5 4400.26 13
-2 -2 4 83000.1 3765.01 20
-2 -2 3 174174 4408.19 2
-2 -2 3 182452 3865.05 4
2 -2 -3 182664 2255.14 27
2 -2 -2 39899.6 1050.6 11
-2 -2 2 38800.6 1654.2 2
2 -2 -1 24639.4 897.879 9
-2 -2 0 69932.1 3280.64 1
2 -2 0 69160.6 2354.56 15
-2 -2 0 68491 2560.17 15
2 -2 0 68062.7 2677.91 19
-2 -2 0 71852.7 2878.19 3
-2 -2 -1 25367 2027.43 1
2 -2 1 26153.5 2169.45 8
-2 -2 -1 26453.6 2037.73 18
-2 -2 -1 30807.7 1978.15 3
-2 -2 -2 55451.1 3223.75 18
-2 -2 -2 62128 1731.09 26
-2 -2 -2 58719.5 3205.79 1
2 -2 2 50095.8 3032.11 8
2 -2 2 65590.7 1496.95 28
-2 -2 -2 51966.4 2812.68 3
2 -2 3 14540 1885.88 16
2 -2 3 15041.5 814.24 28
2 -2 3 15299.2 2077.35 8
2 -2 3 13556.1 1923.84 14
-2 -2 -3 8111.98 744.321 26
-2 -2 -3 7938.77 1252.31 22
-2 -2 -3 6675.59 1368.87 18
2 -2 4 24491.7 2551.23 16
-2 -2 -4 17708.6 1102.5 30
2 -2 4 22572.6 1006.11 31
2 -2 4 25509.7 1186.16 28
2 -2 4 22103.7 2239.5 8
2 -2 4 22675 2425.05 14
-2 -2 -4 18627.8 2064.02 22
-2 -2 -4 15662.5 1192.71 26
2 -2 5 6326.13 1201.09 14
2 -2 5 5580.48 651.432 28
-2 -2 -5 6005.27 771.669 30
2 -2 5 5290.57 1358.82 16
2 -2 5 6527.92 648.17 31
-2 -2 -5 10218.4 1778.6 22
2 -2 5 5045.11 989.718 8
-2 -2 -5 6626.03 1537.01 6
-2 -2 -6 11013.9 2007.34 22
2 -2 6 13251.5 2062.06 16
2 -2 6 13430.4 958.715 31
2 -2 6 13248.7 1029.58 28
-2 -2 -6 13438.1 1235.28 58
2 -2 6 13218.3 892.69 40
-2 -2 -6 15633.3 1276.82 54
-2 -2 -6 10957.5 2029.38 6
2 -2 6 11574.1 1873.11 14
-2 -2 -7 14380.7 2407.09 22
-2 -2 -7 14124.2 1248.97 32
2 -2 7 11650.7 2179.85 16
-2 -2 -7 14339.1 1306.98 54
2 -2 7 12431.9 1085.99 28
-2 -2 -7 12148.1 1240.15 58
2 -2 7 11552.6 966.658 31
2 -2 7 12762 955.943 40
-2 -2 -7 14593.1 2494.66 6
-2 -2 -8 14666.8 1289.78 32
-2 -2 -8 14581 1363.84 54
2 -2 8 13022.9 1093.07 28
-2 -2 -8 11179.2 1175.87 58
-2 -2 -8 12843.5 2492.46 22
2 -2 8 13198.7 983.904 40
2 -2 9 -68.1966 263.136 40
-2 -2 -9 -48.4527 480.624 32
2 -2 9 349.359 329.582 28
-2 -2 -9 -278.512 329.579 58
2 -2 9 187.704 292.127 48
-2 -2 -9 109.34 481.282 54
-2 -2 -10 3567.61 561.295 32
2 -2 10 2597.31 362.742 40
2 -2 10 3043.56 415.091 48
-2 -2 -11 759.656 226.576 47
2 -1 -11 2498.71 432.679 47
-2 -1 11 188.226 198.936 40
2 -1 -10 816.402 356.563 47
-2 -1 10 94.7393 180.994 41
-2 -1 10 619.068 298.684 31
2 -1 -9 57.9948 298.639 32
2 -1 -9 -11.9105 328.284 47
-2 -1 9 836.821 372.554 41
2 -1 -9 427.345 339.419 59
2 -1 -8 15579.1 1238.8 59
2 -1 -8 17015 1261.72 32
-2 -1 8 12051.6 2073.15 2
2 -1 -8 15788.3 1213.44 54
-2 -1 8 13113.2 2158.32 25
-2 -1 8 18060.2 2709.46 12
-2 -1 7 60899.5 4563.18 2
2 -1 -7 62739.1 2228.15 32
2 -1 -7 61822.8 4821.5 22
2 -1 -7 59371.6 2245.77 59
-2 -1 7 57929.9 4448.52 25
-2 -1 7 66227.7 4932.07 12
2 -1 -7 58802.5 2191.3 54
2 -1 -6 21355.9 1202.42 32
2 -1 -6 23066.1 1290.67 59
-2 -1 6 19980.5 2409.58 2
-2 -1 6 21564.8 2533.59 25
-2 -1 6 22658.8 2597.15 24
-2 -1 6 25530.1 2837.39 12
2 -1 -6 20081.5 2496.61 22
-2 -1 5 10722.9 1630.13 2
2 -1 -5 10018.9 1671.65 22
-2 -1 5 9592.94 1681.82 24
-2 -1 4 45867.5 3212.01 13
2 -1 -4 41174.5 2746.36 22
-2 -1 4 44035.2 2768.04 20
-2 -1 4 44319.9 2780.64 2
-2 -1 3 232174 4884.54 1
2 -1 -3 222008 3279.69 8
2 -1 -3 236481 2581.22 27
-2 -1 3 246226 6415.95 13
-2 -1 3 225540 5441.51 2
2 -1 -3 242959 4326.89 11
2 -1 -3 234557 5379.9 22
-2 -1 2 237761 5139.04 1
2 -1 -2 235693 3740.08 9
2 -1 -2 247538 4338.71 8
-2 -1 2 234017 4595.82 2
2 -1 -1 363525 4284.26 9
-2 -1 1 361375 6422.03 1
2 -1 -1 358987 5950.49 8
-2 -1 0 173642 4327.73 18
2 -1 0 186392 4498.59 8
-2 -1 0 177648 3098.41 5
2 -1 1 190758 4820.94 8
-2 -1 -1 191217 4334.62 3
2 -1 2 26132.4 2004.73 8
-2 -1 -2 31226.2 1895.38 22
-2 -1 -2 28577.9 2285.79 18
-2 -1 -3 24713.6 2014.78 3
2 -1 3 25506.9 1970.75 16
2 -1 3 25152 934.283 28
2 -1 3 23803 2101.88 8
-2 -1 -3 27574.1 1290.53 26
2 -1 3 22795 1756.95 14
-2 -1 -3 26179.2 2023.88 22
2 -1 4 85229 3902.06 16
-2 -1 -4 88009.9 2377.17 30
2 -1 4 80544.5 1869.47 28
2 -1 4 81853.7 3599.77 14
2 -1 4 89891.2 2015.71 31
-2 -1 -4 81936.5 3953.96 22
-2 -1 -5 27203.1 1533.06 30
2 -1 5 29395.4 2677.95 16
-2 -1 -5 28838 2827.09 6
2 -1 5 26327.3 1250.47 28
2 -1 5 26193.2 1199.05 31
-2 -1 -5 29462.1 2736.91 22
2 -1 5 23641.9 2220.73 14
2 -1 6 12462.5 922.886 31
-2 -1 -6 12924 1074.86 32
-2 -1 -6 14565.3 2211.4 6
2 -1 6 11834.7 1900.75 16
2 -1 6 11566.6 922.207 28
-2 -1 -6 12981.1 1120.86 54
-2 -1 -6 15306.4 2357.4 22
2 -1 6 13248.3 913.259 40
-2 -1 -6 12760.3 1179.21 58
2 -1 7 30289 3201.55 16
2 -1 7 28627.4 1489.96 31
2 -1 7 28697.6 1518.33 28
-2 -1 -7 30779.3 1755.77 32
-2 -1 -7 29593.6 3461.39 22
2 -1 7 29344 1440.64 40
-2 -1 -7 26786 1754.88 58
-2 -1 -7 30383.5 1798.29 54
-2 -1 -8 35183 1954.73 32
-2 -1 -8 33889.6 1998.21 54
-2 -1 -8 29742 1834.72 58
2 -1 8 33939.2 1598.29 40
2 -1 8 33626.8 1662.05 31
2 -1 8 33194.8 1673.73 28
-2 -1 -9 14770.5 1203.79 58
-2 -1 -9 16600 1348.1 32
2 -1 9 15361 1029.25 48
2 -1 9 16032.3 1081.78 28
2 -1 9 16861.1 1081.55 40
-2 -1 -9 17657.6 1463.3 54
-2 -1 -10 3835.86 621.599 32
2 -1 10 3673.51 446.055 48
-2 -1 -10 3829.67 619.095 47
2 -1 10 3438.94 445.436 40
-2 -1 -10 3191.06 501.224 58
-2 -1 -11 2978.07 376.697 47
2 -1 11 3261.18 317.985 40
2 0 -11 2064.05 349.843 47
-2 0 11 1384.28 216.349 41
-2 0 11 2444.83 365.66 40
-2 0 10 8800.43 797.408 31
2 0 -10 9521.07 873.129 47
2 0 -10 8527.09 765.719 59
-2 0 10 7338.98 721.173 41
2 0 -9 3129.11 536.608 32
2 0 -9 3450.71 615.4 47
-2 0 9 2557.38 914.902 16
-2 0 9 3677.52 620.494 41
2 0 -9 4165.49 659.319 59
2 0 -8 27470.4 1684.24 47
-2 0 8 26281.6 3234.58 2
2 0 -8 29961.5 1673.42 32
-2 0 8 32467.7 3539.14 25
2 0 -8 28901.5 1687.15 59
-2 0 8 30480.9 3306.35 12
-2 0 8 26185.4 1451.12 52
-2 0 7 40111.9 3798.56 25
-2 0 7 48090.1 4103.92 12
-2 0 7 39657.1 3715.55 2
2 0 -7 41527.8 1916.37 59
2 0 -7 43197.1 1898.51 32
2 0 -6 82269.8 2333.42 32
-2 0 6 84012.4 5111.24 25
-2 0 6 84209.3 5162.69 24
-2 0 6 79014.1 4760.63 2
-2 0 6 86633.2 4896.64 12
2 0 -6 81702.7 5028.51 22
2 0 -6 80334.6 2415 59
-2 0 6 76771.6 2224.33 36
-2 0 5 15202.9 2097.04 24
2 0 -5 15202 896.452 32
2 0 -5 14768.4 1911.35 22
-2 0 5 17343.3 2090.17 2
-2 0 4 4782.19 1082.54 2
2 0 -4 4367.59 973.659 22
-2 0 4 4397.24 1204.45 24
-2 0 3 28879.8 2492.37 13
-2 0 3 28505.3 2249.82 20
-2 0 3 28925 2082.58 2
2 0 -3 26636.1 1753.58 22
2 0 -3 28570.1 1741.28 11
2 0 -2 48392.6 1990.95 9
-2 0 2 55849 2917.1 13
-2 0 2 47611.1 2344.2 2
-2 0 2 53601.5 2797.53 20
-2 0 1 277900 4789.82 18
2 0 -1 281979 4338.88 9
2 0 -1 288740 4658.87 8
-2 0 0 342547 6200.15 18
2 0 0 347310 5600.44 8
2 0 0 346718 4729.49 7
-2 0 0 353439 5021.2 5
2 0 1 258601 5286.21 8
-2 0 -2 334545 5882.63 3
2 0 3 1083.04 521.169 16
-2 0 -3 1339.55 532.209 3
2 0 3 373.222 335.723 14
-2 0 -3 1397.47 551.801 22
-2 0 -4 51143.9 1638.31 32
2 0 4 50147.8 1395.62 28
2 0 4 53112.7 1444.21 31
-2 0 -4 49625.9 3185.49 22
2 0 4 52765.4 2901.14 16
2 0 5 67900.3 3731.02 16
-2 0 -5 67143.5 2190.05 32
2 0 5 69157.2 1897.99 31
-2 0 -5 73803.3 4067.47 6
-2 0 -5 70322.4 4283.85 22
2 0 5 66426.5 1811.39 28
2 0 6 1257.82 792.935 16
-2 0 -6 1267.85 498.038 32
-2 0 -6 1633.19 471.321 54
2 0 6 1898.18 436.114 31
-2 0 -6 3130.56 1217.15 17
-2 0 -6 1529.27 937.904 22
-2 0 -6 2165.43 559.358 58
2 0 6 1609.82 399.417 28
2 0 6 1824.22 365.36 40
-2 0 -7 40032.7 1975.89 32
2 0 7 40507.7 3439.89 16
-2 0 -7 35129.2 1972.9 58
2 0 7 37519.4 1687.3 31
2 0 7 37031.2 1614.34 28
2 0 7 39144.4 1597.75 41
2 0 7 38988.2 1662.37 40
-2 0 -7 38799 2024.03 54
-2 0 -8 29983 1883.58 54
2 0 8 30267 1470.76 28
-2 0 -8 27769.9 1769.57 58
2 0 8 31418.7 1565.76 40
-2 0 -8 31952.2 1894.73 32
-2 0 -9 100.704 398.68 58
-2 0 -9 89.561 418.805 32
2 0 9 -70.7086 234.339 48
2 0 9 384.996 421.452 40
-2 0 -10 11023.9 975.355 47
2 0 10 11235.9 699.427 48
2 0 10 11910.8 815.327 40
-2 0 -10 10128.3 869.535 58
-2 0 -11 -219.477 194.347 47
2 0 11 -109.251 165.761 40
2 1 -11 -79.1191 204.824 47
-2 1 11 -99.1682 154.967 40
-2 1 11 -161.442 150.353 41
-2 1 10 852.975 289.554 31
2 1 -10 288.074 248.863 59
2 1 -10 1092.71 415.157 47
-2 1 10 388.423 250.535 41
2 1 -9 268.283 346.095 59
2 1 -9 410.701 430.979 47
-2 1 9 286.455 260.396 52
-2 1 9 301.423 351.686 41
2 1 -8 13909.5 1208.01 32
2 1 -8 15730.8 1306.33 47
2 1 -8 16459.8 1291.13 59
-2 1 8 16777 2664.19 25
-2 1 8 15518.5 2344.44 12
-2 1 8 15462.3 2480.36 2
-2 1 8 13895.8 1064.63 36
-2 1 8 13090.6 1111.62 52
2 1 -7 56657.9 2290.15 59
2 1 -7 58734.8 2351.7 47
-2 1 7 54913.5 4485.58 25
2 1 -7 63076 2326.15 32
-2 1 7 63738.4 4499.94 12
-2 1 7 64463.8 4772.02 2
-2 1 7 56194.3 2136.84 36
-2 1 6 20680.8 2617.85 25
2 1 -6 21206.8 1241.04 32
-2 1 6 23513.8 2540.34 12
-2 1 6 21806.8 2619.4 2
2 1 -6 23024.2 1352.78 59
-2 1 6 20871.1 1264.53 36
2 1 -5 10327.7 775.422 32
-2 1 5 9542.85 1706.28 25
-2 1 5 8863.65 1674.92 24
-2 1 5 11473.5 1806.34 2
-2 1 4 45325.6 3274.68 24
2 1 -4 43828 2342.73 10
-2 1 4 44644 3088.73 2
2 1 -4 40403.3 2469.48 11
-2 1 3 231334 6122.38 2
-2 1 3 239472 6691.37 24
2 1 -3 238603 5559.79 11
2 1 -3 225356 4929.63 10
-2 1 2 240312 5564.36 2
2 1 -2 236874 4998.43 9
2 1 -2 239353 4809.34 10
-2 1 2 248433 6285.96 20
2 1 -1 389216 5834.51 9
-2 1 1 374444 7362.16 13
-2 1 0 191257 4530.49 13
-2 1 0 188408 4198.7 5
-2 1 0 189589 4874.36 20
-2 1 -1 187750 4348.11 5
-2 1 -1 198456 3960.58 13
2 1 1 191150 4791.93 7
-2 1 -1 193000 4700.59 20
-2 1 -2 23463.9 1428.36 3
-2 1 -2 25413.7 1212.38 13
-2 1 -3 23951.5 1570.41 3
2 1 3 24333.9 2272.23 7
-2 1 -4 80936.8 2130.12 32
2 1 4 85218.6 1826.19 31
2 1 4 79247.2 3331.57 16
2 1 4 80006.6 1617.75 28
-2 1 -5 24843.3 2951.55 17
2 1 5 28103 1080.32 28
2 1 5 28240.7 2239.14 16
2 1 5 26527.8 1177.93 31
-2 1 -5 27559.2 1474.61 32
-2 1 -6 13497.9 1129.68 32
-2 1 -6 13444.9 2234.72 17
-2 1 -6 12567.3 1110.99 58
2 1 6 12191.2 884.912 31
2 1 6 12847.6 2217.83 7
2 1 6 13731.2 943.627 41
2 1 6 14622.3 959.417 40
-2 1 -6 12440.1 1116.51 54
2 1 7 25969.7 3317.92 7
-2 1 -7 30102.1 1779.14 32
2 1 7 30189 1475.69 41
2 1 7 29702.6 1454.45 40
-2 1 -7 24780.8 3098.3 17
2 1 7 29151.3 1466.71 31
-2 1 -7 29172.4 1790.43 54
-2 1 -7 28048.6 1755.39 58
-2 1 -8 33760.9 1979.63 32
2 1 8 33057.6 1401.85 48
-2 1 -8 32983.9 1873.34 47
-2 1 -8 29406 1823.67 58
2 1 8 35798.8 1632.14 41
2 1 8 34426.7 1609.18 40
-2 1 -9 15793.5 1343.77 32
2 1 9 14919.6 882.634 48
-2 1 -9 16071 1278.76 47
2 1 9 16442.3 1028.91 41
-2 1 -9 14585.4 1243.04 58
2 1 9 17882.2 1130.86 40
-2 1 -10 3828.8 607.522 47
-2 1 -10 4208.52 598.177 58
2 1 10 4029.1 501.15 40
-2 1 -11 2456.7 348.41 47
2 1 11 3504.29 342.146 40
2 2 -11 401.703 211.936 47
-2 2 11 526.471 192.516 41
-2 2 11 647.436 173.27 40
2 2 -10 939.658 398.947 47
-2 2 10 157.042 192.987 31
-2 2 10 437.451 293.551 41
-2 2 9 1048.98 334.769 35
-2 2 9 1641.66 380.706 31
2 2 -9 1347.05 522.584 47
2 2 -9 1351.91 503.145 59
-2 2 9 1378.48 524.102 41
-2 2 9 1379.34 438.775 52
2 2 -8 22543.2 1562.98 47
2 2 -8 23944.4 1542.21 59
-2 2 8 24220.5 1519.4 52
2 2 -7 2102.31 547.998 59
-2 2 7 3113.16 609.511 52
2 2 -7 2413.02 589.457 47
-2 2 7 2007.79 1332.28 25
-2 2 7 3304.02 1293.08 2
-2 2 7 1853.96 481.06 36
-2 2 7 1674.02 793.036 12
2 2 -6 8097.81 860.613 47
-2 2 6 8235.53 1658.34 2
-2 2 6 8958.14 897.521 36
-2 2 6 8555.33 1823.16 25
-2 2 6 9506.03 1566.95 12
2 2 -6 9298.95 913.348 59
2 2 -6 7868.83 733.747 51
2 2 -5 14580.1 1726.56 10
-2 2 5 13042.7 1979.73 2
-2 2 5 15653.6 2124.44 25
-2 2 5 15964.2 1054.7 36
-2 2 4 89075.7 4806.7 24
-2 2 4 91695.2 4380.87 25
2 2 -4 90846.9 4073.77 11
-2 2 4 93405.7 4654.69 2
2 2 -4 88145.9 3924.82 10
2 2 -3 173891 5233.18 10
-2 2 3 181683 5830.99 2
-2 2 3 183257 6131.68 24
2 2 -3 187498 5428.55 11
2 2 -2 43892.8 2420.05 9
-2 2 2 41177.7 2606.12 2
2 2 -2 40424.6 2450.1 10
-2 2 2 35845.7 1075.89 10
-2 2 2 39196.6 2590.19 24
2 2 -1 25233 1725.1 9
2 2 -1 25535.2 1846.23 10
-2 2 1 25548.2 1874.43 24
-2 2 1 25032.9 1536.4 17
-2 2 0 69934.2 2955.84 17
2 2 0 73204.4 2738.58 9
2 2 0 72591.9 2925.3 10
-2 2 0 73877.6 2988.16 5
2 2 1 29098.8 2160.91 7
-2 2 -1 27147.2 1890.47 5
-2 2 -1 23249.1 2097.82 17
-2 2 -2 55968.5 1973.01 3
-2 2 -2 50420.3 3217.38 17
2 2 2 59194.5 3388.66 7
-2 2 -3 13906.7 2188.77 17
2 2 3 6571.86 1309.91 7
-2 2 -4 24325.1 1361.02 32
-2 2 -4 22525.4 2964.62 17
-2 2 -5 6763.39 868.203 32
2 2 5 5836.77 586.63 35
2 2 5 4859.84 1414.69 7
2 2 5 6088.28 584.912 31
-2 2 -6 12374.1 2126.06 17
-2 2 -6 13666.8 1170.1 47
-2 2 -6 12377.5 1009.12 43
-2 2 -6 14398.5 1249.44 32
2 2 6 14315.2 996.744 41
2 2 6 12147.1 2177.53 7
2 2 6 14562.3 963.257 40
-2 2 -6 12169.9 1136.87 58
2 2 6 14416.1 960.485 35
-2 2 -7 13097.9 2217.01 10
-2 2 -7 13749.6 1312.86 32
-2 2 -7 12798.3 1230.36 58
-2 2 -7 12199.6 1138.63 47
-2 2 -7 13454.5 2325.3 17
2 2 7 13372.7 1025.13 41
2 2 7 12048.5 926.145 40
2 2 7 13350.6 2572.62 7
-2 2 -8 13288.2 1226.33 47
2 2 8 14622.9 1079.75 41
2 2 8 14212.7 1026.68 40
-2 2 -8 12217.5 1234.27 58
-2 2 -9 -82.2968 354.881 47
-2 2 -9 -275.193 441.302 58
2 2 9 193.8 254.642 41
2 2 9 -236.433 332.364 40
-2 2 -10 2492.12 466.56 47
2 2 10 2486.18 347.574 41
2 2 10 3153.99 417.142 40
-2 2 -10 3960.4 604.065 58
2 2 11 532.661 137.135 40
2 3 -11 3629.82 394.446 47
-2 3 11 3851.3 357 41
2 3 -10 1684.24 460.332 47
-2 3 10 1977.88 320.918 40
-2 3 10 1678.52 367.28 41
2 3 -9 9694.95 1047.92 47
-2 3 9 6715.44 718.923 35
2 3 -9 8215.01 847.763 59
-2 3 9 7841.18 845.541 41
-2 3 9 8778.81 879.929 52
2 3 -8 38914.7 2097.11 47
2 3 -8 39546.3 1972.19 59
-2 3 8 40046.3 1894.11 41
-2 3 8 41259.7 1966.62 52
2 3 -7 5343.61 827.339 47
-2 3 7 6892.31 1811.05 25
2 3 -7 5765.84 823.17 59
-2 3 7 7573.27 1863.48 2
-2 3 7 6433.91 837.841 52
2 3 -7 6449.51 738.535 51
-2 3 7 6727.1 828.698 36
2 3 -6 4879.42 727.931 47
2 3 -6 5166.72 675.606 51
-2 3 6 5048.58 1486.71 25
-2 3 6 6372.4 1744.06 2
2 3 -6 5177.65 743.059 59
-2 3 6 5785.1 774.902 36
2 3 -5 27790.5 2706.89 10
-2 3 5 29235.9 2861.69 25
-2 3 5 27738.2 3021.67 2
-2 3 5 28474.4 1488.18 36
-2 3 4 33529 3030.2 2
-2 3 4 35414.6 2837.62 25
2 3 -4 36114.1 2813.09 11
2 3 -4 38719.7 3035.43 10
-2 3 4 39039.4 1564.46 36
-2 3 3 37983 2937.8 2
2 3 -3 36156.7 2798.46 10
-2 3 3 34705.1 2465.72 25
2 3 -3 36691.4 2726.91 11
-2 3 2 106431 3740.55 25
-2 3 2 110089 4586.65 24
2 3 -1 260591 6200.01 9
-2 3 1 266019 6272.11 24
2 3 -1 279547 6874.93 10
-2 3 0 13068.2 1572.9 17
2 3 0 16146.2 1488.88 9
-2 3 0 15203.4 1560.71 5
2 3 0 15082.7 1577.51 10
-2 3 -1 49925.8 2758.92 5
-2 3 -1 49540.4 3038.28 17
2 3 1 55596.5 2609.47 9
-2 3 -2 5297.33 1271.73 17
2 3 2 4832.56 1317.21 7
-2 3 -3 8041.49 1774.49 17
2 3 3 6757.06 1457.08 7
-2 3 -4 6913.14 1776.11 17
2 3 4 5822.69 1398.4 7
2 3 4 5238.81 565.254 35
2 3 5 24794.7 1321.31 37
2 3 5 23883.7 1240.8 41
2 3 5 24947.5 3039 7
-2 3 -5 35821.2 3829.76 17
2 3 5 24034.9 1244.84 35
-2 3 -6 32782 3678.91 17
-2 3 -6 44249.1 2456.03 47
-2 3 -6 42005.1 2352.52 43
2 3 6 38121.1 1672.73 41
2 3 6 35742.4 3957.75 7
2 3 6 36274.8 1490.86 40
-2 3 -6 37048.4 2627.75 58
2 3 6 38743.4 1677.06 35
-2 3 -6 47042.2 4841.72 10
-2 3 -7 37978.6 2127.78 47
2 3 7 38052.2 1731.81 41
2 3 7 38096.2 4019.79 7
2 3 7 36476.8 1564.37 40
-2 3 -7 35607.8 4153.12 10
2 3 7 41673.3 1764.67 35
-2 3 -7 32969.7 1989.63 58
-2 3 -8 38803.2 2045.77 47
2 3 8 38804.5 1590.98 40
2 3 8 39304.9 1742.75 41
-2 3 -8 34716 2047.5 58
2 3 8 41356.1 1670.74 35
-2 3 -9 7014.66 859.094 58
-2 3 -9 6483.26 785.447 47
2 3 9 7301.15 714.908 41
2 3 9 7740.41 672.518 40
-2 3 -10 4110.55 514.513 47
-2 3 -10 4496.3 564.553 58
2 3 10 4638.21 459.977 41
2 3 10 5332.23 466.849 40
2 4 -10 6496.22 677.28 47
-2 4 10 5367.53 517.169 41
2 4 -9 11399.7 1084.48 47
-2 4 9 10727.3 890.158 41
-2 4 9 9343.89 815.628 35
-2 4 8 4343.93 668.472 35
2 4 -8 5063.16 826.647 47
-2 4 8 5549.55 798.067 52
2 4 -8 6296.12 840.712 59
-2 4 8 5486.08 736.463 41
2 4 -8 5488.96 678.842 51
2 4 -7 37138 1999.11 59
-2 4 7 35575.3 1775.66 41
-2 4 7 38078.8 1915.28 52
2 4 -7 35465.3 2017.45 47
2 4 -7 34885 1724.86 51
2 4 -6 34369.8 3402.57 10
-2 4 6 38164.2 1881.09 36
-2 4 6 37952.3 4040.3 2
2 4 -6 32272 1656.63 51
2 4 -6 35211.8 1924.09 59
-2 4 6 35173.8 1780.99 52
2 4 -6 34721 1928.48 47
2 4 -5 23545.2 1498.04 59
-2 4 5 22351.2 2903.47 2
2 4 -5 24727.2 1542.75 47
-2 4 5 23628.7 2604.65 25
2 4 -5 24234.7 2815.56 10
-2 4 5 23231.1 1361.39 52
-2 4 5 23110.5 1403.58 36
2 4 -5 20299.7 1297.24 51
2 4 -4 1513.39 857.194 10
-2 4 4 1405.3 421.732 36
-2 4 4 1168.74 560.261 25
-2 4 4 1473.41 724.423 2
2 4 -4 1551.23 775.482 11
2 4 -3 8955.91 1648.97 10
-2 4 3 9076.24 1342.09 25
2 4 -3 10550.7 1606.31 11
-2 4 3 10013.4 807.505 36
2 4 -2 4841.37 1065.46 11
2 4 -2 6862.99 1417.8 10
2 4 -1 326.322 386.677 9
2 4 -1 745.833 611.686 10
-2 4 1 727.074 328.069 10
2 4 0 18594.4 1760.59 9
2 4 0 17809.9 1925.34 10
-2 4 0 16448.6 1781.09 5
-2 4 0 19319.1 1931.8 10
-2 4 -1 18794.9 1952.49 5
2 4 1 17536.9 1671.31 9
-2 4 -1 15339.6 1845.04 10
-2 4 -2 27797.6 2787.12 17
2 4 2 23377.7 1890.54 9
2 4 2 29389.9 1210.76 35
-2 4 -3 82383 5156.61 17
2 4 3 85357.7 3776.95 9
2 4 3 81579.7 2154.19 35
-2 4 -4 78100.3 5446.24 17
2 4 4 74797.1 2209.69 35
2 4 4 83107 3974.7 9
-2 4 -4 74209.2 2475.33 43
2 4 4 76751 2187.6 41
2 4 4 76171.5 2240 37
-2 4 -4 73070.9 5240.55 10
2 4 5 12307.6 2311.75 7
-2 4 -5 9842.98 1021.36 47
2 4 5 10933.7 933.956 35
-2 4 -5 10971.3 1050.25 43
2 4 5 10584 876 41
2 4 5 12568.8 832.228 40
-2 4 -5 11604.6 2211.42 10
-2 4 -5 12035.4 1136.98 58
-2 4 -5 9370.6 2048.36 17
2 4 5 11410.4 955.07 37
-2 4 -6 10797.9 2331.7 10
2 4 6 10186.8 970.984 37
-2 4 -6 8158.74 997.95 47
-2 4 -6 8691.7 1003.05 43
2 4 6 10518.9 920.246 41
2 4 6 10152.4 799.289 40
2 4 6 9616.49 2106.41 7
2 4 6 10718.1 957.716 35
-2 4 -6 13097.4 1426.68 58
-2 4 -7 4350.45 903.563 47
2 4 7 5051.64 681.925 35
-2 4 -7 3811.66 651.512 43
-2 4 -7 4752.98 926.851 58
2 4 7 4638.1 675.325 41
2 4 7 3964.91 525.403 40
-2 4 -8 18037.8 1381.32 47
2 4 8 21310.1 1271.99 41
2 4 8 19511.3 1062.25 40
-2 4 -8 21696.5 2023.89 58
2 4 8 20523.4 1197.62 35
-2 4 -9 197.458 268.337 47
2 4 9 761.803 320.016 41
2 4 9 165.792 195.849 40
2 4 10 860.998 218.753 41
2 5 -10 187.251 198.609 47
-2 5 10 -43.4384 131.51 41
2 5 -9 149.914 344.683 47
-2 5 9 561.501 263.696 35
-2 5 9 185.301 205.315 41
2 5 -8 10389.6 1122.94 47
-2 5 8 9085.59 889.475 35
-2 5 8 8670.02 805.86 41
-2 5 8 10970.4 995.867 52
2 5 -7 17269.6 1465.97 47
-2 5 7 16300 1148.11 41
2 5 -7 15987.1 1181.89 51
-2 5 7 17157.2 1288.92 52
-2 5 7 16785.5 1273.06 35
-2 5 6 48924.2 1947.84 53
2 5 -6 48183.9 2355.32 47
-2 5 6 47679 1952.97 41
2 5 -6 50312.1 4403.13 10
2 5 -6 46028 2046.49 51
-2 5 6 48934.1 2115.99 52
2 5 -5 6369.47 902.362 47
-2 5 5 5714.75 726.816 53
2 5 -5 6685.16 702.736 49
-2 5 5 6366.91 693.502 41
-2 5 5 6695.6 863.941 36
-2 5 5 5971.18 751.488 52
2 5 -5 6555.35 1609.67 10
2 5 -5 6267.27 791.678 51
2 5 -4 54874.3 2043.07 49
2 5 -4 48693.4 1715.54 45
-2 5 4 50546.8 1913.3 52
2 5 -4 52797.9 4403.36 10
-2 5 4 52369.3 2059.56 36
2 5 -4 53896.9 2361.71 47
2 5 -4 57423.3 2208.25 51
2 5 -3 15779.7 1092.97 49
2 5 -3 14527.5 2217.27 10
2 5 -3 15054.6 1081.42 51
2 5 -3 15822.1 2074.42 11
2 5 -3 17658.8 1276.8 47
-2 5 3 14721.2 1030.93 36
-2 5 2 48492.7 1701.1 36
2 5 -2 47573.7 3381.63 11
2 5 -2 50326.7 3836.04 10
2 5 -1 6527.59 1264.61 11
-2 5 1 5676.53 1255.9 5
2 5 -1 6351.22 1364.03 10
-2 5 0 50714.3 3336.91 5
2 5 0 49077.8 3137.43 9
2 5 0 53940.5 3733.75 10
-2 5 0 53597.1 3567.38 10
2 5 1 33300.7 2480.39 9
2 5 1 32512.9 1315.87 35
-2 5 -1 34450.9 3121.32 10
2 5 2 60244.1 3310.91 9
2 5 2 57110.9 1867.27 35
-2 5 -2 56262.7 4268.34 10
-2 5 -3 15710.6 1187.8 43
2 5 3 17935 1067.02 41
-2 5 -3 15970.3 2441.7 10
-2 5 -3 15201.3 1189.15 58
2 5 3 16005.3 1080.55 35
2 5 3 17534.1 1069.82 53
-2 5 -4 23881.6 1527.17 43
2 5 4 24897 1319.87 41
2 5 4 24695.9 1285.71 53
-2 5 -4 22293.6 3072.99 10
-2 5 -4 24720.3 1594.42 58
2 5 4 24050.7 1367 37
2 5 4 24070.5 1364.31 35
-2 5 -5 23492.8 1581.05 43
2 5 5 22429.5 1296.19 41
-2 5 -5 22036.8 1621.74 58
2 5 5 22986.1 1388.28 37
-2 5 -5 27501 3720.33 10
2 5 5 24218 1424.47 35
-2 5 -6 8092.12 964.265 47
-2 5 -6 7131.83 918.454 43
2 5 6 9328.15 888.984 41
-2 5 -6 8253.23 1128.52 58
2 5 6 8730.33 888.872 35
2 5 6 8367.02 888.765 37
2 5 7 16635.4 1182.75 35
-2 5 -7 14173.7 1210.09 47
-2 5 -7 16529.5 1567.1 58
-2 5 -7 15955 1233.61 43
2 5 7 17127.8 1155.39 41
-2 5 -8 3726.23 601.66 47
2 5 8 4986.82 594.179 41
-2 5 -9 1302.52 313.255 47
2 5 9 2757.46 384.924 41
2 5 10 8304.95 457.414 41
2 6 -9 3069.47 507.413 47
-2 6 9 2384.28 306.017 41
-2 6 9 2449.86 348.79 35
2 6 -8 6742.99 856.06 47
-2 6 8 5872.36 645.749 35
-2 6 8 5436.54 544.005 41
-2 6 7 1143.09 399.375 35
2 6 -7 721.281 496.435 47
-2 6 7 249.838 202.77 41
2 6 -6 8691.02 1117.74 47
-2 6 6 7618.44 863.082 35
-2 6 6 8406.47 768.907 41
-2 6 6 7034.05 772.002 53
-2 6 6 8528.55 873.308 52
2 6 -6 7993.62 912.241 51
2 6 -5 13652.2 1315.41 47
2 6 -5 12938.5 1007.82 49
-2 6 5 13276.4 1115.1 53
-2 6 5 12966.3 1041.61 52
2 6 -5 13660.2 1180.39 51
2 6 -4 9183.3 918.378 49
2 6 -4 12014.4 1253.48 47
2 6 -4 13501.6 2378.84 10
-2 6 4 9560.92 936.588 53
-2 6 4 9665.65 872.685 52
2 6 -4 11212.5 1086.75 51
2 6 -3 6565.22 811.163 51
2 6 -3 7260.95 827.033 49
-2 6 3 4167.65 1159.42 5
2 6 -3 5935.93 640.114 45
2 6 -3 6786.22 911.389 47
-2 6 3 7653.26 782.658 42
-2 6 3 7385.87 801.819 38
2 6 -3 6693.44 1625.33 10
2 6 -2 16986.5 1016.67 50
2 6 -2 19138.2 1398.58 47
2 6 -2 19041.7 1295.54 49
-2 6 2 17194.1 2219.01 5
-2 6 2 19247.2 1254.45 42
2 6 -2 17390.6 2172.11 11
-2 6 2 16862.1 1195.43 38
2 6 -2 18045.7 1024.83 45
2 6 -2 19186.1 2638.79 10
2 6 -2 16650.9 1186.56 51
2 6 -1 3738.55 547.544 51
2 6 -1 4944.48 568.425 50
2 6 -1 5124.87 691.734 49
-2 6 1 3397.17 967.238 5
2 6 -1 5342.71 731.304 47
2 6 -1 3941.76 473.998 45
-2 6 1 5722.66 726.98 38
-2 6 1 4481.29 641.852 42
2 6 -1 4057.46 1038.63 11
2 6 -1 6072.58 1459.1 10
2 6 0 41681.9 1893.07 47
-2 6 0 41157.8 1912.75 38
-2 6 0 39624.5 1805.75 43
-2 6 0 39615.1 3195.12 5
-2 6 0 40578 1813.44 42
2 6 0 39063.9 3005.78 11
2 6 0 43560.8 1869.24 49
2 6 0 38559.2 3428 10
2 6 0 40439.1 1656.77 38
2 6 0 39264.8 1639.3 53
-2 6 0 39575.7 1726.85 53
2 6 1 57945.9 2099.32 49
-2 6 -1 53747.8 4299.19 10
-2 6 -1 52874.4 2195.92 43
-2 6 -1 54272.2 2106.67 42
-2 6 -1 49884.3 1877.43 53
2 6 1 53557.1 1948.6 53
-2 6 -2 1703.14 739.487 10
-2 6 -2 663.74 267.607 42
2 6 2 1770.67 327.5 41
-2 6 -2 928.452 443.271 43
2 6 2 974.209 323.887 35
2 6 2 1093.98 371.688 49
2 6 2 690.153 309.315 53
-2 6 -3 4427.57 1400.05 10
-2 6 -3 5709.86 830.774 43
2 6 3 5487.01 635.072 41
2 6 3 4801.26 678.461 35
-2 6 -3 5263.58 656.885 42
2 6 3 4762.22 624.343 53
2 6 4 23244.2 1346.33 53
2 6 4 24521.1 1452.46 37
-2 6 -4 26038.9 1709.43 43
2 6 4 25686.7 1369.52 41
-2 6 -4 22027 3351.97 10
2 6 4 25332.1 1468.87 35
2 6 5 22954.7 1319.62 41
-2 6 -5 22223 1593.71 43
2 6 5 24414.1 1463.33 35
2 6 5 22676.1 1403.88 37
-2 6 -6 2698.79 617.367 47
-2 6 -6 2539.65 621.678 43
2 6 6 3127.03 554.194 41
2 6 6 2834.5 608.101 37
2 6 6 3170.92 585.057 35
-2 6 -7 20133.1 1309.73 47
-2 6 -7 21704.5 1342.48 43
2 6 7 23908.6 1250.14 41
2 6 8 362.708 247.378 41
2 6 9 3197.22 341.144 41
2 7 -8 792.961 326.921 47
-2 7 8 952.382 273.282 35
2 7 -7 4625.45 736.984 47
-2 7 7 3256.74 506.204 35
2 7 -6 187.798 523.726 47
-2 7 6 143.933 282.07 35
-2 7 6 -110.726 204.032 37
-2 7 6 -23.9435 206.121 53
2 7 -5 1644.17 425.12 49
2 7 -5 1412.98 603.159 47
-2 7 5 1356.53 400.057 35
-2 7 5 1201.92 328.651 37
-2 7 5 1626.87 463.285 53
2 7 -4 39659.4 2157.31 47
2 7 -4 34060.4 1755.42 49
-2 7 4 31353.1 1694.28 53
-2 7 4 29834.4 1572.8 35
2 7 -4 37580.9 1933.03 51
2 7 -3 51248 2406.21 47
2 7 -3 52277.1 2185.25 49
-2 7 3 49872.7 1933.58 35
-2 7 3 48232.4 2111.34 53
2 7 -3 44302.2 2067.64 51
2 7 -2 8894.1 943.414 49
2 7 -2 8055.72 757.758 50
2 7 -2 7447.3 678.541 45
-2 7 2 7589.15 869.23 38
2 7 -2 9385.11 1063.9 47
-2 7 2 8533.03 902.752 53
2 7 -2 8451.46 1865.85 10
2 7 -1 11127 909.289 50
2 7 -1 11849.9 1068.95 49
2 7 -1 11098.5 1125.71 47
-2 7 1 10659.9 1022.39 38
-2 7 1 11821.6 1061.3 42
2 7 -1 11052 2036.91 10
2 7 -1 10406.5 879.878 38
-2 7 1 12043.8 1052.02 53
2 7 0 42955.5 1969.84 49
-2 7 0 40641.3 1951.77 43
-2 7 0 44514 2002.25 42
2 7 0 42854.9 1752.41 50
-2 7 0 44967.8 2134.88 38
-2 7 0 41348 1871.78 53
2 7 1 42435.9 1873.65 49
-2 7 -1 41934.6 2065.47 43
-2 7 -1 42567.5 1968.9 42
-2 7 -1 44094.8 1861.09 53
-2 7 -1 46178.4 2218.63 38
2 7 1 41749.1 1849.4 53
-2 7 -2 22455.5 3056.89 10
-2 7 -2 23143.1 1619.51 38
-2 7 -2 21579.2 1551.24 43
2 7 2 22072.6 1300.29 49
2 7 2 21480.6 1345.67 53
-2 7 -3 12193.2 1197.85 43
2 7 3 10913.1 965.747 53
-2 7 -4 52290.4 2410.91 43
2 7 4 54864.2 1909.69 41
2 7 4 50122.8 2078.27 37
2 7 4 53127.1 2133.21 35
-2 7 -5 25668.2 1648.37 43
2 7 5 27576.4 1338.68 41
2 7 5 26267.5 1473.13 37
2 7 6 30768.6 1495.7 37
-2 7 -6 28780.7 1600.25 43
2 7 6 30481.1 1340.64 41
-2 7 -7 13893.5 937.203 43
2 7 7 15119 860.868 41
-2 7 -8 4266.13 451.735 38
2 7 8 4459.57 393.521 41
2 8 -7 2254.93 438.09 47
-2 8 7 1721.52 302.291 35
-2 8 6 674.473 195.904 37
-2 8 6 1132.42 308.434 35
2 8 -6 1259.44 475.919 47
-2 8 6 925.93 286.087 53
2 8 -5 349.267 236.137 49
2 8 -5 215.008 423.033 47
-2 8 5 387.896 239.002 37
-2 8 5 176.804 272.366 53
-2 8 5 432.796 221.88 35
2 8 -4 15378.4 1317.82 47
-2 8 4 12108.6 1043.34 53
-2 8 4 12031.2 926.013 35
2 8 -4 12077.9 1018.63 49
2 8 -3 2653.46 560.313 49
2 8 -3 2329.91 653.54 47
-2 8 3 2262.04 578.247 53
2 8 -2 29556.6 1695.66 49
2 8 -2 25434.5 1693.71 47
-2 8 2 27756.2 1786.21 38
-2 8 2 26659.5 1602.76 53
2 8 -1 8011.07 906.587 49
2 8 -1 7778.42 737.472 50
-2 8 1 8163.84 954.45 38
-2 8 1 8032.98 896.199 53
2 8 0 16111.4 1220.91 49
2 8 0 15937.9 1084.36 50
-2 8 0 17002.7 1352.81 38
-2 8 0 15910.7 1182.74 53
2 8 1 855.893 421.395 50
2 8 1 1429.01 417.425 49
-2 8 -1 1337.9 438.234 43
-2 8 -1 1471.71 555.822 38
-2 8 -1 733.239 296.369 53
-2 8 -2 16637.1 1405.53 38
2 8 2 16890.3 1115.3 49
-2 8 -2 15581.2 1298.77 43
-2 8 -3 4090.07 757.425 43
2 8 3 3829.28 627.356 37
-2 8 -3 4423.56 811.621 38
-2 8 -4 2897.62 655.918 43
-2 8 -4 2954.22 662.362 38
2 8 4 3056.08 558.271 37
-2 8 -5 15596.1 1222.68 38
-2 8 -5 16760.1 1210.26 43
2 8 5 16825.1 1086.83 37
-2 8 -6 10813.3 908.616 38
2 8 6 12715.6 845.875 37
-2 8 -7 4112.1 440.957 38
-2 9 6 1602.18 255.097 53
2 9 -5 17694 889.199 49
-2 9 5 18821.6 1000.17 53
-2 9 5 16115.6 824.757 37
2 9 -4 3055.32 478.529 49
-2 9 4 2716.31 453.923 37
-2 9 4 2645.38 468.966 53
2 9 -3 6362.43 715.766 49
-2 9 3 7210.29 764.063 53
2 9 -2 186.726 325.276 49
-2 9 2 299.461 328.831 53
2 9 -1 9201.81 885.907 49
-2 9 1 8970.08 904.983 38
-2 9 1 9395.88 900.942 53
2 9 0 23117 1131.2 50
-2 9 0 22673.4 1446.43 38
2 9 0 24111.4 1362.2 49
-2 9 0 24517.5 1355.83 53
2 9 1 6485.15 648.404 50
2 9 1 6665.45 683.73 49
-2 9 -1 6296.44 847.842 38
-2 9 -1 7926.19 718.823 53
-2 9 -2 1649.89 523.03 38
2 9 2 1420.97 325.961 49
2 9 2 1337.33 368.841 50
2 9 2 1638.34 399.958 37
2 9 3 1578.9 368.136 50
-2 9 -3 877.072 413.124 38
2 9 3 1660.53 361.871 37
2 9 4 840.98 287.194 50
-2 9 -4 755.581 350.826 38
2 9 4 983.726 335.435 37
2 9 5 447.477 247.552 50
-2 9 -5 245.306 187.607 49
-2 9 -5 -112.849 214.302 38
2 9 5 -89.666 219.513 37
2 9 6 3715.59 345.248 50
-2 9 -6 2880.75 335.196 38
2 10 -4 4856.06 430.181 49
-2 10 4 3683.31 351.117 37
-2 10 4 5162.57 466.107 53
2 10 -3 5660.18 525.586 49
-2 10 3 4268.56 460.379 37
-2 10 3 5628.29 540.932 53
2 10 -2 11950.5 794.112 49
-2 10 2 11747.6 831.932 53
-2 10 1 231.406 171.339 49
2 10 -1 690.391 273.041 49
-2 10 1 668.981 254.719 53
2 10 0 4352 494.61 49
2 10 0 3538.92 393.872 37
-2 10 0 4681.74 507.04 53
2 10 1 2377.07 334.87 49
-2 10 -1 2075.78 419.139 38
2 10 1 1717.17 292.658 37
2 10 2 941.048 214.867 50
-2 10 -2 1289.67 353.724 38
2 10 2 1453.4 287.684 37
-2 10 -3 1216.46 302.096 49
-2 10 -3 1007.98 285.627 38
2 10 3 1065.85 200.317 50
2 10 3 1209.19 246.492 37
-2 10 -4 3235.21 347.255 49
2 10 4 3106 314.587 37
-2 10 -4 2795.93 372.916 38
3 -10 -3 885.904 261.929 39
3 -10 -2 5480.87 545.645 39
3 -10 -1 177.573 279.193 39
3 -10 0 1429.87 382.386 39
3 -10 1 1293.22 379.779 39
-3 -10 -1 1221.33 507.562 54
3 -10 2 2867.05 444.861 39
-3 -10 -2 3335.22 592.241 54
3 -10 3 1434.6 318.523 39
-3 -10 -3 2814.56 485.811 54
3 -9 -6 1026.63 244.267 59
3 -9 -5 1478.35 338.746 59
3 -9 -5 1171.09 305.501 39
3 -9 -4 3557.12 529.142 39
3 -9 -3 7608.44 640.953 56
3 -9 -3 8602.49 798.576 39
3 -9 -2 1035.1 445.07 39
3 -9 -2 977.5 341.809 56
3 -9 -1 5149.56 739.73 39
-3 -9 0 4896.03 872.614 34
3 -9 0 4636.19 773.033 39
-3 -9 0 4327.66 758.812 33
3 -9 0 5453.37 708.072 57
-3 -9 -1 4546.3 763.659 34
3 -9 1 3883.9 647.635 57
-3 -9 -1 4841.42 861.136 26
-3 -9 -1 3879.18 618.638 33
3 -9 1 5364.96 812.21 39
-3 -9 -2 9405.28 977.277 34
3 -9 2 11264.1 989.578 57
-3 -9 -2 11206.8 1169.12 26
-3 -9 -2 10609 1085.55 54
-3 -9 -3 7150.91 833.447 34
3 -9 3 6405.25 764.6 57
-3 -9 -3 7883.25 900.813 54
3 -9 4 12921 965.248 57
-3 -9 -4 14684.8 1068.09 54
3 -9 5 1042.03 317.271 57
-3 -9 -5 1063.61 342.155 54
-3 -9 -5 420.516 320.02 58
3 -8 -7 14175.9 786.445 59
3 -8 -6 3363.12 490.386 39
3 -8 -6 4423.9 593.31 59
3 -8 -5 1549.88 347.705 56
3 -8 -5 1444.4 411.172 39
3 -8 -4 2316 559.631 39
3 -8 -4 2887.21 480.505 56
3 -8 -3 6365.81 837.914 39
3 -8 -3 4771.5 636.75 56
3 -8 -2 3961.17 743.015 39
-3 -8 1 16835.1 3149.99 18
3 -8 -1 14517.1 1176.87 33
3 -8 -1 15945.2 1244.16 57
-3 -8 1 15822.7 1389.95 33
3 -8 -1 16790.1 1390.11 39
-3 -8 0 15165.3 2983.89 18
-3 -8 0 13844.5 1248.33 33
3 -8 0 14171.7 1177.62 33
3 -8 0 17035.3 2609.85 23
3 -8 0 15489.4 1288.94 57
-3 -8 -1 8237.55 1024.96 34
-3 -8 -1 8878.94 984.315 33
-3 -8 -1 10905.4 2403.92 18
3 -8 1 7641.9 708.924 44
3 -8 1 8541.32 1937.95 23
3 -8 1 8209.98 971.169 57
-3 -8 -2 3032.43 710.055 34
-3 -8 -2 3445.72 743.123 26
3 -8 2 783.8 1073.54 23
-3 -8 -2 2044.08 532.398 33
3 -8 2 2613.72 677.83 57
3 -8 3 5159.55 676.807 46
-3 -8 -3 6893.22 969.958 26
-3 -8 -3 4181.08 748.928 34
-3 -8 -3 5811.5 888.407 54
-3 -8 -4 6903.04 883.252 34
-3 -8 -4 7096.25 934.564 54
-3 -8 -4 7779.97 846.892 30
3 -8 4 6463.38 678.56 46
-3 -8 -4 9125.55 1011.76 26
3 -8 5 12122 869.455 46
-3 -8 -5 14694.1 1177.61 58
-3 -8 -5 16375.5 1198.59 54
3 -8 6 573.092 272.834 46
-3 -8 -6 248.922 302.633 58
-3 -8 -6 414.038 312.416 54
3 -8 7 2091.24 333.8 57
3 -7 -8 1078.38 291.933 59
3 -7 -7 209.238 339.13 59
3 -7 -6 2360.38 525.674 39
3 -7 -6 1514.24 390.393 56
3 -7 -5 3708.71 683.258 39
3 -7 -5 5184.97 690.58 56
3 -7 -4 901.931 368.402 56
-3 -7 4 91.9 306.513 21
3 -7 -3 8895.75 1011.06 39
-3 -7 3 6411.29 1982.48 21
3 -7 -2 55488.1 2203.69 33
3 -7 -2 59948.3 2369.71 57
-3 -7 2 57041.5 5358.63 23
3 -7 -2 60134.5 2483.2 39
-3 -7 2 60244.5 5516.79 21
3 -7 -1 6613.53 839.645 33
3 -7 -1 7274.86 911.894 57
-3 -7 1 4287.01 1576.93 4
3 -7 -1 4959.33 1382.4 23
-3 -7 1 5591.61 1677.47 23
3 -7 -1 6602.35 966 39
-3 -7 1 4492.9 1324.16 21
-3 -7 0 12435.9 2498.08 18
3 -7 0 12025.5 921.717 44
-3 -7 0 13772.8 1231.6 33
-3 -7 0 18442 3218.57 4
-3 -7 0 11354.3 2214.99 23
3 -7 0 12758.6 2258.12 23
3 -7 0 14126.4 1228.09 57
-3 -7 -1 63410.2 5610.71 18
-3 -7 -1 54872 2365.33 33
3 -7 1 59444.4 2150.7 46
3 -7 1 63167 5863.93 8
3 -7 1 54421 4655.17 21
3 -7 1 55867.3 4848.97 23
3 -7 1 51228.4 4863.78 19
-3 -7 -2 11981.6 1237.73 34
-3 -7 -2 15553 2848.66 18
3 -7 2 13034.1 1071.77 46
3 -7 2 9862.48 2160.27 23
-3 -7 -2 11154.8 1117.79 33
3 -7 2 11969.4 2502.38 19
3 -7 3 22195.3 1404.06 46
-3 -7 -3 20241.8 1591.51 34
-3 -7 -3 23980.7 3500.58 18
-3 -7 -3 21598.5 1652.41 26
-3 -7 -3 20276.1 1556.75 54
3 -7 3 22873.2 3437.38 19
3 -7 4 13341.6 1117.33 46
-3 -7 -4 14717.3 2732.98 18
-3 -7 -4 13407.8 1306.34 34
-3 -7 -4 14264.7 1364.82 26
3 -7 4 10035.6 2176.93 19
-3 -7 -4 13817.3 1318.85 54
-3 -7 -5 24641.4 1477.73 30
-3 -7 -5 24660.2 1681.41 26
-3 -7 -5 25145.2 1667.17 54
3 -7 5 23995.8 1463.8 46
3 -7 6 14441.5 1036.86 46
-3 -7 -6 12014.2 1111.07 58
-3 -7 -6 13953.1 1145.1 54
-3 -7 -7 1401.08 409.926 58
3 -7 7 756.372 318.92 46
-3 -7 -7 1309.7 372.983 54
3 -7 8 1642.91 268.982 46
3 -6 -9 1751.03 317.923 59
3 -6 -8 5722.52 657.734 59
3 -6 -7 35089.2 1672.78 59
3 -6 -6 20232.2 1371.49 39
3 -6 -6 18514.7 1208.76 56
3 -6 -5 13802.7 1083.08 56
3 -6 -5 14235.1 1200.43 39
-3 -6 4 950.334 989.789 15
3 -6 -4 1561.27 470.718 56
3 -6 -4 2173.23 563.73 39
3 -6 -4 1901.17 999.441 22
3 -6 -3 35040.8 1832.29 39
-3 -6 3 30353.4 3873.02 15
-3 -6 3 36607.7 4145.59 1
3 -6 -2 2938.35 540.058 33
-3 -6 2 3064.86 1209.26 15
-3 -6 2 5125.78 1741.69 4
-3 -6 2 1838.14 938.578 1
-3 -6 2 1291.87 571.018 23
-3 -6 2 2550.74 1268.26 21
3 -6 -2 2740.15 629.953 39
3 -6 -2 3339.41 578.875 57
3 -6 -1 26434.8 1528.1 57
-3 -6 1 24676.2 3538.46 4
3 -6 -1 24028.1 1213.95 44
3 -6 -1 24547.6 2941.6 23
-3 -6 1 20686.3 2766.23 23
-3 -6 1 20173.2 2824.2 21
-3 -6 1 27742.1 3454.67 1
3 -6 0 27225.8 1384.07 46
-3 -6 0 19930.4 2752.07 23
3 -6 0 22950.1 2840.13 23
-3 -6 0 29653.4 3596.86 1
-3 -6 0 24702.9 3037.96 21
3 -6 0 22868.5 2734.97 21
3 -6 0 29339.1 1635.61 57
-3 -6 -1 3128.77 602.728 33
3 -6 1 3174.43 537.774 46
3 -6 1 2657.73 1432.03 8
-3 -6 -1 1616.05 955.413 1
3 -6 1 2827.35 1052.14 21
3 -6 1 2575.95 977.833 23
-3 -6 -1 4601.82 1702.77 18
3 -6 1 3286.78 1076.61 19
-3 -6 -2 12509.8 2337.03 1
-3 -6 -2 9969.52 1122.93 34
-3 -6 -2 11667.4 2517.64 18
3 -6 2 10549 1001.73 46
3 -6 2 11063.6 2406.71 8
3 -6 2 9291.22 1931.3 21
-3 -6 -2 9822.14 2130.41 6
-3 -6 -2 10852.2 1065.63 33
3 -6 2 7215.71 1846.24 19
-3 -6 -3 33024.2 4025.92 6
-3 -6 -3 28882.4 1839.51 34
3 -6 3 26907.7 1554.43 46
3 -6 3 26744.8 3559.33 8
-3 -6 -3 30254.9 1950.76 26
-3 -6 -3 30266.8 3817.63 18
3 -6 3 25315 3497.64 19
3 -6 4 4937.18 1698.89 19
3 -6 4 4899.06 819.992 46
-3 -6 -4 7084.02 1058.59 26
-3 -6 -4 6584.94 989.044 54
-3 -6 -4 7067.12 1984.05 18
-3 -6 -4 4356.33 1208.8 22
-3 -6 -4 5768.22 982.431 34
-3 -6 -5 384.316 465.941 30
3 -6 5 -21.0246 465.685 46
-3 -6 -5 -88.9501 820.429 22
-3 -6 -5 1207.3 659.525 26
3 -6 5 -189.022 263.755 48
-3 -6 -5 -342.243 571.988 54
3 -6 6 3088.51 481.334 48
-3 -6 -6 3703.05 722.834 54
-3 -6 -6 2983.78 806.869 58
3 -6 7 8914.76 691.792 48
-3 -6 -7 10401.6 978.787 54
-3 -6 -7 9063.32 1008.35 58
3 -6 8 2248.25 314.478 48
3 -6 8 1803.52 363.652 46
-3 -6 -8 2845.05 443.521 58
-3 -6 -8 2870.86 473.964 54
3 -5 -9 1635.24 399.358 59
3 -5 -8 16739.5 1184.17 59
3 -5 -7 26318.1 1578.27 59
3 -5 -6 2138.97 576.704 39
3 -5 -6 2225.79 519.322 56
-3 -5 6 7514.75 1723.42 16
-3 -5 6 8629.71 2319.76 14
3 -5 -6 1986.87 782.624 22
-3 -5 5 76061.6 6387.2 14
3 -5 -5 77261.2 5156.19 22
3 -5 -5 74192.2 2572.61 39
3 -5 -5 75653.1 2474.87 56
3 -5 -4 53408 4068.73 22
3 -5 -4 52950.8 2151.86 39
-3 -5 4 51686.9 4644.82 14
-3 -5 4 52724 4555.89 1
3 -5 -4 48890.6 1949.21 56
3 -5 -3 9358.43 744.716 44
-3 -5 3 10130.9 2049.46 15
3 -5 -3 8907.58 896.736 39
3 -5 -2 6011.26 596.552 44
-3 -5 2 3728.82 1062.41 15
-3 -5 2 6788.23 1715.71 4
3 -5 -2 6357.38 775.45 39
3 -5 -2 6874.95 760.551 57
-3 -5 1 20577.7 2286.87 3
3 -5 -1 17675.8 1178.21 57
-3 -5 1 18376.5 2590.94 1
-3 -5 1 17539.7 2345.27 15
3 -5 -1 16376 2179.87 23
-3 -5 1 20118.6 2490.63 23
-3 -5 1 19565.8 2435.25 21
-3 -5 0 17578.5 2322.51 21
3 -5 0 18444.6 1083.46 46
3 -5 0 19108.7 2305.22 21
-3 -5 0 18349.7 2356.85 23
3 -5 0 16927.8 2207.22 23
-3 -5 0 19389.2 2695.74 1
3 -5 0 17751 2401.13 19
-3 -5 -1 13561.7 1046.55 33
3 -5 1 14249.1 1006.67 46
-3 -5 -1 14599.8 2412.73 1
-3 -5 -1 14710.1 2605.16 18
3 -5 1 12666.7 1896.11 21
3 -5 1 14539.4 2257.95 19
-3 -5 -2 9068.96 974.947 34
-3 -5 -2 11059.9 2239.3 18
-3 -5 -2 11548 2126.23 1
3 -5 2 11604.5 2297.83 8
-3 -5 -2 9862.38 932.082 33
3 -5 2 9618.38 876.274 46
3 -5 2 9962.69 1949.07 19
-3 -5 -3 51474.2 4712 18
3 -5 3 48355.7 4509.23 8
-3 -5 -3 50579 2390.22 26
3 -5 3 46598.8 1908.7 46
-3 -5 -3 46956.7 2183.85 34
-3 -5 -3 45966.6 2078.82 54
-3 -5 -4 23652.5 1641.13 34
3 -5 4 24857.6 1278.48 48
-3 -5 -4 28776.1 3826.71 6
-3 -5 -4 23232.6 1713.9 26
-3 -5 -4 25250.1 3040.59 22
3 -5 4 15818.2 2574.04 8
-3 -5 -4 22167.8 3264.7 18
-3 -5 -4 22638.1 1571.72 54
-3 -5 -5 26434.1 3233.97 22
-3 -5 -5 25559.8 1655.2 30
-3 -5 -5 21636.6 1760.37 26
-3 -5 -5 23522.8 1689.55 54
-3 -5 -5 22025.7 3399.21 6
3 -5 6 477.833 353.916 48
-3 -5 -6 925.166 465.765 30
-3 -5 -6 233.303 548.686 54
-3 -5 -6 1345.43 733.66 58
3 -5 7 4637.11 624.944 48
-3 -5 -7 5086.41 855.529 58
-3 -5 -7 4940.9 787.916 54
-3 -5 -8 16656.6 1094.49 32
-3 -5 -8 15942.4 1170.79 58
3 -5 8 16173 1007.21 46
3 -5 8 15986.4 938.776 48
-3 -5 -8 18926.8 1236.77 54
3 -5 9 8579.88 562.158 48
-3 -5 -9 9594.02 738.035 54
3 -4 -10 2790.73 386.656 59
-3 -4 9 438.805 214.55 31
3 -4 -9 490.872 315.592 59
3 -4 -8 5763.94 791.57 59
3 -4 -7 1128.87 550.133 59
-3 -4 7 6119.31 1618.33 16
3 -4 -6 44678.6 2000.39 39
-3 -4 6 51041 4529.73 12
3 -4 -6 44744.2 3860.42 22
3 -4 -6 40767.3 1951.42 59
3 -4 -6 43090.4 1904.68 56
-3 -4 5 18660.2 2608.09 12
3 -4 -5 18833.4 2434.7 22
3 -4 -5 17359.9 1209.3 39
3 -4 -5 18816.9 1209.15 56
-3 -4 4 27266.1 2913.54 1
-3 -4 4 22387.2 2592.96 13
3 -4 -4 25724.8 2686.49 22
3 -4 -4 28222.9 1471.94 39
3 -4 -4 27852 1398.26 56
3 -4 -3 67647.4 1661.79 27
3 -4 -2 7998.75 586.589 27
-3 -4 2 7431.7 1408.67 15
-3 -4 2 7509.5 1615.05 1
-3 -4 2 9125.91 1449.03 3
-3 -4 1 54745.2 3530.23 15
-3 -4 1 53275.2 3418.63 21
-3 -4 1 56522.7 4148.32 1
3 -4 -1 51292.8 3193.96 23
-3 -4 1 55776.5 3481.45 3
3 -4 0 55620 3219.09 21
-3 -4 0 63884.3 4381.61 1
-3 -4 0 62022.9 3707.65 23
3 -4 0 55436.8 3392.48 23
-3 -4 0 58938 3599.25 21
3 -4 0 58574.2 3668.15 19
-3 -4 0 67617.4 3990.06 3
-3 -4 -1 51043.5 4114.47 18
-3 -4 -1 50971.9 3670.44 3
-3 -4 -1 57153.4 4235 1
3 -4 1 47027.6 3954.88 8
3 -4 1 43241.1 2872.05 15
3 -4 1 51149.9 3576.75 19
-3 -4 -2 8577.36 846.397 34
-3 -4 -2 11804.3 2112.43 18
3 -4 2 9204.24 1434.72 15
3 -4 2 10773.6 2109.49 8
-3 -4 -2 10165 1829.2 1
-3 -4 -2 9924.48 822.236 33
-3 -4 -3 7462.07 875.868 34
-3 -4 -3 7736.13 1857.68 18
3 -4 3 6749.01 1655.95 8
-3 -4 -3 8608.61 1028.96 26
-3 -4 -4 2293.31 872.322 22
-3 -4 -4 5406.6 1845.83 18
-3 -4 -4 5513.7 805.483 54
3 -4 4 4473.15 1314.13 8
-3 -4 -4 5411.75 966.855 26
3 -4 4 6634.07 700.212 48
-3 -4 -4 5714.04 875.645 34
3 -4 5 16613.3 1063.07 48
-3 -4 -5 9749.58 1116.13 30
3 -4 5 17336 1251.56 28
-3 -4 -5 8363.29 1197.55 26
3 -4 5 12293.7 1879.33 8
-3 -4 -5 13534.4 2627.59 6
-3 -4 -5 9752.11 1920.76 22
-3 -4 -5 9399.26 1049.12 54
3 -4 6 51740.9 1946.56 48
-3 -4 -6 29131.9 1839.88 30
3 -4 6 56309.9 2291.28 28
-3 -4 -6 27498.6 1929.86 58
-3 -4 -6 33162 3568.18 22
-3 -4 -6 33848.9 1986.57 54
-3 -4 -7 14828.8 1192.27 32
3 -4 7 17662.8 1236.23 48
-3 -4 -7 13460.7 1374.47 58
-3 -4 -7 16113 1353.68 54
-3 -4 -8 3451.34 666.46 54
-3 -4 -8 2836.07 610.814 58
-3 -4 -8 3845.16 615.756 32
3 -4 8 3816.62 559.861 48
3 -4 9 1707.9 325.471 48
3 -4 9 699.432 264.553 46
-3 -4 -9 1362.08 386.058 58
-3 -4 -9 1326.27 421.337 54
3 -4 10 3472.78 313.185 48
3 -3 -10 5003.28 569.144 59
3 -3 -9 2879.39 586.345 59
-3 -3 8 8293.16 2045.12 16
3 -3 -8 9752.93 1052.48 59
3 -3 -7 29906.2 1705.08 59
-3 -3 7 24223 2931.59 25
3 -3 -7 28195.5 3212.16 22
3 -3 -6 6151.8 767.905 39
-3 -3 6 6736.81 1614.14 12
3 -3 -6 6188.19 839.385 59
3 -3 -6 5538.54 1434.8 22
3 -3 -6 7150.78 809.272 56
3 -3 -5 21691.6 1227.84 56
-3 -3 5 17268.4 2527.74 13
3 -3 -5 21028.6 1275.59 39
3 -3 -5 21785.1 2508.69 22
3 -3 -4 21588.4 2240.27 22
3 -3 -4 23413.3 1015.24 27
-3 -3 4 22842.4 2333.69 1
-3 -3 4 19902.9 2418.6 13
-3 -3 3 152341 6024.75 1
3 -3 -3 152215 5432.76 8
3 -3 -3 139544 2348.98 27
3 -3 -3 143012 5183.37 22
3 -3 -2 152104 5731.89 8
3 -3 -2 136935 2311.68 27
-3 -3 2 150471 5346.73 3
-3 -3 2 154687 6127.64 1
3 -3 -1 37463.4 2956.87 8
-3 -3 1 30599.3 2240.02 15
-3 -3 1 37137.7 3034.4 1
-3 -3 1 33070.4 2467.98 3
-3 -3 0 246686 6816.61 3
-3 -3 0 234827 7608.94 18
3 -3 0 246584 7639.58 8
-3 -3 0 233726 7559.85 1
3 -3 0 227637 6165.27 19
-3 -3 -1 13284.2 1967.74 1
-3 -3 -1 11134.4 1855.37 18
3 -3 1 10320 1145.35 15
3 -3 1 10137.7 1835.52 8
-3 -3 -1 12095.2 1685.82 3
-3 -3 -2 33318.6 3185.03 18
-3 -3 -2 34694.9 2893.11 3
3 -3 2 30058.3 2938.6 8
3 -3 2 26863 2065.38 15
-3 -3 -2 31310.1 1565.53 26
-3 -3 -2 31155.8 1390.74 34
-3 -3 -3 3458.55 607.061 34
3 -3 3 2207.23 472.451 28
3 -3 3 4548.76 1600.02 8
-3 -3 -3 2948.78 695.229 26
-3 -3 -3 3678.11 941.392 22
-3 -3 -3 3697.64 1477.01 18
3 -3 4 29288.2 1326.23 48
-3 -3 -4 20204.1 1406.04 30
3 -3 4 31789.5 3071.05 8
-3 -3 -4 19436.4 1540.7 26
-3 -3 -4 18132.7 2244.18 22
3 -3 4 28357.6 1519.61 28
-3 -3 -5 28232.3 1794.21 30
3 -3 5 37930.7 3617.38 8
3 -3 5 45853.3 1750.94 48
-3 -3 -5 27224.3 2912.26 22
-3 -3 -5 26734.7 3363.93 6
-3 -3 -5 28084.6 1812.29 58
-3 -3 -5 26832.1 1662.07 54
3 -3 6 11080.7 1094.87 48
-3 -3 -6 9909.54 1189.97 30
-3 -3 -6 8663.28 1212.84 58
-3 -3 -6 10202.9 1854.72 22
-3 -3 -6 11235.9 1156.6 54
-3 -3 -6 9174.63 1922.69 6
-3 -3 -7 -942.142 665.08 22
-3 -3 -7 547.493 422.794 32
3 -3 7 531.664 364.613 48
3 -3 7 552.236 240.183 40
3 -3 7 -248.023 377.656 28
-3 -3 -7 49.5114 613.167 58
-3 -3 -7 716.514 496.923 54
-3 -3 -8 11780.6 1040.9 32
3 -3 8 12304.5 996.694 48
3 -3 8 12889.1 859.012 40
-3 -3 -8 12294.9 1239.9 58
-3 -3 -8 12928.4 1208.88 54
-3 -3 -9 7750.21 785.928 32
3 -3 9 8061.91 707.955 48
3 -3 9 6410.46 588.807 46
-3 -3 -9 8043.48 880.091 54
-3 -3 -9 8698.46 873.301 58
3 -3 10 1866.66 283.553 48
-3 -3 -10 1741.61 312.595 47
-3 -2 11 455.625 145.295 40
-3 -2 10 8317.98 715.997 31
3 -2 -10 8683.37 770.519 59
3 -2 -9 1985.6 550.654 59
-3 -2 8 99.2273 622.963 25
3 -2 -8 633.174 453.747 59
3 -2 -7 16885.5 1296.13 59
-3 -2 7 13807.1 2311.54 25
-3 -2 7 16375.6 2575.18 12
3 -2 -7 13290.4 2186.74 22
3 -2 -6 4211.27 1241.92 22
-3 -2 6 4864 1366.12 24
-3 -2 6 6385.96 1457.91 12
3 -2 -6 6351.67 794.474 59
3 -2 -6 7092.8 775.021 56
-3 -2 5 17851.4 2498.25 13
3 -2 -5 24589.8 1269.33 56
3 -2 -5 22380.6 2353.41 22
3 -2 -5 22293.5 1288.91 59
-3 -2 5 19578.5 2163.34 2
-3 -2 4 3471.37 821.149 2
-3 -2 4 4821.15 1322.45 13
3 -2 -4 5222.05 1061.67 22
-3 -2 4 4304.79 1233.1 20
-3 -2 3 14643.4 1421.42 2
3 -2 -3 15604.3 1459.34 8
3 -2 -3 14727 780.752 27
-3 -2 3 15668.9 1761.41 1
3 -2 -3 13682.4 1465.17 22
-3 -2 2 58200.6 3154.25 18
3 -2 -2 61868.5 3133.14 8
-3 -2 2 54998.9 3307.22 1
3 -2 -2 61142.5 1463.94 27
-3 -2 1 32815.7 2674.63 1
3 -2 -1 33351.6 1566.72 9
3 -2 -1 36139.8 2519.54 8
-3 -2 1 30323.7 1774.25 15
-3 -2 1 32559.4 2469.78 18
-3 -2 0 124415 4931.28 18
3 -2 0 135367 5009.38 8
-3 -2 0 128723 4595.03 3
3 -2 0 116024 3629.5 19
-3 -2 0 126184 5209.13 1
-3 -2 -1 253423 7359.72 18
3 -2 1 252215 7140.85 8
-3 -2 -1 264857 3713.17 26
-3 -2 -1 255005 7495.37 1
-3 -2 -1 250496 6562.17 3
-3 -2 -2 4127.53 1089.18 3
3 -2 2 3684.74 1144.19 8
-3 -2 -2 2826.72 546.766 26
-3 -2 -2 3987.66 1381.64 18
-3 -2 -3 111994 2725.52 34
-3 -2 -3 108579 6051.05 18
-3 -2 -3 110788 5060.26 3
-3 -2 -3 101649 2775.02 30
3 -2 3 103163 5221.24 8
-3 -2 -3 95693.1 2917.21 26
-3 -2 -3 109192 4366.28 22
-3 -2 -4 5656.14 858.168 30
3 -2 4 6715.99 847.416 28
3 -2 4 4470.21 1280.2 8
-3 -2 -4 5283.5 1151.7 22
3 -2 5 15932.5 1009.13 48
3 -2 5 16543.7 1135.9 28
3 -2 5 18420.5 1136.57 40
-3 -2 -5 13426.7 2020.82 22
-3 -2 -5 13774 1299.59 58
-3 -2 -5 15422.7 1349.52 30
-3 -2 -5 14477.4 1159.67 54
-3 -2 -6 26340.1 1532.55 32
3 -2 6 31676.9 1679.07 48
3 -2 6 27412.7 1749.01 28
-3 -2 -6 26918 1685.56 43
-3 -2 -6 27343.3 3379.72 6
3 -2 6 32225.5 1600.35 40
-3 -2 -6 22875.9 2765.81 22
-3 -2 -6 28158.1 1949.15 58
-3 -2 -6 28025.1 1678.33 54
-3 -2 -7 7251.17 882.516 32
3 -2 7 6899.61 779.965 48
3 -2 7 6962.78 845.792 28
-3 -2 -7 5555.99 1398.75 22
3 -2 7 7893.38 758.975 40
-3 -2 -7 7648.93 985.002 54
-3 -2 -7 6640.12 1046 58
-3 -2 -8 11006.5 1054.09 32
3 -2 8 11288.4 931.902 48
-3 -2 -8 12129.2 1255.17 58
3 -2 8 11657.6 890.864 40
-3 -2 -8 12968.5 1228.08 54
-3 -2 -9 3112.79 616.443 32
3 -2 9 2173.15 370.595 40
3 -2 9 2421.58 457.683 48
-3 -2 -9 2084.38 578.189 58
-3 -2 -9 1970.3 531.535 54
3 -2 10 1362.83 236.015 40
3 -2 10 1268.88 270.726 48
-3 -2 -10 1752.56 348.238 47
-3 -2 -10 674.665 235.752 58
-3 -1 11 3481.61 356.879 40
-3 -1 10 6710.32 662.382 31
3 -1 -10 5943.33 705.33 59
-3 -1 10 5158.97 538.816 41
-3 -1 9 2749.94 1070.78 25
3 -1 -9 7826.88 896.299 59
-3 -1 8 13178.4 2341.64 25
3 -1 -8 13868.5 1228.05 59
3 -1 -7 9692.39 1015.23 59
-3 -1 7 11515.4 2089.05 2
-3 -1 7 8771.73 2022.26 25
-3 -1 7 7579.86 1688.81 24
-3 -1 7 10620.3 2085.35 12
-3 -1 6 16730.4 2315.03 2
-3 -1 6 12970 2232.82 24
3 -1 -6 13630.9 2060.79 22
3 -1 -6 14286.5 1109.93 59
-3 -1 5 10914.1 1780.71 2
-3 -1 5 8726.22 1875.31 24
3 -1 -5 10121.9 1505.5 22
-3 -1 5 9582.32 1641.19 20
-3 -1 4 77803.7 4876.81 13
-3 -1 4 82909.7 4755.92 20
3 -1 -4 77512.5 3629.42 22
-3 -1 4 72512.7 3820.53 2
-3 -1 3 9127.62 1293.96 2
3 -1 -3 8171.07 591.232 27
3 -1 -3 9053.97 1026.91 11
-3 -1 3 8473.57 1182.78 1
-3 -1 3 7606.09 1623.22 20
-3 -1 3 8195.39 1656.75 13
3 -1 -2 12215.8 1075.32 9
3 -1 -2 12892.9 1258.45 8
3 -1 -2 12769.5 677.719 27
-3 -1 2 12293.6 1327.52 18
-3 -1 2 13155.5 1537.26 1
-3 -1 1 2007.47 672.215 18
3 -1 -1 1751.62 475.267 9
3 -1 -1 2043.17 686.965 8
3 -1 0 194510 5446.66 8
3 -1 0 202335 3837.25 7
-3 -1 0 199106 6038.5 18
-3 -1 0 208602 4470.06 5
-3 -1 -1 183004 6228.33 18
3 -1 1 191663 5672 8
-3 -1 -1 190141 3085.41 26
-3 -1 -1 177607 5179.13 3
-3 -1 -2 6565.86 1565.67 18
-3 -1 -2 5822.41 1051.38 3
-3 -1 -2 5985.2 684.023 30
-3 -1 -2 5905.73 706.166 26
3 -1 2 6075.1 1205.42 8
-3 -1 -3 45304 3002.88 3
-3 -1 -3 49218.3 1870.83 30
3 -1 3 44310.3 1424.99 28
3 -1 3 47961.1 3241.44 8
-3 -1 -4 7480.13 951.413 30
3 -1 4 7468.09 699.085 28
-3 -1 -4 7560.97 1311.18 22
-3 -1 -5 5693.36 704.654 32
3 -1 5 5877 606.437 48
3 -1 5 5501.27 678.442 28
-3 -1 -5 5784.2 1279.83 22
3 -1 5 5963.86 574.215 40
-3 -1 -5 6312.35 876.991 58
-3 -1 -6 5510.4 759.239 32
3 -1 6 5353.59 660.378 48
3 -1 6 5489.01 701.268 28
-3 -1 -6 4705.97 783.521 43
3 -1 6 5736.5 634.183 40
-3 -1 -6 4232.95 1231.07 22
-3 -1 -6 5717.41 970.728 58
-3 -1 -6 5212.17 763.955 54
-3 -1 -6 6120.27 1549.07 6
-3 -1 -7 18558 1367.71 32
3 -1 7 17426.1 1146.45 48
-3 -1 -7 16904.6 2757.85 17
3 -1 7 17937.9 1221.34 28
-3 -1 -7 17875.4 1557.13 58
3 -1 7 19490.4 1199.06 40
-3 -1 -7 18197.7 1407.88 54
-3 -1 -8 28705.4 1691.02 32
3 -1 8 24450.5 1337.16 48
3 -1 8 25982.3 1382.63 40
-3 -1 -8 25763.4 1776.65 58
-3 -1 -8 28405.7 1769.25 54
-3 -1 -9 3681.51 623.582 32
3 -1 9 4722.65 571.611 48
3 -1 9 4400.79 557.067 40
-3 -1 -9 5658.24 788.296 58
-3 -1 -10 2416.71 428.437 58
3 -1 10 2290.68 321.299 48
-3 -1 -10 1721.47 326.675 47
3 -1 10 2274.43 338.831 40
-3 0 11 1961.09 292.224 40
-3 0 10 3866.05 531.079 31
3 0 -10 2969.79 508.204 59
-3 0 10 3130.93 492.598 41
3 0 -9 19998.9 1279.82 47
-3 0 9 19693.5 2732.78 25
-3 0 9 17686.3 1157.95 52
3 0 -9 22572.5 1495.18 59
3 0 -8 454.859 309.348 47
3 0 -8 152.443 452.577 59
-3 0 8 -220.435 292.863 52
3 0 -7 -12.5694 281.17 47
-3 0 7 2224.19 595.903 2
3 0 -7 847.598 429.607 59
-3 0 7 -316.009 995.445 25
-3 0 7 817.746 774.12 12
-3 0 7 375.36 359.56 36
3 0 -6 -604.335 260.44 51
-3 0 6 -681.407 650.659 2
-3 0 6 662.323 964.809 25
-3 0 6 260.853 855.203 24
3 0 -6 417.836 398.108 59
-3 0 5 30005.5 3295.53 24
-3 0 5 33387.8 3043.88 2
-3 0 4 91495.4 2205.93 29
3 0 -4 98091 3858.5 11
-3 0 4 89026.1 5061.74 20
-3 0 4 91539.8 4599.99 2
-3 0 3 10769.8 1517.74 2
-3 0 3 12646.1 867.306 29
3 0 -3 12835.2 716.356 27
-3 0 3 12076 2179.54 13
3 0 -3 13097.5 1349.71 11
-3 0 3 11019.7 1930.45 20
3 0 -2 26057.1 1728.61 9
3 0 -2 25141.5 926.973 27
-3 0 2 29402.9 2787.22 13
-3 0 2 24737.3 2599.16 20
3 0 -1 734.918 442.379 9
3 0 -1 1208.27 238.096 27
-3 0 0 18251.1 1528.33 5
3 0 0 18585.3 1403.19 7
3 0 1 799.493 506.157 7
3 0 2 71950.7 3540 7
-3 0 -2 69765.3 3161.63 3
-3 0 -3 22916.3 1358.74 30
-3 0 -3 19467.8 1822.49 3
-3 0 -4 17391.6 1022.78 32
3 0 4 16071.1 920.099 28
-3 0 -4 17269 1941.48 22
-3 0 -5 70845.4 2266 32
3 0 5 72811.3 2018 28
3 0 5 75327.2 2070.93 40
-3 0 -6 15666.3 1214.26 32
3 0 6 17214.4 1032.39 48
3 0 6 16198.5 1056.55 28
-3 0 -6 15067 1252.75 43
3 0 6 15358.4 2611.81 7
3 0 6 17217.3 1086.83 40
-3 0 -6 15703.4 1363.85 58
-3 0 -6 16701.7 1280.76 54
-3 0 -7 51961.8 2248.91 32
-3 0 -7 49407.1 4636.82 17
3 0 7 44845.9 1717.28 48
3 0 7 47918.1 1820.92 28
-3 0 -7 48957.7 2409.77 58
3 0 7 43708.8 4533.45 7
3 0 7 47653.1 1877.11 40
-3 0 -7 49281.8 2285.05 54
3 0 8 14277.4 992.706 48
3 0 8 16056.3 1109.6 40
-3 0 -8 12751.8 1168.74 32
-3 0 -8 13375.5 1316.25 58
-3 0 -9 -89.0835 363.78 32
3 0 9 -364.323 285.676 48
-3 0 -9 489.476 350.668 47
3 0 9 606.294 368.55 40
-3 0 -9 -264.169 422.227 58
3 0 10 886.26 215.787 48
-3 0 -10 940.153 300.561 47
3 0 10 729.859 261.179 40
-3 0 -10 845.046 345.932 58
-3 1 11 3042.36 324.497 41
-3 1 11 3264.99 334.558 40
-3 1 10 5970.22 603.637 31
3 1 -10 6177.79 634.029 47
-3 1 10 5550.62 639.671 41
3 1 -10 6122.05 677.737 59
-3 1 10 4648.46 509.086 52
3 1 -9 6786.84 786.803 47
3 1 -9 6980.16 870.325 59
-3 1 9 6367.28 738.449 52
3 1 -8 14424.4 1198.12 47
-3 1 8 12388.6 2358.46 25
3 1 -8 15277.2 1303.8 59
-3 1 8 12434.5 1052.31 36
-3 1 8 12324.7 1135.82 52
3 1 -7 8274.56 803.587 51
3 1 -7 9563.79 942.992 47
-3 1 7 9975.66 2114.71 25
-3 1 7 9747.15 1961.69 2
-3 1 7 8660.1 1786.06 12
3 1 -7 9753.95 1035.61 59
-3 1 7 9398.42 974.923 36
3 1 -6 15255 1043.97 51
-3 1 6 10331.7 2027.77 25
-3 1 6 13427.9 2396.76 24
3 1 -6 13578.2 1145.36 59
-3 1 6 17197.6 2574.18 2
-3 1 5 12127.5 2020.25 2
-3 1 5 11378.8 2110.5 24
-3 1 4 77472.7 4474.54 2
-3 1 4 73991 4841.78 24
3 1 -4 81486.5 3818.66 11
-3 1 3 8107.6 750.248 29
-3 1 3 8463.06 1456.43 2
-3 1 3 7330.11 1623.14 20
3 1 -2 10708.5 1299.4 9
-3 1 2 13657.9 913.959 29
3 1 -2 13693.6 687.801 27
-3 1 2 12601.9 2221.88 13
-3 1 2 11895.9 1955.85 20
3 1 -1 1196.04 593.299 9
-3 1 1 1794.58 441.23 29
3 1 -1 1543.54 259.866 27
-3 1 1 1651.51 1054.02 13
-3 1 1 2559.97 1149.64 20
3 1 0 212129 5076.69 9
-3 1 0 210956 6131.9 13
-3 1 0 202308 6721.15 20
-3 1 0 205766 5363.72 5
-3 1 -1 179753 5216.23 5
-3 1 -1 187702 5278.54 13
3 1 1 186101 5512.72 7
-3 1 -1 181703 6055.23 20
-3 1 -2 6302.8 925.139 13
3 1 2 5703.6 1145.59 7
-3 1 -2 6554.49 973.536 3
-3 1 -2 6695.69 1300.28 20
3 1 3 48688 3496 7
-3 1 -3 42759.2 2504.71 3
-3 1 -4 7564.49 706.478 32
3 1 4 6846.34 1620.67 7
-3 1 -5 6008.06 734.905 32
-3 1 -5 6613.01 1758.96 17
-3 1 -5 5384.07 751.715 58
-3 1 -5 6085.44 784.743 43
3 1 5 6156.22 617.19 41
3 1 5 5726.49 1485.12 7
3 1 5 6666.65 643.29 40
3 1 6 5246.77 576.698 48
-3 1 -6 8118.64 1899.07 17
-3 1 -6 4249.4 680.925 43
3 1 6 5570.56 633.61 41
3 1 6 6046.42 1780.26 7
3 1 6 5307.96 634.428 40
-3 1 -6 5799.51 822.799 32
-3 1 -6 5711.51 857.719 58
-3 1 -6 5417.83 792.187 54
-3 1 -7 19016.4 1441.16 32
3 1 7 17017.7 1026.7 48
-3 1 -7 15788.2 2504.31 17
-3 1 -7 15524.6 1177.19 43
3 1 7 19967 3088.28 7
3 1 7 20549.6 1232.32 41
3 1 7 19251.2 1206.03 40
-3 1 -7 18406.6 1516.3 58
3 1 8 25444.2 1214.4 48
-3 1 -8 25827.5 1537.19 47
-3 1 -8 25825.6 1644.31 32
3 1 8 29715.8 1403.9 41
3 1 8 27297.9 1423.05 40
-3 1 -8 27463.7 1782.22 58
-3 1 -9 3777.21 570.778 47
-3 1 -9 4217.63 710.669 58
3 1 9 4787.83 614.063 40
-3 1 -10 1476.66 301.061 47
3 1 10 2909.73 384.517 40
-3 1 -10 2753.19 483.646 58
-3 2 11 922.187 199.563 41
3 2 -10 8793.46 740 47
-3 2 10 8015.69 706.636 41
3 2 -10 7998.97 734.148 59
-3 2 10 8254.68 712.674 52
-3 2 9 2023.68 507.101 52
3 2 -9 1923.79 471.577 47
-3 2 9 1452.27 485.764 41
3 2 -9 1629.18 517.513 59
3 2 -8 438.173 341.248 47
3 2 -8 1146.02 533.615 59
-3 2 8 974.67 381.632 36
-3 2 8 592.875 425.817 52
3 2 -7 16162 1141.76 51
3 2 -7 13777 1173.14 47
-3 2 7 16275.7 2573.17 25
-3 2 7 16934.8 2689.72 2
3 2 -7 15377.1 1300.67 59
-3 2 7 16149.8 1260.96 36
3 2 -6 7217.1 761.62 51
3 2 -6 7622.86 855.137 47
-3 2 6 5495.29 1524.55 25
-3 2 6 6718.08 1620.06 2
3 2 -6 6513.54 867.894 59
-3 2 6 5864.27 784.021 36
3 2 -5 20696.5 1185.29 51
-3 2 5 22409.3 2859 2
-3 2 5 18098.6 2449.83 25
-3 2 5 24755.5 3045.9 24
3 2 -5 22501.2 2359.57 11
3 2 -5 21694.8 1343.27 59
-3 2 4 4818.53 1375.55 24
-3 2 4 4832.79 1384.64 2
3 2 -4 5104.33 1110.36 11
3 2 -4 3846.61 865.131 10
-3 2 3 14209.3 2169.07 24
3 2 -3 15846 1814.07 11
3 2 -3 13628.1 1531.89 10
3 2 -2 60678.9 3212.32 9
-3 2 2 59656.9 1859.18 29
3 2 -1 36523 2391.88 9
-3 2 1 34680.3 2184.29 17
-3 2 1 33856.8 2962.61 20
-3 2 1 35720.2 1422.73 29
-3 2 0 125117 4989.96 17
3 2 0 133331 4384.31 9
-3 2 0 129864 2687.31 29
-3 2 0 124179 5310.12 20
-3 2 0 127427 4666.41 5
-3 2 -1 239693 6444.52 5
-3 2 -1 245843 3646.55 29
-3 2 -1 245287 7090.82 20
-3 2 -2 2991.84 605.97 3
-3 2 -2 4020.63 505.155 29
3 2 2 2761.05 1012.43 7
-3 2 -3 95572.7 6064 17
3 2 3 109082 5462.32 7
-3 2 -4 6699.14 1774.57 17
3 2 4 5453.72 1443.88 7
-3 2 -5 16139.9 2611.58 17
-3 2 -5 12816 1111.06 43
3 2 5 15391.1 1018.31 41
3 2 5 15382.8 972.091 40
3 2 5 12100.8 2193.49 7
-3 2 -5 14051.1 1181.23 58
-3 2 -6 28098.3 3506.08 17
-3 2 -6 23271 1483.89 43
3 2 6 28445.3 1452.37 41
3 2 6 25526.1 3270.9 7
3 2 6 28176.7 1399.88 40
-3 2 -6 24686.9 1651.39 58
-3 2 -7 7403.82 852.02 43
3 2 7 6575.01 738.227 41
3 2 7 7843.96 786.436 40
-3 2 -7 5938.76 945.01 58
-3 2 -8 10870.3 984.381 47
3 2 8 12346.4 958.861 41
3 2 8 11154.7 902.25 40
-3 2 -8 11156.4 1183.63 58
-3 2 -9 1519.12 394.23 47
3 2 9 3118.16 484.949 40
3 2 9 2911.76 434.21 41
-3 2 -9 3436.1 677.111 58
3 2 10 1049.19 248.425 40
-3 2 -10 1127.46 346.122 58
3 3 -10 4271.66 501.332 47
-3 3 10 4472.14 500.323 41
-3 3 10 3096.63 317.961 40
-3 3 9 1687.02 382.736 35
-3 3 9 2952.35 568.87 52
3 3 -9 2534.64 516.698 47
3 3 -9 2307.18 526.55 59
-3 3 9 2361.01 502.184 41
3 3 -8 8648.39 995.728 59
3 3 -8 8667.76 990.775 47
3 3 -8 8372.92 823.027 51
-3 3 8 8172.26 909.105 36
-3 3 8 8788.66 977.036 52
3 3 -7 32553.6 1834.72 47
-3 3 7 31017.4 3538.94 25
3 3 -7 31764 1887.37 59
-3 3 7 30897.7 1770.66 36
3 3 -7 32478.9 1667.24 51
-3 3 7 31519.8 1776.46 52
3 3 -6 7088 801.441 51
3 3 -6 5787.06 803.009 47
-3 3 6 5284.76 1533.17 25
-3 3 6 8169.81 1990.58 2
3 3 -6 6926.78 902.672 59
-3 3 6 6226.24 861.405 36
3 3 -5 20214 1247.75 51
3 3 -5 21198.4 1358.51 47
-3 3 5 20890 2852.14 2
3 3 -5 19585.8 1351.95 59
-3 3 5 19375.3 1188.17 55
-3 3 5 18666.7 2529.48 25
3 3 -5 20405.7 2316.18 10
3 3 -5 17085.6 2201.8 11
-3 3 5 20093.3 1369.52 36
3 3 -4 21674.1 2294.42 10
-3 3 4 24424.8 2586.99 25
-3 3 4 23581.8 2917.8 24
3 3 -4 24246.8 2520.22 11
-3 3 3 141199 6487.32 24
3 3 -3 161147 6170 11
3 3 -3 151605 5817.62 10
3 3 -2 153681 5648.49 9
-3 3 2 139161 5796 24
3 3 -2 149277 5682.53 10
3 3 -1 36231.1 2622.96 9
-3 3 1 32433.7 2365.78 17
-3 3 1 33241 2627.53 24
-3 3 0 223155 6730.02 17
3 3 0 230042 6349.23 9
-3 3 0 226943 6137.17 24
-3 3 0 231065 6984.94 5
-3 3 -1 11036.7 1658.63 5
-3 3 -1 10937.2 1747.99 17
3 3 1 12093.9 1498.5 9
-3 3 -2 32093.9 3070.03 17
3 3 2 30186.8 2368.35 9
-3 3 -3 19.7783 998.253 17
3 3 3 2398.31 1113.68 7
-3 3 -4 34338.1 3980.77 17
-3 3 -4 34698.8 1790.09 43
3 3 4 20771.1 1160.31 41
3 3 4 19975.3 2755.33 7
-3 3 -4 34191.8 1771.55 58
3 3 4 20065.4 1165.57 37
3 3 4 19099.7 1125.89 35
-3 3 -5 53424.9 4936.71 17
-3 3 -5 44000.9 2174.58 43
3 3 5 28249.1 1416.63 41
3 3 5 28428.9 3419.74 7
3 3 5 28625.9 1352.9 40
-3 3 -5 44259.4 2248.95 58
3 3 5 27646.3 1409.4 35
-3 3 -6 10591 2512.49 17
-3 3 -6 10970.4 1327.83 58
-3 3 -6 12243.5 1222.06 43
3 3 6 9391.39 870.916 41
3 3 6 10518.3 879.68 40
3 3 6 11465 2359.73 7
-3 3 -7 -98.4029 323.815 43
3 3 7 481.655 313.047 40
3 3 7 489.985 362.376 41
-3 3 -7 -311.978 480.314 58
-3 3 -8 13740.1 1394.53 58
3 3 8 14226.8 1017.74 41
3 3 8 12320.2 899.321 40
3 3 9 8987.91 708.664 41
3 3 9 8299.09 665.416 40
-3 3 -9 8823.42 950.112 58
3 3 10 1480.75 219.46 41
3 3 10 2139.76 268.042 40
3 4 -10 2458.32 362.553 47
-3 4 10 2744.48 360.716 41
3 4 -9 994.672 386.516 47
-3 4 9 375.528 233.703 35
-3 4 9 697.142 312.414 41
-3 4 9 1054.43 372.092 52
3 4 -8 5023.62 775.384 47
-3 4 8 4843.02 659.219 41
3 4 -8 5330.77 826.773 59
-3 4 8 6654.7 857.861 52
3 4 -8 5055.61 650.814 51
3 4 -7 332.875 336.126 51
3 4 -7 358.743 421.148 47
3 4 -7 285.585 473.985 59
-3 4 7 416.369 345.543 41
-3 4 7 608.728 463.069 36
-3 4 7 491.573 421.125 52
3 4 -6 41420.7 2091.58 47
-3 4 6 41643.5 3873.92 25
3 4 -6 41285.4 2178.84 59
-3 4 6 48459.4 2213.98 36
-3 4 6 40505.3 2003.4 52
3 4 -6 43594.3 1988.28 51
3 4 -5 17256.8 1239.47 51
3 4 -5 17269.2 1327.79 47
-3 4 5 18095.5 2448.53 25
3 4 -5 18124 1396.04 59
3 4 -5 15456.1 2175.82 10
-3 4 5 16623.9 1280.91 36
3 4 -4 27167.9 1483.06 51
3 4 -4 27282.4 1334.94 49
3 4 -4 27822.8 1574.18 47
3 4 -4 24958.9 1238.77 45
-3 4 4 27795.7 1543.01 36
-3 4 4 27795.2 2758.4 25
3 4 -4 27513.2 2898.65 11
3 4 -4 27849.1 1579.11 59
3 4 -4 32352.4 3145.69 10
-3 4 4 28202.2 1486.54 55
-3 4 3 64359 3752.69 25
3 4 -3 72658.1 4549.12 11
3 4 -3 63600.8 4257.52 10
-3 4 3 66888.6 2210.04 36
3 4 -2 10072.2 1711.57 10
-3 4 2 8992.13 770.212 36
3 4 -1 54134.7 3545.94 9
3 4 -1 55416.8 3769.45 10
-3 4 1 56399.3 3817.22 5
-3 4 0 65271.8 4030 5
3 4 0 61429.9 3598.51 9
-3 4 -1 47628.4 3826.14 17
-3 4 -1 45780.5 3395.99 5
3 4 1 49253.6 3235.22 9
3 4 2 9353.12 1429.95 9
-3 4 -2 9067.87 1872.89 17
-3 4 -3 5489.6 1439.72 17
3 4 3 7480.65 1375.63 9
-3 4 -3 7538.72 851.279 43
3 4 3 8667.01 754.9 41
3 4 4 6143.04 715.148 35
-3 4 -4 6606.51 2136.34 17
3 4 4 3734.56 997.684 9
-3 4 -4 7170.22 906.452 43
-3 4 -4 7632.15 963.578 58
3 4 4 5940.16 663.624 41
3 4 4 5278.86 572.956 40
3 4 4 5824.54 680.261 37
-3 4 -5 15818.5 2950.06 17
-3 4 -5 16090 1353.13 43
3 4 5 9767.42 929.81 37
3 4 5 9825.73 906.585 41
3 4 5 9762.46 807.413 40
-3 4 -5 16665.6 1446.52 58
3 4 5 8823.76 878.561 35
-3 4 -6 54588.7 5395.03 17
-3 4 -6 56194.6 2489.37 43
-3 4 -6 68583.3 2879.29 58
-3 4 -7 26060 1622 43
-3 4 -7 27411.1 1988.79 58
-3 4 -8 4018.94 675.116 43
3 4 8 3788.59 556.405 41
3 4 8 3206.32 439.802 40
3 4 9 1558.17 328.649 41
3 4 9 1564.89 269.543 40
-3 4 -9 1708.29 581.688 58
3 5 -9 1496.17 357.346 47
-3 5 9 1356.65 292.942 41
-3 5 9 1141.53 301.015 35
3 5 -8 15518.9 1184.94 47
-3 5 8 14472.7 1071.74 35
-3 5 8 13694.8 952.96 41
-3 5 8 15293.8 1107.61 52
3 5 -8 15277.9 1028.08 51
3 5 -7 25442.7 1631.22 47
-3 5 7 23808.6 1367.2 41
-3 5 7 26953 1571.06 52
3 5 -7 25678.6 1510.82 51
3 5 -6 2311.97 608.865 51
3 5 -6 2107.85 579.705 47
-3 5 6 2794.58 507.408 41
-3 5 6 1932.33 516.561 52
-3 5 6 1880.32 572.617 36
-3 5 6 1991.09 446.002 53
3 5 -5 72389.2 2260.37 49
3 5 -5 76836.3 2870.2 47
3 5 -5 70400.3 5083.94 10
3 5 -5 82166.9 2989.81 59
-3 5 5 79505.6 2792.08 36
-3 5 5 72289.7 2536.96 52
3 5 -5 76918.4 2685.17 51
3 5 -4 51839.5 2150.88 51
3 5 -4 53719.2 2336.39 47
3 5 -4 48981.6 1918.01 49
3 5 -4 51470.1 1850.97 45
3 5 -4 54932.1 4348.21 11
3 5 -4 49976.2 4247.39 10
-3 5 4 51205.8 2144.82 36
3 5 -3 8996.77 849.127 49
3 5 -3 8761.08 934.99 47
3 5 -3 9530.91 806.566 45
-3 5 3 7815.22 831.627 55
-3 5 3 9493.64 884.869 42
3 5 -3 9842.86 1782.06 11
-3 5 3 8385.73 840.997 36
3 5 -3 8426.83 1703.37 10
3 5 -3 9905.06 946.649 51
3 5 -2 6388.16 633.532 50
3 5 -2 6551.99 721.187 49
3 5 -2 5955.89 755.041 47
3 5 -2 6141.85 642.528 45
-3 5 2 6323.1 1518.35 5
-3 5 2 5949.12 709.736 42
3 5 -2 5017.7 1256.73 11
-3 5 2 6304.67 687.161 36
3 5 -2 7197.04 1527.9 10
-3 5 2 5873.21 703.402 55
3 5 -2 5469.42 674.155 51
3 5 -1 18789.2 1061.78 50
3 5 -1 20012.5 1207.88 49
3 5 -1 18992.8 1061.32 45
-3 5 1 19185.6 1256.04 42
3 5 -1 18832.2 2398.63 10
3 5 -1 19872.8 1278.1 47
-3 5 1 19082.8 1224.68 55
-3 5 1 17626.4 2393.88 5
-3 5 0 18138.2 2396.96 5
3 5 0 19382 2232.65 9
3 5 0 20310.3 1213 49
3 5 0 21394.9 1124.23 45
-3 5 0 17740.4 2206.34 10
-3 5 0 19227.4 1265.84 42
3 5 1 12858 968.439 49
3 5 1 15078.9 1991.88 9
-3 5 -1 13178.8 1096.8 43
-3 5 -1 12831.3 1052.33 42
-3 5 -1 11624.5 1959.84 10
-3 5 -2 9509.59 1958.84 10
3 5 2 10015.4 829.224 49
3 5 2 9190.17 1519.1 9
-3 5 -2 8183.53 881.594 43
-3 5 -2 10797.9 961.758 42
3 5 2 9933.08 806.323 41
-3 5 -2 8359.01 847.438 58
3 5 2 10557.5 843.361 37
-3 5 -3 45988.2 2167.13 43
-3 5 -3 47752.8 1962.69 42
3 5 3 51602.2 1885.86 41
-3 5 -3 44202.2 2109.81 58
3 5 3 47077.9 1848.41 37
-3 5 -3 46638.4 4530.4 10
-3 5 -4 23161.4 1617.83 43
3 5 4 25335.3 1392.16 41
-3 5 -4 22753.8 1642.1 58
3 5 4 21844.8 1333.37 37
-3 5 -4 22819.7 3352.62 10
-3 5 -5 25334 1762.53 43
3 5 5 25197.3 1422.4 41
-3 5 -5 25550.9 1813.88 58
3 5 5 23494.7 1424.22 37
-3 5 -6 324.847 449.401 43
3 5 6 121.568 315.349 41
-3 5 -6 1214.49 657.882 58
-3 5 -7 5399.02 752.627 43
3 5 7 5580.76 661.722 41
-3 5 -7 5650.48 1046.95 58
-3 5 -8 16221.5 1001.41 43
3 5 8 17298.5 990.596 41
3 5 9 9459.74 598.045 41
3 6 -9 1541.72 293.731 47
3 6 -8 5274.59 665.132 47
-3 6 8 4768.66 455.793 41
-3 6 8 5829.27 623.506 35
3 6 -7 33147.4 1729.25 47
-3 6 7 30163.7 1287.71 41
-3 6 7 33214.9 1568.04 52
-3 6 7 31000 1600.96 35
3 6 -7 31849.6 1563.74 51
3 6 -6 19368.8 1462.88 47
-3 6 6 18161.7 1241 53
-3 6 6 18075.9 1242.13 52
3 6 -6 19098.1 1361.34 51
3 6 -5 14529.1 1067.85 49
3 6 -5 13665.1 1252.42 47
-3 6 5 13227.4 1147.11 53
-3 6 5 13340.6 1075.66 52
3 6 -5 15779.2 1283.12 51
3 6 -4 1415.36 537.51 51
3 6 -4 2229.01 475.477 49
3 6 -4 1734.65 537.363 47
-3 6 4 195.333 713.732 5
3 6 -4 2277.8 508.008 45
-3 6 4 2178.26 479.211 42
3 6 -4 250.782 794.903 10
3 6 -3 29441.7 1581.42 49
3 6 -3 29915.4 1774.78 47
3 6 -3 30611.9 1473.31 45
-3 6 3 31555.8 1664.15 42
3 6 -3 29746.1 3174.54 11
3 6 -3 29993 3501.81 10
-3 6 3 27141.5 1429.78 38
-3 6 3 31493.8 1618.81 36
-3 6 3 26160.9 3139.32 5
3 6 -3 30371.6 1687.33 51
3 6 -2 3049.52 544.571 51
3 6 -2 3065.28 524.935 50
3 6 -2 3390.64 606.297 49
-3 6 2 3363.52 1064.43 5
3 6 -2 2917.71 627.528 47
3 6 -2 2629.13 503.052 45
-3 6 2 3301.94 585.476 38
-3 6 2 2333.38 533.834 42
3 6 -2 3756.44 1126.56 11
3 6 -2 2872.18 1212.45 10
3 6 -1 27303.3 1366.97 50
-3 6 1 22851.9 2793.51 5
3 6 -1 25524.8 1500.96 49
-3 6 1 27985.5 1590.04 38
3 6 -1 26947.5 1327.56 45
-3 6 1 26044.3 1552.84 42
3 6 -1 23739 2689.73 11
3 6 -1 24950.3 1535.91 47
3 6 -1 24818.5 1378.96 51
3 6 0 29828.6 1447.94 50
3 6 0 28033.2 1534.48 49
-3 6 0 24713.5 2893.77 5
3 6 0 27364.5 1332.45 45
-3 6 0 26043.5 1561.26 43
-3 6 0 27216 1590.62 42
3 6 0 27586.2 2859.18 11
-3 6 0 29810.9 1687.69 38
3 6 1 3029.18 538.775 49
3 6 1 3812.5 539.366 45
-3 6 -1 2860.28 616.449 43
-3 6 -1 3771.06 651.534 42
3 6 1 3582.48 508.451 41
-3 6 -2 7318.33 1778.7 10
3 6 2 11936.1 947.118 49
3 6 2 10616.7 854.414 45
-3 6 -2 10878.1 1103.4 43
-3 6 -2 10800.3 1047.57 42
3 6 2 10267 859.379 41
3 6 2 9906.21 889.195 37
-3 6 -3 28648.3 1840.14 43
-3 6 -3 29158.9 1603.19 42
3 6 3 29094.4 1477.82 41
3 6 3 26530.5 1472.21 37
-3 6 -3 26769.4 3656.71 10
-3 6 -4 6477.95 1005.32 43
3 6 4 6357.56 705.213 41
3 6 4 7359.76 813.085 37
-3 6 -5 580.008 513.234 43
3 6 5 369.274 325.599 41
3 6 5 213.937 327.752 37
-3 6 -6 3260.7 643.316 43
3 6 6 3828.6 584.158 41
-3 6 -7 8391.73 822.28 43
3 6 7 10060.6 775.309 41
-3 6 -8 1737.26 286.752 43
3 6 8 2281.96 332.933 41
3 7 -8 806.504 265.773 47
3 7 -7 309.108 334.689 47
-3 7 7 -11.4984 214.5 35
3 7 -6 1852.03 541.89 47
-3 7 6 1575.38 387.166 53
-3 7 6 1439.94 364.051 35
3 7 -5 3663.37 681.372 51
3 7 -5 4454.25 586.921 49
3 7 -5 3637.28 678.74 47
-3 7 5 4320.58 671.354 53
-3 7 5 4776.65 641.765 35
-3 7 4 1007.63 369.613 35
3 7 -4 1074.35 442.47 51
3 7 -4 1224.68 361.14 49
3 7 -4 1887.62 602.885 47
-3 7 4 937.939 419.845 53
3 7 -3 8369.21 901.079 49
3 7 -3 7581.34 955.793 47
3 7 -3 6895.6 708.951 45
-3 7 3 6562.5 881.728 53
3 7 -3 7164.1 866.46 51
3 7 -2 62388.4 2378.88 49
3 7 -2 55263.7 1913.58 45
-3 7 2 63717.2 2439.38 42
3 7 -2 57839.1 2020.49 50
3 7 -2 61268.2 2530.01 47
-3 7 2 58009.4 2260.34 38
-3 7 2 61521.7 2461.09 53
3 7 -2 58221.7 2254.8 51
3 7 -1 6152.67 742.028 50
3 7 -1 7902.43 894.622 49
-3 7 1 7104.94 863.49 38
3 7 -1 7147.92 711.699 45
-3 7 1 6797.73 869.396 42
-3 7 1 7252.97 902.294 53
3 7 0 13272.7 1025.03 50
3 7 0 14345.5 1132.95 49
-3 7 0 13043.7 1194.07 38
3 7 0 13226.2 945.872 45
-3 7 0 13649.6 1162.71 43
-3 7 0 14532.9 1223.99 42
-3 7 0 12454.1 1106.62 53
3 7 1 63172.9 2246.59 50
3 7 1 56945 2189.76 49
3 7 1 59262.6 1952.15 45
-3 7 -1 58193.9 2462.33 43
-3 7 -1 65016.5 2648.85 38
-3 7 -1 58546.8 2400.84 42
-3 7 -1 61945.7 2255.26 53
3 7 2 12055.7 882.047 45
-3 7 -2 13913.3 1251.82 43
3 7 2 12738.8 988.205 49
-3 7 -2 13692.9 1161.55 42
-3 7 -2 13132.7 1281.96 38
3 7 2 12627.2 992.345 37
3 7 3 19174.7 1104.35 45
-3 7 -3 22081.9 1653.14 43
3 7 3 20691.4 1176.33 41
3 7 3 20152.1 1290.94 37
-3 7 -4 13176.6 1291.4 43
3 7 4 13187.4 944.596 41
3 7 4 14326.4 1098.96 37
-3 7 -5 23798.9 1590.63 43
3 7 5 22909.9 1206.12 41
3 7 5 25525.3 1369.77 37
-3 7 -6 12292 1033.59 43
3 7 6 11873.5 813.67 41
-3 7 -7 1473.03 319.016 43
3 7 7 1340.8 275.105 41
-3 7 -7 1348.76 368.364 38
3 8 -7 11457 721.438 47
3 8 -6 3721.79 538.5 47
-3 8 6 3082.95 432.888 53
-3 8 6 3667.38 448.277 35
3 8 -5 1589.52 348.757 49
3 8 -5 1378.83 470.445 47
-3 8 5 1831.55 442.798 53
-3 8 5 1843.5 368.464 35
3 8 -4 2969.3 512.24 49
3 8 -4 2992.75 632.857 47
-3 8 4 3376.09 586.314 53
3 8 -3 7005.57 798.805 49
-3 8 3 6213.08 843.091 53
3 8 -2 3771.55 641.529 49
3 8 -2 3223.42 446.45 45
-3 8 2 2728.95 525.278 38
-3 8 2 3988.04 686.053 53
3 8 -1 15790.8 1065.91 50
3 8 -1 16960.7 1227.21 49
-3 8 1 14897 1182.5 38
3 8 -1 14195.3 892.834 45
-3 8 1 15747.7 1233.9 53
3 8 0 15363.2 1089.89 50
3 8 0 15187 1143.93 49
-3 8 0 15984.4 1270.04 38
-3 8 0 15578.9 1184.62 53
3 8 1 8909.32 876.27 50
3 8 1 8977.81 852.226 49
-3 8 -1 8386.54 932.748 43
-3 8 -1 7727.37 941.665 38
3 8 1 7929.01 751.695 37
-3 8 -1 8801.53 821.254 53
3 8 2 3646.79 621.152 50
3 8 2 3539.98 502.458 49
-3 8 -2 3650.24 699.463 43
-3 8 -2 3782.47 745.567 38
3 8 2 3553.51 547.687 37
3 8 3 5882.86 708.706 50
-3 8 -3 5038.2 822.987 43
3 8 3 4669.62 588.808 37
-3 8 -3 4824.41 811.733 38
-3 8 -4 7809.82 941.841 38
-3 8 -4 7443.77 889.343 43
3 8 4 8189.92 738.676 37
-3 8 -5 15805.7 1138 43
3 8 5 16203.4 952.457 37
-3 8 -5 16716 1206.84 38
-3 8 -6 694.055 268.232 38
3 8 7 2762.23 296.727 50
3 9 -5 885.621 202 49
-3 9 5 1186.72 280.302 53
3 9 -4 3855.91 498.966 49
-3 9 4 4004.6 543.696 53
3 9 -3 8928.92 762.22 49
-3 9 3 9277.82 833.857 53
3 9 -2 1107.93 397.692 49
-3 9 2 644.024 265.432 53
3 9 -1 5599.13 665.01 49
-3 9 1 5172.74 651.786 38
-3 9 1 5646.23 671.27 53
3 9 0 4446.76 541.894 50
3 9 0 5014.76 618.3 49
-3 9 0 5334.74 699.796 38
-3 9 0 5863.92 652.89 53
3 9 1 3552.25 433.533 37
3 9 1 3651.53 491.774 50
-3 9 -1 3465.78 611.393 38
3 9 1 4062.02 508.236 49
3 9 2 10298.6 790.488 50
3 9 2 9860.39 702.585 37
-3 9 -2 9492.16 930.064 38
3 9 3 7142.03 633.454 50
3 9 3 6627.96 566.149 37
-3 9 -3 7220.93 790.537 38
3 9 4 13697.4 776.474 50
-3 9 -4 13957.6 988.755 38
3 9 4 13539.9 746.532 37
3 9 5 1299.91 245.357 50
-3 9 -5 1651.99 333.024 38
3 10 -3 1317.11 240.226 49
-3 10 3 956.142 234.557 53
3 10 -2 5906.41 506.699 49
-3 10 2 6391.37 551.586 53
3 10 -1 45.0014 176.839 49
-3 10 1 261.54 165.19 49
-3 10 1 235.984 150.701 53
3 10 0 771.256 233.611 49
-3 10 -1 1218.43 298.189 38
3 10 1 1107.97 218.795 49
-3 10 -2 2318.68 377.956 38
-3 10 -3 1933.41 292.557 49
-3 10 -3 1432.08 289.123 38
4 -10 -1 5264.05 452.757 39
4 -10 0 881.837 225.042 39
4 -9 -4 -609.3 203.127 56
4 -9 -4 356.671 205.998 39
4 -9 -3 3243.69 453.29 39
4 -9 -3 3608.05 434.951 56
4 -9 -2 13591.7 911.628 39
4 -9 -2 13468.7 879.155 56
4 -9 -1 3629.97 556.734 39
4 -9 0 9501.12 851.792 39
-4 -9 0 8304.91 894.645 54
-4 -9 -1 539.9 362.66 34
4 -9 1 1099.47 412.993 39
4 -9 1 956.445 399.889 57
-4 -9 -1 1300.87 459.656 54
-4 -9 -2 2645.15 579.646 30
4 -9 2 3024.99 511.86 39
4 -9 2 2801.04 514.409 57
-4 -9 -2 1993.43 447.934 54
4 -9 3 718.66 183.273 44
4 -9 3 1103.84 336.741 39
4 -9 3 36.7437 289.2 57
-4 -9 -3 732.617 341.311 54
4 -9 4 16.3244 164.266 39
-4 -9 -4 377.011 369.013 58
4 -9 4 313.82 243.361 57
4 -8 -6 13799.2 779.798 59
4 -8 -5 4294 515.911 39
4 -8 -5 5867.26 591.771 59
4 -8 -5 5154.65 518.384 56
4 -8 -4 3144.61 504.647 39
4 -8 -4 2516.78 441.643 56
4 -8 -3 5760.66 685.871 56
4 -8 -3 6750.71 763.822 39
4 -8 -2 4123.73 659.231 39
4 -8 -1 2425.63 582.325 39
4 -8 -1 2057.76 568.397 57
4 -8 0 206.998 201.067 44
-4 -8 0 601.359 449.612 26
4 -8 0 -67.3569 363.633 39
4 -8 0 223.576 486.124 57
-4 -8 -1 120.524 381.516 34
4 -8 1 349.513 473.024 57
4 -8 1 122.721 285.993 44
-4 -8 -1 631.718 518.291 26
-4 -8 -1 574.588 391.956 54
-4 -8 -2 1320.31 487.327 34
4 -8 2 706.542 322.749 44
-4 -8 -2 939.541 543.787 26
4 -8 2 798.316 521.819 57
-4 -8 -2 1211.97 492.954 54
-4 -8 -3 327.839 360.046 34
-4 -8 -3 724.976 440.937 30
-4 -8 -3 1833.72 623.675 26
4 -8 3 896.602 505.389 57
-4 -8 -3 511.309 420.973 54
-4 -8 -4 2057.43 501.832 30
4 -8 4 1366.26 496.411 57
-4 -8 -4 1663.47 441.982 54
-4 -8 -5 2488.34 596.793 58
4 -8 5 1403.79 406.565 57
-4 -8 -5 1866.32 367.792 54
4 -8 6 1403.22 309.059 57
4 -7 -7 8245.52 669.491 59
4 -7 -6 -51.6963 329.628 59
4 -7 -6 314.77 299.66 56
4 -7 -5 1696.34 484.148 59
4 -7 -5 1067.53 382.259 39
4 -7 -5 1065.2 409.32 56
4 -7 -4 3889.03 621.714 39
4 -7 -4 3782.2 619.213 56
4 -7 -3 24021.7 1462.14 39
-4 -7 2 5666.5 1719.23 18
4 -7 -2 7797.91 703.326 44
4 -7 -2 8190.25 928.18 39
4 -7 -1 4899.14 612.797 44
4 -7 -1 4349.76 758.341 39
4 -7 -1 4497.14 804.589 57
-4 -7 0 2448.38 589.358 34
4 -7 0 2596.73 468.078 44
4 -7 0 3329.43 766.674 57
-4 -7 -1 23162.1 1541.84 34
-4 -7 -1 29259.5 3930.85 18
-4 -7 -1 27230.7 1909.58 26
4 -7 1 27013.3 1821.55 57
-4 -7 -2 3965.32 766.318 34
-4 -7 -2 4926.52 1801.37 18
4 -7 2 4790.46 750.482 46
-4 -7 -2 3464.15 814.532 26
4 -7 2 5003.92 895.676 57
-4 -7 -2 4637.3 782.365 54
-4 -7 -3 740.838 496.88 34
4 -7 3 1267.42 499.41 46
-4 -7 -3 1503.43 691.847 26
-4 -7 -3 1781.43 626.046 54
-4 -7 -4 402.985 511.704 30
4 -7 4 349.527 377.677 46
-4 -7 -4 258.37 525.001 26
-4 -7 -4 -72.6974 394.058 54
-4 -7 -5 814.782 444.042 30
4 -7 5 1014.08 401.506 46
-4 -7 -5 1009.88 610.552 58
-4 -7 -5 1394.7 432.962 54
4 -7 6 5669.28 593.804 46
-4 -7 -6 5135.59 743.348 58
-4 -7 -6 6775.7 656.777 54
4 -7 7 354.304 199.87 46
-4 -7 -7 197.508 228.704 58
4 -6 -8 9127.9 706.234 59
4 -6 -7 5547.89 685.148 59
4 -6 -6 751.951 429.408 59
4 -6 -6 558.798 365.589 39
4 -6 -6 600.097 359.213 56
4 -6 -5 5670.05 754.481 56
4 -6 -5 5818.63 752.744 39
4 -6 -5 5004.54 740.316 59
4 -6 -4 8378.79 917.529 39
4 -6 -4 8412.17 909.101 56
-4 -6 3 23841.1 3220.09 18
4 -6 -3 23987.4 1496.13 39
-4 -6 2 36964.1 4154.99 18
4 -6 -2 38376.5 4101.89 8
4 -6 -2 40630.5 1662.06 44
4 -6 -2 42783.6 2014.55 39
4 -6 -2 43358.2 2084.21 57
-4 -6 1 4107.47 1370 18
4 -6 -1 4627.34 733.153 39
4 -6 -1 3207.88 526.962 44
4 -6 -1 4157.12 1532.52 8
-4 -6 1 6827.17 2147.43 4
-4 -6 1 1488.41 722.586 1
4 -6 -1 4663.44 788.995 57
-4 -6 0 9228.92 956.099 34
-4 -6 0 9803.44 2318.37 18
-4 -6 0 8569.73 2113.9 1
4 -6 0 8724.79 818.568 44
4 -6 0 10346.4 2346.68 8
4 -6 0 9140.4 1039.42 57
-4 -6 -1 8158.29 947.577 34
-4 -6 -1 5939.09 1718.77 18
4 -6 1 8645.9 908.063 46
4 -6 1 7982.98 2057.26 8
-4 -6 -1 8694.83 1976.54 1
4 -6 1 9207.36 1050.51 57
-4 -6 -2 54960.8 2427.25 34
-4 -6 -2 65613 5946.33 18
4 -6 2 59340.6 2261.27 46
-4 -6 -2 59256 2803.18 26
-4 -6 -2 51096 2288.34 54
4 -6 2 48493.6 4408.81 19
-4 -6 -3 8952.66 1101.34 34
-4 -6 -3 11041.5 2687.74 18
4 -6 3 9801.12 1040.52 46
-4 -6 -3 9693.4 1283.89 26
-4 -6 -3 9675.33 1084.44 54
-4 -6 -4 15606.8 1401.95 30
4 -6 4 17297.4 1263.53 46
-4 -6 -4 18797.7 1665.25 26
-4 -6 -4 19204.7 1494.06 54
4 -6 5 40602 1512.16 48
-4 -6 -5 40111.7 2077.98 30
4 -6 5 46865 1968.23 46
-4 -6 -5 41240.3 2241.72 58
-4 -6 -5 41607.7 2068.7 54
4 -6 6 10050.1 756.314 48
-4 -6 -6 5772.93 776.654 30
4 -6 6 12223.1 945.652 46
-4 -6 -6 6633.45 968.831 58
-4 -6 -6 7053 797.441 54
4 -6 7 432.723 214.156 48
-4 -6 -7 -180.315 287.253 54
4 -6 7 330.267 262.914 46
-4 -6 -7 -236.175 378.1 58
4 -6 8 713.356 206.086 46
4 -5 -9 118.499 215.507 59
4 -5 -8 3820.23 558.048 59
4 -5 -7 16693.2 1206.99 59
4 -5 -6 53680.5 2138.5 39
4 -5 -6 53635.3 2157.16 59
4 -5 -6 57476.3 2179.43 56
4 -5 -5 12653.3 1069.41 39
4 -5 -5 11458.5 1066.22 59
4 -5 -5 12618.4 1098.67 56
4 -5 -4 9740.79 961.302 39
4 -5 -4 9009.33 945.111 56
-4 -5 3 14439.6 2373.88 18
-4 -5 3 16777.4 2642.66 1
4 -5 -3 16289.4 1054.26 44
4 -5 -3 16255 1199.8 39
-4 -5 2 3058.55 1330.48 18
-4 -5 2 4170.16 1386.95 1
4 -5 -2 4223.92 584.212 44
4 -5 -2 3669.07 486.455 27
4 -5 -2 4731.32 1217.23 8
4 -5 -2 3350.99 614.789 39
4 -5 -2 2856.25 598.345 57
-4 -5 1 28162 3444.76 18
-4 -5 1 31996.7 3780.39 1
-4 -5 1 35615.2 3585.46 3
4 -5 -1 21855.9 3057.11 8
4 -5 -1 28475.2 1398.12 44
4 -5 -1 27238.2 1565.44 39
4 -5 -1 29652.1 1630.85 57
-4 -5 0 6572.1 1734.78 18
-4 -5 0 5833.18 1527.15 3
4 -5 0 3237.31 1504.29 8
-4 -5 0 5162.94 1632.91 1
4 -5 0 5482.57 751.801 57
-4 -5 -1 26372.3 1557.44 34
-4 -5 -1 28808.3 3732.97 18
4 -5 1 26124.7 1459.83 46
4 -5 1 26423.9 3510.15 8
-4 -5 -1 27874.4 3668.97 1
4 -5 1 19246.1 2469.8 19
-4 -5 -2 60796.9 2472.3 34
-4 -5 -2 68634.8 5837.62 18
4 -5 2 57455.8 1846.6 48
4 -5 2 62917.4 2235.19 46
4 -5 2 61836.7 5244.87 8
-4 -5 -2 63677.9 2808.56 26
-4 -5 -3 58060.9 5608.33 18
4 -5 3 57711.4 1933.25 48
4 -5 3 61936.6 2272.38 46
4 -5 3 57035.1 5034.85 8
-4 -5 -3 60526 2890.01 26
-4 -5 -3 57425.6 2522.28 34
-4 -5 -3 57218.4 2438.1 54
4 -5 4 5942.71 661.819 48
-4 -5 -4 5964.56 830.932 54
-4 -5 -4 7137.64 1043.67 30
4 -5 4 6554.3 840.208 46
-4 -5 -4 7424.23 1200.81 26
4 -5 5 12827.1 975.327 48
-4 -5 -5 13095.4 1308.06 30
4 -5 5 16957.1 1290.04 46
-4 -5 -5 11836.3 1386.11 58
-4 -5 -5 13557.9 1238.67 54
-4 -5 -6 7290.78 945.44 30
-4 -5 -6 8802.53 1210.28 58
-4 -5 -6 10152.8 1028.2 54
-4 -5 -7 634.338 521.257 58
-4 -5 -7 1209.19 426.059 54
4 -5 7 1461.55 344.754 48
4 -5 7 1423.48 406.896 46
4 -5 8 125.531 179.151 48
4 -5 8 200.053 223.597 46
-4 -5 -8 102.095 290.157 58
-4 -5 -8 89.3957 213.809 54
4 -4 -9 10993.9 847.799 59
4 -4 -8 12600.5 1043.84 59
4 -4 -7 25623.6 1545.22 59
4 -4 -6 503.161 421.651 59
4 -4 -6 870.515 459.018 56
-4 -4 5 12268.6 2246.66 12
4 -4 -5 11320 997.909 39
4 -4 -5 10127.9 1011.35 59
4 -4 -5 11078.8 1002.63 56
4 -4 -4 -252.376 250.24 27
-4 -4 4 -370.474 874.553 13
4 -4 -4 735.995 400.776 56
4 -4 -4 311.422 328.898 39
-4 -4 3 24456.5 2862.35 18
-4 -4 3 19897.3 2659.35 1
4 -4 -3 23807.5 1254.64 44
4 -4 -3 23287.4 1124.4 27
4 -4 -3 21874.1 1272.67 39
-4 -4 2 3614.2 1215.79 18
-4 -4 2 2608.31 999.522 1
-4 -4 2 6669.5 1306.38 3
4 -4 -2 6673.11 662.986 44
4 -4 -2 5713 591.614 27
4 -4 -2 6427.26 1514.35 8
4 -4 -2 5838.05 742.077 57
-4 -4 1 4736.16 1483.96 18
-4 -4 1 5427.02 1319.62 3
4 -4 -1 5819.74 644.228 44
4 -4 -1 5952.52 1615.08 8
-4 -4 1 3387.72 1251.57 1
4 -4 -1 5838.73 742.123 57
-4 -4 0 78108.2 5472.97 18
4 -4 0 74863.9 2217.26 46
4 -4 0 75504.3 5057.42 8
4 -4 0 75649.9 2394.11 57
-4 -4 0 68339.5 5225.15 1
-4 -4 0 71930.5 4698.53 3
-4 -4 -1 14732.8 2612.54 18
-4 -4 -1 13746.2 2157.8 3
4 -4 1 12868.9 831.22 48
4 -4 1 13961.8 994.261 46
4 -4 1 13340.2 2312.57 8
-4 -4 -1 12534 1235.47 26
-4 -4 -1 12503.7 1003.64 34
-4 -4 -2 7763.87 2120.11 18
4 -4 2 7638.3 698.688 48
4 -4 2 8645.42 824.588 46
-4 -4 -2 7126.8 875.153 34
-4 -4 -2 8324.82 1791.93 3
-4 -4 -2 8782.97 1131.48 26
4 -4 2 9184.62 2042.17 8
-4 -4 -3 9268.65 1056.71 34
4 -4 3 6738.15 701.953 48
4 -4 3 7595.7 809.523 46
-4 -4 -3 7309.06 1168.83 26
4 -4 3 7402.18 1838.12 8
-4 -4 -3 7677.51 2108.7 18
4 -4 4 48041.2 1808.69 48
-4 -4 -4 48566.7 2459.72 30
4 -4 4 47727.8 1989.9 46
-4 -4 -4 53516.5 2780.38 26
-4 -4 -4 49397.8 2201.34 54
4 -4 5 54194.2 1992.11 48
-4 -4 -5 53015 2604.73 30
-4 -4 -5 48561.9 2608.05 58
-4 -4 -5 53171.3 2324.8 54
-4 -4 -6 11389 1265.75 30
-4 -4 -6 12455.9 1421.22 58
-4 -4 -6 14059.4 1215.32 54
4 -4 7 23465.2 1244.61 48
4 -4 7 25150.7 1355.46 46
-4 -4 -7 12904.9 1335.72 58
-4 -4 -7 14306.1 1141.49 54
4 -4 8 710.069 298.733 48
4 -4 8 -170.392 265.478 46
-4 -4 -8 811.412 459.366 58
-4 -4 -8 -105.151 284.145 54
4 -4 9 368.025 180.026 48
-4 -4 -9 400.747 206.846 58
4 -3 -10 5047.12 496.04 59
4 -3 -9 596.518 384.588 59
4 -3 -8 23611.2 1474.71 59
-4 -3 7 24927.4 3041.73 25
4 -3 -7 32765.7 1772.04 59
-4 -3 6 3673.95 1220.85 24
-4 -3 6 5222.26 1530.99 12
4 -3 -6 3206.5 673.07 59
4 -3 -6 3455.94 595.893 56
-4 -3 5 56302.3 5013.15 13
4 -3 -5 62653.4 2194.87 39
4 -3 -5 59944.3 2230.35 59
4 -3 -5 63478.6 2223.23 56
4 -3 -4 1327.27 354.204 27
-4 -3 4 377.689 728.284 13
4 -3 -4 1533.33 435.872 59
4 -3 -4 603.069 237.238 39
4 -3 -4 1380.59 406.573 56
-4 -3 4 901.07 835.096 20
-4 -3 3 8307.83 1590.47 1
4 -3 -3 8253.66 741.386 44
4 -3 -3 7101.86 651.135 27
-4 -3 2 17706.5 2262.91 18
4 -3 -2 18702.3 2217.99 8
4 -3 -2 17474.6 973.802 27
-4 -3 2 17466.7 2238.03 3
-4 -3 2 16748.7 2336.62 1
-4 -3 1 51446.7 3921.78 18
4 -3 -1 50012 3626.33 8
-4 -3 1 48700.4 3636.75 3
-4 -3 1 46433.3 3913.73 1
-4 -3 0 203880 8111.43 18
4 -3 0 201332 7532.44 8
-4 -3 0 204840 3995.66 26
-4 -3 0 212485 8585.24 1
-4 -3 0 211292 7473.46 3
-4 -3 -1 12219.7 2194.18 18
4 -3 1 14080.4 2168.64 8
-4 -3 -1 12880.8 1122.36 26
-4 -3 -1 11844 1866.12 3
-4 -3 -2 4173.42 628.544 34
-4 -3 -2 5110.58 1716.86 18
4 -3 2 5267.08 621.626 46
-4 -3 -2 4325.01 1239.78 3
4 -3 2 4227.46 1459.06 8
-4 -3 -2 4738.75 865.318 26
-4 -3 -3 8977.96 2445.31 18
4 -3 3 10212.4 800.377 48
-4 -3 -3 9462.15 1090.68 30
4 -3 3 9929.22 849.974 46
-4 -3 -3 8845.04 1893.53 3
-4 -3 -3 7877.34 1072.27 26
4 -3 3 6687.42 1661.63 8
-4 -3 -4 16740.1 1543.32 30
4 -3 4 13091.3 1020.12 46
4 -3 4 14482.8 1015.95 48
4 -3 5 20586.6 1271.58 48
-4 -3 -5 20496.8 1768.63 30
4 -3 5 21341.5 1393.62 46
-4 -3 -5 19970.9 1640.35 58
-4 -3 -5 21531.9 1422.99 54
4 -3 6 2054.28 496.717 48
4 -3 6 2108.17 550.322 46
-4 -3 -6 1445.09 592.499 43
-4 -3 -6 1624.16 806.028 58
-4 -3 -6 1501.73 497.584 54
4 -3 7 10360.2 1103.88 48
4 -3 7 10701.9 1009.95 46
-4 -3 -7 8388.68 1210.96 58
-4 -3 -7 8299.11 924.587 54
4 -3 8 1002.17 426.193 48
4 -3 8 1098.27 312.252 46
-4 -3 -8 1133.83 529.332 58
-4 -3 -8 1153.62 381.56 54
4 -3 9 8962.45 630.514 48
-4 -3 -9 9990.1 833.35 58
4 -2 -10 12596.2 838.25 59
4 -2 -9 8386.36 860.101 59
-4 -2 8 5264.77 1498.94 25
4 -2 -8 9559.89 1031.29 59
-4 -2 7 6882.3 1827.24 25
-4 -2 7 5720.14 1539.91 24
4 -2 -7 8054.53 956.266 59
-4 -2 6 30446.1 3699.85 24
4 -2 -6 27970.5 1619.74 59
4 -2 -6 32303 1679.42 56
4 -2 -5 8233.82 707.638 48
-4 -2 5 8684.81 2200.6 13
4 -2 -5 8127.82 849.721 59
4 -2 -5 9508.72 862.527 56
-4 -2 5 8193.57 1794.15 20
4 -2 -4 1067.12 288.779 48
4 -2 -4 1108.32 323.215 27
-4 -2 4 807.526 887.76 13
4 -2 -4 1125.23 341.608 59
4 -2 -4 1573.37 370.123 56
-4 -2 4 717.214 872.448 20
4 -2 -3 3138.9 461.444 27
-4 -2 3 3058 1067.97 13
-4 -2 2 18764.3 2143.29 18
4 -2 -2 16870.9 1836.46 8
4 -2 -2 18142.6 935.326 27
-4 -2 1 37687.8 3182.49 18
4 -2 -1 32803.1 2680.47 8
-4 -2 1 38652 1517.63 26
-4 -2 0 151800 6653.38 18
4 -2 0 138501 5733.92 8
-4 -2 0 143829 3130.34 26
-4 -2 0 155026 6003.68 3
-4 -2 -1 29142.2 3263.11 18
4 -2 1 24500.7 2674.67 8
-4 -2 -1 27285.1 1506.43 26
-4 -2 -1 28802.1 2650.64 3
-4 -2 -2 14347.9 2571.02 18
-4 -2 -2 13315.6 1144.97 30
4 -2 2 13830.4 2053.12 8
-4 -2 -2 13121.7 1177.18 26
4 -2 2 10903.7 1528.71 7
-4 -2 -2 11481.4 1773.61 3
4 -2 3 459.951 225.344 48
-4 -2 -3 1229.54 654.127 30
-4 -2 -3 887.781 700.342 3
-4 -2 -3 858.406 650.189 26
4 -2 3 631.905 896.01 8
4 -2 4 25163.6 1260.82 48
-4 -2 -4 27117.9 1913.69 30
4 -2 4 22710.8 1231.79 46
4 -2 4 23813.3 1174.57 40
4 -2 5 39934.3 1729.46 48
-4 -2 -5 43141.2 2500.37 30
4 -2 5 40508.8 1793.24 46
-4 -2 -5 40442.8 2303.87 58
4 -2 5 42601.3 1654.02 40
-4 -2 -6 3800.58 940.513 58
4 -2 6 2928.98 588.093 48
4 -2 6 1098.96 392.334 46
-4 -2 -6 2432.43 706.329 43
4 -2 6 2630.66 458.25 40
-4 -2 -6 1918.81 1227.55 6
-4 -2 -6 2586.87 566.186 54
4 -2 7 11818.9 943.805 46
-4 -2 -7 11337.7 1072.83 43
4 -2 7 13120.9 1029.28 40
-4 -2 -7 12944.3 1392.69 58
4 -2 7 11936.9 962.81 48
-4 -2 -7 13000.1 1139.98 54
4 -2 8 15871 1049.18 48
4 -2 8 17084.5 990.197 40
-4 -2 -8 19681.1 1506.72 58
-4 -2 -8 17338 1228.52 54
4 -2 9 3392.39 441.582 48
4 -2 9 2650.56 348.514 40
-4 -2 -9 3438.98 605.422 58
-4 -1 10 3895.21 436.118 41
4 -1 -10 5343.72 592.856 59
4 -1 -9 12097 1089.74 59
-4 -1 8 1555.71 891.586 25
4 -1 -8 1214.87 631.416 59
-4 -1 7 3678.37 1425.61 25
-4 -1 7 6533.42 1933.78 24
-4 -1 7 4916.79 1468.06 12
4 -1 -7 6880.25 921.902 59
4 -1 -6 1037.87 312.3 51
4 -1 -6 1185.9 488.957 59
4 -1 -5 21938.7 1250.07 56
4 -1 -5 21653.2 1137.99 48
-4 -1 5 20141.2 3133.35 24
4 -1 -5 19607.8 1270.31 59
-4 -1 5 18872.7 2683.59 20
-4 -1 4 39397.5 1745.12 29
-4 -1 4 40604.8 4180.88 13
-4 -1 4 39026.8 3967.02 20
4 -1 -3 1264.96 333.586 27
-4 -1 3 -122.773 1090.94 13
-4 -1 3 1126.04 1036.34 20
-4 -1 2 1866.85 753.152 18
4 -1 -2 1679.08 505.027 9
4 -1 -2 2068.21 361.184 27
-4 -1 2 1682.93 971.252 13
-4 -1 1 16162.5 2083.78 18
-4 -1 1 19284.8 1740.26 5
4 -1 -1 19361.7 1619.36 9
4 -1 -1 16584.9 1769.83 8
-4 -1 0 19028 2425.79 18
-4 -1 0 18921.6 1708.98 5
-4 -1 0 18745.2 1121.81 30
4 -1 0 14615.8 1905.37 8
-4 -1 0 16561.4 1088.53 26
-4 -1 -1 39305.3 1740.98 30
4 -1 1 34582 2888 8
-4 -1 -1 33921.6 1685.47 26
4 -1 1 37681.3 2395.87 7
-4 -1 -1 36562.5 2852.97 3
-4 -1 -2 17796.8 1286.57 30
4 -1 2 12357.2 2070.72 8
4 -1 2 14630 1771.6 7
-4 -1 -2 17614.7 2056.53 3
-4 -1 -3 64729.9 4076.92 3
-4 -1 -3 68311.8 2668.95 30
4 -1 3 64123.7 4153.34 7
4 -1 4 11746 851.236 48
-4 -1 -4 12760.3 1345.92 30
4 -1 4 9725.34 1887.74 7
4 -1 4 12567.4 879.777 40
-4 -1 -4 11349.1 1152.86 58
4 -1 5 8611.62 786.315 48
-4 -1 -5 9342.38 1151.13 43
4 -1 5 9956.74 2083.84 7
4 -1 5 8968.39 784.685 40
-4 -1 -5 8838.31 1127.66 58
4 -1 6 7772.03 792.312 48
-4 -1 -6 9012.05 1093.27 43
4 -1 6 8374.06 1993.19 7
4 -1 6 9308.4 858.922 40
-4 -1 -6 9821.73 1223.4 58
-4 -1 -6 9117.24 958.009 54
4 -1 7 13509.9 1026.17 48
-4 -1 -7 15526.5 2792.43 17
-4 -1 -7 12729.1 1149.22 43
4 -1 7 13307.3 1016.69 40
-4 -1 -7 14033.9 1416.24 58
-4 -1 -7 13226.5 1178.49 54
4 -1 8 11946.6 896.415 48
4 -1 8 12349.8 911.661 40
-4 -1 -8 13809 1330.22 58
4 -1 9 2622.89 384.857 48
-4 -1 -9 3052.44 611.221 58
4 -1 9 1992.01 357.567 40
4 -1 10 4601.02 358.528 40
-4 -1 -10 4763.41 477.35 58
-4 0 10 266.009 237.75 41
4 0 -10 -249.868 287.364 59
-4 0 9 289.587 671.641 25
4 0 -9 281.535 576.901 59
-4 0 9 -183.081 271.981 52
4 0 -8 6052.94 906.837 59
-4 0 8 5937.28 1678.86 25
-4 0 8 4564.29 647.298 36
4 0 -7 1479.35 396.433 51
-4 0 7 -108.339 953.376 25
-4 0 7 61.6085 849.883 24
-4 0 7 803.269 684.312 12
4 0 -7 1086.43 475.56 59
-4 0 7 1687.85 511.677 36
4 0 -6 1599.35 393.416 51
-4 0 6 1763.51 975.821 24
4 0 -6 2859.74 652.469 59
4 0 -5 4410.35 554.552 48
-4 0 5 3488.97 1528.41 24
4 0 -5 3774.78 590.325 59
-4 0 4 8204.88 863.438 29
4 0 -4 8197.17 1281.01 11
-4 0 4 11076.7 2331.29 20
-4 0 3 800.362 477.473 29
4 0 -3 357.669 232.197 27
-4 0 3 651.422 1079.2 13
-4 0 3 1101.33 1284 20
4 0 -2 7502.51 1144.79 9
4 0 -2 7257.19 595.773 27
-4 0 2 7389.87 1909.4 13
-4 0 2 7018.51 2068.45 20
-4 0 1 3456.78 850.255 5
4 0 -1 3573.16 793.333 9
4 0 -1 4333.03 467.826 27
-4 0 1 4484.64 1480.54 13
-4 0 1 3893.26 1425.1 20
-4 0 0 95461.3 4027.26 5
-4 0 0 94484.1 2581.62 30
4 0 0 98355.7 3900.81 9
-4 0 -1 86529.3 2687.72 30
4 0 1 89839.2 3945.96 7
-4 0 -1 83985.4 4049.9 3
-4 0 -2 71512.9 2609.75 30
4 0 2 75765 4153.64 7
-4 0 -2 64494.2 3659.73 3
-4 0 -3 8409.84 1444.85 3
4 0 3 8467.97 1685.35 7
4 0 4 45661.8 1624.58 48
-4 0 -4 45127.2 2253.81 43
4 0 4 42439 3790.84 7
4 0 4 49869.2 1746.61 40
-4 0 -4 42208.9 2083 58
4 0 5 70942.6 2112.35 48
-4 0 -5 73873 2959.5 43
4 0 5 68324.2 5304.24 7
4 0 5 75746.8 2281.9 40
-4 0 -5 71658.5 2796.88 58
4 0 6 4157.31 561.349 48
-4 0 -6 4626.59 797.713 43
4 0 6 5171.04 680.441 40
-4 0 -6 4360.3 884.873 58
-4 0 -7 33118.4 2054.6 58
-4 0 -7 33347.9 3934.96 17
4 0 7 30440.8 1434.3 48
-4 0 -7 29799.9 1709.19 43
4 0 7 35667.2 1667.6 40
4 0 8 43166.5 1583.02 48
4 0 8 43864.7 1747.97 40
-4 0 -8 46433.1 2260.64 58
4 0 9 319.963 185.415 48
4 0 9 20.1221 229.917 40
-4 0 -9 -62.2463 379.854 58
4 0 10 -77.8618 141.74 40
-4 0 -10 -416.925 247.255 58
-4 1 10 4604.44 522.685 41
4 1 -10 5239.56 594.728 59
-4 1 10 4788.36 473.321 52
4 1 -9 11706 1054.71 59
-4 1 9 9200.16 846.814 52
4 1 -8 -115.24 300.896 51
-4 1 8 1286.85 791.995 25
4 1 -8 308.585 471.953 59
-4 1 8 321.305 308.743 36
4 1 -7 7010.94 792.875 51
-4 1 7 5850.45 1603.47 25
-4 1 7 6101.56 1382.98 12
4 1 -7 6502.89 910.042 59
-4 1 7 7212.61 890.863 36
4 1 -6 1150.35 404.727 51
-4 1 6 1005.26 1026.58 25
-4 1 6 -241.142 829.989 24
4 1 -6 564.639 359.843 59
4 1 -5 20758.5 1247.55 51
-4 1 5 15761.6 2729.55 24
4 1 -5 18018.6 2068.73 11
4 1 -5 21172.6 1346.14 59
4 1 -4 41249.8 1622.89 51
4 1 -4 43738.3 1578.53 48
-4 1 4 39832.6 1797.57 29
-4 1 4 39820.4 4172.04 24
4 1 -4 39268.6 2974.26 11
4 1 -3 658.523 483.858 9
-4 1 3 618.51 443.337 29
-4 1 3 1455.78 1390.24 20
4 1 -2 1448.12 641.53 9
-4 1 2 2747.95 644.241 29
4 1 -2 2259.76 388.988 27
-4 1 2 3485.92 1603.91 13
-4 1 2 1492.52 1124.94 20
4 1 -1 19314.9 1849.78 9
-4 1 1 19628.6 1322.57 29
4 1 -1 19232.5 895.307 27
-4 1 1 22801.2 2798.4 13
-4 1 1 20415.7 2863.75 20
-4 1 1 19318.9 2081.02 5
-4 1 0 15823.5 1852.01 5
4 1 0 17802.4 1807.95 9
4 1 0 17581.9 846.226 27
-4 1 0 17750.7 2338.35 13
-4 1 0 16996.6 2588.33 20
-4 1 -1 35491.3 2733.77 5
-4 1 -1 37599.2 3027.37 13
4 1 1 37372.8 2849.24 7
-4 1 -1 34857.8 3348.87 20
4 1 2 16569.6 2110.02 7
-4 1 -2 13521.1 1622.19 3
-4 1 -2 18092.4 2278.33 20
-4 1 -3 63251.3 2124.29 29
4 1 3 61358 4332.28 7
-4 1 -3 62376.6 3607.31 3
4 1 4 12204.2 824.754 48
-4 1 -4 13087.2 1249.81 43
4 1 4 12702 896.561 41
4 1 4 12965.1 935.314 40
-4 1 -4 11051.9 1082.19 58
4 1 5 9210.74 764.749 48
-4 1 -5 10284.9 2488.29 17
-4 1 -5 8153.4 1000.36 43
4 1 5 8237.41 773.252 41
4 1 5 10413.9 881.197 40
4 1 5 8725.26 1828.55 7
-4 1 -5 8081.16 979.005 58
4 1 6 7951.17 726.587 48
-4 1 -6 9063.47 2192.74 17
-4 1 -6 7685.71 957.624 43
4 1 6 8870.46 818.661 41
4 1 6 8359.63 852.846 40
4 1 6 7251.52 1966.93 7
-4 1 -6 8547.07 1088.23 58
4 1 7 13533.7 918.563 48
-4 1 -7 16476 2843.62 17
-4 1 -7 11694.6 1090.69 43
4 1 7 15934.8 1032.63 41
4 1 7 13953.1 1074.43 40
-4 1 -7 14632.6 1374.78 58
4 1 8 11816.8 776.646 48
4 1 8 12987.9 967.906 40
-4 1 -8 12966.9 1243.92 58
4 1 9 2420.4 412.988 40
-4 1 -9 2654.69 586.514 58
4 1 10 4924.65 394.436 40
-4 1 -10 5082.25 528.76 58
4 2 -10 11387.5 809.227 59
-4 2 10 9415.01 683.781 41
-4 2 10 10084.1 690.606 52
-4 2 9 7780.6 805.626 41
4 2 -9 9414.39 944.343 59
-4 2 9 7752.21 803.122 52
-4 2 8 7244.8 1730.76 25
4 2 -8 9752.89 1101.97 59
-4 2 8 8914.91 930.825 36
-4 2 8 9705.03 1015.93 52
4 2 -8 9687.54 857.556 51
4 2 -7 9730.41 942.09 51
-4 2 7 6519.65 1467.64 25
4 2 -7 8149.15 1009.4 59
-4 2 7 7822.31 942.517 36
4 2 -6 28468.3 1570.53 51
-4 2 6 24767.4 3345.69 25
4 2 -6 28093.8 1713.58 59
-4 2 6 28827.7 1727.54 36
4 2 -5 8332.43 834.985 51
-4 2 5 7212.98 1880.74 25
-4 2 5 8558.37 2194.3 24
4 2 -5 8090.3 923.16 59
4 2 -5 7433.28 1520.12 11
-4 2 5 7439.22 788.616 55
4 2 -4 1831.44 455.835 51
4 2 -4 1852.94 392.111 48
4 2 -4 1175.85 292.952 45
-4 2 4 1019.73 1246.12 24
4 2 -4 451.303 393.724 11
4 2 -4 2300.83 505.808 59
-4 2 3 2948.62 653.546 29
-4 2 3 1938.04 1196.56 24
4 2 -2 18326.3 2062.97 9
-4 2 2 18258.8 1268.12 29
-4 2 2 14998 2372.94 24
4 2 -1 35879.9 2733.38 9
-4 2 1 36006.3 2649.94 17
-4 2 1 37387.5 1766.75 29
4 2 -1 35658.4 1176.53 27
-4 2 1 39089.6 3760.89 20
-4 2 1 38857.6 3173.36 5
-4 2 0 149527 5920.54 5
-4 2 0 151185 6421.67 17
4 2 0 150823 5479.66 9
-4 2 0 145083 3461.09 29
4 2 0 148364 2248.65 27
-4 2 0 153711 7200.55 20
-4 2 -1 29614.1 2731.56 5
-4 2 -1 28464.7 3295.43 17
4 2 1 31537 2624.26 9
-4 2 -1 29450.4 1581.68 29
-4 2 -1 34725 3327.18 20
-4 2 -2 13598.7 2585.82 17
-4 2 -2 15167 1131.12 29
4 2 2 15300.4 2224.81 7
-4 2 -2 13371.5 1556.3 3
-4 2 -3 689.088 916.72 17
-4 2 -3 1416.8 520.369 43
4 2 3 1053.33 303.226 41
4 2 3 400.056 627.949 7
4 2 3 1074.21 297.278 40
-4 2 -4 27687.8 3669.14 17
-4 2 -4 24244.8 1642.66 43
4 2 4 29518.5 1419.66 41
4 2 4 26063.2 3314.76 7
4 2 4 28684 1432.83 40
-4 2 -4 23499.9 1511.89 58
-4 2 -5 42574.6 4618.52 17
-4 2 -5 41136.3 2115.74 43
4 2 5 43334.6 1778.49 41
4 2 5 41966.3 4284.73 7
4 2 5 44488.5 1802.52 40
-4 2 -5 42756.5 2169.06 58
-4 2 -6 3428.24 1297.45 17
-4 2 -6 2852.03 677.092 43
4 2 6 3448.62 535.228 41
4 2 6 1898.61 1075.22 7
4 2 6 2869.15 543.522 40
-4 2 -6 2631.43 651.102 58
-4 2 -7 10391.9 1014.85 43
4 2 7 12278.8 964.723 41
4 2 7 12939.3 1002.09 40
-4 2 -7 10500.2 1206.62 58
-4 2 -8 15646.3 1054.94 43
4 2 8 17223.9 1015.55 41
4 2 8 17870.4 1078.82 40
-4 2 -8 17883.1 1401.37 58
4 2 9 3274.03 354.58 41
4 2 9 3755.98 456.522 40
-4 2 -9 4307.88 682.645 58
4 2 10 3041.27 290.855 40
-4 2 -10 3423.15 423.493 58
-4 3 10 4743.17 441.748 41
-4 3 9 884.044 323.166 41
4 3 -9 799.016 404.695 59
-4 3 9 741.844 362.183 52
-4 3 8 22873.4 2951.36 25
4 3 -8 23869.6 1586.1 59
-4 3 8 24146.8 1470.25 36
-4 3 8 23646.6 1479.28 52
4 3 -8 23552.1 1314.25 51
4 3 -7 33592.1 1713.97 51
-4 3 7 32312.7 3692.03 25
4 3 -7 35272.1 1963.76 59
-4 3 7 31858.6 1809.25 36
4 3 -6 3382.58 615.679 51
-4 3 6 3405.67 1360.44 25
4 3 -6 3331.89 742.066 59
-4 3 6 2944.76 522.656 55
-4 3 6 2789.92 698.924 36
4 3 -5 67915.7 2395.81 51
-4 3 5 59705.2 4577.49 25
4 3 -5 57709.5 4309.87 11
4 3 -5 65034.6 2526.9 59
-4 3 5 65148.3 2369.58 55
-4 3 5 62225.9 2517.65 36
4 3 -4 1280.25 429.391 51
4 3 -4 1412.1 377.554 49
4 3 -4 857.879 312.104 45
-4 3 4 2503.63 1127.1 25
-4 3 4 332.825 833.789 24
4 3 -4 1158.02 659.669 11
4 3 -4 857.891 433.327 59
-4 3 4 1088.77 407.409 55
4 3 -3 8254.63 798.03 51
4 3 -3 6706.47 681.437 49
4 3 -3 8272.3 711.193 45
-4 3 3 7670.47 1889.49 24
4 3 -3 7142.19 779.659 59
4 3 -3 7929.36 1570.74 11
-4 3 3 7612.52 830.202 55
4 3 -2 18196.5 2236.95 9
-4 3 2 17950.5 2476.98 24
4 3 -1 46713.4 3379.49 9
-4 3 1 49048.3 3753.41 24
-4 3 1 51587 3814.73 5
-4 3 0 206259 7490.56 5
-4 3 0 201067 7262.9 17
4 3 0 211435 7021.68 9
-4 3 0 204595 4067.1 29
-4 3 -1 13456.4 1947.59 5
4 3 1 15149.4 1937.17 9
-4 3 -1 10806.3 2052.71 17
-4 3 -2 4487.2 1471.98 17
4 3 2 3700.48 983.982 9
-4 3 -2 3686.59 661.451 43
4 3 2 4157 540.905 41
-4 3 -3 9870.52 2173.94 17
4 3 3 10942.7 1720.84 9
-4 3 -3 9188.59 1035.34 43
-4 3 -3 9533.74 904.636 42
4 3 3 11275.2 894.581 41
4 3 3 10595.5 821.184 40
-4 3 -3 8870.18 853.697 58
-4 3 -4 14479.7 2583.89 17
-4 3 -4 13832.3 1260.25 43
4 3 4 17538.8 1174.63 41
4 3 4 14108.8 2509.65 7
4 3 4 16904.6 1115.27 40
-4 3 -4 13238.9 1175.4 58
-4 3 -5 18364.3 3002.85 17
-4 3 -5 19271 1495.43 43
4 3 5 20108.1 1261.91 41
4 3 5 19904.5 1227.22 40
-4 3 -5 20203.5 1565.03 58
-4 3 -6 1162.19 487.385 43
4 3 6 721.508 314.168 41
4 3 6 1523.57 421.198 40
-4 3 -6 1374.57 597.207 58
-4 3 -7 7813.97 902.627 43
4 3 7 8206.6 804.686 41
4 3 7 8374.59 800.806 40
-4 3 -7 9338.29 1081.32 58
-4 3 -8 1865.08 395.694 43
4 3 8 1148.41 328.793 41
4 3 8 1006.34 331.522 40
-4 3 -8 1135.71 570.858 58
4 3 9 8821.9 583.365 41
4 3 9 10107.1 629.675 40
-4 3 -9 10183.8 897.712 58
-4 4 9 10298.3 733.904 41
-4 4 9 10287.5 796.398 52
-4 4 9 9472.28 735.463 35
4 4 -9 9176.48 626.003 51
4 4 -8 11200 906.746 47
-4 4 8 11725.4 933.315 41
4 4 -8 12984.3 1146.72 59
-4 4 8 11791.7 1017.02 52
4 4 -8 12078.9 931.116 51
4 4 -7 25358.7 1511.62 47
4 4 -7 25770.5 1717.04 59
-4 4 7 24898.7 1596.74 36
-4 4 7 24311.3 1556.03 52
4 4 -7 24148 1451.93 51
4 4 -6 996.37 434.833 51
4 4 -6 308.617 310.093 47
-4 4 6 2162.69 1126.66 25
4 4 -6 1067.96 603.688 59
-4 4 6 508.476 436.637 36
4 4 -5 10952.2 1071.9 51
4 4 -5 9915.43 846.194 49
4 4 -5 11131.2 1044.66 47
-4 4 5 9255.21 1858.18 25
4 4 -5 9767.82 1066.99 59
-4 4 5 10903.2 1053.58 55
-4 4 5 10633.2 1130.58 36
4 4 -5 10582.1 1933.69 11
4 4 -4 25.5995 317.878 51
4 4 -4 210.395 302.742 49
4 4 -4 -391.443 327.311 47
4 4 -4 130.261 296.985 45
-4 4 4 191.935 634.514 25
4 4 -4 81.4486 369.239 11
4 4 -4 -30.9621 349.345 59
-4 4 4 295.276 402.425 55
-4 4 4 618.5 481.969 36
4 4 -3 24324.9 1444.85 51
4 4 -3 22992.4 1306.2 49
4 4 -3 21566.9 1202.02 45
-4 4 3 23106.8 1400.04 42
4 4 -3 22622.2 1423.91 59
4 4 -3 23054.1 2786.78 11
-4 4 3 23843.7 1480.32 55
-4 4 3 21155.1 1372.21 36
4 4 -2 5365.95 657.518 51
4 4 -2 5797.73 613.113 50
-4 4 2 4924 1458.84 5
4 4 -2 5785.43 1366.26 9
4 4 -2 6422.4 657.065 45
-4 4 2 6328.09 767.847 42
-4 4 2 5794.47 755.708 55
4 4 -2 5280.69 648.828 49
4 4 -1 6028.81 673.724 50
4 4 -1 5674.36 670.92 49
-4 4 1 5625.95 1414.62 5
4 4 -1 4345.41 1230.49 9
4 4 -1 4890.52 576.751 45
-4 4 1 6490.19 811.061 42
-4 4 1 6145.29 761.269 55
4 4 0 74385.6 2086.59 50
-4 4 0 70800.6 4737.24 5
4 4 0 68792.5 2187.25 49
-4 4 0 63512.7 4534.39 17
4 4 0 69406.1 4365.27 9
4 4 0 75151.7 2110.42 45
-4 4 0 69400.6 2512.59 42
-4 4 0 70931.6 2396.13 55
4 4 1 12356.5 975.94 49
4 4 1 11650.8 1844.29 9
-4 4 -1 9762.37 1918.58 17
-4 4 -1 11984 1031.37 43
-4 4 -1 13749.3 1166.43 42
4 4 1 12510.2 900.005 41
4 4 2 8564.67 778.91 49
4 4 2 7220.51 1483 9
-4 4 -2 7454.09 871.219 43
-4 4 -2 8534.45 902.004 42
4 4 2 8120.71 757.985 41
4 4 2 8421.88 732.666 40
-4 4 -3 6368.69 1738.01 17
4 4 3 6418.54 1378.6 9
4 4 3 7891.83 766.941 37
-4 4 -3 7049.84 909.936 43
-4 4 -3 6583.18 789.764 42
4 4 3 7784.6 773.451 41
4 4 3 6937.36 690.303 40
-4 4 -3 6671.15 779.521 58
-4 4 -4 57348.8 5754.27 17
4 4 4 45743.8 3729.32 9
-4 4 -4 57495.2 3024.96 43
4 4 4 51319.5 2119.53 41
4 4 4 49817.3 1866.15 40
-4 4 -4 48252.2 2451.36 58
-4 4 -5 100657 7544.24 17
-4 4 -5 66089.4 3030.43 43
4 4 5 55464.2 2118.1 41
4 4 5 54055.5 1939.03 40
-4 4 -6 20792.8 3462.88 17
-4 4 -6 19575.5 1528.09 43
4 4 6 13182.1 1026.63 41
4 4 6 13195.3 952.026 40
-4 4 -6 22133.9 1717.47 58
4 4 7 13593 978.778 41
4 4 7 12784.6 880.055 40
-4 4 -8 85.2721 204.489 43
4 4 8 -55.72 227.196 41
4 4 8 267.239 185.636 40
4 4 9 164.862 128.596 41
-4 5 9 -7.52536 97.9192 41
-4 5 8 2885.09 487.023 35
4 5 -8 3529.76 507.511 51
4 5 -8 2732.94 462.292 47
-4 5 8 2569.25 393.173 41
-4 5 8 3224.22 512.816 52
4 5 -7 17166 1188.23 47
-4 5 7 16078.7 1027.93 41
-4 5 7 15699.5 1168.13 52
4 5 -7 17729.7 1215.95 51
4 5 -6 54183.6 2251.64 47
-4 5 6 52498.5 1941.41 41
-4 5 6 55728.5 2354.21 36
-4 5 6 52396.1 2187.9 52
4 5 -6 56037.3 2291.78 51
4 5 -5 11405.8 1086.74 47
4 5 -5 10818.8 901.31 49
-4 5 5 13004.2 1181.42 36
4 5 -5 12230.1 1165.29 51
4 5 -4 8803.01 851.936 49
4 5 -4 9783.4 976.866 47
4 5 -4 9938.36 872.746 45
-4 5 4 10639.1 958.362 42
4 5 -4 10406.2 2066.41 11
-4 5 4 10003.8 1075.21 55
-4 5 4 9004.39 993.568 36
4 5 -4 10229.3 1057.02 51
4 5 -3 16847.9 1190.25 49
4 5 -3 16869.2 1249.04 47
4 5 -3 16127.3 1075.82 45
-4 5 3 14627.4 1179.11 42
4 5 -3 16912.6 2488.26 11
-4 5 3 16828.1 1307.22 55
-4 5 3 16515 1226.89 36
-4 5 3 15394.9 2525.12 5
4 5 -3 15751.7 1253.74 51
4 5 -2 3154.39 574.088 51
4 5 -2 3503.31 555.035 50
4 5 -2 3087.18 562.859 49
-4 5 2 3810 1175.35 5
4 5 -2 3526.67 610.619 47
4 5 -2 3410.71 532.289 45
-4 5 2 3682.39 649.208 42
4 5 -2 6393.33 1541.92 11
-4 5 2 3476.62 651.199 55
-4 5 2 3509.27 561.761 36
-4 5 1 24579.8 3067.88 5
4 5 -1 27930.1 1485.48 50
4 5 -1 27447.4 2988.94 9
4 5 -1 25751.3 1475.17 49
4 5 -1 32152.2 1510.52 45
-4 5 1 26245.2 1615.66 42
-4 5 1 27347.6 1668.1 55
4 5 -1 26627.3 1403.91 51
4 5 0 6112.26 703.932 50
4 5 0 5441.27 718.142 49
-4 5 0 6247.46 1636.29 5
4 5 0 4821.15 1281.37 9
4 5 0 6347.97 699.765 45
-4 5 0 5749.62 740.287 43
-4 5 0 6348.2 854.909 42
-4 5 0 7023.12 779.898 38
-4 5 0 5460.59 797.905 55
-4 5 -1 25205.7 1434.06 55
4 5 1 25991.9 1433.7 49
4 5 1 23747.6 2774.79 9
4 5 1 28163.2 1404.12 45
-4 5 -1 24880.7 1558.95 43
-4 5 -1 25235.2 1608.82 42
-4 5 -1 27200.3 3239.98 10
4 5 2 55392.4 2027.3 49
4 5 2 57731.7 4312.87 9
-4 5 -2 58432.9 2496.7 43
-4 5 -2 56349.2 2332.3 42
4 5 2 58485.3 2045.26 41
-4 5 -2 63389 5221.66 10
4 5 3 53812.8 4175.15 9
-4 5 -3 54235.9 2517.67 43
-4 5 -3 56998.2 2260.13 42
4 5 3 60673 2145.96 41
-4 5 -3 51651.1 2320.97 58
4 5 3 59869.2 2079.01 37
-4 5 -3 57574 5159.89 10
-4 5 -4 6236.06 973.684 43
4 5 4 7321.06 817.075 41
-4 5 -4 6546.23 915.752 58
4 5 4 6407.04 750.097 37
-4 5 -5 13639.5 1393.73 43
4 5 5 14128.4 1084.17 41
-4 5 -5 13795.7 1426.66 58
-4 5 -6 16905.8 1372.26 43
-4 5 -6 18363.5 1492.36 58
-4 5 -7 1356.86 448.983 43
4 5 7 238.213 253.265 41
-4 5 -7 926.989 441.088 58
-4 5 -8 48.9919 152.521 43
4 5 8 195.317 196.375 41
4 6 -8 8009.07 586.401 47
-4 6 8 8573.58 667.993 35
4 6 -7 5780.43 651.108 47
-4 6 7 3888.32 460.816 53
-4 6 7 5675.82 625.728 52
-4 6 7 4715.24 606.533 35
4 6 -7 6010.18 673.64 51
4 6 -6 535.706 415.306 51
4 6 -6 520.228 352.339 47
-4 6 6 415.384 341.451 53
-4 6 6 770.555 317.792 52
4 6 -5 5581.54 647.563 49
4 6 -5 5191 763.651 47
-4 6 5 4380.43 620.112 52
4 6 -5 6973.13 912.867 51
4 6 -4 7972.92 822.38 49
4 6 -4 9267.5 963.921 47
4 6 -4 8660.37 852.796 45
-4 6 4 8730.02 845.804 42
-4 6 4 8798.76 927.665 36
4 6 -4 8422.78 1010.68 51
4 6 -3 22351 1406.65 49
4 6 -3 23809.2 1513.91 47
4 6 -3 22836.9 1304.18 45
-4 6 3 24740.1 1525.47 42
-4 6 3 23769 1434.87 36
4 6 -3 23148.6 1497.65 51
-4 6 2 38778.7 3951.32 5
4 6 -2 40710.5 1723.24 50
4 6 -2 44321.7 1974.35 49
4 6 -2 40306.5 1942.95 47
4 6 -2 40744 1722.75 45
-4 6 2 42039 2043.68 42
4 6 -2 48863.6 4209.33 11
4 6 -2 40678 1879.91 51
4 6 -1 5350.5 756.544 50
4 6 -1 5332.54 773.13 49
-4 6 1 5908.36 1566.09 5
4 6 -1 6202.52 758.241 45
4 6 -1 3660.84 1174.8 11
-4 6 1 3993.89 723.514 42
-4 6 1 4883.11 672.878 38
4 6 -1 5539.33 736.888 51
4 6 0 9760.5 893.989 50
4 6 0 9942.27 975.912 49
4 6 0 9327.21 856.499 45
-4 6 0 9838.2 1013.93 43
-4 6 0 9650.9 1051.61 42
-4 6 0 10536.7 1024.36 38
4 6 1 7911.6 839.659 50
4 6 1 7554.61 827.608 49
4 6 1 8309.1 807.149 45
-4 6 -1 8273.95 989.562 43
-4 6 -1 9089.63 1020.26 42
-4 6 -1 8757.54 970.283 38
4 6 2 57367.3 2103.19 49
4 6 2 56842.2 2032.71 45
-4 6 -2 56280 2554.37 43
-4 6 -2 54184.7 2323.15 42
4 6 3 9658.3 875.039 45
-4 6 -3 9673.51 1158.72 43
-4 6 -3 9811.92 961.66 42
4 6 3 8826.4 837.117 41
4 6 3 9792.58 861.707 37
-4 6 -4 18781 1547.29 43
4 6 4 16722.4 1131.86 41
4 6 4 18903.3 1207.54 37
-4 6 -5 47199.9 2344.27 43
4 6 5 42538.2 1717.71 41
-4 6 -6 7679.12 913.55 43
4 6 6 6714.71 666.108 41
4 6 7 127.416 150.32 45
-4 6 -7 -363.512 278.23 43
4 6 7 147.667 185.878 41
4 7 -7 6415.68 549.28 47
-4 7 7 6591.69 563.76 35
4 7 -6 -30.6765 284.378 51
4 7 -6 -91.6003 258.949 47
-4 7 6 240.613 233.927 53
-4 7 6 38.7274 186.873 35
-4 7 5 806.676 263.734 35
4 7 -5 1354.09 483.57 51
4 7 -5 1155.44 329.865 49
4 7 -5 1285.31 425.457 47
-4 7 5 1513.4 437.691 53
4 7 -4 4151.8 700.347 51
4 7 -4 3049.51 537.232 49
4 7 -4 3461.22 634.592 47
-4 7 4 4050.15 714.18 53
-4 7 4 4198.33 586.298 35
4 7 -3 23027 1395.32 49
4 7 -3 23008.3 1251.94 45
-4 7 3 22434.7 1405.3 42
-4 7 3 23024.4 1576.76 53
4 7 -3 21746.9 1397.57 51
4 7 -2 8160.68 911.256 49
4 7 -2 8342.99 801.253 45
-4 7 2 9219.19 993.956 42
4 7 -2 8367.67 856.732 51
4 7 -1 4681.72 680.104 50
4 7 -1 5278.49 776.849 49
4 7 -1 4980.18 656.539 45
-4 7 1 4348.12 762.519 42
-4 7 1 4763.81 667.645 38
4 7 0 3823.97 629.264 49
4 7 0 3671.96 571.567 45
-4 7 0 3679.44 630.543 43
-4 7 0 3921.79 726.38 42
-4 7 0 3678.58 671.833 38
-4 7 0 3098.32 610.738 53
4 7 0 3051.64 565.265 50
4 7 1 27589.6 1487.29 50
4 7 1 25656.6 1451.7 49
4 7 1 26305.1 1361.19 45
-4 7 -1 28489.7 1716.44 43
-4 7 -1 26927.8 1689.07 42
-4 7 -1 28397.5 1722.15 38
-4 7 -1 27291.7 1487.63 53
-4 7 -2 4372.41 771.381 38
4 7 2 4261.13 659.158 50
4 7 2 4581.06 609.433 49
4 7 2 4070.86 557.698 45
-4 7 -2 3832.47 687.094 43
-4 7 -2 4534.88 696.197 42
4 7 3 923.133 301.934 45
-4 7 -3 1270.94 527.263 43
-4 7 -3 321.207 255.179 42
-4 7 -3 139.229 384.883 38
4 7 3 1062.37 322.105 37
4 7 4 405.563 278.26 45
-4 7 -4 -183.15 524.064 43
4 7 5 1210.29 280.977 45
-4 7 -5 1231.67 483.047 43
4 7 5 1028.17 294.543 41
-4 7 -6 5781.35 659.128 43
-4 7 -6 5039.35 632.065 38
4 7 7 150.116 128.267 50
-4 7 -7 395.276 182.875 43
-4 7 -7 100.552 175.327 38
-4 8 6 11314.3 674.013 53
4 8 -5 4764.21 468.666 49
-4 8 5 5492.86 610.868 53
4 8 -4 2882.38 456.038 49
-4 8 4 2949.27 527.574 53
4 8 -3 6376.72 719.937 49
-4 8 3 6892.05 809.423 53
4 8 -2 4551.21 661.336 49
4 8 -2 4408.48 514.614 45
-4 8 2 5094.66 717.333 53
4 8 -1 2103.07 524.473 49
4 8 -1 2096.97 403.533 45
-4 8 1 1655.63 372.308 38
-4 8 1 2029.98 477.071 53
4 8 0 464.167 385.577 50
4 8 0 239.33 278.434 49
4 8 0 565.424 282.523 45
-4 8 0 -42.1197 327.727 38
-4 8 0 -76.7029 338.863 53
4 8 1 205.234 349.417 50
4 8 1 187.63 254.622 49
4 8 1 -143.105 238.534 45
-4 8 -1 -405.781 383.742 43
-4 8 -1 17.9318 308.467 38
4 8 2 962.076 381.923 50
4 8 2 369.015 241.924 49
4 8 2 1082.57 309.589 45
-4 8 -2 656.984 335.374 43
-4 8 -2 919.398 424.833 38
4 8 3 720.544 327.175 50
-4 8 -3 383.963 340.904 43
-4 8 -3 308.068 343.733 38
4 8 4 1574.57 366.211 50
-4 8 -4 1276.32 440.499 38
-4 8 -4 1944.24 474.646 43
4 8 5 1648.6 300.064 50
-4 8 -5 2320.14 421.477 43
-4 8 -5 1849.56 400.043 38
4 8 6 1881.73 247.791 50
-4 8 -6 1380.67 272.437 38
-4 9 5 994.513 208.303 53
4 9 -4 482.56 197.481 49
-4 9 4 73.6293 179.163 53
4 9 -3 4604.58 496.867 49
-4 9 3 4663.09 532.256 53
4 9 -2 14242.1 909.047 49
-4 9 2 14831.6 972.127 53
4 9 -1 4517.4 552.937 49
-4 9 1 4023.03 503.511 53
4 9 0 9319.33 726.322 49
-4 9 0 7733.6 680.695 38
-4 9 0 9033.73 676.429 53
4 9 1 1220.72 290.685 50
4 9 1 874.249 249.033 49
-4 9 -1 1188.6 341.267 38
4 9 2 2891.41 389.974 50
-4 9 -2 2990.61 468.321 38
4 9 3 267.024 195.063 50
-4 9 -3 595.174 254.747 38
4 9 4 106.476 144.639 50
-4 9 -4 85.9487 166.266 38
4 10 -1 5579.63 415.509 49
5 -9 -2 1845.35 303.827 56
5 -9 -1 2405.76 318.362 39
5 -9 -1 2710.54 396.581 56
5 -9 0 2258.4 318.839 39
-5 -9 -2 3053.29 599.572 58
5 -8 -5 1198.18 261.015 56
5 -8 -4 5375.07 482.338 39
5 -8 -4 7301.44 614.836 56
5 -8 -3 1436.09 304.931 39
5 -8 -3 1539.05 394.227 56
5 -8 -2 2558.77 428.787 39
5 -8 -2 3087.22 525.012 56
5 -8 -1 604.467 255.787 39
5 -8 0 6728.47 594.086 44
5 -8 0 6451.72 650.525 39
5 -8 0 7240.98 836.824 57
-5 -8 -1 11308 1095.11 30
5 -8 1 11227.7 767.071 44
5 -8 1 10134.3 789.221 39
5 -8 1 12067.2 1037.85 57
-5 -8 -2 -15.5717 369.572 30
5 -8 2 293.05 217.083 44
5 -8 2 528.482 248.148 39
5 -8 2 264.295 360.425 57
5 -8 3 1156.58 313.691 44
5 -8 3 249.667 168.313 39
-5 -8 -3 1330.96 553.991 58
5 -8 3 752.626 369.212 57
5 -8 4 4416.89 421.001 44
-5 -8 -4 5342.05 722.087 58
5 -8 4 4918.9 544.072 57
5 -7 -6 2451.93 349.819 59
5 -7 -5 1467.85 352.539 59
5 -7 -5 740.868 306.21 56
5 -7 -4 1997.27 384.572 39
5 -7 -4 3024.62 527.002 56
5 -7 -3 3112.97 495.169 39
5 -7 -3 3297.07 602.545 56
-5 -7 2 17129.1 1378.13 26
5 -7 -2 16198.4 1079.01 39
5 -7 -1 7874.48 731.335 44
-5 -7 1 9127.2 1063.64 26
5 -7 -1 7564.41 774.277 39
5 -7 -1 8477.81 1016.27 57
5 -7 0 5497.28 653.52 44
5 -7 0 6864.26 941.681 57
-5 -7 0 6412.21 943.347 26
5 -7 0 6092 718.457 39
5 -7 1 421.195 310.648 44
-5 -7 -1 341.31 448.108 26
5 -7 1 650.001 338.321 39
5 -7 1 346.618 474.421 57
-5 -7 -2 4803.61 824.485 30
5 -7 2 4287.84 616.746 44
-5 -7 -2 4796.04 870.968 26
5 -7 2 5206.06 842.763 57
-5 -7 -3 5886.38 887.143 30
5 -7 3 4911.17 616.056 44
-5 -7 -3 5831.86 940.295 26
5 -7 3 5245.26 772.716 57
-5 -7 -4 3288.19 675.962 30
-5 -7 -4 1906.74 660.237 58
5 -7 4 2033.47 464.485 57
-5 -7 -5 4248.17 706.134 58
5 -7 5 3774.46 541.408 57
5 -7 6 331.795 168.386 44
-5 -7 -6 808.522 324.911 58
5 -6 -7 15166.9 879.274 59
5 -6 -6 9665.61 784.029 59
5 -6 -6 8833.39 774.196 56
5 -6 -5 5316.8 614.316 39
5 -6 -5 6410.75 714.432 59
5 -6 -5 5779.69 724.176 56
5 -6 -4 650.651 323.278 59
5 -6 -4 723.593 305.925 39
5 -6 -4 1532.44 561.274 56
5 -6 -3 20383.2 1235.28 39
5 -6 -3 20944.8 1369 56
5 -6 -2 448.569 307.284 44
-5 -6 2 503.011 413.834 26
5 -6 -2 348.036 281.597 39
-5 -6 1 1341.5 813.456 18
5 -6 -1 1411.09 424.885 44
5 -6 -1 1357.34 313.21 27
-5 -6 1 1827.52 616.632 26
5 -6 -1 1441.19 434.874 39
5 -6 -1 872.55 512.566 57
5 -6 0 2239.5 509.372 44
5 -6 0 2034.62 413.783 27
-5 -6 0 2439.17 677.502 26
5 -6 0 1694.9 453.666 39
5 -6 0 1714.9 594.747 57
-5 -6 -1 299.247 617.739 18
5 -6 1 -79.9876 401.808 44
-5 -6 -1 15.1148 544.756 26
5 -6 1 258.01 480.468 57
-5 -6 -2 5437.34 1735.37 18
-5 -6 -2 4529.58 939.688 30
-5 -6 -2 5285.91 1051.69 26
5 -6 2 3935.05 778.371 57
-5 -6 -3 18743 1627.65 30
-5 -6 -3 20492.9 1776.9 26
5 -6 3 18503.5 1392.62 57
5 -6 4 18159.9 956.992 48
-5 -6 -4 18917.5 1524.24 30
5 -6 4 16232.8 1128.51 46
-5 -6 -4 20707.6 1635.52 58
5 -6 5 7008.21 575.531 48
-5 -6 -5 8615.74 989.397 30
5 -6 5 6523.83 705.321 46
-5 -6 -5 8863.85 1110.22 58
5 -6 6 1806.63 279.176 48
-5 -6 -6 1981.52 350.641 43
-5 -6 -6 2379.32 579.084 58
5 -6 6 2062.71 407.183 57
-5 -6 -7 3937.83 493.233 58
5 -5 -8 4891.13 526.495 59
5 -5 -7 9579.89 816.635 59
5 -5 -6 4213.75 611.699 59
5 -5 -6 4990.56 697.246 56
5 -5 -5 10818 883.747 39
5 -5 -5 9557.22 894.797 59
5 -5 -5 11052.4 1035.51 56
5 -5 -4 3369.07 577.361 59
5 -5 -4 3402.9 532.541 39
5 -5 -4 3899.4 679.922 56
5 -5 -3 53639.1 1995.21 39
5 -5 -3 54739.3 1796.61 27
-5 -5 2 38080.3 4112.02 18
5 -5 -2 35197.7 1629.98 44
5 -5 -2 35382.4 1486.21 27
-5 -5 1 4559.75 1600.36 18
5 -5 -1 5970.49 753.225 44
5 -5 -1 5689.27 645.998 27
5 -5 -1 4983.63 1383.8 8
-5 -5 1 5716.87 860.348 26
5 -5 -1 6719 893.82 57
-5 -5 0 43684.7 4731.88 18
-5 -5 0 55450.1 5024.31 3
5 -5 0 45193.4 4458.2 8
5 -5 0 47539.7 1951.37 44
-5 -5 0 48947.4 2427.71 26
5 -5 0 46478.4 2160.66 57
-5 -5 -1 11479.7 2802.83 18
5 -5 1 11758.6 871.091 48
-5 -5 -1 12574.8 1372.86 26
5 -5 1 13887.6 2551.27 8
5 -5 1 12442.7 1174.51 57
-5 -5 -2 44945.6 5233.11 18
5 -5 2 41997.1 1645.43 48
-5 -5 -2 45067.3 2447.18 30
5 -5 2 40753.7 1893.09 46
-5 -5 -2 43581.2 2527.76 26
5 -5 2 40530.8 2024.06 57
5 -5 3 2806.2 493.752 48
-5 -5 -3 2872.94 873.162 30
5 -5 3 2443.35 585.84 46
-5 -5 -3 3348.04 962.478 26
5 -5 4 16553.8 1052.57 48
-5 -5 -4 18022.1 1634.88 30
5 -5 4 17541.9 1244.29 46
-5 -5 -4 17625.7 1603.97 58
5 -5 5 6108.5 617.9 48
-5 -5 -5 6452.21 1053.99 30
5 -5 5 5835.77 729.773 46
-5 -5 -5 7646.9 1145.43 58
5 -5 6 2537.49 411.891 48
5 -5 6 1960.03 424.388 46
-5 -5 -6 2196.6 503.3 43
-5 -5 -6 2978.46 733.676 58
5 -5 7 1048.57 270.461 48
5 -5 7 784.301 271.185 46
5 -4 -9 -24.4905 175.747 59
5 -4 -8 5354.03 635.19 59
5 -4 -7 7741.1 819.636 59
5 -4 -6 23242.7 1398.01 59
5 -4 -6 25319.3 1490.83 56
5 -4 -5 307.07 334.018 59
5 -4 -5 650.633 409.959 56
-5 -4 4 16775.6 2834.86 13
5 -4 -4 20512.7 1298.09 59
5 -4 -4 20515 1345.63 56
-5 -4 4 14057.7 2677.99 20
5 -4 -3 2751.78 505.662 27
-5 -4 3 732.657 844.836 13
5 -4 -2 238.844 192.909 48
5 -4 -2 370.632 287.935 44
5 -4 -2 437.487 308.509 27
-5 -4 1 15670.6 2718.24 18
5 -4 -1 12768.3 875.977 48
5 -4 -1 13531.5 1124.1 57
-5 -4 1 9502.37 1929.5 3
5 -4 -1 14629.7 1069.33 44
5 -4 -1 13674.4 992.293 27
-5 -4 1 13624.4 1224.16 26
5 -4 -1 10620.1 2042.94 8
-5 -4 0 11405.9 2439.27 18
5 -4 0 11692.9 846.483 48
5 -4 0 12232.8 1011.3 44
-5 -4 0 12649.8 1252.55 26
5 -4 0 12320.4 2308.28 8
5 -4 0 12782.8 1098.97 57
-5 -4 0 14319.4 2503.67 3
-5 -4 -1 17850.7 3210.73 18
-5 -4 -1 16940.6 2713.29 3
5 -4 1 18238.8 1096.55 48
5 -4 1 17693 2755.89 8
-5 -4 -1 18893.3 1601.52 26
5 -4 1 16393.1 1255.56 57
-5 -4 -2 52236.6 5516.54 18
-5 -4 -2 58416.2 4997.29 3
5 -4 2 53465.3 1893.06 48
-5 -4 -2 57323 2710.88 30
5 -4 2 55869.1 2152.23 46
5 -4 2 53684.8 4758.18 8
-5 -4 -2 56731.1 2801.78 26
5 -4 3 4389.04 597.69 48
-5 -4 -3 2741.26 960.509 30
5 -4 3 3235.78 638.465 46
-5 -4 -3 3013.86 934.794 26
5 -4 4 30219.6 1459.19 48
-5 -4 -4 28657.7 2072.03 30
5 -4 4 26146 1501.06 46
-5 -4 -4 27829.3 1979.66 58
5 -4 5 29763.9 1437.17 48
-5 -4 -5 30293.9 2205.99 30
5 -4 5 30353.9 1558.02 46
-5 -4 -5 34494.9 2231.84 58
5 -4 6 1617.63 431.854 48
5 -4 6 1140.42 398.158 46
-5 -4 -6 1380.78 568.145 43
-5 -4 -6 2052.09 751.013 58
5 -4 7 3584.65 516.719 48
5 -4 7 3791.18 526.56 46
-5 -4 -7 4080.37 730.053 58
5 -4 8 9984.66 628.099 48
-5 -4 -8 7798.45 716.31 58
5 -3 -9 12287.3 831.372 59
5 -3 -8 7220.61 770.676 59
-5 -3 7 9220.35 1920.23 25
5 -3 -7 13656.9 1117.12 59
-5 -3 6 26785.9 3556.64 24
5 -3 -6 28668.1 1617.35 59
5 -3 -6 28822.1 1575.9 56
5 -3 -5 3089.81 585.238 59
5 -3 -5 3050.67 577.705 56
5 -3 -4 4782.47 559.675 48
5 -3 -4 5160.05 617.272 27
-5 -3 4 1576.78 963.457 13
5 -3 -4 4448.95 664.277 59
5 -3 -4 5060.63 704.539 56
-5 -3 4 2178.99 1148.21 20
5 -3 -3 13742.3 901.453 48
5 -3 -3 15383.5 1016.56 27
-5 -3 3 11598 2197.26 13
5 -3 -3 13490.5 1044.87 56
-5 -3 2 9905.67 1955.17 18
5 -3 -2 9987.8 786.757 48
-5 -3 2 10874.8 2167.9 3
5 -3 -2 11083.6 904.384 44
5 -3 -2 11851.3 903.144 27
-5 -3 1 37190.3 3913.69 18
5 -3 -1 37196.1 1481.91 48
5 -3 -1 39935.7 1645.93 44
5 -3 -1 34651.4 3375.43 8
5 -3 -1 38848.5 1587.36 27
-5 -3 1 42289 3943.34 3
5 -3 -1 35285.5 1671.93 57
-5 -3 0 21277.7 3225.64 18
5 -3 0 24348.9 1217.02 48
5 -3 0 25020.9 1356.89 44
5 -3 0 21144.9 2780.63 8
-5 -3 0 24884 1628.51 26
5 -3 0 23211.9 1345.33 57
-5 -3 0 22678.3 2876.51 3
-5 -3 -1 1105.48 1424.6 18
5 -3 1 3090.6 495.113 48
-5 -3 -1 4195.08 872.208 30
-5 -3 -1 5495.68 1467.9 3
-5 -3 -1 2163.85 692.776 26
5 -3 1 1674.17 877.562 8
5 -3 1 1966.04 479.478 57
-5 -3 -2 40779 3931.83 3
5 -3 2 39822.5 1637.51 48
-5 -3 -2 44408.4 2366.69 30
5 -3 2 39802.1 1750.79 46
5 -3 2 40923.2 3948.37 8
-5 -3 -2 43195.1 2428.35 26
5 -3 3 12621.7 967.661 48
-5 -3 -3 13891.6 1529.19 30
5 -3 3 11387.1 982.823 46
-5 -3 -3 14234.6 2414.04 3
5 -3 3 9254.67 1908.63 8
-5 -3 -3 11779.9 1292.46 58
5 -3 4 2660.32 516.029 48
-5 -3 -4 2269.66 938.844 30
5 -3 4 2506.83 535.621 46
-5 -3 -4 2452.9 774.235 58
5 -3 5 9773 906.348 48
-5 -3 -5 9864.07 1374.68 30
5 -3 5 8713.51 846.497 46
-5 -3 -5 12874.9 1400 58
5 -3 6 257.767 380.498 48
5 -3 6 -61.1229 300.796 46
-5 -3 -6 231.484 460.568 43
-5 -3 -6 424.108 659.341 58
5 -3 7 3811.95 620.437 48
5 -3 7 2463.01 398.976 46
-5 -3 -7 3140.93 529.933 43
-5 -3 -7 3954.19 805.058 58
5 -3 8 7387.09 634.5 48
-5 -3 -8 8314.79 860.169 58
5 -2 -10 2437.72 316.395 59
5 -2 -9 1167.47 377.127 59
5 -2 -8 21566.1 1336.81 59
5 -2 -7 7764.28 726.989 51
-5 -2 7 7199.99 1659.82 25
-5 -2 7 4807.9 1636.34 24
5 -2 -7 7567.04 915.503 59
-5 -2 6 11331.2 2436.4 24
5 -2 -6 16125.1 1263.98 59
5 -2 -5 52100.1 1833.79 48
-5 -2 5 49593.8 5077.92 13
5 -2 -5 52020.9 2126 59
5 -2 -5 51786.4 2066.03 56
-5 -2 5 52867.5 4909.6 20
5 -2 -4 13664 946.813 48
-5 -2 4 11673.1 1091.33 29
5 -2 -4 13897.6 981.774 27
-5 -2 4 14708 2859.37 13
5 -2 -4 13198.6 1021.64 59
5 -2 -4 12077.6 984.085 56
-5 -2 4 12981.6 2506.76 20
5 -2 -3 20850.8 1135.29 48
5 -2 -3 20549.7 1163.79 27
5 -2 -3 19135.9 1141.32 56
-5 -2 3 21866.9 3187.7 20
5 -2 -2 13247.9 885.435 48
5 -2 -2 15706.4 1007.64 44
5 -2 -2 13602.8 931.431 27
-5 -2 2 13671.7 2309.67 13
-5 -2 1 35315.2 3753.78 18
5 -2 -1 39483.4 1500.38 48
-5 -2 1 34802.5 1705.78 30
5 -2 -1 42915.1 1616.45 44
5 -2 -1 38730.4 1520.04 27
5 -2 -1 35457.2 3157.68 8
-5 -2 1 40656.8 3721.16 3
5 -2 0 22714.1 1153.48 48
-5 -2 0 22643 1555.4 30
5 -2 0 24830.9 1263.56 44
5 -2 0 22090 2598.19 8
-5 -2 0 22892.8 1561.79 26
-5 -2 0 24069.3 2891.05 3
5 -2 1 26318.4 1281.63 48
-5 -2 -1 26877.9 1740.91 30
5 -2 1 23135.7 2818.94 8
-5 -2 -1 26368.9 1747.07 26
-5 -2 -1 25157.3 2930.53 3
5 -2 2 14667.6 997.918 48
-5 -2 -2 14402.4 1453.57 30
5 -2 2 16036.2 1064.5 46
5 -2 2 15439.9 964.643 40
-5 -2 -2 13563.6 1220.87 58
-5 -2 -2 14799.2 2223.59 3
5 -2 3 15024.3 1029.25 48
-5 -2 -3 14930.1 1543.25 30
5 -2 3 15145 1053.37 46
-5 -2 -3 11408 2088.33 3
5 -2 3 14144.8 957.552 40
-5 -2 -3 13763.5 1296.11 58
5 -2 4 48152.8 1862.7 48
-5 -2 -4 49035.4 2755.48 30
5 -2 4 45008.9 1808.59 46
5 -2 4 49302.2 1806.57 40
-5 -2 -4 44501.7 2388.87 58
5 -2 5 49452 1939.3 48
5 -2 5 46675.5 1808.94 46
-5 -2 -5 51392.8 2653.78 43
5 -2 5 52379.8 1887.34 40
-5 -2 -5 49927.6 2617.04 58
5 -2 6 4739.97 647.247 48
-5 -2 -6 5203.34 920.124 43
5 -2 6 4947.02 611.77 40
-5 -2 -6 5051.93 964.808 58
5 -2 7 17026.5 1053.5 48
-5 -2 -7 16706.5 1207.11 43
5 -2 7 17063.6 986.976 40
-5 -2 -7 17277.1 1452.55 58
5 -2 8 4797.79 568.893 48
5 -2 8 4501.85 449.088 40
-5 -2 -8 5540.43 768.569 58
5 -2 9 6689.73 448.67 48
-5 -2 -9 8151.33 653.83 58
5 -1 -10 2939.87 365.999 59
5 -1 -9 -521.887 373.804 59
-5 -1 8 5340.06 1592.05 25
5 -1 -8 6910.63 868.691 59
5 -1 -7 18885.6 1139.63 51
-5 -1 7 14309.8 2622.15 25
-5 -1 7 17283.9 2920.62 24
5 -1 -7 17882.7 1348.84 59
5 -1 -6 13224.7 1055.34 51
-5 -1 6 13708.7 2751.5 24
5 -1 -6 14496.4 1222.06 59
5 -1 -5 16244.9 1074.59 48
-5 -1 5 13966 2767.54 24
5 -1 -5 16134.8 1223.13 59
5 -1 -5 17365.7 1193.84 56
-5 -1 5 16012.2 2740.23 20
5 -1 -4 5901.16 667.28 48
-5 -1 4 6755.24 908.433 29
-5 -1 4 5176.52 2057.79 13
5 -1 -4 5473.78 687.969 59
5 -1 -4 6098.41 674.168 56
-5 -1 4 3565.3 1323.99 20
5 -1 -3 62010.6 1930.87 48
-5 -1 3 60472.2 2478.67 29
5 -1 -3 61005.1 1936.42 27
-5 -1 3 61108.1 5364.6 13
-5 -1 3 64190.6 5551.17 20
5 -1 -2 55021 1757.12 48
5 -1 -2 52083.9 1748.14 27
-5 -1 2 47562.8 4354.7 13
-5 -1 2 50195 4647.71 20
5 -1 -1 8543.04 718.654 48
5 -1 -1 8401.05 1295.57 9
5 -1 -1 9521.27 780.08 27
-5 -1 1 8850.32 1854.54 13
5 -1 0 18137.4 1019.42 48
5 -1 0 15517.7 1789.23 9
-5 -1 0 15792.3 1341.36 30
-5 -1 0 15796.3 2174.95 3
5 -1 1 2063.22 397.129 48
-5 -1 -1 858.782 703.735 3
-5 -1 -1 2223.04 737.356 30
5 -1 1 1938.05 388.242 40
5 -1 2 9101.42 764.862 48
-5 -1 -2 9962.07 1266.66 30
-5 -1 -2 7106.71 1546.17 3
5 -1 2 8048.9 728.38 40
5 -1 3 24860.8 1278.26 48
-5 -1 -3 24319.3 1941.05 30
5 -1 3 24549.6 1276.43 40
-5 -1 -3 22404.3 1583.2 58
5 -1 4 12974.5 977.199 48
-5 -1 -4 12545.8 1397.76 43
5 -1 4 12117.4 947.661 40
5 -1 4 11620.4 2212.54 7
-5 -1 -4 11626.2 1243.5 58
5 -1 5 656.957 376.591 48
-5 -1 -5 171.311 570.466 43
5 -1 5 99.2549 269.493 40
-5 -1 -5 -28.879 545.882 58
5 -1 6 26370.6 1377.08 48
-5 -1 -6 26434.5 1828.05 43
5 -1 6 26575.4 1411 40
-5 -1 -6 24398.6 1814.06 58
5 -1 7 3654.25 549.091 48
-5 -1 -7 3030.09 597.787 43
5 -1 7 3411.72 522.983 40
-5 -1 -7 4063.27 810.817 58
5 -1 8 5402.03 542.742 48
5 -1 8 5473.97 564.805 40
-5 -1 -8 6563.77 836.817 58
5 -1 9 9843.5 524.477 48
5 -1 9 9426.1 537.305 40
-5 -1 -9 11140.2 817.613 58
-5 0 10 -164.777 150.439 41
5 0 -10 136.552 180.843 59
5 0 -9 7686.5 769.008 59
-5 0 9 5820.82 583.302 52
5 0 -8 1697.33 380.487 51
-5 0 8 2811.86 1121.1 25
5 0 -8 3006.68 674.798 59
-5 0 8 658.95 311.919 36
5 0 -7 4886.28 659.944 51
-5 0 7 2455.88 1172.36 25
-5 0 7 4966.69 1893.86 24
5 0 -7 4469.79 734.739 59
-5 0 7 4298.78 716.932 36
5 0 -6 3693.89 610.786 51
-5 0 6 2464.74 1248.82 24
5 0 -6 3433.58 645.002 59
5 0 -5 2518.54 534.151 51
5 0 -5 2135.26 462.195 48
-5 0 5 2891.99 1441.48 24
5 0 -5 1708.88 488.002 59
5 0 -4 9161.79 797.281 48
-5 0 4 8714.69 1015.43 29
5 0 -4 7518.23 797.442 59
-5 0 4 6963.26 2204.15 20
-5 0 3 -8.61651 474.74 5
5 0 -3 -292.712 278.021 48
-5 0 3 -105.403 579.942 29
5 0 -3 351.709 345.389 27
-5 0 3 470.748 1234.21 13
-5 0 3 -1701.67 1549.08 20
-5 0 2 -69.9497 773.42 5
5 0 -2 238.346 206.562 48
5 0 -2 134.069 361.889 9
-5 0 2 -82.9529 630.168 29
5 0 -2 486.053 329.825 27
-5 0 2 570.342 1238.25 13
-5 0 2 622.05 1540.66 20
-5 0 1 15073.5 1961.05 5
5 0 -1 15701.4 1883.68 9
5 0 -1 15915.4 963.411 27
-5 0 1 15081.9 2462.33 13
-5 0 1 13807.8 2574.94 20
-5 0 0 1705.39 733.676 5
5 0 0 -9.64372 398.836 9
5 0 0 419.012 267.053 27
-5 0 0 594.591 868.836 13
5 0 1 18838.9 1045.07 48
5 0 1 18636.9 2128.57 9
-5 0 -1 18802.7 2589.26 13
5 0 1 18818.2 1062.9 40
-5 0 -1 18352.9 2295.55 3
-5 0 -1 15236.4 2770.3 20
5 0 2 2793.03 471.596 48
-5 0 -2 2032.68 699.184 3
5 0 2 3164.49 479.524 40
5 0 2 3653.52 1040.72 7
-5 0 -2 2456.15 1423.32 20
5 0 3 2365.48 478.434 48
-5 0 -3 2424.07 1013.31 3
-5 0 -3 1849.37 675.509 43
5 0 3 1753.32 787.346 7
5 0 3 2547.49 470.774 40
-5 0 -3 2705.86 616.957 58
5 0 4 63031.1 2090.01 48
-5 0 -4 66154.3 2966.7 43
5 0 4 65506.3 5037.89 7
5 0 4 67909.7 2216.89 40
-5 0 -4 60447.5 2620.11 58
5 0 5 70189.1 2205.19 48
-5 0 -5 73897.6 3082.57 43
5 0 5 75593.8 2410.97 40
-5 0 -5 70036.6 2881.81 58
5 0 6 20082.6 1175.77 48
-5 0 -6 22024.1 3626.71 17
-5 0 -6 17881.3 1483.86 43
5 0 6 20215.5 1266.15 40
-5 0 -6 21695.6 1626.78 58
5 0 7 10674.2 812.973 48
-5 0 -7 9719.9 966.586 43
5 0 7 9605.46 853.059 40
-5 0 -7 9406.41 1055.58 58
5 0 8 145.271 181.534 48
-5 0 -8 179.736 206.11 43
5 0 8 120.189 268.102 40
-5 0 -8 -29.1815 436.502 58
5 0 9 16149.5 768.288 40
-5 0 -9 17005.9 1031.6 58
-5 1 10 2226.57 308.25 41
5 1 -10 3090.8 385.852 59
5 1 -9 191.305 309.818 59
-5 1 9 -0.76769 171.038 36
-5 1 9 71.2425 216.44 52
5 1 -8 5645.35 637.276 51
-5 1 8 7251.52 1804.53 25
5 1 -8 6380.01 817.223 59
-5 1 8 5257.33 690.85 36
5 1 -7 18853.5 1231.92 51
-5 1 7 16597.7 2735.84 25
5 1 -7 18663.4 1432.71 59
-5 1 7 17425.2 1352.17 36
5 1 -6 14571.3 1157.57 51
-5 1 6 11627 2290.64 25
-5 1 6 14156.8 2760.34 24
5 1 -6 15256.8 1287.25 59
5 1 -5 16621.7 1219.17 51
-5 1 5 14490.3 2913.91 24
5 1 -5 14814.6 1198.04 59
5 1 -4 6696.46 764.299 51
5 1 -4 5734.96 660.415 48
-5 1 4 5885.27 857.175 29
-5 1 4 5057.19 1923.26 24
5 1 -4 5426.57 715.773 59
5 1 -4 6572.31 1375.59 11
5 1 -3 58952.8 1925.94 48
-5 1 3 61374.3 2568.91 29
-5 1 3 66119.3 5800.71 20
5 1 -2 47577.2 3459.95 9
5 1 -2 50587.8 1710.23 48
-5 1 2 55056.6 2447.46 29
5 1 -2 50201.8 1689.21 27
-5 1 2 59564.8 5479.95 20
-5 1 2 45985 3735.9 5
5 1 -1 8638.65 1488.61 9
-5 1 1 7912.88 1539.83 5
-5 1 1 8872.43 1116.44 29
5 1 -1 8066.54 695.817 27
-5 1 1 9504.46 2449.58 13
5 1 -1 9600.41 789.173 40
-5 1 1 9406.18 2418.96 20
-5 1 0 17027.4 2183.16 5
5 1 0 15500.7 1963.56 9
-5 1 0 17153.8 1492.83 29
5 1 0 17298.8 953.934 27
-5 1 0 15832 2610.81 13
5 1 0 17410.8 1017.58 40
-5 1 0 20047.3 3151.69 20
-5 1 -1 2627.96 895.404 3
5 1 1 1796.6 339.881 48
5 1 1 362.818 411.675 9
-5 1 -1 2661.85 768.609 29
5 1 1 1850.19 364.288 27
-5 1 -1 2969.77 666.369 43
-5 1 -1 3128.36 1441.64 13
5 1 1 1779.89 408.784 40
-5 1 -1 1846.99 1607.07 20
5 1 2 7987.85 698.47 48
-5 1 -2 7489.73 1429.78 3
-5 1 -2 9244.32 1085.89 29
-5 1 -2 9483.63 1161.6 43
5 1 2 8573.28 774.857 40
-5 1 -2 8710.71 2056.46 20
5 1 3 22855.9 1188.32 48
-5 1 -3 24259.2 1549.47 29
-5 1 -3 23411.1 1786.37 43
5 1 3 24238.4 1246.48 41
5 1 3 22628.5 2882.26 7
5 1 3 26314.8 1362.2 40
-5 1 -3 18249.4 2266.87 3
5 1 4 14026.4 964.427 48
-5 1 -4 12866.9 1341.74 43
5 1 4 11868.5 898.111 41
5 1 4 13557.1 1048.84 40
5 1 4 13675.9 2413.54 7
-5 1 -4 11412.5 1129.34 58
5 1 5 40.807 258.296 48
-5 1 -5 1130.83 1164.31 17
-5 1 -5 394.894 560.584 43
5 1 5 209.126 255.046 41
5 1 5 274.58 339.223 40
-5 1 -5 362.08 464.246 58
-5 1 -6 27969.7 3854.68 17
5 1 6 26033.2 1266.65 48
-5 1 -6 25948.6 1704.05 43
5 1 6 27294.3 1314.5 41
5 1 6 28667 1494.27 40
-5 1 -6 26443.4 1765.49 58
5 1 7 2724.09 409.603 48
-5 1 -7 3188.59 607.088 43
5 1 7 3717.62 612.324 40
-5 1 -7 3532.76 720.534 58
-5 1 -8 5166.13 568.58 43
5 1 8 5399.65 589.724 40
-5 1 -8 5810.83 790.456 58
5 1 9 10994.3 634.641 40
-5 1 -9 11225.9 827.385 58
-5 2 10 1854.62 249.333 41
-5 2 9 476.096 247.527 41
5 2 -9 881.579 377.957 59
-5 2 9 952.037 317.031 52
5 2 -8 21647.4 1437.2 59
-5 2 8 19314.9 1251.82 36
-5 2 8 19839.9 1292.73 52
5 2 -8 18420.2 1101.26 51
5 2 -7 7856.78 855.934 51
-5 2 7 7199.77 1742.68 25
5 2 -7 8888.29 1045.43 59
-5 2 7 7885.53 942.642 36
5 2 -6 15907.7 1223.56 51
-5 2 6 14898.6 2613.67 25
-5 2 6 15296.8 2809.78 24
5 2 -6 15763.1 1285.83 59
-5 2 6 15950.3 1192.34 55
-5 2 6 16181.3 1398.9 36
5 2 -5 53641.5 2218.34 51
-5 2 5 49788.3 5093.24 24
5 2 -5 49483.5 3948.92 11
5 2 -5 50159.8 2219.89 59
-5 2 5 51030.6 2232.6 55
5 2 -4 13198.8 1085.64 51
5 2 -4 12250.2 947.819 48
5 2 -4 11029.2 843.623 45
-5 2 4 13473.4 2734.02 24
5 2 -4 13621.5 2098.61 11
5 2 -4 11984.6 1048.11 59
5 2 -3 21327.6 1284.92 51
5 2 -3 18349.4 1189.85 49
5 2 -3 22034.6 1187.28 48
5 2 -3 19334.9 1069.77 45
-5 2 3 20352.4 1409.82 42
-5 2 3 19149.5 3023.44 24
5 2 -3 21256.5 1287.81 59
5 2 -2 13064.9 994.35 51
5 2 -2 13453.4 1007.84 49
5 2 -2 13451.7 1977.69 9
5 2 -2 12686.2 900.977 48
-5 2 2 14120.8 1316.71 29
5 2 -2 13061.9 879.489 45
-5 2 2 13561.3 1207.9 42
-5 2 2 13969.7 2641.8 24
-5 2 2 13863.8 2192.26 5
-5 2 1 37927.7 3479.24 5
5 2 -1 33356.6 1466.83 51
5 2 -1 36964 1627.6 49
5 2 -1 38464.9 3255.99 9
5 2 -1 39468.9 1474.8 48
-5 2 1 39363.5 2123.69 29
5 2 -1 37370.2 1441.21 45
5 2 -1 38124.9 1375.53 27
-5 2 1 39904.5 2083.3 42
5 2 -1 40733.7 1580.47 40
5 2 0 22267.7 1279.93 49
-5 2 0 22782.4 2702.67 5
5 2 0 24679.9 1153.14 48
-5 2 0 24687.2 2955.3 17
5 2 0 20905.7 2407.98 9
-5 2 0 24526.7 1699.65 29
5 2 0 22497.7 1139.11 45
5 2 0 22182.8 1040.52 27
5 2 0 26090.6 1265.85 40
-5 2 0 24239.8 3512.76 20
5 2 1 21565.6 1117.12 48
-5 2 -1 25935.5 3383.17 17
5 2 1 22456.5 2502.26 9
-5 2 -1 26156.9 1707.39 29
-5 2 -1 24056.5 1616.16 43
-5 2 -1 26008.6 1743.99 42
5 2 1 26453.3 1308.04 40
-5 2 -1 20314.6 2279.68 3
5 2 2 13589.6 880.311 48
-5 2 -2 17416.7 3052.83 17
5 2 2 14565.3 2138.03 9
-5 2 -2 14928.9 1269.54 29
-5 2 -2 14725.3 1358.84 43
-5 2 -2 13464.3 1246.04 42
5 2 2 15521.9 1040.57 40
-5 2 -2 14864.2 1977.89 3
5 2 3 13188.5 895.719 48
-5 2 -3 17674 3075.77 17
5 2 3 16787.2 2356.36 9
-5 2 -3 15772.8 1428.81 43
-5 2 -3 13519.8 1151.57 42
5 2 3 14319.7 1010.3 41
5 2 3 15773 1078.96 40
-5 2 -4 47318.9 4919.6 17
-5 2 -4 46333.2 2359.93 43
5 2 4 47241.1 1850.47 41
5 2 4 51142.1 1987.54 40
-5 2 -4 44741.3 2134.02 58
-5 2 -5 47394.2 4975.62 17
-5 2 -5 48502.2 2340.44 43
5 2 5 50322.8 1938.67 41
-5 2 -5 49276.9 2339.04 58
-5 2 -6 6761.55 1819.18 17
-5 2 -6 4791.07 795.403 43
5 2 6 4769.67 624.967 41
5 2 6 4985.39 667.806 40
-5 2 -6 4061 745.086 58
-5 2 -7 15837.3 1186.88 43
5 2 7 14973.5 945.979 41
5 2 7 17496.2 1101.64 40
-5 2 -7 17692.3 1355.87 58
-5 2 -8 4207.2 517.399 43
5 2 8 5086.94 544.921 40
-5 2 -8 5193.15 724.759 58
5 2 9 8320.41 510.06 40
-5 2 -9 7923.78 661.149 58
-5 3 9 10881.1 725.551 41
-5 3 9 10687.4 764.055 52
5 3 -8 7703.37 872.921 59
-5 3 8 6755.74 735.297 36
-5 3 8 7045.21 772.553 52
5 3 -8 6961.38 677.469 51
5 3 -7 12150.4 1026.63 51
-5 3 7 14580.7 2418.48 25
5 3 -7 14648.4 1246.83 59
-5 3 7 14426.4 1211.02 36
5 3 -6 29500.5 1628.98 51
-5 3 6 26497.8 3217.22 25
5 3 -6 28470 1735.91 59
-5 3 6 26967.8 1552.25 55
-5 3 6 28277 1788.22 36
5 3 -5 3317.95 633.18 51
-5 3 5 3383.55 1116.99 25
5 3 -5 3240.73 645.866 59
-5 3 5 3817.74 716.858 55
-5 3 5 2823.88 721.379 36
5 3 -4 5578.48 788.234 51
5 3 -4 4982.78 677.843 49
5 3 -4 4338.65 577.102 45
-5 3 4 5109.76 693.122 42
-5 3 4 6077.17 1575.94 25
-5 3 4 5981.75 1649.47 24
5 3 -4 5107.78 1303.07 11
5 3 -4 3991.57 665.434 59
-5 3 4 5277.98 811.015 55
5 3 -3 14248.2 1101.1 51
5 3 -3 12448 1022.36 49
5 3 -3 12742.5 931.055 48
5 3 -3 13314.5 950.854 45
-5 3 3 13908.3 1184.51 42
-5 3 3 13244.3 2483.25 24
5 3 -3 14028.6 1114.72 59
5 3 -3 18342.8 2494.51 11
-5 3 3 15163.1 1269.9 55
-5 3 3 13786.9 2417.1 5
5 3 -2 10054.8 903.949 51
5 3 -2 9245.98 912.967 49
5 3 -2 9244.7 794.624 48
-5 3 2 10593.2 1997.35 5
5 3 -2 10579 849.323 45
-5 3 2 9474.82 1034.58 42
-5 3 2 8711.26 2103.37 24
5 3 -1 36539.1 1569.19 51
-5 3 1 36498.5 3671.49 5
5 3 -1 35905.4 1416.17 50
5 3 -1 34994.7 1654.15 49
5 3 -1 36666.9 3406.88 9
5 3 -1 41389.2 1499.4 48
5 3 -1 38075 1553.39 45
-5 3 1 35319.9 1974.11 42
-5 3 1 39382.1 3866.68 24
5 3 0 24147 1160.71 50
5 3 0 23639.9 1383.81 49
-5 3 0 25703.1 3071.97 5
5 3 0 24560.4 2807.93 9
-5 3 0 22079.3 2698.78 17
5 3 0 24416.6 1264.04 45
-5 3 0 23322.2 1627.22 42
5 3 0 25595.1 1301.25 40
5 3 1 3504.66 454.78 50
5 3 1 2738.13 534.496 49
-5 3 -1 2116.3 1341.73 17
5 3 1 2945.91 919.208 9
-5 3 -1 3099.54 601.804 43
-5 3 -1 3468.01 726.584 42
5 3 1 3137.04 508.719 40
-5 3 -2 45737.4 4621.66 17
5 3 2 38905.8 3572.23 9
-5 3 -2 37802.8 2049.7 43
-5 3 -2 41953 2081.79 42
5 3 2 40423.1 1693.5 40
-5 3 -3 10616.3 2321.08 17
5 3 3 11387.1 1970.26 9
-5 3 -3 11994.2 1234.78 43
-5 3 -3 11888.3 1066.43 42
5 3 3 11247.9 938.462 41
5 3 3 12596.6 1006.45 40
-5 3 -4 1932.99 667.796 17
-5 3 -4 2408.67 645.837 43
5 3 4 2887.07 549.415 41
5 3 4 2769.7 547.078 40
-5 3 -4 2406.75 529.045 58
-5 3 -5 10045 2477.28 17
-5 3 -5 8416.84 1067.44 43
5 3 5 9208.26 878.126 41
5 3 5 10285.8 948.213 40
-5 3 -5 8577.11 1016.52 58
-5 3 -6 88.7201 419.232 43
5 3 6 -111.646 286.122 41
5 3 6 599.654 365.661 40
-5 3 -6 210.758 426.967 58
-5 3 -7 3556.91 573.825 43
5 3 7 3407.86 478.062 41
5 3 7 3746.37 505.746 40
-5 3 -7 2654.77 598.919 58
-5 3 -8 6954.99 622.759 43
5 3 8 6764.3 548.203 40
-5 3 -8 6356.27 721.772 58
-5 4 9 69.7814 110.624 41
-5 4 9 47.2815 153.315 52
-5 4 8 5102.88 542.085 41
-5 4 8 5617.75 655.504 52
5 4 -8 5517.33 583.651 51
5 4 -7 8409.12 946.484 59
-5 4 7 8478.97 878.095 36
-5 4 7 7605.25 863.811 52
5 4 -7 8426.64 846.747 51
5 4 -6 23444.7 1566.4 59
-5 4 6 23320.2 1564.55 36
5 4 -6 27018 1562.74 51
5 4 -5 780.584 466.951 51
5 4 -5 746.961 306.709 49
5 4 -5 549.652 482.115 59
-5 4 5 881.832 520.046 55
-5 4 5 423.46 444.118 36
5 4 -4 25854.8 1580.55 51
5 4 -4 18973.6 1250.82 49
5 4 -4 20444.7 1200.78 45
-5 4 4 22036.1 1379.47 42
5 4 -4 20016.7 1438.67 59
-5 4 4 22241.7 1576.46 55
-5 4 4 22684.1 1570.88 36
5 4 -3 1568 454.913 51
5 4 -3 1455.99 428.846 49
-5 4 3 1380.28 752.948 5
5 4 -3 2284.66 515.88 45
-5 4 3 2308.68 552.06 42
5 4 -3 3063.19 976.257 11
-5 4 3 3508.07 787.052 55
5 4 -2 230.58 324.331 51
5 4 -2 204.715 341.726 49
-5 4 2 835.803 789.054 5
5 4 -2 609.345 341.993 45
-5 4 2 541.259 448.05 42
-5 4 2 849.256 441.615 55
5 4 -1 12406.7 964.834 51
5 4 -1 12305.3 906.824 50
5 4 -1 11674.1 1035.17 49
5 4 -1 15017.3 2324.16 9
-5 4 1 10434.8 2144.08 5
5 4 -1 12625.8 962.824 45
-5 4 1 13313.8 1241.83 42
-5 4 1 12801.5 1190.14 55
5 4 0 11846.5 888.925 50
5 4 0 11994.9 1014.59 49
5 4 0 13687.5 2224.57 9
-5 4 0 13200.4 2327.71 5
5 4 0 13024.2 962.134 45
-5 4 0 13882.6 1270.58 42
5 4 0 11866.6 918.859 40
-5 4 0 13912 1249.36 55
5 4 1 18471.5 1099.81 50
5 4 1 18634.6 1249.96 49
5 4 1 19614.6 2625.99 9
-5 4 -1 15572.7 2542.9 17
5 4 1 18129.9 1147.7 45
-5 4 -1 16458.5 1276.62 43
-5 4 -1 18455.3 1453.73 42
5 4 1 17738.1 1130.83 40
-5 4 -1 19445.9 1323.36 55
5 4 2 58282.5 1955.34 50
5 4 2 51691.8 2014.03 49
-5 4 -2 51391.6 4980.27 17
5 4 2 54410.5 4384.56 9
-5 4 -2 48382 2327.82 43
-5 4 -2 53928.7 2355.36 42
5 4 2 54640.4 1963.79 40
5 4 3 5405.4 1411.58 9
-5 4 -3 3320.11 729.778 43
-5 4 -3 4262.59 669.896 42
5 4 3 4269.48 636.167 41
5 4 3 4092.97 589.685 40
-5 4 -4 27592.6 3867.84 17
-5 4 -4 25512.9 1742.19 43
5 4 4 28991.3 1518.9 41
5 4 4 27657.6 1419.66 40
-5 4 -4 25883.4 1589.12 58
-5 4 -5 28696.1 3873.46 17
-5 4 -5 28632.7 1785.4 43
5 4 5 35784.3 1671.78 41
5 4 5 30935.3 1490.05 40
-5 4 -5 30728.5 1819.92 58
-5 4 -6 1451.81 499.844 43
5 4 6 1340.14 375.837 41
5 4 6 1344.74 341.643 40
-5 4 -6 503.757 395.048 58
-5 4 -7 3578.69 558.479 43
5 4 7 3723.3 468.2 41
5 4 7 3873.38 450.44 40
-5 4 -7 4018.61 642.112 58
-5 4 -8 6175.66 522.652 43
5 4 8 6369.91 430.16 40
-5 5 8 4086.79 451.984 52
-5 5 8 4246.99 475.832 35
5 5 -8 4026.04 447.794 51
-5 5 7 9027.85 797.027 52
5 5 -7 9806.49 841.781 51
5 5 -6 5208.69 754.073 51
-5 5 6 4891.14 698.822 36
-5 5 6 4766.96 648.617 52
5 5 -5 9641.88 814.942 49
-5 5 5 10601.5 1031.14 36
5 5 -5 11525.7 1104.53 51
5 5 -4 3888.69 689.338 51
5 5 -4 3287.27 582.232 49
5 5 -4 3609.24 579.884 45
-5 5 4 4217.79 632.26 42
-5 5 4 4426.32 786.481 55
-5 5 4 4022.93 691.306 36
5 5 -3 51019.3 2082.19 49
5 5 -3 56701.1 2034.77 45
-5 5 3 57047.1 2329.76 42
-5 5 3 59841.5 2570.67 55
-5 5 3 56769.6 2345.9 36
5 5 -3 52256.4 2209.09 51
-5 5 2 35321.1 3928.03 5
5 5 -2 33567.7 1738.46 49
5 5 -2 35090.7 1609.23 45
-5 5 2 36061.3 1942.19 42
-5 5 2 36485.8 2026.36 55
5 5 -2 34723.6 1694.01 51
5 5 -1 5469.53 663.805 50
5 5 -1 5524.98 789.122 49
5 5 -1 6676.29 765.761 45
-5 5 1 6525.54 927.646 42
-5 5 1 6339.8 926.554 55
5 5 0 41942.1 1725.87 50
5 5 0 42960.2 1958.02 49
5 5 0 45671.2 4220.23 9
5 5 0 47981 1883.43 45
-5 5 0 46128.6 2294.59 42
-5 5 0 47471.9 2216.88 55
5 5 1 12307.9 942.762 50
5 5 1 11687.5 1049.37 49
5 5 1 13290.8 1019.22 45
-5 5 -1 13770.9 1212.76 43
-5 5 -1 11468.8 1187.8 42
5 5 1 11331.4 859.514 40
-5 5 -1 13345.6 1093.13 55
5 5 2 40640.8 1727.19 50
5 5 2 38871.3 1766.72 49
5 5 2 43031.8 1812.92 45
-5 5 -2 40224.5 2163.27 43
-5 5 -2 43505.6 2113.09 42
5 5 2 39161.6 1578.98 40
-5 5 -3 3042.68 711.475 43
-5 5 -3 3059.36 567.633 42
5 5 3 2505.74 434.344 40
-5 5 -4 16854.8 1439.28 43
5 5 4 17446.4 1171.93 41
5 5 4 15577.9 970.012 40
-5 5 -5 6857.47 1004.4 43
5 5 5 7183.96 749.591 41
5 5 5 5069.6 543.786 40
-5 5 -5 6691.72 997.878 58
-5 5 -6 2368.19 662.392 43
5 5 6 2426.19 427.51 41
5 5 6 1192.94 232.844 40
-5 5 -7 1780.2 414.758 43
-5 6 7 13056.7 757.256 52
-5 6 7 13455.2 840.17 35
5 6 -7 14208.3 864.8 51
-5 6 6 8120.74 759.955 53
-5 6 6 7621.66 679.03 52
5 6 -6 9772.87 854.384 51
5 6 -5 5616.97 587.405 49
-5 6 5 4880.7 590.01 52
5 6 -5 6094.32 753.21 51
5 6 -4 727.949 402.474 51
5 6 -4 1190.24 376.403 49
5 6 -4 899.518 402.541 45
-5 6 4 134.432 259.719 42
-5 6 4 1038.28 404.32 36
5 6 -3 20113.6 1330.71 49
5 6 -3 20680 1223.64 45
-5 6 3 23905.1 1499.95 42
5 6 -3 20877 1353.73 51
5 6 -2 891.221 375.233 51
5 6 -2 1279.38 473.639 49
5 6 -2 980.724 421.96 45
-5 6 2 1174.05 445.434 42
5 6 -1 2212.11 509.862 50
5 6 -1 1591.01 519.605 49
5 6 -1 1839.74 499.797 45
-5 6 1 1915.24 595.018 42
5 6 0 2309.63 501.673 50
5 6 0 1585.11 463.245 49
5 6 0 2338.71 522.412 45
-5 6 0 2164.27 594.761 42
5 6 1 179.623 333.46 50
5 6 1 59.5514 340.429 49
5 6 1 40.4839 340.892 45
-5 6 -1 120.165 366.529 43
-5 6 -1 121.7 415.339 42
-5 6 -1 378.918 297.055 38
5 6 2 3544.3 573.668 50
5 6 2 3735.95 583.029 49
5 6 2 3950.52 581.066 45
-5 6 -2 4514.12 815.647 43
-5 6 -2 3987.97 705.616 42
-5 6 -2 4592.71 699.382 38
5 6 3 17657.3 1140.57 50
5 6 3 16988 1081.73 45
-5 6 -3 17381.3 1434.81 43
-5 6 -3 18703.1 1222.63 42
5 6 4 17585.2 1064.7 50
5 6 4 17632.4 1045.11 45
-5 6 -4 19190.4 1460.64 43
5 6 5 7668.68 648.62 50
5 6 5 7182.06 615.394 45
-5 6 -5 8423.21 1078.56 43
5 6 6 1822.48 297.159 50
5 6 6 2319.76 327.674 45
-5 6 -7 4378.72 467.689 43
-5 7 6 2114.48 342.474 53
5 7 -5 713.616 323.115 51
5 7 -5 701.455 247.697 49
-5 7 5 981.331 348.431 53
5 7 -4 2907.93 502.81 51
5 7 -4 2712.79 471.376 49
-5 7 4 2716.79 560.144 53
5 7 -3 3399.49 524.049 51
5 7 -3 2787.37 525.863 49
5 7 -3 2773.94 474.452 45
-5 7 3 3164.56 548.025 42
-5 7 3 3497.24 691.889 53
5 7 -2 17703.4 1200.96 49
5 7 -2 16457.9 1041.79 45
-5 7 2 17599.8 1275.37 42
5 7 -2 16617.1 1019.63 51
5 7 -1 8415.45 872.714 49
5 7 -1 8129.15 778.138 45
-5 7 1 8822.9 972.253 42
5 7 0 6085.68 705.13 50
5 7 0 5499.02 695.579 49
5 7 0 5664.11 654.344 45
-5 7 0 6908.88 924.204 42
-5 7 0 5401.82 670.427 53
5 7 1 381.521 339.58 50
5 7 1 160.018 313.147 49
5 7 1 386.607 277.24 45
-5 7 -1 232.782 296.64 43
-5 7 -1 318.779 392.823 42
-5 7 -1 510.255 304.047 38
5 7 2 4403.53 595.546 50
5 7 2 4497.47 551.14 49
5 7 2 5526.19 608.575 45
-5 7 -2 4848.44 724.725 43
-5 7 -2 4784.15 682.427 42
-5 7 -2 4324.41 633.38 38
5 7 3 5156.04 609.836 50
5 7 3 4956.3 532.417 45
-5 7 -3 4409.39 677.744 43
-5 7 -3 4672.03 544.438 42
-5 7 -3 4949.34 667.254 38
5 7 4 2855.46 429.882 50
5 7 4 2644 364.021 45
-5 7 -4 2945.75 540.019 43
-5 7 -4 2277.45 476.564 38
5 7 5 4546.45 444.787 50
5 7 5 4117.09 375.392 45
-5 7 -5 4163.22 551.493 43
-5 7 -5 4356.49 569 38
-5 7 -6 229.791 158.805 43
-5 7 -6 -91.0056 187.776 38
-5 8 5 1218.27 261.495 53
5 8 -4 6727.04 564.891 49
-5 8 4 7218.42 681.143 53
5 8 -3 1409.15 357.037 49
-5 8 3 1341.93 381.376 53
5 8 -2 3145.91 502.973 49
5 8 -2 3012.95 425.561 45
-5 8 2 3656.4 572.457 53
5 8 -1 1204.21 375.935 49
5 8 -1 813.221 283.714 45
-5 8 1 1221.87 353.248 53
5 8 0 6533.69 660.35 49
5 8 0 6656.17 599.349 45
-5 8 0 7065.3 643.099 53
5 8 1 10382.8 765.888 50
5 8 1 11451.9 779.046 49
5 8 1 11237.1 726.508 45
-5 8 -1 9025.27 722.772 38
5 8 2 423.139 250.661 50
5 8 2 524.594 207.383 45
-5 8 -2 508.484 259.946 43
-5 8 -2 645.201 307.532 38
5 8 3 981.67 269.524 50
5 8 3 729.504 188.071 45
-5 8 -3 880.999 338.387 43
-5 8 -3 343.054 213.098 38
5 8 4 4883.1 413.698 50
-5 8 -4 5012.5 513.303 43
-5 8 -4 4902.53 507.63 38
5 9 -3 1879.09 266.772 49
-5 9 3 1886.14 279.953 53
5 9 -2 1506.54 279.79 49
-5 9 2 1167.73 236.494 53
5 9 -1 3186.56 377.886 49
-5 9 1 2464.05 316.143 53
5 9 0 2798.69 329.955 49
6 -8 -3 1544.94 277.43 56
6 -8 -2 587.342 211.652 56
6 -8 -1 2512.34 382.386 56
6 -8 2 6394.24 434.722 44
6 -7 -5 4759.86 452.049 56
6 -7 -4 2255.87 392.277 56
6 -7 -3 1294.73 357.934 56
6 -7 -2 1013.83 362.887 56
-6 -7 1 2767.26 572.653 30
-6 -7 0 8883.47 967.491 30
6 -7 0 7975.89 681.575 44
-6 -7 -1 6724.06 850.393 30
6 -7 1 6850.95 640.362 44
6 -7 1 5940.58 677.782 57
-6 -7 -2 6669.96 846.288 30
6 -7 2 5469.07 535.237 44
-6 -7 -2 4794.94 716.785 58
6 -7 2 5585.45 645.305 57
6 -7 3 8178.44 600.924 44
-6 -7 -3 7859.47 831.109 58
6 -7 3 7862.45 676.926 57
6 -7 4 3855.51 388.162 44
-6 -7 -4 3145.51 513.921 58
6 -7 4 3067.92 390.897 57
6 -6 -5 8892.07 729.575 56
6 -6 -4 2635.75 473.487 56
6 -6 -3 221.311 357.844 56
6 -6 -2 7325.16 812.021 56
-6 -6 1 7935.84 944.771 30
6 -6 -1 8402.53 769.251 44
6 -6 -1 7243.61 679.615 27
-6 -6 0 5134.27 823.665 30
6 -6 0 4382.31 598.77 44
6 -6 0 3968.78 496.998 27
-6 -6 0 3060.55 695.408 26
6 -6 0 4593.1 707.693 57
-6 -6 -1 245.664 558.492 30
6 -6 1 161.103 328.069 44
6 -6 1 -263.394 241.527 27
-6 -6 -1 582.75 497.86 26
6 -6 1 480.452 413.798 57
-6 -6 -2 9080.24 1119.86 30
6 -6 2 9157.51 812.696 44
-6 -6 -2 9202.08 1022.91 58
6 -6 2 9337.13 910.443 57
-6 -6 -3 11063.1 1188.55 30
6 -6 3 9660.15 777.23 44
-6 -6 -3 9896.72 1043.52 58
6 -6 3 9521.75 843.282 57
-6 -6 -4 11748.5 1126.74 30
6 -6 4 9505.09 710.786 44
-6 -6 -4 10011.3 1037.68 58
6 -6 4 9703.89 763.892 57
6 -6 5 2054.81 313.652 44
-6 -6 -5 2751.2 467.761 43
-6 -6 -5 2452.13 499.209 58
6 -5 -7 2630.99 342.572 59
6 -5 -6 2203.85 337.344 51
6 -5 -6 2478.98 392.824 59
6 -5 -5 3248.97 537.584 56
6 -5 -4 10207.7 940.368 56
6 -5 -3 177.745 192.101 27
6 -5 -3 363.601 358.37 56
6 -5 -2 12387.1 909.946 27
-6 -5 1 18677.8 1428.99 30
6 -5 -1 19669.5 1242.82 44
6 -5 -1 17694.8 1114.38 27
6 -5 0 7295.45 654.718 48
-6 -5 0 8315.45 1069.51 30
6 -5 0 7182.28 815.437 44
6 -5 0 6288.78 674.481 27
-6 -5 0 8129.52 1091.95 26
6 -5 0 7103.77 855.49 57
6 -5 1 11436.6 842.25 48
-6 -5 -1 11407.1 1340.35 30
6 -5 1 11498.6 1000.57 44
-6 -5 -1 10687.7 1298.48 26
6 -5 1 10371.2 1001.42 57
6 -5 2 7943.15 699.657 48
-6 -5 -2 9289.07 1276.63 30
6 -5 2 10063.4 927.566 44
-6 -5 -2 8791.92 1082.42 58
6 -5 2 9505.92 939.004 57
6 -5 3 8085.05 694.67 48
-6 -5 -3 8656.83 1208.84 30
6 -5 3 9036.35 823.297 44
-6 -5 -3 8479.27 1110.89 58
6 -5 3 6940.6 750.031 57
6 -5 4 711.087 259.58 48
-6 -5 -4 778.065 614.654 30
6 -5 4 455.712 311.033 44
-6 -5 -4 -91.2759 598.422 58
6 -5 4 373.486 267.668 57
6 -5 5 2915.12 391.938 48
6 -5 5 2946.84 416.743 44
-6 -5 -5 3430.11 630.133 43
-6 -5 -5 3685.88 733.152 58
6 -5 6 2562.99 317.229 48
6 -5 6 2576.64 318.96 44
-6 -5 -6 2997.96 432.386 43
-6 -5 -6 3354.71 563.661 58
6 -4 -8 2644.84 339.863 59
6 -4 -7 762.939 270.922 59
6 -4 -6 702.766 281.663 59
6 -4 -5 168.171 265.599 59
6 -4 -5 640.561 368.692 56
6 -4 -4 6759.28 777.058 56
-6 -4 4 4969.84 1571.53 20
6 -4 -3 17876.4 1018.95 48
6 -4 -3 16990.2 1135.52 27
6 -4 -3 14766.8 1145.49 56
6 -4 -2 1239.08 321.013 48
6 -4 -2 1180.34 363.208 27
6 -4 -1 12737.3 899.615 48
-6 -4 1 12657.3 1194.54 30
6 -4 -1 14441 1075.65 44
6 -4 -1 12513.6 986.691 27
6 -4 0 17630.9 1087.47 48
-6 -4 0 16818.7 1500.62 30
6 -4 0 16958.3 1167.4 44
6 -4 0 18073.7 1195.88 27
-6 -4 0 19248.8 1597.9 26
6 -4 0 16216.4 1227.16 57
6 -4 1 32498.4 1483 48
-6 -4 -1 33996.3 2201.45 30
6 -4 1 32104.9 1631.07 44
6 -4 1 32476.4 1659.13 57
6 -4 2 7113.84 751.376 48
-6 -4 -2 9010.86 1310.12 30
6 -4 2 7287.02 839.189 44
-6 -4 -2 8662.23 1088.9 58
6 -4 2 8237.84 848.464 57
6 -4 3 3301.69 518.813 48
-6 -4 -3 3762.2 986.162 30
6 -4 3 4064.8 638.698 44
-6 -4 -3 3593.78 853.614 58
6 -4 3 2995.12 543.268 57
6 -4 4 8479.35 780.479 48
-6 -4 -4 9698.4 1309.92 30
-6 -4 -4 10374 1210.87 58
6 -4 5 120.711 304.516 48
6 -4 5 93.3579 247.805 44
-6 -4 -5 423.243 554.666 43
-6 -4 -5 -36.4125 488.63 58
6 -4 6 2233.72 379.11 48
6 -4 6 1626.57 302.745 44
-6 -4 -6 2735.24 549.871 43
-6 -4 -6 3247.79 678.001 58
6 -4 7 3944.43 371.41 48
-6 -4 -7 5092.26 574.636 58
6 -3 -8 1987.53 351.426 59
6 -3 -7 1095.59 250.366 51
6 -3 -7 1303.92 366.138 59
-6 -3 6 9221.35 2081.97 24
6 -3 -6 9708.01 880.118 59
6 -3 -5 5074.45 682.079 59
6 -3 -5 4400.96 634.255 56
6 -3 -4 25163.9 1245.11 48
-6 -3 4 20822.9 1461.83 29
6 -3 -4 24754 1393.86 56
-6 -3 4 21440.1 3343.04 20
6 -3 -3 58050.3 1928.43 48
6 -3 -3 62577.6 2107.86 27
6 -3 -3 58624 2107.93 56
6 -3 -2 18950.6 1125.5 48
-6 -3 2 15502.3 2911.36 3
6 -3 -2 20781 1259.79 27
-6 -3 2 15072.3 2694.61 13
6 -3 -2 16224.9 1109.7 56
-6 -3 2 11770 2497.5 20
6 -3 -1 19810.8 1148.68 48
-6 -3 1 20940.5 1503.11 30
6 -3 -1 19319.5 1264.01 44
6 -3 -1 20342.2 1247.08 27
-6 -3 1 23159.3 3473.39 3
6 -3 0 305.001 271.093 48
-6 -3 0 91.0369 642.96 30
-6 -3 0 -245.886 479.209 3
6 -3 0 164.7 307.383 44
6 -3 0 392.209 371.432 27
6 -3 0 340.726 316.114 57
-6 -3 -1 34056.8 3962.38 3
6 -3 1 30365.5 1472.34 48
-6 -3 -1 33379.2 2179.8 30
6 -3 1 31703.5 1573.58 44
6 -3 2 9234.96 866.502 48
-6 -3 -2 9469.85 1372.9 30
6 -3 2 9409.29 897.174 44
-6 -3 -2 10126.5 1184.51 58
6 -3 3 5059.27 682.892 48
-6 -3 -3 4620.31 1084.15 30
6 -3 3 3971.55 596.474 44
-6 -3 -3 4507.55 866.744 58
6 -3 4 6279.65 731.941 48
-6 -3 -4 6717.44 1007.79 58
6 -3 5 9218.12 819.973 48
6 -3 5 7832.98 680.555 44
-6 -3 -5 10481.4 1212.74 43
-6 -3 -5 10476.2 1170.1 58
6 -3 6 1356.06 352.95 48
-6 -3 -6 1241.32 483.955 43
-6 -3 -6 1301.42 553.506 58
6 -3 7 17886.5 866.219 48
-6 -3 -7 15615.1 849.817 43
-6 -3 -7 19282 1189.39 58
6 -2 -9 19050.9 821.167 59
6 -2 -8 4611.44 554.231 59
6 -2 -7 19798.9 1044.9 51
6 -2 -7 21179.2 1249.57 59
6 -2 -6 15634.6 1069.18 51
-6 -2 6 14950.9 2675.37 24
6 -2 -6 16233.7 1158.27 59
6 -2 -5 11353 869.186 48
6 -2 -5 11855.6 1002.07 59
6 -2 -5 11422.4 957.934 56
-6 -2 5 14483.1 2603.25 20
6 -2 -4 17342.3 1100.52 48
-6 -2 4 13801.4 1207.92 29
6 -2 -4 17013.9 1124.78 56
-6 -2 4 15157.3 2912.44 20
6 -2 -3 989.36 364.104 48
-6 -2 3 915.162 545.542 29
6 -2 -3 2774.36 642.786 27
-6 -2 3 1505.18 970.62 13
6 -2 -3 1626.21 427.406 56
-6 -2 3 15.794 1123.78 20
6 -2 -2 5046.12 650.954 48
-6 -2 2 3531.13 1422.91 3
6 -2 -2 4893.12 675.012 27
-6 -2 2 4856.08 1669.61 13
-6 -2 2 3371.45 1435.67 20
6 -2 -1 1058.6 387.423 48
-6 -2 1 1132.6 762.643 3
6 -2 -1 818.689 346.728 44
6 -2 -1 889.222 401.975 27
-6 -2 1 162.601 700.637 13
-6 -2 1 1389.4 1233.16 20
6 -2 0 40901 1669.89 48
-6 -2 0 44194.7 2332.19 30
6 -2 0 43539.3 1734 44
6 -2 0 41437.2 1739.92 27
6 -2 1 16075 1092.13 48
-6 -2 -1 18666.7 1671.03 30
-6 -2 -1 15234 2487.96 3
6 -2 1 16494.1 1085.94 44
6 -2 1 16031.2 1035.72 40
6 -2 2 11400.9 956.899 48
-6 -2 -2 12400.8 1560.88 30
-6 -2 -2 15902.7 2634.09 3
6 -2 2 11788 925.574 44
6 -2 2 12098.2 929.984 40
6 -2 3 14.794 358.897 48
-6 -2 -3 1552.17 855.93 30
6 -2 3 357.218 297.655 44
6 -2 3 502.714 295.3 40
-6 -2 -3 72.2184 533.718 58
6 -2 4 11894.8 968.974 48
6 -2 4 9791.01 803.729 44
-6 -2 -4 10065.2 1313.72 43
6 -2 4 12299.5 897.345 40
-6 -2 -4 12304.6 1303.29 58
6 -2 5 9587.93 875.997 48
-6 -2 -5 9859.58 1199.94 43
6 -2 5 7572.92 708.166 40
-6 -2 -5 10602.8 1159.51 58
6 -2 6 680.779 297.556 48
-6 -2 -6 575.398 454.324 43
6 -2 6 439.327 224.351 40
-6 -2 -6 819.155 515.922 58
6 -2 7 4833.99 505.233 48
-6 -2 -7 4610.74 553.372 43
6 -2 7 4352.49 408.615 40
-6 -2 -7 5164.36 679.165 58
6 -2 8 12955.5 604.01 48
-6 -2 -8 14635.4 854.27 58
6 -1 -9 252.211 190.688 59
6 -1 -8 939.597 242.032 51
6 -1 -8 1031.96 338.749 59
6 -1 -7 4529.74 573.423 51
-6 -1 7 4381.77 1347.56 25
6 -1 -7 5432.02 728.092 59
-6 -1 7 5006.54 641.46 36
6 -1 -6 10977.4 954.621 51
6 -1 -6 10491.8 978.627 59
6 -1 -5 12887.1 968.424 48
-6 -1 5 11739.5 2689.43 24
6 -1 -5 13621.8 1109.04 59
6 -1 -4 4015.8 585.534 48
-6 -1 4 4221.19 787.852 29
-6 -1 4 4342.77 1769.37 20
6 -1 -3 69744.6 2204.56 48
-6 -1 3 67091.5 2798.62 29
6 -1 -3 70140.2 2265.3 27
-6 -1 3 68014.9 6159.89 13
-6 -1 3 68005.9 6124.18 20
6 -1 -2 65331.2 2089.58 48
-6 -1 2 60667.3 2738.39 29
6 -1 -2 66101.8 2133.8 27
-6 -1 2 62691.6 5604.16 13
-6 -1 2 57455.1 5619.9 20
6 -1 -1 43825.2 1699.54 48
6 -1 -1 42981.2 1725.97 27
-6 -1 1 36264.4 4116.44 13
-6 -1 1 38788.1 4004.21 3
-6 -1 1 44394.8 4863.44 20
6 -1 0 1234.23 427.074 48
6 -1 0 1412.33 384.826 44
6 -1 0 722.83 394.144 27
-6 -1 0 769.72 748.163 13
6 -1 0 1037.17 348.576 40
6 -1 1 15295.6 1059.83 48
6 -1 1 10668 1708.06 9
6 -1 1 15404.6 1026.28 44
-6 -1 -1 12011.5 2244.01 13
6 -1 1 15716.8 1069.67 40
-6 -1 -1 14928.4 2426.05 3
-6 -1 -1 16918 2965.38 20
6 -1 2 11121.7 922.368 48
6 -1 2 8405.86 1590.36 9
6 -1 2 8793.03 774.221 44
6 -1 2 10197.3 891.539 40
-6 -1 -2 10696.3 2399.08 20
-6 -1 -2 12391.4 2146.97 3
6 -1 3 2755.59 513.218 48
-6 -1 -3 3044.8 945.503 43
6 -1 3 3129.12 540.05 40
6 -1 4 6827.88 773.049 48
-6 -1 -4 8257.05 1188.77 43
6 -1 4 6590.95 731.603 40
-6 -1 -4 6601.12 939.794 58
6 -1 5 5957.01 702.663 48
-6 -1 -5 6760.9 1094.1 43
6 -1 5 6843.87 726.753 40
-6 -1 -5 7414.87 992.549 58
6 -1 6 5852.42 636.225 48
-6 -1 -6 6017.05 864.173 43
6 -1 6 5686.51 620.973 40
-6 -1 -6 6298.12 843.766 58
6 -1 7 560.422 256.998 48
-6 -1 -7 678.123 282.624 43
6 -1 7 686.921 232.098 40
-6 -1 -7 962.623 414.268 58
6 -1 8 12768.3 591.542 48
6 -1 8 12307.3 597.239 40
6 0 -9 -153.322 216.67 59
6 0 -8 -168.705 212.527 51
6 0 -8 242.361 316.052 59
-6 0 8 660.167 280.534 36
6 0 -7 129.532 262.391 51
-6 0 7 -390.838 1059.71 25
-6 0 7 1014.89 1041.98 24
6 0 -7 356.523 369.801 59
-6 0 7 -127.223 310.955 36
6 0 -6 1952.58 518.124 51
-6 0 6 553.887 1150.68 24
6 0 -6 2069.34 515.625 59
-6 0 6 2288.82 514.655 55
6 0 -5 5797.68 775.269 51
6 0 -5 4684.3 653.083 48
-6 0 5 5281.41 1651.19 24
6 0 -5 5781.39 762.382 59
6 0 -4 21652.8 1269.42 48
-6 0 4 22358.9 1595.61 29
-6 0 4 21412.5 3558.59 24
6 0 -3 34563.4 1565.92 48
-6 0 3 36765.3 2122.73 29
6 0 -3 33515.2 1600.02 27
-6 0 3 33147.9 4439.24 20
6 0 -2 12985.8 970.874 48
-6 0 2 12208.9 1393.89 29
6 0 -2 12160.4 924.171 27
-6 0 2 9265.77 2381.29 13
-6 0 2 14412.1 3050.08 20
6 0 -1 5791.93 668.08 48
6 0 -1 7578.15 1444.03 9
-6 0 1 5258.24 1074.37 29
6 0 -1 6553.73 714.714 27
-6 0 1 9441.95 2288.27 13
-6 0 1 7848.88 2274.37 20
-6 0 0 -1577.49 861.595 3
6 0 0 630.309 351.534 48
6 0 0 656.68 468.18 9
-6 0 0 248.796 717.39 29
6 0 0 722.968 352.201 27
-6 0 0 1112.13 518.585 43
-6 0 0 -287.848 933.246 13
6 0 0 978.055 359.669 40
-6 0 0 1182.5 1339.36 20
6 0 1 1106.33 375.302 48
-6 0 -1 362.939 577.118 3
6 0 1 1283 634.514 9
-6 0 -1 1089.81 691.033 29
6 0 1 899.565 358.024 27
-6 0 -1 342.687 530.655 43
6 0 1 1172.18 397.3 40
-6 0 -1 2340.88 1150.93 20
6 0 2 2415.78 500.078 48
6 0 2 3258.16 1010.12 9
-6 0 -2 2681.61 1102.34 3
-6 0 -2 3428.54 805.437 29
-6 0 -2 3625.56 896.849 43
6 0 2 3117.44 575.026 40
-6 0 -2 4396.61 1610.6 20
6 0 3 6721.42 730.805 48
-6 0 -3 5660.14 885.567 29
-6 0 -3 5236.83 1379.66 3
-6 0 -3 6664.86 1155.93 43
6 0 3 6652.69 771.648 40
6 0 4 -41.7555 290.894 48
-6 0 -4 -322.455 720.334 43
-6 0 -4 -211.745 331.218 42
6 0 4 198.399 277.795 40
-6 0 -4 364.689 403.972 58
6 0 5 601.024 352.316 48
-6 0 -5 269.482 1072.06 17
-6 0 -5 954.914 651.486 43
6 0 5 863.196 411.309 40
-6 0 -5 778.483 497.049 58
6 0 6 885.148 308.289 48
-6 0 -6 571.08 468.749 43
6 0 6 630.321 329.95 40
-6 0 -6 614.485 442.312 58
6 0 7 372.531 185.444 48
-6 0 -7 85.8866 278.846 43
6 0 7 440.434 264.191 40
-6 0 -7 670.628 369.683 58
6 0 8 1748.59 280.133 40
-6 0 -8 1268.26 309.566 58
6 1 -9 190.552 233.846 59
-6 1 9 30.6547 131.68 52
6 1 -8 353.869 212.21 51
6 1 -8 817.596 346.559 59
-6 1 8 1203.13 363.029 36
6 1 -7 5159.42 642.573 51
-6 1 7 5281.69 1418.93 25
6 1 -7 5033.42 704.523 59
-6 1 7 5432.11 741.475 36
6 1 -6 12097.6 1023.89 51
-6 1 6 11207 2337.16 25
-6 1 6 9099.35 2157.21 24
6 1 -6 11715.8 1071.69 59
-6 1 6 11250.1 997.586 55
6 1 -5 14553 1143.93 51
-6 1 5 12021.7 2729.57 24
6 1 -5 12944.5 1101.18 59
6 1 -4 3650.29 634.3 51
6 1 -4 3610.9 596.017 48
-6 1 4 3457.05 660.649 42
-6 1 4 1522.95 1109.33 24
6 1 -4 4211.49 627.358 59
-6 1 3 65678.2 5004.9 5
6 1 -3 68086.7 2327.86 51
6 1 -3 70072.2 2225.38 48
-6 1 3 71673.8 2940.72 29
-6 1 3 65789 2688.1 42
-6 1 3 67107.3 6043.2 24
6 1 -3 70484 4720.34 11
6 1 -2 62447.3 4386.02 9
6 1 -2 63875 2092.81 48
-6 1 2 70589.3 3017.1 29
6 1 -2 61989.6 2031.5 27
-6 1 2 71219.7 6316.29 20
-6 1 1 35252.7 3543.34 5
6 1 -1 40314.2 3542.83 9
6 1 -1 43382 1703.88 48
-6 1 1 42465 2408.5 29
6 1 -1 42404.4 1643.73 27
-6 1 1 43618.8 4983.95 20
-6 1 0 1019.11 910.391 3
6 1 0 1447.38 379.787 48
6 1 0 1633.3 734.455 9
-6 1 0 1119.11 705.004 29
6 1 0 962.186 279.26 45
6 1 0 959.895 329.713 27
-6 1 0 1804.15 558.024 43
6 1 0 945.462 333.01 40
-6 1 0 79.2929 1639.76 20
6 1 1 14527.3 994.355 48
6 1 1 13856.5 2084.84 9
-6 1 -1 13792.9 1415.97 29
6 1 1 15635.3 968.248 45
6 1 1 15932.8 977.305 27
-6 1 -1 16558.2 1481.45 43
6 1 1 15121.8 1098.12 40
-6 1 -1 14749.7 2292.83 3
-6 1 -1 17769.8 3078.64 20
6 1 2 10493.8 858.835 48
6 1 2 10237.4 1804.66 9
-6 1 -2 8634.51 1747.72 3
-6 1 -2 10096.2 1178.73 29
6 1 2 9966.55 773.358 27
-6 1 -2 11202.9 1320.79 43
6 1 2 10608.9 931.051 40
6 1 3 2832.47 474.317 48
-6 1 -3 4664.75 1779.46 17
-6 1 -3 3713.63 892.807 43
-6 1 -3 4039.51 752.382 42
6 1 3 3086.98 546.966 40
6 1 4 6840.3 717.708 48
-6 1 -4 8717.3 2248.8 17
-6 1 -4 5887.31 1003.91 43
-6 1 -4 6121.34 779.894 42
6 1 4 6729.72 778.662 40
-6 1 -4 6582.12 853.272 58
6 1 5 6253.56 637.621 48
-6 1 -5 6529.4 942.538 43
6 1 5 6459.85 749.329 40
-6 1 -5 5859.6 818.315 58
6 1 6 4917.72 506.808 48
-6 1 -6 5825.31 813.518 43
6 1 6 6676 715.402 40
-6 1 -6 5244.01 769.661 58
-6 1 -7 564.104 306.38 43
6 1 7 415.494 252.525 40
-6 1 -7 255.274 316.795 58
6 1 8 14525.9 716.629 40
-6 1 -8 13486.8 835.559 58
-6 2 9 14522.4 686.476 41
-6 2 9 14891.3 719.126 52
6 2 -8 6168.2 672.86 59
-6 2 8 4957.88 558.291 36
-6 2 8 5069.09 598.129 52
6 2 -8 5135.71 519.261 51
6 2 -7 21502.4 1229.52 51
6 2 -7 21437.1 1337.51 59
-6 2 7 20045.5 1302.83 36
6 2 -6 17889.1 1246.71 51
-6 2 6 15361.2 2596.23 25
6 2 -6 14855.4 1156.03 59
-6 2 6 15465.7 1148.17 55
-6 2 6 16172.2 1300.81 36
6 2 -5 11230.2 1056.83 51
-6 2 5 10368.9 2185.93 25
-6 2 5 12293.8 2555.85 24
6 2 -5 11022.7 1029.05 59
-6 2 5 11010.7 1111.76 55
6 2 -4 17827.7 1280.21 51
6 2 -4 16392 1100.86 48
6 2 -4 14684.2 929.374 45
-6 2 4 15076.8 1189.37 42
6 2 -4 15388.3 1173.25 59
6 2 -3 1614.66 478.363 51
6 2 -3 1006.27 355.509 48
-6 2 3 1261.32 546.066 5
6 2 -3 1097.6 347.247 45
-6 2 3 889.561 453.465 42
-6 2 3 1360.66 1366.11 24
6 2 -3 947.609 576.582 11
6 2 -2 4671.52 647.769 51
6 2 -2 4387.93 588.519 48
-6 2 2 5683.93 997.311 29
6 2 -2 4810.17 575.128 45
-6 2 2 4571.09 833.206 42
-6 2 2 3298.62 1348.91 24
6 2 -1 924.663 306.836 51
6 2 -1 736.131 317.202 48
-6 2 1 669.116 764.427 5
6 2 -1 2553.7 955.971 9
-6 2 1 1207.93 693.104 29
6 2 -1 907.847 295.075 45
-6 2 1 1481.76 657.488 42
-6 2 1 231.749 705.239 24
6 2 0 40361.5 1607.22 48
6 2 0 42077.5 3791.57 9
-6 2 0 41204.7 2304.78 29
6 2 0 39324 1576.35 45
-6 2 0 38975 2265.11 42
6 2 0 42033.5 1764.2 40
6 2 1 15136.2 979.152 48
6 2 1 14114.7 2196.39 9
-6 2 -1 16596.5 2713.05 17
-6 2 -1 16600.3 1482.77 29
6 2 1 15027.1 1011.77 45
-6 2 -1 14711.4 1322.36 43
-6 2 -1 15810.6 1469.68 42
6 2 1 16629.6 1138.47 40
-6 2 -1 16660.4 2369.98 3
6 2 2 10635 828.072 48
6 2 2 12579.1 2118.44 9
-6 2 -2 9924.07 2346.95 17
-6 2 -2 13308.8 1245.14 29
-6 2 -2 12376.7 1297.64 43
-6 2 -2 11451.8 1229.37 42
6 2 2 12282.8 1012.8 40
6 2 3 -99.9205 275.528 48
-6 2 -3 -255.972 1260.74 17
-6 2 -3 428.422 492.126 43
-6 2 -3 -204.517 437.667 42
6 2 3 253.761 352.267 40
-6 2 -4 12219.3 2608.74 17
-6 2 -4 12287.5 1306.39 43
6 2 4 13516.9 1066.51 40
-6 2 -5 8488.1 1035.65 43
6 2 5 9778.03 892.165 40
-6 2 -5 8405.34 898.7 58
-6 2 -6 732.613 435.918 43
6 2 6 571.614 310.727 40
-6 2 -6 507.584 361.306 58
-6 2 -7 4816.02 585.033 43
6 2 7 4520.17 512.52 40
-6 2 -7 4779.44 623.408 58
6 2 8 14423.9 660.933 40
-6 2 -8 11643.8 716.187 58
6 3 -8 2133.7 344.729 51
-6 3 8 1959.36 323.614 41
-6 3 8 1935.31 341.809 36
-6 3 8 2833.44 429.024 52
6 3 -7 1668.35 408.044 51
6 3 -7 1526.36 415.759 59
-6 3 7 1765.69 457.939 36
6 3 -6 9760.67 948.502 51
6 3 -6 9433.5 930.919 59
-6 3 6 8696.27 849.847 55
-6 3 6 10248.1 1023.8 36
6 3 -5 4392.97 724.398 51
-6 3 5 4145.18 1554.6 25
6 3 -5 4153.18 650.671 59
-6 3 5 4764.75 783.448 55
-6 3 5 4782.63 795.801 36
6 3 -4 25671.9 1571.01 51
6 3 -4 23988 1225.06 45
-6 3 4 25671.5 1485.08 42
-6 3 4 25673.3 3506.06 24
6 3 -4 27685.6 1535.47 59
-6 3 4 28322.4 1799.19 55
6 3 -3 58753.2 2214.04 51
6 3 -3 58014 1979.4 48
6 3 -3 54747.8 1890.69 45
-6 3 3 59300.6 2449.11 42
-6 3 3 54959.5 5115.83 24
-6 3 3 60221.9 2646.51 55
6 3 -2 19072.3 1224.67 51
-6 3 2 20425.9 3021.53 5
6 3 -2 18804.8 1119.45 48
6 3 -2 17685.1 1098.61 45
-6 3 2 18247.3 1497.05 42
-6 3 2 19436.6 2979.87 24
-6 3 2 19203.1 1563.91 55
6 3 -1 18722 1166.28 51
6 3 -1 20211.8 2761.35 9
-6 3 1 17112.1 2751.65 5
6 3 -1 19384.9 1099.76 48
6 3 -1 18690.7 1138.3 45
-6 3 1 19798.4 1567.33 42
6 3 0 300.151 264.125 45
-6 3 0 480.188 469.505 42
-6 3 0 226.172 416.131 55
6 3 1 31037.5 1472.14 45
-6 3 -1 29540 1732.99 43
-6 3 -1 30453.6 1946.17 42
6 3 1 31753.5 1543.75 40
-6 3 -1 31855.4 1769.32 55
-6 3 -2 9104.15 2229.34 17
-6 3 -2 8874.88 1057.19 43
-6 3 -2 8299.46 1022.46 42
6 3 2 8398.17 841.36 40
-6 3 -3 4991.59 1592.62 17
-6 3 -3 3831.41 779.798 43
-6 3 -3 3937.88 652.583 42
6 3 3 4405.79 645.459 40
-6 3 -4 4294.6 1401.44 17
-6 3 -4 5559.11 887.286 43
6 3 4 5876.95 699.45 40
-6 3 -5 9508.28 1067.72 43
6 3 5 10037.2 846.537 40
-6 3 -5 8730.52 868.754 58
-6 3 -6 1286.34 430.722 43
6 3 6 1578.44 373.031 40
-6 3 -6 1672.55 468.788 58
-6 3 -7 18254.6 1033.1 43
6 3 7 17026.4 833.721 40
-6 4 8 2556.94 342.956 52
6 4 -8 2517.61 326.806 51
6 4 -7 880.198 346.055 51
-6 4 7 497.393 201.421 41
-6 4 7 364.828 250.477 36
-6 4 7 497.818 260.143 52
6 4 -6 1135.12 388.057 51
-6 4 6 554.882 353.036 36
6 4 -5 315.167 393.214 51
-6 4 5 860.688 455.294 55
-6 4 5 -130.827 367.922 36
6 4 -4 6273.47 793.901 51
6 4 -4 6033.3 660.805 45
-6 4 4 5986.61 737.168 42
-6 4 4 8176.76 1018.2 55
-6 4 4 7081 906.152 36
6 4 -3 15511.4 1170.74 51
6 4 -3 14307.9 1138.5 49
6 4 -3 14318.9 1021.64 45
-6 4 3 15313.4 1242.51 42
-6 4 3 16258 1441.62 55
-6 4 3 16202.3 1301 36
6 4 -2 1460.34 412.356 51
6 4 -2 1452.86 496.925 49
6 4 -2 1688.98 451.213 45
-6 4 2 1912.01 577.319 42
-6 4 2 1973.83 677.22 55
6 4 -1 11845.7 1081.35 49
6 4 -1 12443.3 968.616 45
-6 4 1 12128.7 1246.15 42
-6 4 1 12871.6 1285.24 55
6 4 0 16715.8 1004.39 50
6 4 0 17261.4 1278.26 49
6 4 0 17719 1136.95 45
-6 4 0 18539.2 1525.63 42
-6 4 0 17267.9 1398.14 55
6 4 1 32279.7 1385.71 50
6 4 1 34489.7 1578.68 45
-6 4 -1 28401.5 1675.03 43
-6 4 -1 31991.9 1910.25 42
6 4 1 32166.8 1548.67 40
-6 4 -1 33148.6 1758.22 55
-6 4 -2 6037.37 1265.81 17
6 4 2 7776.9 790.452 45
-6 4 -2 7763.33 954.731 43
-6 4 -2 8059.28 970.599 42
6 4 2 7964.4 803.14 40
-6 4 -3 4539.28 797.967 43
-6 4 -3 4285.93 652.924 42
6 4 3 3522.36 530.763 40
-6 4 -4 7778.24 982.153 43
6 4 4 7559.26 731.752 40
-6 4 -5 179.754 398.971 43
6 4 5 7.02946 226.43 40
-6 4 -6 1929.06 456.204 43
6 4 6 1886.3 306.82 40
6 4 7 4121.46 374.664 45
-6 4 -7 4690.27 489.086 43
6 4 7 3335.21 302.477 40
6 5 -7 2715.04 397.806 51
-6 5 7 2508.95 346.659 52
6 5 -6 2652.38 471.708 51
-6 5 6 2409.28 435.529 36
-6 5 6 2338.42 380.133 52
6 5 -5 3569.56 572.307 51
-6 5 5 2707.89 501.975 36
-6 5 5 3119.81 481.731 52
6 5 -4 9514.93 838.873 49
6 5 -4 9848.39 795.527 45
-6 5 4 9056.81 815.383 42
-6 5 4 10528.4 961.587 36
6 5 -4 9990 920.694 51
6 5 -3 595.389 323.141 51
6 5 -3 219.909 343.285 49
6 5 -3 103.403 316.918 45
-6 5 3 814.116 403.734 42
-6 5 3 620.782 504.386 55
-6 5 3 68.959 310.087 36
6 5 -2 12667.1 1102.51 49
6 5 -2 13077.4 995.42 45
-6 5 2 13550.3 1212.08 42
-6 5 2 15988.5 1394.67 55
6 5 -2 12836 980.799 51
6 5 -1 19694.2 1360.63 49
6 5 -1 19350.6 1207.35 45
-6 5 1 21207.1 1558.29 42
-6 5 1 20002.2 1503.56 55
6 5 0 6337.39 650.805 50
6 5 0 7222.66 887.617 49
6 5 0 8012.04 809.255 45
-6 5 0 7217.77 966.485 42
-6 5 0 6423.74 843.964 55
6 5 1 10644.9 810.362 50
6 5 1 11524.8 939.708 45
-6 5 -1 10113.3 1002.72 43
-6 5 -1 10141.9 1073.8 42
6 5 2 8758.95 729.377 50
6 5 2 9420.55 858.353 45
-6 5 -2 9574.31 1030.93 43
-6 5 -2 9320.88 964.917 42
6 5 3 8132.89 675.131 50
6 5 3 8302.13 776.692 45
-6 5 -3 8557.56 982.323 43
-6 5 -3 8015.72 791.652 42
6 5 3 7182.84 641.406 40
6 5 4 875.988 334.517 45
-6 5 -4 459.293 431.62 43
6 5 4 598.933 225.265 40
6 5 5 2884.96 412.299 45
-6 5 -5 2314.14 528.254 43
6 5 5 2394.24 322.843 40
6 5 6 3157.86 353.47 45
-6 5 -6 3146.27 452.833 43
6 6 -6 1839.98 325.961 51
-6 6 6 1042.57 242.502 53
6 6 -5 9133.17 731.194 51
6 6 -4 2798.43 437.6 51
-6 6 4 2551.33 407.014 42
6 6 -3 475.258 269.056 51
6 6 -3 605.657 326.879 49
6 6 -3 222.712 330.229 45
-6 6 3 153.37 256.298 42
6 6 -2 8502.41 861.958 49
6 6 -2 8464.87 795.732 45
-6 6 2 7487.69 880.508 42
6 6 -1 7110.56 810.769 49
6 6 -1 7934.54 773.308 45
-6 6 1 7543.25 899.488 42
6 6 0 3826.57 631.701 49
6 6 0 5306.44 645.364 45
-6 6 0 4333.97 728.685 42
6 6 1 -308.987 305.279 50
6 6 1 147.35 299.421 45
-6 6 -1 140.809 311.75 43
-6 6 -1 532.65 407.951 42
6 6 2 8913.64 705.01 50
6 6 2 9064.06 764.631 45
-6 6 -2 10243.5 951.62 43
-6 6 -2 10172.7 909.604 42
6 6 3 9520.83 682.829 50
6 6 3 9962.66 744.657 45
-6 6 -3 9148.93 905.125 43
-6 6 -3 8928.95 727.533 42
-6 6 -3 7445.16 686.411 38
6 6 4 9239.83 587.43 50
6 6 4 10108 687.522 45
-6 6 -4 10241.5 898.369 43
-6 6 -4 9168.68 726.322 38
6 6 5 2096.54 283.115 45
-6 6 -5 1395.95 333.483 43
-6 6 -5 1577.64 301.231 38
-6 7 5 3876.45 427.057 53
-6 7 4 2579.35 445.596 53
6 7 -3 917.664 313.129 49
-6 7 3 1313.72 326.053 42
-6 7 3 1453.58 407.742 53
6 7 -2 1033.6 344.117 49
6 7 -2 1092.49 328.875 45
-6 7 2 1147.42 343.694 42
-6 7 2 1919.89 473.776 53
6 7 -1 3107.94 515.319 49
6 7 -1 3147.49 460.305 45
-6 7 1 2855.89 523.293 42
-6 7 1 3140.3 506.257 53
6 7 0 7934.16 725.848 49
6 7 0 8386.23 681.22 45
-6 7 0 8168.73 803.677 42
-6 7 0 8223.36 703.409 53
6 7 1 6590.9 597.725 45
-6 7 -1 7042.29 721.683 42
6 7 2 5236.05 490.597 50
6 7 2 5879.76 534.211 45
-6 7 -2 5783.12 570.461 43
-6 7 -2 5874.31 587.838 42
6 7 3 6914.05 497.728 50
6 7 3 8000.66 554.641 45
-6 7 -3 7491.9 646.952 43
6 7 4 3385.85 319.64 45
-6 7 -4 3129.94 405.889 43
-6 8 3 1270.24 268.02 53
-6 8 2 664.928 186.123 53
6 8 -1 2275.02 299.403 45
-6 8 1 1642.16 278.202 53
6 8 0 664.005 199.722 45
6 8 1 5159.81 389.455 45
7 -7 -2 269.367 128.881 56
7 -7 -1 177.257 132.978 56
7 -7 0 3580.19 355.894 56
7 -6 -4 2169.88 312.209 56
7 -6 -3 689.071 240.62 56
7 -6 -2 1615.53 323.586 56
7 -6 -1 2473.21 389.438 56
7 -6 0 8652.07 649.232 56
7 -6 1 1926.31 337.162 44
7 -6 2 3397.58 401.963 44
7 -6 3 2196.55 293.567 44
-7 -6 -3 1966.34 445.353 43
7 -5 -4 9510.28 696.217 56
7 -5 -3 1894.96 365.779 56
7 -5 -2 2651.96 400.529 27
7 -5 -2 3175 461.886 56
7 -5 -1 -3.35391 201.827 27
7 -5 -1 81.5028 230.062 56
7 -5 0 21977.9 982.674 48
-7 -5 0 23683.5 1543.07 30
7 -5 0 23829.1 1207.16 44
7 -5 0 24304.4 1191.99 27
7 -5 1 2930.9 388.44 48
-7 -5 -1 3710.09 744.02 30
7 -5 1 3779.44 524.973 44
7 -5 1 3846.57 491.772 27
7 -5 2 810.691 254.891 48
-7 -5 -2 772.219 492.901 30
7 -5 2 832.358 274.633 44
7 -5 3 1841.29 290.31 48
7 -5 3 2371.71 375.939 44
-7 -5 -3 2221.38 586.416 43
7 -5 4 6300.83 446.747 48
7 -5 4 7017.26 500.846 44
7 -4 -6 132.468 127.828 51
7 -4 -4 2611.1 414.39 56
7 -4 -3 3732.71 454.971 48
7 -4 -3 4957.75 566.895 56
7 -4 -2 4384.11 505.171 48
7 -4 -2 4013.99 536.654 27
7 -4 -2 4065.4 505.742 56
7 -4 -1 2095.38 376.463 48
7 -4 -1 1910.1 423.271 27
7 -4 -1 1742.88 372.33 56
7 -4 0 2061.53 399.749 48
-7 -4 0 1086.11 520.532 30
7 -4 0 1919.52 426.115 44
7 -4 0 1575.49 405.716 27
7 -4 1 7289.78 660.541 48
-7 -4 -1 6653.3 977.177 30
7 -4 1 7515.95 741.981 44
7 -4 1 6719.66 707.38 27
7 -4 2 11352.5 810.128 48
-7 -4 -2 12207.2 1380.87 30
7 -4 2 11800.7 866.028 44
7 -4 2 13139 934.747 27
7 -4 3 16899.7 938.55 48
7 -4 3 16479.1 936.333 44
7 -4 3 17249.4 1025.14 27
-7 -4 -3 19143.2 1518.25 43
7 -4 4 685.827 250.529 48
7 -4 4 350.34 186.145 44
-7 -4 -4 591.291 470.556 43
-7 -4 -4 -330.246 337.283 58
7 -4 5 3092.35 355.974 48
-7 -4 -5 4029.06 562.606 43
-7 -4 -5 3321.01 449.765 58
7 -3 -6 2849.17 391.631 51
7 -3 -4 752.431 300.291 48
7 -3 -4 834.45 306.13 56
7 -3 -3 12485.5 865.362 48
-7 -3 3 11220.9 1148.8 29
7 -3 -3 11338.7 889.651 27
7 -3 -2 15155.1 981.573 48
-7 -3 2 13033.7 1284.9 29
7 -3 -2 16176.5 1062.48 27
-7 -3 2 11799.6 2758.75 20
7 -3 -1 222.411 278.625 48
7 -3 -1 394.335 271.847 27
-7 -3 1 983.426 1181.7 20
7 -3 0 1957.54 442.502 48
-7 -3 0 801.486 489.849 30
7 -3 0 1825.97 443.996 44
7 -3 0 1981.22 470.91 27
-7 -3 0 2046.22 1403.47 20
7 -3 1 4275.35 583.956 48
7 -3 1 3425 534.846 44
7 -3 1 3151.31 533.869 27
-7 -3 -1 3924.12 2047.89 20
7 -3 2 37149.8 1527.93 48
7 -3 2 34752.4 1472.75 44
7 -3 2 37022.1 1621.98 27
7 -3 3 15670 992.101 48
7 -3 3 13430.2 855.081 44
-7 -3 -3 16787.5 1502.67 43
7 -3 4 686.6 309.681 48
7 -3 4 876.776 248.215 44
-7 -3 -4 84.083 538.533 43
-7 -3 -4 659.614 321.969 58
7 -3 5 3877.6 458.182 48
-7 -3 -5 4236.88 666.191 43
-7 -3 -5 4422.38 584.393 58
7 -3 6 114.575 140.581 48
-7 -3 -6 457.868 245.978 43
7 -2 -7 424.47 196.708 51
7 -2 -6 3622.25 494.505 51
7 -2 -5 6997.62 719.967 51
7 -2 -4 8535.92 754.848 48
-7 -2 4 6720.93 818.288 29
7 -2 -3 5270.4 651.958 48
-7 -2 3 5516.85 865.287 29
7 -2 -3 4564.06 643.184 27
-7 -2 3 6900.86 1836.86 20
7 -2 -2 6945.86 716.279 48
-7 -2 2 5215.01 932.869 29
7 -2 -2 6664.21 751.165 27
7 -2 -1 13200.3 964.045 48
-7 -2 1 12078 1281.64 29
7 -2 -1 13357.1 1006.23 27
-7 -2 1 13763.1 2983.06 20
7 -2 0 8634.84 819.16 48
7 -2 0 9617.78 867.469 27
-7 -2 0 8355.43 1027.6 43
7 -2 1 37618 1617.46 48
7 -2 1 34269 1488.34 44
7 -2 1 36821.7 1629.55 27
-7 -2 -1 35595.4 2227.05 43
-7 -2 -1 32143.5 4358.11 20
7 -2 2 12403.9 964.105 48
7 -2 2 10165.3 780.399 44
7 -2 2 10459.7 881.698 27
-7 -2 -2 11101.8 1339.82 43
7 -2 3 10733.8 870.288 48
-7 -2 -3 9979.12 1138.58 29
-7 -2 -3 11126.6 1295.08 43
7 -2 3 8245.53 708.682 40
7 -2 4 12763.4 900.904 48
-7 -2 -4 12077.3 1254.3 43
7 -2 4 10243.7 735.299 40
7 -2 5 4345.54 498.918 48
-7 -2 -5 5166.49 767.581 43
7 -2 5 3542.33 389.565 40
-7 -2 -5 4630.68 613.809 58
7 -2 6 10210 622.27 48
-7 -2 -6 9257.12 740.13 43
-7 -2 -6 9118.8 702.754 58
7 -1 -7 830.948 252.759 51
7 -1 -7 753.372 246.632 59
-7 -1 7 685.58 254.94 36
7 -1 -6 16865.4 1020.04 51
7 -1 -5 8068.32 809.721 51
-7 -1 5 8460.12 1970.88 24
7 -1 -4 3342.01 586.371 48
-7 -1 4 2931.41 599.54 29
-7 -1 4 3204.25 570.652 42
-7 -1 4 1391.79 1241.01 24
7 -1 -3 8774.42 837.299 48
-7 -1 3 7775.86 1015.14 29
7 -1 -2 3633.66 584.664 48
-7 -1 2 3428.26 822.214 29
7 -1 -2 3323.08 545.032 27
-7 -1 2 5290.46 1923.9 20
7 -1 -1 504.843 347.203 48
-7 -1 1 744.341 608.972 29
7 -1 -1 364.272 282.173 27
7 -1 0 28253.5 1410.07 48
-7 -1 0 24073.2 1839.31 29
7 -1 0 28309.2 1414.91 27
-7 -1 0 25396 1701.63 43
-7 -1 0 23284.6 3790.05 20
7 -1 1 20241.8 1209.13 48
-7 -1 -1 18623.7 1641.86 29
7 -1 1 19778.3 1194.69 27
-7 -1 -1 20709.1 1685.16 43
-7 -1 -1 17801.8 3403.74 20
7 -1 2 7631.83 800.3 48
-7 -1 -2 6458.59 997.587 29
7 -1 2 7843.77 766.24 27
-7 -1 -2 8869.53 1240.36 43
7 -1 2 6732.64 723.052 40
7 -1 3 12801.8 975.49 48
-7 -1 -3 12129.9 1204.44 29
7 -1 3 10280 834.308 27
-7 -1 -3 13758.8 1418.58 43
7 -1 3 14101.9 977.149 40
7 -1 4 2727.79 466.613 48
7 -1 4 1698.06 331.467 27
-7 -1 -4 3070.42 768.832 43
-7 -1 -4 1782.01 418.274 42
7 -1 4 2447.92 421.736 40
7 -1 5 391.913 281.158 48
-7 -1 -5 -271.438 416.688 43
7 -1 5 426.967 241.674 40
7 -1 6 248.992 171.395 48
-7 -1 -6 620.559 315.614 43
7 -1 6 483.954 196.538 40
-7 -1 -6 -188.249 233.597 58
7 0 -7 2904.7 409.14 51
7 0 -7 3498.53 428.866 59
-7 0 7 2685.51 425.67 36
7 0 -6 138.302 242.12 51
7 0 -6 154.893 214.496 59
-7 0 6 -337.558 290.917 55
7 0 -5 30491.3 1516.38 51
-7 0 5 28753.8 3648.13 24
7 0 -4 597.407 367.905 51
7 0 -4 1213.45 399.867 48
-7 0 4 505.598 349.572 42
7 0 -3 2110.27 530.427 51
7 0 -3 2247.03 477.076 48
-7 0 3 2528.44 670.64 29
-7 0 3 2329.47 617.33 42
7 0 -2 30696.7 1486.78 48
-7 0 2 30710 1964.84 29
7 0 -2 29077.5 1432.8 27
-7 0 2 31480.1 4280.67 20
7 0 -1 3102.04 532.465 48
-7 0 1 3552.24 817.345 29
7 0 -1 2433.49 463.246 27
-7 0 1 3364.46 1650.04 20
7 0 0 1242.29 407.989 48
-7 0 0 1266.92 688.69 29
7 0 0 984.867 326.919 27
-7 0 0 1244.15 471.619 43
-7 0 0 2131.85 1108.54 20
7 0 1 21.6859 314.54 48
-7 0 -1 -13.4453 570.698 29
7 0 1 126.307 207.209 27
-7 0 -1 -179.361 543.225 43
7 0 1 174.801 323.726 40
7 0 2 3543.56 546.048 48
-7 0 -2 3807.8 771.388 29
7 0 2 3470.66 501.972 27
-7 0 -2 3733 846.446 43
7 0 2 3425.71 564.415 40
7 0 3 3171.07 526.103 48
-7 0 -3 3834.34 883.543 43
-7 0 -3 2818.26 599.937 42
7 0 3 3354.45 536.042 40
7 0 4 5877.61 633.328 48
-7 0 -4 7449.32 991.29 43
-7 0 -4 7202.91 741.954 42
7 0 4 6938.81 706.256 40
7 0 5 6290.17 588.285 48
-7 0 -5 7820.23 883.978 43
7 0 5 6777.39 652.913 40
7 0 6 2050.25 290.371 48
-7 0 -6 2140.27 437.524 43
7 0 6 1921.49 323.649 40
7 0 7 92.8866 107.995 40
-7 1 8 1634.13 264.922 52
7 1 -7 901.851 260.518 51
7 1 -7 680.529 253.232 59
-7 1 7 954.664 286.131 36
7 1 -6 17229.6 1061.17 51
7 1 -6 17733 1020.68 59
-7 1 6 16042.6 1012.63 55
-7 1 6 16480.8 1149.4 36
7 1 -5 8580.61 850.664 51
-7 1 5 7870.5 1924.45 24
-7 1 5 7353.3 845.751 55
7 1 -4 2750.91 552.673 51
7 1 -4 2500.47 488.709 48
-7 1 4 2591.75 492.86 42
7 1 -3 7965.7 830.05 51
7 1 -3 7375.66 770.723 48
-7 1 3 7112.72 904.293 42
7 1 -2 3079.83 567.112 51
7 1 -2 3437.67 553.674 48
-7 1 2 3798.6 842.548 29
-7 1 2 2766.81 712.919 42
-7 1 2 2810.76 1386.06 24
7 1 -1 743.487 276.469 51
7 1 -1 630.079 366.864 48
-7 1 1 -173.847 595.403 29
7 1 -1 330.23 243.189 27
-7 1 1 925.691 663.116 42
7 1 0 28346 1386.86 48
-7 1 0 29124.6 1955.22 29
7 1 0 26252.1 1254.75 27
-7 1 0 26811.3 1908.21 42
7 1 1 19967.7 1163.19 48
-7 1 -1 20445.9 1646.91 29
-7 1 -1 19523.5 1459.67 43
-7 1 -1 19976.3 1649.07 42
7 1 1 21119.9 1302.87 40
7 1 2 7258.71 703.034 48
-7 1 -2 7386.25 966.431 29
7 1 2 7429.13 643.721 45
-7 1 -2 7705.28 1022.71 43
-7 1 -2 7362.43 1023.07 42
7 1 2 6324.7 765.057 40
7 1 3 11683.9 857.836 48
7 1 3 13655.2 859.91 45
-7 1 -3 14663.9 1326.26 43
-7 1 -3 12057.6 1083.79 42
7 1 3 13354.3 1031.4 40
7 1 4 2474.5 389.841 48
-7 1 -4 2427.06 650.654 43
7 1 4 2389.79 484.086 40
7 1 5 127.325 162.395 48
-7 1 -5 653.445 406.712 43
7 1 5 425.169 296.593 40
7 1 6 294.647 123.829 45
-7 1 -6 228.677 255.572 43
7 1 6 248.157 216.65 40
7 1 7 1452.45 220.929 40
7 2 -7 486.944 229.013 51
-7 2 7 424.157 222.385 36
7 2 -6 3712.43 550.548 51
-7 2 6 3428.28 495.655 55
-7 2 6 3174.31 544.251 36
7 2 -5 6490.57 732.225 51
-7 2 5 5601.93 748.73 55
7 2 -4 8231.95 823.007 51
-7 2 4 7556.92 769.63 42
-7 2 4 7945.99 1851.88 24
-7 2 4 8788.12 1011.34 55
7 2 -3 6694.85 776.607 51
7 2 -3 6238.72 684.728 48
-7 2 3 4997.61 748.986 42
-7 2 3 4315.78 1340.1 24
-7 2 3 5802.11 946.058 55
7 2 -2 6818.62 728.09 51
7 2 -2 6069.12 676.388 48
7 2 -2 6420.96 602.652 45
-7 2 2 4480.89 793.704 42
7 2 -1 14068.6 964.808 51
7 2 -1 12790.7 924.873 48
7 2 -1 13375.8 882.331 45
-7 2 1 13801.9 1328.97 42
7 2 0 7362.75 702.893 48
7 2 0 8066.73 705.708 45
-7 2 0 8669.85 1116.37 42
7 2 1 34008.7 1415.78 48
7 2 1 36329.2 1461.52 45
-7 2 -1 31970.7 1730.99 43
-7 2 -1 36711.3 2108.8 42
7 2 1 34120.7 1641.15 40
7 2 2 9785.75 753.85 48
7 2 2 11462.8 843.968 45
-7 2 -2 11711 1132.63 43
-7 2 -2 10619.5 1109.42 42
7 2 2 11560.1 965.736 40
7 2 3 9374.44 679.003 48
7 2 3 10986.6 801.184 45
-7 2 -3 10758 1070.91 43
-7 2 -3 10095.5 969.327 42
7 2 3 10080.1 868.384 40
7 2 4 13004.7 836.83 45
-7 2 -4 11737.1 1058.93 43
7 2 4 13666.4 970.357 40
7 2 5 4403.32 460.726 45
-7 2 -5 4378.78 604.87 43
7 2 5 4884.35 554.696 40
7 2 6 9579.79 565.105 45
-7 2 -6 9332.93 737.395 43
7 2 6 9553.38 642.451 40
-7 3 7 4470.96 465.394 52
7 3 -7 4878.85 468.824 51
7 3 -6 3044.08 461.719 51
-7 3 6 3034.09 497.388 36
7 3 -5 12983.9 957.918 51
-7 3 5 13421.3 1064.39 55
-7 3 5 12564.2 1018.16 36
7 3 -4 776.373 328.393 51
-7 3 4 648.562 279.864 42
-7 3 4 805.904 552.391 55
-7 3 4 672.622 380.84 36
7 3 -3 12682.5 979.489 51
7 3 -3 11150.1 775.452 45
-7 3 3 9990.35 959.058 42
-7 3 3 13156.8 1240.98 55
7 3 -2 15563.8 1037.99 51
7 3 -2 14163.2 909.474 48
7 3 -2 14630.6 927.483 45
-7 3 2 15535.7 1293.76 42
-7 3 2 15685.6 1371.99 55
7 3 -1 242.478 174.775 48
7 3 -1 528.555 265.268 45
-7 3 1 525.004 545.01 42
-7 3 1 162.266 470.933 55
7 3 0 1510.53 388.403 45
-7 3 0 1983.65 726.998 42
-7 3 0 1873.06 566.855 55
7 3 1 3538.41 502.286 45
-7 3 -1 2668.39 530.072 43
-7 3 -1 3052.8 680.878 42
-7 3 -1 2963.79 584.457 55
7 3 2 38200.1 1514.71 45
-7 3 -2 35580.7 1782.47 43
-7 3 -2 36420.7 1839.84 42
7 3 2 38020.8 1616.68 40
7 3 3 15156.1 947.114 45
-7 3 -3 13757.7 1152.47 43
-7 3 -3 14447.3 1057.4 42
7 3 3 15754.3 1018.84 40
7 3 4 704.507 282.233 45
-7 3 -4 279.899 351.757 43
7 3 4 513.039 267.727 40
7 3 5 4459.08 450.097 45
-7 3 -5 5268.74 628.965 43
7 3 5 3745.63 450.262 40
7 3 6 379.785 163.333 45
-7 3 -6 -246.168 242.596 43
7 3 6 -26.5171 135.082 40
7 4 -6 476.545 244.097 51
-7 4 6 728.597 262.82 36
-7 4 6 176.777 192.811 52
7 4 -5 2157.5 412.37 51
-7 4 5 1748.64 375.702 36
7 4 -4 1886.11 399.466 51
-7 4 4 1686.65 362.512 42
-7 4 4 2635.44 587.928 55
-7 4 4 2070.63 457.56 36
7 4 -3 4275.89 519.768 45
-7 4 3 3833.72 594.368 42
-7 4 3 6198.1 883.814 55
-7 4 3 4795.32 622.149 36
7 4 -3 4612.1 570.908 51
7 4 -2 4022.06 517.615 45
-7 4 2 4782.22 725.983 42
-7 4 2 4580.99 787.82 55
7 4 -2 4442.23 540.573 51
7 4 -1 1913.4 405.882 45
-7 4 1 2453.42 644.196 42
-7 4 1 1701.41 544.7 55
7 4 0 1955.76 408.776 45
-7 4 0 2685.89 681.601 42
-7 4 0 2118.28 551.071 55
7 4 1 6670.22 664.777 45
-7 4 -1 7497.35 916.827 42
-7 4 -1 7659.65 794.768 55
7 4 2 12856.1 878.094 45
-7 4 -2 12351.3 994.125 43
-7 4 -2 10780.1 969.447 42
7 4 3 18540.4 999.608 45
-7 4 -3 17897.9 1210.75 43
-7 4 -3 17989.3 1061.85 42
7 4 4 269.055 206.38 45
-7 4 -4 440.107 300.683 43
7 4 4 320.977 209.089 40
7 4 5 3600.94 383.959 45
-7 4 -5 3590.31 492.625 43
7 5 -6 4687.17 395.289 51
7 5 -5 7045.1 563.436 51
-7 5 4 6476.28 536.305 42
7 5 -4 9996.25 709.962 51
7 5 -3 1932.26 334.96 51
7 5 -3 1622.66 315.674 45
-7 5 3 1748.86 379.897 42
7 5 -2 3335.49 460.741 45
-7 5 2 3870.28 610.812 42
-7 5 2 4524.87 709.639 55
7 5 -1 -125.491 273.055 45
-7 5 1 -39.3124 339.723 42
-7 5 1 -250.963 371.043 55
7 5 0 25097.6 1176.77 45
-7 5 0 26300.6 1506.08 42
7 5 1 3595.29 473.523 45
-7 5 -1 4025.68 645.624 42
7 5 2 872.568 302.152 45
-7 5 -2 494.381 262.685 43
-7 5 -2 1303.07 368.452 42
7 5 3 2073.57 335.273 45
-7 5 -3 2044.8 416.733 43
-7 5 -3 1905.41 333.624 42
7 5 4 7965.23 548.802 45
-7 5 -4 7422.88 672.84 43
7 5 5 4234.03 336.907 45
-7 5 -5 3647.11 392.262 43
-7 6 4 2216.49 381.548 53
-7 6 3 821.347 246.033 42
7 6 -2 1659.66 329.583 45
-7 6 2 2079.84 396.272 42
7 6 -1 2934.69 386.11 45
-7 6 1 2924.68 510.226 42
7 6 0 11295.5 726.346 45
-7 6 0 10984.8 861.288 42
7 6 1 1967.54 338.604 45
-7 6 -1 1849.48 394.115 42
7 6 2 3502.82 399.151 45
-7 6 -2 2974.3 404.338 42
7 6 3 2268.88 296.562 45
-7 6 -3 1496.41 274.626 43
-7 7 2 569.452 179.571 53
7 7 -1 124.682 135.308 45
-7 7 1 460.233 205.315 42
7 7 0 4614.29 384.099 45
-7 7 0 4229.01 429.249 42
7 7 1 1283.77 215.679 45
-8 -5 -1 7775.64 633.452 43
8 -4 -4 -34.9887 152.464 51
8 -4 -2 1285.03 227.099 48
8 -4 -1 126.226 149.993 48
8 -4 0 7813.92 534.953 48
-8 -4 0 8175.64 727.154 43
8 -4 1 6930.32 492.706 48
-8 -4 -1 7398.25 718.423 43
8 -4 2 1495.43 245.514 48
-8 -4 -2 1609.01 419.754 43
8 -4 3 1201.19 205.103 48
-8 -4 -3 1609.2 349.428 43
8 -3 -5 4390.34 403.402 51
8 -3 -4 2322.14 364.861 51
8 -3 -3 4407.7 438.957 48
8 -3 -2 6952.2 570.899 48
8 -3 -1 340.817 209.898 48
8 -3 0 4604.1 501.4 48
-8 -3 0 3870.2 566.747 43
8 -3 1 1535.87 326.784 48
-8 -3 -1 1275.02 407.674 43
8 -3 2 7251.53 561.223 48
-8 -3 -2 6729.66 784.347 43
8 -3 3 8188.34 549.312 48
-8 -3 -3 8999.31 810.627 43
-8 -3 -3 9156.73 713.571 42
8 -3 4 928.744 208.353 48
-8 -3 -4 664.117 246.456 43
8 -2 -6 10938.3 561.966 51
8 -2 -5 29557.1 1103.71 51
-8 -2 5 22090.4 998.386 55
8 -2 -4 4441.74 509.402 51
8 -2 -3 2109.01 413.85 51
8 -2 -3 2122.5 380.743 48
-8 -2 3 1117.27 350.746 42
8 -2 -2 7386.01 638.282 48
-8 -2 2 7304.4 872.19 29
8 -2 -1 524.147 275.563 48
-8 -2 1 145.542 361.158 29
8 -2 -1 655.044 238.882 27
8 -2 0 5617.04 597.756 48
-8 -2 0 5397.07 785.856 29
8 -2 0 4983.94 544.538 27
8 -2 1 4835.61 533.81 48
-8 -2 -1 3995.71 723.832 29
8 -2 1 3575.68 471.96 27
-8 -2 -1 3934.57 629.103 43
8 -2 2 26666.6 1126.71 48
-8 -2 -2 27696 1528.68 43
8 -2 3 17502.4 862.4 48
-8 -2 -3 17745.7 1175.45 43
-8 -2 -3 16530.3 1010.4 42
8 -2 4 161.66 174.7 48
-8 -2 -4 -87.0317 291.445 43
-8 -2 -5 4082.6 411.06 43
8 -1 -6 2791.13 330.605 51
8 -1 -5 13539.6 793.515 51
-8 -1 5 11278.1 784.66 55
8 -1 -4 9778.15 760.225 51
8 -1 -3 468.472 311.058 51
8 -1 -3 433.31 275.121 48
-8 -1 3 354.439 292.034 29
-8 -1 3 660.511 347.296 42
8 -1 -2 3954.53 512.311 51
8 -1 -2 3917.08 513.789 48
-8 -1 2 4123.83 693.603 29
-8 -1 2 3316.71 617.482 42
8 -1 -1 19909 1053.92 51
8 -1 -1 19628.4 1064.54 48
-8 -1 1 17799.1 1348.77 29
8 -1 -1 18864.9 1040.16 27
8 -1 0 3055.83 469.063 48
-8 -1 0 2776.03 668.401 29
8 -1 0 2197.25 382.283 27
8 -1 1 1524.38 363.929 48
-8 -1 -1 890.721 453.365 29
8 -1 1 1508.88 300.268 27
-8 -1 -1 1668.04 443.969 43
8 -1 2 2938.68 424.997 48
-8 -1 -2 2525.62 537.882 43
-8 -1 -2 2762.56 558.139 42
8 -1 3 1368.93 305.053 48
-8 -1 -3 1836.34 475.131 43
-8 -1 -3 1322.58 349.535 42
8 -1 4 488.559 200.226 48
-8 -1 -4 243.935 274.033 43
8 -1 5 1095.06 179.372 48
-8 -1 -5 1441.52 294.402 43
8 0 -6 778.868 210.719 51
8 0 -5 1906.11 346.776 51
-8 0 5 1344.56 330.764 55
8 0 -4 9132.64 744.374 51
8 0 -3 9824.02 743.017 48
-8 0 3 8270.85 790.095 42
8 0 -2 6250.35 627.611 51
8 0 -2 6531.24 640.139 48
-8 0 2 5800.42 765.49 29
-8 0 2 6273.75 758.028 42
8 0 -1 6291.09 593.603 51
8 0 -1 5857.95 634.643 48
-8 0 1 7071.96 892.525 29
-8 0 1 6233.53 877.08 42
8 0 0 3330.15 497.513 48
-8 0 0 3361.36 658.337 29
8 0 0 2325.43 389.007 27
-8 0 0 3823.55 725.132 42
8 0 1 -46.796 278.442 48
-8 0 -1 416.961 336.183 29
-8 0 -1 89.6518 282.897 43
-8 0 -1 369.426 466.129 42
8 0 2 1550.26 339.873 48
-8 0 -2 1704.02 428.974 43
-8 0 -2 1216.12 441.926 42
8 0 3 153.224 189.447 48
-8 0 -3 77.7109 318.093 43
-8 0 -3 -192.171 227.41 42
8 0 4 2634.83 326.41 48
-8 0 -4 3338.59 503.511 43
-8 0 -5 294.352 209.561 43
8 1 -6 2675.95 329.59 51
8 1 -5 13389.9 799.219 51
-8 1 5 12161.6 831.339 55
-8 1 5 12049.2 844.424 36
8 1 -4 10265.3 772.635 51
-8 1 4 9909.37 888.665 55
8 1 -3 530.88 287.244 51
8 1 -3 650.566 277.72 48
-8 1 3 209.837 238.601 42
-8 1 3 160.237 389.651 55
8 1 -2 4094.46 497.242 51
8 1 -2 4080.57 513.438 48
-8 1 2 3509.04 607.228 42
8 1 -1 17461.5 991.625 48
-8 1 1 18501.2 1334.74 42
8 1 0 2423.02 411.554 48
-8 1 0 2676.59 618.355 42
8 1 1 1105.59 317.568 48
-8 1 -1 1895.5 361.344 43
-8 1 -1 1439.49 489.107 42
8 1 2 2743.24 376.89 48
-8 1 -2 3007.98 517.827 43
-8 1 -2 2487.24 530.3 42
8 1 3 1650.06 276.261 48
-8 1 -3 1665.51 430.582 43
-8 1 -3 1399.72 345 42
-8 1 -4 380.711 292.775 43
-8 1 -5 1301.55 267.308 43
8 2 -6 12292.6 631.01 51
8 2 -5 29302.5 1122.46 51
-8 2 5 28658.3 1206.14 55
8 2 -4 4467.3 503.228 51
-8 2 4 4229.32 601.245 55
-8 2 4 3860.43 527.929 36
8 2 -3 1462.81 319.278 51
-8 2 3 1452.18 359.389 42
-8 2 3 2019.61 524.632 55
8 2 -2 8305.39 641.809 51
8 2 -2 6114.13 566.995 48
-8 2 2 6662.77 730.911 42
-8 2 2 7282.83 858.568 55
8 2 -1 497.435 212.136 48
-8 2 1 582.668 385.59 42
-8 2 1 705.596 439.998 55
8 2 0 4630.06 480.796 48
-8 2 0 5175.06 778.722 42
-8 2 0 6376.4 763.325 55
8 2 1 3802.99 416.928 48
-8 2 -1 5432.63 748.28 42
-8 2 -1 5974.75 652.581 55
-8 2 -2 24226.4 1207.21 43
-8 2 -2 23059.2 1275.25 42
-8 2 -3 14957.2 956.597 43
-8 2 -3 15924.4 883.795 42
-8 2 -4 70.968 192.693 43
8 3 -5 4881.34 428.675 51
8 3 -4 1797.56 304.322 51
-8 3 4 1797.47 397.723 55
-8 3 4 2043.64 351.881 36
-8 3 3 4222.81 514.42 42
-8 3 3 4212.05 596.484 55
-8 3 3 4062.06 499.188 36
8 3 -3 5375.04 498.448 51
-8 3 2 6654.54 696.304 42
-8 3 2 8696.28 860.591 55
8 3 -1 172.603 174.254 45
-8 3 1 284.104 327.129 42
-8 3 1 -64.7512 316.378 55
8 3 0 4247.29 420.735 45
-8 3 0 5116.9 682.447 42
-8 3 0 5255.18 646.254 55
8 3 1 1482.99 258.829 45
-8 3 -1 1667.72 426.507 42
8 3 2 7027.34 504.62 45
-8 3 -2 6045.24 556.946 43
-8 3 -2 6085.83 621.093 42
8 3 3 8434.47 504.245 45
-8 3 -3 8158.9 656.177 43
-8 3 -3 7907.83 553.257 42
-8 3 -4 743.054 216.219 43
-8 4 3 1124.33 261.655 42
-8 4 3 977.961 331.02 55
8 4 -2 968.523 209.892 45
-8 4 2 794.667 284.974 42
-8 4 2 1419.3 374.615 55
8 4 -1 -179.664 166.756 45
-8 4 1 35.9859 266.149 42
-8 4 1 -241.38 295.474 55
8 4 0 8317.66 554.996 45
-8 4 0 9776.48 807.22 42
8 4 1 8283.32 546.586 45
-8 4 -1 8016.95 698.129 42
8 4 2 1899.48 276.512 45
-8 4 -2 1978.38 335.148 42
8 4 3 1391.32 197.39 45
-8 5 2 2449.51 322.916 42
8 5 -1 3555.25 330.208 45
-8 5 1 3492.46 419.508 42
8 5 0 6111.4 429.472 45
-8 5 0 6131.32 552.944 42
8 5 1 8735.28 493.647 45
-8 5 -1 8667.24 605.745 42
9 -2 -2 153.682 117.63 48
9 -2 -1 4723.93 367.477 48
-9 -2 1 4253.08 459.646 42
9 -2 0 1599.45 231.388 48
-9 -2 0 1571.27 311.745 42
9 -2 1 2668.37 269.427 48
-9 -2 -1 2591.26 353.279 42
-9 -1 3 414.272 229.784 55
9 -1 -2 2719.72 293.448 48
-9 -1 2 2288.37 319.292 42
9 -1 -1 3642.12 356.43 48
-9 -1 1 3553.63 438.007 42
9 -1 0 11174.6 587.611 48
-9 -1 0 10346.9 725.882 42
9 -1 1 650.399 171.734 48
-9 -1 -1 361.366 217.707 42
-9 0 3 1725.31 319.335 55
9 0 -2 4.65301 146.027 48
-9 0 2 -11.3421 148.347 42
-9 0 2 -228.841 235.41 55
9 0 -1 356.553 153.512 48
-9 0 1 -37.5163 187.346 42
-9 0 1 -62.4954 218.399 55
9 0 0 1582.98 241.729 48
-9 0 0 1799.93 361.379 42
-9 0 0 1629.66 307.796 55
9 0 1 1631.35 227.382 48
-9 0 -1 2166.85 349.412 42
-9 1 3 292.484 191.683 55
-9 1 2 2389.49 319.882 42
-9 1 2 3377.81 433.658 55
9 1 -1 3266.52 311.066 48
-9 1 1 3222.43 410.675 42
-9 1 1 3815.85 472.565 55
9 1 0 9173.5 479.124 48
-9 1 0 10656.5 716.104 42
-9 1 0 9577.46 631.8 55
-9 1 -1 1046.41 249.689 42
-9 2 2 375.797 204.286 55
-9 2 1 3956.48 403.571 42
-9 2 1 4681.37 451.374 55
-9 2 0 1085.93 235.205 42
-9 2 -1 2508.01 318.334 42
loop_
_exptl_oxdiff_crystal_face_indexfrac_h
_exptl_oxdiff_crystal_face_indexfrac_k
_exptl_oxdiff_crystal_face_indexfrac_l
_exptl_oxdiff_crystal_face_x
_exptl_oxdiff_crystal_face_y
_exptl_oxdiff_crystal_face_z
1.0004 0.0004 0.9997 -0.2553 0.0864 0.0298
0.9993 1.9995 -2.0005 0.1011 -0.0240 0.4983
0.0003 -1.0001 0.0001 -0.0529 -0.1177 -0.1125
1.9999 -1.0020 -5.0004 0.0212 -0.7515 0.5153
-0.9999 0.0007 2.0003 0.0047 0.2593 -0.2733
-1.0004 -0.0004 -0.9997 0.2553 -0.0864 -0.0298
-1.0007 0.9998 -0.9999 0.3082 0.0313 0.0827
-4.0006 1.0013 3.0009 0.4894 0.5788 -0.5749
-0.0004 2.0006 0.9998 0.0222 0.3505 0.1438
0.0002 0.0004 1.0000 -0.0835 0.1152 -0.0812
5.0010 -1.0009 -2.0012 -0.7448 -0.4924 0.6046
1.0007 -0.9998 0.9999 -0.3082 -0.0313 -0.0827
