#------------------------------------------------------------------------------
#$Date: 2021-02-04 02:53:14 +0200 (Thu, 04 Feb 2021) $
#$Revision: 261473 $
#$URL: file:///home/coder/svn-repositories/cod/cif/4/13/56/4135603.cif $
#------------------------------------------------------------------------------
#
# This file is available in the Crystallography Open Database (COD),
# http://www.crystallography.net/
#
# All data on this site have been placed in the public domain by the
# contributors.
#
data_4135603
loop_
_publ_author_name
'Benz, Maximilian'
'Klap\"otke, Thomas M'
'Krumm, Burkhard'
'Lommel, Marcus'
'Stierstorfer, J\"org'
_publ_section_title
;
 Nitrocarbamoyl Azide O<sub>2</sub>NN(H)C(O)N<sub>3</sub>: A Stable but
 Highly Energetic Member of the Carbonyl Azide Family.
;
_journal_issue                   3
_journal_name_full               'Journal of the American Chemical Society'
_journal_page_first              1323
_journal_page_last               1327
_journal_paper_doi               10.1021/jacs.0c12507
_journal_volume                  143
_journal_year                    2021
_chemical_formula_moiety         'C N5 O3, K'
_chemical_formula_sum            'C K N5 O3'
_chemical_formula_weight         169.16
_chemical_name_common            'potassium nitro-carbamoyl-azide'
_chemical_name_systematic
;
potassium nitro-carbamoyl-azide
;
_space_group_IT_number           14
_space_group_name_Hall           '-P 2yn'
_space_group_name_H-M_alt        'P 1 21/n 1'
_symmetry_cell_setting           monoclinic
_symmetry_Int_Tables_number      14
_symmetry_space_group_name_Hall  '-P 2yn'
_symmetry_space_group_name_H-M   'P 1 21/n 1'
_audit_creation_date
;
'Wed Feb 08 14:52:38 2017'
;
_audit_creation_method           SHELXL-2013
_cell_angle_alpha                90
_cell_angle_beta                 97.155(5)
_cell_angle_gamma                90
_cell_formula_units_Z            4
_cell_length_a                   6.8957(4)
_cell_length_b                   11.5328(5)
_cell_length_c                   7.0382(3)
_cell_measurement_reflns_used    1672
_cell_measurement_temperature    173(2)
_cell_measurement_theta_max      32.2820
_cell_measurement_theta_min      4.5790
_cell_volume                     555.37(5)
_computing_cell_refinement
;
CrysAlisPro, Agilent Technologies,
Version 1.171.37.33 (release 27-03-2014 CrysAlis171 .NET)
(compiled Mar 27 2014,17:12:48)
;
_computing_data_collection
;
CrysAlisPro, Agilent Technologies,
Version 1.171.37.33 (release 27-03-2014 CrysAlis171 .NET)
(compiled Mar 27 2014,17:12:48)
;
_computing_data_reduction
;
CrysAlisPro, Agilent Technologies,
Version 1.171.37.33 (release 27-03-2014 CrysAlis171 .NET)
(compiled Mar 27 2014,17:12:48)
;
_computing_structure_refinement  'SHELXL-2013 (Sheldrick, 2013)'
_diffrn_ambient_temperature      173(2)
_diffrn_detector                 'CCD plate'
_diffrn_detector_area_resol_mean 15.9809
_diffrn_detector_type            Sapphire3
_diffrn_measured_fraction_theta_full 0.996
_diffrn_measured_fraction_theta_max 0.996
_diffrn_measurement_details
;
#__ type_ start__ end____ width___ exp.time_
  1 omega  -25.00   66.00   1.0000   12.0000
omega____ theta____ kappa____ phi______ frames
    -       29.7932  -99.0000   60.0000 91

#__ type_ start__ end____ width___ exp.time_
  2 omega  -23.00   75.00   1.0000   12.0000
omega____ theta____ kappa____ phi______ frames
    -       29.7932  -99.0000  -90.0000 98

#__ type_ start__ end____ width___ exp.time_
  3 omega   32.00   68.00   1.0000   12.0000
omega____ theta____ kappa____ phi______ frames
    -       29.7932 -179.0000 -180.0000 36

#__ type_ start__ end____ width___ exp.time_
  4 omega  -95.00  -36.00   1.0000   12.0000
omega____ theta____ kappa____ phi______ frames
    -      -28.6994  -57.0000  -30.0000 59

#__ type_ start__ end____ width___ exp.time_
  5 omega  -97.00  -55.00   1.0000   12.0000
omega____ theta____ kappa____ phi______ frames
    -      -28.6994  -77.0000  -60.0000 42

#__ type_ start__ end____ width___ exp.time_
  6 omega   37.00   91.00   1.0000   12.0000
omega____ theta____ kappa____ phi______ frames
    -       29.7932   57.0000 -150.0000 54

#__ type_ start__ end____ width___ exp.time_
  7 omega   35.00  110.00   1.0000   12.0000
omega____ theta____ kappa____ phi______ frames
    -       29.7932  179.0000 -120.0000 75

;
_diffrn_measurement_device       'four-circle diffractometer'
_diffrn_measurement_device_type  'Xcalibur, Sapphire3'
_diffrn_measurement_method       '\w scans'
_diffrn_orient_matrix_UB_11      0.0505942000
_diffrn_orient_matrix_UB_12      0.0408220000
_diffrn_orient_matrix_UB_13      -0.0508907000
_diffrn_orient_matrix_UB_21      0.0239087000
_diffrn_orient_matrix_UB_22      0.0324652000
_diffrn_orient_matrix_UB_23      0.0852548000
_diffrn_orient_matrix_UB_31      0.0873472000
_diffrn_orient_matrix_UB_32      -0.0325668000
_diffrn_orient_matrix_UB_33      0.0212301000
_diffrn_radiation_monochromator  graphite
_diffrn_radiation_probe          x-ray
_diffrn_radiation_type           MoK\a
_diffrn_radiation_wavelength     0.71069
_diffrn_reflns_av_R_equivalents  0.0294
_diffrn_reflns_av_sigmaI/netI    0.0555
_diffrn_reflns_av_unetI/netI     0.0276
_diffrn_reflns_Laue_measured_fraction_full 0.996
_diffrn_reflns_Laue_measured_fraction_max 0.996
_diffrn_reflns_limit_h_max       8
_diffrn_reflns_limit_h_min       -8
_diffrn_reflns_limit_k_max       14
_diffrn_reflns_limit_k_min       -14
_diffrn_reflns_limit_l_max       8
_diffrn_reflns_limit_l_min       -7
_diffrn_reflns_number            4095
_diffrn_reflns_point_group_measured_fraction_full 0.996
_diffrn_reflns_point_group_measured_fraction_max 0.996
_diffrn_reflns_theta_full        25.240
_diffrn_reflns_theta_max         25.991
_diffrn_reflns_theta_min         4.283
_diffrn_source                   'Enhance (Mo) X-ray Source'
_exptl_absorpt_coefficient_mu    0.905
_exptl_absorpt_correction_T_max  1.00000
_exptl_absorpt_correction_T_min  0.98296
_exptl_absorpt_correction_type   multi-scan
_exptl_absorpt_process_details
;
CrysAlisPro, Agilent Technologies,
Version 1.171.37.33 (release 27-03-2014 CrysAlis171 .NET)
(compiled Mar 27 2014,17:12:48)
Empirical absorption correction using spherical harmonics,
 implemented in SCALE3 ABSPACK scaling algorithm.
;
_exptl_crystal_colour            colorless
_exptl_crystal_density_diffrn    2.023
_exptl_crystal_description       block
_exptl_crystal_F_000             336
_exptl_crystal_size_max          0.288
_exptl_crystal_size_mid          0.193
_exptl_crystal_size_min          0.102
_refine_diff_density_max         0.235
_refine_diff_density_min         -0.343
_refine_diff_density_rms         0.061
_refine_ls_extinction_method     none
_refine_ls_goodness_of_fit_ref   1.064
_refine_ls_hydrogen_treatment    undef
_refine_ls_matrix_type           full
_refine_ls_number_parameters     91
_refine_ls_number_reflns         1092
_refine_ls_number_restraints     0
_refine_ls_restrained_S_all      1.064
_refine_ls_R_factor_all          0.0312
_refine_ls_R_factor_gt           0.0255
_refine_ls_shift/su_max          0.001
_refine_ls_shift/su_mean         0.000
_refine_ls_structure_factor_coef Fsqd
_refine_ls_weighting_details
'w=1/[\s^2^(Fo^2^)+(0.0304P)^2^+0.0649P] where P=(Fo^2^+2Fc^2^)/3'
_refine_ls_weighting_scheme      calc
_refine_ls_wR_factor_gt          0.0593
_refine_ls_wR_factor_ref         0.0623
_reflns_Friedel_coverage         0.000
_reflns_number_gt                956
_reflns_number_total             1092
_reflns_threshold_expression     'I > 2\s(I)'
_cod_data_source_file            ja0c12507_si_001.cif
_cod_data_source_block           mx055
_cod_database_code               4135603
_shelx_space_group_comment
;
The symmetry employed for this shelxl refinement is uniquely defined
by the following loop, which should always be used as a source of
symmetry information in preference to the above space-group names.
They are only intended as comments.
;
_shelx_estimated_absorpt_t_min   0.781
_shelx_estimated_absorpt_t_max   0.913
_shelxl_version_number           2013-4
_shelx_res_file
;
TITL v1 in P2(1)/n
CELL  0.71069   6.895660  11.532833   7.038215  90.0000  97.1545  90.0000
ZERR     4.00   0.000425   0.000536   0.000347   0.0000   0.0049   0.0000
LATT   1
SYMM  1/2 - X, 1/2 + Y, 1/2 - Z
SFAC  C    N    O    K
UNIT  4    20   12   4
MERG   2
OMIT    -2.00  52.00
FMAP   2
PLAN   25
SIZE     0.102   0.193   0.288
ACTA
BOND   $H
CONF
LIST   1
L.S.   4
TEMP  -100.00
WGHT    0.030400    0.064900
FVAR       0.80619
K1    4    0.497664    0.177584    1.097376    11.00000    0.02440    0.01824 =
         0.01734   -0.00066    0.00677   -0.00338
O3    3    0.288944    0.211684    0.413846    11.00000    0.02566    0.03185 =
         0.01528    0.00176   -0.00032    0.01093
O2    3    0.328723    0.176376    0.716379    11.00000    0.02222    0.03649 =
         0.01481    0.00150    0.00750    0.00604
C1    1    0.675427    0.081760    0.675892    11.00000    0.01934    0.01256 =
         0.01557   -0.00556    0.00322   -0.00153
O1    3    0.622657    0.032293    0.812474    11.00000    0.02371    0.01825 =
         0.01744    0.00358    0.00589   -0.00059
N5    2    0.393658    0.177699    0.560951    11.00000    0.01958    0.01665 =
         0.01629   -0.00134    0.00368    0.00050
N2    2    0.972527    0.001885    0.734402    11.00000    0.02269    0.02613 =
         0.01936   -0.00385    0.00497    0.00269
N1    2    0.870933    0.071960    0.626897    11.00000    0.01794    0.02457 =
         0.02179    0.00717    0.00453    0.00551
N4    2    0.578415    0.149333    0.534747    11.00000    0.01795    0.02026 =
         0.01745    0.00260    0.00550    0.00402
N3    2    1.075196   -0.059168    0.818695    11.00000    0.03561    0.03998 =
         0.02651    0.00225   -0.00130    0.01525
HKLF    4

REM  v1 in P2(1)/n
REM R1 =  0.0255 for     956 Fo > 4sig(Fo)  and  0.0312 for all    1092 data
REM     91 parameters refined using      0 restraints

END

WGHT      0.0304      0.0649

REM Highest difference peak  0.235,  deepest hole -0.343,  1-sigma level  0.061
Q1    1   0.6139  0.0932  0.6001  11.00000  0.05    0.23
Q2    1   0.6233  0.0186  0.7157  11.00000  0.05    0.20
Q3    1   0.6379 -0.0466  0.8128  11.00000  0.05    0.19
Q4    1   0.8839  0.1537  0.5835  11.00000  0.05    0.17
Q5    1   0.2136  0.2208  0.3720  11.00000  0.05    0.17
Q6    1   0.7828  0.0969  0.6713  11.00000  0.05    0.17
Q7    1   0.4113  0.2162  0.8140  11.00000  0.05    0.17
Q8    1   0.4408  0.1582  1.2540  11.00000  0.05    0.16
Q9    1   0.5645  0.0049  0.9483  11.00000  0.05    0.16
Q10   1   1.1781 -0.1439  0.9881  11.00000  0.05    0.16
Q11   1   0.8692  0.1234  0.7188  11.00000  0.05    0.16
Q12   1   0.8506  0.0986  0.5430  11.00000  0.05    0.15
Q13   1   1.1629 -0.1447  0.6224  11.00000  0.05    0.15
Q14   1   0.1552  0.1585  0.6994  11.00000  0.05    0.15
Q15   1   0.2467  0.2971  0.2592  11.00000  0.05    0.15
Q16   1   0.6507  0.0394  0.8748  11.00000  0.05    0.15
Q17   1   0.1239  0.1635  0.3291  11.00000  0.05    0.15
Q18   1   0.9290  0.1962  0.7628  11.00000  0.05    0.14
Q19   1   0.2637  0.3017  0.4381  11.00000  0.05    0.14
Q20   1   0.5100  0.0628  0.4778  11.00000  0.05    0.14
Q21   1   1.0063  0.1356  0.6637  11.00000  0.05    0.14
Q22   1   0.5968 -0.0149  0.9794  11.00000  0.05    0.14
Q23   1   0.7732  0.0193  0.5153  11.00000  0.05    0.14
Q24   1   0.5961  0.1992  0.4842  11.00000  0.05    0.14
Q25   1   0.6496  0.0765  0.7686  11.00000  0.05    0.14
;
_shelx_res_checksum              37308
_shelx_hkl_file
;
   0   0   2  252.77    9.13
   0   0   2  248.09    8.50
   0   0   2  258.14    6.67
   0   0   3    2.01    2.06
   0   0  -3    0.08    0.48
   0   0   4  444.09   16.37
   0   0  -4  441.76    9.71
   0   0   5    2.17    3.25
   0   0   5    0.69    2.36
   0   0  -5    1.53    0.78
   0   0   6  466.95   21.26
   0   0   6  481.44   21.35
   0   0   7   -1.04    2.74
   0   0   7   -2.64    2.09
   0   0   8   66.34    9.26
   0   0   8   52.31    8.74
   0   0   8   58.81    9.37
   0   0   9   -4.05    4.51
   0   0   9    0.48    1.60
   0   0   9    0.81    2.42
   0   0  10  127.69   15.39
   0   1   2 3411.46   20.81
   0  -1   2 3393.09   28.38
   0   1   2 3500.86   34.23
   0  -1   2 3466.16   33.52
   0  -1  -3  175.20    7.05
   0   1   3  169.46    9.36
   0  -1   3  177.07    9.54
   0   1   3  185.71    6.13
   0  -1   3  186.76    8.56
   0   1  -4   94.33    2.94
   0  -1  -4   99.70    5.73
   0  -1   4  114.56    8.13
   0   1   4  101.69    8.31
   0  -1   5   21.47    4.47
   0  -1   5   15.81    4.48
   0  -1  -5   10.93    2.07
   0   1   5   19.95    5.22
   0  -1   6    9.43    3.71
   0   1   6   12.02    4.73
   0  -1   6   12.42    4.15
   0   1   6   10.27    3.93
   0  -1   6    9.70    4.08
   0  -1   7    2.39    3.24
   0   1   7   -0.27    3.48
   0   1   7    5.12    3.61
   0  -1   7    0.38    2.06
   0  -1   7    4.63    3.15
   0  -1   8   92.19   10.97
   0   1   8   91.74   11.13
   0   1   8   81.81   11.15
   0  -1   8   88.63   11.53
   0  -1   8   77.79    9.70
   0   1   8  106.55   12.07
   0   1   9   -0.99    2.18
   0   1   9   -2.08    2.50
   0  -1   9   -8.04    3.96
   0   1   9   -1.31    2.84
   0  -1   9   -3.65    3.32
   0  -1  10    4.39    3.46
   0   1  10   -1.85    2.80
   0   1  10   -1.45    2.54
   0  -2   1  318.92    8.50
   0  -2   1  330.11    6.20
   0  -2   1  312.03    7.12
   0   2   1  319.78    8.75
   0   2   1  330.40    8.52
   0  -2   2 3315.04   25.04
   0   2   2 3262.69   35.38
   0   2   2 3293.66   20.98
   0  -2  -2 3216.93   31.35
   0  -2   2 3202.30   32.51
   0  -2   2 3219.81   24.08
   0   2   3  648.48   18.86
   0  -2   3  625.70   14.56
   0   2   3  650.78   10.69
   0  -2  -3  669.40   15.64
   0  -2   3  666.03   18.24
   0  -2   3  621.11   14.29
   0   2   4  223.95   12.89
   0   2   4  206.42    6.88
   0  -2   4  215.11   12.32
   0  -2   4  227.83   10.46
   0  -2  -4  212.97    9.57
   0  -2   4  216.35    9.95
   0  -2   5   25.10    4.19
   0  -2   5   25.78    5.22
   0   2   5   24.55    5.88
   0  -2  -5   21.17    3.31
   0  -2   5   25.33    4.49
   0  -2   6  678.42   22.94
   0  -2   6  686.53   23.60
   0   2   6  696.96   24.72
   0   2   6  706.27   27.47
   0  -2   6  683.35   26.91
   0  -2  -6  671.46   18.68
   0   2   7  453.97   21.93
   0  -2   7  465.76   20.96
   0   2   7  444.91   23.69
   0  -2   7  469.11   21.61
   0  -2   7  436.62   23.55
   0  -2   8    0.11    2.39
   0   2   8   -1.11    2.19
   0  -2   8    3.68    2.59
   0   2   8   -2.47    3.77
   0  -2   8   -3.42    2.39
   0   2   9   90.88   12.35
   0   2   9  105.33   12.45
   0  -2   9   99.04   13.35
   0   2   9  114.04   14.35
   0   2  10   35.29    8.68
   0  -2  10   14.15    5.44
   0   2  10   33.86    7.84
   0   3   0    2.59    1.01
   0   3   0    1.39    1.35
   0  -3   0    1.53    0.66
   0  -3   0    3.64    1.45
   0  -3  -1  186.14    7.98
   0   3   1  184.30    7.29
   0  -3   1  184.66    5.58
   0   3   1  190.58    7.56
   0  -3   1  178.74    6.15
   0  -3   1  183.54    7.10
   0  -3  -2  755.66   17.47
   0  -3   2  751.73   15.84
   0  -3   2  773.67   18.08
   0  -3   2  803.85   10.62
   0  -3   2  766.02    9.66
   0   3   2  767.47   18.42
   0  -3   3    8.98    1.84
   0  -3   3    8.88    3.00
   0  -3  -3    8.45    2.43
   0  -3   3    8.06    2.54
   0  -3   3    7.71    1.64
   0   3   3   11.91    3.76
   0   3   3    9.23    1.41
   0   3   4   11.77    1.65
   0  -3   4   10.28    2.17
   0  -3   4   11.03    3.43
   0  -3  -4   13.98    2.89
   0   3   4   14.24    4.24
   0  -3   4    9.45    2.31
   0  -3   4   15.38    4.18
   0  -3   5 1172.82   25.84
   0  -3  -5 1119.50   25.63
   0   3   5 1111.11   16.15
   0  -3   5 1144.60   32.65
   0   3   5 1138.56   32.89
   0  -3   5 1072.38   24.89
   0   3   6    8.11    4.41
   0   3   6    8.25    2.84
   0  -3   6    4.87    3.52
   0  -3  -6    4.93    2.31
   0  -3   6    7.25    2.85
   0  -3   6    6.84    2.50
   0   3   7   10.81    3.88
   0  -3   7   13.44    5.08
   0  -3   7   11.74    3.35
   0   3   7   15.07    5.39
   0  -3   7   12.43    3.39
   0   3   8   21.29    5.33
   0   3   8   22.74    6.51
   0  -3   8   23.81    6.56
   0   3   9  191.56   19.02
   0  -3   9  189.49   18.75
   0  -3  10   -9.55    4.88
   0   3  10   -4.37    3.50
   0  -4   0    4.61    1.02
   0   4   0    6.65    2.29
   0  -4   0    3.44    1.71
   0   4   0    5.99    1.39
   0  -4   1  763.83   11.48
   0   4   1  748.63   17.02
   0  -4   1  775.74   15.66
   0  -4   1  762.38   15.26
   0  -4  -1  782.26   18.36
   0   4   1  813.50   16.54
   0  -4   2  585.11   11.77
   0  -4   2  591.69   16.48
   0  -4  -2  594.84   17.07
   0  -4   2  572.52   13.92
   0   4   2  580.08   17.05
   0   4   3 1861.19   21.73
   0  -4   3 1878.71   34.07
   0  -4   3 1871.50   16.79
   0  -4   3 1803.94   30.49
   0   4   3 1907.00   35.43
   0  -4  -3 1817.06   32.05
   0  -4   3 1887.70   19.38
   0   4   4   42.79    3.22
   0  -4   4   40.79    3.89
   0   4   4   45.95    6.79
   0  -4   4   41.90    6.26
   0  -4  -4   41.74    5.37
   0  -4   4   43.64    5.68
   0  -4   4   46.56    4.34
   0  -4   5  231.81   15.25
   0  -4   5  234.16   10.94
   0   4   5  228.56   15.66
   0  -4   5  226.89   10.95
   0  -4  -5  223.80   12.51
   0  -4   6    1.67    1.60
   0   4   6    5.87    2.56
   0  -4   6    2.89    1.60
   0  -4   6    3.15    3.74
   0   4   6   11.20    5.00
   0  -4  -6    5.70    2.27
   0   4   7  414.11   19.86
   0   4   7  414.39   24.43
   0  -4   7  427.37   24.38
   0  -4   8   -1.24    3.62
   0   4   8    0.01    3.81
   0   4   9   98.38   14.24
   0  -4   9   97.43   13.56
   0  -5   0    0.13    0.54
   0   5   0   -0.02    0.85
   0   5   0    1.84    1.64
   0  -5   0    1.20    1.47
   0  -5   1  139.50    7.52
   0  -5   1  127.92    4.79
   0   5   1  139.49    7.49
   0  -5   1  128.12    6.86
   0  -5  -1  140.44    8.75
   0   5   1  143.55    8.41
   0  -5   2  786.49   19.97
   0   5   2  763.33   20.48
   0  -5   2  779.63   16.04
   0  -5  -2  793.41   21.82
   0  -5   2  777.15   16.11
   0   5   2  799.17   20.56
   0  -5  -3  208.47   11.92
   0   5   3  214.43   12.53
   0  -5   3  204.91   11.92
   0   5   3  212.18    8.59
   0  -5   3  218.11    7.36
   0  -5   3  207.31   10.30
   0   5   4  470.01   20.71
   0   5   4  439.17   11.44
   0  -5   4  429.26   17.41
   0  -5  -4  441.55   18.16
   0  -5   4  458.34   19.68
   0   5   5  157.18   13.32
   0  -5   5  181.96   13.91
   0  -5   5  163.37    8.98
   0  -5  -5  186.68   12.24
   0   5   5  185.24   10.06
   0   5   6   65.60    9.83
   0   5   6   50.63    6.01
   0  -5   6   52.82    8.28
   0  -5  -6   49.46    6.68
   0   5   7   50.81    8.93
   0  -5   7   61.42    9.66
   0   5   8  103.51   13.90
   0  -5   8  111.41   14.03
   0  -5   9    6.44    4.44
   0   5   9    1.61    4.47
   0   6   0 2634.13   39.69
   0  -6   0 2619.89   26.73
   0   6   0 2771.65   27.94
   0  -6   0 2682.26   38.76
   0  -6  -1    2.92    2.18
   0  -6   1    0.23    1.04
   0   6   1   -0.18    1.88
   0   6   1    1.91    1.99
   0   6  -1    0.56    2.38
   0  -6   1    0.99    0.69
   0  -6   1    0.78    1.29
   0  -6   2   83.93    6.90
   0  -6  -2   83.98    7.91
   0   6   2   78.92    7.07
   0  -6   2   76.23    5.73
   0  -6   2   77.19    5.24
   0   6   2   78.06    7.27
   0  -6   3  569.02   13.98
   0  -6   3  541.26   19.78
   0   6   3  518.44   20.30
   0  -6   3  541.64   16.67
   0  -6  -3  557.83   20.70
   0   6   4   25.36    6.00
   0  -6   4   27.03    5.36
   0  -6  -4   23.81    4.84
   0  -6   4   15.60    3.55
   0   6   4   19.38    2.81
   0  -6  -5   17.47    4.72
   0  -6   5   17.77    4.61
   0   6   5   18.27    5.72
   0  -6  -6  690.65   26.61
   0   6   6  661.14   29.98
   0  -6   6  675.57   29.77
   0  -6  -7   52.59    7.48
   0   6   7   34.89    7.88
   0  -6   7   30.09    7.14
   0  -6   8   -2.93    4.24
   0   6   8    2.81    4.14
   0  -6   9    7.06    4.09
   0   6   9    4.04    4.38
   0  -7   0    1.52    0.92
   0   7   0    3.91    2.76
   0  -7   0    2.67    2.22
   0  -7   0   -0.51    0.37
   0   7   0    0.13    1.04
   0   7  -1   41.02    5.74
   0  -7  -1   36.18    5.35
   0  -7   1   37.85    4.18
   0  -7   1   37.40    4.77
   0   7   1   47.02    5.41
   0   7   1   43.58    5.79
   0  -7   1   46.49    2.86
   0  -7   2  829.37   20.78
   0   7   2  854.01   23.84
   0   7   2  888.00   25.53
   0  -7   2  837.52   22.53
   0  -7   2  866.15   16.83
   0  -7  -2  836.97   26.11
   0  -7   3   97.05    7.06
   0  -7  -3   96.47    9.36
   0  -7   3  104.00    9.06
   0   7   3   90.38    9.50
   0  -7   3   99.41    6.72
   0  -7  -4  565.09   23.54
   0  -7   4  540.14   22.75
   0   7   4  564.52   16.10
   0   7   4  522.25   23.40
   0  -7   5  156.44   13.40
   0  -7  -5  174.02   13.70
   0   7   5  147.72   13.87
   0  -7  -6    8.53    3.86
   0  -7   6    4.94    3.30
   0   7   6   12.68    5.64
   0  -7  -7    5.86    3.12
   0   7   7   -0.16    4.64
   0  -7   7    4.89    3.64
   0   7   8  271.88   23.30
   0  -7   8  244.08   21.26
   0   7   9   -5.76    5.79
   0  -7   9    0.49    1.73
   0   8   0 2288.21   43.00
   0  -8   0 2299.25   41.91
   0   8   0 2265.25   29.17
   0  -8   0 2215.75   28.34
   0   8   1   18.07    4.62
   0   8  -1   18.86    4.98
   0  -8   1   18.56    3.18
   0   8   1   24.69    4.17
   0  -8   1   20.24    1.80
   0  -8   1   27.74    4.81
   0  -8  -1   28.50    5.28
   0  -8   2   36.35    5.02
   0   8   2   35.25    5.46
   0  -8  -2   42.17    6.64
   0   8   2   33.89    5.70
   0  -8   2   33.95    3.25
   0  -8   2   36.02    4.94
   0  -8  -3   28.67    5.78
   0  -8   3   20.52    4.33
   0  -8   3   25.56    3.89
   0   8   3   28.79    6.05
   0  -8  -4  536.32   24.00
   0  -8   4  555.27   23.77
   0   8   4  509.96   23.70
   0  -8  -5  119.48   11.80
   0   8   5  115.71   12.59
   0  -8   5  115.29   11.88
   0  -8  -6   98.27   11.31
   0   8   6   89.99   11.73
   0  -8   6   97.35   11.77
   0   8   7   86.31   12.91
   0  -8  -7   88.47   10.92
   0  -8   7   60.39   10.13
   0  -8   8    2.85    2.78
   0   8   8   23.18    7.38
   0   9   0   -0.40    2.89
   0  -9   0    0.99    2.04
   0   9   0    1.25    1.29
   0  -9   0   -0.09    0.81
   0   9   1  153.58   12.27
   0   9  -1  159.91   12.84
   0  -9   1  143.82    8.98
   0  -9   1  147.35   11.00
   0  -9  -1  135.16   11.33
   0   9   1  134.61    9.20
   0  -9  -2  614.37   25.37
   0   9   2  613.60   22.03
   0   9  -2  604.23   25.27
   0  -9   2  639.28   21.63
   0   9   2  637.41   24.64
   0  -9   2  607.43   20.78
   0  -9   3  110.09    8.44
   0   9   3  107.52   10.50
   0  -9  -3  113.74   11.63
   0  -9   3  106.25    9.68
   0  -9   4   43.31    7.16
   0   9   4   37.60    7.36
   0  -9  -4   55.41    8.49
   0   9   5  192.50   16.39
   0  -9  -5  170.40   15.05
   0  -9   5  175.56   15.25
   0  -9  -6    2.39    2.52
   0   9   6   -0.55    3.79
   0  -9  -7   19.85    5.46
   0  -9   7   19.29    5.73
   0   9   7   28.04    8.55
   0   9   8   31.63    8.84
   0  -9   8   38.63    9.05
   0  10   0   15.79    4.68
   0 -10   0   14.03    3.97
   0 -10  -1   11.92    4.31
   0  10   1   14.95    4.64
   0 -10   1   19.93    3.67
   0  10  -1   16.05    4.92
   0 -10   1   11.41    3.50
   0  10   1   14.75    3.44
   0  10  -2   11.06    4.67
   0  10   2    7.76    3.17
   0 -10   2    8.22    3.18
   0 -10  -2    8.55    3.91
   0  10   2   10.16    3.93
   0 -10   2    6.33    2.34
   0  10   3   99.55   10.86
   0 -10   3   87.99    9.20
   0  10   3   67.62    8.63
   0 -10  -3   88.72   10.60
   0 -10   3   88.71    8.35
   0  10  -3   88.06   10.85
   0  10   4    2.38    3.87
   0 -10   4    5.16    3.13
   0 -10  -4    6.26    3.70
   0  10   5    1.74    3.64
   0 -10   5    3.95    3.15
   0 -10  -5    6.08    3.87
   0 -10  -6   99.87   12.71
   0 -10   6   90.86   12.13
   0  10   6   77.44   11.87
   0 -10  -7   80.02   11.45
   0  10   7   82.78   12.92
   0 -10   7   86.88   12.67
   0  10   8    1.12    4.68
   0 -10   8    3.49    3.26
   0 -11   0   -0.47    3.12
   0  11   0    2.76    3.58
   0 -11  -1   83.75   10.13
   0  11   1   95.72   10.68
   0  11  -1   88.10   10.88
   0 -11   1   76.36    9.07
   0  11   2  460.51   20.58
   0 -11   2  503.09   21.95
   0  11   2  469.20   23.92
   0 -11  -2  463.01   24.37
   0 -11   2  491.16   20.03
   0  11  -2  470.03   25.10
   0  11   3   51.16    7.76
   0 -11   3   45.61    6.32
   0 -11  -3   52.73    8.99
   0 -11   3   52.95    7.40
   0  11   3   58.54    9.08
   0  11  -3   59.18    9.47
   0 -11   4    3.57    1.71
   0  11  -4    1.45    3.64
   0 -11  -4   -1.02    2.90
   0  11   4    2.05    2.95
   0  11   5  399.10   24.91
   0 -11   5  480.99   26.02
   0 -11  -5  449.58   26.89
   0 -11  -6    6.55    3.94
   0  11   6    0.40    3.27
   0 -11   6    2.40    2.33
   0  11   7   -3.84    5.79
   0 -11  -7    4.62    4.05
   0 -11   7    3.63    3.52
   0  12   0  411.33   23.74
   0 -12   0  409.00   22.79
   0 -12  -1    2.10    2.79
   0  12   1    2.74    3.59
   0 -12   1   -0.88    2.28
   0  12  -1    2.52    3.53
   0 -12   2   -0.71    1.34
   0 -12  -2    3.38    3.06
   0  12  -2   -0.13    3.93
   0  12   2    1.06    2.64
   0 -12   3  239.94   16.01
   0  12   3  220.74   16.18
   0  12   3  239.39   18.47
   0  12  -3  255.46   20.22
   0 -12  -3  248.17   19.74
   0  12   4   17.14    5.76
   0 -12   4   20.37    5.28
   0 -12  -4   13.10    5.46
   0  12  -4   17.80    6.51
   0 -12  -5   -2.77    3.37
   0  12  -5    0.80    2.72
   0  12   5   -2.33    3.01
   0 -12   5   -0.57    2.07
   0 -12   6   51.47    9.57
   0  12   6   40.73    9.40
   0 -12  -6   57.77   10.41
   0  12   7   40.23    9.55
   0 -12   7   66.00   11.42
   0 -12  -7   62.69   11.23
   0 -13   0    1.74    2.75
   0  13   0   -1.31    3.74
   0  13   1  148.52   15.15
   0  13  -1  112.71   13.54
   0 -13  -1  117.48   13.38
   0 -13   1  121.56   12.87
   0 -13   2  256.88   17.69
   0  13   2  224.71   18.76
   0  13  -2  267.37   21.17
   0 -13  -2  269.28   20.69
   0  13  -3   65.07   11.21
   0  13   3   53.12    9.26
   0 -13  -3   59.46   10.36
   0 -13  -4  145.00   16.52
   0  13   4  122.06   13.47
   0  13  -4  140.96   16.38
   0 -13   5   -0.70    1.90
   0  13  -5    3.16    3.94
   0  13   5   -3.91    3.93
   0 -13  -5   -6.30    5.89
   0 -13  -6   16.18    6.70
   0  13   6    5.02    3.83
   0 -13   6   12.27    4.82
   0  13  -6    9.78    5.70
   0  14   0   84.39   12.12
   0 -14   0   81.31   11.41
   0 -14   1   29.03    6.83
   0  14  -1   37.06    8.24
   0 -14  -1   28.99    7.52
   0  14   1   31.70    7.73
   0  14  -2   19.80    6.39
   0  14   2   16.31    5.77
   0 -14  -2   16.04    5.94
   0 -14   2   14.47    4.98
   0  14   3   -1.54    3.78
   0  14  -3   -2.56    3.84
   0 -14  -3    0.36    2.58
   0 -14  -4   49.35   10.17
   0  14  -4   65.53   11.87
   0  14  -5  -11.44    5.67
   0 -14  -5   -8.54    4.81
   0  14   6   39.87    9.70
   0  15   0    5.63    4.31
   0 -15   0   -5.67    3.97
   0 -15  -1   47.60    9.20
   0  15  -1   64.15   11.56
   0 -15   1   35.85    7.97
   0  15   1   52.30    9.74
   0  15  -2   92.63   13.73
   0 -15  -2   79.65   12.42
   0  15   2   87.49   12.98
   0  15  -3   31.51    8.58
   0 -15  -3   24.91    7.39
   0  15  -4   76.94   13.08
   0 -15  -4   74.72   12.74
   0 -16   0   14.98    5.58
   0  16   0   27.40    7.47
   0 -16  -1   62.39   11.20
   0 -16   1   45.88    9.43
   0  16  -1   41.81   10.39
   0  16   1   39.53    9.10
   0  16   2   -1.62    3.76
   0  16  -2    3.30    3.33
   0 -16  -2    0.13    3.65
   0 -17   0   -6.80    4.33
   0 -17   1   60.79   11.07
  -1   0  10   -5.94    3.72
  -1   0   9  324.33   22.61
  -1   0   9  354.33   24.17
  -1   0   8   -2.61    3.25
  -1   0   8    2.63    2.10
  -1   0   7   17.59    5.18
  -1   0   6   -2.17    4.30
  -1   0   6    1.12    3.07
  -1   0   5  484.10   21.04
  -1   0   5  464.89   18.98
   1   0  -5  438.70   10.36
   1   0  -4   -0.09    0.54
  -1   0   4    0.04    2.62
   1   0  -3 2358.14   21.70
  -1   0   3 2500.30   35.72
   1   0  -2   -0.27    0.62
  -1   0   2    0.09    1.38
   1   0   1 1313.37   16.64
   1   0   1 1313.21   17.25
   1   0   1 1328.09   17.10
   1   0   2    1.22    1.09
   1   0   2    0.75    1.39
   1   0   2   -0.94    1.76
   1   0   2    0.47    0.98
   1   0   3   -0.58    1.06
   1   0   3    0.00    1.44
   1   0   3    0.35    1.77
   1   0   3    0.46    1.43
   1   0   4   -3.64    2.71
   1   0   4    0.13    1.62
   1   0   4    1.42    1.90
   1   0   4    0.37    1.18
   1   0   5 1340.06   32.52
   1   0   5 1281.60   31.81
   1   0   5 1311.53   27.30
   1   0   5 1395.76   33.63
   1   0   6    1.39    2.19
   1   0   6   -0.63    1.92
   1   0   6   -1.12    3.34
   1   0   7    0.92    2.61
   1   0   7    4.21    2.92
   1   0   7    5.78    3.68
   1   0   8   -1.51    2.63
   1   0   8    2.21    2.49
   1   0   8    1.43    2.52
   1   0   9  189.75   17.23
   1   0   9  183.92   17.26
   1   0  10    0.83    1.49
  -1  -1  10   29.91    8.15
  -1   1  10   22.10    6.64
  -1   1  10   37.31    8.91
  -1  -1   9  123.42   14.69
  -1   1   9  119.87   13.94
  -1   1   9   92.67   12.63
  -1  -1   9  112.85   12.92
  -1   1   8   12.01    4.64
  -1  -1   8   12.49    4.82
  -1  -1   8   15.54    5.18
  -1  -1   8   12.46    3.87
  -1   1   8   12.98    5.45
  -1  -1   7  156.39   13.16
  -1   1   7  150.42   13.91
  -1  -1   6   96.75    9.45
  -1  -1   6  108.08   11.24
  -1   1   6   90.61    9.86
   1  -1  -5   31.12    3.50
   1   1  -5   30.63    1.67
  -1   1   5   35.14    6.10
  -1   1   5   31.76    5.86
  -1  -1   5   32.14    6.05
  -1  -1   5   27.91    5.05
  -1  -1   4   27.45    4.81
   1   1  -4   25.38    1.77
  -1   1   4   31.01    5.13
   1  -1  -4   28.76    3.21
  -1  -1   3 1621.83   29.24
   1  -1  -3 1540.38   21.75
   1   1  -3 1666.01   14.08
  -1   1   3 1635.59   28.99
  -1  -1   2 1663.96   24.58
   1  -1  -2 1678.40   20.36
   1   1  -2 1706.81   14.52
  -1   1   2 1689.91   24.17
   1  -1  -1  208.65    4.44
  -1  -1   1  199.43    6.98
  -1   1   1  201.68    6.39
   1  -1  -1  205.78    6.45
   1  -1   1  596.29   12.31
   1   1   1  618.30   10.14
   1  -1   1  607.06   10.08
   1   1   1  593.72   11.55
   1  -1   1  600.74   12.31
   1  -1   1  592.37   11.82
   1   1   1  597.86   12.14
   1  -1   2  139.16    7.23
   1   1   2  132.37    6.12
   1   1   2  129.82    7.30
   1  -1   2  143.86    7.02
   1  -1   2  132.04    6.71
   1   1   2  132.69    6.22
   1   1   3  691.58   19.54
   1  -1   3  702.99   17.92
   1  -1   3  757.62   19.73
   1  -1   3  726.55   17.81
   1   1   3  753.70   17.82
   1   1   3  701.85   16.18
   1  -1   3  754.94   18.13
   1  -1   4  118.80    8.51
   1   1   4  119.07    8.35
   1   1   4  135.61    9.82
   1  -1   4  107.18    8.10
   1  -1   4  134.97    9.57
   1  -1   4  118.71    8.04
   1   1   4  113.03    7.04
   1   1   5   78.52    7.68
   1   1   5   95.30    9.54
   1  -1   5   84.23    8.08
   1   1   5   78.41    6.49
   1  -1   5   71.65    7.53
   1  -1   5   84.50    8.71
   1  -1   6    2.95    2.16
   1   1   6   10.05    4.15
   1  -1   6    5.37    3.15
   1  -1   6    2.13    2.35
   1   1   6    4.67    3.59
   1   1   6    3.11    2.11
   1   1   7 1266.04   39.47
   1  -1   7 1205.49   36.73
   1   1   7 1221.03   37.15
   1  -1   7 1180.14   38.06
   1   1   7 1185.66   38.70
   1  -1   7 1210.64   36.55
   1   1   8   87.92   11.69
   1  -1   8   85.19   10.60
   1  -1   8   81.29   10.93
   1   1   8  103.91   12.26
   1   1   8   94.55   11.27
   1   1   9   27.53    7.16
   1   1   9   27.70    7.42
   1  -1   9   27.58    6.73
   1   1   9   41.86    8.20
   1  -1   9   37.88    8.19
   1  -1  10   21.23    6.77
   1   1  10   33.34    8.02
  -1  -2  10    3.36    2.89
  -1   2  10    8.43    3.95
  -1   2  10    1.49    4.13
  -1  -2   9   17.54    5.99
  -1   2   9    9.16    4.11
  -1   2   9   19.07    6.78
  -1  -2   8  123.87   13.93
  -1   2   8  103.80   11.85
  -1   2   8  105.60   12.83
  -1  -2   8  122.00   12.02
  -1  -2   7   42.09    7.81
  -1  -2   7   47.96    6.54
  -1  -2   7   61.22    8.08
  -1   2   7   50.67    8.55
  -1  -2   6  159.52   11.42
  -1  -2   6  159.00   13.42
  -1   2   6  155.22   13.38
   1  -2  -6  157.56    9.05
  -1   2   5  502.27   21.29
   1  -2  -5  471.11   15.01
  -1  -2   5  510.81   18.17
  -1  -2   5  482.24   21.12
  -1   2   5  500.94   21.13
  -1  -2   4 1405.32   26.33
  -1   2   4 1450.28   31.75
  -1  -2   4 1407.70   31.50
   1  -2  -4 1355.29   24.04
  -1  -2   3  392.01   14.53
  -1   2   3  410.70   14.61
   1  -2  -3  390.69   12.03
   1  -2  -2 1095.97   18.71
  -1   2   2 1112.08   19.54
  -1  -2   2 1112.25   20.49
   1  -2  -1  711.66   14.02
  -1   2   1  766.43   11.94
  -1   2   1  754.78    9.92
   1   2  -1  741.98   13.67
   1  -2   0   62.80    3.69
   1   2   0   59.23    3.90
   1  -2   0   62.12    3.83
   1  -2   0   61.27    3.87
   1   2   0   62.99    3.03
   1  -2   1  579.82   11.05
   1  -2   1  582.90   13.15
   1   2   1  546.05   12.43
   1   2   1  563.34   13.08
   1  -2   1  562.11   13.43
   1   2   1  580.23    8.26
   1   2   2  705.59   17.73
   1  -2   2  711.31   17.24
   1  -2   2  712.01   11.65
   1   2   2  739.05   12.86
   1   2   2  670.29   14.37
   1  -2   2  691.38   15.24
   1  -2   2  704.08   16.83
   1  -2   3  270.32   10.86
   1  -2   3  269.10   12.42
   1   2   3  251.09    9.47
   1   2   3  246.16    9.60
   1   2   3  263.60   12.77
   1   2   4  450.75   15.59
   1  -2   4  474.62   18.50
   1  -2   4  439.83   15.81
   1  -2   4  454.76   15.61
   1   2   4  430.22   18.13
   1   2   4  416.49   13.56
   1   2   5  185.36   13.59
   1   2   5  191.93   11.59
   1  -2   5  198.28   11.90
   1  -2   5  172.62   12.54
   1  -2   5  196.24   11.72
   1   2   5  200.07    9.84
  -1  -2  -6  195.25   10.76
   1  -2   6  186.15   14.31
   1   2   6  200.76   13.18
   1  -2   6  184.03   12.60
   1   2   6  172.17   14.16
   1  -2   6  200.68   13.50
   1   2   7    2.41    1.96
   1  -2   7    3.78    2.69
   1   2   7    9.68    5.02
   1   2   7   -1.41    4.40
   1  -2   7    1.77    2.42
   1   2   8   79.91   11.00
   1   2   8   79.19   11.55
   1  -2   8   89.44   10.60
   1  -2   8   76.97   10.91
   1   2   8   78.96    9.95
   1   2   9   -5.95    4.54
   1   2   9    5.53    3.62
   1  -2   9    1.21    3.07
   1  -2  10    5.80    3.93
   1   2  10    9.49    4.77
  -1  -3  10   14.55    5.66
  -1   3  10   14.07    6.11
  -1   3   9   46.85    8.47
  -1   3   9   43.17    9.30
  -1  -3   9   36.35    8.61
  -1  -3   8   49.23    9.00
  -1   3   8   35.95    6.99
  -1   3   8   50.60    9.67
  -1  -3   7   27.09    5.12
  -1  -3   7   25.69    6.10
  -1   3   7   30.74    6.89
   1  -3  -6  991.52   25.17
  -1   3   6 1017.90   33.94
  -1  -3   6  988.29   33.25
  -1  -3   6 1001.67   24.99
  -1  -3   6 1023.49   27.51
  -1   3   5   55.84    8.22
   1  -3  -5   47.32    5.33
  -1  -3   5   48.43    7.07
  -1  -3   5   51.29    5.04
  -1  -3   5   52.13    5.71
   1  -3  -4   11.30    2.65
  -1   3   4    7.01    2.76
  -1  -3   4   10.93    2.03
  -1   3   4   14.76    4.57
  -1  -3   4    7.04    2.07
  -1  -3   4   16.21    3.99
   1  -3  -3   21.12    3.29
  -1   3   3   30.79    4.21
  -1  -3   3   26.33    2.31
  -1  -3   3   28.72    4.39
  -1   3   2  418.90   11.94
  -1  -3   2  390.34   12.35
   1  -3  -2  381.21   12.40
  -1   3   1    8.09    1.61
   1   3  -1    8.93    1.93
  -1   3   1   10.00    1.42
   1  -3  -1   12.84    2.33
   1   3   0 8571.66   53.75
   1  -3   0 8684.92   47.57
   1  -3   1 1966.37   26.11
   1   3   1 2024.70   28.12
   1   3   1 1971.73   26.10
   1  -3   1 1954.09   23.27
   1   3   2  220.71    8.68
   1  -3   2  222.00   10.13
   1   3   2  219.65    6.18
   1  -3   2  218.56    7.23
   1   3   2  195.00   10.04
   1  -3   3    7.12    1.25
   1  -3   3    5.26    2.23
   1   3   3    6.10    1.57
   1   3   3    4.90    1.59
   1  -3   3    4.73    1.71
   1   3   3    7.26    3.29
   1   3   4  232.15   10.45
   1  -3   4  216.28   13.01
   1  -3   4  218.84   11.10
   1   3   4  220.89    9.51
   1   3   4  217.78   13.57
   1   3   5   85.08    7.35
   1   3   5   92.03   10.01
   1   3   5   75.99    5.91
   1  -3   5   73.70    7.18
   1  -3   5   82.34    9.17
  -1  -3  -6  483.62   18.51
   1   3   6  491.81   24.31
   1   3   6  500.30   20.08
   1  -3   6  446.68   22.69
   1  -3   6  495.36   20.61
   1  -3   7    9.51    4.24
   1   3   7   18.89    4.56
   1  -3   7   17.95    4.54
   1   3   7   12.81    4.80
   1   3   8   -3.51    3.07
   1   3   8   -2.25    4.09
   1  -3   8    3.40    3.29
   1  -3   9   27.24    7.68
   1   3   9   27.23    7.62
   1   3   9   43.28    8.69
  -1  -4   9    1.48    3.13
  -1   4   9   17.58    7.38
  -1   4   8  409.29   22.18
  -1  -4   8  422.60   26.38
  -1   4   8  384.68   25.50
  -1   4   7    2.80    4.94
  -1  -4   7    9.32    4.68
  -1  -4   6    4.42    3.60
  -1  -4   6    9.73    4.12
  -1  -4   6    8.66    2.83
   1  -4  -6    7.68    2.88
  -1   4   6   12.11    5.40
  -1  -4   5  159.51    8.01
   1  -4  -5  178.51   11.12
  -1  -4   5  172.03    9.44
  -1   4   5  144.11   12.61
  -1  -4   5  184.27   13.20
  -1  -4   4   24.87    2.60
  -1  -4   4   23.80    4.71
   1  -4  -4   22.87    3.95
  -1   4   4   15.11    4.78
  -1  -4   4   25.26    3.20
  -1  -4   3   -1.19    1.72
  -1   4   3   -1.22    2.06
  -1  -4   3    0.59    0.39
   1  -4  -3    0.30    1.80
  -1  -4   2 2184.39   29.67
  -1   4   2 2046.30   27.23
   1  -4  -2 2115.95   32.45
  -1   4   2 2152.74   26.84
  -1   4   1   42.65    3.80
   1  -4  -1   42.86    4.53
   1   4  -1   43.62    4.60
  -1   4   1   44.10    2.66
   1   4   0 4465.43   44.74
   1  -4   0 4607.90   37.20
   1  -4   0 4595.39   42.33
   1  -4   1  308.25   11.15
   1   4   1  334.95   11.41
   1   4   1  304.04   12.12
   1  -4   1  339.07   10.90
   1  -4   2 5786.70   54.18
   1   4   2 5617.52   48.05
   1   4   2 5666.99   55.94
   1  -4   2 5822.24   42.03
   1  -4   3    0.78    1.76
   1   4   3   -0.34    1.25
   1   4   3    0.11    0.82
   1   4   3   -1.70    2.79
   1  -4   3   -0.31    0.85
   1   4   4  395.50   12.80
   1  -4   4  392.62   18.15
   1  -4   4  392.09   14.61
   1   4   4  362.27   12.57
   1   4   4  382.97   18.69
   1   4   5  417.75   15.46
   1  -4   5  387.57   16.17
   1   4   5  383.34   20.30
  -1  -4  -5  384.11   17.32
   1   4   5  362.82   13.01
   1  -4   5  382.84   19.75
   1  -4   6    3.16    2.65
   1  -4   6    1.47    1.47
   1   4   6   -1.34    1.90
  -1  -4  -6    0.11    1.32
   1   4   6   -0.50    3.91
   1   4   7   30.97    7.63
   1  -4   7   26.80    5.08
   1  -4   7   29.18    6.52
   1  -4   8   30.12    7.28
   1   4   8   35.90    8.31
   1   4   9   47.66    9.70
   1  -4   9   36.56    8.63
   1   4   9   64.87   12.48
  -1   5   9  167.60   18.42
  -1  -5   9  159.06   17.81
  -1  -5   8   27.64    7.50
  -1   5   8   25.55    7.26
  -1   5   7   36.66    7.81
  -1  -5   7   55.08    9.34
  -1   5   6  354.74   21.25
  -1  -5   6  314.49   19.83
   1  -5  -6  362.45   17.77
  -1  -5   6  349.08   19.94
  -1  -5   5   71.04    8.48
  -1   5   5   76.01    9.64
  -1  -5   5   74.88    5.78
   1  -5  -5   87.86    8.56
  -1   5   4   54.16    2.34
  -1  -5   4   69.90    7.29
  -1  -5   4   57.73    2.82
  -1   5   4   60.18    8.09
  -1  -5   4   67.63    4.45
   1  -5  -4   50.40    6.23
  -1  -5   3   53.44    3.94
  -1  -5   3   56.23    3.11
   1  -5  -3   46.64    5.82
  -1  -5   3   56.65    5.82
  -1  -5   2   32.31    3.77
  -1   5   2   31.59    3.95
   1  -5  -2   33.19    4.71
   1  -5  -1  456.69   15.59
  -1   5   1  433.88   13.51
   1   5  -1  454.22   15.89
   1  -5   0 1872.15   25.65
   1  -5   0 1886.24   30.21
  -1   5   0 1908.67   29.45
   1   5   0 1943.96   32.42
  -1  -5   0 1889.44   18.50
   1  -5   1  245.40   10.43
   1   5   1  241.19   10.36
   1  -5   1  255.22   10.74
   1   5   1  241.60   11.70
   1  -5   2  676.99   16.21
   1   5   2  687.25   20.18
   1  -5   2  669.68   19.49
   1   5   3    0.86    1.24
   1  -5   3    1.38    0.93
   1  -5   3    0.52    1.81
   1   5   3    1.42    0.63
   1   5   3    2.53    3.73
   1  -5   4 1314.54   17.34
   1  -5   4 1314.21   33.94
   1   5   4 1288.08   21.11
   1   5   4 1276.38   24.57
   1   5   4 1323.68   35.22
   1  -5   5  138.30   12.30
   1   5   5  147.96   13.16
   1   5   5  146.30    8.56
  -1  -5  -5  142.07   11.20
   1   5   6   30.87    7.22
   1  -5   6   26.40    5.97
  -1  -5  -6   31.11    5.57
   1  -5   7   30.41    6.77
   1   5   7   47.70    8.57
   1  -5   8    2.56    3.22
   1   5   8    4.85    4.90
   1  -5   9   56.65   10.73
   1   5   9   69.12   12.07
   1   5   9   65.41   11.44
  -1   6   9   62.95   12.24
  -1  -6   9   57.63   10.81
  -1   6   8   60.33   11.03
  -1  -6   8   50.85    9.75
  -1  -6   7   34.43    7.56
   1  -6  -7   50.03    7.32
  -1   6   7   62.46   10.58
  -1  -6   6  254.83   17.27
  -1  -6   6  259.09   18.58
   1  -6  -6  250.18   15.76
  -1   6   6  248.94   18.54
   1  -6  -5  211.25   13.99
  -1  -6   5  219.36   14.38
  -1  -6   5  215.81   15.48
  -1   6   5  222.85   16.23
  -1   6   4  165.18   12.82
   1  -6  -4  164.31   11.94
  -1  -6   4  188.00   12.06
  -1  -6   4  184.37   13.07
  -1  -6   4  174.66    6.50
   1  -6  -3  268.46   14.33
  -1   6   3  260.19   14.51
  -1  -6   3  264.36    9.96
  -1  -6   3  246.53   12.14
   1   6  -2  142.68   10.22
  -1   6   2  114.98    8.05
   1  -6  -2  123.12    9.37
  -1  -6   2  125.75    7.51
  -1  -6   1  759.04   17.02
  -1   6   1  827.64   20.75
  -1  -6   1  810.83   16.89
   1   6  -1  789.72   22.99
   1  -6  -1  827.46   22.95
  -1  -6   0   26.34    2.33
   1  -6   0   25.42    3.27
   1  -6   0   30.72    4.48
   1   6   0   30.95    4.83
  -1   6   0   34.36    4.63
   1  -6   1    5.86    2.10
   1   6   1   10.82    2.53
   1   6   1    9.81    3.40
   1  -6   1    4.60    1.87
   1   6   2  223.42   13.02
   1  -6   2  222.70   11.78
   1   6   2  221.72   12.18
   1  -6   2  215.17   10.19
   1  -6   3  368.80   12.25
   1   6   3  359.22   14.30
   1  -6   3  388.40   17.27
   1   6   3  383.28   17.97
   1  -6   4  121.15   10.69
   1   6   4  130.00    8.47
   1  -6   4  131.18    6.38
   1   6   4  141.15   12.24
  -1  -6  -5  122.57   11.19
   1  -6   5  108.16   11.42
   1   6   5  124.25   12.50
  -1  -6  -6    6.95    2.45
   1   6   6   11.56    5.48
   1  -6   6    8.34    4.01
   1  -6   7   35.45    7.66
   1   6   7   28.39    7.09
   1  -6   8   50.55    9.66
   1   6   8   46.89   10.26
   1  -6   9   91.64   13.77
   1   6   9   85.51   13.60
   1   6   9  104.71   14.69
  -1   7   9   27.12    7.79
  -1  -7   9   24.36    7.10
  -1  -7   8    5.03    3.72
  -1   7   8    1.49    5.08
  -1  -7   7  208.17   18.36
   1  -7  -7  196.76   15.41
  -1   7   7  183.55   17.89
  -1   7   6   64.64   10.24
  -1  -7   6   61.25    9.17
  -1  -7   6   56.13    8.28
   1  -7  -6   59.98    8.22
   1  -7  -5  115.55   10.99
  -1  -7   5  124.58   10.97
  -1  -7   5  117.61   11.79
  -1   7   5   93.88   11.20
  -1  -7   4   -1.55    2.41
   1  -7  -4    1.83    2.75
  -1  -7   4    0.09    1.99
  -1   7   4    1.71    3.94
  -1   7   3 1317.08   33.32
   1  -7  -3 1382.09   34.73
  -1  -7   3 1343.00   25.13
  -1  -7   3 1336.50   31.70
  -1  -7   3 1371.58   28.29
  -1   7   2   69.09    7.02
  -1  -7   2   68.30    6.36
   1   7  -2   76.19    8.24
  -1   7   2   73.14    6.89
  -1  -7   2   71.93    5.74
   1  -7  -2   74.37    7.98
  -1  -7   2   71.81    6.47
  -1   7   1   93.56    7.97
  -1  -7   1   80.16    5.80
  -1  -7   1  102.19    6.12
   1  -7  -1   93.21    8.50
   1   7  -1   97.83    8.88
  -1   7   0   59.94    6.49
   1  -7   0   64.10    6.79
   1   7   0   73.30    8.04
  -1  -7   0   63.47    3.82
   1  -7   0   61.55    5.27
   1  -7   1  133.12    9.29
   1   7   1  139.65   10.61
   1   7   1  150.36    9.04
   1  -7   1  131.96    8.57
   1  -7   2  767.86   22.93
   1   7   2  746.27   24.87
   1  -7   2  743.50   20.67
   1   7   2  744.92   22.94
   1   7   3  128.23    9.30
   1  -7   3  116.45    7.68
   1  -7   3  114.05    9.88
   1   7   3  106.08    9.99
   1   7   4   64.32    6.41
   1   7   4   67.15    9.11
   1  -7   4   49.30    7.19
  -1  -7  -4   61.12    8.31
   1   7   5   30.27    7.58
   1  -7   5   27.09    6.07
  -1  -7  -5   31.98    6.35
   1  -7   6   11.82    5.01
  -1  -7  -6    1.68    2.74
   1   7   6    1.81    3.67
   1  -7   7  535.15   29.53
   1   7   7  592.67   31.79
  -1  -7  -7  550.24   26.35
   1   7   8    9.90    4.71
   1  -7   8    4.78    4.27
  -1   8   8    9.37    5.73
  -1  -8   8   16.79    6.49
   1  -8  -7   12.75    4.52
  -1  -8   7   16.67    6.15
  -1   8   7   28.33    8.13
  -1   8   6   -1.51    3.54
  -1  -8   6    3.84    3.06
   1  -8  -6   -0.90    2.84
  -1  -8   6   -0.05    2.27
  -1  -8   5  226.57   14.66
  -1  -8   5  246.98   17.44
  -1   8   5  231.05   17.55
   1  -8  -5  244.21   16.91
  -1  -8   4  370.69   16.77
  -1  -8   4  383.69   19.49
   1  -8  -4  363.09   19.81
  -1   8   4  335.45   19.33
  -1   8   3   34.41    5.50
  -1  -8   3   50.21    5.49
  -1   8   3   42.09    6.91
   1  -8  -3   30.68    5.77
   1   8  -3   45.43    7.28
  -1  -8   3   37.29    5.70
  -1  -8   3   39.27    4.80
   1   8  -2   45.96    7.18
  -1  -8   2   56.37    5.14
  -1   8   2   46.38    6.26
   1  -8  -2   56.39    7.33
  -1  -8   2   43.45    5.33
  -1  -8   2   56.36    6.31
  -1   8   2   50.24    6.42
  -1   8   1  328.51   13.88
  -1  -8   1  317.90   15.35
  -1  -8   1  347.15   11.23
   1  -8  -1  329.62   16.62
  -1   8   1  328.32   15.69
  -1  -8   1  308.25   11.75
   1   8  -1  301.72   16.69
   1   8   0   28.70    5.51
  -1  -8   0   24.45    4.93
   1  -8   0   25.24    3.68
   1  -8   0   24.00    4.74
  -1   8   0   32.72    5.52
  -1  -8   0   26.89    2.69
  -1   8   0   27.79    3.62
   1   8   1  171.64   10.06
   1  -8   1  157.34    9.89
   1  -8   1  152.37   10.60
   1   8   1  155.62   11.96
  -1   8  -1  156.07   11.58
  -1   8  -1  146.85    5.88
   1   8   2  363.00   18.48
  -1  -8  -2  360.32   18.97
   1  -8   2  330.26   15.63
   1  -8   2  338.80   15.09
   1   8   2  343.01   16.22
   1  -8   3   37.40    5.96
   1   8   3   38.24    6.24
   1  -8   3   41.90    5.02
  -1  -8  -3   52.15    8.12
   1   8   3   49.26    6.38
   1  -8   4  276.47   17.16
  -1  -8  -4  272.15   17.73
   1   8   4  290.40   14.23
   1   8   4  274.00   17.71
  -1  -8  -5  859.34   32.43
   1  -8   5  845.81   32.45
   1   8   5  838.78   33.49
   1  -8   6   30.81    6.97
   1   8   6   24.49    6.98
  -1  -8  -6   37.30    7.50
   1  -8   7    3.74    3.90
  -1  -8  -7    2.71    3.03
   1   8   7   -3.52    4.40
   1  -8   8   38.93    8.95
   1   8   8   42.77    9.37
  -1   9   8   26.81    7.83
  -1  -9   8   33.33    8.61
  -1   9   7   -4.26    5.03
   1  -9  -7    5.79    3.51
  -1  -9   7    2.02    2.81
  -1  -9   6  341.20   22.50
   1  -9  -6  405.32   23.83
  -1   9   6  336.05   23.37
  -1  -9   5   13.59    3.99
   1  -9  -5    9.74    3.82
  -1   9   5   10.67    4.54
  -1  -9   5   17.21    5.21
  -1  -9   4   21.81    4.32
  -1   9   4   22.60    5.59
   1  -9  -4   30.36    6.43
  -1   9   3   16.54    5.32
  -1  -9   3   12.92    3.19
   1  -9  -3    2.17    3.23
   1   9  -3    7.57    3.73
  -1  -9   3   14.26    3.06
  -1  -9   3    9.75    3.20
  -1   9   3   11.18    3.81
   1   9  -2    1.06    3.28
  -1  -9   2   -1.13    1.72
  -1   9   2    0.03    2.14
  -1  -9   2    1.16    2.16
   1  -9  -2   -0.30    3.41
  -1  -9   2    1.56    1.22
  -1   9   2    0.53    2.98
  -1  -9   1   82.46    8.43
   1  -9  -1   73.85    8.90
   1   9  -1   70.25    8.89
  -1   9   1   84.70    8.68
  -1  -9   1   77.56    5.41
  -1   9   1   78.02    7.30
  -1  -9   1   71.39    5.86
   1  -9   0  804.36   26.64
  -1   9   0  780.16   26.66
   1  -9   0  782.59   20.41
  -1   9   0  778.82   18.85
   1   9   0  827.24   28.94
  -1  -9   0  812.59   27.19
   1  -9   1  115.13    9.80
  -1   9  -1  109.53   10.57
  -1  -9  -1  131.89   11.88
   1   9   1  123.42   11.34
   1  -9   1  114.60    8.88
   1  -9   2   97.82    9.04
   1   9   2   91.05   10.10
   1   9   2   94.44    9.04
  -1  -9  -2   99.58   10.73
   1  -9   2   84.30    8.17
   1  -9   3  628.34   20.93
   1  -9   3  600.00   24.20
   1   9   3  575.85   24.15
  -1  -9  -3  630.47   27.17
  -1  -9  -4    0.15    2.39
   1   9   4    2.91    3.62
   1  -9   4   -0.34    2.95
   1  -9   5   16.33    4.86
  -1  -9  -5   14.15    4.63
   1   9   5   12.67    5.46
  -1  -9  -6  108.34   12.72
   1  -9   6  125.06   13.92
   1   9   6  117.18   14.04
   1   9   7   74.53   12.27
  -1  -9  -7   76.70   10.90
   1  -9   7   81.96   12.29
   1   9   8    0.21    4.09
   1  -9   8    6.04    3.80
  -1 -10   8  208.98   20.72
  -1  10   8  204.94   21.29
   1 -10  -7   -0.09    1.94
  -1  10   7   -4.29    5.45
  -1 -10   7   -4.32    3.60
  -1  10   6    6.19    5.47
   1 -10  -6    3.66    3.16
  -1 -10   6    0.81    2.44
   1 -10  -5    1.91    3.09
  -1 -10   5    7.28    3.52
  -1  10   5   12.18    5.22
  -1  10   4  276.33   18.54
  -1 -10   4  310.16   18.55
   1  10  -4  328.99   21.62
   1 -10  -4  319.37   20.83
  -1 -10   3    0.22    1.57
  -1 -10   3   -0.18    1.56
   1 -10  -3    0.51    3.09
  -1  10   3    3.33    2.48
  -1  10   3   -1.06    2.79
   1  10  -3    0.03    2.92
  -1  10   2  412.40   18.83
  -1  10   2  472.03   21.61
   1 -10  -2  422.31   22.19
  -1 -10   2  417.24   17.03
   1  10  -2  451.47   23.54
  -1 -10   2  400.30   18.71
   1 -10  -1    4.51    2.77
  -1  10   1    8.13    3.55
  -1  10   1    9.02    2.71
   1  10  -1   11.92    5.15
  -1 -10   1    8.48    3.20
   1 -10   0    0.08    2.27
   1 -10   0    1.98    1.45
  -1  10   0   -1.86    2.73
   1  10   0   -2.45    3.56
  -1 -10   0   -2.87    2.79
  -1 -10  -1   49.46    8.07
  -1  10  -1   58.62    8.44
   1 -10   1   79.72    7.59
   1 -10   1   58.32    7.52
   1  10   1   66.40    9.07
   1 -10   2  677.29   24.55
   1 -10   2  684.40   24.72
   1  10   2  684.14   28.35
  -1  10  -2  664.85   28.28
   1  10   2  621.84   23.49
  -1 -10  -2  688.68   28.97
  -1 -10  -3   10.80    4.54
   1  10   3    9.87    4.12
   1 -10   3    9.64    3.39
   1 -10   3    5.03    2.26
  -1 -10  -4    6.10    3.15
   1  10   4    5.72    3.37
   1 -10   4   12.84    4.65
   1 -10   5    0.97    2.01
  -1 -10  -5   -2.20    3.01
   1  10   6    2.75    4.59
  -1 -10  -6    0.34    2.42
   1 -10   6    0.01    2.98
   1  10   7    9.03    4.62
  -1 -10  -7    8.52    4.43
   1 -10   7   13.05    5.06
  -1 -11   7   36.24    8.29
  -1  11   7   45.18    9.72
   1 -11  -7   26.36    7.17
   1 -11  -6  188.58   18.16
  -1 -11   6  227.28   19.26
  -1  11   6  178.12   18.04
  -1  11   5   23.78    6.60
   1 -11  -5   21.47    6.25
   1  11  -5   24.33    6.54
  -1 -11   5   27.28    6.36
  -1  11   4  442.56   24.35
  -1 -11   4  494.62   23.79
   1  11  -4  496.68   27.94
   1 -11  -4  483.00   26.78
   1  11  -3    0.01    2.99
  -1  11   3    0.86    2.42
  -1 -11   3   -1.09    1.71
   1 -11  -3    4.40    3.87
  -1  11   3    3.40    3.17
  -1 -11   3    0.53    1.24
  -1  11   2   35.05    5.91
   1 -11  -2   56.15    8.77
  -1 -11   2   43.25    6.80
   1  11  -2   41.88    8.21
  -1  11   2   42.36    7.13
   1  11  -1   90.92   11.41
  -1  11   1   75.58    9.38
   1 -11  -1   86.33   10.51
  -1 -11   1   87.62    9.69
  -1 -11   0  281.77   18.11
   1 -11   0  251.93   16.98
  -1  11   0  265.39   17.83
   1  11   0  255.04   18.16
  -1  11  -1   21.59    5.44
   1 -11   1   26.63    4.55
   1  11   1   22.14    6.07
  -1 -11  -1   16.04    5.12
   1 -11   1   21.06    5.02
   1  11   2   76.92   10.36
   1 -11   2   95.04    9.48
  -1 -11  -2   77.71   10.34
   1 -11   2   91.13    9.66
   1  11   2   86.28    9.09
  -1  11  -2   63.42    9.73
   1  11   3   36.08    6.50
   1 -11   3   53.52    7.85
   1 -11   3   55.33    7.10
  -1  11  -3   54.43    9.07
  -1 -11  -3   52.74    8.86
   1 -11   4   50.33    8.16
  -1 -11  -4   56.09    9.67
   1  11   4   53.43    9.15
   1  11   5    0.73    3.66
  -1 -11  -5    7.11    4.56
   1 -11   5   10.16    4.26
   1  11   6   44.64    9.36
  -1 -11  -6   33.90    7.87
   1 -11   6   58.68   10.10
   1 -11   7   52.21   10.38
   1  11   7   28.46    8.09
  -1 -11  -7   34.65    8.22
  -1  12   7    8.39    5.19
   1  12  -7   11.77    5.36
   1 -12  -7   13.52    5.65
  -1 -12   7    2.69    3.69
   1 -12  -6   39.55    8.62
   1  12  -6   64.67   11.41
  -1  12   6   63.70   11.32
  -1 -12   6   53.92    9.68
   1 -12  -5   56.05   10.26
  -1 -12   5   56.28    9.06
   1  12  -5   59.55   11.30
  -1  12   5   62.58   10.44
  -1  12   4   61.19    9.54
   1 -12  -4   59.84   10.03
  -1 -12   4   60.69    8.56
   1  12  -4   63.86   10.70
  -1  12   3    3.12    2.93
  -1  12   3   -0.64    3.48
   1 -12  -3    1.40    3.11
   1  12  -3   -0.92    2.85
  -1  12   2  257.63   18.12
   1  12  -2  227.96   18.71
  -1 -12   2  244.13   16.48
   1 -12  -2  223.50   17.89
   1 -12  -1   59.03    9.23
  -1 -12   1   65.57    8.98
   1  12  -1   70.12   10.43
  -1  12   1   68.33    9.53
  -1 -12   0   36.47    7.30
   1  12   0   39.84    8.29
   1 -12   0   45.52    7.63
  -1  12   0   36.54    7.61
   1 -12   1   28.09    6.15
  -1 -12  -1   23.09    6.15
  -1  12  -1   34.39    7.21
   1  12   1   24.18    6.48
   1 -12   2  150.92   13.21
   1  12   2  170.85   15.93
  -1  12  -2  152.20   15.07
  -1 -12  -2  153.67   15.26
  -1 -12  -3   13.08    5.11
   1  12   3   15.08    4.62
  -1  12  -3   10.34    4.59
   1 -12   3   16.87    5.11
   1 -12   4   42.88    7.76
   1  12   4   30.01    6.75
  -1 -12  -4   45.93    9.22
  -1  12  -4   44.80    9.03
   1 -12   5  234.68   19.42
  -1 -12  -5  231.63   20.48
   1  12   5  238.62   20.03
   1 -12   6   22.40    6.66
   1  12   6    9.04    4.36
   1 -12   7   -5.46    3.86
  -1 -12  -7   -7.46    4.47
   1 -13  -6   70.89   12.18
  -1  13   6   47.07    9.91
  -1 -13   6   52.72    9.58
   1  13  -6   52.10   10.66
  -1  13   5    9.71    5.29
   1 -13  -5    2.80    3.60
   1  13  -5    1.57    3.58
  -1  13   4    7.56    4.32
   1  13  -4    2.67    4.26
   1 -13  -4   -1.60    3.32
  -1  13   3   89.80   11.41
   1  13  -3   98.86   13.45
   1 -13  -3  105.62   13.49
  -1  13   2  142.54   14.25
   1  13  -2  130.25   15.09
  -1 -13   2  146.79   13.44
   1 -13  -2  123.85   14.14
  -1 -13   1   29.24    6.54
   1  13  -1   21.68    6.35
  -1  13   1   33.23    7.29
   1 -13  -1   32.90    7.61
   1  13   0  117.04   13.92
  -1  13   0  110.39   12.99
   1 -13   0  100.62   12.12
  -1 -13   0  103.64   12.38
  -1 -13  -1   31.53    6.98
   1 -13   1   33.55    6.89
   1  13   1   34.95    7.95
  -1  13  -1   33.83    7.60
   1  13   2   15.11    5.47
  -1  13  -2   15.70    5.72
   1 -13   2   14.91    4.79
  -1 -13  -2   15.86    5.51
  -1  13  -3  134.12   15.59
  -1 -13  -3   96.65   13.20
  -1 -13  -4   49.25    9.75
   1 -13   4   41.92    8.29
  -1  13  -4   34.81    8.26
  -1 -13  -5    1.21    3.41
   1 -13   5    2.35    2.83
  -1  13  -5    4.72    3.38
  -1 -13  -6    5.76    4.38
   1 -13   6   -0.87    2.54
   1  13   6    7.08    4.55
  -1  14   6  -13.83    6.15
   1 -14  -5   22.02    7.71
   1  14  -5   16.63    5.96
   1 -14  -4    0.74    2.64
   1  14  -4    0.91    2.97
   1 -14  -3   -0.47    2.89
   1  14  -3    7.36    5.69
  -1  14   3   -0.48    2.24
  -1  14   2   13.90    5.23
   1 -14  -2    9.40    4.86
  -1 -14   2   12.48    3.94
   1  14  -2   17.55    6.32
   1 -14  -1  260.20   20.74
  -1  14   1  247.00   19.95
   1  14  -1  270.01   22.27
  -1 -14   1  265.10   19.83
  -1 -14   0   12.02    4.64
   1 -14   0   10.76    4.60
  -1  14   0   10.31    5.26
   1  14   0   13.28    5.79
  -1 -14  -1   43.00    8.59
   1 -14   1   49.75    8.80
  -1  14  -1   46.49    9.21
   1  14   1   48.77    9.59
   1  14   2    5.66    3.54
   1 -14   2    0.87    1.99
  -1 -14  -2    6.40    4.56
  -1  14  -2    3.90    4.09
  -1  14  -3   58.68   10.92
  -1 -14  -3   63.25   11.18
  -1  14  -4   -1.17    3.30
  -1 -14  -4   -0.47    3.08
  -1 -14  -5  117.73   15.95
  -1  14  -5  105.77   15.52
   1 -15  -4    3.26    3.60
   1  15  -4    4.58    5.23
  -1  15   3  110.15   13.94
   1 -15  -3  146.54   17.37
   1  15  -3  132.21   17.20
   1 -15  -2   42.14    9.12
   1  15  -2   55.32   11.13
  -1  15   2   55.96   10.03
  -1 -15   1    0.68    2.46
   1  15  -1    5.56    4.43
  -1  15   1    9.74    4.96
   1 -15  -1    2.84    3.24
   1  15   0  181.83   18.82
  -1  15   0  192.17   18.68
   1 -15   0  194.90   18.51
  -1 -15   0  157.67   16.67
   1  15   1   61.69   11.16
   1 -15   1   37.54    8.04
  -1  15  -1   51.37   10.05
  -1 -15  -1   44.73    9.37
  -1  15  -2    2.56    3.52
   1  15   2    8.33    4.48
  -1 -15  -2   10.40    4.86
  -1  15  -3   43.12    9.75
  -1 -15  -3   40.36    9.34
  -1  15  -4   29.88    8.82
   1  16  -2   59.34   11.48
   1 -16  -2   55.89   10.90
  -1  16   2   66.14   11.51
   1 -16  -1   70.50   12.02
   1  16  -1   69.33   12.43
  -1  16   1   73.26   12.19
  -1 -16   1   68.57   11.07
  -1 -16   0   17.95    6.19
   1 -16   0   19.34    6.31
  -1  16   0   18.98    6.80
   1  16   0    9.88    4.71
  -1 -16  -1    5.02    3.65
   1  16   1    5.09    3.63
   1 -16   1    4.22    3.10
  -1  16  -1    1.76    3.58
  -1 -16  -2  101.43   14.86
   1  16   2   95.39   14.38
  -1  16  -2   87.84   14.02
  -1 -17   1    6.57    4.66
  -1  17   1    3.06    3.60
  -1 -17   0   32.57    8.45
   1 -17   0   16.05    6.15
  -2   0  10   24.62    7.59
  -2   0   9    5.72    3.61
  -2   0   8  127.01   13.45
  -2   0   7    1.67    4.18
  -2   0   7   -1.09    2.93
  -2   0   6  612.18   24.49
  -2   0   6  615.58   26.65
  -2   0   5    0.04    3.42
   2   0  -5   -0.04    0.73
   2   0  -4  133.75    6.83
  -2   0   4  136.93   10.52
  -2   0   3    2.59    2.76
   2   0  -3   -0.28    0.84
  -2   0   2  524.79   15.45
   2   0  -2  519.96   11.45
   2   0  -2  497.25   12.45
   2   0  -1   -0.28    1.14
   2   0  -1    0.23    1.23
   2   0   0 2452.55   27.95
   2   0   0 2469.28   27.80
   2   0   1    1.83    1.49
   2   0   1    0.69    1.00
   2   0   1   -0.51    1.32
   2   0   2 1661.54   28.00
   2   0   2 1666.27   27.20
   2   0   2 1626.74   27.36
   2   0   3   -0.78    1.81
   2   0   3    0.44    1.29
   2   0   3    2.80    1.87
   2   0   4  744.96   21.71
   2   0   4  766.67   23.94
   2   0   4  758.69   22.75
   2   0   5    0.25    1.98
   2   0   5   -0.67    2.03
   2   0   5    0.23    1.85
   2   0   6   75.86    9.12
   2   0   6   72.46    8.82
   2   0   6   74.28    8.01
   2   0   7    2.20    2.41
   2   0   7   -3.35    2.86
   2   0   8    0.79    1.80
   2   0   8   -1.56    2.75
   2   0   9   -1.06    1.88
   2   0   9    9.93    4.87
   2   0  10   27.16    7.26
  -2  -1  10    7.86    4.57
  -2   1  10    2.13    2.53
  -2  -1   9   70.41   10.40
  -2  -1   9   64.17   11.08
  -2   1   9   65.42   10.92
  -2   1   8  237.01   18.82
  -2  -1   8  230.47   17.37
  -2  -1   7  296.29   20.50
  -2   1   7  287.53   20.15
  -2   1   7  282.71   18.72
  -2  -1   7  310.30   18.69
  -2  -1   6  463.06   23.23
  -2   1   6  447.93   22.85
  -2   1   6  448.71   21.76
  -2  -1   6  448.54   20.45
   2   1  -5    9.31    1.57
   2  -1  -5   10.65    2.32
  -2  -1   5    5.18    3.81
  -2   1   5    7.39    4.02
  -2   1   4  993.43   27.25
   2  -1  -4 1001.32   10.81
   2   1  -4  948.34   16.18
  -2  -1   4 1011.78   27.69
   2  -1  -4 1096.42   21.44
   2  -1  -3  131.98    4.46
  -2  -1   3  119.54    8.70
  -2   1   3  125.19    8.62
   2  -1  -3  121.17    6.89
   2   1  -3  125.13    5.96
  -2  -1   2 1871.18   30.14
   2  -1  -2 1825.42   25.70
  -2   1   2 1906.51   28.97
   2   1  -2 1803.17   22.83
   2  -1  -2 1937.74   19.30
   2  -1  -1   36.23    3.13
   2  -1  -1   40.48    3.89
   2   1  -1   35.56    3.51
   2   1  -1   35.43    2.69
   2  -1   0 1035.28   18.22
   2  -1   0  979.67   18.33
   2   1   0  947.62   18.34
   2  -1   0  985.09   18.12
   2   1   1 1120.68   20.79
   2  -1   1 1103.72   19.17
   2  -1   1 1058.63   20.34
   2   1   1 1085.97   18.28
   2   1   1 1068.31   20.20
   2  -1   1 1079.27   20.89
   2  -1   2 2608.76   35.57
   2   1   2 2572.79   34.19
   2  -1   2 2605.94   35.35
   2   1   2 2615.12   35.63
   2   1   2 2591.23   31.90
   2  -1   2 2564.77   35.53
   2  -1   3  508.99   17.51
   2  -1   3  524.87   17.40
   2  -1   3  502.63   17.25
   2   1   3  504.27   15.82
   2   1   3  506.16   17.86
   2   1   3  492.90   16.13
   2   1   4 1251.10   31.36
   2  -1   4 1276.90   29.47
   2  -1   4 1249.06   29.94
   2  -1   4 1262.42   30.31
   2   1   4 1239.69   27.41
   2   1   4 1267.76   28.23
   2  -1   5  239.81   13.80
   2   1   5  241.03   13.83
   2  -1   5  233.95   14.63
   2  -1   5  243.27   14.54
   2   1   5  228.89   12.71
   2   1   5  217.93   14.39
   2   1   6    0.82    1.49
   2   1   6    1.90    2.24
   2  -1   6   -1.72    2.89
   2  -1   6    3.75    2.88
   2   1   6   -1.65    2.91
   2  -1   7   99.45   11.16
   2  -1   7  115.79   12.31
   2   1   7  113.31   11.50
   2   1   7  128.95   13.23
   2  -1   8  110.50   13.04
   2   1   8  130.81   14.28
   2   1   8  115.83   12.58
   2  -1   8  118.74   13.06
   2   1   9    5.20    3.14
   2   1   9    3.66    3.13
   2  -1   9    8.70    4.19
   2  -1   9   15.74    5.53
   2  -1  10    8.78    4.42
  -2   2  10   36.04    8.77
  -2   2  10   30.18    7.58
  -2  -2  10   24.23    7.22
  -2  -2   9  176.36   18.15
  -2   2   9  163.96   17.36
  -2  -2   8    6.65    3.80
  -2  -2   8    2.93    4.04
  -2   2   8   -0.62    3.24
  -2  -2   7   25.30    6.80
  -2   2   7   23.56    6.40
  -2   2   7   41.69    7.89
  -2  -2   7   45.35    7.13
   2  -2  -6   21.19    3.62
  -2   2   6   18.31    5.60
  -2  -2   6   16.16    5.49
  -2   2   6   16.38    5.11
  -2  -2   6   16.10    4.22
   2  -2  -5    1.80    1.40
  -2   2   5    6.32    4.63
  -2  -2   5    6.42    3.59
  -2  -2   4  833.81   25.30
  -2   2   4  829.51   24.62
   2  -2  -4  794.73   20.07
  -2  -2   3  389.67   15.55
  -2   2   3  397.94   15.02
   2  -2  -3  367.17   13.06
  -2   2   2 2117.50   29.96
   2   2  -2 2081.51   26.00
   2  -2  -2 2104.26   20.08
   2  -2  -2 2046.74   29.35
  -2  -2   2 2032.78   31.90
   2  -2  -1  620.19   15.52
   2  -2  -1  610.38   12.99
   2   2  -1  640.44   13.71
   2  -2   0   31.00    3.49
   2   2   0   31.81    3.90
   2  -2   0   26.12    3.25
   2   2   0   25.92    3.18
   2  -2   0   29.60    3.31
   2   2   0   26.46    2.75
   2  -2   1 1416.75   25.05
   2   2   1 1430.84   24.59
   2  -2   1 1454.91   25.15
   2   2   1 1454.84   23.30
   2  -2   1 1430.79   22.73
   2   2   1 1427.43   19.57
   2  -2   2   12.91    2.41
   2  -2   2    9.49    2.51
   2   2   2   12.09    2.83
   2  -2   2   10.75    2.72
   2   2   2    9.34    1.93
   2   2   2    8.98    2.10
   2   2   3    2.51    2.80
   2  -2   3    1.13    1.71
   2  -2   3   -0.15    1.72
   2   2   3    0.22    1.20
   2   2   3    0.40    0.88
   2  -2   3    1.15    1.74
   2   2   4   62.62    7.45
   2  -2   4   58.33    6.90
   2   2   4   68.17    6.41
   2  -2   4   63.60    6.70
   2  -2   4   71.80    7.61
   2   2   4   63.98    6.25
   2   2   5  138.05   11.91
   2  -2   5  113.39    9.83
   2  -2   5  114.28   10.54
   2   2   5  110.13    9.10
   2  -2   5  120.94   10.17
   2   2   5  118.81    9.02
   2  -2   6    4.60    2.80
   2   2   6    1.01    1.36
   2   2   6    0.42    1.48
   2  -2   6    5.02    3.14
   2   2   6    1.38    2.84
   2  -2   7  220.08   16.45
   2   2   7  216.92   15.37
   2  -2   7  223.37   17.34
   2   2   7  201.95   16.90
   2  -2   8   -0.23    3.41
   2   2   8    2.59    3.24
   2  -2   8    4.96    3.07
   2   2   8   -0.35    1.71
   2  -2   9   17.81    6.44
   2   2   9   10.46    4.78
  -2   3  10    5.14    4.76
  -2  -3  10    9.60    5.52
  -2   3   9   76.61   12.14
  -2  -3   9   75.30   12.17
  -2  -3   8  136.54   15.50
  -2   3   8  118.86   14.08
  -2  -3   7   54.90    7.29
  -2   3   7   65.45    9.84
  -2  -3   7   49.80    8.86
  -2  -3   6   18.10    5.62
   2  -3  -6   18.41    3.68
  -2   3   6   18.31    5.00
  -2  -3   6   14.62    3.69
  -2   3   6   15.11    5.12
  -2  -3   5  625.45   24.74
  -2   3   5  635.50   24.22
   2  -3  -5  623.80   20.05
  -2   3   4  289.07   14.41
   2  -3  -4  263.35   12.55
  -2  -3   4  270.05   14.66
  -2   3   3 1041.25   23.90
  -2  -3   3  989.52   25.08
   2  -3  -3 1012.00   23.50
  -2  -3   2  251.72   11.46
  -2   3   2  263.52   10.35
   2  -3  -2  221.36   10.55
   2  -3  -2  255.18    7.48
   2   3  -2  237.56   10.12
  -2   3   1 3296.10   24.59
   2   3  -1 3224.01   35.87
  -2   3   1 3336.51   31.39
   2  -3  -1 3263.69   32.56
   2  -3  -1 3314.05   38.84
   2  -3   0  134.39    7.59
   2   3   0  140.19    7.73
   2  -3   0  128.20    7.37
   2   3   0  137.09    6.21
   2  -3   0  121.99    7.14
   2  -3   1   84.64    6.53
   2  -3   1   80.84    6.49
   2  -3   1   73.49    5.47
   2   3   1   85.94    6.55
   2   3   1   85.26    5.96
   2   3   2  176.05    9.51
   2   3   2  193.78   10.39
   2  -3   2  199.45   10.95
   2  -3   2  193.23   10.80
   2  -3   2  193.48    8.66
   2   3   2  194.70    7.56
   2   3   3   21.28    3.53
   2  -3   3   24.73    4.32
   2  -3   3   21.03    2.99
   2   3   3   30.87    5.06
   2   3   3   27.51    3.40
   2  -3   3   27.39    4.84
   2  -3   4    7.61    3.31
   2   3   4    6.22    2.13
   2  -3   4    3.94    1.99
   2   3   4    7.27    3.63
   2   3   4    5.41    1.96
   2   3   4    0.99    4.27
   2  -3   5  409.75   18.64
   2   3   5  421.48   20.94
   2   3   5  418.69   16.92
   2  -3   5  387.05   19.75
   2   3   5  388.56   16.31
   2   3   5  411.94   21.21
   2   3   6    4.93    3.92
   2   3   6    8.19    2.79
   2  -3   6   10.91    4.24
   2   3   6   11.06    4.94
   2  -3   6   17.84    4.55
   2   3   7  310.78   21.20
   2   3   7  309.45   17.72
   2  -3   7  318.17   19.31
   2  -3   7  289.31   20.22
   2  -3   8   -0.28    1.34
   2  -3   8    2.01    3.68
   2   3   8    4.24    3.15
   2  -3   9  349.00   25.80
   2   3   9  357.49   26.07
  -2   4   9   16.93    6.28
  -2  -4   9   15.71    6.61
  -2  -4   8    7.03    4.98
  -2  -4   8    5.56    4.13
  -2   4   8   -0.09    5.24
  -2  -4   7  101.04   12.45
  -2   4   7   80.30   11.37
  -2   4   6    4.74    4.13
   2  -4  -6    7.00    2.71
  -2  -4   6    2.74    3.42
  -2  -4   6    5.73    2.51
  -2  -4   5    6.09    4.06
   2  -4  -5    9.01    2.96
  -2   4   5    3.61    2.85
  -2  -4   4  424.76   18.56
  -2   4   4  403.35   17.16
   2  -4  -4  407.89   16.88
  -2  -4   3  269.05   13.24
  -2   4   3  268.11   12.07
   2  -4  -3  269.29   13.07
   2   4  -2  893.44   21.79
   2  -4  -2  868.32   22.54
  -2   4   2  894.29   18.54
  -2   4   2  868.49   15.15
  -2  -4   2  902.43   22.16
  -2   4   1   47.46    3.60
   2   4  -1   47.33    5.04
  -2   4   1   44.33    3.59
   2  -4  -1   47.98    5.32
   2  -4   0   41.41    4.45
   2   4   0   40.74    3.66
   2   4   0   53.74    5.47
   2  -4   0   41.22    4.67
   2   4   1  218.16    9.84
   2  -4   1  221.92   11.31
   2  -4   1  229.97   11.08
   2   4   1  199.90   10.56
   2  -4   1  240.47   10.50
   2   4   1  227.67   11.47
   2   4   2  343.03   13.83
   2   4   2  332.61    8.79
   2  -4   2  337.15   14.76
   2  -4   2  331.78   12.17
   2   4   3  106.88    7.91
   2   4   3  108.39    6.00
   2  -4   3  103.15    9.07
   2  -4   3   99.26    6.40
   2   4   4    3.23    4.53
   2   4   4   11.24    2.40
   2   4   4    9.87    2.80
   2  -4   4    5.99    3.46
   2   4   5   28.73    6.13
   2   4   5   43.08    5.49
   2   4   5   37.83    4.89
   2  -4   5   40.77    7.01
   2   4   6   86.26   10.95
   2  -4   6   84.93    9.14
   2   4   6   93.40    8.52
   2  -4   6   94.86   11.10
   2   4   6   76.82   10.09
   2  -4   7  675.90   27.60
   2  -4   7  650.00   30.96
   2   4   7  687.93   32.11
   2  -4   8   16.49    5.83
   2   4   8   22.10    6.30
   2  -4   9   41.36    9.49
   2   4   9   79.90   12.61
  -2   5   9   78.21   13.20
  -2  -5   9   82.09   13.10
  -2  -5   8  122.66   15.01
  -2  -5   8  120.62   14.74
  -2   5   8  121.32   14.96
  -2  -5   7    8.20    4.19
  -2   5   7   12.22    5.26
   2  -5  -6   42.69    6.35
  -2  -5   6   30.41    6.59
  -2   5   6   44.32    8.70
  -2   5   5  256.77   15.47
  -2  -5   5  277.00   16.63
   2  -5  -5  284.60   15.65
  -2  -5   4  520.49   20.59
  -2   5   4  463.23   18.23
   2  -5  -4  515.66   20.25
  -2  -5   3  124.20    9.23
  -2   5   3  117.56    8.18
   2  -5  -3  103.63    8.77
  -2   5   2    7.22    1.91
   2  -5  -2    4.93    2.26
  -2  -5   2    7.37    2.33
   2   5  -2    5.74    2.42
  -2   5   1 1086.04   15.53
   2   5  -1 1057.80   13.69
   2   5  -1 1096.71   25.50
  -2   5   1  990.75   19.65
   2  -5  -1 1107.87   26.10
   2  -5   0    3.68    1.86
   2  -5   0    2.00    1.92
   2   5   0    0.89    0.79
   2   5   0    1.65    2.30
   2  -5   1  416.93   14.94
   2  -5   1  421.96   15.81
   2   5   1  410.03   16.59
   2   5   2  859.62   23.28
   2  -5   2  862.43   20.90
   2  -5   2  858.83   24.62
   2  -5   3   43.48    4.62
   2   5   3   44.03    3.33
   2   5   3   37.40    5.01
   2  -5   3   40.07    5.86
   2   5   4   84.67    9.65
   2   5   4   89.82    7.70
   2  -5   4   99.51    6.31
   2   5   4   98.88    6.22
   2  -5   4   87.21    9.45
   2   5   5  811.57   23.48
   2  -5   5  784.89   29.86
   2   5   5  768.79   30.41
   2   5   6   22.87    5.62
   2  -5   6   26.89    6.39
   2   5   7   89.71   12.38
   2  -5   7   79.09   11.37
   2   5   7   90.54   12.15
   2   5   8    4.15    4.05
   2  -5   8   -4.11    3.47
   2  -5   9   44.54    9.76
   2   5   9   55.27   10.90
  -2   6   9    5.34    5.94
  -2  -6   9   -3.10    3.32
  -2  -6   8   48.11    9.21
  -2   6   8   69.28   11.65
  -2  -6   8   67.05   11.21
  -2   6   7    3.48    4.40
  -2  -6   7    8.88    4.22
   2  -6  -7    0.77    1.63
  -2  -6   7   11.57    5.25
  -2  -6   6  741.93   30.27
   2  -6  -6  770.50   28.66
  -2  -6   5    4.16    3.20
   2  -6  -5    4.69    2.97
  -2   6   5    1.43    3.95
  -2  -6   4   73.48    8.07
   2  -6  -4   64.60    7.86
  -2  -6   3   37.78    5.39
   2  -6  -3   34.31    5.77
  -2   6   3   39.23    4.67
   2   6  -3   31.56    5.30
  -2   6   2   39.21    3.73
  -2  -6   2   27.00    4.24
   2  -6  -2   24.77    4.54
  -2   6   2   27.17    3.72
   2   6  -2   26.04    4.94
  -2   6   1   86.92    6.59
  -2   6   1   87.29    3.93
   2   6  -1   96.23    8.43
   2   6  -1   83.76    4.16
   2  -6  -1   92.69    8.18
   2  -6   0 1571.09   29.17
   2   6   0 1631.23   34.00
   2  -6   0 1589.32   32.36
   2  -6   1  515.66   18.06
   2   6   1  490.44   19.42
   2  -6   1  538.65   18.11
   2   6   2  208.49   12.35
   2  -6   2  197.82   12.25
   2  -6   2  207.63   10.86
   2  -6   3   -0.50    1.01
   2  -6   3   -0.06    2.20
   2   6   3   -0.92    1.90
   2   6   4  268.82   14.04
   2  -6   4  273.71   11.05
   2  -6   4  284.18   17.29
   2   6   4  242.82   16.35
   2   6   5    0.04    4.47
   2  -6   5   -0.31    2.37
   2   6   5   -1.56    1.38
   2   6   6   23.92    6.28
   2  -6   6   34.13    7.44
  -2  -6  -6   39.15    6.93
   2   6   7    9.81    4.29
   2   6   7   20.94    6.05
   2  -6   7   16.20    5.08
   2  -6   8    3.39    3.57
   2   6   8    8.26    3.74
  -2   7   9   40.93    9.73
  -2  -7   9   30.49    8.48
  -2  -7   8  163.59   17.66
  -2   7   8  147.09   17.29
  -2   7   7   28.37    7.87
   2  -7  -7   14.01    4.55
  -2  -7   7   15.48    5.04
  -2  -7   7   20.95    6.27
  -2  -7   6  225.42   16.90
  -2  -7   6  197.59   16.72
   2  -7  -6  242.83   17.06
  -2   7   6  220.80   18.12
  -2  -7   5   11.03    4.18
   2  -7  -5   16.84    4.43
  -2   7   5    6.22    4.51
  -2  -7   4  355.49   17.66
   2  -7  -4  327.25   18.30
  -2  -7   3    3.16    1.83
   2  -7  -3    4.18    2.39
   2   7  -3   -0.09    2.83
   2  -7  -2  922.15   28.47
  -2   7   2  838.24   21.88
  -2  -7   2  885.93   23.52
   2   7  -2  911.40   27.94
  -2   7   1   61.94    6.24
   2   7  -1   59.86    3.80
   2  -7  -1   70.70    7.77
   2   7  -1   62.05    7.66
   2  -7   0   79.21    6.82
  -2   7   0   83.14    7.44
   2   7   0   75.30    8.25
   2  -7   0   92.50    8.44
   2  -7   1  351.08   15.64
   2  -7   1  354.02   15.83
   2   7   1  369.33   18.02
   2  -7   2  662.51   23.18
   2   7   2  669.22   23.12
   2  -7   2  595.26   19.76
   2   7   3   93.53    8.71
   2  -7   3   96.78    7.63
   2  -7   3   91.90    9.42
   2   7   4  200.24   12.48
   2   7   4  176.97   14.40
   2  -7   4  214.99   15.51
   2   7   5    0.85    4.31
   2  -7   5    4.13    3.23
  -2  -7  -6   10.59    3.91
   2   7   6    6.00    4.38
   2  -7   6   10.24    4.51
   2  -7   7    7.00    4.39
  -2  -7  -7    7.24    3.31
   2  -7   8   60.90   11.26
   2   7   8   59.68   11.16
  -2   8   8   -1.47    4.29
  -2  -8   8    0.69    3.04
  -2  -8   7   70.59   11.05
  -2   8   7   77.16   12.16
   2  -8  -7   58.22    9.20
  -2  -8   7   55.95    9.12
  -2  -8   6  132.80   13.06
  -2  -8   6  135.21   14.09
   2  -8  -6  130.40   13.32
  -2   8   6  124.28   14.14
  -2  -8   5   37.04    7.13
  -2  -8   5   33.17    6.27
   2  -8  -5   47.47    7.78
  -2   8   5   46.51    8.23
  -2  -8   4  435.43   19.51
   2   8  -4  404.52   21.57
  -2   8   4  421.74   22.03
   2  -8  -4  449.40   22.46
  -2  -8   3  588.44   20.65
  -2   8   3  550.87   19.85
   2   8  -3  562.86   24.23
   2  -8  -3  543.02   23.92
   2   8  -2   -2.06    3.16
   2  -8  -2   -0.06    2.59
  -2  -8   2   -0.79    1.76
  -2   8   2    1.29    1.79
   2   8  -1   88.70    9.57
   2  -8  -1   88.10    9.04
   2   8  -1   81.22    4.79
  -2  -8   1   90.95    6.55
  -2   8   1   90.39    8.28
  -2   8   0  123.18    9.78
   2  -8   0  121.08    8.80
   2  -8   0  126.76   10.53
  -2  -8   0  117.34    5.51
   2   8   0  122.92   11.22
   2  -8   1   31.07    5.15
   2  -8   1   29.59    4.78
   2   8   1   36.33    6.39
   2  -8   2  626.63   23.41
   2   8   2  625.49   25.74
   2  -8   2  644.11   22.03
   2  -8   3    4.33    2.19
   2  -8   3    3.51    2.47
   2   8   3    5.66    2.91
   2   8   4  209.63   13.44
   2  -8   4  229.82   16.47
   2   8   4  217.13   16.18
   2   8   5   58.21    9.40
   2  -8   5   59.99    9.42
   2   8   6   19.56    6.25
  -2  -8  -6   21.25    6.17
   2  -8   6   32.43    7.61
   2  -8   7  180.10   18.30
  -2  -8  -7  174.32   16.20
   2  -8   8   -9.07    4.83
   2   8   8    5.69    3.86
  -2  -9   8  114.09   15.11
  -2   9   8  130.60   16.86
  -2   9   7  106.75   14.46
   2  -9  -7   97.81   12.38
  -2  -9   7   86.66   11.46
  -2  -9   7   91.95   12.83
  -2   9   6   61.67   10.13
  -2  -9   6   77.02    9.99
  -2  -9   6   84.36   11.34
   2  -9  -6   78.86   10.77
  -2  -9   5   24.77    5.50
   2  -9  -5   16.47    5.20
  -2  -9   5   19.43    5.06
   2   9  -5   20.91    6.03
  -2   9   5   15.26    5.67
  -2  -9   4  121.79   10.37
  -2  -9   4  124.50   11.56
   2   9  -4  112.64   12.09
   2  -9  -4  134.27   13.10
  -2   9   4  111.55   11.85
   2  -9  -3   18.64    5.21
  -2   9   3   20.94    4.50
  -2  -9   3   21.30    4.20
  -2  -9   3   19.97    4.47
  -2  -9   3   21.74    4.21
   2   9  -3   21.30    5.52
  -2   9   3   17.71    5.27
  -2  -9   2  172.82   10.63
   2  -9  -2  162.99   13.43
  -2   9   2  171.67   11.75
  -2  -9   2  153.20   10.15
   2   9  -2  166.69   13.85
  -2  -9   1  156.76    8.57
   2   9  -1  167.45   13.77
  -2   9   1  158.97   11.59
   2  -9  -1  154.95   12.89
   2   9   0  389.25   20.47
   2  -9   0  379.62   19.36
   2  -9   0  372.30   16.04
  -2   9   0  377.40   18.40
   2  -9   1   73.49    7.76
  -2   9  -1   81.40    9.22
   2  -9   1   86.88    8.98
   2   9   1   93.28   10.42
   2   9   2  114.55   11.83
   2  -9   2   92.95    9.48
   2  -9   2  108.13    9.63
   2  -9   3  300.92   15.28
   2   9   3  286.89   16.99
   2  -9   3  257.30   17.12
   2   9   4   93.08    9.37
   2  -9   4  105.78   11.62
   2  -9   5   73.93   10.68
  -2  -9  -5   72.88   10.63
   2  -9   6   20.42    6.34
  -2  -9  -6   23.12    6.21
   2  -9   7    9.80    4.79
  -2  -9  -7    0.27    1.68
  -2  10   8    8.25    5.49
  -2 -10   8    5.34    3.64
  -2  10   7  103.26   14.71
   2 -10  -7  109.92   13.67
  -2 -10   7   95.18   13.24
   2  10  -7   99.19   13.79
  -2  10   6   34.20    8.48
   2 -10  -6   62.20   10.34
  -2 -10   6   36.57    7.70
   2  10  -6   39.91    8.59
  -2  10   5   21.07    6.09
  -2 -10   5   39.31    7.45
   2 -10  -5   38.75    8.16
   2  10  -5   35.75    7.72
  -2 -10   4   27.99    5.59
   2 -10  -4   20.78    5.99
  -2  10   4   29.07    6.70
   2  10  -4   28.52    6.58
   2  10  -3  107.87   11.97
  -2 -10   3  105.97    9.79
  -2  10   3  114.63   10.38
   2 -10  -3   99.99   11.52
  -2  10   3   89.37   10.25
  -2 -10   3  101.38    9.39
   2  10  -2    2.04    3.69
   2 -10  -2   -2.41    3.48
  -2 -10   2   -1.48    1.91
  -2  10   2    2.82    2.34
  -2  10   2   -2.35    2.89
  -2 -10   2   -0.61    1.13
  -2  10   1  301.43   14.88
   2  10  -1  311.29   19.69
  -2  10   1  296.51   16.80
   2 -10  -1  305.42   18.82
   2 -10   0    0.81    2.43
   2  10   0    1.40    4.74
   2 -10   0    2.55    2.01
  -2  10   0    2.53    2.93
   2 -10   1  478.99   20.30
  -2  10  -1  453.41   22.40
   2  10   1  473.41   24.30
   2 -10   1  476.53   21.99
   2  10   2   54.24    8.69
   2 -10   2   66.22    8.27
   2 -10   2   65.75    8.14
   2 -10   3  455.62   23.10
   2  10   3  431.85   21.84
   2 -10   3  429.09   19.31
   2 -10   4   67.39    9.70
  -2 -10  -4   66.83   10.35
   2 -10   5   14.68    5.36
  -2 -10  -5   18.31    5.93
   2 -10   6   -5.04    3.54
  -2 -10  -6    5.94    3.59
  -2 -10  -7   85.73   12.48
   2 -10   7   98.72   14.24
  -2  11   7    0.98    3.85
   2 -11  -7    2.90    3.26
   2  11  -7    0.16    3.25
  -2 -11   7   -9.68    4.42
  -2  11   6    4.71    4.61
   2 -11  -6    0.23    2.57
  -2 -11   6    0.99    2.30
   2  11  -6    7.41    5.05
  -2  11   5   33.74    8.06
   2 -11  -5   31.19    7.50
  -2 -11   5   29.64    6.51
   2  11  -5   22.96    6.41
  -2  11   4    3.81    3.42
  -2 -11   4    1.48    1.91
   2 -11  -4   -8.04    4.11
   2  11  -4   -1.57    3.62
  -2  11   3   16.76    4.49
   2 -11  -3    9.86    4.86
  -2 -11   3    8.42    3.13
   2  11  -3   10.85    4.83
  -2  11   3    5.65    3.39
  -2  11   2   20.28    4.97
  -2 -11   2   10.26    3.41
   2 -11  -2   13.92    4.97
  -2  11   2   12.41    3.83
   2  11  -2   13.06    5.13
   2 -11  -1  518.43   25.75
   2  11  -1  550.00   27.35
  -2 -11   1  556.55   25.40
  -2  11   1  540.72   24.27
  -2 -11   0   29.43    6.77
   2 -11   0   28.05    6.02
  -2  11   0   34.86    6.58
   2  11   0   24.27    6.00
   2  11   1   19.09    6.21
   2 -11   1   23.31    4.81
   2 -11   1   26.33    5.77
  -2 -11  -1   23.98    6.23
  -2  11  -1   15.82    4.16
   2 -11   2   52.32    7.69
   2 -11   2   47.58    7.48
   2  11   2   55.20    8.96
  -2 -11  -2   71.38   10.67
  -2  11  -2   50.78    8.34
   2 -11   3   24.95    5.62
   2  11   3   32.40    6.35
  -2 -11  -3   32.26    7.71
   2 -11   4   26.98    6.47
  -2 -11  -4   27.81    7.34
   2 -11   5  249.27   20.29
  -2 -11  -5  227.74   20.24
   2 -11   6    9.69    4.83
  -2 -11  -6   -0.36    2.45
  -2 -11  -7    8.73    4.81
   2 -11   7   14.87    5.92
  -2  12   7   15.18    6.90
   2 -12  -7    2.15    3.00
  -2 -12   7   17.10    5.43
   2  12  -7    6.46    4.73
   2  12  -6  115.84   15.41
  -2 -12   6  120.05   14.20
   2 -12  -6  140.71   16.48
  -2  12   6  120.53   15.36
  -2  12   5    5.99    3.97
   2 -12  -5   19.45    6.10
  -2 -12   5   25.17    6.25
   2  12  -5   12.92    5.41
   2  12  -4  180.81   17.85
   2 -12  -4  155.35   16.25
  -2  12   4  167.43   15.53
   2 -12  -3  160.19   16.10
  -2  12   3  146.52   13.19
   2  12  -3  142.55   15.37
  -2  12   3  141.09   13.10
   2 -12  -2   23.34    6.21
  -2 -12   2   24.03    5.54
  -2  12   2   31.50    6.17
   2  12  -2   28.93    7.20
   2 -12  -1    1.72    2.72
  -2 -12   1    0.86    2.36
   2  12  -1   -0.79    4.71
  -2  12   1    2.26    2.46
   2  12   0  213.52   17.89
  -2 -12   0  207.34   16.91
   2 -12   0  218.58   17.19
  -2  12   0  217.07   16.84
   2  12   1  116.95   13.70
  -2  12  -1  104.61   12.38
   2 -12   1  111.11   12.02
  -2 -12  -1  109.42   12.89
   2 -12   2   28.97    6.02
   2 -12   2   29.37    6.05
  -2 -12  -2   21.88    6.21
   2  12   2   30.12    8.00
  -2  12  -2   20.99    6.47
   2  12   3  134.43   13.41
  -2  12  -3  118.76   14.09
  -2 -12  -3  128.74   14.94
   2 -12   3  118.22   12.57
  -2 -12  -4    1.79    3.47
   2 -12   4    1.61    2.28
   2 -12   5  100.73   13.23
  -2 -12  -5  106.71   14.42
   2 -12   6  149.84   17.24
  -2 -12  -6  153.53   17.61
  -2  13   6   53.65   10.64
   2  13  -6  103.22   15.05
   2 -13  -6   84.21   13.52
  -2  13   5    9.43    4.91
   2 -13  -5    4.83    4.67
   2  13  -5    1.39    4.32
   2 -13  -4  151.42   17.08
   2  13  -4  148.98   16.97
  -2  13   4  131.97   14.08
   2 -13  -3   13.18    5.73
   2  13  -3    7.67    5.41
   2 -13  -2  156.30   16.24
   2  13  -2  148.38   16.18
  -2  13   2  165.98   14.88
  -2 -13   2  160.15   14.45
  -2  13   1   10.65    4.62
   2 -13  -1   11.21    4.46
  -2 -13   1   10.69    4.28
   2  13  -1    5.78    4.53
   2 -13   0    2.61    3.40
   2  13   0    1.82    3.86
  -2 -13   0    6.97    4.13
  -2  13   0   -0.68    2.52
   2  13   1   54.52    9.76
   2 -13   1   36.48    7.35
  -2 -13  -1   49.05    9.12
  -2  13  -1   39.25    7.77
  -2 -13  -2   28.54    8.09
   2  13   2   25.12    7.30
   2 -13   2   21.87    5.38
  -2  13  -2   24.28    7.03
  -2 -13  -3   -2.33    5.06
  -2  13  -3   -8.31    4.66
   2 -13   4    8.83    4.25
  -2 -13  -4   17.29    6.40
  -2  13  -4   28.34    7.81
   2 -13   5   47.22    9.26
  -2 -13  -5   60.98   11.51
   2 -13   6   10.72    4.91
  -2  14   6  206.91   20.50
   2 -14  -5    5.35    4.44
   2  14  -5   -1.49    4.35
   2  14  -4  226.66   21.83
   2 -14  -4  185.60   19.60
   2 -14  -3    2.57    3.95
   2  14  -3    6.38    5.88
   2  14  -2   -1.27    3.49
  -2 -14   2    0.86    2.60
   2 -14  -2    1.61    2.34
  -2  14   2    0.10    2.05
  -2  14   1    3.70    3.38
   2 -14  -1    0.84    2.81
  -2 -14   1    5.52    3.34
   2  14  -1    4.53    4.22
  -2  14   0  118.41   13.79
   2  14   0  155.56   17.17
   2 -14   0  137.76   15.33
  -2 -14   0  139.21   15.24
   2 -14   1    2.55    3.07
  -2 -14  -1    5.45    4.91
   2  14   1   -0.04    3.58
  -2  14  -1    2.37    3.63
  -2  14  -2  160.17   17.16
   2  14   2  169.28   17.91
   2 -14   2  138.70   14.25
  -2 -14  -2  138.08   16.18
  -2 -14  -3    4.14    4.04
  -2  14  -3   -3.15    3.92
  -2  14  -4  153.84   18.07
  -2 -14  -4  164.29   18.76
   2  15  -4   36.33    9.32
   2 -15  -3   -4.72    4.02
   2  15  -3   -1.75    3.96
   2 -15  -2   86.68   13.26
   2  15  -2   85.17   13.31
   2 -15  -1    1.70    2.76
  -2  15   1   -1.96    3.05
  -2 -15   1    0.16    2.53
   2  15   0   54.23   10.72
   2 -15   0   58.01   10.37
  -2  15   0   52.69    9.84
  -2 -15   0   75.32   11.92
  -2  15  -1   39.71    8.59
   2 -15   1   45.86    8.79
   2  15   1   27.48    7.69
  -2 -15  -1   52.08   10.14
  -2 -15  -2   89.54   13.79
   2  15   2   82.03   13.30
  -2  15  -2   58.02   10.78
  -2 -15  -3    2.52    3.44
  -2  15  -3    6.80    4.93
   2 -16  -2    4.45    3.84
  -2 -16   1    5.81    3.80
   2 -16  -1    8.82    4.52
   2  16  -1    6.36    5.00
   2 -16   0   54.93   10.50
   2  16   0   67.88   12.69
  -2 -16   0   57.85   10.83
  -2  16   0   79.46   12.33
   2 -16   1   49.23    9.65
  -2 -16  -1   59.70   11.46
  -2  16  -1   79.63   12.80
   2  16   1   75.85   13.14
  -2  16  -2    9.04    5.51
  -2 -17   1  146.20   16.99
  -3   0   9   22.92    6.30
  -3   0   8   -7.73    4.79
  -3   0   8    2.30    3.08
  -3   0   7  408.68   24.54
  -3   0   6   -0.50    3.47
   3   0  -5  349.64   13.15
  -3   0   5  388.72   20.08
   3   0  -5  353.02   10.76
   3   0  -4   -0.16    0.80
   3   0  -4   -1.13    1.44
   3   0  -3   -0.46    1.27
  -3   0   3    1.89    2.80
   3   0  -3   -0.44    0.61
   3   0  -3    0.42    1.08
   3   0  -2   -1.21    1.87
   3   0  -2   -0.29    1.29
   3   0  -2    0.45    0.47
   3   0  -1 1276.72   23.74
   3   0  -1 1260.13   24.29
   3   0   0    0.77    1.55
   3   0   1 1997.14   33.15
   3   0   1 1975.35   31.56
   3   0   2   -0.22    1.80
   3   0   2    0.56    1.83
   3   0   2    0.16    1.50
   3   0   3  402.37   16.65
   3   0   3  389.73   17.31
   3   0   3  379.82   16.76
   3   0   4    1.06    1.54
   3   0   4   -0.09    2.45
   3   0   4   -0.05    1.91
   3   0   5  268.45   16.10
   3   0   5  293.02   17.53
   3   0   5  254.19   15.40
   3   0   6    0.11    2.09
   3   0   6   -3.04    2.23
   3   0   6   -4.66    3.01
   3   0   7  248.44   18.22
   3   0   7  245.92   18.79
   3   0   8   -3.27    2.68
   3   0   8   -0.26    2.56
   3   0   9  220.03   20.31
   3   0   9  202.02   18.91
  -3   1  10  104.08   14.38
  -3  -1   9   30.53    7.12
  -3  -1   9   33.36    8.78
  -3   1   9   24.07    6.84
  -3  -1   8   89.89   12.89
  -3   1   8   96.79   13.20
  -3  -1   8  114.50   12.69
  -3   1   8   93.27   12.29
  -3  -1   7   94.23   11.84
  -3   1   7   88.54   11.91
  -3  -1   6  100.11   11.36
  -3   1   6   87.65   10.65
   3  -1  -5    1.21    1.25
   3   1  -5    4.63    1.85
  -3  -1   5    3.97    4.38
  -3   1   5    7.16    3.73
   3  -1  -4  532.65   11.49
  -3  -1   4  507.40   21.10
  -3   1   4  517.44   20.89
   3   1  -4  519.09   15.06
   3   1  -4  536.75   15.84
   3  -1  -4  520.61   16.94
   3  -1  -3  262.80    9.01
  -3  -1   3  266.32   13.95
   3   1  -3  252.92   10.75
   3  -1  -3  235.46   11.20
   3   1  -3  260.38    8.67
   3   1  -3  261.54   10.93
  -3   1   3  261.35   13.45
   3  -1  -2 1268.58   21.55
  -3   1   2 1274.46   27.22
   3   1  -2 1298.36   24.38
   3   1  -2 1315.56   17.77
   3  -1  -2 1293.16   25.71
   3  -1  -1 1966.06   28.83
   3   1  -1 2011.99   31.13
   3  -1  -1 1982.07   31.20
   3   1   0  260.60   11.62
   3  -1   0  257.57   11.30
   3  -1   0  265.11   11.37
   3   1   1  344.09   13.98
   3  -1   1  348.45   13.80
   3   1   1  343.61   13.49
   3  -1   1  362.18   13.63
   3   1   1  389.50   13.46
   3  -1   1  352.53   14.26
   3   1   2  554.81   18.78
   3  -1   2  555.02   18.59
   3   1   2  558.33   18.96
   3  -1   2  550.42   19.16
   3   1   2  516.69   16.60
   3  -1   3   30.68    5.03
   3   1   3   28.79    4.61
   3  -1   3   30.53    4.99
   3   1   3   37.83    4.95
   3  -1   3   31.25    5.11
   3   1   3   29.29    5.17
   3   1   4  237.71   13.46
   3  -1   4  228.32   14.12
   3  -1   4  223.48   14.18
   3  -1   4  233.25   14.24
   3   1   4  238.52   14.78
   3   1   4  228.22   13.50
   3  -1   5   59.67    7.71
   3  -1   5   58.74    7.95
   3   1   5   61.85    7.55
   3   1   5   65.17    8.38
   3  -1   5   70.06    8.68
   3   1   5   66.31    7.86
   3   1   6   39.52    6.72
   3  -1   6   43.01    7.17
   3  -1   6   45.21    7.70
   3   1   6   44.19    7.42
   3   1   6   43.89    6.72
   3  -1   6   35.98    6.59
   3   1   7   66.79   10.00
   3  -1   7   62.11    9.51
   3   1   7   65.85    9.17
   3  -1   7   54.80    9.07
   3   1   8   16.16    5.90
   3  -1   8   14.67    5.27
   3  -1   8   20.44    5.98
   3   1   8   12.52    4.38
   3   1   9   84.98   12.89
   3  -1   9  102.68   13.60
   3  -1   9  117.87   14.83
  -3   2  10    6.78    3.50
  -3   2   9   28.86    8.45
  -3  -2   9   13.49    6.38
  -3  -2   8  167.85   17.27
  -3   2   8  128.04   15.11
  -3   2   8  122.97   14.11
  -3  -2   8  124.62   12.81
  -3  -2   7  139.73   14.69
  -3   2   7  147.40   14.78
  -3  -2   6  488.70   24.57
  -3   2   6  510.48   24.74
   3  -2  -6  492.39   18.26
  -3  -2   5  140.20   12.54
  -3   2   5  141.58   12.07
   3  -2  -5  135.14    9.44
  -3  -2   4  580.65   22.81
  -3   2   4  559.83   21.30
   3  -2  -4  588.58   19.08
   3  -2  -4  589.88   10.02
  -3   2   3   60.01    6.60
  -3  -2   3   41.30    5.86
   3   2  -3   56.91    4.74
   3  -2  -3   44.64    5.23
   3  -2  -3   52.55    3.79
  -3   2   2  721.32   19.98
   3   2  -2  749.97   19.94
   3  -2  -2  741.87   20.34
   3  -2  -2  695.48   15.83
   3   2  -2  735.80   16.05
   3   2  -1 2605.05   37.63
   3   2  -1 2652.14   31.47
   3  -2  -1 2670.01   37.93
   3  -2  -1 2716.01   34.09
   3   2   0  656.58   19.27
   3  -2   0  676.04   18.78
   3  -2   0  680.94   18.81
   3   2   1  374.48   14.09
   3   2   1  371.94   14.91
   3  -2   1  370.48   14.88
   3  -2   1  380.60   14.04
   3  -2   1  355.22   14.75
   3   2   2  423.90   16.44
   3  -2   2  439.96   17.24
   3  -2   2  438.90   15.31
   3   2   2  452.08   14.78
   3   2   2  425.38   16.72
   3  -2   2  423.36   17.20
   3   2   3  274.24   13.95
   3   2   3  276.74   12.63
   3  -2   3  279.42   15.02
   3   2   3  284.33   14.92
   3  -2   3  281.29   14.93
   3   2   4  342.35   15.62
   3  -2   4  347.92   18.16
   3  -2   4  367.01   18.04
   3   2   4  336.20   17.95
   3  -2   4  352.31   17.88
   3   2   4  340.56   16.45
   3   2   5  365.90   17.62
   3  -2   5  355.12   18.98
   3  -2   5  336.72   19.05
   3   2   5  337.89   19.45
   3  -2   5  364.31   19.29
   3   2   5  353.16   17.70
   3  -2   6   99.68   11.15
   3  -2   6   93.57   10.47
   3   2   6   82.55    9.09
   3   2   6   96.37    9.90
   3   2   6   92.36   11.04
   3  -2   6   89.50   10.69
   3  -2   7    9.34    3.70
   3   2   7    9.89    3.41
   3  -2   7   11.75    4.75
   3   2   7   11.91    4.81
   3   2   8   87.94   12.46
   3  -2   8   53.01    9.61
   3  -2   8   76.33   11.07
   3  -2   9   35.07    7.92
   3  -2   9   26.62    7.60
   3   2   9   25.05    7.44
  -3   3  10  168.38   19.08
  -3   3   9    6.76    5.66
  -3  -3   9    1.15    4.76
  -3  -3   8   82.60   12.25
  -3   3   8   95.05   12.71
  -3  -3   7  132.89   14.39
  -3   3   7  165.86   15.59
  -3   3   7  143.82   14.65
  -3  -3   7  160.50   13.02
  -3  -3   6   85.46   10.55
  -3   3   6   81.10    9.96
   3  -3  -6   78.75    7.89
   3  -3  -5   40.01    5.66
  -3  -3   5   37.78    6.99
  -3   3   5   36.79    6.37
  -3  -3   4  604.56   23.34
  -3   3   4  574.17   21.41
   3  -3  -4  585.30   20.09
  -3  -3   3   11.21    3.36
   3  -3  -3   21.04    4.03
  -3   3   3   19.18    3.89
   3  -3  -3   16.27    2.22
   3   3  -3   14.66    2.90
   3  -3  -2   16.90    3.48
  -3   3   2   16.96    3.03
   3  -3  -2   16.58    2.59
   3   3  -2   21.98    3.41
   3  -3  -1   -0.39    1.83
   3  -3  -1    0.03    1.29
   3   3  -1    1.46    1.70
   3   3  -1    1.56    2.28
   3   3   0  734.38   17.73
   3   3   0  745.83   21.48
   3  -3   0  720.59   20.52
   3  -3   0  731.21   20.55
   3  -3   0  750.96   20.41
   3  -3   1   21.94    3.70
   3   3   1   25.38    3.80
   3  -3   1   16.70    3.61
   3  -3   1   23.65    4.16
   3   3   1   25.40    4.22
   3   3   2  114.26    8.96
   3  -3   2  120.50    9.59
   3  -3   2  124.15    9.62
   3   3   2  116.36    7.12
   3   3   2  106.96    8.45
   3  -3   2  103.31    7.49
   3   3   3  213.76   12.56
   3   3   3  235.95   11.12
   3  -3   3  224.50   13.95
   3   3   3  219.61   13.44
   3  -3   3  218.52   13.65
   3   3   4   37.48    5.65
   3   3   4   44.38    5.31
   3  -3   4   45.60    6.95
   3  -3   4   58.27    7.73
   3   3   4   41.73    6.81
   3   3   5    7.16    2.64
   3  -3   5    8.27    3.40
   3   3   5   10.56    2.88
   3  -3   5    8.70    3.97
   3   3   5    9.00    3.95
   3   3   6  152.15   12.04
   3  -3   6  153.13   14.39
   3   3   6  149.31   14.43
   3  -3   6  149.83   13.44
   3   3   6  148.33   11.97
   3  -3   7    7.26    3.52
   3  -3   7   -0.36    2.25
   3   3   7   11.99    4.84
   3  -3   8    7.44    3.30
   3  -3   8    4.76    3.45
   3  -3   9   13.18    5.47
   3   3   9   15.77    5.55
  -3   4   9   10.26    5.78
  -3  -4   9   10.10    5.19
  -3  -4   8  225.73   20.06
  -3   4   8  211.28   19.51
  -3  -4   7    5.96    4.16
  -3   4   7   -5.99    5.48
  -3   4   7    1.11    4.07
  -3  -4   6   88.36   10.97
  -3   4   6   86.33   10.58
   3  -4  -6   81.64    8.54
   3  -4  -5    9.22    3.08
  -3  -4   5    4.49    4.26
  -3   4   5    5.30    3.20
  -3  -4   4  290.83   16.68
  -3   4   4  240.29   13.81
   3   4  -4  280.83   13.83
   3  -4  -4  250.44   14.05
  -3  -4   3  398.62   17.92
  -3   4   3  382.34   15.57
   3  -4  -3  383.85   16.86
   3   4  -3  414.75   15.83
  -3   4   2  148.00    8.81
  -3   4   2  150.32    5.14
   3   4  -2  160.83    9.63
   3  -4  -2  159.15    8.13
   3  -4  -2  142.51    9.96
   3  -4  -1  100.83    7.23
   3   4  -1  109.33    7.93
   3  -4  -1  103.12    8.33
   3  -4   0  308.19   13.62
   3   4   0  280.09   14.12
   3   4   0  278.62   10.92
   3   4   0  273.06   13.09
   3  -4   0  288.84   13.54
   3  -4   0  267.66   12.91
   3  -4   1   -0.35    1.38
   3   4   1   -0.89    2.51
   3  -4   1   -1.04    2.33
   3   4   1    0.62    1.34
   3  -4   1    0.09    1.81
   3   4   2  876.47   25.08
   3  -4   2  895.63   22.83
   3  -4   2  900.53   26.58
   3   4   2  870.01   24.38
   3  -4   2  876.79   26.63
   3  -4   3   16.00    3.28
   3  -4   3    8.16    3.95
   3   4   3   13.89    2.60
   3  -4   3   11.56    3.81
   3   4   3   12.21    3.76
   3   4   3   11.58    3.27
   3   4   4  439.26   19.05
   3   4   4  457.75   16.25
   3  -4   4  483.24   22.53
   3   4   4  449.51   21.48
   3  -4   4  484.48   22.27
   3   4   5    3.25    1.60
   3   4   5    4.03    2.18
   3  -4   5    1.48    2.28
   3   4   5    5.96    4.27
   3  -4   6  186.90   16.29
   3   4   6  160.28   15.37
   3  -4   7    0.15    2.21
   3   4   7    1.74    2.34
   3  -4   8   32.57    8.03
   3   4   8   17.76    6.07
   3  -4   9    5.77    4.20
  -3   5   9   57.95   11.42
  -3  -5   9   51.20   10.49
  -3  -5   9   47.88   10.39
  -3  -5   8   -1.38    4.23
  -3   5   8    7.42    5.10
  -3  -5   7  272.82   20.51
  -3   5   7  260.61   20.46
   3  -5  -6   10.15    3.80
  -3  -5   6   12.59    4.80
  -3   5   6    8.68    3.90
  -3  -5   5  330.77   19.14
  -3   5   5  349.00   18.69
   3  -5  -5  320.80   17.53
  -3  -5   4  748.47   26.54
  -3   5   4  705.42   23.47
   3   5  -4  727.26   24.14
   3  -5  -4  780.09   26.28
  -3  -5   3  276.66   15.11
  -3   5   3  262.57   12.80
   3   5  -3  283.25   14.36
   3  -5  -3  255.26   14.72
  -3   5   2    6.24    2.16
   3  -5  -2    4.50    2.83
  -3   5   2    2.44    1.07
   3   5  -2    4.70    2.45
  -3   5   1  443.17   13.30
   3   5  -1  457.91   17.34
  -3   5   1  397.35   12.30
   3  -5  -1  435.26   17.71
   3  -5   0    5.89    2.39
   3  -5   0    6.71    2.77
   3   5   0   14.14    4.34
   3  -5   0    6.75    2.32
   3   5   0    4.20    1.31
   3   5   0    5.72    3.06
   3   5   1   73.22    7.78
   3  -5   1   79.04    7.68
   3   5   1   66.75    6.34
   3  -5   1   87.74    7.68
   3  -5   1   91.64    8.67
   3   5   2  884.00   26.38
   3  -5   2  865.63   26.95
   3   5   2  816.04   24.42
   3  -5   2  863.89   23.70
   3  -5   2  826.72   27.11
   3   5   3  578.68   21.57
   3  -5   3  548.33   18.15
   3  -5   3  620.76   24.48
   3   5   3  604.34   23.24
   3   5   4   73.86    7.91
   3  -5   4   98.17   10.59
   3   5   4  105.44   10.72
   3  -5   5   60.48    9.09
   3   5   5   48.67    6.75
   3   5   5   54.00    8.66
   3  -5   6    1.63    3.20
   3   5   6    0.22    2.57
   3  -5   7  155.90   16.35
   3   5   7  169.35   17.05
   3  -5   8    2.60    2.98
   3   5   8    5.77    3.96
  -3  -6   9  219.22   21.30
  -3  -6   9  207.33   21.06
  -3   6   9  203.90   20.93
  -3  -6   8   12.28    5.78
  -3   6   8    0.58    4.43
  -3  -6   7  207.16   18.04
   3  -6  -7  202.84   15.41
  -3   6   7  223.54   19.50
  -3  -6   6   62.56    9.38
  -3   6   6   51.95    8.11
   3  -6  -6   74.31    9.25
  -3  -6   5  403.89   21.37
  -3   6   5  380.86   19.14
   3   6  -5  421.79   20.67
   3  -6  -5  373.04   20.00
  -3  -6   4  155.49   12.43
  -3   6   4  138.88   10.42
   3   6  -4  147.42   11.73
   3  -6  -4  158.79   12.71
  -3  -6   3    0.26    2.92
   3  -6  -3    2.74    2.93
  -3   6   3    6.50    2.70
   3   6  -3   -1.54    2.51
  -3   6   2  900.36   19.89
   3  -6  -2  897.73   28.08
  -3   6   2  845.75   18.09
   3   6  -2  895.92   26.56
  -3   6   1  297.58   10.13
   3  -6  -1  302.03   15.87
  -3   6   1  290.34   11.65
   3   6  -1  330.70   15.95
   3  -6   0  126.06    9.47
   3   6   0  119.88    7.45
   3   6   0  130.87   10.51
   3  -6   0  112.58    9.53
   3   6   1  944.30   28.60
   3  -6   1  927.95   27.00
   3   6   1  938.30   23.90
   3  -6   1  923.20   26.00
   3   6   1  943.46   28.71
   3   6   2   48.31    6.77
   3   6   2   50.12    6.52
   3  -6   2   54.64    6.37
   3  -6   2   49.21    6.97
   3   6   3  213.53   13.68
   3  -6   3  206.98   14.79
   3   6   3  201.31   13.86
   3  -6   3  230.76   12.37
   3  -6   4    0.24    1.22
   3  -6   4    0.40    2.20
   3   6   4    1.45    2.82
   3   6   4   -0.53    1.85
   3   6   5  177.34   12.92
   3  -6   5  203.58   16.71
   3   6   5  186.58   15.78
   3  -6   6   13.62    5.05
   3   6   6   18.36    5.79
   3  -6   7   20.47    6.68
   3   6   7   22.35    6.83
   3  -6   8   59.03   11.17
   3   6   8   62.79   11.47
  -3  -7   9   31.28    8.18
  -3   7   8   44.88   10.64
  -3  -7   8   27.81    7.21
  -3  -7   8   40.21    9.04
  -3  -7   7   90.35   12.26
  -3   7   7   89.95   13.13
   3  -7  -7   93.71   11.21
   3  -7  -6   58.17    8.71
  -3  -7   6   50.12    8.43
  -3   7   6   57.86    9.95
  -3  -7   5    1.14    3.11
   3  -7  -5    5.90    3.12
  -3   7   5    0.58    2.28
   3   7  -5   -1.68    2.67
  -3  -7   4   17.54    4.65
   3  -7  -4   26.52    5.81
  -3   7   4   19.80    3.93
   3   7  -4   16.12    4.68
  -3  -7   3  476.91   20.57
  -3   7   3  479.88   16.57
   3  -7  -3  472.31   21.96
   3   7  -3  498.86   21.77
  -3   7   2   56.59    5.42
  -3  -7   2   54.89    6.79
  -3   7   2   53.43    4.56
   3   7  -2   70.23    8.31
   3  -7  -2   59.83    7.91
  -3   7   1  428.34   10.69
   3   7  -1  460.60   20.29
  -3   7   1  421.82   15.59
   3  -7  -1  453.16   20.52
   3   7  -1  435.08   11.67
   3  -7   0    1.12    1.77
  -3   7   0    0.87    0.66
   3  -7   0   -0.73    2.10
   3   7   0    1.00    1.44
   3   7   1  909.57   29.43
   3   7   1  923.74   24.54
   3   7   1  924.07   29.99
   3  -7   1  913.36   27.20
   3  -7   1  916.40   27.95
   3  -7   2   11.57    3.42
   3  -7   2   11.72    3.44
   3   7   2    5.18    2.52
   3   7   2   12.26    4.16
   3   7   3   97.68    9.71
   3  -7   3  110.19    9.06
   3  -7   3   98.46   10.73
   3   7   3  110.04   10.49
   3   7   4  142.12   11.85
   3  -7   4  156.91   14.29
   3   7   4  140.06   12.88
   3   7   5   67.80    8.16
   3  -7   5   62.81    9.68
   3   7   5   71.85   10.29
   3   7   6    7.58    3.87
   3  -7   6   -6.10    3.81
   3  -7   7  128.97   15.82
   3   7   7  136.17   15.88
   3  -7   8   20.67    6.76
   3   7   8   13.49    6.04
  -3   8   8   -0.03    3.24
  -3  -8   8    6.18    3.95
  -3  -8   8    3.76    4.16
   3  -8  -7   26.27    6.35
  -3  -8   7   23.02    6.48
  -3  -8   7   27.65    7.11
   3   8  -7   18.07    5.68
  -3   8   7   25.48    8.02
   3  -8  -6   89.12   11.49
  -3  -8   6   80.18   10.59
   3   8  -6   72.77   10.23
  -3   8   6   74.53   11.34
  -3  -8   5   25.37    5.91
   3  -8  -5   30.70    6.66
   3   8  -5   23.64    5.73
  -3  -8   4   71.54    8.79
   3  -8  -4   60.47    8.73
   3   8  -4   69.22    9.31
  -3  -8   3   19.62    4.73
   3  -8  -3   12.10    4.39
   3   8  -3   20.46    5.15
   3   8  -2  174.71   13.51
  -3  -8   2  182.33   12.41
  -3   8   2  179.34   10.54
   3  -8  -2  187.40   14.37
   3   8  -1  638.09   25.47
  -3   8   1  597.92   20.14
   3  -8  -1  668.56   25.96
   3  -8   0   20.28    4.92
   3  -8   0   22.20    4.48
   3   8   0   22.37    3.43
   3   8   0   13.76    4.61
  -3   8   0   17.22    4.05
   3   8   1  122.19   11.98
   3  -8   1  110.56   10.18
   3   8   1  130.34    9.54
   3  -8   1  117.68   10.50
   3   8   2   26.60    5.81
   3  -8   2   27.71    4.98
   3  -8   2   34.94    6.24
   3   8   2   21.66    4.54
   3  -8   3   14.62    4.37
   3  -8   3   13.98    3.56
   3   8   3   15.26    4.29
   3   8   3   22.42    5.19
   3   8   4    4.35    2.94
   3   8   4    7.20    2.73
   3  -8   4    4.10    3.72
   3   8   5  240.24   18.73
   3  -8   5  231.57   18.96
   3  -8   6   14.34    5.48
   3   8   6   17.22    6.20
  -3  -8  -7  102.29   12.88
   3   8   7  128.75   15.68
   3  -8   7  127.88   15.96
  -3   9   8   41.27   10.41
  -3  -9   8   37.61    8.68
  -3  -9   8   47.27   10.15
   3   9  -8   33.64    8.14
   3  -9  -7   13.21    4.69
  -3  -9   7   11.96    4.80
  -3  -9   7   16.02    5.69
   3   9  -7   18.13    5.85
  -3   9   7   17.97    6.88
  -3  -9   6  225.72   17.63
  -3  -9   6  221.21   18.58
   3   9  -6  213.28   18.20
   3  -9  -6  253.89   19.73
  -3   9   6  204.45   18.81
  -3  -9   5    1.20    2.42
   3  -9  -5    1.14    1.99
   3   9  -5   -2.37    3.18
  -3   9   5   -3.43    4.73
  -3  -9   4  221.80   15.21
   3   9  -4  198.92   16.07
   3  -9  -4  218.29   17.21
  -3  -9   3    0.60    1.72
   3  -9  -3   -1.86    3.01
   3   9  -3    6.20    4.19
  -3  -9   2  130.51   10.56
  -3   9   2  119.94    9.34
   3   9  -2  118.81   12.00
   3  -9  -2  129.85   12.47
   3  -9  -1   29.86    6.05
   3   9  -1   31.14    6.52
  -3   9   1   27.39    4.77
   3   9   0  331.73   19.70
   3  -9   0  347.19   17.29
   3   9   0  344.97   13.67
  -3   9   0  355.67   17.76
   3  -9   0  333.45   18.93
   3  -9   1   41.78    6.68
   3   9   1   42.67    5.77
   3  -9   1   35.65    6.00
   3   9   1   31.45    6.35
   3  -9   2    6.42    3.03
   3  -9   2    2.47    1.95
   3   9   2    8.50    3.79
   3   9   2    6.17    2.85
   3   9   3  212.93   15.73
   3   9   3  219.88   15.79
   3  -9   3  225.98   16.82
   3  -9   3  239.74   14.66
   3  -9   4  121.67   13.32
   3   9   4  109.60   11.21
   3   9   4  128.39   13.14
   3  -9   5   23.47    6.77
   3   9   5   39.09    7.72
  -3  -9  -6  130.31   15.16
   3  -9   6  128.26   15.41
   3   9   6  109.72   13.95
  -3  -9  -7    6.83    4.53
   3  -9   7    7.56    4.53
   3   9   7   18.36    6.32
  -3 -10   8  216.49   21.26
   3  10  -8  199.00   19.71
  -3  10   7    5.17    5.43
   3 -10  -7    7.04    4.40
  -3 -10   7   -3.23    3.15
   3  10  -7    3.07    4.09
  -3 -10   6  296.33   21.81
   3  10  -6  265.28   21.16
   3 -10  -6  281.62   21.78
  -3  10   6  243.46   20.98
   3 -10  -5   -0.27    2.99
  -3 -10   5   10.57    3.97
   3  10  -5   -1.49    3.86
  -3  10   5    6.44    4.71
  -3 -10   4  281.60   17.14
  -3  10   4  238.50   18.06
   3 -10  -4  310.52   21.58
  -3 -10   4  312.16   18.90
   3  10  -4  275.57   19.93
  -3 -10   3    9.25    3.57
   3 -10  -3    3.78    2.92
  -3 -10   3    2.73    2.01
   3  10  -3    2.97    3.78
   3 -10  -2  164.28   14.69
  -3 -10   2  140.41   11.05
  -3  10   2  141.29   10.94
   3  10  -2  146.32   14.03
   3 -10  -1   46.97    7.98
  -3  10   1   62.09    7.75
   3  10  -1   66.69    9.57
   3 -10   0   36.17    6.73
   3  10   0   34.92    7.36
  -3  10   0   38.12    6.43
   3 -10   0   34.57    5.52
   3 -10   1   52.82    7.49
   3 -10   1   46.77    7.42
   3  10   1   50.38    6.23
   3  10   1   50.87    9.13
  -3  10  -1   37.89    7.12
   3 -10   2   40.00    6.89
   3 -10   2   38.99    6.59
   3  10   2   29.25    5.44
   3  10   2   41.34    7.73
   3  10   3  105.75   11.53
   3 -10   3  113.28   12.37
   3  10   3  101.29   11.05
   3 -10   3  105.37   10.31
   3  10   4  162.74   14.34
   3 -10   4  164.46   15.87
   3  10   4  156.64   14.83
   3  10   5   15.28    4.96
   3 -10   5   15.32    5.61
   3 -10   6  134.04   16.26
   3  10   6  111.59   14.39
  -3 -10  -6  124.45   15.27
   3 -10   7   26.15    7.96
   3  10   7   30.50    8.44
  -3 -10  -7   26.84    7.18
  -3  11   7    1.69    4.14
   3 -11  -7   -2.77    2.99
  -3 -11   7    3.94    3.08
   3  11  -7    4.35    3.47
  -3 -11   6  171.98   16.77
   3  11  -6  149.64   16.65
   3 -11  -6  132.06   15.68
  -3  11   6  107.82   14.46
   3 -11  -5   24.81    7.51
  -3 -11   5   18.28    5.24
   3  11  -5   23.94    6.73
  -3  11   5   32.87    7.96
  -3 -11   4  504.02   24.31
   3  11  -4  452.03   26.95
   3 -11  -4  506.62   28.74
  -3  11   4  422.86   24.77
   3 -11  -3   21.58    6.21
  -3 -11   3   40.52    6.70
   3  11  -3   25.87    6.45
  -3  11   3   26.88    6.04
   3 -11  -2   63.39    9.82
   3  11  -2   90.94   11.86
   3 -11  -1    5.91    3.89
   3  11  -1    5.85    3.95
  -3  11   1    6.80    3.18
   3  11   0   75.45   10.86
   3 -11   0   64.63    9.33
  -3  11   0   73.63    9.24
   3 -11   1    2.34    2.49
   3 -11   1   -0.05    2.13
   3  11   1    4.36    4.18
  -3  11  -1    3.17    2.64
   3  11   2  153.67   12.60
   3  11   2  148.24   14.78
   3 -11   2  138.84   13.11
   3 -11   2  156.88   13.58
   3 -11   3   17.52    5.16
   3  11   3   10.07    3.82
   3 -11   4   88.98   12.10
   3  11   4   77.66   10.55
   3 -11   5    6.11    4.07
   3  11   5    3.48    3.24
  -3 -11  -5    5.01    3.99
   3 -11   6   16.48    6.22
   3  11   6   36.58    8.78
  -3 -11  -6   41.44    9.30
  -3 -11  -7    6.73    4.35
   3 -12  -7    8.49    4.66
  -3 -12   7    6.00    3.81
   3  12  -7    3.51    3.50
  -3  12   6   21.83    7.00
  -3 -12   6   18.53    5.81
   3  12  -6   31.88    8.77
   3 -12  -5    3.00    2.66
   3  12  -5   -0.22    3.14
  -3  12   5    4.52    4.05
   3 -12  -4   12.09    5.95
   3  12  -4   12.81    5.34
  -3  12   4   11.84    4.97
   3 -12  -3   50.05    9.42
   3  12  -3   74.90   11.44
  -3  12   3   62.91    9.19
  -3 -12   2  202.37   16.30
   3  12  -2  165.61   16.49
   3 -12  -2  182.12   17.20
   3 -12  -1   71.37   10.70
   3  12  -1   80.56   11.70
  -3  12   1   67.90    9.10
   3 -12   0   55.68    9.20
   3  12   0   81.37   11.74
  -3  12   0   77.13   10.08
   3 -12   1  128.55   12.13
   3  12   1  139.63   15.22
  -3  12  -1  137.14   13.79
   3 -12   1  129.58   13.41
   3 -12   2    9.13    3.72
   3 -12   2   -3.90    2.70
   3  12   2    7.78    4.17
  -3  12  -2   -5.63    3.66
   3 -12   3   30.74    6.94
   3  12   3   26.17    6.33
   3  12   3   36.70    6.97
   3 -12   4    8.07    3.88
  -3 -12  -4    9.98    5.14
   3  12   4   15.51    5.08
   3  12   5   -1.38    2.22
  -3 -12  -5    3.30    2.47
   3 -12   5    1.33    2.75
   3 -12   6    6.48    4.11
  -3 -12  -6    0.47    3.47
  -3  13   6   30.85    8.02
   3 -13  -6   26.10    8.22
   3  13  -6   50.67   10.75
  -3  13   5   14.96    6.05
   3  13  -5   19.12    6.99
   3 -13  -5    6.08    5.06
  -3  13   4    2.10    2.92
   3 -13  -4    7.28    4.62
   3  13  -4    5.28    4.26
   3  13  -3  117.81   15.05
   3 -13  -3  122.44   15.25
   3 -13  -2   45.71    9.40
  -3 -13   2   60.57    9.42
   3  13  -2   48.99    9.73
   3 -13  -1   95.64   12.79
  -3 -13   1   73.00   10.65
   3  13  -1   78.70   12.09
  -3  13   1   71.14    9.64
   3 -13   0   31.24    7.24
  -3 -13   0   31.94    7.50
   3  13   0   33.90    8.09
  -3  13   0   30.07    6.99
  -3 -13  -1  354.30   24.67
   3  13   1  405.03   27.02
  -3  13  -1  373.68   24.03
   3 -13   1  369.10   23.48
   3 -13   2   17.47    5.08
   3  13   2   35.44    8.34
  -3 -13  -2   32.11    8.26
  -3  13  -2   41.36    8.41
   3  13   3  191.18   17.59
   3 -13   3  205.07   17.73
  -3  13  -3  187.22   18.65
  -3 -13  -3  223.07   21.24
  -3 -13  -4   -1.90    4.31
   3  13   4   -1.59    1.96
   3 -13   4   -4.94    3.50
   3 -13   5    4.56    4.20
   3  13   5   11.53    4.69
  -3 -13  -5    6.57    4.63
   3  14  -5   68.03   12.36
   3 -14  -4    2.46    3.69
   3  14  -4   11.28    4.96
   3  14  -3   -0.97    3.24
   3 -14  -3    7.12    4.48
   3 -14  -2    7.98    4.67
  -3 -14   2    5.68    3.44
   3  14  -2   -2.05    4.86
   3 -14  -1   97.78   13.28
  -3 -14   1   96.62   12.80
   3  14  -1  100.22   14.25
   3 -14   0   -2.67    4.01
  -3 -14   0    0.35    3.35
   3  14   0    4.82    4.57
  -3  14   0   -2.82    3.50
  -3  14  -1  102.70   13.19
   3  14   1  107.46   14.86
   3 -14   1  125.77   14.39
  -3 -14  -1  121.29   15.24
   3  14   2    0.55    2.95
  -3  14  -2   -6.43    4.11
  -3 -14  -3    9.67    4.03
  -3  14  -3    5.69    3.71
  -3 -14  -4   17.96    6.74
  -3  14  -4   12.75    6.10
   3 -15  -3   72.91   12.90
   3  15  -3   84.67   13.81
   3  15  -2    3.22    3.43
   3 -15  -2    8.46    4.56
  -3 -15   1   -4.57    3.65
   3  15  -1   -1.30    2.65
  -3 -15   0    5.77    3.71
   3  15   0    1.64    3.73
   3 -15   1   85.13   12.31
  -3 -15  -1  118.77   15.58
   3  15   1   89.37   14.14
  -3  15  -1   83.74   12.43
   3  15   2   16.34    5.89
  -3 -15  -2   17.96    6.52
  -3  15  -2   21.35    7.24
  -3  15  -3  163.69   18.68
   3 -16  -1   15.27    6.03
  -3 -16   1   12.17    5.40
   3 -16   0   16.06    6.19
  -3 -16   0   23.86    7.28
   3 -16   1   10.08    3.96
  -3  16  -1    2.07    3.04
  -4   0   9    3.88    4.21
  -4   0   9   -0.64    3.29
  -4   0   8  123.58   15.09
  -4   0   7    1.68    3.36
  -4   0   6  529.49   26.36
   4   0  -5    1.47    1.38
  -4   0   5    1.73    4.61
  -4   0   4  175.29   13.36
   4   0  -4  161.72    8.84
   4   0  -4  171.81   10.63
   4   0  -3    1.04    2.02
   4   0  -3    0.31    1.43
  -4   0   3   -3.09    3.06
   4   0  -2    9.62    3.12
   4   0  -2    8.32    2.44
   4   0  -1    0.20    2.44
   4   0  -1   -1.11    1.45
   4   0   0    0.07    1.69
   4   0   1   -0.75    2.35
   4   0   2  691.78   22.68
   4   0   2  642.26   22.99
   4   0   3   -1.37    2.68
   4   0   3    0.56    1.89
   4   0   3    1.47    2.17
   4   0   4  160.61   12.47
   4   0   4  138.57   12.51
   4   0   4  166.13   13.14
   4   0   5   -0.98    2.64
   4   0   5   -6.12    3.12
   4   0   5   -2.05    2.36
   4   0   6  461.47   24.48
   4   0   6  480.15   26.15
   4   0   6  476.91   24.39
   4   0   7   -1.59    3.36
   4   0   7   -0.48    2.65
   4   0   7   -6.33    3.42
   4   0   8   21.29    6.50
   4   0   8   31.32    8.08
  -4   1  10    4.92    4.19
  -4  -1   9    8.28    4.95
  -4   1   9    4.78    4.74
  -4   1   9   16.23    5.84
  -4  -1   9   16.07    5.91
  -4  -1   8  200.09   19.37
  -4   1   8  201.64   19.08
  -4  -1   7    4.23    3.70
  -4   1   7    4.09    3.93
  -4  -1   6   54.76    9.02
  -4   1   6   57.24    8.98
  -4  -1   5  411.34   21.87
  -4   1   5  397.64   21.22
   4   1  -5  419.87   15.41
   4  -1  -5  385.41   16.77
   4   1  -4   -0.04    1.30
   4  -1  -4    1.94    2.41
  -4  -1   4   -0.92    3.69
  -4   1   4   -1.56    3.35
   4  -1  -4    1.47    1.24
   4   1  -4   -0.09    0.72
   4  -1  -3    8.78    3.20
  -4  -1   3    6.29    3.55
  -4   1   3    6.62    3.69
   4  -1  -3    8.81    2.24
   4   1  -3   10.57    2.74
   4   1  -3    9.87    1.79
   4  -1  -2   49.56    5.24
   4  -1  -2   43.35    5.56
   4   1  -2   43.15    5.28
   4  -1  -1  244.33   12.16
   4   1  -1  236.86   12.44
   4  -1  -1  233.62   12.49
   4  -1   0  199.86   11.61
   4   1   0  196.90   11.64
   4  -1   0  202.91   11.67
   4   1   1  253.17   13.89
   4  -1   1  256.15   13.56
   4  -1   1  275.93   14.39
   4   1   2  100.46    9.30
   4   1   2  106.92    9.25
   4   1   2   92.55    8.14
   4  -1   2   98.47    9.03
   4  -1   2  101.95    9.44
   4   1   3   12.58    3.88
   4   1   3   10.17    3.84
   4   1   3   14.75    3.82
   4  -1   3   19.15    4.59
   4  -1   3   17.88    4.67
   4  -1   4   74.05    8.79
   4  -1   4   69.33    8.78
   4   1   4   72.05    8.13
   4   1   4   63.92    8.53
   4  -1   4   68.54    8.56
   4   1   4   72.18    8.68
   4   1   5  218.56   15.09
   4  -1   5  229.72   16.85
   4  -1   5  249.38   17.12
   4   1   5  229.16   17.22
   4  -1   5  217.37   16.09
   4   1   5  239.43   16.51
   4  -1   6  205.07   17.00
   4   1   6  168.94   14.31
   4  -1   6  196.34   16.39
   4   1   6  191.57   16.76
   4  -1   6  182.69   15.62
   4   1   6  183.17   15.10
   4  -1   7   16.48    5.02
   4   1   7   14.49    5.02
   4  -1   7   11.39    4.57
   4  -1   7   18.03    5.61
   4   1   7   11.45    4.72
   4   1   8   39.00    8.60
   4  -1   8   34.39    8.09
   4  -1   8   30.43    7.81
   4  -1   9    5.47    3.33
  -4  -2   9    9.92    5.62
  -4   2   9    7.91    4.97
  -4   2   9   11.47    5.25
  -4  -2   8    0.87    3.64
  -4   2   8    6.21    4.50
  -4  -2   7  235.51   19.40
  -4   2   7  197.12   17.42
   4  -2  -6   29.33    5.02
  -4  -2   6   25.13    6.86
  -4   2   6   18.80    5.68
  -4  -2   5   54.56    8.57
  -4   2   5   63.47    8.60
   4   2  -5   52.06    6.02
   4  -2  -5   61.29    7.16
   4   2  -5   58.05    5.59
  -4  -2   4 1705.28   42.09
  -4   2   4 1760.79   40.23
   4   2  -4 1819.25   35.38
   4   2  -4 1880.16   28.78
   4  -2  -4 1715.96   36.38
   4  -2  -4 1792.83   25.56
  -4  -2   3  976.14   29.92
  -4   2   3  922.73   27.35
   4   2  -3  996.06   26.01
   4   2  -3  960.81   19.52
   4  -2  -3  958.65   26.87
   4  -2  -3  969.60   20.85
   4  -2  -2   23.42    3.68
   4   2  -2   21.11    3.95
   4  -2  -2   17.07    3.94
   4   2  -2   23.36    3.13
   4   2  -1 1830.92   35.97
   4  -2  -1 1861.16   35.97
   4  -2  -1 1905.81   33.76
   4   2   0  712.04   22.71
   4  -2   0  682.93   21.64
   4  -2   0  712.99   22.13
   4   2   1  357.57   16.71
   4  -2   1  350.12   16.42
   4  -2   1  365.20   16.02
   4  -2   1  370.98   17.17
   4   2   2    4.05    2.45
   4  -2   2    4.39    2.11
   4   2   2   13.20    3.38
   4   2   2    8.95    3.70
   4  -2   2    7.59    3.22
   4   2   3  625.66   23.85
   4   2   3  616.08   21.12
   4  -2   3  587.93   23.63
   4   2   3  606.54   24.17
   4  -2   3  636.47   24.91
   4   2   4   27.95    5.59
   4   2   4   19.23    4.04
   4   2   4   20.98    5.26
   4  -2   4   23.10    5.42
   4  -2   4   23.21    5.02
   4   2   5    1.20    3.13
   4  -2   5    4.17    2.99
   4   2   5   -0.87    2.28
   4  -2   5    2.04    2.68
   4   2   5   -0.26    1.89
   4   2   6   74.97   10.84
   4   2   6   67.39    8.77
   4  -2   6   81.35   10.74
   4   2   6   69.57    9.34
   4  -2   6   77.48   10.71
   4  -2   6   85.50   10.91
   4  -2   7   17.85    5.56
   4   2   7   15.44    5.12
   4  -2   7   18.70    5.88
   4  -2   8    4.65    2.99
   4   2   8    9.85    4.98
  -4  -3   9   16.98    6.79
  -4   3   9    7.18    4.35
  -4   3   9   17.71    7.23
  -4  -3   8   12.84    5.54
  -4   3   8   15.51    5.80
  -4   3   8   21.44    7.41
  -4  -3   7  219.71   18.76
  -4   3   7  184.78   16.95
  -4  -3   6  112.60   12.94
  -4   3   6   92.76   11.24
   4  -3  -6  109.09    9.98
  -4  -3   5  293.05   18.96
  -4   3   5  274.97   17.20
   4  -3  -5  313.16   16.61
   4   3  -5  304.48   13.91
   4  -3  -4   39.99    5.96
  -4  -3   4   35.76    6.79
  -4   3   4   44.08    6.75
   4   3  -4   31.39    5.18
   4   3  -4   46.74    5.21
   4  -3  -3    4.95    3.44
  -4  -3   3   -1.85    3.01
  -4   3   3   -0.09    3.10
   4  -3  -3   -0.20    1.11
   4   3  -3    1.80    1.73
   4   3  -3    1.67    2.29
  -4   3   2  263.82   13.58
   4   3  -2  309.24   15.44
   4   3  -2  274.25   11.78
   4  -3  -2  279.40   14.86
   4  -3  -2  264.41   12.04
   4   3  -1  587.19   21.28
   4   3  -1  591.16   18.08
   4  -3  -1  606.56   21.54
   4  -3  -1  625.02   19.80
   4   3   0  221.31   13.38
   4  -3   0  241.58   13.41
   4  -3   0  229.10   12.92
   4  -3   1 1597.69   35.97
   4   3   1 1577.10   35.90
   4   3   1 1656.28   33.67
   4  -3   1 1569.62   33.39
   4  -3   1 1677.14   36.72
   4  -3   2    5.13    3.09
   4  -3   2    1.95    2.51
   4   3   2   -1.75    2.34
   4  -3   2   -0.03    2.68
   4   3   2    5.08    2.59
   4   3   3  403.71   19.38
   4   3   3  435.74   17.10
   4  -3   3  425.01   20.53
   4   3   3  405.82   19.90
   4  -3   3  405.64   20.36
   4   3   4    3.45    3.01
   4   3   4    3.98    2.31
   4  -3   4    6.14    3.69
   4   3   4    5.23    3.51
   4  -3   4    2.22    2.45
   4   3   5    0.51    1.83
   4   3   5    2.00    1.73
   4  -3   5    0.20    2.37
   4  -3   5   -4.02    3.26
   4   3   5    0.01    2.78
   4  -3   6   12.94    4.75
   4   3   6   13.03    4.71
   4  -3   6   12.55    4.29
   4   3   6    5.98    3.00
   4  -3   7  104.54   13.56
   4   3   7   94.56   12.91
   4   3   8   13.97    5.71
   4  -3   8   12.12    5.09
  -4  -4   9   64.74   12.14
  -4   4   9   48.73   10.64
  -4  -4   8   25.59    7.91
  -4   4   8   16.69    5.65
  -4   4   8   26.12    7.77
  -4  -4   7  367.14   24.45
  -4   4   7  320.08   22.05
   4  -4  -6   58.77    7.83
  -4  -4   6   59.92    9.83
  -4   4   6   56.64    8.65
  -4  -4   5  294.93   19.14
  -4   4   5  273.88   17.30
   4   4  -5  342.72   16.09
   4  -4  -5  308.02   17.35
   4  -4  -4    5.72    2.66
  -4  -4   4    2.90    4.03
  -4   4   4   13.04    4.05
   4   4  -4   11.75    3.30
  -4  -4   3  640.90   25.17
  -4   4   3  619.62   21.83
   4  -4  -3  662.94   17.44
   4   4  -3  671.62   20.59
   4  -4  -3  658.69   23.97
   4  -4  -2   34.40    5.74
  -4   4   2   28.28    4.66
   4   4  -2   37.17    6.07
   4  -4  -2   27.96    4.22
   4   4  -2   35.59    4.86
   4   4  -1  491.80   20.60
   4   4  -1  491.22   17.92
   4  -4  -1  448.67   19.26
   4  -4  -1  464.06   17.57
   4   4   0    0.53    2.87
   4  -4   0    3.46    2.80
   4  -4   0    4.32    2.74
   4  -4   1   15.81    4.18
   4  -4   1    7.37    3.05
   4   4   1   12.47    4.13
   4   4   1   19.38    3.92
   4  -4   1   17.72    4.54
   4  -4   2   28.64    4.93
   4  -4   2   18.14    4.11
   4   4   2   25.61    5.60
   4  -4   2   33.81    6.43
   4   4   2   35.83    5.44
   4   4   3  684.21   25.69
   4  -4   3  708.12   27.39
   4   4   3  703.17   26.08
   4  -4   3  675.75   22.94
   4  -4   3  700.21   27.84
   4   4   4   77.32    9.12
   4  -4   4   81.62   10.27
   4   4   4   90.94    8.01
   4   4   4   87.85   10.27
   4  -4   4   97.14   10.91
   4   4   5   95.78   11.41
   4  -4   5   91.87   11.39
   4  -4   5  112.73   12.43
   4   4   5  122.86   11.67
   4  -4   6    2.42    2.30
   4   4   6    9.06    4.81
   4   4   6    4.99    2.77
   4  -4   7   37.15    8.50
   4   4   7   49.73    9.45
   4  -4   8    4.34    3.89
   4   4   8   -3.64    3.53
  -4  -5   9   23.44    7.84
  -4   5   9   34.25    8.94
  -4   5   8   42.78    8.96
  -4  -5   8   48.28   10.27
  -4   5   8   50.62   10.71
  -4  -5   7   98.54   12.99
  -4   5   7   78.16   11.05
   4  -5  -6  490.33   23.34
  -4  -5   6  494.84   26.81
  -4   5   6  444.48   23.85
   4   5  -6  517.71   22.49
  -4  -5   5   95.25   11.15
  -4   5   5   90.58    9.89
   4   5  -5  106.19    9.83
   4  -5  -5   88.33    9.74
   4  -5  -4    3.42    3.02
  -4  -5   4    6.04    3.42
  -4   5   4    6.01    2.98
   4   5  -4   13.06    3.50
  -4  -5   3  148.26   12.49
  -4   5   3  135.37   10.06
   4   5  -3  147.84   10.55
   4  -5  -3  111.67   10.50
  -4   5   2  393.33   15.68
   4   5  -2  390.48   16.95
  -4   5   2  366.69    8.82
   4  -5  -2  391.13   15.52
   4  -5  -2  379.92   18.61
   4   5  -1  114.41   10.83
   4   5  -1  118.53    9.60
   4  -5  -1  107.56    9.99
   4  -5  -1  121.67    9.42
   4   5   0  201.74   13.90
   4   5   0  202.56   10.84
   4  -5   0  186.87   12.87
   4  -5   0  183.95   12.31
   4   5   1  111.14   10.29
   4  -5   1  118.76   10.58
   4   5   1  121.16    9.31
   4  -5   1  121.66   10.17
   4  -5   1  109.33   10.29
   4  -5   2   33.48    5.29
   4  -5   2   32.97    6.21
   4   5   2   30.68    5.85
   4  -5   2   27.62    5.81
   4   5   2   36.42    5.68
   4  -5   3   -2.38    1.91
   4  -5   3    1.83    2.69
   4  -5   3   -2.26    3.00
   4   5   3   -1.56    2.78
   4   5   3    2.05    3.08
   4   5   4  151.77   12.90
   4  -5   4  148.73   13.84
   4   5   4  139.54   12.86
   4  -5   4  175.06   15.10
   4   5   5  261.03   17.17
   4  -5   5  270.25   19.86
   4   5   5  277.77   19.51
   4  -5   6   34.21    7.72
   4   5   6   22.04    6.03
   4  -5   7   -4.50    3.69
   4   5   7   -2.00    2.81
   4  -5   8   65.14   11.87
   4   5   8   63.28   11.37
  -4  -6   9   11.12    5.93
  -4  -6   8  134.56   16.21
  -4   6   8  152.58   17.56
   4  -6  -7   64.13    9.16
  -4  -6   7   50.54    9.39
  -4   6   7   50.18    8.77
   4  -6  -6   40.30    7.07
  -4  -6   6   40.81    8.08
  -4   6   6   49.52    8.26
   4   6  -6   49.45    7.46
   4  -6  -5   13.45    4.26
  -4  -6   5   14.90    5.20
  -4   6   5    9.39    3.60
   4   6  -5    8.25    3.26
  -4  -6   4  692.85   28.18
  -4   6   4  702.23   24.33
   4   6  -4  764.21   26.49
   4  -6  -4  707.51   28.06
  -4  -6   3   17.22    4.78
   4  -6  -3   20.67    5.28
  -4   6   3   21.06    4.20
   4   6  -3   25.89    4.98
  -4   6   2   66.27    6.40
   4  -6  -2   59.74    7.87
   4   6  -2   71.13    7.99
  -4   6   1  376.33   14.00
   4   6  -1  388.25   20.04
   4   6  -1  355.19   17.64
  -4   6   1  358.20   12.89
   4  -6  -1  369.90   19.01
   4   6   0  474.10   22.15
   4   6   0  465.30   16.53
   4   6   0  471.14   20.84
   4  -6   0  455.81   20.03
   4  -6   0  448.92   20.38
   4   6   1  131.74   11.79
   4  -6   1  115.41   10.62
   4   6   1  111.25    9.16
   4  -6   1  131.21   10.91
   4  -6   1  136.01   11.84
   4  -6   2   45.55    6.20
   4  -6   2   45.41    7.16
   4   6   2   50.99    6.86
   4   6   2   42.16    6.68
   4  -6   2   38.86    7.24
   4   6   3  300.00   17.91
   4  -6   3  294.57   18.83
   4   6   3  261.42   16.47
   4  -6   3  290.77   15.53
   4  -6   4   62.66    9.32
   4   6   4   64.35    9.29
   4  -6   4   66.71    7.38
   4   6   4   59.85    8.48
   4   6   5   10.87    4.19
   4  -6   5    7.74    4.10
   4   6   5   11.72    5.02
   4  -6   6  212.44   19.21
   4   6   6  206.94   18.45
   4  -6   7    2.60    3.05
   4   6   7   -8.95    4.44
  -4  -7   8  151.12   17.35
  -4   7   8  145.75   18.00
   4  -7  -7   46.49    8.22
  -4  -7   7   45.35    9.01
  -4   7   7   43.86    9.09
  -4  -7   6  115.22   13.37
  -4   7   6  120.95   12.16
   4   7  -6  136.63   13.03
   4  -7  -6  127.65   13.32
   4  -7  -5   18.69    4.96
  -4  -7   5   19.82    5.89
  -4   7   5   22.99    5.02
   4   7  -5   19.78    5.17
  -4  -7   4    3.75    3.26
   4  -7  -4    2.71    3.23
  -4   7   4    2.62    1.99
   4   7  -4    1.40    2.27
  -4  -7   3    4.83    3.14
   4  -7  -3   -2.48    3.04
  -4   7   3    3.29    2.17
   4   7  -3    3.83    2.91
  -4   7   2  643.59   18.34
   4   7  -2  661.68   25.31
   4  -7  -2  636.92   26.26
   4  -7  -1   -0.30    2.67
   4   7  -1   -0.62    2.97
  -4   7   1    0.08    1.15
   4  -7   0   17.24    4.90
   4   7   0   11.21    2.68
   4   7   0   10.60    4.35
   4   7   0   13.02    4.66
   4  -7   1    5.96    3.84
   4  -7   1   -0.72    2.34
   4   7   1    2.02    1.33
   4   7   1    4.53    3.54
   4   7   2  123.94   11.91
   4  -7   2  130.76   12.43
   4   7   2  129.89   11.14
   4  -7   2  121.53   10.89
   4   7   3  177.85   14.23
   4  -7   3  159.24   14.14
   4   7   3  143.74   12.78
   4  -7   3  166.05   12.14
   4  -7   4   29.24    6.96
   4   7   4   19.91    5.60
   4   7   4   24.95    5.78
   4   7   5    0.21    2.13
   4  -7   5   -0.40    2.21
   4   7   5   -3.41    3.11
   4  -7   6   32.30    8.02
   4   7   6   34.64    7.98
   4  -7   7    0.11    2.52
   4   7   7    0.87    2.63
  -4  -8   8    8.42    4.61
  -4   8   8   12.71    6.96
   4  -8  -7    6.09    3.50
  -4  -8   7   -2.21    2.71
   4   8  -7   -5.14    3.41
  -4   8   7   -3.14    5.11
  -4  -8   6   98.31   12.52
   4   8  -6  105.47   11.97
   4  -8  -6   97.18   12.13
  -4  -8   5  120.80   12.84
   4   8  -5  119.44   12.46
   4  -8  -5  106.50   12.30
  -4  -8   4  244.93   17.17
   4   8  -4  245.79   17.02
   4  -8  -4  256.01   18.60
  -4  -8   3   28.05    5.70
   4  -8  -3   15.19    5.20
   4   8  -3   15.59    4.84
   4  -8  -2   16.00    4.59
   4   8  -2   20.66    5.58
  -4   8   1   95.88    7.97
   4   8  -1   74.07    9.34
   4  -8  -1   94.86   10.51
   4  -8   0   18.31    4.92
   4   8   0   17.47    5.47
   4   8   0   10.73    2.67
   4   8   0    9.12    4.08
   4   8   1   47.45    7.99
   4  -8   1   24.82    5.38
   4   8   1   34.90    5.41
   4  -8   1   41.40    6.91
   4   8   2  256.98   17.70
   4  -8   2  247.14   17.31
   4   8   2  230.25   14.89
   4  -8   2  245.49   16.02
   4  -8   3   45.86    6.66
   4   8   3   45.54    7.56
   4  -8   3   46.75    8.17
   4   8   3   54.32    8.19
   4   8   4   62.98    8.97
   4  -8   4   78.99   11.12
   4   8   4   66.43    9.77
   4  -8   5   12.17    3.94
   4   8   5    6.94    4.64
   4  -8   6   42.59    9.55
   4   8   6   49.08    9.76
   4  -8   7    6.57    4.13
   4   8   7   10.20    5.26
  -4  -9   8   55.32   10.87
  -4  -9   8   78.28   13.13
   4  -9  -7   63.86   10.38
  -4  -9   7   52.27    9.80
   4   9  -7   39.44    8.36
  -4   9   7   44.26   10.22
   4  -9  -6   -0.81    2.48
  -4  -9   6    3.61    3.24
   4   9  -6    9.04    4.25
  -4  -9   5  323.91   21.14
   4   9  -5  324.45   21.36
   4  -9  -5  332.93   22.71
  -4  -9   4  101.99   11.32
   4  -9  -4   81.21   11.16
   4   9  -4  103.37   11.87
  -4  -9   3   -0.26    2.32
   4  -9  -3   -1.32    3.51
   4   9  -3    1.93    3.63
   4  -9  -2    5.89    3.28
   4   9  -2   -1.33    2.55
   4  -9  -1   71.58    9.64
  -4   9   1   69.67    7.33
   4   9  -1   82.08   10.18
   4  -9   0   58.10    8.67
   4   9   0   77.07   10.65
   4   9   0   69.58    9.90
  -4   9   0   56.57    7.24
   4   9   1  848.46   33.72
   4  -9   1  880.63   31.76
   4   9   1  860.15   26.30
   4  -9   1  813.70   30.54
   4  -9   2   10.15    3.79
   4   9   2   11.88    5.20
   4  -9   2   18.05    5.22
   4   9   2   11.12    4.02
   4  -9   3    8.99    3.31
   4  -9   3   12.97    4.71
   4   9   3   20.11    5.47
   4   9   3   14.15    4.82
   4   9   4   74.37   10.12
   4  -9   4   68.02   10.51
   4   9   4   57.99    9.05
   4  -9   5   99.00   13.56
   4   9   5   85.47   11.92
   4  -9   6   63.15   11.40
   4   9   6   70.60   11.61
  -4  -9  -7   33.60    7.95
  -4 -10   7  161.78   17.57
   4  10  -7  179.23   17.97
   4 -10  -7  199.96   19.16
  -4  10   7  180.40   19.59
   4 -10  -6   20.87    6.16
  -4 -10   6   21.33    5.92
   4  10  -6   25.04    7.00
  -4  10   6   24.47    7.61
   4 -10  -5   43.37    9.11
  -4 -10   5   28.23    6.80
   4  10  -5   22.51    6.44
  -4 -10   4   40.34    7.24
   4 -10  -4   34.87    7.72
   4  10  -4   40.72    8.02
  -4 -10   3  347.92   20.08
   4  10  -3  344.04   22.24
   4 -10  -3  303.62   21.50
  -4 -10   2   37.19    6.52
   4 -10  -2   44.26    8.59
   4  10  -2   37.12    7.39
   4 -10  -1   84.38   10.72
   4  10  -1   67.55   10.21
   4  10   0  117.81   13.25
  -4  10   0  140.93   11.90
   4 -10   0  109.47   12.07
   4  10   1  199.32   17.07
   4 -10   1  222.08   16.47
   4 -10   1  213.22   16.26
   4 -10   2   21.80    5.52
   4 -10   2   15.85    4.82
   4  10   2   18.08    5.93
   4  10   2   11.82    3.54
   4  10   3  369.86   23.07
   4 -10   3  350.09   23.01
   4  10   3  343.23   20.76
   4 -10   3  372.85   20.52
   4  10   4   11.89    4.41
   4  10   4   17.84    5.72
   4 -10   5   -1.98    2.85
   4  10   5    7.65    3.96
   4 -10   6   -0.31    2.71
   4  10   6   -2.24    3.08
  -4 -10  -7   56.55   10.98
   4 -11  -7   13.39    5.27
  -4 -11   7   11.75    5.04
   4  11  -7    3.86    3.82
  -4  11   7   -0.66    3.58
   4 -11  -6   23.96    7.27
  -4 -11   6    9.99    4.39
   4  11  -6    8.61    5.15
  -4  11   6    6.05    4.39
  -4 -11   5  127.66   13.69
   4  11  -5  123.07   14.73
   4 -11  -5  120.68   14.98
  -4  11   5  122.95   15.12
   4 -11  -4   15.16    5.79
   4  11  -4   11.92    4.92
   4 -11  -3   73.62   11.31
   4  11  -3   50.26    9.22
   4 -11  -2   21.91    6.80
   4  11  -2   15.66    5.70
   4  11  -1  387.69   24.49
   4 -11  -1  391.51   24.24
   4 -11   0    3.05    3.13
   4  11   0    6.96    3.71
  -4  11   0    4.38    2.86
   4 -11   1  195.18   15.93
   4  11   1  184.68   17.39
   4  11   1  205.37   18.37
  -4  11  -1  200.63   15.87
   4 -11   1  184.56   16.04
   4 -11   2    5.69    3.67
   4 -11   2    2.84    2.63
   4  11   2    0.97    2.75
   4 -11   3   49.08    9.24
   4  11   3   37.04    7.06
   4  11   3   37.37    8.08
   4  11   4   55.69    9.17
   4 -11   4   54.04    9.84
   4  11   4   60.53    9.65
   4 -11   5   77.77   12.48
   4  11   5   69.29   10.98
   4  11   6   13.12    5.41
  -4 -11  -6   15.54    6.02
   4 -12  -6   31.14    8.20
   4  12  -6   13.66    5.68
  -4  12   6   19.96    6.66
   4 -12  -5    0.84    2.73
   4  12  -5   -0.22    2.82
  -4  12   5    4.13    4.86
   4 -12  -4    8.59    5.20
   4  12  -4    1.91    2.79
  -4  12   4   -0.77    3.37
   4 -12  -3   50.93    9.93
   4  12  -3   34.11    8.27
   4 -12  -2   15.47    5.46
   4  12  -2    2.64    3.17
   4 -12  -1   19.67    5.92
   4  12  -1   10.81    5.37
   4 -12   0   49.90    8.90
   4  12   0   61.51   10.48
   4  12   1  117.06   14.28
   4 -12   1  132.92   13.30
   4  12   1  144.83   16.31
  -4  12  -1  125.08   13.21
   4 -12   1  116.82   13.28
   4 -12   2   11.25    4.58
   4 -12   2    2.63    2.55
   4  12   2    9.24    4.82
  -4  12  -2    4.69    3.07
   4 -12   3   82.44   11.74
   4  12   3   60.51   10.26
   4 -12   4   29.73    7.67
   4  12   4   32.92    7.43
   4 -12   5    6.45    3.94
   4  12   5   20.37    5.87
  -4 -12  -5   12.91    5.77
   4 -13  -5   12.35    5.00
   4  13  -5    9.24    4.26
  -4  13   5   12.79    5.51
   4 -13  -4   -6.48    4.49
   4  13  -4    0.29    2.69
   4 -13  -3   35.91    8.47
   4  13  -3   31.52    8.64
   4  13  -2  328.12   24.76
   4 -13  -2  308.63   23.93
   4 -13  -1   21.72    6.14
   4  13  -1    7.51    4.36
   4 -13   0    6.79    3.73
   4  13   0   10.13    5.31
   4  13   1   25.64    7.69
   4 -13   1   12.42    4.83
   4  13   1   19.07    6.76
  -4  13  -1   13.55    4.65
   4 -13   2   57.12    9.35
   4 -13   2   31.33    7.07
  -4  13  -2   30.74    7.39
   4  13   2   50.95    9.92
   4 -13   3    2.61    2.69
  -4  13  -3   -4.08    4.22
   4  13   3   -0.69    1.96
   4 -13   4   21.13    6.47
  -4 -13  -4   39.66    9.97
   4  13   5   20.75    6.26
   4  14  -4  227.25   21.99
   4 -14  -4  285.41   25.07
   4 -14  -3   23.73    7.31
   4  14  -3   15.79    6.61
   4 -14  -2   48.49    9.97
  -4 -14   2   43.13    8.39
   4  14  -2   70.73   12.34
   4 -14  -1    5.29    3.82
  -4 -14   1   10.97    4.79
   4  14  -1    1.11    3.16
   4 -14   0   42.31    8.94
  -4 -14   0   43.60    9.57
   4  14   0   29.51    8.33
   4 -14   1    4.84    3.44
   4  14   1    8.52    5.07
  -4 -14  -2   31.73    9.04
  -4  14  -2   17.02    6.10
   4  14   2   16.19    5.69
  -4  14  -3    6.70    4.94
   4 -14   4   13.49    5.44
   4  15  -2  204.54   21.35
   4 -15  -2  212.92   21.43
  -4 -15   1   -0.77    3.17
   4  15  -1    8.86    4.36
   4 -15   0    5.46    3.56
  -4 -15   0    5.75    3.57
   4  15   0    3.58    3.68
   4 -15   1   20.43    6.27
  -4 -15  -1   27.86    7.74
   4  15   1   27.25    7.68
   4  15   2    9.05    4.74
  -5   0   9   15.89    6.87
  -5   0   9    5.11    4.39
  -5   0   8    4.67    4.05
  -5   0   7    6.89    5.45
  -5   0   6    4.99    4.54
  -5   0   5 1371.77   41.75
   5   0  -5 1478.61   35.34
   5   0  -4    0.82    2.08
  -5   0   4   -3.31    3.58
   5   0  -4    0.42    1.25
   5   0  -3  149.46   10.24
  -5   0   3  154.94   13.01
   5   0  -3  169.77   12.04
   5   0  -2   -0.89    2.00
   5   0  -2    3.38    2.69
   5   0  -1  430.58   18.61
   5   0   0   -1.39    2.61
   5   0   1  342.28   18.18
   5   0   2    0.17    2.63
   5   0   2   -0.84    1.87
   5   0   3   53.84    7.57
   5   0   3   44.64    7.25
   5   0   4   -9.35    3.66
   5   0   4   -1.15    2.29
   5   0   5    7.02    3.70
   5   0   5    2.54    3.52
   5   0   5   -3.46    2.41
   5   0   6    2.29    3.28
   5   0   6   -2.40    2.42
   5   0   6    2.66    2.70
   5   0   7   90.08   12.92
   5   0   7   84.28   11.76
   5   0   7   95.97   12.41
   5   0   8   35.57    8.04
   5   0   8   -0.70    1.92
  -5  -1   9   61.48   11.75
  -5   1   9   63.46   12.13
  -5   1   9   40.89    9.16
  -5  -1   9   52.58    9.78
  -5  -1   8   -1.93    6.61
  -5   1   8   -5.15    5.23
  -5  -1   7  209.97   19.09
  -5   1   7  183.15   17.58
   5  -1  -6   35.67    5.72
  -5  -1   6   41.99    8.51
  -5   1   6   40.13    8.32
  -5  -1   5  202.73   16.46
  -5   1   5  206.41   16.25
   5  -1  -5  215.04   13.85
   5  -1  -4  460.80   16.56
  -5  -1   4  447.87   23.16
  -5   1   4  429.42   22.06
   5   1  -4  482.56   18.60
   5  -1  -4  449.32   19.89
   5  -1  -3 1571.79   32.12
  -5  -1   3 1453.27   39.65
  -5   1   3 1476.89   38.74
   5   1  -3 1522.71   33.96
   5  -1  -3 1582.27   36.79
   5  -1  -2   13.67    4.03
   5   1  -2   12.51    3.65
   5  -1  -2   14.21    3.47
   5  -1  -1  286.78   15.18
   5   1  -1  283.00   15.51
   5  -1  -1  290.05   16.10
   5   1   0   79.46    8.80
   5  -1   0   77.29    8.30
   5   1   1  135.89   11.64
   5  -1   1  127.60   11.17
   5   1   2    3.22    2.90
   5  -1   2    2.16    2.39
   5  -1   2    3.48    3.36
   5   1   3  688.59   25.83
   5  -1   3  743.63   27.95
   5  -1   3  698.38   28.62
   5   1   3  694.79   28.00
   5   1   4   69.56    9.70
   5   1   4   68.09    8.57
   5  -1   4   73.07    9.32
   5  -1   4   68.30    9.59
   5   1   4   67.79    9.56
   5  -1   5   25.98    6.16
   5   1   5   17.83    5.29
   5   1   5   20.57    5.33
   5  -1   5   23.88    5.82
   5   1   5   15.11    4.68
   5   1   6   93.85   12.52
   5   1   6   87.94   11.07
   5  -1   6   75.88   10.81
   5   1   6  104.45   12.39
   5  -1   6   90.39   11.97
   5   1   7   16.07    5.29
   5  -1   7   15.39    5.36
   5   1   7   18.28    5.81
   5   1   7   16.82    5.24
   5  -1   7   32.39    7.76
   5  -1   8   10.56    4.84
   5   1   8    8.80    4.86
  -5  -2   9   22.79    7.62
  -5   2   9   18.01    6.49
  -5   2   9   17.31    6.69
  -5  -2   8  145.28   17.08
  -5   2   8  134.30   16.11
  -5  -2   7   20.63    6.77
  -5   2   7   16.67    6.35
  -5  -2   6   75.59   11.36
  -5   2   6   66.52   10.00
   5  -2  -6   76.57    8.70
   5  -2  -5   26.15    5.28
  -5  -2   5   19.76    5.72
  -5   2   5   31.71    6.71
   5   2  -5   31.31    5.20
  -5  -2   4  297.50   19.09
  -5   2   4  297.42   18.09
   5   2  -4  340.52   16.64
   5  -2  -4  339.13   17.81
   5  -2  -4  352.96   13.97
   5  -2  -3   56.89    7.47
  -5  -2   3   83.46    9.77
   5   2  -3   80.81    8.32
  -5   2   3   76.82    8.79
   5   2  -3   78.60    5.73
   5  -2  -3   79.83    7.11
   5   2  -2  409.24   18.56
   5  -2  -2  415.06   19.32
   5  -2  -2  384.93   16.73
   5  -2  -1    2.49    3.05
   5  -2  -1    3.58    2.46
   5   2  -1    2.46    2.66
   5  -2   0    0.15    2.20
   5  -2   0    3.32    2.91
   5   2   0    1.64    2.39
   5   2   1  610.09   24.47
   5  -2   1  639.31   24.05
   5  -2   1  643.58   25.08
   5   2   2  314.54   18.37
   5  -2   2  286.08   17.13
   5  -2   2  297.91   18.14
   5   2   3    5.77    3.24
   5   2   3    1.56    2.59
   5  -2   3    4.02    2.60
   5  -2   3    4.08    3.12
   5   2   4    0.97    3.06
   5   2   4    3.46    3.06
   5   2   4   -2.14    1.90
   5  -2   4    4.33    3.15
   5  -2   4   -0.56    2.49
   5   2   5  107.86   11.03
   5  -2   5  102.60   12.01
   5   2   5   89.05   11.80
   5  -2   5   94.00   11.76
   5   2   5  102.45   11.99
   5  -2   6   50.61    9.04
   5   2   6   42.40    7.68
   5   2   6   44.99    9.04
   5  -2   6   56.08    9.60
   5   2   6   46.85    8.28
   5   2   7   10.78    4.88
   5  -2   7   13.87    4.83
   5  -2   7   14.15    5.66
   5  -2   8   62.18   11.23
  -5  -3   9    6.36    4.88
  -5   3   9   -0.26    3.18
  -5   3   9    3.93    3.53
  -5  -3   8   20.43    6.90
  -5   3   8   30.79    8.21
  -5  -3   7   19.80    6.45
  -5   3   7   10.80    5.33
  -5  -3   6  210.65   18.24
  -5   3   6  184.56   16.26
   5  -3  -6  208.95   14.92
   5  -3  -5    1.77    2.06
  -5  -3   5    1.25    3.81
  -5   3   5   -3.37    3.44
   5   3  -5    0.45    1.39
   5  -3  -4   59.77    7.78
  -5  -3   4   67.74    9.40
   5   3  -4   71.20    8.16
  -5   3   4   68.37    8.90
  -5  -3   3   17.87    5.24
   5  -3  -3   16.61    4.26
   5   3  -3   26.40    5.41
  -5   3   3   25.55    5.51
   5   3  -3   17.92    3.29
   5  -3  -3   19.63    3.66
   5  -3  -2   49.82    7.08
   5   3  -2   55.83    7.42
   5  -3  -2   58.39    6.73
   5  -3  -1   70.86    8.12
   5   3  -1   82.26    9.05
   5  -3  -1   79.20    8.32
   5   3   0  694.52   26.07
   5  -3   0  691.24   25.14
   5  -3   0  712.51   25.38
   5  -3   1    0.47    2.41
   5  -3   1   -1.62    3.20
   5  -3   1   -1.41    3.49
   5   3   1    0.27    2.97
   5  -3   2   66.93    8.56
   5   3   2   81.08    9.09
   5   3   2   72.78    9.00
   5  -3   2   64.06    8.79
   5   3   3  356.06   20.22
   5  -3   3  364.15   20.74
   5   3   3  347.07   19.90
   5  -3   3  393.65   21.91
   5   3   4  273.22   15.98
   5  -3   4  240.33   17.80
   5   3   4  224.07   17.17
   5  -3   4  252.42   18.54
   5   3   4  260.29   18.06
   5   3   5    0.21    2.22
   5  -3   5   -0.52    2.46
   5   3   5    4.79    3.04
   5  -3   5    0.03    1.95
   5   3   5    2.08    1.92
   5  -3   6  158.96   16.34
   5   3   6  189.01   18.05
   5  -3   6  207.12   18.55
   5   3   6  190.91   16.69
   5  -3   7   33.02    8.15
   5   3   7   37.62    8.75
   5  -3   8    9.97    4.44
  -5   4   9    1.25    3.48
  -5   4   9   -0.09    4.69
  -5  -4   8  245.82   22.37
  -5   4   8  259.42   22.00
  -5  -4   7   62.00   10.62
  -5   4   7   53.89    9.60
  -5  -4   6  210.21   18.41
  -5   4   6  179.85   15.85
   5  -4  -6  217.46   15.99
   5  -4  -5   50.55    7.76
  -5  -4   5   58.67    9.51
   5   4  -5   49.37    7.40
  -5   4   5   42.29    7.60
   5   4  -4   36.61    6.19
   5  -4  -4   36.48    6.63
  -5  -4   4   31.59    6.96
  -5   4   4   34.27    6.51
   5   4  -4   35.58    5.01
  -5  -4   3   -3.55    4.05
   5  -4  -3    0.78    3.01
  -5   4   3   -0.29    2.13
   5  -4  -3    3.43    1.99
   5   4  -3    2.48    2.10
   5   4  -3    1.82    2.62
  -5   4   2   47.60    6.66
   5  -4  -2   57.51    7.75
   5   4  -2   57.56    7.62
   5   4  -2   64.43    6.76
   5  -4  -2   62.59    6.89
   5   4  -1  169.08   13.20
   5  -4  -1  190.50   13.76
   5  -4  -1  194.05   12.91
   5   4   0  130.29   11.66
   5  -4   0  150.40   12.07
   5  -4   0  148.01   11.81
   5   4   1   74.74    9.34
   5  -4   1   72.87    8.75
   5  -4   1   78.01    8.72
   5  -4   1   76.86    9.45
   5  -4   2   13.75    3.92
   5  -4   2   22.14    5.80
   5   4   2   13.41    3.83
   5  -4   2   10.62    3.91
   5   4   2   15.90    4.47
   5  -4   3   12.54    4.86
   5   4   3   19.95    5.25
   5   4   3   25.78    6.18
   5  -4   3   19.72    5.57
   5   4   4   67.54    9.70
   5  -4   4   53.99    8.86
   5   4   4   57.14    8.63
   5  -4   4   70.44   10.18
   5   4   5   28.44    6.80
   5  -4   5   33.44    7.48
   5  -4   5   36.46    7.75
   5   4   5   22.70    5.88
   5   4   6   24.30    6.95
   5  -4   6   31.00    7.97
   5  -4   6   35.92    7.94
   5   4   6   29.91    6.89
   5   4   7   -1.21    2.84
   5  -4   7    5.61    3.76
  -5  -5   8    6.99    4.61
  -5   5   8    6.87    4.23
  -5  -5   7   59.93   10.79
  -5   5   7   63.69   10.35
  -5  -5   6   94.28   12.48
  -5   5   6   82.07   10.79
   5   5  -6   99.16   10.81
   5  -5  -6  105.15   11.69
   5  -5  -5   29.84    6.37
  -5  -5   5   22.80    6.83
  -5   5   5   23.23    5.41
   5   5  -5   28.26    5.89
  -5  -5   4  351.67   21.62
  -5   5   4  318.95   18.01
   5   5  -4  347.97   19.77
   5   5  -4  353.06   16.92
   5  -5  -4  340.06   19.99
  -5  -5   3  404.51   22.22
  -5   5   3  403.63   19.04
   5   5  -3  442.85   22.12
   5   5  -3  445.82   18.73
   5  -5  -3  433.28   22.20
   5  -5  -3  431.11   16.97
  -5   5   2  323.79   16.25
   5   5  -2  331.36   19.11
   5   5  -2  320.69   16.11
   5  -5  -2  343.81   19.37
   5  -5  -2  325.34   15.96
   5   5  -1  108.89   10.93
   5  -5  -1  102.78   10.56
   5  -5  -1   99.51    9.56
   5  -5   0   65.00    8.28
   5  -5   0   64.62    8.27
   5   5   0   50.09    8.04
   5  -5   1   25.79    5.54
   5   5   1   26.61    5.07
   5  -5   1   24.77    5.59
   5  -5   1   24.59    5.73
   5   5   1   28.44    6.00
   5   5   2    0.34    2.85
   5  -5   2   -0.65    2.54
   5  -5   2    4.89    3.39
   5  -5   2    2.88    3.27
   5   5   2   -0.93    1.93
   5   5   3  385.07   21.65
   5  -5   3  380.62   22.43
   5   5   3  382.13   21.28
   5  -5   3  381.91   19.58
   5  -5   3  405.01   23.30
   5  -5   4   27.23    6.55
   5   5   4   30.90    6.60
   5  -5   4   27.14    6.48
   5   5   4   28.41    6.37
   5   5   5    8.72    3.97
   5  -5   5   -2.40    3.33
   5   5   5   -2.40    3.72
   5  -5   5    3.98    2.78
   5  -5   6  166.31   17.61
   5   5   6  148.51   16.42
   5  -5   7   14.23    5.68
   5   5   7   20.59    7.06
  -5  -6   8    3.11    3.81
  -5   6   8    4.16    3.87
   5  -6  -7   30.61    6.54
  -5  -6   7   26.53    7.92
  -5   6   7   31.26    7.32
   5  -6  -6    2.84    2.34
  -5  -6   6    6.22    5.02
  -5   6   6    1.14    2.02
  -5  -6   5  476.21   26.38
  -5   6   5  419.49   21.80
   5   6  -5  489.97   21.98
   5  -6  -5  495.86   25.79
  -5   6   4   65.37    8.30
   5  -6  -4   63.28    9.33
  -5  -6   4   67.51    9.75
   5   6  -4   82.32    8.82
   5   6  -4   65.79    9.30
   5  -6  -3    2.51    2.98
  -5  -6   3    3.00    3.44
  -5   6   3   -1.35    1.96
   5   6  -3    9.63    4.54
   5   6  -3    2.86    2.25
  -5   6   2  142.48   10.54
   5   6  -2  173.25   14.53
   5   6  -2  158.27   12.24
   5  -6  -2  135.40   10.70
   5  -6  -2  150.09   13.26
   5   6  -1   92.79   10.86
   5   6  -1   90.37    9.50
   5  -6  -1   83.31   10.05
   5  -6  -1   88.01    9.21
   5   6   0   51.36    7.92
   5  -6   0   43.92    7.22
   5  -6   0   44.55    7.07
   5   6   1 1493.17   42.50
   5  -6   1 1595.56   42.93
   5   6   1 1487.82   36.41
   5  -6   1 1497.49   39.79
   5  -6   1 1463.63   41.14
   5  -6   2   21.19    5.30
   5   6   2   22.02    5.38
   5   6   2   17.61    4.83
   5  -6   2   15.40    5.10
   5  -6   2   19.81    5.70
   5  -6   3    4.18    3.07
   5  -6   3   12.47    5.37
   5  -6   3    6.85    3.08
   5   6   3    9.26    4.12
   5   6   3   10.47    4.63
   5  -6   4   -0.35    2.85
   5   6   4    8.52    4.49
   5   6   4    2.04    3.32
   5   6   5  106.43   12.34
   5  -6   5  138.03   15.49
   5   6   5  138.44   15.02
   5  -6   6   -1.92    2.61
   5   6   6   -2.30    3.10
   5  -6   7   11.12    5.22
   5   6   7    6.38    3.98
  -5  -7   8    6.00    4.18
  -5   7   8    5.15    4.33
   5  -7  -7   84.70   11.51
  -5  -7   7   75.26   11.84
   5  -7  -6   -1.72    2.24
  -5  -7   6    1.95    3.77
   5  -7  -5   63.30    9.77
  -5  -7   5   47.77    8.94
   5   7  -5   52.44    7.90
   5  -7  -4   -0.45    2.75
  -5  -7   4   -1.87    2.94
   5   7  -4    1.20    2.43
  -5  -7   3  271.76   18.84
   5   7  -3  293.59   19.71
   5   7  -3  307.95   18.02
   5  -7  -3  289.48   19.67
   5   7  -2   36.11    7.54
   5  -7  -2   36.71    7.27
   5   7  -2   28.01    5.57
   5   7  -1  478.06   25.18
   5   7  -1  480.88   22.91
   5  -7  -1  460.23   23.61
   5   7   0  288.48   19.29
   5  -7   0  297.16   18.76
   5   7   1  163.18   14.77
   5  -7   1  158.40   13.93
   5   7   1  154.97   11.81
   5  -7   1  131.28   12.27
   5  -7   2   24.81    5.54
   5   7   2   13.01    4.45
   5  -7   2   25.35    5.92
   5   7   2   20.31    5.06
   5   7   3  533.97   26.93
   5  -7   3  537.80   27.88
   5   7   3  550.91   26.26
   5  -7   3  536.47   24.19
   5  -7   4    4.04    3.71
   5   7   4   -0.15    1.84
   5   7   4   -0.46    2.96
   5   7   5    4.93    3.08
   5  -7   5    3.25    3.92
   5   7   5    8.56    4.78
   5  -7   6   -0.49    3.57
   5   7   6    0.16    2.69
  -5  -8   8  106.99   15.04
   5  -8  -7   17.80    5.80
  -5  -8   7    7.76    4.75
   5  -8  -6    3.06    2.69
  -5  -8   6    1.21    2.65
  -5  -8   5  305.83   21.75
   5   8  -5  336.19   20.77
   5  -8  -5  329.69   22.85
   5  -8  -4   -2.03    2.71
  -5  -8   4   -3.93    4.09
   5   8  -4   -4.40    2.93
  -5  -8   3   -3.65    3.31
   5  -8  -3    1.22    2.61
   5   8  -3   -0.31    2.38
   5   8  -2   39.66    7.94
   5  -8  -2   40.61    7.96
   5   8  -2   40.16    7.30
   5   8  -1  273.39   19.90
   5   8  -1  239.27   17.27
   5  -8  -1  251.25   18.20
   5  -8   0   32.52    6.81
   5   8   0   33.92    7.34
   5   8   1   56.77    8.99
   5  -8   1   55.27    8.65
   5   8   1   61.95    7.64
   5  -8   1   52.35    8.22
   5   8   2  109.91   12.54
   5  -8   2  129.50   13.64
   5   8   2  101.01   10.60
   5  -8   2  104.48   11.23
   5  -8   3    0.90    2.04
   5   8   3    5.12    3.00
   5  -8   3    2.77    3.41
   5   8   3    2.59    2.76
   5  -8   4    4.22    3.81
   5   8   4   -3.03    2.64
   5   8   4    3.72    4.08
   5   8   5   69.82   10.39
   5  -8   5   66.39   11.43
   5   8   5   73.55   11.50
   5  -8   6   17.50    6.54
   5   8   6   10.72    4.66
  -5  -9   7  142.28   16.57
   5  -9  -7  135.38   15.61
  -5   9   7  143.35   17.69
   5  -9  -6    4.44    3.51
  -5  -9   6   16.58    5.96
   5  -9  -5    3.90    3.70
  -5  -9   5   -0.28    2.83
   5   9  -5    9.43    4.14
   5  -9  -4   86.20   12.01
  -5  -9   4   65.60   10.01
   5   9  -4   92.25   11.25
  -5  -9   3  301.50   20.31
   5   9  -3  317.15   20.59
   5  -9  -3  308.80   21.71
   5  -9  -2   20.78    5.58
   5   9  -2   23.77    6.18
   5   9  -2   29.67    7.75
   5  -9  -1   52.17    8.74
   5   9  -1   57.59    9.28
   5   9  -1   44.84    8.70
   5   9   0  142.68   14.88
   5  -9   0  155.77   14.67
   5  -9   1    9.33    3.59
   5   9   1    9.92    4.60
   5  -9   1   15.06    4.55
   5  -9   2   35.81    6.87
   5  -9   2   38.98    8.09
   5   9   2   29.66    5.88
   5   9   2   38.90    7.98
   5  -9   3   50.97    7.93
   5   9   3   49.55    8.82
   5  -9   3   48.91    9.16
   5   9   3   39.55    7.47
   5   9   4    6.34    3.62
   5  -9   4   12.10    5.02
   5   9   4    8.94    4.01
   5  -9   5   48.98    9.82
   5   9   5   37.17    7.91
   5  -9   6   45.60   10.09
   5   9   6   41.41    9.45
   5 -10  -7    3.05    2.99
  -5 -10   7    8.11    4.16
   5 -10  -6   75.90   11.93
  -5 -10   6   69.78   11.19
   5 -10  -5    8.69    3.39
  -5 -10   5    2.93    2.72
   5  10  -5    9.27    4.81
   5 -10  -4    4.13    3.26
  -5 -10   4    5.19    3.25
   5  10  -4    5.56    4.03
  -5 -10   3   -9.54    4.14
   5 -10  -3   -4.74    4.36
   5  10  -3   -0.30    2.99
   5  10  -2  371.03   23.53
   5 -10  -2  401.56   25.01
   5 -10  -1   63.07   10.20
   5  10  -1   55.35    9.92
   5  10  -1   60.24    9.74
   5  10   0    5.59    4.20
   5 -10   0    0.91    2.28
   5  10   0    3.04    3.42
   5 -10   1    6.66    3.64
   5  10   1    4.81    3.90
   5 -10   1   12.81    4.57
   5  10   2  139.06   15.10
   5 -10   2  138.68   14.78
   5 -10   2  125.48   13.21
   5 -10   3    3.96    2.96
   5  10   3    3.58    2.33
   5 -10   3   -2.73    2.75
   5  10   3    4.69    2.94
   5 -10   4   60.19   10.86
   5  10   4   47.91    8.77
   5  10   4   57.79    9.72
   5 -10   5    4.25    3.56
   5  10   5   -0.99    2.54
   5 -11  -6    2.38    3.32
   5  11  -6    4.07    2.45
  -5  11   6   -2.65    3.95
   5 -11  -5   -1.77    4.45
   5  11  -5    2.33    2.52
   5 -11  -4   96.91   13.57
   5  11  -4   95.73   12.58
   5  11  -3  134.33   14.87
   5 -11  -3  123.96   15.07
   5 -11  -2    1.21    2.83
   5  11  -2    1.24    2.49
   5  11  -1   24.02    7.28
   5 -11  -1   21.51    6.32
   5  11  -1   26.36    7.07
   5  11   0  142.59   16.23
   5  11   0  145.06   15.97
   5 -11   0  150.71   15.67
   5 -11   1    2.41    2.24
   5  11   1    1.24    3.95
   5 -11   2   24.43    6.63
   5 -11   2   15.58    5.01
   5  11   2   18.95    6.04
   5 -11   3   -0.22    2.08
   5  11   3    1.42    2.35
   5  11   4   59.00    9.93
   5 -11   4   71.74   12.12
   5  11   4   52.78    9.25
   5 -11   5   11.07    5.45
   5  11   5   18.51    6.12
   5  12  -6    2.90    3.32
   5  12  -5  160.14   17.50
   5 -12  -5  201.65   20.60
  -5  12   5  174.82   18.50
   5 -12  -4   39.17    8.92
   5  12  -4   17.34    5.91
   5 -12  -3   18.54    6.39
   5  12  -3   26.92    7.26
   5 -12  -2   86.74   12.76
   5  12  -2   68.73   11.34
   5 -12  -1   90.03   12.77
   5  12  -1   93.95   13.44
   5  12  -1   63.04   11.16
   5 -12   0   12.72    5.19
   5  12   0   17.81    6.55
   5  12   0    5.26    4.09
   5 -12   1   97.46   12.80
   5  12   1  103.99   14.18
   5 -12   2   24.29    6.24
   5 -12   2   23.88    6.45
   5  12   2   22.82    6.68
   5 -12   3   11.76    5.27
   5  12   3   -0.81    1.98
   5 -12   4    7.54    5.31
   5  12   5    9.67    4.38
   5  13  -5    2.55    3.16
  -5  13   5    3.03    4.08
   5 -13  -4   12.00    5.06
   5  13  -4    5.81    4.26
   5 -13  -3   56.26   10.96
   5  13  -3   61.38   11.12
   5 -13  -2   33.74    7.87
   5  13  -2   32.49    8.66
   5 -13  -1   37.87    8.90
   5  13  -1   34.41    8.47
   5  13  -1   62.10   11.89
   5  13   0    2.49    4.37
   5  13   0   11.01    6.34
   5 -13   1    6.95    4.22
   5  13   1    4.46    3.80
   5  13   2    3.71    4.70
   5 -13   2    0.86    2.61
   5 -13   2   -8.34    4.16
   5 -13   3  123.86   15.40
   5  13   3  110.42   14.93
   5  14  -3   13.09    5.68
   5 -14  -2    4.29    3.61
   5  14  -2    8.39    5.16
   5  14  -1  105.09   15.70
   5 -14  -1  101.11   14.54
   5  14  -1   91.89   14.04
   5 -14   0   -0.85    2.35
   5  14   0    3.10    3.87
   5  14   1  134.05   17.24
   5 -14   1  125.61   15.51
   5  14   2   11.76    5.66
  -5 -15   1   44.48    9.75
  -6   0   8   62.14   11.97
  -6   0   7    4.42    3.69
  -6   0   6  201.11   18.34
  -6   0   5   -4.30    4.28
   6   0  -4   83.55    8.37
  -6   0   4   69.66   10.00
  -6   0   3    0.10    3.14
   6   0  -3    0.66    1.50
   6   0  -2   37.64    6.17
   6   0  -1   -0.14    2.15
   6   0   0  404.63   20.98
   6   0   1    3.90    2.73
   6   0   2  430.21   23.40
   6   0   3   -5.85    3.18
   6   0   3   -0.18    2.66
   6   0   4  150.61   14.30
   6   0   4  165.74   15.87
   6   0   5    1.75    2.70
   6   0   5   -0.22    2.45
   6   0   6   73.76   11.01
   6   0   6   77.69   11.92
   6   0   7   -3.22    2.99
   6   0   7    4.87    3.52
  -6  -1   8  310.74   25.52
  -6   1   8  301.75   24.87
  -6  -1   7    1.75    2.97
  -6   1   7    3.50    4.53
  -6  -1   6  115.59   14.17
  -6   1   6  105.08   13.16
  -6  -1   5  128.45   14.23
  -6   1   5   99.33   12.14
   6  -1  -5  126.88   11.93
   6  -1  -4    6.34    3.53
  -6  -1   4   -4.09    4.05
  -6   1   4   -2.41    3.46
   6  -1  -4    0.96    1.43
   6   1  -4   -1.89    2.53
   6  -1  -3    1.69    2.74
  -6   1   3    2.54    3.16
   6  -1  -3   11.20    3.36
   6   1  -3    4.31    2.55
   6  -1  -2  246.81   15.14
   6   1  -2  217.90   14.70
   6  -1  -2  234.95   16.23
   6  -1  -1  101.52   10.13
   6   1  -1  103.87   10.43
   6  -1   0    3.20    2.43
   6   1   0    7.83    3.85
   6  -1   1   10.91    4.21
   6   1   1   14.92    4.90
   6   1   2  226.38   17.05
   6  -1   2  247.86   17.87
   6  -1   3  350.36   21.01
   6  -1   3  355.94   22.35
   6   1   3  359.45   22.14
   6   1   4   10.42    3.83
   6  -1   4    8.64    3.94
   6  -1   4    5.71    3.99
   6   1   4    1.48    2.14
   6   1   5  159.83   14.85
   6  -1   5  137.06   14.57
   6  -1   5  179.12   17.28
   6   1   5  164.02   16.24
   6   1   6   13.05    4.58
   6  -1   6    4.11    3.12
   6  -1   6   14.27    5.55
   6   1   6   12.12    4.87
   6  -1   7   -2.03    2.54
   6   1   7   -2.95    3.13
  -6  -2   8    5.86    4.45
  -6   2   8    2.34    4.47
  -6  -2   7   85.15   13.35
  -6   2   7   44.18    9.23
   6  -2  -6   22.73    5.45
  -6  -2   6   25.35    7.61
  -6   2   6   13.31    5.42
   6  -2  -5   62.83    8.72
  -6  -2   5   51.13    9.32
  -6   2   5   53.24    8.97
   6  -2  -4   -0.14    2.28
   6   2  -4   -1.37    1.82
  -6  -2   4    3.41    3.13
  -6   2   4   -1.08    3.64
  -6   2   3  386.84   21.39
   6   2  -3  392.97   19.87
   6  -2  -3  406.35   21.25
   6  -2  -3  388.56   18.15
   6   2  -2    1.23    1.99
   6  -2  -2    3.89    2.37
   6  -2  -2    6.09    2.84
   6  -2  -1   53.18    8.12
   6  -2  -1   54.27    7.68
   6   2  -1   53.60    7.95
   6   2   0   95.01   10.59
   6  -2   0   96.83   10.58
   6  -2   0   90.94    9.89
   6   2   1   34.16    7.12
   6  -2   1   39.86    7.29
   6   2   2    0.11    2.89
   6  -2   2    2.60    3.32
   6  -2   3  487.44   25.42
   6  -2   3  514.69   27.19
   6   2   3  506.21   26.38
   6   2   4  189.13   15.01
   6  -2   4  162.77   15.41
   6  -2   4  169.88   16.09
   6   2   4  170.70   16.02
   6   2   5   27.52    6.03
   6  -2   5   23.86    6.67
   6  -2   5   23.01    6.44
   6   2   5   40.56    8.20
   6   2   6   36.80    8.66
   6  -2   6   34.27    8.39
   6  -2   6   15.40    5.51
   6   2   6   29.74    7.38
   6  -2   7   37.63    8.88
   6   2   7   39.93    9.83
   6  -2   7   41.16    9.16
  -6  -3   8   15.76    7.06
  -6   3   8    1.04    3.48
  -6  -3   7   34.82    8.64
  -6   3   7   23.43    6.71
   6  -3  -6   13.45    4.66
  -6  -3   6   10.74    5.00
  -6   3   6    7.33    3.70
  -6  -3   5  568.20   30.19
  -6   3   5  530.37   27.06
   6   3  -5  636.34   26.00
   6  -3  -5  591.82   26.84
   6  -3  -4   11.45    4.20
  -6  -3   4    2.71    3.05
  -6   3   4   13.22    4.81
   6   3  -4    6.90    2.97
   6  -3  -3    5.93    2.78
  -6   3   3    5.84    3.75
   6   3  -3    1.49    1.93
   6  -3  -3    5.52    2.54
   6  -3  -2   40.00    7.20
   6   3  -2   41.35    6.89
   6  -3  -2   44.71    6.54
   6   3  -1  168.31   13.85
   6  -3  -1  199.68   15.07
   6  -3  -1  158.38   12.74
   6  -3   0   30.63    6.26
   6  -3   0   33.16    6.44
   6   3   0   32.24    6.85
   6   3   1 1039.16   35.72
   6  -3   1 1053.90   34.61
   6  -3   1 1087.14   36.33
   6  -3   2    7.35    3.57
   6   3   2    3.85    3.86
   6  -3   2    1.76    2.83
   6  -3   3    6.67    3.46
   6   3   3    5.80    3.18
   6  -3   3    9.08    4.54
   6   3   4   59.36    9.70
   6   3   4   58.48    9.62
   6  -3   4   51.45    9.05
   6  -3   4   63.35   10.32
   6  -3   5   25.68    7.00
   6   3   5   40.59    8.51
   6  -3   5   56.66   10.33
   6   3   5   51.13    9.28
   6   3   6   10.90    5.19
   6  -3   6   13.12    5.75
   6  -3   6    7.65    4.42
   6   3   6    7.28    3.85
   6  -3   7   13.36    5.62
   6  -3   7   20.30    6.63
  -6  -4   8    4.55    4.13
  -6   4   8    0.53    3.78
  -6  -4   7   49.88   10.75
  -6   4   7   55.49   10.16
   6  -4  -6   -0.76    2.36
  -6  -4   6    0.86    3.97
  -6   4   6    6.18    3.50
   6   4  -5    0.85    1.92
   6  -4  -5    3.29    3.04
  -6  -4   5    3.15    2.88
  -6   4   5    2.41    2.97
   6  -4  -4   32.58    6.73
  -6  -4   4   20.55    6.08
  -6   4   4   23.40    5.68
   6   4  -4   23.73    5.25
  -6   4   3 1074.96   35.07
   6   4  -3 1171.74   37.17
   6  -4  -3 1108.10   36.95
   6  -4  -3 1173.28   31.33
   6  -4  -2   25.06    5.84
   6   4  -2   21.60    5.25
   6  -4  -2   32.14    5.68
   6  -4  -1   75.32    9.52
   6   4  -1   77.90    9.81
   6  -4  -1   87.93    9.69
   6  -4   0    0.13    2.90
   6   4   0    2.87    3.06
   6  -4   0    4.13    2.71
   6   4   1  262.47   18.37
   6  -4   1  263.69   17.69
   6  -4   1  274.24   18.63
   6  -4   2    1.31    2.44
   6   4   2    3.19    3.43
   6  -4   2    1.56    2.85
   6   4   3   98.40   11.90
   6  -4   3   90.03   11.60
   6   4   3   84.75   10.74
   6  -4   3   82.01   11.44
   6   4   4   31.63    7.16
   6  -4   4   36.83    8.17
   6   4   4   29.99    7.03
   6  -4   4   42.43    8.44
   6   4   5   -0.18    2.64
   6  -4   5    2.94    2.83
   6  -4   5   -3.61    3.40
   6   4   5    1.09    2.88
   6  -4   6    3.01    2.90
   6   4   6    0.47    3.28
   6  -4   6    8.69    4.98
   6   4   6    1.71    2.19
   6  -4   7   -7.15    4.29
  -6  -5   8   37.14    9.67
  -6   5   8   35.85    8.69
  -6  -5   7   -0.17    3.39
  -6   5   7   -1.27    2.90
   6  -5  -6   45.56    8.29
  -6  -5   6   54.68   10.08
  -6   5   6   42.11    8.36
  -6  -5   5  345.22   23.99
  -6   5   5  332.83   21.07
   6   5  -5  353.50   21.37
   6  -5  -5  351.97   22.29
   6  -5  -4   -1.13    3.77
  -6  -5   4    1.83    2.78
  -6   5   4    6.93    3.55
   6   5  -4    3.61    2.89
  -6   5   3  216.85   15.40
   6   5  -3  205.18   16.35
   6   5  -3  231.08   14.00
   6  -5  -3  224.58   17.35
   6  -5  -3  207.46   13.25
   6  -5  -2   74.97    9.97
  -6   5   2   64.16    8.05
   6  -5  -2   69.62    8.32
   6   5  -2   71.56    9.68
   6   5  -1  406.05   22.92
   6  -5  -1  431.89   23.11
   6  -5  -1  429.00   21.54
   6  -5   0   19.01    4.88
   6   5   0   12.19    4.29
   6  -5   0   18.37    5.09
   6  -5   1   45.83    7.87
   6   5   1   56.56    9.29
   6  -5   1   63.59    9.44
   6  -5   2   62.48    8.88
   6  -5   2   63.81    9.45
   6  -5   2   76.02   10.47
   6   5   2   78.61   10.68
   6  -5   3   38.48    8.40
   6   5   3   40.27    7.63
   6  -5   3   43.80    8.48
   6   5   3   41.82    8.01
   6   5   4    0.80    2.16
   6  -5   4    5.86    4.06
   6  -5   4    2.89    3.71
   6   5   4   10.42    4.62
   6   5   5   45.42    8.82
   6  -5   5   36.90    8.50
   6   5   5   39.10    8.45
   6  -5   5   38.89    8.63
   6  -5   6    7.72    4.32
   6   5   6   17.19    6.04
  -6  -6   7   22.69    6.85
  -6   6   7   33.93    7.71
   6  -6  -6   88.05   11.85
  -6   6   6   97.64   12.03
  -6  -6   6   90.32   13.14
   6   6  -5   11.17    4.06
   6  -6  -5    3.61    3.17
  -6  -6   5    3.48    3.35
  -6   6   5   12.58    4.20
   6  -6  -4   23.00    6.04
  -6  -6   4   16.99    5.98
  -6   6   4   19.29    5.11
   6   6  -4   25.64    6.92
  -6  -6   3   -1.04    3.20
   6  -6  -3    1.19    2.56
  -6   6   3   -0.44    2.58
   6   6  -3    6.45    3.80
   6   6  -3    2.77    2.27
   6  -6  -2   47.26    8.38
   6   6  -2   48.41    8.36
  -6   6   2   50.76    7.10
   6  -6  -2   51.04    7.39
   6  -6  -1   -3.31    3.56
   6  -6  -1    4.36    2.56
   6   6  -1   -1.74    3.63
   6   6   0  140.21   14.16
   6  -6   0  140.09   13.39
   6  -6   0  134.08   13.11
   6  -6   1    2.61    2.89
   6   6   1    0.54    2.62
   6  -6   1    2.57    2.86
   6  -6   2   -0.41    2.08
   6   6   2    1.19    1.76
   6  -6   2    6.73    4.81
   6  -6   2    1.87    3.10
   6   6   2    4.03    4.19
   6  -6   3   99.69   13.04
   6   6   3   94.15   12.06
   6   6   3   99.06   11.81
   6  -6   3   95.71   12.44
   6   6   4   55.52    9.48
   6  -6   4   79.64   12.13
   6   6   4   58.39    9.66
   6  -6   4   78.52   11.98
   6  -6   5    2.47    3.13
   6   6   5    3.29    2.91
   6  -6   6  161.47   18.44
   6   6   6  140.89   17.04
   6  -7  -7    9.50    4.47
  -6  -7   7   17.45    6.82
   6  -7  -6    3.79    2.30
   6   7  -6   13.66    5.21
  -6  -7   6   19.15    7.25
   6  -7  -5    6.28    2.85
   6   7  -5    1.66    2.18
  -6  -7   5   10.57    5.25
   6   7  -4   23.43    6.56
   6  -7  -4   24.19    6.79
  -6  -7   4   24.87    6.94
  -6  -7   3    1.60    3.00
   6  -7  -3    3.31    3.15
   6   7  -3    0.90    3.07
   6   7  -3   -1.79    3.73
   6  -7  -2   60.89    9.55
   6   7  -2   61.42    9.92
   6   7  -2   74.20    9.38
   6   7  -1  305.56   21.12
   6  -7  -1  285.46   20.23
   6  -7  -1  309.14   19.31
   6  -7   0   13.60    4.97
   6  -7   0    8.84    3.35
   6   7   0   20.02    5.38
   6  -7   1   21.08    5.77
   6  -7   1   21.58    6.19
   6   7   1   31.49    7.14
   6   7   2  267.24   20.37
   6  -7   2  274.57   20.61
   6   7   2  280.11   18.71
   6  -7   2  244.52   18.02
   6  -7   2  258.20   20.30
   6  -7   3   12.28    4.59
   6  -7   3   16.44    5.65
   6   7   3    4.04    2.42
   6   7   3   21.40    6.29
   6  -7   4   27.49    7.46
   6   7   4   33.52    7.58
   6   7   4   21.64    5.89
   6   7   5    8.46    4.25
   6  -7   5    9.61    4.00
   6   7   5   13.02    5.25
   6   7   6   48.45   10.22
   6  -8  -7   10.40    4.84
  -6  -8   7   17.03    6.42
   6  -8  -6   39.60    8.70
  -6  -8   6   66.73   11.83
   6   8  -6   46.86    8.96
   6  -8  -5    0.57    2.59
  -6  -8   5    1.58    3.12
   6   8  -5   -0.13    2.34
   6  -8  -4   64.40   10.45
  -6  -8   4   56.48    9.91
   6   8  -4   53.98    9.69
  -6  -8   3  125.03   14.27
   6   8  -3  155.00   16.00
   6   8  -3  150.74   13.96
   6  -8  -3  149.39   15.56
   6  -8  -2   51.10    9.29
   6   8  -2   46.05    7.98
   6   8  -2   52.03    9.49
   6  -8  -1   77.72   11.00
   6   8  -1   77.03   11.27
   6   8   0  149.13   15.54
   6  -8   0  136.08   14.23
   6  -8   1   -0.46    2.57
   6   8   1    0.76    3.16
   6  -8   2    0.90    2.36
   6   8   2    4.30    2.39
   6  -8   2    0.36    1.98
   6   8   2    4.26    3.20
   6  -8   3   70.90    9.85
   6  -8   3   71.68   11.20
   6   8   3   74.27   10.55
   6   8   3   58.96   10.14
   6  -8   4   42.95    9.22
   6   8   4   32.34    7.73
   6   8   4   51.46    9.69
   6   8   5    4.74    3.70
   6   8   5    0.85    2.08
   6  -9  -7   11.08    4.62
  -6  -9   7    8.13    4.71
   6  -9  -6   26.33    7.66
  -6  -9   6   12.06    5.38
   6   9  -6   17.57    6.14
  -6  -9   5  234.32   20.55
   6   9  -5  234.30   20.71
   6  -9  -5  221.96   20.43
   6  -9  -4   16.93    6.10
  -6  -9   4   12.20    4.76
   6   9  -4    9.73    4.29
   6   9  -4    7.47    4.45
   6  -9  -3    4.35    3.49
  -6  -9   3    3.94    3.11
   6   9  -3    7.43    5.20
   6   9  -3    9.18    4.45
   6   9  -2  231.92   20.29
   6   9  -2  217.37   17.87
   6  -9  -2  209.44   18.99
   6  -9  -1   80.27   11.58
   6   9  -1   72.45   12.33
   6   9   0    5.71    4.47
   6  -9   0   13.17    4.76
   6   9   1  185.26   17.90
   6  -9   1  163.40   15.71
   6  -9   2   39.56    7.92
   6   9   2   44.78    9.11
   6  -9   2   48.36    9.19
   6   9   2   36.48    6.90
   6  -9   3    1.21    2.63
   6   9   3    1.24    2.29
   6   9   3   -0.84    2.04
   6  -9   4    3.33    3.22
   6   9   4    4.47    2.98
   6   9   4    1.00    3.21
   6  -9   5   58.55   11.31
   6   9   5   48.47    9.93
   6 -10  -6   -2.73    3.12
  -6 -10   6   -6.20    4.11
   6  10  -6   -5.12    3.71
   6 -10  -5    8.38    4.36
   6  10  -5    9.24    5.21
  -6 -10   5    3.79    3.73
   6 -10  -4    3.46    2.89
  -6 -10   4   16.24    5.46
   6  10  -4   12.20    7.05
   6  10  -4   11.38    4.47
  -6 -10   3  250.42   20.39
   6  10  -3  248.00   21.89
   6  10  -3  250.70   19.63
   6 -10  -3  246.81   21.41
   6 -10  -2    2.28    3.16
   6  10  -2    3.74    4.37
   6  10  -2    5.31    3.57
   6 -10  -1   65.52   11.00
   6  10  -1   72.80   11.82
   6 -10   0   57.03   10.01
   6  10   0   43.99    9.69
   6 -10   1    1.04    2.70
   6  10   1   11.41    5.24
   6 -10   2   -1.31    2.29
   6 -10   2    0.99    1.92
   6  10   2    1.47    2.77
   6  10   3  186.65   18.73
   6 -10   3  213.73   20.27
   6 -10   4    0.39    4.28
   6  10   4    7.93    3.80
   6  10   4   -5.17    3.64
   6  10   5   58.16   10.75
   6  11  -6   12.94    5.64
   6  11  -5  132.01   16.85
   6 -11  -5  156.74   18.18
   6 -11  -4   13.72    6.11
   6  11  -4    6.10    4.34
   6  11  -4   15.37    6.62
   6 -11  -3   20.78    6.65
  -6 -11   3   21.22    6.20
   6  11  -3   20.28    6.21
   6  11  -3   27.05    8.17
  -6 -11   2    3.57    3.66
   6 -11  -2    4.79    3.56
   6  11  -2    8.80    5.11
   6  11  -2   -0.33    2.79
   6 -11  -1   49.02    9.67
   6  11  -1   50.64   10.35
   6 -11   0   63.58   10.92
   6  11   0   61.06   11.36
   6 -11   1  102.51   13.39
   6  11   1  104.06   14.47
   6 -11   2    1.24    2.99
   6  11   2    1.74    3.41
   6  11   3    7.95    4.42
   6 -11   3    4.02    2.52
   6  11   4   21.86    6.67
   6 -12  -4    7.31    4.22
   6  12  -4   13.94    6.72
   6  12  -4   11.46    4.88
   6  12  -3   81.55   13.52
   6 -12  -3   71.41   12.50
   6  12  -3   54.46   10.22
   6 -12  -2   11.32    5.71
   6  12  -2   17.17    6.73
   6  12  -2   20.11    6.95
   6  12  -1   31.98    9.13
   6 -12  -1   37.31    9.01
   6  12  -1   43.09    9.60
   6 -12   0  104.52   14.28
   6  12   0  121.47   16.06
   6 -12   1    5.74    3.79
   6  12   1    0.19    2.34
   6 -12   2    2.36    2.63
   6  12   2   -0.74    2.59
   6  12   3   35.47    8.55
   6 -12   3   35.18    8.64
   6  13  -4    9.28    4.73
   6  13  -3   19.67    7.01
   6 -13  -2   55.25   11.07
   6  13  -2   63.57   12.42
   6  13  -2   60.87   11.60
   6  13  -1   19.86    6.95
   6 -13  -1   30.25    8.01
   6 -13   0    2.61    2.93
   6  13   0    2.15    3.55
   6 -13   1    9.63    4.61
   6  13   1    4.37    3.71
  -7   0   8   -2.31    3.32
  -7   0   7   38.51    9.46
  -7   0   6   -0.81    3.63
  -7   0   5  344.01   24.35
  -7   0   4   -0.54    3.47
   7   0  -4    2.18    1.98
   7   0  -3  137.10   12.42
   7   0  -2    0.88    2.67
   7   0  -1  660.49   28.49
   7   0   0   -1.47    3.46
   7   0   1  552.44   27.97
   7   0   2   -2.15    4.92
   7   0   3   11.67    5.17
   7   0   4   -2.40    4.77
   7   0   5   28.91    7.10
   7   0   5   43.90    9.58
   7   0   6   -3.27    2.94
   7   0   6    4.20    3.43
  -7   1   8    3.54    2.98
  -7  -1   7   49.99   10.67
  -7   1   7   71.45   12.48
  -7  -1   6    1.90    3.68
  -7   1   6   15.08    5.93
  -7  -1   5   10.51    5.35
  -7   1   5    5.89    3.86
   7   1  -4   82.60    9.64
  -7  -1   4   69.49   10.83
  -7   1   4   62.13   10.00
   7   1  -3  234.85   16.66
  -7   1   3  222.23   18.15
   7  -1  -3  242.23   16.20
   7  -1  -2    0.38    2.00
   7   1  -2   -0.81    2.13
   7  -1  -1   76.49    9.85
   7   1  -1   78.60   10.24
   7  -1   0   39.77    7.54
   7   1   0   36.09    7.35
   7  -1   1   12.19    4.68
   7   1   1   11.66    4.82
   7   1   2   38.86    8.09
   7  -1   2   26.49    7.43
   7   1   3   83.33   11.89
   7  -1   3   80.81   11.71
   7  -1   4   -0.74    2.14
   7  -1   4    3.04    4.09
   7   1   4    3.86    3.85
   7  -1   5    1.10    3.02
   7   1   5   -3.63    3.62
   7  -1   6    3.46    3.06
   7  -1   6   15.36    6.25
   7   1   6   10.72    4.89
  -7   2   8   73.25   12.86
  -7  -2   7   19.15    6.90
  -7   2   7   40.42    9.27
   7  -2  -6   48.39    8.31
  -7  -2   6   57.69   10.82
  -7   2   6   45.94    9.71
  -7  -2   5  132.54   15.76
  -7   2   5  113.07   13.75
   7  -2  -5  141.80   14.10
   7  -2  -4   32.07    6.98
  -7  -2   4   36.44    8.50
  -7   2   4   24.99    6.44
   7   2  -4   31.56    6.33
   7  -2  -3   24.43    5.04
  -7   2   3   15.04    4.92
   7   2  -3   22.81    5.53
   7  -2  -2   56.82    9.10
   7  -2  -2   61.16    8.57
   7   2  -2   50.89    8.02
   7   2  -1  129.54   13.09
   7  -2  -1  124.37   12.70
   7   2   0    8.69    3.80
   7  -2   0    2.84    2.68
   7   2   1   22.39    6.14
   7  -2   1   38.26    7.76
   7   2   2  149.10   15.14
   7  -2   2  151.26   15.41
   7  -2   3  128.40   14.82
   7   2   3  126.08   14.57
   7  -2   4    0.39    3.53
   7  -2   4    1.96    3.23
   7   2   4    5.76    4.30
   7  -2   5  122.89   15.00
   7  -2   5  113.44   15.18
   7   2   5  140.55   16.35
   7  -2   6   -3.63    3.42
   7  -2   6    9.97    4.91
   7   2   6    6.69    3.76
  -7   3   8  114.02   15.82
  -7  -3   7    2.59    4.26
  -7   3   7    0.78    2.97
  -7  -3   6  286.23   23.81
  -7   3   6  277.52   22.11
   7  -3  -6  334.78   21.96
   7  -3  -5   39.05    7.72
  -7  -3   5   53.25   10.38
  -7   3   5   36.05    7.81
   7  -3  -4    7.57    3.36
   7   3  -4    7.00    3.50
  -7  -3   4    7.27    5.02
  -7   3   4    1.32    2.39
   7  -3  -3   13.34    5.15
   7   3  -3    4.43    3.01
  -7   3   3    5.69    3.61
   7  -3  -3    8.52    3.20
   7  -3  -2    7.58    3.87
   7  -3  -2   10.93    3.42
   7   3  -2    7.99    3.75
   7  -3  -1   13.24    5.08
   7   3  -1   11.78    4.86
   7  -3  -1    6.31    3.14
   7   3   0   66.17    9.96
   7  -3   0   56.02    8.82
   7   3   1   12.14    4.80
   7  -3   1    7.15    3.96
   7   3   2    5.30    2.81
   7  -3   2    8.81    4.49
   7   3   3   46.36    9.10
   7  -3   3   27.40    7.21
   7  -3   4  186.43   18.26
   7  -3   4  203.54   19.58
   7   3   4  193.61   18.66
   7  -3   5   13.02    5.50
   7  -3   5   13.58    5.49
   7   3   5   15.64    5.98
   7  -3   6   17.53    6.22
   7  -3   6   30.34    8.22
   7   3   6   12.83    5.49
  -7   4   8  186.41   20.00
  -7  -4   7   13.32    6.43
  -7   4   7   10.04    4.12
   7  -4  -6   88.16   11.71
  -7  -4   6  108.30   14.75
  -7   4   6   87.37   12.54
   7  -4  -5    6.00    3.47
  -7  -4   5    0.01    3.28
  -7   4   5    1.67    2.89
   7   4  -5   -4.09    2.64
  -7  -4   4  158.98   16.79
  -7   4   4  136.80   14.14
   7   4  -4  146.71   14.12
   7  -4  -4  144.21   14.62
   7  -4  -3    2.87    2.51
  -7   4   3    1.17    2.70
   7   4  -3    1.29    2.04
   7  -4  -3    5.98    2.75
   7   4  -2  181.76   15.99
   7  -4  -2  197.06   16.86
   7  -4  -2  195.12   15.15
   7   4  -1   45.68    8.08
   7  -4  -1   45.19    8.42
   7  -4  -1   36.42    7.04
   7  -4   0    0.02    2.48
   7   4   0   -1.32    3.74
   7   4   1   -6.82    3.95
   7  -4   1    1.33    2.54
   7   4   2  392.65   25.13
   7  -4   2  395.60   25.24
   7   4   3    7.06    4.09
   7  -4   3   11.25    4.49
   7  -4   3   17.98    6.49
   7   4   4   22.37    6.65
   7  -4   4   28.75    7.49
   7  -4   4   39.22    9.23
   7   4   5   22.82    7.14
   7  -4   5   34.52    8.91
   7  -4   5   17.90    6.14
   7   4   6   52.46   10.51
  -7   5   8    6.95    4.25
  -7  -5   7   -4.20    4.20
  -7   5   7    2.79    3.03
   7  -5  -6   17.46    5.47
  -7  -5   6   19.43    7.60
  -7   5   6   34.15    7.83
   7  -5  -5   11.09    4.61
  -7  -5   5   14.64    6.68
  -7   5   5   15.49    5.26
   7   5  -5   13.11    4.46
   7  -5  -4   15.10    5.72
  -7  -5   4   20.17    7.06
  -7   5   4   12.43    4.85
   7   5  -4   16.43    5.23
  -7   5   3  248.23   17.96
   7   5  -3  242.57   18.97
   7  -5  -3  247.40   19.46
   7  -5  -2    6.48    4.06
  -7   5   2    2.75    2.24
   7   5  -2    0.26    3.28
   7  -5  -2    6.27    3.18
   7  -5  -1   17.01    5.68
   7   5  -1   18.31    6.07
   7  -5  -1   19.69    5.32
   7   5   0   81.15   11.32
   7  -5   0   75.02   10.53
   7  -5   0   64.54    9.62
   7  -5   1   18.34    6.06
   7  -5   1   11.60    5.30
   7   5   1    6.56    3.61
   7  -5   2    2.81    2.94
   7   5   2    0.99    2.46
   7   5   3   15.21    5.45
   7  -5   3   20.32    6.66
   7  -5   3   22.14    7.10
   7   5   4   80.25   12.18
   7  -5   4   79.25   12.87
   7  -5   4   52.05   10.18
   7   5   5   92.70   13.38
   7  -5   5  115.90   15.64
   7  -5   5   93.33   14.00
   7   5   6    7.24    4.13
  -7  -6   7   -0.22    3.71
   7  -6  -6   -2.70    2.69
  -7  -6   6    4.43    3.64
  -7  -6   5  161.31   17.84
   7   6  -5  150.59   15.43
   7  -6  -5  167.81   16.96
   7  -6  -4   41.19    8.51
  -7  -6   4   25.17    7.18
   7   6  -4   24.87    6.50
   7  -6  -3   12.04    5.11
   7   6  -3   19.95    6.22
   7  -6  -2    9.81    5.06
   7  -6  -2   11.01    4.20
   7   6  -2   10.22    4.74
   7   6  -1  125.80   14.05
   7  -6  -1  134.81   14.44
   7  -6  -1  158.41   14.64
   7  -6   0   13.93    5.23
   7   6   0   18.09    5.86
   7  -6   0   15.59    5.19
   7  -6   1   75.09   10.77
   7  -6   1   66.23   10.56
   7   6   1   68.13   10.75
   7  -6   2   85.33   12.20
   7  -6   2   92.54   12.11
   7   6   2   86.43   12.34
   7  -6   3   15.91    5.38
   7  -6   3   14.07    6.29
   7   6   3   22.74    6.33
   7   6   4   54.17   10.45
   7  -6   4   52.27   10.60
   7  -6   4   38.89    9.46
   7   6   5   11.82    4.97
   7   6   5    8.93    4.66
   7  -6   5   10.22    5.55
   7  -7  -6   36.82    8.45
  -7  -7   6   31.35    8.43
   7  -7  -5    7.14    4.16
   7   7  -5    0.56    2.17
  -7  -7   5    8.99    5.56
   7   7  -4   29.06    7.58
   7  -7  -4   27.11    6.99
  -7  -7   4   37.17    8.85
  -7  -7   3  181.45   18.38
   7   7  -3  204.10   18.75
   7  -7  -3  217.42   19.17
   7  -7  -2   -3.62    3.50
   7   7  -2   -1.01    3.04
   7  -7  -2    3.85    2.72
   7  -7  -1  100.93   12.82
   7   7  -1  122.09   14.66
   7  -7  -1  127.14   13.51
   7  -7   0   -3.18    2.90
   7   7   0   -1.77    3.21
   7  -7   0    0.35    2.13
   7  -7   1   -1.66    3.74
   7   7   1    0.18    2.28
   7  -7   1    3.95    4.60
   7  -7   2    6.85    3.78
   7  -7   2    0.99    3.02
   7   7   2    6.31    3.51
   7   7   3  130.71   15.77
   7  -7   3  102.44   14.12
   7  -7   3  119.11   15.96
   7   7   4   56.43   10.55
   7  -7   4   49.05   10.17
   7   7   5   13.97    5.51
   7   7   5   14.39    5.79
   7  -8  -6    1.75    2.82
  -7  -8   6    0.92    3.32
  -7  -8   5  156.23   17.88
   7   8  -5  143.41   16.32
   7  -8  -5  170.76   18.28
   7  -8  -4   21.34    6.85
  -7  -8   4   18.53    6.54
   7   8  -4   13.98    5.05
  -7  -8   3  160.76   17.38
   7   8  -3  151.51   16.69
   7  -8  -3  159.33   17.10
   7  -8  -2   16.61    5.94
   7   8  -2   17.23    6.13
   7   8  -1  176.30   17.88
   7  -8  -1  184.37   18.04
   7  -8   0   21.60    6.21
   7   8   0   15.52    5.83
   7  -8   1   55.69    9.83
   7   8   1   46.90    9.62
   7  -8   2   38.21    8.13
   7   8   2   30.07    7.72
   7  -8   3    1.56    2.44
   7   8   3   -5.02    3.76
   7   8   4   -2.31    2.89
   7   8   4    0.71    2.40
   7  -8   4   -4.96    3.93
   7   8   5   82.58   13.03
  -7  -9   6   78.72   13.38
   7   9  -6   72.64   12.24
   7  -9  -5   48.74   10.23
  -7  -9   5   33.34    8.69
   7   9  -5   50.79   10.23
   7  -9  -4   14.88    6.02
  -7  -9   4   10.36    5.53
   7   9  -4   11.65    5.21
   7  -9  -3   72.09   12.02
  -7  -9   3   47.45    9.56
   7   9  -3   49.66    9.97
   7   9  -2    5.36    3.83
   7  -9  -2   -2.65    4.82
   7  -9  -1   43.26    8.91
   7   9  -1   39.81    9.27
   7   9   0  141.15   16.67
   7  -9   0  124.72   14.90
   7  -9   1    0.65    2.08
   7   9   1   -6.52    4.09
   7   9   2    2.09    3.18
   7  -9   2    6.30    3.91
   7  -9   3    2.90    2.57
   7   9   3   -5.38    3.46
   7   9   4   43.47    9.08
   7   9   4   38.76    9.34
  -7 -10   5   39.83    9.51
   7  10  -5   41.35    9.65
   7 -10  -4    7.71    4.12
  -7 -10   4   10.24    5.43
   7  10  -4   16.80    6.27
   7 -10  -3    4.34    3.81
  -7 -10   3    2.28    3.10
   7  10  -3    0.34    3.45
   7 -10  -2   89.45   13.39
   7  10  -2   71.65   12.10
   7 -10  -1   19.86    6.43
   7  10  -1   17.47    7.16
   7 -10   0   14.53    6.17
   7  10   0   11.03    4.43
   7 -10   1   13.24    5.21
   7  10   1   12.35    5.69
   7 -10   2   63.24   10.72
   7  10   2   78.98   12.97
   7  10   3   -1.21    2.70
  -7 -11   4   35.71    8.84
   7 -11  -3   44.61    9.96
  -7 -11   3   66.34   11.41
   7  11  -3   74.13   12.91
  -7 -11   2   26.55    7.37
   7 -11  -2   34.46    8.92
   7  11  -2   49.39   10.67
   7 -11  -1   22.16    7.39
   7  11  -1   12.46    6.27
   7 -11   0   79.38   12.53
   7  11   0   87.12   13.86
   7 -11   1   63.35   11.06
   7  11   1   49.65   10.54
   7 -11   2   18.90    6.22
   7  11   2   21.49    7.56
   7 -12   0   -4.26    4.02
   7 -12   1   31.72    8.28
  -8   0   7    0.96    4.12
  -8   0   6  146.41   17.56
  -8   0   5    2.10    3.55
  -8   0   4  308.64   24.05
  -8   0   3    0.87    3.16
   8   0  -3    0.03    2.18
   8   0  -2    8.48    4.10
   8   0  -1    1.70    2.70
   8   0   0  130.47   14.54
   8   0   1   -0.31    2.51
   8   0   2   46.12    9.31
   8   0   3    8.38    5.14
   8   0   4   43.91    9.70
   8   0   5    0.39    2.47
  -8   1   7   37.15    9.43
  -8  -1   6   76.19   12.78
  -8   1   6   83.11   13.08
  -8  -1   5   24.04    7.46
  -8   1   5   17.81    6.61
  -8  -1   4  242.28   21.61
  -8   1   4  238.82   20.80
   8  -1  -3   49.17    8.25
  -8   1   3   31.09    7.38
   8   1  -3   46.99    8.31
   8  -1  -2   77.71   10.64
   8   1  -2   77.91   10.73
   8  -1  -1   83.45   11.34
   8   1  -1   94.04   12.06
   8  -1   0    3.79    3.35
   8   1   0   -5.38    3.53
   8   1   1    4.04    2.27
   8  -1   1   -2.05    2.49
   8   1   2  102.23   13.86
   8  -1   2  126.17   15.34
   8  -1   3   -0.14    3.29
   8   1   3   -0.13    3.77
   8  -1   4   41.58    9.65
   8   1   4   38.11    8.84
   8   1   5   -0.33    2.76
  -8   2   7   20.78    7.29
  -8  -2   6   30.92    9.04
  -8   2   6   23.61    7.07
  -8  -2   5   10.78    5.29
  -8   2   5   -2.53    4.03
  -8  -2   4   30.58    8.17
  -8   2   4   36.07    8.23
   8   2  -4   23.01    5.81
  -8   2   3   24.23    6.66
   8   2  -3   27.93    6.76
   8  -2  -3   26.87    6.29
   8   2  -2    1.67    2.44
   8  -2  -2    0.77    2.67
   8   2  -1   33.68    7.55
   8  -2  -1   32.14    7.20
   8   2   0    6.09    3.68
   8  -2   0    5.22    3.60
   8   2   1    6.45    4.33
   8  -2   1    8.43    3.71
   8   2   2   62.46   10.85
   8  -2   2   60.26   10.85
   8   2   3   23.60    7.13
   8  -2   3   26.19    7.52
   8  -2   4   21.46    7.76
   8   2   4    8.76    4.82
   8   2   5   19.33    6.71
  -8   3   7    2.83    2.71
  -8  -3   6   44.64   10.22
  -8   3   6   59.85   11.11
   8  -3  -6   30.33    7.64
  -8  -3   5  127.20   16.46
  -8   3   5  114.93   14.68
   8  -3  -5  136.73   15.40
   8  -3  -4   -1.16    2.59
  -8  -3   4    2.38    3.25
  -8   3   4   -9.96    4.65
   8   3  -4   -5.50    3.14
   8  -3  -3    3.92    3.38
  -8   3   3   -1.87    3.26
   8   3  -3   -5.68    3.33
   8   3  -2   -1.60    2.81
   8  -3  -2   -6.09    3.28
   8   3  -1   74.45   11.25
   8  -3  -1   80.68   11.14
   8   3   0    2.32    6.96
   8  -3   0    0.86    2.48
   8   3   1  146.99   16.29
   8  -3   1  132.31   15.34
   8   3   2   68.24   11.41
   8  -3   2   64.71   11.31
   8   3   3   12.16    4.93
   8  -3   3    9.49    5.05
   8  -3   4   11.98    6.34
   8   3   4   11.79    5.64
  -8   4   7  104.94   15.00
   8  -4  -6   28.89    7.24
  -8  -4   6   51.04   10.72
  -8   4   6   33.47    8.24
   8  -4  -5   66.39   10.98
  -8  -4   5   49.28   10.46
  -8   4   5   58.18   10.22
   8  -4  -4   31.25    7.50
  -8  -4   4   29.23    8.01
  -8   4   4   29.81    7.35
   8   4  -4   35.36    7.46
  -8   4   3  108.30   13.22
   8  -4  -3  113.28   14.17
   8   4  -3   93.09   12.34
   8  -4  -2   21.64    6.99
   8  -4  -2   31.47    6.67
   8   4  -2   20.22    6.20
   8   4  -1  250.73   20.61
   8  -4  -1  235.76   19.90
   8  -4  -1  234.69   19.07
   8   4   0    0.64    3.17
   8  -4   0    9.47    5.04
   8   4   1   44.58    9.42
   8  -4   1   50.04    9.49
   8   4   2    8.19    4.99
   8  -4   2    5.32    4.09
   8   4   3   41.73    9.15
   8  -4   3   32.51    8.81
   8   4   4    8.19    4.24
   8  -4   4   18.71    6.95
   8  -5  -6    7.69    4.41
  -8  -5   6   -2.51    3.93
   8  -5  -5   48.17    9.64
  -8  -5   5   45.23   10.32
  -8   5   5   45.19    9.05
   8   5  -4    0.46    2.48
  -8  -5   4   -2.75    5.46
  -8   5   4    0.98    2.28
   8   5  -3  103.08   13.47
  -8   5   3   91.09   11.79
   8  -5  -3  115.00   14.65
   8   5  -2   40.84    8.55
   8  -5  -2   37.00    8.45
  -8   5   2   42.31    8.09
   8  -5  -2   34.99    7.25
   8   5  -1  160.63   16.80
   8  -5  -1  185.34   18.05
   8  -5  -1  193.95   17.35
   8  -5   0   15.56    5.65
   8  -5   0   13.98    5.85
   8   5   0   18.23    6.33
   8  -5   1    5.45    4.01
   8   5   1    7.04    5.43
   8   5   2   45.88    9.85
   8  -5   2   49.04   10.09
   8   5   3    2.45    3.00
   8  -5   3  -12.06    5.51
   8   5   4   -9.79    5.11
   8  -5   4   -6.44    4.65
   8  -6  -6   95.24   13.58
   8  -6  -5    9.64    5.11
  -8  -6   5   11.75    5.42
   8   6  -5    9.99    4.24
   8  -6  -4   15.91    6.02
  -8  -6   4   18.23    6.02
   8   6  -4   25.22    6.95
   8  -6  -3   19.48    6.02
   8   6  -3   28.09    7.42
   8  -6  -2   -1.81    2.65
   8   6  -2    3.49    3.48
   8  -6  -2    0.86    1.96
   8   6  -1    3.29    2.38
   8  -6  -1    5.92    4.22
   8  -6  -1    2.58    2.51
   8  -6   0  112.25   14.19
   8   6   0  117.98   15.09
   8  -6   0  107.19   13.79
   8  -6   1   27.70    7.49
   8   6   1   41.26    9.55
   8  -6   2   13.92    6.08
   8   6   2   14.06    6.13
   8   6   3    6.12    4.33
   8  -6   3    1.84    3.21
   8  -7  -5   -7.12    4.31
  -8  -7   5    0.90    3.39
   8   7  -5   -3.63    3.33
   8   7  -4  140.15   16.37
  -8  -7   4  142.62   17.76
   8  -7  -4  149.51   17.27
   8  -7  -3    7.60    4.41
  -8  -7   3    8.54    4.92
   8   7  -3    2.30    2.69
   8  -7  -2   28.75    7.88
   8   7  -2   35.53    8.34
   8  -7  -1   27.34    7.65
   8   7  -1   37.25    9.10
   8  -7  -1   40.08    8.63
   8  -7   0    6.50    3.90
   8  -7   0    3.00    3.02
   8   7   0   -0.53    2.52
   8  -7   1    0.26    3.04
   8  -7   1   -3.28    3.84
   8   7   1    2.82    3.59
   8  -7   2   87.96   13.77
   8   7   2   90.64   13.90
   8   7   3   -2.68    2.86
   8  -7   3    7.27    4.95
   8   8  -5   -1.58    2.58
   8  -8  -4   94.14   14.16
  -8  -8   4   94.45   14.64
   8   8  -4   99.84   14.36
   8  -8  -3   72.61   12.16
  -8  -8   3   59.32   11.40
   8   8  -3   72.07   12.28
   8  -8  -2   61.13   11.29
   8   8  -2   52.24   10.34
   8  -8  -1    4.72    3.63
   8   8  -1    6.91    4.56
   8  -8   0   89.90   13.21
   8   8   0   90.45   13.82
   8  -8   1   19.71    6.48
   8   8   1   15.91    6.29
   8   8   2   49.27   10.34
  -8  -9   4   23.42    7.61
   8   9  -4   18.62    6.74
   8  -9  -3    4.47    3.92
  -8  -9   3    2.71    4.05
   8   9  -3    7.67    4.83
   8  -9  -2   18.45    6.43
   8   9  -2   37.95    9.56
   8  -9  -1   14.61    5.95
   8   9  -1    1.15    2.58
   8  -9   0   10.10    5.10
   8   9   0   13.67    6.39
   8  -9   1   15.37    5.80
   8   9   1   31.78    8.39
   8  -9   2   51.87   10.23
  -8 -10   3   11.28    5.02
   8 -10   0    7.27    4.41
  -9   0   5   -2.84    4.15
  -9   0   4    0.24    2.44
  -9   0   3   47.08   10.29
   9   0  -3   52.47    9.21
   9   0  -2    0.50    2.29
   9   0  -1   12.28    5.74
   9   0   0    3.98    3.59
   9   0   1  189.84   19.74
   9   0   2   -2.76    3.15
  -9  -1   5   16.24    6.69
  -9   1   5   11.18    5.07
  -9  -1   4    4.10    4.30
  -9   1   4    5.49    3.79
  -9  -1   3   21.42    7.69
  -9   1   3   25.04    7.85
   9   1  -3   14.52    5.28
   9   1  -2    8.22    4.00
   9  -1  -2    1.66    2.27
   9   1  -1   90.26   12.96
   9  -1  -1  104.74   13.98
   9   1   0   10.30    4.77
   9  -1   0    6.28    4.23
   9   1   1   46.67    9.93
   9  -1   1   62.84   11.49
   9  -1   2   13.42    6.24
   9   1   2   27.87    8.51
  -9  -2   5   26.33    8.19
  -9   2   5    9.34    4.89
  -9  -2   4  135.99   17.51
  -9   2   4  138.25   16.87
  -9   2   3    1.19    2.98
   9   2  -3   -0.81    1.94
   9   2  -2   34.74    8.18
   9  -2  -2   28.71    7.47
   9   2  -1   36.72    8.54
   9  -2  -1   33.11    7.98
   9   2   0  -14.37    5.77
   9  -2   0   -3.87    3.60
   9   2   1    8.37    4.69
   9  -2   1   19.04    6.48
   9   2   2    6.42    3.84
   9  -2   2    2.39    2.46
  -9   3   5    7.21    4.12
  -9  -3   4  246.85   23.77
  -9   3   4  217.53   20.75
  -9   3   3    2.94    3.34
   9   3  -3    4.56    3.57
   9   3  -2   44.57    9.28
   9  -3  -2   55.86    9.79
   9   3  -1   -1.23    2.40
   9  -3  -1    7.87    4.98
   9   3   0   74.18   12.29
   9  -3   0   77.30   12.40
   9   3   1    8.62    4.88
   9  -3   1    2.89    3.70
   9   3   2   67.35   12.20
   9  -3   2   63.89   11.81
  -9   4   5   -5.78    3.90
   9  -4  -5    0.66    3.98
  -9  -4   4   20.92    8.00
  -9   4   4   17.15    6.24
   9   4  -4   14.58    5.63
   9  -4  -4   23.80    7.60
  -9   4   3    6.33    4.00
   9   4  -3    0.02    3.57
   9   4  -2  210.12   20.03
  -9   4   2  177.87   17.90
   9  -4  -2  181.68   17.28
   9   4  -1   47.50    9.75
   9  -4  -1   53.19   10.14
   9   4   0    2.29    3.47
   9  -4   0    8.61    5.00
   9   4   1   -0.60    2.59
   9  -4   1   -0.90    3.02
   9   4   2   81.00   13.41
   9  -4   2   51.71   10.74
   9  -5  -4  141.06   17.08
   9   5  -4  128.01   15.71
   9  -5  -3   -1.48    3.73
  -9  -5   3   -1.21    4.21
   9   5  -3   -4.87    3.74
   9  -5  -2   11.44    5.57
   9   5  -2    4.80    3.49
   9  -5  -1    5.00    3.30
   9   5  -1    0.75    2.59
   9   5   0  147.85   17.59
   9  -5   0  157.86   17.79
   9   5   1   30.90    8.46
   9  -5   1   32.25    8.86
   9   6  -4    6.98    4.09
   9  -6  -3    2.59    2.94
  -9  -6   3    0.58    3.99
   9   6  -3    2.01    3.06
   9  -6  -2   -7.98    4.58
   9   6  -2   -2.43    3.29
   9  -6  -1    5.83    3.68
   9  -6  -1    5.17    3.75
   9  -6   0   10.20    4.84
   9   6   0    5.46    4.06
   9  -6   1   55.06   11.06
   9   7  -3   19.84    6.80
   9   7  -2   -2.11    2.95
   9  -7  -1   28.00    7.34
   9   7  -1   17.62    6.74
   9  -7   0    5.00    3.59
  10   0  -2   -3.83    2.80
  10   0  -1   -2.41    2.68
  10   1  -2  120.46   15.71
  10  -1  -2  119.30   15.54
  10   1  -1   24.28    7.17
  10  -1  -1   26.52    7.71
  10   2  -3   40.41    9.24
 -10   2   3   33.88    8.91
  10   2  -2   63.16   11.51
  10  -2  -2   44.91    9.57
  10   2  -1    2.97    2.93
  10  -2  -1    3.98    3.54
 -10   3   3    0.81    2.63
  10   3  -3    1.79    2.25
 -10   3   2   13.15    5.59
  10   3  -2    6.20    4.29
  10  -3  -1    5.02    3.81
  10  -4  -1   31.08    8.27
   0   0   0    0.00    0.00
;
_shelx_hkl_checksum              39429
loop_
_space_group_symop_operation_xyz
'x, y, z'
'-x+1/2, y+1/2, -z+1/2'
'-x, -y, -z'
'x-1/2, -y-1/2, z-1/2'
loop_
_atom_site_label
_atom_site_type_symbol
_atom_site_fract_x
_atom_site_fract_y
_atom_site_fract_z
_atom_site_U_iso_or_equiv
_atom_site_adp_type
_atom_site_occupancy
_atom_site_site_symmetry_order
_atom_site_calc_flag
_atom_site_refinement_flags_posn
_atom_site_refinement_flags_adp
_atom_site_refinement_flags_occupancy
_atom_site_disorder_assembly
_atom_site_disorder_group
K1 K 0.49766(6) 0.17758(3) 1.09738(5) 0.01964(14) Uani 1 1 d . . . . .
O3 O 0.28894(19) 0.21168(11) 0.41385(16) 0.0245(3) Uani 1 1 d . . . . .
O2 O 0.32872(19) 0.17638(10) 0.71638(17) 0.0241(3) Uani 1 1 d . . . . .
C1 C 0.6754(3) 0.08176(13) 0.6759(2) 0.0157(4) Uani 1 1 d . . . . .
O1 O 0.62266(17) 0.03229(9) 0.81247(16) 0.0195(3) Uani 1 1 d . . . . .
N5 N 0.3937(2) 0.17770(11) 0.5610(2) 0.0174(3) Uani 1 1 d . . . . .
N2 N 0.9725(2) 0.00188(12) 0.7344(2) 0.0225(3) Uani 1 1 d . . . . .
N1 N 0.8709(2) 0.07196(12) 0.6269(2) 0.0213(3) Uani 1 1 d . . . . .
N4 N 0.5784(2) 0.14933(12) 0.5347(2) 0.0183(3) Uani 1 1 d . . . . .
N3 N 1.0752(3) -0.05917(15) 0.8187(2) 0.0345(4) Uani 1 1 d . . . . .
loop_
_atom_site_aniso_label
_atom_site_aniso_U_11
_atom_site_aniso_U_22
_atom_site_aniso_U_33
_atom_site_aniso_U_23
_atom_site_aniso_U_13
_atom_site_aniso_U_12
K1 0.0244(2) 0.0182(2) 0.0173(2) -0.00066(14) 0.00677(16) -0.00338(15)
O3 0.0257(7) 0.0318(7) 0.0153(6) 0.0018(5) -0.0003(5) 0.0109(6)
O2 0.0222(7) 0.0365(7) 0.0148(6) 0.0015(5) 0.0075(5) 0.0060(6)
C1 0.0193(9) 0.0126(7) 0.0156(8) -0.0056(6) 0.0032(7) -0.0015(7)
O1 0.0237(7) 0.0182(6) 0.0174(6) 0.0036(5) 0.0059(5) -0.0006(5)
N5 0.0196(8) 0.0166(7) 0.0163(7) -0.0013(6) 0.0037(6) 0.0005(6)
N2 0.0227(8) 0.0261(8) 0.0194(8) -0.0038(7) 0.0050(6) 0.0027(7)
N1 0.0179(8) 0.0246(8) 0.0218(7) 0.0072(6) 0.0045(6) 0.0055(6)
N4 0.0180(8) 0.0203(7) 0.0174(7) 0.0026(6) 0.0055(6) 0.0040(6)
N3 0.0356(11) 0.0400(10) 0.0265(9) 0.0022(8) -0.0013(8) 0.0153(8)
loop_
_atom_type_symbol
_atom_type_description
_atom_type_scat_dispersion_real
_atom_type_scat_dispersion_imag
_atom_type_scat_source
C C 0.0033 0.0016 'International Tables Vol C Tables 4.2.6.8 and 6.1.1.4'
N N 0.0061 0.0033 'International Tables Vol C Tables 4.2.6.8 and 6.1.1.4'
O O 0.0106 0.0060 'International Tables Vol C Tables 4.2.6.8 and 6.1.1.4'
K K 0.2009 0.2494 'International Tables Vol C Tables 4.2.6.8 and 6.1.1.4'
loop_
_geom_angle_atom_site_label_1
_geom_angle_atom_site_label_2
_geom_angle_atom_site_label_3
_geom_angle
_geom_angle_site_symmetry_1
_geom_angle_site_symmetry_3
_geom_angle_publ_flag
O1 K1 O2 96.86(4) 3_657 . ?
O1 K1 O3 141.33(4) 3_657 4_666 ?
O2 K1 O3 78.35(4) . 4_666 ?
O1 K1 O3 74.58(4) 3_657 1_556 ?
O2 K1 O3 124.48(4) . 1_556 ?
O3 K1 O3 139.33(3) 4_666 1_556 ?
O1 K1 O1 76.22(4) 3_657 . ?
O2 K1 O1 56.14(4) . . ?
O3 K1 O1 69.32(4) 4_666 . ?
O3 K1 O1 150.60(4) 1_556 . ?
O1 K1 O2 136.30(4) 3_657 4_666 ?
O2 K1 O2 120.30(4) . 4_666 ?
O3 K1 O2 44.33(3) 4_666 4_666 ?
O3 K1 O2 98.78(4) 1_556 4_666 ?
O1 K1 O2 104.62(4) . 4_666 ?
O1 K1 N1 138.51(4) 3_657 4_566 ?
O2 K1 N1 88.92(4) . 4_566 ?
O3 K1 N1 80.10(4) 4_666 4_566 ?
O3 K1 N1 68.53(4) 1_556 4_566 ?
O1 K1 N1 136.77(4) . 4_566 ?
O2 K1 N1 69.35(4) 4_666 4_566 ?
O1 K1 N4 71.82(4) 3_657 1_556 ?
O2 K1 N4 164.56(4) . 1_556 ?
O3 K1 N4 117.07(4) 4_666 1_556 ?
O3 K1 N4 43.33(4) 1_556 1_556 ?
O1 K1 N4 127.83(4) . 1_556 ?
O2 K1 N4 74.48(4) 4_666 1_556 ?
N1 K1 N4 92.87(4) 4_566 1_556 ?
O1 K1 N3 82.89(4) 3_657 3_757 ?
O2 K1 N3 115.83(4) . 3_757 ?
O3 K1 N3 65.86(4) 4_666 3_757 ?
O3 K1 N3 117.16(4) 1_556 3_757 ?
O1 K1 N3 61.85(4) . 3_757 ?
O2 K1 N3 61.46(4) 4_666 3_757 ?
N1 K1 N3 130.81(4) 4_566 3_757 ?
N4 K1 N3 74.05(4) 1_556 3_757 ?
O1 K1 N5 141.16(4) 3_657 4_666 ?
O2 K1 N5 100.48(4) . 4_666 ?
O3 K1 N5 22.48(3) 4_666 4_666 ?
O3 K1 N5 120.53(4) 1_556 4_666 ?
O1 K1 N5 85.11(4) . 4_666 ?
O2 K1 N5 22.27(3) 4_666 4_666 ?
N1 K1 N5 76.55(4) 4_566 4_666 ?
N4 K1 N5 94.85(4) 1_556 4_666 ?
N3 K1 N5 58.27(4) 3_757 4_666 ?
O1 K1 N5 70.42(3) 3_657 1_556 ?
O2 K1 N5 143.52(4) . 1_556 ?
O3 K1 N5 132.86(3) 4_666 1_556 ?
O3 K1 N5 20.27(3) 1_556 1_556 ?
O1 K1 N5 142.52(3) . 1_556 ?
O2 K1 N5 88.58(4) 4_666 1_556 ?
N1 K1 N5 80.68(3) 4_566 1_556 ?
N4 K1 N5 23.17(4) 1_556 1_556 ?
N3 K1 N5 96.90(4) 3_757 1_556 ?
N5 K1 N5 110.72(4) 4_666 1_556 ?
O1 K1 C1 93.84(4) 3_657 . ?
O2 K1 C1 48.43(4) . . ?
O3 K1 C1 54.23(4) 4_666 . ?
O3 K1 C1 166.27(4) 1_556 . ?
O1 K1 C1 18.07(3) . . ?
O2 K1 C1 94.71(4) 4_666 . ?
N1 K1 C1 119.31(4) 4_566 . ?
N4 K1 C1 140.37(4) 1_556 . ?
N3 K1 C1 67.49(4) 3_757 . ?
N5 K1 C1 73.14(4) 4_666 . ?
N5 K1 C1 159.59(4) 1_556 . ?
N5 O3 K1 97.66(9) . 4_565 ?
N5 O3 K1 108.12(10) . 1_554 ?
K1 O3 K1 152.16(5) 4_565 1_554 ?
N5 O2 K1 134.36(11) . . ?
N5 O2 K1 95.58(9) . 4_565 ?
K1 O2 K1 119.91(4) . 4_565 ?
O1 C1 N4 132.47(16) . . ?
O1 C1 N1 122.45(15) . . ?
N4 C1 N1 105.00(14) . . ?
O1 C1 K1 46.37(8) . . ?
N4 C1 K1 104.02(10) . . ?
N1 C1 K1 131.41(10) . . ?
C1 O1 K1 138.64(10) . 3_657 ?
C1 O1 K1 115.56(9) . . ?
K1 O1 K1 103.78(4) 3_657 . ?
O2 N5 O3 120.20(15) . . ?
O2 N5 N4 124.86(14) . . ?
O3 N5 N4 114.88(14) . . ?
O2 N5 K1 62.16(8) . 4_565 ?
O3 N5 K1 59.85(8) . 4_565 ?
N4 N5 K1 162.80(10) . 4_565 ?
O2 N5 K1 170.83(11) . 1_554 ?
O3 N5 K1 51.61(8) . 1_554 ?
N4 N5 K1 63.70(8) . 1_554 ?
K1 N5 K1 110.74(4) 4_565 1_554 ?
N3 N2 N1 173.63(19) . . ?
N2 N1 C1 112.01(14) . . ?
N2 N1 K1 120.61(11) . 4_665 ?
C1 N1 K1 103.21(9) . 4_665 ?
N5 N4 C1 115.01(14) . . ?
N5 N4 K1 93.14(9) . 1_554 ?
C1 N4 K1 142.85(11) . 1_554 ?
N2 N3 K1 150.12(15) . 3_757 ?
loop_
_geom_bond_atom_site_label_1
_geom_bond_atom_site_label_2
_geom_bond_distance
_geom_bond_site_symmetry_2
_geom_bond_publ_flag
K1 O1 2.6610(12) 3_657 ?
K1 O2 2.7874(13) . ?
K1 O3 2.8249(13) 4_666 ?
K1 O3 2.8260(13) 1_556 ?
K1 O1 2.8288(12) . ?
K1 O2 2.8763(13) 4_666 ?
K1 N1 3.0324(15) 4_566 ?
K1 N4 3.0766(14) 1_556 ?
K1 N3 3.2336(17) 3_757 ?
K1 N5 3.2376(15) 4_666 ?
K1 N5 3.4268(14) 1_556 ?
K1 C1 3.5256(16) . ?
O3 N5 1.2493(18) . ?
O3 K1 2.8249(13) 4_565 ?
O3 K1 2.8260(13) 1_554 ?
O2 N5 1.2327(18) . ?
O2 K1 2.8764(13) 4_565 ?
C1 O1 1.2121(19) . ?
C1 N4 1.370(2) . ?
C1 N1 1.437(2) . ?
O1 K1 2.6610(12) 3_657 ?
N5 N4 1.350(2) . ?
N5 K1 3.2376(15) 4_565 ?
N5 K1 3.4268(14) 1_554 ?
N2 N3 1.115(2) . ?
N2 N1 1.259(2) . ?
N1 K1 3.0324(15) 4_665 ?
N4 K1 3.0766(14) 1_554 ?
N3 K1 3.2336(17) 3_757 ?
loop_
_geom_contact_atom_site_label_1
_geom_contact_atom_site_label_2
_geom_contact_distance
_geom_contact_site_symmetry_1
_geom_contact_site_symmetry_2
_geom_contact_publ_flag
? ? ? ? ? ?
loop_
_geom_hbond_atom_site_label_D
_geom_hbond_atom_site_label_H
_geom_hbond_atom_site_label_A
_geom_hbond_distance_DH
_geom_hbond_distance_HA
_geom_hbond_distance_DA
_geom_hbond_angle_DHA
_geom_hbond_site_symmetry_A
? ? ? ? ? ? ? ?
loop_
_geom_torsion_atom_site_label_1
_geom_torsion_atom_site_label_2
_geom_torsion_atom_site_label_3
_geom_torsion_atom_site_label_4
_geom_torsion
_geom_torsion_site_symmetry_1
_geom_torsion_site_symmetry_2
_geom_torsion_site_symmetry_3
_geom_torsion_site_symmetry_4
_geom_torsion_publ_flag
N4 C1 O1 K1 95.3(2) . . . 3_657 ?
N1 C1 O1 K1 -81.0(2) . . . 3_657 ?
K1 C1 O1 K1 160.5(2) . . . 3_657 ?
N4 C1 O1 K1 -65.2(2) . . . . ?
N1 C1 O1 K1 118.48(13) . . . . ?
K1 O2 N5 O3 -158.06(11) . . . . ?
K1 O2 N5 O3 -15.28(15) 4_565 . . . ?
K1 O2 N5 N4 18.8(2) . . . . ?
K1 O2 N5 N4 161.57(13) 4_565 . . . ?
K1 O2 N5 K1 -142.78(13) . . . 4_565 ?
K1 O3 N5 O2 15.64(15) 4_565 . . . ?
K1 O3 N5 O2 -175.00(11) 1_554 . . . ?
K1 O3 N5 N4 -161.51(11) 4_565 . . . ?
K1 O3 N5 N4 7.85(15) 1_554 . . . ?
K1 O3 N5 K1 169.36(9) 1_554 . . 4_565 ?
K1 O3 N5 K1 -169.36(9) 4_565 . . 1_554 ?
O1 C1 N1 N2 3.9(2) . . . . ?
N4 C1 N1 N2 -173.22(13) . . . . ?
K1 C1 N1 N2 61.98(18) . . . . ?
O1 C1 N1 K1 -127.28(13) . . . 4_665 ?
N4 C1 N1 K1 55.56(12) . . . 4_665 ?
K1 C1 N1 K1 -69.25(12) . . . 4_665 ?
O2 N5 N4 C1 21.1(2) . . . . ?
O3 N5 N4 C1 -161.88(14) . . . . ?
K1 N5 N4 C1 130.1(3) 4_565 . . . ?
K1 N5 N4 C1 -155.02(14) 1_554 . . . ?
O2 N5 N4 K1 176.14(13) . . . 1_554 ?
O3 N5 N4 K1 -6.86(13) . . . 1_554 ?
K1 N5 N4 K1 -74.9(3) 4_565 . . 1_554 ?
O1 C1 N4 N5 8.3(3) . . . . ?
N1 C1 N4 N5 -174.91(13) . . . . ?
K1 C1 N4 N5 -34.31(14) . . . . ?
O1 C1 N4 K1 -127.37(18) . . . 1_554 ?
N1 C1 N4 K1 49.4(2) . . . 1_554 ?
K1 C1 N4 K1 -170.02(12) . . . 1_554 ?
