#------------------------------------------------------------------------------
#$Date: 2021-01-28 01:50:09 +0200 (Thu, 28 Jan 2021) $
#$Revision: 261276 $
#$URL: file:///home/coder/svn-repositories/cod/cif/4/13/55/4135552.cif $
#------------------------------------------------------------------------------
#
# This file is available in the Crystallography Open Database (COD),
# http://www.crystallography.net/
#
# All data on this site have been placed in the public domain by the
# contributors.
#
data_4135552
loop_
_publ_author_name
'Nam, Donggeon'
'Steck, Viktoria'
'Potenzino, Robert J.'
'Fasan, Rudi'
_publ_section_title
;
 A Diverse Library of Chiral Cyclopropane Scaffolds via Chemoenzymatic
 Assembly and Diversification of Cyclopropyl Ketones.
;
_journal_name_full               'Journal of the American Chemical Society'
_journal_paper_doi               10.1021/jacs.0c09504
_journal_year                    2021
_chemical_absolute_configuration ad
_chemical_formula_moiety         'C18 H17 Br O'
_chemical_formula_sum            'C18 H17 Br O'
_chemical_formula_weight         329.22
_space_group_crystal_system      monoclinic
_space_group_IT_number           4
_space_group_name_Hall           'P 2yb'
_space_group_name_H-M_alt        'P 1 21 1'
_atom_sites_solution_hydrogens   geom
_atom_sites_solution_primary     dual
_atom_sites_solution_secondary   difmap
_audit_creation_date             2020-07-14
_audit_creation_method
;
Olex2 1.3-ac4
(compiled 2020.03.28 svn.rd84adfe8 for Rigaku Oxford Diffraction, GUI svn.r6032)
;
_cell_angle_alpha                90
_cell_angle_beta                 93.6740(10)
_cell_angle_gamma                90
_cell_formula_units_Z            2
_cell_length_a                   7.38540(10)
_cell_length_b                   5.85390(10)
_cell_length_c                   17.0708(2)
_cell_measurement_reflns_used    18575
_cell_measurement_temperature    100.00(10)
_cell_measurement_theta_max      77.4790
_cell_measurement_theta_min      2.6180
_cell_volume                     736.512(18)
_computing_cell_refinement       'CrysAlisPro 1.171.40.82a (Rigaku OD, 2020)'
_computing_data_collection       'CrysAlisPro 1.171.40.82a (Rigaku OD, 2020)'
_computing_data_reduction        'CrysAlisPro 1.171.40.82a (Rigaku OD, 2020)'
_computing_molecular_graphics    'Olex2 1.3-ac4 (Dolomanov et al., 2009)'
_computing_publication_material  'Olex2 1.3-ac4 (Dolomanov et al., 2009)'
_computing_structure_refinement  'SHELXL 2018/3 (Sheldrick, 2015b)'
_computing_structure_solution    'SHELXT (Sheldrick, 2015a)'
_diffrn_ambient_environment      N~2~
_diffrn_ambient_temperature      100.00(10)
_diffrn_detector                 'Hybrid Pixel Array Detector'
_diffrn_detector_area_resol_mean 10.0000
_diffrn_detector_type            HyPix
_diffrn_measured_fraction_theta_full 1.000
_diffrn_measured_fraction_theta_max 0.994
_diffrn_measurement_details
;
List of Runs (angles in degrees, time in seconds):

  # Type    Start    End  Width  t~exp~   \w     \q     \k     \f   Frames
--------------------------------------------------------------------------
  1  \w     31.00 124.00   0.50    0.05    --   52.00  79.00  -4.78  186
  2  \w     29.00 121.00   0.50    0.05    --   49.87  77.00 -60.00  184
  3  \w     85.00 178.00   0.50    0.05    --  105.75  77.00-150.00  186
  4  \w     85.00 178.00   0.50    0.05    --  105.75  77.00-180.00  186
  5  \w     41.00 131.00   0.50    0.05    --   60.00  74.00-123.02  180
  6  \w     52.00 144.00   0.50    0.05    --   72.00  76.00 -47.28  184
  7  \w     85.00 178.00   0.50    0.05    --  105.75  77.00 -60.00  186
  8  \w     92.00 178.00   0.50    0.05    --  105.75  61.00 -60.00  172
  9  \w     92.00 178.00   0.50    0.05    --  105.75  61.00   0.00  172
 10  \w     92.00 178.00   0.50    0.05    --  105.75  61.00  30.00  172
 11  \w     45.00 136.00   0.50    0.05    --   64.00  73.00 166.34  182
 12  \w     47.00 139.00   0.50    0.05    --   68.00  77.00 123.30  184
 13  \w     31.00 124.00   0.50    0.05    --   52.00  77.00  70.86  186
 14  \w     98.00 175.00   0.50    0.05    --  105.75  15.00 150.00  154
 15  \w     98.00 178.00   0.50    0.05    --  105.75  30.00 120.00  160
 16  \w     98.00 175.00   0.50    0.05    --  105.75  15.00  60.00  154
 17  \w     92.00 178.00   0.50    0.05    --  105.75  61.00 -30.00  172
 18  \w     92.00 178.00   0.50    0.05    --  105.75  61.00-120.00  172
 19  \w     98.00 175.00   0.50    0.05    --  105.75  15.00-180.00  154
 20  \w     34.00 109.00   0.50    0.05    --  105.75 -94.00   0.00  150
 21  \w     49.00 116.00   0.50    0.05    --   49.87-159.00   7.00  134
 22  \w     49.00 139.00   0.50    0.05    --  105.75-159.00   7.00  180
 23  \w     34.00 116.00   0.50    0.05    --  105.75-125.00  30.00  164
 24  \w     34.00 116.00   0.50    0.05    --  105.75-125.00 -30.00  164
 25  \w     34.00 116.00   0.50    0.05    --  105.75-125.00-150.00  164
 26  \w     34.00 116.00   0.50    0.05    --  105.75-125.00-120.00  164
 27  \w     34.00 109.00   0.50    0.05    --  105.75 -94.00 -60.00  150
 28  \w     34.00 116.00   0.50    0.05    --  105.75-125.00 -60.00  164
 29  \w     34.00 116.00   0.50    0.05    --  105.75-125.00 120.00  164
 30  \w     34.00 113.00   0.50    0.05    --  105.75-118.00 160.00  158
 31  \w     27.00  92.00   0.50    0.05    --   49.87-118.00 160.00  130
 32  \w     34.00 109.00   0.50    0.05    --  105.75 -94.00 -30.00  150
 33  \w     34.00 109.00   0.50    0.05    --  105.75 -94.00-150.00  150
 34  \w     34.00  80.00   0.50    0.05    --  105.75 -61.00-180.00   92
 35  \w     34.00  80.00   0.50    0.05    --  105.75 -61.00-150.00   92
 36  \w     34.00  80.00   0.50    0.05    --  105.75 -61.00 -60.00   92
 37  \w     34.00  80.00   0.50    0.05    --  105.75 -61.00 -30.00   92
 38  \w     96.00 178.00   0.50    0.05    --  105.75 118.00-113.00  164
 39  \w     92.00 178.00   0.50    0.05    --  105.75 125.00 -90.00  172
 40  \w     69.00 164.00   0.50    0.05    --  105.75 159.00  39.00  190
 41  \w     92.00 178.00   0.50    0.05    --  105.75 125.00 150.00  172
 42  \w     69.00 121.00   0.50    0.05    --   49.87 159.00  39.00  104
 43  \w      7.00  34.00   0.50    0.05    --   36.00  95.00 147.58   54
 44  \w     13.00  40.00   0.50    0.05    --   40.00  91.00  83.04   54
 45  \w    -17.00  10.00   0.50    0.05    --   16.00 103.00 -36.48   54
 46  \w      9.00  40.00   0.50    0.05    --   36.00  91.00-127.98   62
 47  \w     -5.00  24.00   0.50    0.05    --  -49.87  19.00  30.00   58
 48  \w     -5.00  24.00   0.50    0.05    --  -49.87  19.00  90.00   58
 49  \w     -5.00  24.00   0.50    0.05    --  -49.87  19.00   0.00   58
 50  \w     -5.00  24.00   0.50    0.05    --  -49.87  19.00 -30.00   58
 51  \w     -5.00  24.00   0.50    0.05    --  -49.87  19.00 -60.00   58
 52  \w     -5.00  24.00   0.50    0.05    --  -49.87  19.00 -90.00   58
 53  \w    -44.00 -12.00   0.50    0.05    --  -84.25  45.00 -90.00   64
 54  \w    -87.00  -5.00   0.50    0.05    --  -49.87 118.00-113.00  164
 55  \w   -114.00 -27.00   0.50    0.05    --  -49.87 159.00  39.00  174
 56  \w    -87.00 -12.00   0.50    0.05    --  -84.25 118.00-113.00  150
 57  \w   -156.00 -75.00   0.50    0.05    --  -84.25-118.00 160.00  162
 58  \w   -121.00 -75.00   0.50    0.05    --  -49.87-118.00 160.00   92
 59  \w   -147.00 -47.00   0.50    0.05    --  -84.25-159.00   7.00  200
 60  \w   -121.00 -70.00   0.50    0.05    --  -49.87-125.00 -90.00  102
 61  \w   -121.00 -70.00   0.50    0.05    --  -49.87-125.00 -60.00  102
 62  \w   -121.00 -47.00   0.50    0.05    --  -49.87-159.00   7.00  148
 63  \w   -156.00 -63.00   0.50    0.05    --  -84.25 -77.00  90.00  186
;
_diffrn_measurement_device       'four-circle diffractometer'
_diffrn_measurement_device_type  'XtaLAB Synergy, Dualflex, HyPix'
_diffrn_measurement_method       '\w scans'
_diffrn_orient_matrix_type
'CrysAlisPro convention (1999,Acta A55,543-557)'
_diffrn_orient_matrix_UB_11      -0.0058218000
_diffrn_orient_matrix_UB_12      -0.1115294000
_diffrn_orient_matrix_UB_13      -0.0818891000
_diffrn_orient_matrix_UB_21      -0.0849180000
_diffrn_orient_matrix_UB_22      0.2189495000
_diffrn_orient_matrix_UB_23      -0.0364085000
_diffrn_orient_matrix_UB_31      0.1909113000
_diffrn_orient_matrix_UB_32      0.0939772000
_diffrn_orient_matrix_UB_33      -0.0123336000
_diffrn_radiation_monochromator  mirror
_diffrn_radiation_probe          x-ray
_diffrn_radiation_type           'Cu K\a'
_diffrn_radiation_wavelength     1.54184
_diffrn_reflns_av_R_equivalents  0.0918
_diffrn_reflns_av_unetI/netI     0.0361
_diffrn_reflns_Laue_measured_fraction_full 1.000
_diffrn_reflns_Laue_measured_fraction_max 0.994
_diffrn_reflns_limit_h_max       9
_diffrn_reflns_limit_h_min       -8
_diffrn_reflns_limit_k_max       7
_diffrn_reflns_limit_k_min       -7
_diffrn_reflns_limit_l_max       21
_diffrn_reflns_limit_l_min       -21
_diffrn_reflns_number            24493
_diffrn_reflns_point_group_measured_fraction_full 0.999
_diffrn_reflns_point_group_measured_fraction_max 0.986
_diffrn_reflns_theta_full        74.504
_diffrn_reflns_theta_max         77.776
_diffrn_reflns_theta_min         2.594
_diffrn_source                   'micro-focus sealed X-ray tube'
_diffrn_source_type              'PhotonJet (Cu) X-ray Source'
_exptl_absorpt_coefficient_mu    3.729
_exptl_absorpt_correction_T_max  1.00000
_exptl_absorpt_correction_T_min  0.81146
_exptl_absorpt_correction_type   multi-scan
_exptl_absorpt_process_details
;
CrysAlisPro 1.171.40.82a (Rigaku Oxford Diffraction, 2020)
Empirical absorption correction using spherical harmonics,
implemented in SCALE3 ABSPACK scaling algorithm.
;
_exptl_crystal_colour            colourless
_exptl_crystal_colour_primary    colourless
_exptl_crystal_density_diffrn    1.485
_exptl_crystal_description       plate
_exptl_crystal_F_000             336
_exptl_crystal_size_max          0.257
_exptl_crystal_size_mid          0.184
_exptl_crystal_size_min          0.049
_refine_diff_density_max         0.594
_refine_diff_density_min         -0.637
_refine_diff_density_rms         0.085
_refine_ls_abs_structure_details
;
 Flack x determined using 1322 quotients [(I+)-(I-)]/[(I+)+(I-)]
 (Parsons, Flack and Wagner, Acta Cryst. B69 (2013) 249-259).
;
_refine_ls_abs_structure_Flack   -0.020(19)
_refine_ls_extinction_method     none
_refine_ls_goodness_of_fit_ref   1.130
_refine_ls_hydrogen_treatment    constr
_refine_ls_matrix_type           full
_refine_ls_number_parameters     182
_refine_ls_number_reflns         3103
_refine_ls_number_restraints     1
_refine_ls_restrained_S_all      1.129
_refine_ls_R_factor_all          0.0342
_refine_ls_R_factor_gt           0.0338
_refine_ls_shift/su_max          0.000
_refine_ls_shift/su_mean         0.000
_refine_ls_structure_factor_coef Fsqd
_refine_ls_weighting_details
'w=1/[\s^2^(Fo^2^)+(0.0513P)^2^+0.3785P] where P=(Fo^2^+2Fc^2^)/3'
_refine_ls_weighting_scheme      calc
_refine_ls_wR_factor_gt          0.0890
_refine_ls_wR_factor_ref         0.0892
_reflns_Friedel_coverage         0.802
_reflns_Friedel_fraction_full    0.999
_reflns_Friedel_fraction_max     0.977
_reflns_number_gt                3069
_reflns_number_total             3103
_reflns_threshold_expression     'I > 2\s(I)'
_cod_data_source_file            compound_8c.cif
_cod_data_source_block           fasdn04
_cod_database_code               4135552
_shelx_shelxl_version_number     2018/3
_shelx_space_group_comment
;
The symmetry employed for this shelxl refinement is uniquely defined
by the following loop, which should always be used as a source of
symmetry information in preference to the above space-group names.
They are only intended as comments.
;
_shelx_estimated_absorpt_t_max   0.838
_shelx_estimated_absorpt_t_min   0.447
_reflns_odcompleteness_completeness 100.00
_reflns_odcompleteness_iscentric 1
_reflns_odcompleteness_theta     74.33
_olex2_refinement_description
;
1. Fixed Uiso
 At 1.2 times of:
  All C(H) groups, All C(H,H) groups
 At 1.5 times of:
  All C(H,H,H) groups
2.a Ternary CH refined with riding coordinates:
 C1(H1), C2(H2)
2.b Secondary CH2 refined with riding coordinates:
 C3(H3A,H3B), C5(H5A,H5B)
2.c Aromatic/amide H refined with riding coordinates:
 C7(H7), C8(H8), C10(H10), C11(H11), C14(H14), C15(H15), C17(H17), C18(H18)
2.d Idealised Me refined as rotating group:
 C12(H12A,H12B,H12C)
;
_shelx_res_file
;
TITL fasdn04_c.res in P2(1)
    fasdn04.res
    created by SHELXL-2018/3 at 17:59:19 on 14-Jul-2020
REM Old TITL FASDN04 in P21 #4
REM SHELXT solution in P2(1)
REM R1 0.082, Rweak 0.036, Alpha 0.059, Orientation as input
REM Flack x = 0.019 ( 0.020 ) from Parsons' quotients
REM Formula found by SHELXT: C18 O2 Br
CELL 1.54184 7.3854 5.8539 17.0708 90 93.674 90
ZERR 2 0.0001 0.0001 0.0002 0 0.001 0
LATT -1
SYMM -X,0.5+Y,-Z
SFAC C H Br O
UNIT 36 34 2 2

L.S. 12
PLAN  12
SIZE 0.257 0.184 0.049
TEMP -173.15(10)
CONF
BOND $H
LIST 4
MORE -1
fmap 2
acta 149.008
OMIT -8 3 7
REM <olex2.extras>
REM <HklSrc "%.\\FASDN04.hkl">
REM </olex2.extras>

WGHT    0.051300    0.378500
FVAR       7.09078
BR1   3    0.979295   -0.077479    0.930187    11.00000    0.02923    0.02357 =
         0.01806    0.00268    0.00109    0.00447
O1    4    0.716521    0.914228    0.533513    11.00000    0.03784    0.02357 =
         0.03412    0.00777    0.00639   -0.00078
C1    1    0.699684    0.548360    0.591044    11.00000    0.02116    0.01784 =
         0.01834    0.00060    0.00223   -0.00183
AFIX  13
H1    2    0.607922    0.432846    0.605615    11.00000   -1.20000
AFIX   0
C2    1    0.884571    0.540669    0.637598    11.00000    0.02255    0.01957 =
         0.01935   -0.00074    0.00121   -0.00359
AFIX  13
H2    2    0.946054    0.692139    0.644683    11.00000   -1.20000
AFIX   0
C3    1    0.865985    0.457270    0.554942    11.00000    0.02471    0.02532 =
         0.01647    0.00098    0.00555    0.00110
AFIX  23
H3A   2    0.873070    0.290416    0.546189    11.00000   -1.20000
H3B   2    0.919802    0.551734    0.514314    11.00000   -1.20000
AFIX   0
C4    1    0.630031    0.780261    0.570940    11.00000    0.02743    0.01996 =
         0.01789    0.00030   -0.00161   -0.00327
C5    1    0.446131    0.842214    0.599252    11.00000    0.03098    0.02256 =
         0.02250    0.00070   -0.00023    0.00387
AFIX  23
H5A   2    0.351024    0.755517    0.568449    11.00000   -1.20000
H5B   2    0.423430    1.006956    0.589918    11.00000   -1.20000
AFIX   0
C6    1    0.432760    0.791093    0.685819    11.00000    0.01798    0.02152 =
         0.01943   -0.00088    0.00050    0.00468
C7    1    0.356095    0.586847    0.709874    11.00000    0.01498    0.01936 =
         0.02609   -0.00472    0.00043    0.00013
AFIX  43
H7    2    0.305645    0.483129    0.671630    11.00000   -1.20000
AFIX   0
C8    1    0.352669    0.533364    0.789099    11.00000    0.01815    0.01764 =
         0.02906   -0.00027    0.00539   -0.00190
AFIX  43
H8    2    0.301002    0.392649    0.804127    11.00000   -1.20000
AFIX   0
C9    1    0.423770    0.682642    0.847013    11.00000    0.01564    0.02706 =
         0.02302   -0.00150    0.00442    0.00440
C10   1    0.497273    0.888341    0.822668    11.00000    0.01744    0.02161 =
         0.02535   -0.00497    0.00021    0.00168
AFIX  43
H10   2    0.544521    0.994262    0.860877    11.00000   -1.20000
AFIX   0
C11   1    0.502522    0.940783    0.743623    11.00000    0.02098    0.01766 =
         0.02963   -0.00413    0.00441    0.00138
AFIX  43
H11   2    0.554606    1.081262    0.728614    11.00000   -1.20000
AFIX   0
C12   1    0.427123    0.617614    0.932849    11.00000    0.02771    0.03666 =
         0.02695    0.00257    0.00581    0.00565
AFIX 137
H12A  2    0.553159    0.607788    0.954323    11.00000   -1.50000
H12B  2    0.367727    0.469222    0.938177    11.00000   -1.50000
H12C  2    0.362656    0.733702    0.961660    11.00000   -1.50000
AFIX   0
C13   1    0.907911    0.385332    0.706341    11.00000    0.01464    0.01536 =
         0.02163    0.00086    0.00141   -0.00349
C14   1    0.994472    0.175247    0.703805    11.00000    0.01778    0.02008 =
         0.02046   -0.00520    0.00427   -0.00205
AFIX  43
H14   2    1.038637    0.125100    0.655656    11.00000   -1.20000
AFIX   0
C15   1    1.018425    0.036237    0.769532    11.00000    0.01782    0.01780 =
         0.02048   -0.00275    0.00056    0.00099
AFIX  43
H15   2    1.078897   -0.106510    0.766830    11.00000   -1.20000
AFIX   0
C16   1    0.951932    0.110852    0.839202    11.00000    0.01639    0.02034 =
         0.01885    0.00170    0.00041   -0.00243
C17   1    0.865450    0.320637    0.844458    11.00000    0.02020    0.01835 =
         0.02035   -0.00364    0.00110    0.00184
AFIX  43
H17   2    0.822250    0.370547    0.892820    11.00000   -1.20000
AFIX   0
C18   1    0.843385    0.455731    0.777828    11.00000    0.01784    0.01900 =
         0.02491   -0.00220    0.00167   -0.00042
AFIX  43
H18   2    0.783367    0.598734    0.780723    11.00000   -1.20000
AFIX   0
HKLF 4




REM  fasdn04_c.res in P2(1)
REM wR2 = 0.089238, GooF = S = 1.12951, Restrained GooF = 1.12931 for all data
REM R1 = 0.033822 for 3069 Fo > 4sig(Fo) and 0.034240 for all 3103 data
REM 182 parameters refined using 1 restraints

END

WGHT      0.0511      0.3781

REM Highest difference peak  0.594,  deepest hole -0.637,  1-sigma level  0.085
Q1    1   0.8162 -0.0750  0.9412  11.00000  0.05    0.59
Q2    1   0.9653 -0.0806  0.8623  11.00000  0.05    0.57
Q3    1   1.1388 -0.0748  0.9184  11.00000  0.05    0.56
Q4    1   0.9987 -0.0777  0.9984  11.00000  0.05    0.50
Q5    1   0.8372 -0.0732  0.8675  11.00000  0.05    0.34
Q6    1   0.8238  0.4073  0.9693  11.00000  0.05    0.32
Q7    1   0.2815  0.4242  1.0185  11.00000  0.05    0.30
Q8    1   1.1289 -0.0873  0.9907  11.00000  0.05    0.29
Q9    1   0.7398  0.9542  0.7872  11.00000  0.05    0.28
Q10   1   0.6963  0.7836  0.7416  11.00000  0.05    0.26
Q11   1   0.2464  0.6320  0.9361  11.00000  0.05    0.26
Q12   1   0.8580  0.2719  0.9716  11.00000  0.05    0.25
;
_shelx_res_checksum              79831
_shelx_hkl_file
;
   0  -7   0-17.9087 70.2810  14
   0  -7   0 19.6904 114.614  15
   0  -7   1 2892.83 416.059  14
   0  -7   1 3303.69 469.897  15
   0  -7  -1 2593.41 417.800  15
   0  -7  -1 2703.21 402.645  14
   0  -7   2 8882.21 723.174  14
   0  -7  -2 8724.04 719.226  14
   0  -7   2 8371.09 756.391  15
   0  -7  -2 7936.83 707.749  15
   0  -7  -3 8842.82 704.049  14
   0  -7   3 9829.71 739.382  14
   0  -7   3 9656.60 797.906  15
   0  -7  -3 8205.63 668.053  15
   0  -7   4 11290.7 765.180  14
   0  -7   4 14164.9 929.031  15
   0  -7  -4 12836.6 876.452  19
   0  -7  -4 11726.7 777.325  14
   0  -7   5 13501.7 781.879  14
   0  -7  -5 15612.8 926.083  19
   0  -7   5 16264.0 957.529  15
   0  -7  -5 14936.6 824.635  14
   0  -7   5 16801.7 1614.71  40
   0  -7   6 584.997 153.516  15
   0  -7  -6 568.508 157.237  19
   0  -6   0 30604.2 2104.48  15
   0  -6   0 33321.0 2061.36  14
   0  -6   0 34054.8 2438.83  12
   0  -6  -1 16034.9 1506.75  15
   0  -6   1 15267.6 1486.02  15
   0  -6  -1 13568.0 1311.94  14
   0  -6   1 15242.8 1576.03  12
   0  -6  -1 16040.5 1707.46  12
   0  -6  -2 14849.1 1444.65  15
   0  -6   2 14038.9 1432.33  15
   0  -6  -2 15188.0 1387.05  14
   0  -6   2 8625.97 1088.09  63
   0  -6   2 13930.8 1489.41  12
   0  -6  -2 12995.7 1563.08  12
   0  -6   3 1455.67 463.766  15
   0  -6  -3 887.981 368.048  14
   0  -6  -3 1124.09 405.402  15
   0  -6   3 819.371 356.562  63
   0  -6   3 964.661 553.008  57
   0  -6  -3 1458.44 557.374  12
   0  -6   3 1427.23 450.473  12
   0  -6  -4 464.420 303.959  15
   0  -6  -4 397.474 228.915  14
   0  -6   4 630.965 330.336  15
   0  -6  -4 354.317 351.938  57
   0  -6   4 433.133 249.407  63
   0  -6   4 626.476 440.612  57
   0  -6   4 764.700 316.522  12
   0  -6  -4 940.046 423.166  12
   0  -6   5 12843.5 1656.84  57
   0  -6  -5 11424.9 1600.31  57
   0  -6   5 13595.1 1334.71  63
   0  -6  -5 13678.5 1278.51  14
   0  -6  -5 14476.9 1358.58  15
   0  -6   5 16443.2 1503.93  15
   0  -6  -6 18731.2 1916.23  57
   0  -6   6 20191.9 1610.76  63
   0  -6   6 15419.2 1714.75  57
   0  -6  -6 19208.7 1496.54  14
   0  -6  -6 19431.0 1532.45  15
   0  -6   6 17823.1 1563.48  15
   0  -6  -7 17750.1 1382.20  14
   0  -6   7 18140.4 1530.76  15
   0  -6  -7 18236.8 1416.43  15
   0  -6   7 14777.0 1558.16  57
   0  -6   7 20630.0 1572.82  63
   0  -6  -7 17519.2 1751.18  12
   0  -6  -8 21505.0 1473.38  14
   0  -6  -8 20347.1 1490.50  19
   0  -6  -8 21376.1 1462.79  15
   0  -6   8 23987.9 1642.60  63
   0  -6  -9 5824.02 679.759  15
   0  -6  -9 6888.28 770.807  14
   0  -6  -9 6827.38 792.832  19
   0  -6   9 7831.98 876.930  63
   0  -6 -10 6126.91 697.673  19
   0  -6 -10 6753.52 707.650  14
   0  -6 -10 6291.08 613.858  15
   0  -6  10 6635.13 755.735  63
   0  -6  11 2269.83 440.139  15
   0  -6 -11 3073.07 428.911  14
   0  -6 -11 3630.24 495.148  19
   0  -6 -12 2876.40 332.887  14
   0  -6 -12 3385.07 411.394  19
   0  -5   0 140.415 164.347  13
   0  -5   0 347.664 193.000  50
   0  -5   0 114.970 285.389  12
   0  -5   1 15095.3 1541.13  15
   0  -5  -1 16305.3 1599.34  15
   0  -5   1 15415.3 1610.25  13
   0  -5  -1 15951.6 1532.52  13
   0  -5  -1 13742.1 1303.47  50
   0  -5   1 14951.4 1289.74  50
   0  -5  -1 12626.3 1239.69  11
   0  -5   1 17912.3 1828.42  12
   0  -5  -1 19019.2 1914.36  12
   0  -5  -2 47845.0 2830.21  15
   0  -5   2 49002.1 3001.53  13
   0  -5  -2 54016.0 3350.58  12
   0  -5  -2 41454.2 2316.58  11
   0  -5   2 49864.4 3103.38  12
   0  -5  -2 40703.5 2430.49  50
   0  -5  -3 42895.4 2683.80  15
   0  -5  -3 41856.4 2520.13  14
   0  -5   3 46733.7 2956.19  13
   0  -5   3 48298.5 2569.59  16
   0  -5   3 39571.8 2626.15  63
   0  -5  -3 44640.5 2360.48  11
   0  -5   3 45145.8 2917.10  12
   0  -5  -3 39382.0 2413.86  50
   0  -5   3 37830.6 2259.29  51
   0  -5   4 24144.6 1780.51  16
   0  -5  -4 21245.3 1760.02  14
   0  -5  -4 21062.9 1829.79  15
   0  -5   4 24300.6 2131.84  13
   0  -5   4 23751.5 1992.80  63
   0  -5   4 21440.3 1959.88  12
   0  -5  -4 20885.9 1567.27  11
   0  -5  -4 19110.6 1668.39  50
   0  -5   4 21489.9 1577.75  51
   0  -5  -5 11585.0 1331.84  15
   0  -5   5 10812.7 1434.57  13
   0  -5  -5 9465.02 1158.18  14
   0  -5   5 11293.8 1205.37  16
   0  -5   5 11143.3 1363.72  63
   0  -5  -5 11062.3 1531.72  12
   0  -5   5 8040.23 1188.87  12
   0  -5  -5 9626.27 1049.64  11
   0  -5  -5 8749.71 1104.83  50
   0  -5  -6 10606.2 1273.77  15
   0  -5   6 10645.5 1439.02  13
   0  -5  -6 9587.55 1173.17  14
   0  -5   6 11343.5 1193.60  16
   0  -5   6 10603.4 1350.80  63
   0  -5   6 6387.12 1051.29  12
   0  -5  -6 10275.7 1505.09  12
   0  -5  -6 8744.26 1003.67  11
   0  -5  -6 10694.9 1208.41  50
   0  -5   7 893.349 353.431  12
   0  -5  -7 2549.89 804.480  12
   0  -5  -7 2707.89 539.969  11
   0  -5   7 2078.62 677.499  57
   0  -5   7 2883.57 711.696  63
   0  -5  -7 2649.32 627.119  15
   0  -5   7 3020.94 736.598  13
   0  -5   7 2850.83 594.984  16
   0  -5  -7 3014.33 651.111  14
   0  -5  -8 5085.12 751.362  11
   0  -5  -8 5951.17 1158.60  12
   0  -5   8 5618.65 1042.42  57
   0  -5  -8 4174.75 888.734  57
   0  -5  -8 5110.88 867.910  15
   0  -5  -8 5102.68 853.511  14
   0  -5   8 5383.29 816.460  16
   0  -5   8 6432.59 1072.29  13
   0  -5  -9 4935.12 1042.25  12
   0  -5  -9 5050.46 740.319  11
   0  -5   9 4566.70 891.151  13
   0  -5  -9 5992.41 931.957  19
   0  -5   9 5262.57 791.880  16
   0  -5  -9 5455.71 866.678  14
   0  -5  -9 4124.63 767.558  15
   0  -5 -10 41740.7 2212.86  11
   0  -5 -10 37726.0 2856.72  12
   0  -5 -10 40512.2 2419.21  15
   0  -5 -10 38586.8 2411.36  19
   0  -5 -10 40595.4 2423.82  14
   0  -5  10 39650.2 2227.56  16
   0  -5 -11 28354.3 2343.41  12
   0  -5 -11 31616.2 2056.37  14
   0  -5  11 33768.2 1930.62  16
   0  -5 -11 33811.6 2134.93  19
   0  -5 -11 30245.9 2004.17  15
   0  -5  12 9402.92 913.241  16
   0  -5 -12 10318.5 1040.76  15
   0  -5 -12 10234.6 1083.77  19
   0  -5 -12 9290.02 1012.92  14
   0  -5  12 11777.6 1198.43  63
   0  -5 -13 2672.87 519.011  19
   0  -5 -13 2976.03 535.357  14
   0  -5 -13 3400.79 520.063  15
   0  -5  13 3189.59 456.730  16
   0  -5  13 3394.25 586.224  63
   0  -5 -14 1295.56 323.555  14
   0  -5 -14 1373.24 341.192  19
   0  -5  14 1239.04 317.358  63
   0  -5 -15 2583.46 388.857  14
   0  -5 -15 2919.98 427.063  19
   0  -4   0 69392.6 2964.23  16
   0  -4   0 68244.2 3189.20  13
   0  -4   0 61963.9 2783.54  50
   0  -4   0 73379.1 3519.97  12
   0  -4   1 71194.5 3052.29  16
   0  -4   1 80398.1 3574.53  13
   0  -4  -1 68456.0 3197.39  15
   0  -4  -1 81474.8 3393.60  13
   0  -4   1 70817.3 2931.12  50
   0  -4  -1 62513.5 2885.58  50
   0  -4  -1 81318.2 3755.20  12
   0  -4   1 79154.6 3656.68  12
   0  -4  -2 29578.4 1961.54  15
   0  -4  -2 30519.8 1912.51  13
   0  -4   2 33160.5 2192.12  13
   0  -4   2 28051.0 1800.94  16
   0  -4   2 28233.9 1676.29  50
   0  -4   2 28964.1 1637.24  43
   0  -4   2 29239.0 2100.84  12
   0  -4  -3 130.680 140.486  13
   0  -4   3 231.002 153.269  16
   0  -4   3 89.0404 156.305  13
   0  -4  -3 260.343 195.848  15
   0  -4  -3 172.210 159.963  49
   0  -4   3 261.839 138.596  43
   0  -4   3 130.513 229.079  12
   0  -4  -3 57.4436 123.518  11
   0  -4   4 4698.94 721.771  16
   0  -4  -4 3717.93 600.709  13
   0  -4  -4 3571.75 640.420  14
   0  -4  -4 3645.95 684.441  15
   0  -4   4 4223.14 810.856  13
   0  -4   4 3992.89 810.080  12
   0  -4  -4 4284.24 651.288  11
   0  -4  -4 4334.32 871.354  12
   0  -4  -4 3933.73 687.208  49
   0  -4   4 3097.97 558.214  51
   0  -4   5 53933.2 2741.53  16
   0  -4  -5 53719.1 2855.48  15
   0  -4  -5 53430.1 2731.35  14
   0  -4   5 60313.5 3296.26  13
   0  -4   5 55641.2 3007.92  63
   0  -4   5 53295.5 2507.39  51
   0  -4  -5 52255.1 2788.39  49
   0  -4  -5 61121.6 3433.51  12
   0  -4  -5 53689.5 2594.58  11
   0  -4  -6 29366.0 2056.38  15
   0  -4   6 29997.6 2328.28  13
   0  -4   6 29117.2 1985.26  16
   0  -4  -6 27308.6 1917.22  14
   0  -4  -6 29627.9 2069.48  49
   0  -4   6 28989.6 1773.31  51
   0  -4  -6 32597.9 2512.88  12
   0  -4  -6 30261.7 1900.78  11
   0  -4  -7 37407.9 2390.33  15
   0  -4  -7 38317.2 2334.04  14
   0  -4   7 36880.7 2309.79  16
   0  -4   7 39452.1 2762.71  13
   0  -4  -7 39460.7 2266.67  11
   0  -4  -7 41130.0 2894.30  12
   0  -4  -7 37672.6 2431.41  49
   0  -4   7 35096.8 1998.55  51
   0  -4  -8 43008.9 2568.41  14
   0  -4   8 40998.0 2515.41  16
   0  -4  -8 41453.8 2590.02  15
   0  -4  -8 42614.6 2459.15  11
   0  -4  -8 48160.1 3215.38  12
   0  -4  -8 47101.8 2788.87  49
   0  -4  -9 44579.4 2705.73  15
   0  -4   9 47308.3 2724.90  16
   0  -4  -9 44161.8 2623.36  14
   0  -4   9 44419.4 2826.82  63
   0  -4  -9 45492.7 3196.03  12
   0  -4  -9 40906.5 2457.18  11
   0  -4  -9 42844.2 2734.91  49
   0  -4   9 45703.5 2512.94  52
   0  -4  10 11222.4 1289.00  16
   0  -4 -10 11214.0 1321.66  15
   0  -4  10 11753.4 1515.49  13
   0  -4 -10 11717.0 1340.43  19
   0  -4 -10 9822.11 1212.72  14
   0  -4  10 13712.6 1528.81  63
   0  -4 -10 11286.5 1244.49  11
   0  -4  10 11569.1 1176.91  10
   0  -4 -10 9652.71 1490.28  12
   0  -4  10 11768.0 1187.54  52
   0  -4 -10 12796.0 1454.98  49
   0  -4  11 9159.03 1161.44  16
   0  -4 -11 9444.41 1196.71  19
   0  -4 -11 8930.17 1190.03  15
   0  -4  11 9906.49 1364.61  13
   0  -4 -11 8532.76 1115.38  14
   0  -4  11 9997.84 1290.68  63
   0  -4 -11 7899.60 1368.58  12
   0  -4  11 9144.05 1068.43  10
   0  -4 -11 8935.32 1099.93  11
   0  -4 -11 8568.79 1184.91  49
   0  -4 -12 3806.49 767.087  49
   0  -4 -12 3974.85 759.677  14
   0  -4 -12 4202.03 796.467  15
   0  -4  12 3923.82 761.786  16
   0  -4 -12 3986.61 779.189  19
   0  -4  12 4811.67 914.927  13
   0  -4  12 5509.73 928.263  63
   0  -4 -12 5305.84 812.364  11
   0  -4 -12 4619.42 965.941  12
   0  -4  12 4736.69 751.862  10
   0  -4 -12 5297.84 700.119   4
   0  -4  13 27220.7 1861.07  10
   0  -4 -13 31098.1 2010.44  11
   0  -4 -13 27397.1 2364.97  12
   0  -4  13 32566.8 2200.32  63
   0  -4 -13 25949.5 1949.52  14
   0  -4 -13 26447.3 1968.37  15
   0  -4  13 27327.8 1960.10  16
   0  -4 -13 29442.1 2086.20  19
   0  -4 -14 11665.7 1403.99  12
   0  -4  14 12537.6 1163.44  10
   0  -4 -14 14123.8 1225.73  11
   0  -4  14 13191.0 1315.46  63
   0  -4 -14 12103.2 1253.64  14
   0  -4  14 12809.1 1245.42  16
   0  -4 -14 11898.8 1229.56  15
   0  -4 -14 13951.9 1340.84  19
   0  -4  15 26747.8 1719.82  63
   0  -4  15 22910.6 1487.59  10
   0  -4 -15 24680.2 1711.00  19
   0  -4  15 23008.6 1571.65  16
   0  -4 -15 22463.8 1635.45  14
   0  -4  16 10108.9 933.386  63
   0  -4 -16 12456.9 1069.81  14
   0  -4  16 11640.1 957.645  16
   0  -4 -16 13721.9 1138.70  19
   0  -4  16 11704.5 928.782  10
   0  -4  17 4558.80 478.380  16
   0  -4 -17 5203.84 614.747  14
   0  -4 -17 5476.49 628.331  19
   0  -4  17 4533.29 437.155  10
   0  -4 -18 140.308 100.156  19
   0  -3   0 25.9117 111.393  13
   0  -3   0-19.9271 85.6658  43
   0  -3   0 30.0532 129.197  12
   0  -3   1 27368.1 1403.41  43
   0  -3  -1 28305.2 1525.97  49
   0  -3   1 25367.3 1383.90  50
   0  -3  -1 31041.6 1666.85  13
   0  -3   1 32917.5 1807.16  13
   0  -3  -2 94940.2 3292.43  49
   0  -3   2 87766.3 2988.22  43
   0  -3   2 90868.2 3075.34  50
   0  -3  -2 105807. 3419.71  13
   0  -3   2 106620. 3742.47  13
   0  -3  -3 116965. 3672.83  13
   0  -3   3 117977. 4191.44  13
   0  -3  -3 115600. 3790.30  49
   0  -3   3 103254. 3417.22  50
   0  -3  -3 114971. 4222.24  12
   0  -3  -4 103786. 3413.79  13
   0  -3   4 107392. 4075.22  13
   0  -3  -4 100633. 3608.55  49
   0  -3  -4 94019.2 3357.13  11
   0  -3   5 85487.0 3584.70  13
   0  -3  -5 85386.3 3612.53  12
   0  -3  -5 76021.8 2918.57  11
   0  -3   5 73899.7 2795.12  51
   0  -3  -5 79150.6 3151.18  49
   0  -3  -6 25355.5 1606.30  14
   0  -3   6 29955.8 1919.26  63
   0  -3  -6 26784.8 1603.70  11
   0  -3  -6 29500.7 2045.35  12
   0  -3  -6 25190.9 1707.66  49
   0  -3   6 23481.2 1420.49  51
   0  -3  -7 431.148 209.887  15
   0  -3  -7 215.820 153.076  14
   0  -3   7 166.533 130.741  16
   0  -3   7 38.2378 164.409  63
   0  -3  -7 266.556 233.927  12
   0  -3  -7 727.467 297.798  11
   0  -3   7 24.1539 84.8334  51
   0  -3   8 12536.8 1212.77  16
   0  -3  -8 13129.2 1253.20  15
   0  -3   8 14387.4 1478.85  13
   0  -3  -8 11749.6 1150.58  14
   0  -3  -8 13115.3 1469.48  12
   0  -3  -8 12078.2 1146.80  11
   0  -3   8 11254.5 1107.92  10
   0  -3   8 10507.0 1208.00  63
   0  -3  -9 22753.4 1783.49  15
   0  -3  -9 25652.1 1829.23  14
   0  -3   9 25175.8 1882.35  16
   0  -3   9 29000.1 2199.87  13
   0  -3   9 26939.3 2026.08  63
   0  -3   9 26177.3 1813.07  10
   0  -3  -9 26075.5 1809.55  11
   0  -3  -9 28406.6 2276.16  12
   0  -3  -9 25225.9 1850.71  47
   0  -3   9 26893.5 1751.39  52
   0  -3  10 104879. 4423.49  16
   0  -3 -10 104253. 4380.44  15
   0  -3  10 122314. 5080.01  13
   0  -3 -10 106314. 4362.58  19
   0  -3 -10 100116. 4233.10  14
   0  -3  10 122494. 4779.98  63
   0  -3 -10 113726. 4369.83  11
   0  -3  10 115254. 4458.94  10
   0  -3 -10 113191. 5083.21  12
   0  -3 -10 108600. 4451.26  47
   0  -3  10 111175. 4175.25  52
   0  -3 -11 30883.9 2172.93  14
   0  -3  11 33414.0 2309.76  16
   0  -3  11 39541.8 2702.85  13
   0  -3 -11 32892.5 2249.54  19
   0  -3 -11 33209.3 2317.36  15
   0  -3  11 36872.9 2466.21  63
   0  -3  11 35335.3 2312.13  10
   0  -3 -11 32753.1 2172.03  11
   0  -3 -11 35940.0 2751.77  12
   0  -3  11 33036.2 2068.07  52
   0  -3 -11 30104.9 2201.15  47
   0  -3 -12 27841.7 2157.99  15
   0  -3 -12 28335.9 2125.93  19
   0  -3  12 32692.6 2444.50  13
   0  -3 -12 26489.3 2038.37  14
   0  -3  12 27822.9 2151.50  16
   0  -3  12 29885.2 2205.27  63
   0  -3 -12 28631.0 2070.24  11
   0  -3 -12 32674.9 2630.84  12
   0  -3  12 32821.9 2263.14  10
   0  -3  12 30498.9 1979.50  52
   0  -3 -12 29794.3 2210.63  47
   0  -3 -13 6145.85 964.680  47
   0  -3  13 4820.93 764.253  52
   0  -3  13 5962.47 963.397  63
   0  -3 -13 5680.56 919.148  11
   0  -3  13 5973.21 965.656  10
   0  -3 -13 6218.75 1133.76  12
   0  -3 -13 7380.04 928.894   4
   0  -3 -13 6972.30 1028.57  19
   0  -3  13 6364.06 1014.28  13
   0  -3  13 5362.60 935.957  16
   0  -3 -13 4328.29 849.548  15
   0  -3 -13 5928.47 946.992  14
   0  -3  14 9352.70 1175.48  63
   0  -3 -14 9960.97 1256.99  15
   0  -3 -14 10957.7 1304.02  19
   0  -3  14 8932.96 1166.77  13
   0  -3  14 11239.9 1322.67  16
   0  -3 -14 10479.6 1262.82  14
   0  -3 -14 11902.6 1498.90  12
   0  -3  14 11410.6 1309.70  10
   0  -3 -14 10348.4 1220.51  11
   0  -3 -14 11042.3 1134.38   4
   0  -3 -15 3519.73 608.696   4
   0  -3 -15 2860.85 612.460  41
   0  -3  15 2678.96 601.697  63
   0  -3  15 2620.06 620.695  16
   0  -3 -15 2669.12 636.622  14
   0  -3 -15 2853.25 624.868  11
   0  -3 -15 2408.35 619.357  12
   0  -3  15 2842.68 639.674  10
   0  -3 -15 3273.75 686.428  19
   0  -3 -16 15667.0 1196.91   4
   0  -3 -16 11508.0 1133.37  41
   0  -3  16 13374.5 1239.81  63
   0  -3 -16 15842.0 1379.34  11
   0  -3  16 15051.5 1412.52  10
   0  -3 -16 14051.7 1375.51  19
   0  -3 -16 14943.7 1426.64  14
   0  -3  16 14497.6 1383.79  16
   0  -3  17 22606.0 1599.83  16
   0  -3 -17 22389.2 1591.37  14
   0  -3 -17 24257.8 1672.14  19
   0  -3  17 23567.4 1634.23  10
   0  -3  18 31640.0 1713.27  16
   0  -3 -18 32268.4 1791.61  19
   0  -3  18 32756.2 1763.72  10
   0  -3  19 3611.46 434.297  16
   0  -3  19 4164.76 492.670  10
   0  -3 -19 3771.76 489.916  19
   0  -2   0 351555. 8290.34  43
   0  -2   0 337799. 8292.15  49
   0  -2   1 28989.1 1243.46  50
   0  -2  -1 31245.9 1331.17  49
   0  -2  -1 32234.6 1374.33  43
   0  -2   1 36906.9 1597.20  13
   0  -2  -1 35589.2 1458.51  13
   0  -2   2 83455.2 2717.55  13
   0  -2  -2 73253.0 2334.00  13
   0  -2   2 61802.1 2127.58  50
   0  -2  -2 67379.7 2288.78  49
   0  -2  -2 77624.9 2677.63  12
   0  -2   3 1522.19 338.440  13
   0  -2  -3 1323.62 253.401  13
   0  -2  -3 2048.13 394.888  12
   0  -2  -3 1351.13 263.656  47
   0  -2   3 1479.30 246.674  50
   0  -2   4 15541.8 1136.09  13
   0  -2  -4 14241.5 872.057  13
   0  -2   4 13963.7 629.450   1
   0  -2  -4 16662.2 996.060  47
   0  -2   4 15434.7 873.614  51
   0  -2  -4 17670.8 990.539  11
   0  -2  -4 17931.4 1228.03  12
   0  -2  -5 22710.5 1442.80  12
   0  -2  -5 20096.9 1137.52  11
   0  -2   5 20571.3 1060.43  51
   0  -2  -5 20123.2 1174.73  47
   0  -2  -6 140965. 4289.88  47
   0  -2   6 147010. 4002.44  51
   0  -2   6 145576. 4555.92  63
   0  -2  -6 138559. 3583.49  60
   0  -2   6 137439. 4599.62  13
   0  -2  -6 149734. 4256.64  11
   0  -2  -6 153995. 4780.91  12
   0  -2   6 129153. 3627.63   1
   0  -2  -7 148495. 4497.61  47
   0  -2   7 144388. 4110.21  51
   0  -2  -7 144395. 3746.87  60
   0  -2   7 150353. 4839.31  13
   0  -2  -7 160194. 4979.76  12
   0  -2  -7 146251. 4369.57  11
   0  -2   7 139561. 3817.43   1
   0  -2   8 64191.6 2520.56  52
   0  -2  -8 55027.3 1829.99  46
   0  -2  -8 62050.1 2681.62  47
   0  -2  -8 56784.2 2083.91  60
   0  -2   8 67841.5 2869.19  63
   0  -2   8 64783.3 2961.27  13
   0  -2  -8 61322.9 2578.96  11
   0  -2  -8 64085.4 3038.95  12
   0  -2   8 59947.4 2179.35   1
   0  -2  -9 9393.41 1009.35  47
   0  -2   9 11833.8 1016.30  52
   0  -2  -9 9873.58 786.822  60
   0  -2   9 11098.9 1116.01  63
   0  -2  -9 9572.49 982.091  14
   0  -2   9 12092.7 1247.74  13
   0  -2  -9 9432.36 1011.77  15
   0  -2  -9 10360.0 1012.41  19
   0  -2   9 10671.2 1070.71  16
   0  -2  -9 10049.3 1014.22  11
   0  -2  -9 11157.3 1237.49  12
   0  -2   9 11183.2 875.274   1
   0  -2  10 8030.91 881.042  52
   0  -2 -10 6758.24 914.044  47
   0  -2 -10 7049.55 713.015  60
   0  -2  10 7687.69 964.416  63
   0  -2 -10 7948.58 938.993  14
   0  -2  10 8504.31 1087.64  13
   0  -2 -10 6566.76 876.729  19
   0  -2 -10 7223.80 909.110  15
   0  -2  10 6242.88 861.190  16
   0  -2 -10 7407.39 916.911  11
   0  -2 -10 7152.31 1051.17  12
   0  -2  10 7563.95 760.000   1
   0  -2 -11 4898.37 828.882  47
   0  -2  11 5067.74 729.964  52
   0  -2 -11 4653.80 611.381  60
   0  -2  11 5941.32 881.055  63
   0  -2 -11 5262.81 805.915  14
   0  -2 -11 4351.23 752.494  19
   0  -2  11 4510.58 798.940  16
   0  -2 -11 4069.85 714.715  15
   0  -2  11 5950.71 940.428  13
   0  -2  11 5007.36 663.094   9
   0  -2 -11 5629.35 827.685  11
   0  -2  11 4840.02 821.453  10
   0  -2 -11 5452.39 947.495  12
   0  -2  11 5167.33 668.407   1
   0  -2 -12 10631.8 1257.64  47
   0  -2  12 11291.2 1131.64  52
   0  -2  12 12351.5 1322.51  63
   0  -2 -12 9770.87 1172.19  14
   0  -2  12 12588.3 1392.34  13
   0  -2  12 10969.8 1297.61  16
   0  -2 -12 9294.45 1143.66  19
   0  -2 -12 10458.3 1248.96  15
   0  -2  12 11340.8 1056.73   9
   0  -2  12 11267.4 1293.31  10
   0  -2 -12 12557.9 1290.63  11
   0  -2 -12 11098.5 1420.37  12
   0  -2 -12 11619.6 1194.33   4
   0  -2  12 9990.79 999.352   1
   0  -2 -13 32107.4 2331.51  47
   0  -2  13 32017.1 2166.31  63
   0  -2 -13 29068.4 2236.12  15
   0  -2 -13 29282.5 2168.31  14
   0  -2 -13 30884.0 2224.08  19
   0  -2  13 34171.4 2339.65  13
   0  -2  13 32832.1 2370.46  16
   0  -2  13 31223.7 1937.06   9
   0  -2 -13 32104.2 2189.73  11
   0  -2 -13 33439.3 2531.86  12
   0  -2  13 35403.4 2428.40  10
   0  -2 -13 39004.8 2290.33   4
   0  -2  13 29599.2 1842.23   1
   0  -2 -14 22620.3 1747.40   4
   0  -2  14 17345.1 1400.27   1
   0  -2 -14 18299.6 1766.42  47
   0  -2  14 18378.0 1618.45  63
   0  -2  14 19301.9 1709.83  13
   0  -2 -14 17250.4 1836.81  12
   0  -2  14 17766.7 1741.42  16
   0  -2 -14 16570.6 1635.45  14
   0  -2  14 17226.3 1431.33   9
   0  -2 -14 20235.4 1744.54  11
   0  -2  14 19792.8 1828.33  10
   0  -2 -14 19967.2 1768.28  19
   0  -2  15 40875.8 2290.79   1
   0  -2 -15 47186.8 2924.95  47
   0  -2 -15 43601.1 2753.10  14
   0  -2  15 47736.1 2961.47  16
   0  -2  15 43571.5 2538.50  63
   0  -2  15 46045.2 2417.58   9
   0  -2 -15 47434.6 2796.80  11
   0  -2  15 53084.8 3067.05  10
   0  -2 -15 44559.6 2755.69  19
   0  -2 -16 19887.5 1585.33   4
   0  -2  16 17949.0 1486.99  63
   0  -2  16 17009.1 1679.65  16
   0  -2 -16 16991.1 1642.93  14
   0  -2 -16 18640.7 1654.33  11
   0  -2  16 19341.9 1769.74  10
   0  -2  16 15725.2 1319.67   9
   0  -2 -16 19817.9 1730.11  19
   0  -2 -17 6809.53 867.022   4
   0  -2  17 4331.12 655.036  63
   0  -2 -17 7385.82 1015.89  41
   0  -2  17 6817.39 986.298  16
   0  -2 -17 6115.25 942.938  14
   0  -2 -17 7922.42 986.713  11
   0  -2  17 6087.28 738.701   9
   0  -2  17 7259.80 1022.80  10
   0  -2 -17 5900.42 897.081  19
   0  -2 -18 442.047 253.368  19
   0  -2  18 395.559 252.622  16
   0  -2 -18 303.656 229.531  41
   0  -2  18 476.467 249.308  10
   0  -2  18 469.021 171.899   9
   0  -2 -18 706.067 273.953   4
   0  -2 -19 7191.51 799.387  41
   0  -2 -19 6657.77 794.197  19
   0  -2  19 7731.74 847.198  16
   0  -2 -19 7036.92 693.352   4
   0  -2  19 7362.98 841.106  10
   0  -2  20 12711.0 904.566  16
   0  -2  20 14188.2 981.991  10
   0  -1   0 150.257 85.5594  13
   0  -1   0-5.95722 43.1111  49
   0  -1   1 43377.9 1090.67   1
   0  -1   1 54526.5 1609.78  13
   0  -1   1 45572.3 1335.73  50
   0  -1  -1 49549.8 1394.12  47
   0  -1   1 52038.3 1593.43  44
   0  -1  -2 133435. 3237.63  47
   0  -1   2 127497. 2941.81   1
   0  -1  -2 131428. 3434.87  12
   0  -1  -3 213113. 4982.92  13
   0  -1   3 201582. 5005.80  51
   0  -1   3 229092. 5319.71  44
   0  -1  -3 236615. 5240.18  47
   0  -1  -3 220732. 5391.53  12
   0  -1   3 216364. 4886.47   1
   0  -1   4 80327.8 2255.98  51
   0  -1   4 74978.1 2386.93  44
   0  -1   4 81392.7 2166.98   1
   0  -1  -5 100436. 2439.89  61
   0  -1   5 125271. 3461.33  13
   0  -1   5 108963. 3153.19  44
   0  -1   5 138709. 3146.25  51
   0  -1   5 129078. 3032.78   1
   0  -1  -5 139245. 3622.78  12
   0  -1  -6 21032.2 685.645  61
   0  -1   6 21747.8 1238.90  13
   0  -1   6 23223.2 1121.28  52
   0  -1   6 19963.4 1081.23  44
   0  -1  -6 22095.8 851.194  46
   0  -1   6 23194.6 1032.24   1
   0  -1  -6 24302.4 1365.25  12
   0  -1  -7 1009.79 138.249  61
   0  -1   7 953.358 154.522  58
   0  -1   7 1208.69 309.943  63
   0  -1  -7 572.765 128.288  58
   0  -1   7 1061.24 293.642  13
   0  -1   7 1272.91 271.362  52
   0  -1   7 1089.97 139.839  54
   0  -1   7 1136.92 258.904  44
   0  -1  -7 882.312 162.134  46
   0  -1   7 1333.23 254.897   1
   0  -1  -7 1782.83 389.731  12
   0  -1   8 9453.09 873.203  63
   0  -1   8 13427.6 1064.88  13
   0  -1   8 11638.6 880.858  52
   0  -1   8 10799.5 815.637  44
   0  -1   8 11993.2 849.348   1
   0  -1  -8 11974.6 1091.37  12
   0  -1   9 31611.2 1705.40  63
   0  -1  -9 30386.4 1588.19  60
   0  -1   9 30353.6 1747.35  13
   0  -1   9 26375.0 1388.90  44
   0  -1   9 27699.7 1295.53  53
   0  -1   9 30117.6 1571.92  52
   0  -1   9 31339.0 1541.39   1
   0  -1  -9 30369.2 1278.66   5
   0  -1  -9 31424.1 1936.03  12
   0  -1 -10 90782.1 3293.43  60
   0  -1  10 105605. 3578.57  63
   0  -1  10 93829.5 3531.68  13
   0  -1 -10 80058.3 3284.63  14
   0  -1 -10 78219.0 3277.36  19
   0  -1  10 97417.2 3322.91  52
   0  -1  10 84597.4 2894.05  44
   0  -1  10 81081.8 2732.53  53
   0  -1 -10 89485.1 2687.32   5
   0  -1  10 88299.1 3178.05   1
   0  -1 -10 92746.7 3816.30  12
   0  -1 -11 103726. 3744.40  60
   0  -1  11 109481. 3849.98  63
   0  -1 -11 116215. 3995.38   4
   0  -1  11 97284.4 3545.29   1
   0  -1 -11 107600. 3937.49  11
   0  -1 -11 100185. 4197.63  12
   0  -1  11 98324.6 3639.42   9
   0  -1  11 106983. 3941.61  13
   0  -1 -11 83294.8 3634.26  14
   0  -1 -11 88911.8 3735.45  19
   0  -1 -11 82794.3 3782.84  15
   0  -1 -12 58969.3 2744.60  60
   0  -1  12 54041.8 2642.60  63
   0  -1 -12 50408.6 2930.38  12
   0  -1 -12 48084.6 2809.22  15
   0  -1 -12 51987.3 2760.88  14
   0  -1  12 61000.0 2859.61  13
   0  -1 -12 50084.3 2721.90  19
   0  -1 -12 62676.5 2896.28   4
   0  -1  12 57469.5 2633.33   1
   0  -1  12 54112.4 2625.21   9
   0  -1 -12 58685.4 2868.60  11
   0  -1 -13 1874.85 483.432  60
   0  -1  13 1867.86 472.611  63
   0  -1 -13 1996.24 537.729  19
   0  -1 -13 2271.48 558.067  14
   0  -1  13 1747.10 444.231  13
   0  -1 -13 1711.54 525.744  47
   0  -1 -13 2296.29 551.131   4
   0  -1  13 2101.40 484.774   1
   0  -1 -13 1819.80 519.522  12
   0  -1 -13 2071.52 567.115  11
   0  -1  13 1221.87 395.744   9
   0  -1 -14 6626.01 933.582  60
   0  -1  14 6627.61 892.934  63
   0  -1 -14 6658.82 998.944  14
   0  -1 -14 6169.07 1022.44  47
   0  -1 -14 7487.80 1018.09   4
   0  -1  14 7715.33 973.536   1
   0  -1 -14 7741.48 1065.01  11
   0  -1  14 6672.20 921.658   9
   0  -1  15 727.064 292.615  63
   0  -1 -15 439.260 232.743  60
   0  -1 -15 691.807 362.184  14
   0  -1 -15 1012.62 444.455  47
   0  -1 -15 635.095 332.526   4
   0  -1  15 651.720 308.554   1
   0  -1 -15 456.053 299.714  11
   0  -1  15 397.289 261.159   9
   0  -1 -16 16748.9 1478.28  60
   0  -1 -16 17434.8 1747.91  47
   0  -1 -16 18899.8 1652.76   4
   0  -1  16 17197.2 1490.56   1
   0  -1  16 18464.0 1574.18   9
   0  -1 -16 16973.3 1635.18  11
   0  -1 -16 18237.2 1711.24  14
   0  -1  16 18181.7 1786.95  16
   0  -1 -17 39897.9 2420.20   4
   0  -1  17 39756.2 2327.43   9
   0  -1 -17 41993.1 2559.52  11
   0  -1  17 37676.1 2604.76  16
   0  -1 -18 27764.3 1861.07   4
   0  -1 -18 23766.5 1822.99  11
   0  -1  18 26971.9 1764.54   9
   0  -1  18 28013.3 2035.90  16
   0  -1 -19 17748.3 1342.26   4
   0  -1  19 17282.5 1251.36   9
   0  -1  19 18501.0 1494.04  16
   0  -1 -20 8323.48 874.357  41
   0  -1  20 7556.17 816.355  16
   0  -1 -20 7494.23 744.680   4
   0  -1  20 7737.58 681.669   9
   0  -1  20 8717.24 864.017  10
   0  -1  21 176.066 125.784  16
   0  -1 -21 317.932 145.104  41
   0  -1 -21 415.732 120.114   4
   0  -1  21 289.806 131.293  10
   0   0   1 18122.5 473.060  52
   0   0  -1 16988.7 480.165  48
   0   0   2 4583.94 219.563   2
   0   0  -2 5959.75 314.600  48
   0   0   2 5502.99 251.564  46
   0   0   2 6267.10 299.348  52
   0   0  -2 4629.36 239.915  46
   0   0   3 3090.02 204.366   2
   0   0   3 3617.27 233.981  46
   0   0  -3 3864.26 303.299  48
   0   0   3 3617.91 274.885  52
   0   0  -4 2078.45 213.090   5
   0   0   4 1612.87 173.636   2
   0   0   4 2020.50 237.392  52
   0   0  -4 1796.52 254.106  48
   0   0   4 1576.08 182.818  46
   0   0  -5 9987.96 675.876  61
   0   0   5 12502.5 689.865   1
   0   0  -5 15039.9 671.030   5
   0   0   5 15619.2 650.202   2
   0   0  -5 18015.3 956.950  12
   0   0  -5 11524.4 707.620  11
   0   0  -5 17133.3 863.539  48
   0   0   5 18081.6 820.985  52
   0   0   6 143523. 3765.47  52
   0   0  -6 135455. 3858.73  48
   0   0  -6 140933. 3540.12   5
   0   0   6 154076. 3798.47   1
   0   0   6 151094. 3562.03   6
   0   0  -6 132647. 4075.95  12
   0   0  -6 142253. 3824.93  11
   0   0  -7 37416.3 1581.49  61
   0   0   7 36198.7 1500.65   1
   0   0   7 34730.1 1317.55   6
   0   0  -7 34396.7 1324.64   5
   0   0  -7 37983.6 1610.50  11
   0   0  -7 36408.1 1728.31  12
   0   0   8 263609. 6402.76  63
   0   0  -8 230394. 6342.05  61
   0   0  -8 247219. 6798.58  12
   0   0  -8 234729. 6004.85   5
   0   0   8 251851. 6067.34   6
   0   0   8 255155. 6407.27   1
   0   0  -8 276394. 6642.76  11
   0   0  -9 93697.6 3021.17  61
   0   0  -9 87384.0 3166.85  60
   0   0   9 87483.4 2903.02  63
   0   0   9 88245.7 2903.49  13
   0   0  -9 83268.4 3240.65  12
   0   0   9 81394.1 2608.10  53
   0   0  -9 80896.4 2569.84   5
   0   0   9 93719.6 2714.86   6
   0   0   9 91827.2 3021.92   1
   0   0  -9 96731.5 3194.21  11
   0   0  10 17888.0 1198.11  63
   0   0 -10 16352.2 1279.04  60
   0   0  10 19298.3 1221.08  13
   0   0  10 16333.2 1001.54  53
   0   0  10 16165.5 1004.82   6
   0   0 -10 16878.6 987.011   5
   0   0  10 18324.9 1250.84   1
   0   0 -10 18447.5 1322.57  11
   0   0 -11 627.714 237.417  61
   0   0 -11 228.666 198.734  60
   0   0  11 434.073 184.910  63
   0   0  11 279.438 183.644   1
   0   0  11 227.818 156.449   6
   0   0 -11 387.129 141.856   5
   0   0  11 515.887 219.712   9
   0   0 -11 600.332 277.360  11
   0   0  11 427.642 177.050  13
   0   0 -11 32.3857 197.027  14
   0   0 -12 13844.2 1333.97  60
   0   0  12 13542.9 1134.94  63
   0   0 -12 16964.9 1391.81   3
   0   0  12 13841.2 1214.70   1
   0   0  12 13354.2 1032.26   6
   0   0  12 13328.2 1237.99   9
   0   0 -12 13008.4 1259.00  11
   0   0 -12 12460.1 1252.40  14
   0   0  12 13049.1 1031.75  17
   0   0 -13 117341. 4606.15  60
   0   0  13 113733. 4131.25  63
   0   0  13 122323. 4499.76   1
   0   0 -13 119718. 4606.99  11
   0   0  13 120690. 4553.32   9
   0   0 -13 106733. 4514.10  14
   0   0  13 112987. 3918.46  17
   0   0 -14 85026.6 3927.84  60
   0   0 -14 95687.0 3903.41   3
   0   0  14 94560.9 3870.08   1
   0   0 -14 87344.6 3956.96  11
   0   0  14 91106.7 3908.22   9
   0   0  14 82592.0 3268.76  17
   0   0 -15 18680.9 1699.96  60
   0   0  15 15473.4 1239.11  17
   0   0  15 15852.2 1489.12   1
   0   0 -15 17229.0 1512.51   3
   0   0  15 19601.6 1682.84   9
   0   0 -15 17147.7 1655.07  11
   0   0 -16 5137.41 861.922  60
   0   0 -16 5692.68 1038.69  41
   0   0  16 5635.78 869.672   1
   0   0 -16 5229.09 761.311   3
   0   0 -16 4195.09 786.049   4
   0   0 -16 4882.72 876.002  11
   0   0  16 4931.84 841.021   9
   0   0  16 6707.77 1061.59  10
   0   0  16 4046.69 609.189  17
   0   0 -17 22181.9 1974.44  41
   0   0 -17 16446.0 1556.99   4
   0   0  17 16360.6 1454.72   1
   0   0  17 17058.3 1566.69   9
   0   0  17 17504.3 1673.54  10
   0   0 -17 15095.4 1526.50  11
   0   0  18-88.3394 189.884  16
   0   0 -18-45.3982 195.165  41
   0   0 -18 77.3784 203.704   4
   0   0  18 40.9315 160.631  10
   0   0 -18 117.879 119.444  11
   0   0  18-36.6761 143.932   9
   0   0  19 1777.47 474.908  16
   0   0  19 1664.90 454.522  10
   0   0  19 1712.34 431.270   9
   0   0 -19 2568.48 536.843   4
   0   0 -19 2634.74 599.585  41
   0   0  20 6651.94 799.084  16
   0   0  20 6276.10 704.985   9
   0   0  20 5748.55 690.135  10
   0   0 -20 5793.18 707.046   4
   0   0 -20 6549.54 808.526  41
   0   0  21 30639.1 1467.70  16
   0   0 -21 26518.1 1297.66   4
   0   0  21 25842.9 1231.42   9
   0   0  21 21681.7 1109.63  10
   0   0 -21 30658.1 1467.47  41
   0   1   0 6.70417 47.0690   5
   0   1   0 84.0214 54.8643   2
   0   1   0 23.5878 24.1067  60
   0   1   0 62.2432 59.8365  61
   0   1  -1 42553.4 1113.62   2
   0   1   1 41119.9 1242.63   5
   0   1  -1 44377.6 1139.15  60
   0   1   1 43748.7 1105.68  61
   0   1  -2 127873. 2672.12   2
   0   1   2 116068. 2760.16   1
   0   1   2 132577. 2955.53  62
   0   1  -2 119052. 2897.66  60
   0   1  -2 111519. 2551.05  45
   0   1   3 190505. 4429.42  62
   0   1  -3 197523. 4450.59  62
   0   1   3 186313. 4415.32   1
   0   1  -3 183638. 4610.94   5
   0   1  -3 188191. 4113.30   2
   0   1  -3 187817. 4552.82  11
   0   1  -4 83786.5 1974.90  62
   0   1  -4 92966.8 2353.25  60
   0   1   4 66215.0 1873.58  62
   0   1  -4 66221.7 1589.28   2
   0   1   4 91009.0 2233.26   2
   0   1   4 84746.2 2112.58   1
   0   1  -4 83704.9 2239.74   5
   0   1  -4 80954.1 2192.01  11
   0   1   4 80529.0 2006.54  55
   0   1  -5 125925. 3563.86  61
   0   1  -5 102864. 2621.09  62
   0   1   5 105415. 2634.13  62
   0   1  -5 104455. 2980.29   5
   0   1   5 133686. 3066.24   1
   0   1   5 141412. 3198.09   6
   0   1   5 137273. 3116.67   2
   0   1  -5 118979. 3099.05  11
   0   1  -5 105305. 2699.89  55
   0   1  -6 22278.5 1307.25  61
   0   1  -6 17544.1 647.998  62
   0   1   6 18589.8 659.727  62
   0   1  -6 18971.4 1038.64  11
   0   1   6 22799.3 1056.74   6
   0   1   6 20681.1 992.584   1
   0   1  -6 14729.3 882.895   5
   0   1   6 20970.5 993.644   2
   0   1   6 18015.0 664.301  55
   0   1   7 1533.55 282.286   1
   0   1   7 1529.72 286.820   6
   0   1   7 1360.73 258.418   2
   0   1  -7 895.122 226.256   5
   0   1   7 675.781 99.6644  62
   0   1  -7 812.894 284.018  61
   0   1  -7 663.458 92.1865  62
   0   1  -7 783.117 99.7840  31
   0   1   7 808.946 80.7836  31
   0   1  -7 800.617 243.818  11
   0   1  -7 1074.00 120.687  55
   0   1   7 891.636 110.366  55
   0   1  -8 10086.3 977.398  61
   0   1  -8 9573.33 857.694  11
   0   1  -8 10452.1 801.235   5
   0   1   8 11918.1 851.971   6
   0   1   8 10060.5 832.317   2
   0   1   8 11874.1 875.966   1
   0   1  -8 11090.8 947.045  48
   0   1  -9 23730.2 1543.21  60
   0   1   9 24307.2 1311.95  63
   0   1  -9 29352.5 1774.86  61
   0   1  -9 21543.5 1422.67  11
   0   1  -9 24274.8 1333.24   5
   0   1   9 24893.4 1322.14   2
   0   1   9 27077.3 1410.38   6
   0   1   9 26804.0 1471.46   1
   0   1  -9 25307.5 1572.04  48
   0   1 -10 94560.0 3658.16  60
   0   1 -10 86441.3 3525.22  48
   0   1 -10 86900.8 3420.21  11
   0   1  10 88305.7 3281.98   1
   0   1 -10 89088.0 3476.97   4
   0   1  10 92838.1 3209.26   6
   0   1 -10 85454.6 3056.36   5
   0   1 -11 103679. 4036.82  60
   0   1 -11 100516. 3985.61  61
   0   1 -11 106204. 4884.20  37
   0   1  11 93076.8 3428.97  17
   0   1 -11 87481.9 3675.88  11
   0   1 -11 93776.4 3316.82   5
   0   1 -11 112100. 4134.37   3
   0   1  11 98425.0 3654.12   1
   0   1 -11 95781.6 3806.37   4
   0   1  11 100282. 3472.43   6
   0   1 -12 58512.1 2980.49  60
   0   1 -12 60467.9 2974.57  61
   0   1 -12 56739.3 3625.90  37
   0   1  12 55110.1 2531.97  17
   0   1 -12 49349.0 2683.87  11
   0   1 -12 55382.7 2837.70   4
   0   1  12 56045.8 2539.38   6
   0   1 -12 66383.1 3139.76   3
   0   1 -12 49344.6 2250.90   5
   0   1  12 55162.6 2663.33   1
   0   1 -13 1046.15 375.176  61
   0   1 -13 804.022 368.408  60
   0   1  13 1017.93 330.090  17
   0   1 -13 1527.97 572.185  37
   0   1 -13 1217.99 422.162  11
   0   1 -13 1363.98 465.046   4
   0   1 -13 1249.96 448.109   3
   0   1  13 1217.74 405.090   1
   0   1  13 968.836 322.586   6
   0   1 -14 6659.43 1036.84  60
   0   1 -14 7989.25 1027.31  61
   0   1 -14 9937.04 1300.91  41
   0   1  14 6809.00 867.722  17
   0   1 -14 5501.44 932.884  11
   0   1 -14 7126.70 1032.68   4
   0   1  14 7231.13 974.572   1
   0   1 -14 6726.84 987.031   3
   0   1  14 6219.79 857.264   6
   0   1 -15 301.304 317.984  60
   0   1  15 762.489 313.539  17
   0   1 -15 627.535 378.595  41
   0   1 -15 583.239 352.325  11
   0   1 -15 506.636 343.145   4
   0   1  15 703.331 257.648   6
   0   1  15 543.482 293.718   1
   0   1 -15 442.281 280.113   3
   0   1 -16 16605.1 1684.64  60
   0   1 -16 22406.9 1971.36  41
   0   1  16 17354.1 1620.29   9
   0   1 -16 17567.1 1572.30   3
   0   1 -16 16321.0 1624.34   4
   0   1  16 16364.0 1524.35   1
   0   1  16 17074.1 1378.46  17
   0   1  17 37511.5 2338.90  10
   0   1  17 37929.0 2376.21   9
   0   1 -17 35015.7 2153.18   3
   0   1 -17 36922.5 2433.95   4
   0   1  17 37829.9 2044.24  17
   0   1  18 28800.0 1865.73  10
   0   1  18 27523.7 1888.65   9
   0   1 -18 26412.2 1922.02   4
   0   1  18 24488.3 1496.46  17
   0   1  19 16583.7 1038.20  17
   0   1  19 18557.4 1397.06   9
   0   1  19 16783.8 1230.87  10
   0   1 -19 19530.5 1515.18  41
   0   1  20 7572.42 770.924   9
   0   1 -20 8311.89 830.272  41
   0   1  21 244.595 123.940   9
   0   1 -21 552.797 153.588  41
   0   2   0 290413. 7003.37   2
   0   2   0 286490. 7259.73  62
   0   2   1 30201.1 1224.78   2
   0   2   1 28701.0 1159.61   6
   0   2   1 29098.1 741.875   1
   0   2  -1 30270.5 1118.49   2
   0   2   1 31120.4 1312.13   5
   0   2  -1 32464.4 1392.69   5
   0   2  -1 30261.6 1334.11  62
   0   2  -1 28583.5 1328.57  61
   0   2   1 34383.5 1184.12  61
   0   2  -1 26176.5 926.766  60
   0   2  -2 61921.1 2114.64   5
   0   2  -2 49338.2 1588.75   2
   0   2   2 50422.1 1437.49   1
   0   2   2 56618.4 1890.52   6
   0   2   2 54710.2 1902.10   2
   0   2  -2 56977.1 1988.23  62
   0   2   2 61952.8 1604.56  61
   0   2  -2 56984.5 1687.54  60
   0   2  -2 61582.8 2206.51  61
   0   2   2 59149.7 1997.50  62
   0   2  -3 1294.02 172.376   2
   0   2   3 1314.07 248.392   6
   0   2   3 1457.43 187.131   1
   0   2  -3 1908.47 271.660  60
   0   2  -3 1746.83 293.950  62
   0   2  -3 1331.96 311.897  61
   0   2   3 1372.95 289.643  62
   0   2   4 13983.3 858.625  62
   0   2  -4 15777.8 876.818  60
   0   2  -4 15712.7 896.075  62
   0   2   4 14476.0 902.883   2
   0   2  -4 14685.4 977.138   5
   0   2   4 13645.2 696.508   1
   0   2   4 16429.3 955.324  55
   0   2   5 13116.7 833.990  62
   0   2  -5 17076.4 949.779  62
   0   2  -5 16410.2 995.137  60
   0   2   5 17335.4 1043.25   2
   0   2   5 14889.6 816.717   1
   0   2  -5 13711.9 999.982   5
   0   2  -5 17494.6 1012.66  55
   0   2   5 14990.4 924.815  55
   0   2   6 121978. 3620.96  62
   0   2  -6 144580. 4682.31  61
   0   2  -6 128479. 3669.57  62
   0   2  -6 137167. 4057.20  60
   0   2   6 137499. 3760.83   1
   0   2   6 161917. 4203.30   6
   0   2   6 152586. 4157.69   2
   0   2  -6 125141. 4062.08   5
   0   2  -6 121312. 3728.14  55
   0   2   6 134983. 3800.76  55
   0   2  -7 178517. 5439.33  61
   0   2  -7 150709. 4637.95  60
   0   2   7 147100. 4055.79  62
   0   2  -7 147582. 4083.24  62
   0   2  -7 137665. 4550.26   5
   0   2   7 176696. 4740.61   6
   0   2   7 174230. 4681.29   2
   0   2   7 163498. 4383.95   1
   0   2  -7 142982. 4159.36  55
   0   2   7 153401. 4136.29  55
   0   2   8 58963.3 1941.47  62
   0   2  -8 59625.5 1947.34  62
   0   2  -8 75685.6 3244.06  61
   0   2  -8 63596.6 2693.32  60
   0   2  -8 53270.2 2433.63   5
   0   2   8 71097.0 2639.92   6
   0   2   8 58249.1 2310.09   1
   0   2   8 62544.2 2488.58   2
   0   2   8 57452.1 1943.79  55
   0   2  -8 52438.4 1933.12  55
   0   2  -9 10582.5 999.738   5
   0   2   9 11639.4 1034.11   6
   0   2  -9 9030.16 1052.49   3
   0   2  -9 8707.45 933.995   4
   0   2   9 11115.7 945.989   1
   0   2   9 11133.6 1013.22   2
   0   2  -9 11517.2 1116.64  60
   0   2  -9 12496.8 1304.18  61
   0   2   9 10578.5 963.658  17
   0   2   9 11962.2 1015.27   7
   0   2   9 11839.2 938.241   8
   0   2  -9 9967.85 1032.34  19
   0   2  10 9345.18 927.592   1
   0   2  10 8695.59 927.564   2
   0   2 -10 8689.96 1085.57   3
   0   2  10 9505.13 971.783   6
   0   2 -10 8807.75 949.163   5
   0   2 -10 7315.62 927.488   4
   0   2 -10 7747.19 981.310  60
   0   2 -10 10969.7 1272.75  61
   0   2 -10 9905.92 1036.36  41
   0   2  10 9577.68 952.412  17
   0   2 -10 7814.54 935.571  18
   0   2 -10 9927.06 1448.00  37
   0   2  10 7793.80 792.123   8
   0   2  10 8153.64 875.036   7
   0   2 -10 7530.15 956.286  19
   0   2 -11 4077.10 735.772   4
   0   2 -11 6084.76 941.009   3
   0   2  11 5037.46 715.577   1
   0   2 -11 5006.80 732.981   5
   0   2  11 5521.97 770.006   6
   0   2 -11 5738.38 971.766  61
   0   2 -11 4587.35 813.444  60
   0   2 -11 5526.77 829.242  41
   0   2  11 6020.62 796.814  17
   0   2 -11 5560.22 801.608  18
   0   2 -11 7837.39 1346.27  37
   0   2  11 5530.37 732.224   7
   0   2  11 5384.47 676.337   8
   0   2 -11 4292.55 749.190  19
   0   2 -12 10017.6 1245.89   3
   0   2 -12 7997.69 1089.75   4
   0   2  12 9449.51 1041.36   1
   0   2 -12 10277.2 1041.72   5
   0   2  12 10426.1 1112.53   6
   0   2 -12 9495.22 1274.14  61
   0   2 -12 9731.24 1204.69  60
   0   2 -12 10378.9 1203.48  41
   0   2  12 10297.4 1071.90  17
   0   2 -12 9241.27 1057.55  18
   0   2 -12 12931.5 1757.31  37
   0   2  12 9654.56 996.242   7
   0   2  12 10808.7 1180.61   9
   0   2  12 9434.16 929.061   8
   0   2 -12 7796.89 1079.48  19
   0   2 -13 30123.2 2217.14   4
   0   2  13 36904.0 2203.36   1
   0   2  13 35078.2 2144.82   6
   0   2 -13 31277.2 1853.08   5
   0   2 -13 33796.3 2417.15   3
   0   2 -13 32914.0 2495.08  61
   0   2 -13 30404.3 2291.89  60
   0   2 -13 37550.0 2415.51  41
   0   2 -13 26629.8 1910.51  18
   0   2  13 32705.5 2049.88  17
   0   2 -13 38761.5 3216.27  37
   0   2  13 34061.5 1853.25   8
   0   2  13 38364.1 2361.68   9
   0   2  13 31088.0 1870.57   7
   0   2 -13 31046.9 2248.08  19
   0   2  14 22149.9 1725.23   1
   0   2 -14 21641.1 1892.99   4
   0   2  14 23802.1 1771.89   6
   0   2 -14 21520.2 1904.02   3
   0   2 -14 23412.3 1936.90  41
   0   2 -14 24360.0 2098.10  61
   0   2 -14 27441.5 2149.22  60
   0   2  14 22340.5 1690.16  17
   0   2  14 22047.0 1442.25   8
   0   2  14 23573.1 1858.60   9
   0   2  14 21529.7 1491.17   7
   0   2 -14 19492.6 1797.46  19
   0   2  15 46807.2 2624.65   1
   0   2 -15 42879.3 2756.62   4
   0   2 -15 51554.3 2985.79   3
   0   2  15 57305.7 2780.42   6
   0   2 -15 55854.2 3026.64  41
   0   2 -15 48048.9 2956.95  61
   0   2 -15 43540.0 2834.63  60
   0   2  15 49941.8 2609.66  17
   0   2  15 43767.2 2114.37   8
   0   2  15 49519.8 2262.76   7
   0   2  15 51834.6 2866.51   9
   0   2 -15 44728.4 2820.45  19
   0   2 -16 18277.4 1641.94  41
   0   2 -16 18955.2 1715.43   4
   0   2  16 15566.9 1420.80   1
   0   2 -16 17563.6 1616.95   3
   0   2  16 17179.3 1405.40   6
   0   2  16 17881.2 1602.37   9
   0   2  16 16410.3 1391.85  17
   0   2 -17 7587.82 992.219  41
   0   2  17 7778.53 887.003  17
   0   2 -17 7663.88 979.661   3
   0   2  17 6278.83 760.953   6
   0   2 -17 6418.83 945.142   4
   0   2  17 8423.91 1024.18   9
   0   2  18 249.315 157.900  17
   0   2 -18 247.321 171.702  41
   0   2 -18 253.268 215.378   3
   0   2 -18 529.574 290.700   4
   0   2  18 566.094 253.022   9
   0   2  19 7466.34 684.023  17
   0   2 -19 7547.39 763.233  41
   0   2  19 7846.02 809.733   9
   0   2 -19 7204.61 833.287   4
   0   2  20 13359.5 946.258  16
   0   2 -20 13475.0 951.393   4
   0   2  20 11661.3 833.223   9
   0   3   0 82.5448 136.584  55
   0   3   0 120.432 149.456  59
   0   3   0-19.3520 83.1936  61
   0   3   0 146.868 128.880  62
   0   3   0 189.011 165.861   5
   0   3   0-13.7404 76.2583   6
   0   3   0-34.1965 103.951   2
   0   3  -1 26570.9 1601.88  55
   0   3  -1 29042.0 1730.69  59
   0   3   1 25588.2 1210.13  61
   0   3  -1 24382.0 1453.61  62
   0   3  -1 25899.2 1430.43  61
   0   3  -1 25145.3 1486.33   5
   0   3  -1 19358.9 1070.75   2
   0   3  -1 19551.1 971.015   6
   0   3   1 17230.0 1045.57   6
   0   3   1 18833.2 1156.30   2
   0   3  -2 108997. 3763.34  55
   0   3   2 105128. 3650.55  55
   0   3   2 100103. 3770.54  59
   0   3  -2 106179. 3600.88  61
   0   3  -2 99649.0 3458.84  62
   0   3  -2 117053. 3918.02  59
   0   3   2 96143.9 3405.88  62
   0   3   2 97341.0 2764.98  61
   0   3   2 88134.1 3154.22   2
   0   3   2 90781.6 3068.85   6
   0   3  -2 101996. 3571.20   5
   0   3  -2 97971.0 2885.93   2
   0   3  -3 111284. 3695.29  55
   0   3   3 101089. 3560.11  55
   0   3  -3 126304. 4001.29  59
   0   3  -3 98686.7 3639.96  61
   0   3   3 100609. 3411.96  62
   0   3  -3 103251. 3459.15  62
   0   3   3 72570.2 3273.47  59
   0   3  -3 90205.9 2709.64  60
   0   3   3 82390.7 3018.73   6
   0   3  -3 91306.3 2648.14   2
   0   3   3 98006.8 3261.25   2
   0   3  -3 94365.8 3468.76   5
   0   3   4 108823. 3652.76  55
   0   3  -4 108404. 3653.62  55
   0   3  -4 92135.4 2900.68  60
   0   3  -4 90438.9 3659.55  61
   0   3   4 101356. 3653.29  59
   0   3  -4 99740.1 3415.97  62
   0   3  -4 117720. 3897.84  59
   0   3   4 97936.2 3389.63  62
   0   3   4 92847.9 3207.38   6
   0   3  -4 89993.5 2462.75   2
   0   3   4 91436.5 3268.41   2
   0   3   4 84721.2 2427.82   1
   0   3  -5 86421.6 3152.71  55
   0   3   5 77757.8 2942.64  55
   0   3   5 77745.0 2832.46   6
   0   3   5 60017.9 2031.51   1
   0   3  -5 66894.9 2924.45   5
   0   3  -5 70622.4 2750.21  62
   0   3  -5 73322.3 3272.30  61
   0   3  -5 66821.8 2896.75  59
   0   3  -5 64227.1 2450.30  60
   0   3   5 70286.8 2715.67  62
   0   3   5 55893.9 2680.15  59
   0   3   6 23997.0 1450.59  62
   0   3  -6 23815.2 1459.58  62
   0   3   6 27142.7 1654.84  59
   0   3  -6 24987.1 1884.03  61
   0   3  -6 14627.7 1266.57  59
   0   3  -6 24260.5 1430.25  60
   0   3  -6 18815.4 1551.59  18
   0   3   6 22904.3 1535.85  55
   0   3  -6 28693.0 1684.44  55
   0   3  -6 21727.7 1579.77   5
   0   3  -6 22268.6 1645.90   3
   0   3   6 29538.4 1653.14   6
   0   3   6 19314.4 1058.98   1
   0   3   6 23457.0 1457.76   8
   0   3  -7 135.191 125.590  60
   0   3  -7 24.0400 103.396  62
   0   3   7 234.092 142.355  62
   0   3   7 142.636 111.997  59
   0   3  -7 405.521 190.238  59
   0   3   7 445.184 200.359  17
   0   3  -7 186.667 146.545  18
   0   3   7 151.423 132.914  55
   0   3  -7 477.743 242.063  55
   0   3   7 181.456 159.263   2
   0   3   7 53.4428 62.6096   1
   0   3  -7 308.459 191.425   3
   0   3  -7 380.862 192.985   4
   0   3  -7 279.862 194.178   5
   0   3   7 153.362 142.459   7
   0   3   7 135.690 134.751   8
   0   3  -8 12667.0 985.987  62
   0   3   8 9940.56 939.395  59
   0   3  -8 11369.2 1090.18  60
   0   3   8 11498.9 923.622  62
   0   3  -8 8933.93 1088.23  18
   0   3   8 13413.7 1142.90  17
   0   3  -8 11259.1 1185.91  48
   0   3   8 10391.8 944.934  55
   0   3  -8 10794.5 1006.10  55
   0   3  -8 10299.4 1200.30   3
   0   3  -8 11448.4 1126.55   4
   0   3   8 9884.69 847.274   1
   0   3  -8 11373.9 1183.83   5
   0   3   8 13052.4 1202.57   2
   0   3   8 11220.4 1107.50   7
   0   3   8 12270.2 1094.51   8
   0   3  -9 19295.0 1541.23  60
   0   3  -9 24435.9 2080.28  61
   0   3   9 23777.7 1605.91  17
   0   3  -9 19229.0 1667.78  18
   0   3  -9 23342.1 1821.20  48
   0   3  -9 20585.0 1662.25   5
   0   3   9 26502.4 1763.35   6
   0   3  -9 18134.3 1552.68   4
   0   3   9 18809.8 1283.21   1
   0   3   9 23477.7 1673.03   2
   0   3   9 22459.5 1550.41   8
   0   3   9 23789.7 1686.03   7
   0   3 -10 142734. 5588.69  61
   0   3 -10 95568.8 4169.14  60
   0   3 -10 104535. 4516.25  48
   0   3 -10 100140. 4378.60  18
   0   3  10 120225. 4319.85  17
   0   3  10 133142. 4601.01   6
   0   3 -10 96301.6 4279.03   4
   0   3  10 110802. 3895.26   1
   0   3 -10 110336. 4411.04   5
   0   3  10 118610. 4458.42   2
   0   3  10 130256. 4400.81   9
   0   3  10 119827. 4209.34   8
   0   3  10 116454. 4353.38   7
   0   3 -11 45350.3 3059.70  61
   0   3 -11 45190.3 2598.07  60
   0   3 -11 38236.0 2543.72  48
   0   3 -11 34519.2 2332.74  18
   0   3  11 37342.0 2054.24  39
   0   3 -11 33492.5 2327.06   4
   0   3  11 46967.6 2542.61   6
   0   3  11 36784.7 2050.98   1
   0   3 -11 37640.8 2349.78   5
   0   3  11 40398.1 2313.98   7
   0   3  11 42051.2 2336.00   9
   0   3  11 38576.7 2165.44   8
   0   3 -12 32263.3 2596.90  61
   0   3 -12 33362.5 2275.42  60
   0   3 -12 30512.4 2294.62  48
   0   3 -12 29432.1 2117.89  18
   0   3  12 30482.7 1787.01  39
   0   3 -12 28447.3 2290.80   3
   0   3 -12 28754.8 2159.55   4
   0   3  12 38647.5 2328.83   6
   0   3 -12 31181.1 2079.72   5
   0   3  12 28318.0 1827.08   1
   0   3  12 34507.5 2108.26   7
   0   3  12 33678.2 1992.94   8
   0   3  12 33516.7 2114.75   9
   0   3 -13 6264.23 954.111  60
   0   3 -13 6654.95 1155.60  61
   0   3 -13 7023.19 1045.24  48
   0   3  13 5958.86 712.672  39
   0   3 -13 4887.46 877.001   4
   0   3 -13 5818.29 811.580   5
   0   3 -13 4884.17 925.240   3
   0   3  13 6583.94 828.230   1
   0   3  13 5704.61 922.982   6
   0   3  13 5459.51 846.277   9
   0   3  13 6227.62 809.482   8
   0   3  13 6268.19 865.425   7
   0   3 -13 5454.75 856.040  18
   0   3  13 6064.65 883.907  17
   0   3 -14 9890.26 1071.01  18
   0   3  14 11555.6 1205.51  17
   0   3 -14 10808.8 1480.08  61
   0   3 -14 8634.65 1142.90  60
   0   3  14 9982.97 1049.59   7
   0   3  14 11533.6 1215.40   9
   0   3  14 10651.3 1030.52   8
   0   3  14 10822.3 1234.24   6
   0   3 -14 10374.7 1316.79   3
   0   3 -14 9536.55 1218.51   4
   0   3  15 3106.06 621.320  17
   0   3  15 2572.69 494.972   7
   0   3  15 2931.42 514.352   8
   0   3  15 3124.49 606.943   9
   0   3 -15 2173.31 568.719   4
   0   3  15 2818.21 618.958   6
   0   3 -15 3197.91 720.723   3
   0   3  16 15275.3 1286.02  17
   0   3  16 15723.1 1311.93   9
   0   3  16 16032.2 1095.21   8
   0   3  16 15542.6 1111.90   7
   0   3  16 17824.8 1416.53   6
   0   3 -16 15783.5 1456.03   4
   0   3 -16 16077.1 1472.02   3
   0   3  17 22747.4 1468.78  17
   0   3  17 24693.0 1513.24   9
   0   3 -17 21555.0 1578.77   4
   0   3 -17 25200.1 1672.28   3
   0   3  18 32874.3 1574.34   9
   0   3  18 33854.2 1639.11  17
   0   3 -18 30328.6 1727.98   4
   0   3 -18 32734.5 1678.97   3
   0   3  19 4535.17 460.625  17
   0   3  19 3656.70 426.682  26
   0   3 -19 4061.73 494.009   4
   0   4   0 67643.8 3348.09  59
   0   4   0 58670.6 2450.57  61
   0   4   0 54817.9 2830.08  62
   0   4   0 56381.3 2992.73  55
   0   4   0 65258.1 2968.60  18
   0   4   0 49018.5 2648.18  38
   0   4   0 56369.7 2476.88  39
   0   4   0 50625.9 2300.20   2
   0   4   0 57218.5 2651.76   3
   0   4   0 60450.8 2178.38   6
   0   4   0 53071.8 2358.93   8
   0   4  -1 81662.8 3667.35  59
   0   4  -1 67468.5 2841.83  61
   0   4  -1 63526.7 3047.29  62
   0   4  -1 72464.7 3384.73  55
   0   4   1 70088.5 3068.54  18
   0   4  -1 67091.7 3120.36  18
   0   4   1 59025.3 2644.17  39
   0   4  -1 67458.1 2627.44  39
   0   4   1 56918.5 2866.18  38
   0   4   1 63065.7 2756.04   3
   0   4   1 59693.2 2361.29   6
   0   4   1 56827.4 2537.28   2
   0   4  -1 65169.7 2474.68   2
   0   4  -1 61940.6 2848.53   3
   0   4   1 56369.8 2535.30   8
   0   4   1 58984.2 2571.72   7
   0   4  -1 52066.1 2341.53   8
   0   4  -2 30708.1 1914.17  61
   0   4  -2 27359.9 1919.63  62
   0   4   2 26991.3 1886.18  62
   0   4  -2 34149.4 2297.58  59
   0   4   2 30403.7 2163.32  59
   0   4  -2 30734.1 2147.88  55
   0   4   2 31539.8 2123.26  55
   0   4   2 28223.2 1863.25  18
   0   4  -2 29809.5 2004.75  18
   0   4   2 25604.5 1810.45  38
   0   4  -2 23995.4 1768.22  38
   0   4  -2 28069.9 1529.49  39
   0   4   2 28912.9 1699.24   3
   0   4  -2 30369.0 1940.27   3
   0   4  -2 28459.7 1416.63   2
   0   4  -2 26786.4 1901.25   5
   0   4   2 29135.1 1587.84   6
   0   4   2 25561.8 1646.14   2
   0   4   2 25197.8 1655.57   7
   0   4   2 26393.5 1640.71   8
   0   4  -3 300.883 218.975  62
   0   4   3 112.498 174.190  62
   0   4   3 134.292 192.498  59
   0   4  -3 351.550 237.526  61
   0   4  -3 406.082 262.680  59
   0   4   3 247.395 217.147  55
   0   4  -3 378.404 266.099  55
   0   4   3 236.755 187.771  18
   0   4  -3 241.904 223.809  18
   0   4  -3 180.733 179.495  38
   0   4   3 106.951 139.987  38
   0   4  -3 309.009 171.564   4
   0   4   3 248.597 180.943   2
   0   4  -3 197.674 170.025   5
   0   4  -3 521.808 244.803   3
   0   4   3 239.119 161.599   6
   0   4   3 190.038 136.245   7
   0   4   3 233.878 170.237   8
   0   4  -4 3108.40 710.150  59
   0   4   4 4283.37 789.225  59
   0   4   4 2997.90 629.782  62
   0   4  -4 3085.35 663.683  61
   0   4  -4 3210.94 642.657  62
   0   4   4 3640.80 730.409  55
   0   4  -4 3045.81 654.093  55
   0   4   4 3456.40 629.427  18
   0   4   4 2859.64 462.747  17
   0   4   4 2772.34 568.215  38
   0   4  -4 3365.41 612.666  38
   0   4   4 3099.19 544.520   6
   0   4  -4 2550.38 598.871   5
   0   4  -4 3212.55 581.641   4
   0   4  -4 3106.22 643.863   3
   0   4   4 3256.82 598.349   2
   0   4   4 2834.82 544.685   8
   0   4   4 3693.42 640.719   7
   0   4  -5 53586.7 2733.47  62
   0   4   5 52029.8 2683.74  62
   0   4   5 45638.8 2727.65  59
   0   4  -5 57633.0 3026.33  59
   0   4  -5 52529.7 3012.79  61
   0   4  -5 59405.9 3011.54  55
   0   4   5 55081.4 2839.21  55
   0   4  -5 45146.7 2728.58  18
   0   4   5 47792.4 2544.36  18
   0   4   5 45536.5 2233.31  17
   0   4   5 50538.1 2600.85  38
   0   4  -5 52424.3 2638.62  38
   0   4  -5 48273.4 2809.57   3
   0   4   5 56035.7 2723.97   2
   0   4   5 56791.9 2616.10   6
   0   4  -5 49117.4 2549.36   4
   0   4   5 50474.0 2624.88   7
   0   4   5 51956.4 2558.00   8
   0   4  -6 33442.6 2059.57  62
   0   4   6 25246.6 1997.29  59
   0   4  -6 34567.9 2264.02  59
   0   4  -6 34881.1 2481.83  61
   0   4   6 27566.1 1884.22  62
   0   4  -6 33929.9 2182.39  55
   0   4   6 31538.6 2055.97  55
   0   4   6 33146.0 1843.31  17
   0   4  -6 27065.7 2076.79  18
   0   4   6 24102.5 1763.21  18
   0   4   6 27589.6 1815.94  38
   0   4  -6 30075.0 1914.10  38
   0   4  -6 27393.5 2087.06   5
   0   4  -6 29103.7 2153.61   3
   0   4   6 33369.8 2088.67   2
   0   4  -6 28920.3 1946.91   4
   0   4   6 35332.3 2066.71   6
   0   4   6 32158.9 1965.61   8
   0   4   6 31180.2 2033.33   7
   0   4  -7 43976.0 2439.33  55
   0   4   7 41280.7 2331.70  55
   0   4   7 40603.4 2171.31  17
   0   4  -7 32203.9 2356.94  18
   0   4   7 37372.5 2095.09  38
   0   4  -7 35565.7 2071.16  38
   0   4   7 40675.3 2245.68  62
   0   4  -7 50301.5 2716.91  59
   0   4  -7 38161.4 2745.93  61
   0   4   7 42660.2 2496.77  59
   0   4  -7 41934.9 2310.03  62
   0   4  -7 38734.8 2335.82   4
   0   4  -7 29702.9 2245.03   5
   0   4  -7 36631.5 2513.14   3
   0   4   7 47642.5 2493.80   6
   0   4  -8 35626.6 2559.47   3
   0   4  -8 39591.8 2409.81   4
   0   4  -8 36964.9 2478.59   5
   0   4   8 51146.4 2649.56   6
   0   4  -8 43577.8 2985.94  61
   0   4   8 43834.9 2461.93  59
   0   4   8 37534.9 2123.38  62
   0   4  -8 48676.5 2598.36  59
   0   4   8 42579.4 2288.64  55
   0   4  -8 42139.2 2621.24  48
   0   4  -8 33140.6 2404.80  18
   0   4   8 45370.5 2341.53  17
   0   4   8 40523.8 2339.29  39
   0   4  -8 37222.3 2040.69  38
   0   4  -8 36526.2 2035.86  31
   0   4   8 44566.6 2427.91   8
   0   4  -9 46466.9 3158.93  61
   0   4  -9 41610.7 2657.15  48
   0   4   9 45742.9 2421.83  17
   0   4  -9 34480.8 2467.97  18
   0   4   9 42686.0 2401.68  39
   0   4  -9 39314.8 2605.85   5
   0   4   9 53481.9 2782.37   6
   0   4  -9 29471.5 2399.67   3
   0   4   9 47933.3 2694.29   2
   0   4  -9 37000.0 2413.13   4
   0   4   9 44467.2 2439.57   8
   0   4   9 44357.7 2562.50   7
   0   4 -10 12840.6 1433.21  48
   0   4  10 13961.0 1301.28  17
   0   4 -10 10186.0 1281.78  18
   0   4  10 11964.2 1191.57  39
   0   4  10 14731.2 1426.88   6
   0   4 -10 11415.8 1421.44   3
   0   4 -10 11526.3 1334.41   5
   0   4 -10 10810.3 1264.34   4
   0   4  10 13592.2 1364.91   7
   0   4  10 13578.9 1300.21   8
   0   4 -11 9439.05 1225.63  48
   0   4  11 10309.4 1116.87  17
   0   4 -11 8591.98 1143.96  18
   0   4  11 10389.4 1077.40  39
   0   4 -11 8206.25 1108.37   4
   0   4 -11 9144.37 1126.71   5
   0   4 -11 7293.07 1167.86   3
   0   4  11 9602.90 1131.28   7
   0   4  11 10510.0 1122.64   8
   0   4 -12 3640.05 856.808  61
   0   4 -12 4548.74 831.766  48
   0   4  12 4638.26 684.283  39
   0   4  12 4495.04 724.162   8
   0   4  12 3881.46 696.036   7
   0   4 -12 4409.75 776.928  18
   0   4  12 4752.46 760.373  17
   0   4 -12 3947.13 701.390   5
   0   4 -12 2899.93 657.993   4
   0   4  13 28542.0 1648.73  39
   0   4  13 29028.3 1890.18   7
   0   4  13 31088.6 1858.25   8
   0   4  13 32621.3 2125.78   6
   0   4 -13 24243.1 1884.49   4
   0   4 -13 27893.2 1872.19  18
   0   4  13 32087.9 1976.18  17
   0   4  14 14521.9 1240.80  17
   0   4  14 11748.7 906.944  39
   0   4 -14 14306.7 1300.32  29
   0   4 -14 12011.4 1226.28   4
   0   4  14 16183.9 1408.75   6
   0   4  14 12440.6 1130.19   7
   0   4  14 14375.8 1161.92   8
   0   4 -15 23636.0 1575.75  29
   0   4  15 27431.9 1742.60   6
   0   4 -15 22921.8 1731.72   3
   0   4 -15 22137.9 1592.25   4
   0   4  15 25411.1 1509.65   7
   0   4  15 25799.7 1444.49   8
   0   4 -16 14039.3 1095.85   4
   0   4 -16 13695.4 1165.49   3
   0   4 -16 10687.6 923.338  29
   0   4  16 12993.5 861.249   8
   0   4  16 12485.2 878.168   7
   0   4  16 10854.3 812.420  26
   0   4 -17 3472.72 473.647   4
   0   4 -17 4480.19 558.648   3
   0   4  17 4457.66 426.522  25
   0   4 -17 2910.05 396.532  29
   0   4  17 3301.74 327.835   7
   0   5   0 49.5106 150.509  62
   0   5   0 58.7922 206.370  59
   0   5   0 53.9342 189.318  55
   0   5   0 136.406 211.133  18
   0   5   0 94.2292 145.854  39
   0   5   0-45.8513 179.943  38
   0   5   0 561.375 262.733   3
   0   5   0 172.897 123.886   8
   0   5  -1 14590.7 1561.28  62
   0   5  -1 17734.3 1858.42  59
   0   5  -1 15901.4 1678.18  55
   0   5   1 17856.1 1605.54  18
   0   5  -1 19557.6 1726.10  18
   0   5   1 12085.0 1375.91  38
   0   5   1 15002.2 1305.18  39
   0   5  -1 16102.8 1259.29  39
   0   5  -1 14930.9 1415.50   3
   0   5   1 13391.9 1164.73   2
   0   5   1 15347.7 1369.13   3
   0   5  -1 11252.8 1017.98   8
   0   5   1 11982.8 1132.55   8
   0   5   1 13068.7 1172.83   7
   0   5   2 36946.4 2547.73  62
   0   5  -2 35763.0 2498.50  62
   0   5   2 48292.8 3106.69  59
   0   5  -2 49082.4 3124.81  59
   0   5  -2 43868.7 2863.66  55
   0   5   2 39170.5 2704.93  55
   0   5  -2 43541.0 2701.71  18
   0   5   2 47455.5 2676.58  18
   0   5  -2 39402.2 1982.02  39
   0   5   2 34726.6 2148.52  39
   0   5   2 35118.1 2411.32  38
   0   5  -2 33520.5 2362.51  38
   0   5   2 35530.0 2094.70   7
   0   5   2 36519.6 2122.50   8
   0   5   2 32974.2 2045.86   2
   0   5  -2 44856.4 2561.59   3
   0   5  -3 40629.8 2508.85   3
   0   5   3 38833.9 2028.23   6
   0   5   3 33772.2 2145.12   2
   0   5   3 47190.3 3051.82  59
   0   5  -3 50073.8 3132.93  59
   0   5  -3 39264.7 2395.88  61
   0   5  -3 42215.2 2690.82  62
   0   5   3 40271.8 2619.30  62
   0   5   3 46975.5 2905.09  55
   0   5  -3 43324.1 2841.29  55
   0   5   3 50563.6 2732.89  18
   0   5  -3 41525.6 2668.42  18
   0   5   3 35624.4 2212.34  39
   0   5  -3 37728.3 2460.94  38
   0   5   3 38205.8 2484.90  38
   0   5  -3 39408.5 1881.73  39
   0   5  -3 36883.0 2063.41  29
   0   5   3 32219.4 2083.18   7
   0   5   3 37154.5 2186.70   8
   0   5   4 24441.3 1658.62   6
   0   5  -4 27983.8 2094.99   3
   0   5   4 22883.7 1777.35   2
   0   5   4 28434.1 2134.98  62
   0   5   4 31151.4 2416.41  59
   0   5  -4 23984.9 1944.21  61
   0   5  -4 32433.2 2474.65  59
   0   5  -4 28921.2 2159.60  62
   0   5  -4 29952.0 2289.90  55
   0   5   4 29735.5 2247.20  55
   0   5   4 26638.6 2003.77  18
   0   5   4 23419.4 1775.12  39
   0   5   4 27843.6 2027.18  38
   0   5  -4 26503.1 1987.94  38
   0   5  -4 28952.3 1845.80  29
   0   5   4 24545.2 1781.30   8
   0   5   4 24057.2 1803.76   7
   0   5   5 9987.52 1178.14   2
   0   5   5 11039.4 1118.16   6
   0   5  -5 11774.5 1364.04   3
   0   5   5 10766.1 1383.99  59
   0   5  -5 12094.9 1466.76  59
   0   5   5 10888.5 1246.13  62
   0   5  -5 11098.2 1291.53  62
   0   5  -5 8225.94 1159.05  61
   0   5  -5 13003.1 1453.16  55
   0   5   5 12443.8 1393.16  55
   0   5   5 10897.9 1228.78  18
   0   5   5 9999.01 1169.39  38
   0   5  -5 11637.4 1263.70  38
   0   5  -5 9417.12 1089.66  29
   0   5   5 11748.1 1206.80   8
   0   5   5 10333.4 1171.04   7
   0   5   6 8158.90 984.228   6
   0   5  -6 7875.42 1138.34   3
   0   5  -6 9314.12 1145.77  62
   0   5  -6 10828.8 1341.42  59
   0   5   6 9196.78 1231.33  59
   0   5  -6 6317.57 1027.03  61
   0   5   6 9659.89 1131.36  62
   0   5  -6 10053.1 1250.24  55
   0   5   6 9568.44 1163.74  55
   0   5  -6 7299.66 1106.25  18
   0   5   6 8753.84 858.493  17
   0   5  -6 8336.04 1039.09  38
   0   5   6 8661.83 1065.69  39
   0   5   6 8006.21 1000.39  38
   0   5  -6 7005.18 962.280  29
   0   5   6 8010.48 982.749  31
   0   5  -6 6953.34 966.916  31
   0   5   6 9384.52 1077.90   8
   0   5   6 9121.50 1095.03   7
   0   5   7 2783.41 584.853   6
   0   5  -7 2106.84 603.713   3
   0   5  -7 3341.28 736.560  59
   0   5  -7 1977.53 580.291  61
   0   5   7 2411.27 588.681  59
   0   5   7 2943.84 594.452  62
   0   5   7 2601.37 577.062  55
   0   5  -7 1737.79 496.922  48
   0   5   7 2025.57 429.828  17
   0   5  -7 2210.79 629.418  18
   0   5   7 2367.45 532.921  38
   0   5  -7 2494.93 528.710  38
   0   5   7 2515.23 584.917  39
   0   5  -7 2069.05 471.079  31
   0   5  -7 1827.29 503.546  29
   0   5   7 1883.73 487.304   8
   0   5   7 1894.73 517.160   7
   0   5   8 5763.55 843.986   6
   0   5  -8 3885.91 823.717   3
   0   5  -8 5395.16 851.258  59
   0   5   8 4255.61 744.624  59
   0   5  -8 4711.91 906.588  61
   0   5  -8 3843.99 737.042  48
   0   5  -8 3983.37 798.811  18
   0   5   8 4515.24 654.325  17
   0   5   8 4174.20 625.166  38
   0   5  -8 4177.75 636.423  38
   0   5   8 3990.96 710.001  39
   0   5   8 4035.42 597.475  30
   0   5  -8 4403.01 770.260  29
   0   5  -8 3652.71 587.074  30
   0   5   8 4280.17 764.483   7
   0   5   9 7484.19 928.408  39
   0   5   9 8777.51 1039.22   6
   0   5  -9 6409.68 1029.15   3
   0   5  -9 6716.91 945.913  29
   0   5  -9 6078.55 956.047  18
   0   5   9 7379.51 850.362  17
   0   5  10 42017.8 2127.10  17
   0   5 -10 40365.2 2446.32  18
   0   5 -10 34949.4 2436.71   3
   0   5  10 49447.4 2568.59   6
   0   5 -10 35624.3 2125.79   4
   0   5  10 41644.8 2253.06  39
   0   5 -10 40788.3 2399.34  29
   0   5  10 46415.2 2381.42   8
   0   5  11 30907.9 1753.00  17
   0   5 -11 31536.0 2006.87  18
   0   5  11 39197.6 2191.91   6
   0   5 -11 28887.1 2104.03   3
   0   5 -11 27280.2 1761.99   4
   0   5  11 31416.1 1813.01  39
   0   5 -11 31273.6 2012.13  29
   0   5  11 35208.3 1962.38   8
   0   5  11 32812.4 1979.65   7
   0   5 -12 8979.44 941.474  18
   0   5  12 10067.4 908.322  17
   0   5  12 10496.2 1080.23   6
   0   5 -12 9264.66 1092.89   3
   0   5  12 8719.29 841.914  39
   0   5 -12 8444.86 946.981  29
   0   5  12 9914.09 1002.98   7
   0   5  12 10565.1 977.885   8
   0   5  13 4100.64 540.744  17
   0   5 -13 3259.34 623.319   3
   0   5  13 4627.90 528.538  39
   0   5 -13 4097.93 609.738  29
   0   5  13 4996.65 611.566   8
   0   5  13 4613.42 617.249   7
   0   5  14 1018.01 267.075  25
   0   5  14 1151.11 256.722  17
   0   5 -14 1089.36 330.623   3
   0   5  14 1138.20 205.767  39
   0   5 -14 1203.55 306.547  29
   0   5  14 1162.05 281.346   7
   0   5  14 1529.47 302.941   8
   0   5  15 2660.36 334.511  17
   0   5  15 2757.18 336.527   8
   0   5  15 2785.36 354.813   7
   0   5  15 3005.06 361.929  25
   0   6   0 22818.6 1847.49  38
   0   6   0 27854.1 1610.11  39
   0   6   0 35729.0 2260.71  18
   0   6   0 32156.7 2507.37  59
   0   6  -1 13152.1 1016.77  39
   0   6   1 13870.5 1157.15  39
   0   6   1 12641.3 1338.43  38
   0   6  -1 15953.2 1745.67  59
   0   6  -1 15897.7 1504.23  18
   0   6   1 18141.4 1568.81  18
   0   6  -2 16165.2 1525.07  18
   0   6   2 18992.5 1584.06  18
   0   6  -2 17611.3 1404.64   3
   0   6   2 13277.3 1347.13  38
   0   6   2 11989.7 1114.84  39
   0   6  -2 13742.1 1373.29  38
   0   6  -2 15649.5 1720.26  59
   0   6   2 17398.5 1776.82  59
   0   6   2 10725.0 970.279   8
   0   6   3 1251.06 414.052  18
   0   6  -3 1013.36 432.620  18
   0   6  -3 1768.73 451.201   3
   0   6  -3 1073.57 381.255  38
   0   6   3 814.361 290.719  39
   0   6   3 837.945 354.362  38
   0   6   3 1210.41 480.400  59
   0   6  -3 1437.55 545.278  59
   0   6   3 1134.98 318.297   8
   0   6   3 747.533 259.598   7
   0   6  -4 399.545 303.738  59
   0   6   4 653.503 363.846  59
   0   6  -4 372.296 271.756  18
   0   6   4 320.532 207.455  38
   0   6   4 609.759 262.250  39
   0   6  -4 717.923 302.236  38
   0   6   4 346.749 204.200   7
   0   6   4 544.851 243.920   8
   0   6  -4 456.944 229.265  30
   0   6   4 285.352 208.352  30
   0   6  -4 139.169 161.745   3
   0   6  -5 15315.4 1340.09   3
   0   6   5 15215.2 1526.27  59
   0   6  -5 17300.9 1644.32  59
   0   6   5 14360.6 1258.00  38
   0   6   5 12157.6 1122.06  39
   0   6  -5 14350.7 1267.96  38
   0   6  -5 11604.6 938.979  29
   0   6   5 14255.0 1189.22  30
   0   6  -5 13047.9 1161.85  30
   0   6   5 12077.7 1078.52   7
   0   6   5 14413.1 1163.34   8
   0   6   6 19188.6 1365.48   7
   0   6   6 21611.0 1432.29   8
   0   6  -6 22835.8 1797.97  59
   0   6   6 22146.2 1751.58  59
   0   6  -6 21589.5 1597.01   3
   0   6   6 20450.3 1414.86  38
   0   6  -6 19001.4 1381.24  38
   0   6  -6 19053.3 1241.69  29
   0   6   6 20246.6 1330.45  30
   0   6  -6 18852.3 1327.43  30
   0   6   6 15371.0 1076.96  25
   0   6   7 19297.7 1309.62   8
   0   6   7 18915.6 1323.05   7
   0   6  -7 17100.7 1448.54  59
   0   6  -7 15241.6 1353.88  18
   0   6  -7 18774.4 1450.43   3
   0   6   7 16143.9 1140.42  38
   0   6  -7 16147.8 1141.45  38
   0   6  -7 15319.6 1106.05  29
   0   6   7 17795.6 1119.11  30
   0   6  -7 13426.8 1018.90  30
   0   6   7 11986.7 944.150  25
   0   6  -8 21370.0 1533.42  18
   0   6  -8 21320.5 1526.42   3
   0   6   8 22586.1 1427.52  39
   0   6  -8 20169.4 1267.79  29
   0   6   8 24117.2 1478.41   7
   0   6   8 25960.5 1490.58   8
   0   6   9 4314.12 519.950  25
   0   6  -9 5667.88 718.453  18
   0   6  -9 5230.18 704.541   3
   0   6   9 5347.35 643.354  39
   0   6  -9 5929.83 640.090  29
   0   6   9 6880.79 727.471   7
   0   6   9 7389.76 734.180   8
   0   6  10 6023.01 578.025  25
   0   6 -10 7598.49 755.698  18
   0   6 -10 6984.48 765.221   3
   0   6  10 8622.34 731.270  39
   0   6 -10 6744.33 651.607  29
   0   6  10 7987.58 739.044   7
   0   6  11 3267.60 382.547  25
   0   6 -11 3299.94 422.762  18
   0   6  11 3164.66 392.997  39
   0   6 -11 2591.18 435.123   3
   0   6 -11 2654.33 381.233  29
   0   6  11 3457.98 443.522   7
   0   6  12 3205.38 337.415  25
   0   6  12 4540.45 432.244   8
   0   6  12 3627.09 341.527  39
   0   6 -12 3607.80 449.133   3
   0   6 -12 3458.91 372.899  29
   0   7   0-19.0919 88.6517  30
   0   7   0 21.0631 97.8047  38
   0   7   1 2128.86 366.870  30
   0   7   1 2484.91 415.512  38
   0   7  -1 2723.86 454.432  18
   0   7   2 7166.49 662.350  30
   0   7  -2 7043.09 663.144  30
   0   7  -2 6846.75 681.842  38
   0   7   2 8116.35 736.560  38
   0   7  -2 8090.46 780.206  18
   0   7  -3 8908.01 705.978  30
   0   7   3 9722.74 729.586  30
   0   7  -3 9442.28 760.382  38
   0   7   3 7444.08 541.718  39
   0   7   3 9979.50 780.359  38
   0   7  -3 11060.4 895.646  18
   0   7  -4 9545.08 687.102  30
   0   7   4 11483.4 724.548  30
   0   7  -4 9450.40 712.045  38
   0   7   4 8081.34 580.188  39
   0   7   4 13180.7 813.591  38
   0   7  -4 12298.2 902.676  18
   0   7  -5 9508.62 603.152  30
   0   7  -5 10205.2 628.490  38
   0   7   5 10471.6 640.515  39
   0   7   6 848.824 169.558  39
   1  -7  -6 4219.21 446.603  19
   1  -7  -6 4531.53 441.637  14
   1  -7  -5 9377.23 715.510  19
   1  -7  -5 9236.22 687.289  14
   1  -7  -4 7363.04 673.482  15
   1  -7  -4 8254.74 688.645  14
   1  -7  -3 15734.4 1052.60  15
   1  -7  -3 16034.0 1025.69  14
   1  -7  -2 4736.44 559.071  14
   1  -7  -2 4664.27 577.688  15
   1  -7  -1 1704.05 342.412  14
   1  -7  -1 2027.32 390.132  15
   1  -7  -1 1734.19 737.754  40
   1  -7   0 1304.21 327.725  15
   1  -7   0 982.969 268.269  14
   1  -7   0 1227.32 646.055  40
   1  -7   1 3815.93 533.916  15
   1  -7   1 3999.03 516.108  14
  -1  -7  -2 9779.30 694.613  19
   1  -7   2 12530.9 959.874  15
   1  -7   2 11512.9 868.289  14
   1  -7   3 11557.3 902.390  15
  -1  -7  -3 10357.9 687.404  19
   1  -7   3 11416.1 835.874  14
   1  -7   4 11095.2 799.436  14
   1  -7   4 11667.9 870.705  15
   1  -7   5 6100.58 594.495  15
   1  -7   5 6050.99 537.206  14
   1  -7   6 1507.90 245.910  14
   1  -7   6 1592.59 279.716  15
   1  -6 -12 2557.38 355.759  19
   1  -6 -12 2116.56 330.525  14
   1  -6 -11 580.551 204.943  15
   1  -6 -11 514.559 195.174  14
  -1  -6  11 131.544 136.191  15
   1  -6 -11 493.660 196.187  19
   1  -6 -10 2952.41 484.746  19
   1  -6 -10 2794.88 470.509  14
   1  -6 -10 2177.81 426.073  15
  -1  -6  10 1573.47 394.195  15
  -1  -6  10 3137.74 517.320  63
   1  -6  -9 7882.96 861.396  19
   1  -6  -9 8759.82 890.422  14
   1  -6  -9 7722.58 859.920  15
  -1  -6   9 6639.15 795.436  15
   1  -6  -8 19902.4 1469.94  19
  -1  -6   8 17755.8 1393.37  15
   1  -6  -8 20502.0 1522.82  15
   1  -6  -8 19302.4 1435.76  14
   1  -6  -7 18902.6 1448.16  14
   1  -6  -7 17441.6 1473.91  15
  -1  -6   7 15012.8 1332.98  15
   1  -6  -7 15730.0 1644.75  12
  -1  -6   7 17008.6 1477.18  63
  -1  -6   7 12842.0 1446.15  57
  -1  -6   6 11782.8 1190.25  15
   1  -6  -6 12581.1 1208.95  14
   1  -6  -6 11332.5 1222.61  15
   1  -6  -6 10370.2 1400.03  57
  -1  -6   6 10731.8 1203.38  63
  -1  -6   6 8893.69 1292.06  57
   1  -6  -6 10591.9 1333.91  12
   1  -6  -5 5332.99 849.377  15
   1  -6  -5 6112.36 870.933  14
  -1  -6   5 5112.16 795.770  15
  -1  -6   5 3953.54 771.429  63
   1  -6  -5 4642.74 1036.94  57
   1  -6  -5 3850.80 828.689  12
  -1  -6   5 3064.11 649.174  12
   1  -6  -4 17251.4 1557.74  15
  -1  -6   4 14847.2 1377.74  15
   1  -6  -4 14585.6 1365.00  14
  -1  -6   4 10200.6 1241.34  63
   1  -6  -4 13575.6 1782.50  57
   1  -6  -4 14761.5 1635.26  12
  -1  -6   4 11619.9 1380.82  12
  -1  -6   3 11941.1 1245.12  15
   1  -6  -3 12721.1 1357.82  15
   1  -6  -3 15488.0 1412.83  14
   1  -6  -3 11369.7 1681.00  57
  -1  -6   3 12866.7 1476.87  12
   1  -6  -3 14162.3 1576.49  12
   1  -6  -2 21054.7 1663.54  14
  -1  -6   2 20923.2 1642.90  15
   1  -6  -2 20691.2 1748.57  15
   1  -6  -2 16843.5 2088.75  57
   1  -6  -2 20337.2 1893.73  12
  -1  -6   2 19460.4 1846.69  12
   1  -6  -1 27673.6 1906.95  14
  -1  -6   1 30148.4 1944.07  15
  -1  -6   1 27204.8 1742.89  14
   1  -6  -1 28291.3 2052.51  15
  -1  -6   1 11992.3 1224.62  11
  -1  -6   1 28239.0 2244.08  12
   1  -6  -1 24387.3 2042.74  12
   1  -6   0 16823.0 1587.90  15
  -1  -6   0 15312.2 1319.15  14
  -1  -6   0 15488.0 1396.31  15
   1  -6   0 12175.2 1803.28  57
  -1  -6   0 10230.9 1051.21  11
  -1  -6   0 16639.5 1744.79  12
   1  -6   0 13743.1 1459.29  12
  -1  -6  -1 17931.3 1430.12  14
   1  -6   1 19274.8 1708.90  15
  -1  -6  -1 18008.2 1478.66  15
   1  -6   1 14959.8 1975.88  57
  -1  -6  -1 12979.2 1185.94  11
  -1  -6  -1 17202.9 1797.84  12
   1  -6   1 15773.4 1533.74  12
   1  -6   2 15129.8 1498.87  15
  -1  -6  -2 15444.5 1345.71  15
  -1  -6  -2 13918.6 1241.30  14
   1  -6   2 12590.2 1774.73  57
  -1  -6  -2 11815.0 1091.88  11
   1  -6   2 9947.66 1169.30  12
  -1  -6  -3 3504.73 622.486  14
  -1  -6  -3 3519.32 626.437  15
   1  -6   3 4276.62 784.472  15
   1  -6   3 3086.76 557.734  63
   1  -6   3 3051.46 874.884  57
  -1  -6  -3 3885.35 600.255  11
   1  -6   4 3401.80 702.904  15
  -1  -6  -4 2931.38 559.011  15
  -1  -6  -4 3412.45 599.729  14
   1  -6   4 2706.74 550.143  63
   1  -6   4 2580.04 789.970  57
  -1  -6  -4 3291.43 766.072  12
  -1  -6  -5 7383.56 844.345  15
  -1  -6  -5 8796.84 939.764  14
   1  -6   5 8351.43 1072.13  15
   1  -6   5 8174.26 1284.66  57
   1  -6   5 8336.38 961.595  63
  -1  -6  -5 9103.86 1247.43  12
  -1  -6  -6 13854.8 1158.25  14
   1  -6   6 15981.5 1451.29  15
  -1  -6  -6 15934.3 1635.69  12
   1  -6   6 14060.9 1570.45  57
   1  -6   6 17250.4 1375.32  63
   1  -6   7 24888.1 1785.67  15
  -1  -6  -7 23137.7 1562.50  19
  -1  -6  -7 21752.8 1428.50  14
   1  -6   7 26446.8 1691.05  63
   1  -6   8 5789.65 746.020  63
  -1  -6  -8 6820.89 777.337  19
   1  -6   8 6137.46 828.728  15
  -1  -6  -8 5854.98 669.865  14
   1  -6   9 6422.61 819.605  15
  -1  -6  -9 8410.17 742.313  14
  -1  -6  -9 7790.47 785.243  19
   1  -6  10 2407.42 458.818  15
  -1  -6 -10 3447.44 473.512  19
  -1  -6 -10 2970.66 366.593  14
  -1  -6 -11 636.203 168.843  19
   1  -5 -15 508.920 192.629  14
   1  -5 -14 141.133 143.050  14
   1  -5 -14 202.325 147.667  15
  -1  -5  13 14179.8 1190.50  63
   1  -5 -13 12003.0 1111.67  15
   1  -5 -13 12727.7 1137.98  14
   1  -5 -12 25925.0 1767.94  14
   1  -5 -12 27129.1 1850.21  15
  -1  -5  12 31705.1 1970.21  63
   1  -5 -12 25391.6 2113.97  12
   1  -5 -11 31400.1 2059.19  14
   1  -5 -11 33893.0 2144.90  19
   1  -5 -11 32535.3 2178.68  15
  -1  -5  11 38108.2 2341.16  63
   1  -5 -11 31270.2 2504.94  12
   1  -5 -10 23255.5 1821.02  14
   1  -5 -10 22305.7 1848.10  15
   1  -5 -10 22813.4 1796.64  19
  -1  -5  10 26985.4 2066.54  63
   1  -5 -10 22854.9 2233.60  12
   1  -5  -9 5969.06 918.701  14
  -1  -5   9 6269.21 1037.87  13
   1  -5  -9 5563.56 933.772  15
   1  -5  -9 4505.48 1049.34  12
  -1  -5   9 7346.38 1086.11  63
   1  -5  -8 1956.87 598.801  15
   1  -5  -8 2212.54 595.266  14
  -1  -5   8 1534.79 519.073  13
   1  -5  -8 2078.78 617.260  57
  -1  -5   8 1174.92 483.539  63
  -1  -5   8 583.040 296.593  12
   1  -5  -8 1551.29 467.680  50
   1  -5  -7 1218.00 476.704  15
  -1  -5   7 1771.14 558.827  13
   1  -5  -7 1322.33 445.064  14
   1  -5  -7 1313.31 543.826  58
   1  -5  -7 1515.76 592.887  57
  -1  -5   7 571.502 342.055  12
   1  -5  -7 1426.73 464.655  50
   1  -5  -6 6882.50 1068.27  15
  -1  -5   6 8421.44 1217.89  13
   1  -5  -6 6156.99 964.213  14
   1  -5  -6 6568.57 1304.89  57
   1  -5  -6 6483.60 1271.10  58
  -1  -5   6 3917.98 869.447  12
   1  -5  -6 6492.73 1225.14  12
   1  -5  -6 7528.05 1039.97  50
   1  -5  -5 22559.1 1957.27  15
   1  -5  -5 20725.1 1775.54  14
  -1  -5   5 22348.5 2031.55  13
   1  -5  -5 18563.8 2239.67  58
   1  -5  -5 17386.3 2195.24  57
  -1  -5   5 16294.1 1776.08  12
   1  -5  -5 23250.7 2243.02  12
   1  -5  -5 18892.6 1729.13  50
  -1  -5   4 75276.4 3818.59  13
   1  -5  -4 71987.4 3485.23  14
   1  -5  -4 72041.4 3660.95  15
   1  -5  -4 61020.5 3272.04  50
   1  -5  -4 71990.3 4065.58  12
  -1  -5   4 65048.9 3762.64  12
  -1  -5   3 75087.6 3802.85  13
   1  -5  -3 69509.8 3453.41  14
   1  -5  -3 74403.8 3708.53  15
   1  -5  -3 68044.2 3514.06  13
   1  -5  -3 64754.7 3326.83  50
   1  -5  -3 70806.8 3978.63  12
  -1  -5   3 68229.7 3854.94  12
  -1  -5   2 6928.42 1024.65  13
   1  -5  -2 8142.22 1155.33  15
   1  -5  -2 6794.31 1015.66  13
   1  -5  -2 7869.58 1241.29  12
  -1  -5   2 8641.37 1298.01  12
   1  -5  -2 6651.83 970.035  50
   1  -5  -1 7079.43 1065.89  15
   1  -5  -1 8316.44 1188.89  13
  -1  -5   1 7766.21 1056.62  15
  -1  -5   1 8371.35 1097.68  13
   1  -5  -1 4094.93 700.368  63
   1  -5  -1 7250.34 1188.64  12
  -1  -5   1 8258.38 1268.01  12
   1  -5  -1 7274.88 988.348  50
  -1  -5   0 6772.93 951.075  13
  -1  -5   0 5467.79 890.454  15
   1  -5   0 7758.65 1159.46  13
   1  -5   0 6473.29 1026.81  15
   1  -5   0 4478.42 780.848  63
   1  -5   0 7130.62 1137.58  12
   1  -5   0 7090.60 969.315  50
   1  -5   1 5481.09 990.287  13
  -1  -5  -1 4988.51 842.126  15
   1  -5   1 4772.13 891.072  15
   1  -5   1 4164.42 779.510  63
   1  -5   1 4991.65 927.596  12
   1  -5   1 4945.73 803.719  50
   1  -5   2 37120.4 2691.86  13
  -1  -5  -2 33817.7 2167.56  14
   1  -5   2 38907.0 2450.87  16
  -1  -5  -2 37246.0 2363.21  15
   1  -5   2 36961.0 2538.20  12
  -1  -5  -2 34701.4 2202.22  11
  -1  -5  -2 42230.9 2963.16  12
   1  -5   2 31209.7 2211.58  63
   1  -5   3 77820.1 4041.57  13
  -1  -5  -3 71746.1 3325.20  14
  -1  -5  -3 75430.0 3499.06  15
   1  -5   3 77386.6 3617.71  16
   1  -5   3 69725.6 3493.44  63
  -1  -5  -3 74168.8 3382.90  11
   1  -5   3 63019.3 3422.50  12
  -1  -5  -3 82349.8 4283.22  12
   1  -5   3 64280.2 3221.95  51
   1  -5   4 34327.2 2603.06  13
   1  -5   4 33661.7 2289.11  16
  -1  -5  -4 34601.3 2238.09  15
  -1  -5  -4 33213.4 2134.31  14
   1  -5   4 30819.7 2946.61  57
   1  -5   4 27158.4 2880.29  58
   1  -5   4 33568.3 2337.51  63
  -1  -5  -4 30463.9 2058.33  11
  -1  -5  -4 39656.5 2918.57  12
   1  -5   4 30466.8 2164.90  12
   1  -5   4 30628.9 2066.09  51
  -1  -5  -5 4858.23 811.705  15
  -1  -5  -5 4450.08 774.452  14
   1  -5   5 4617.88 939.111  13
   1  -5   5 4234.78 791.037  16
   1  -5   5 4422.30 838.180  63
   1  -5   5 4419.97 1059.59  58
   1  -5   5 4338.53 1074.54  57
  -1  -5  -5 5673.04 1086.98  12
   1  -5   5 3382.42 665.917  12
  -1  -5  -5 5512.19 848.064  11
   1  -5   5 4061.94 730.110  51
   1  -5   6 5382.96 891.747  16
   1  -5   6 6811.98 1140.58  13
  -1  -5  -6 5889.39 880.187  14
  -1  -5  -6 5783.16 874.146  15
   1  -5   6 4769.36 1098.14  57
   1  -5   6 6848.33 1273.09  58
   1  -5   6 6076.58 972.560  63
  -1  -5  -6 6897.78 943.894  11
  -1  -5  -6 7784.15 1299.21  12
   1  -5   6 5591.70 826.461  51
  -1  -5  -7 3449.13 677.714  14
  -1  -5  -7 3453.43 660.893  15
   1  -5   7 3435.51 808.362  13
   1  -5   7 4006.60 760.554  16
   1  -5   7 3170.88 814.720  57
   1  -5   7 4527.11 831.213  63
  -1  -5  -7 4718.30 781.100  11
  -1  -5  -7 3334.24 896.922  12
   1  -5   7 3597.90 633.021  51
  -1  -5  -8 4543.00 962.595  12
  -1  -5  -8 5406.28 839.042  11
   1  -5   8 5889.91 944.254  63
  -1  -5  -8 4734.03 793.517  14
  -1  -5  -8 4550.23 805.543  19
  -1  -5  -8 4808.49 742.089  15
   1  -5   8 6188.89 926.268  16
  -1  -5  -9 28930.2 2437.24  12
  -1  -5  -9 30043.5 2006.25  11
   1  -5   9 36041.2 2370.33  63
  -1  -5  -9 32487.0 2142.97  19
  -1  -5  -9 30696.2 1939.97  15
   1  -5   9 32697.3 2179.05  16
  -1  -5  -9 31192.6 2029.83  14
  -1  -5 -10 32876.9 2552.95  12
  -1  -5 -10 41626.8 2323.77  11
  -1  -5 -10 37808.2 2216.24  14
  -1  -5 -10 41552.7 2399.58  19
   1  -5  10 41875.6 2408.29  16
  -1  -5 -11 24573.1 1730.24  19
  -1  -5 -11 25710.2 1692.08  14
   1  -5  11 27093.4 1802.22  16
   1  -5  12 12705.7 1139.49  16
  -1  -5 -12 12176.6 1070.28  14
  -1  -5 -12 12694.9 1149.55  19
   1  -5  13 2341.60 482.492  63
   1  -5  13 1729.40 381.654  16
  -1  -5 -13 1921.95 406.467  19
  -1  -5 -13 2142.38 398.679  14
   1  -5  14 244.867 130.319  16
  -1  -5 -14 356.370 153.899  14
  -1  -5 -14 137.741 114.633  19
  -1  -5 -15 4926.82 474.842  19
   1  -4 -18 2238.28 317.667  19
   1  -4 -17 2918.83 470.097  14
   1  -4 -16 17981.8 1331.72  14
   1  -4 -15 12796.1 1231.00  14
   1  -4 -15 12518.3 1225.70  15
  -1  -4  15 11306.6 1069.84  63
  -1  -4  15 12426.9 987.735  10
   1  -4 -14 30709.3 2188.01  15
  -1  -4  14 30363.7 1799.10  16
   1  -4 -14 33783.1 2172.79  14
  -1  -4  14 34641.7 2108.29  63
  -1  -4  14 33787.3 1844.98  10
   1  -4 -14 32980.5 2530.25  12
  -1  -4  13 9994.28 1054.24  16
   1  -4 -13 10261.8 1280.51  15
   1  -4 -13 8871.96 1127.61  14
  -1  -4  13 9142.56 965.441  10
   1  -4 -13 10946.6 1081.18  11
   1  -4 -13 10753.7 1522.50  12
  -1  -4  13 10286.3 1198.07  63
  -1  -4  12 394.783 208.957  16
   1  -4 -12 220.175 244.435  14
   1  -4 -12 192.434 223.436  15
  -1  -4  12 339.680 243.423  13
  -1  -4  12 322.896 242.914  63
   1  -4 -12 304.514 178.206  11
   1  -4 -12 67.1454 288.693  12
   1  -4 -12 102.829 127.695  49
   1  -4 -11 944.469 419.125  15
  -1  -4  11 1551.74 534.668  13
   1  -4 -11 1218.83 441.803  14
  -1  -4  11 1345.13 394.237  16
  -1  -4  11 1374.87 488.117  63
   1  -4 -11 1144.24 350.456  11
   1  -4 -11 905.839 519.427  12
   1  -4 -11 1153.01 432.138  49
   1  -4 -10 2100.46 609.589  15
  -1  -4  10 2144.60 504.693  16
   1  -4 -10 1931.95 559.198  14
  -1  -4  10 1676.55 565.532  63
   1  -4 -10 2041.36 468.367  11
   1  -4 -10 2243.57 749.687  12
   1  -4 -10 2399.08 635.585  49
  -1  -4   9 16549.7 1814.34  13
  -1  -4   9 16851.9 1441.28  16
   1  -4  -9 15462.6 1597.76  15
   1  -4  -9 13852.8 1455.56  14
  -1  -4   9 17877.4 1749.98  63
   1  -4  -9 14989.2 1850.15  12
   1  -4  -9 14744.2 1322.61  11
   1  -4  -9 15359.4 1614.52  49
   1  -4  -8 138623. 5348.88  15
   1  -4  -8 129079. 5020.42  14
  -1  -4   8 140842. 5770.04  13
   1  -4  -8 122577. 5565.32  57
   1  -4  -8 134381. 5860.43  58
  -1  -4   8 145803. 5614.04  63
   1  -4  -8 126642. 4567.01  11
   1  -4  -8 132895. 5943.65  12
   1  -4  -8 130574. 5317.83  49
  -1  -4   7 17475.1 1793.11  13
   1  -4  -7 15052.7 1455.31  14
   1  -4  -7 16203.2 1588.58  15
  -1  -4   7 14950.6 1565.02  63
   1  -4  -7 10617.0 1588.01  58
   1  -4  -7 17790.7 1985.50  57
   1  -4  -7 16513.9 1607.80  49
   1  -4  -7 16076.6 1816.49  12
   1  -4  -7 13472.9 1197.66  11
   1  -4  -6 58565.1 2966.89  14
   1  -4  -6 56591.9 3084.44  15
  -1  -4   6 63397.9 3487.55  13
   1  -4  -6 61662.8 3215.05  49
   1  -4  -6 53487.6 2521.65  11
   1  -4  -5 10984.9 1258.00  15
   1  -4  -5 12120.1 1243.42  14
  -1  -4   5 13735.7 1497.56  13
   1  -4  -5 12052.9 1300.00  49
  -1  -4   5 10412.9 1086.35  43
  -1  -4   5 10202.5 912.964  51
   1  -4  -5 10450.0 980.801  11
   1  -4  -4 164.830 161.722  15
   1  -4  -4-37.5202 131.708  13
  -1  -4   4 188.334 233.728  13
   1  -4  -4 40.7662 123.932  49
  -1  -4   4 428.739 208.699  43
  -1  -4   4 48.6130 85.3318  51
   1  -4  -4 151.295 132.773  11
   1  -4  -4 103.712 240.794  12
   1  -4  -3 13348.9 1330.71  13
   1  -4  -3 12119.7 1282.20  15
  -1  -4   3 15402.2 1491.00  13
  -1  -4   3 11852.3 1153.26  43
   1  -4  -3 11957.4 1442.36  12
   1  -4  -3 13155.5 1039.30  11
   1  -4  -2 28792.4 2027.57  15
  -1  -4   2 33944.9 2195.34  13
   1  -4  -2 35430.9 2264.92  13
  -1  -4   2 30263.8 1583.11  50
  -1  -4   2 30827.6 1919.81  43
   1  -4  -2 30777.5 1974.27  50
   1  -4  -2 28554.7 1588.15  11
   1  -4  -2 35855.2 2426.00  12
   1  -4  -1 38734.7 2391.15  13
   1  -4  -1 35417.1 2171.00  16
  -1  -4   1 44747.4 2434.95  13
   1  -4  -1 37803.7 2307.66  15
  -1  -4   1 37431.3 2161.27  43
   1  -4  -1 36214.0 2130.08  50
  -1  -4   1 33873.0 1756.02  50
   1  -4  -1 39210.6 2493.16  12
   1  -4   0 72936.0 3225.06  16
   1  -4   0 72099.3 3422.36  13
  -1  -4   0 77070.9 3260.82  13
  -1  -4   0 61445.7 2620.76  50
   1  -4   0 64552.6 2992.46  50
  -1  -4   0 68479.6 3125.04  43
   1  -4   0 74317.6 3513.27  12
   1  -4   1 16653.3 1572.74  13
   1  -4   1 14277.2 1329.94  16
  -1  -4  -1 14322.9 1250.28  13
  -1  -4  -1 16994.0 1389.92  15
   1  -4   1 14351.7 1427.73  12
  -1  -4  -1 16678.3 1636.79  12
   1  -4   1 15720.0 1313.17  50
  -1  -4  -1 13036.8 1092.96  50
  -1  -4  -2 26272.1 1632.62  13
  -1  -4  -2 23606.9 1696.23  15
   1  -4   2 24628.9 1789.81  16
   1  -4   2 27899.5 2069.43  13
   1  -4   2 23486.6 1736.43  63
   1  -4   2 25079.7 1886.75  12
  -1  -4  -2 29036.1 2186.82  12
   1  -4   2 23304.0 1650.10  50
   1  -4   3 35496.7 2187.16  16
   1  -4   3 37418.0 2471.55  13
  -1  -4  -3 31601.1 1920.80  14
  -1  -4  -3 34262.6 2047.40  15
   1  -4   3 33529.4 2214.14  12
   1  -4   3 30384.9 2083.79  63
   1  -4   4 5763.36 972.135  13
  -1  -4  -4 5176.11 748.970  15
  -1  -4  -4 4458.71 693.476  14
   1  -4   4 4833.06 807.964  16
   1  -4   4 4783.57 806.118  63
  -1  -4  -4 5221.48 779.033  11
   1  -4   4 4884.06 809.332  12
  -1  -4  -4 5875.82 983.711  12
   1  -4   4 4868.87 741.010  51
  -1  -4  -4 5026.45 728.964  49
   1  -4   5 73662.3 3444.66  16
   1  -4   5 76088.4 3850.37  13
  -1  -4  -5 75306.1 3294.19  15
  -1  -4  -5 71337.8 3177.46  14
   1  -4   5 76141.6 3603.75  63
  -1  -4  -5 77077.3 3330.91  11
  -1  -4  -5 84187.6 4073.80  12
  -1  -4  -5 77821.6 3277.88  49
   1  -4   5 72715.4 3211.64  51
  -1  -4  -6 40363.3 2317.22  14
  -1  -4  -6 41794.1 2371.03  15
   1  -4   6 39748.7 2479.04  16
   1  -4   6 36306.1 2906.48  57
   1  -4   6 47075.6 2753.94  63
   1  -4   6 42214.5 3195.67  58
  -1  -4  -6 48524.4 3018.46  12
   1  -4   6 29011.8 2027.21  12
  -1  -4  -6 45307.8 2473.91  11
  -1  -4  -6 45456.7 2457.58  49
   1  -4   6 40767.7 2293.81  51
  -1  -4  -7 40168.7 2330.23  14
  -1  -4  -7 40435.9 2342.08  15
   1  -4   7 42029.3 2565.96  16
   1  -4   7 34629.8 2809.54  58
   1  -4   7 43131.5 2674.55  63
   1  -4   7 36839.3 2819.15  57
  -1  -4  -7 47472.7 2556.92  11
  -1  -4  -7 48962.6 3066.01  12
   1  -4   7 41295.9 2277.07  10
   1  -4   7 45645.0 2403.27  51
  -1  -4  -7 40645.4 2402.58  49
  -1  -4  -8 36011.8 2270.19  15
   1  -4   8 36646.9 2451.15  16
  -1  -4  -8 37758.1 2305.67  14
   1  -4   8 38944.9 2777.43  13
   1  -4   8 34851.2 2677.45  57
   1  -4   8 40508.6 2300.61  51
  -1  -4  -8 37406.1 2374.60  49
   1  -4   8 37426.0 2261.31  10
  -1  -4  -8 38569.8 2377.33  11
  -1  -4  -8 44428.9 2974.58  12
   1  -4   9 7432.58 1094.40  16
  -1  -4  -9 7068.22 986.418  14
  -1  -4  -9 7060.96 961.883  15
  -1  -4  -9 7930.02 1080.93  19
   1  -4   9 9095.42 1317.64  13
  -1  -4  -9 6997.49 1025.29  49
   1  -4   9 6942.28 989.131  52
   1  -4   9 7693.02 995.879  10
  -1  -4  -9 7633.36 1238.58  12
  -1  -4  -9 8122.41 1078.62  11
  -1  -4 -10 4451.42 741.435  15
   1  -4  10 5062.14 900.236  16
   1  -4  10 4332.84 894.201  13
  -1  -4 -10 4562.90 799.012  14
  -1  -4 -10 5108.42 885.827  19
   1  -4  10 4864.25 813.444  10
  -1  -4 -10 3799.34 889.474  12
  -1  -4 -10 4166.52 785.157  11
   1  -4  10 5673.75 875.127  52
  -1  -4 -10 5572.09 908.632  49
  -1  -4 -11 3597.98 710.486  14
   1  -4  11 3583.57 749.089  16
  -1  -4 -11 3991.33 688.296  15
  -1  -4 -11 3811.52 752.946  19
   1  -4  11 4828.17 901.774  13
   1  -4  11 4087.44 823.045  63
   1  -4  11 3830.80 712.233  10
  -1  -4 -11 4165.89 785.673  11
  -1  -4 -11 3072.89 787.105  12
  -1  -4 -11 3405.85 699.467  49
   1  -4  11 4582.50 764.158  52
   1  -4  12 7873.53 1012.01  10
  -1  -4 -12 7890.57 1212.30  12
  -1  -4 -12 7486.31 1010.23  11
   1  -4  12 10366.0 1263.66  63
   1  -4  12 8782.98 1154.89  16
  -1  -4 -12 7832.72 1023.03  14
   1  -4  12 6979.16 1077.67  13
  -1  -4 -12 7643.89 957.827  15
  -1  -4 -12 7484.28 1037.76  19
   1  -4  13 27326.5 1998.64  63
  -1  -4 -13 27285.7 1912.10  11
  -1  -4 -13 21249.1 1898.61  12
   1  -4  13 20642.6 1654.36  10
  -1  -4 -13 27880.1 1730.96   4
   1  -4  13 23971.3 1884.40  16
  -1  -4 -13 26243.7 1910.23  19
  -1  -4 -13 24075.3 1781.57  14
   1  -4  14 27335.0 1913.91  63
   1  -4  14 27400.2 1795.90  10
  -1  -4 -14 25077.9 1764.90  11
  -1  -4 -14 30617.9 1693.69   4
  -1  -4 -14 28371.6 1839.31  14
   1  -4  14 26934.4 1894.51  16
  -1  -4 -14 28557.7 1900.06  19
   1  -4  15 19617.3 1378.20  10
  -1  -4 -15 20408.8 1475.41  19
   1  -4  15 21796.5 1544.21  16
  -1  -4 -15 20304.5 1428.41  14
   1  -4  16 4826.12 595.658  10
  -1  -4 -16 5718.04 674.526  19
   1  -4  16 4174.52 589.260  16
  -1  -4 -16 4402.69 565.258  14
   1  -4  17 3369.78 404.410  10
  -1  -4 -17 4245.81 498.127  19
   1  -4  17 3915.51 471.040  16
  -1  -3  19 5796.53 550.076  10
   1  -3 -19 4633.71 533.061  19
  -1  -3  18 17027.2 1195.96  10
   1  -3 -18 16579.3 1228.02  19
   1  -3 -18 18984.5 1441.62  23
   1  -3 -18 16893.4 1251.76  14
  -1  -3  18 15097.8 1029.01  16
  -1  -3  17 22764.9 1572.20  10
   1  -3 -17 21673.6 1566.39  19
   1  -3 -17 19271.1 1531.87  14
  -1  -3  17 19185.0 1383.99  16
  -1  -3  16 10656.9 1023.55  63
  -1  -3  16 10562.9 1129.77  16
   1  -3 -16 12273.9 1291.08  14
  -1  -3  16 13789.0 1311.79  10
   1  -3 -16 14032.0 1244.02  11
   1  -3 -16 12557.5 1282.19  19
   1  -3 -15 507.345 362.502  15
   1  -3 -15 935.874 388.405  14
  -1  -3  15 1098.39 395.954  16
   1  -3 -15 1000.22 310.901  41
   1  -3 -15 885.146 401.554  12
  -1  -3  15 699.794 346.997  10
   1  -3 -15 1147.06 362.069  11
  -1  -3  15 1065.53 358.590  63
  -1  -3  14 241.555 212.021  63
   1  -3 -14 211.471 185.629  49
   1  -3 -14-45.0519 176.863  14
  -1  -3  14 254.436 210.555  16
   1  -3 -14 49.5321 150.641  15
  -1  -3  14 369.052 244.853  13
   1  -3 -14 308.239 180.385  41
   1  -3 -14 454.568 301.571  12
   1  -3 -14 195.961 228.178  11
  -1  -3  14 523.376 306.218  10
   1  -3 -14 409.220 185.497   4
   1  -3 -13 19996.0 1578.64  41
   1  -3 -13 18813.5 1878.22  49
  -1  -3  13 24667.8 1901.35  63
  -1  -3  13 24568.8 2179.68  13
  -1  -3  13 20454.1 1752.32  16
   1  -3 -13 19425.7 1770.80  14
   1  -3 -13 18498.8 1836.60  15
   1  -3 -13 23667.1 1809.52  11
  -1  -3  13 22948.8 1861.18  10
   1  -3 -13 24488.3 2344.78  12
   1  -3 -13 22716.0 1525.63   4
   1  -3 -12 34106.2 2099.03  41
   1  -3 -12 33183.5 2499.88  49
  -1  -3  12 40616.9 2550.68  63
  -1  -3  12 32707.5 2268.06  16
  -1  -3  12 39948.6 2850.07  13
   1  -3 -12 32059.1 2304.61  14
   1  -3 -12 31772.7 2423.60  15
   1  -3 -12 39576.1 2356.63  11
  -1  -3  12 38320.0 2410.68  10
   1  -3 -12 37543.1 2952.55  12
   1  -3 -12 39016.5 2056.35   4
   1  -3 -11 39945.4 2703.62  49
  -1  -3  11 45528.6 2718.37  63
   1  -3 -11 37460.6 2589.34  15
  -1  -3  11 51582.7 3236.41  13
  -1  -3  11 39059.6 2470.44  16
   1  -3 -11 41321.9 2590.79  14
  -1  -3  11 45757.8 2597.92  10
   1  -3 -11 50870.7 2645.81  11
   1  -3 -11 44740.5 3212.71  12
   1  -3 -11 51115.4 2341.75   4
  -1  -3  10 15878.9 1438.41  16
  -1  -3  10 18502.3 1835.83  13
   1  -3 -10 14100.6 1487.37  15
   1  -3 -10 15079.0 1451.43  14
  -1  -3  10 13508.2 1415.91  63
   1  -3 -10 15944.2 1841.30  12
   1  -3 -10 16081.8 1390.92  11
  -1  -3  10 17283.3 1466.04  10
  -1  -3  10 13612.7 1157.26  52
   1  -3 -10 16407.8 1617.29  49
  -1  -3   9 21900.6 1602.20  16
   1  -3  -9 19064.5 1665.03  15
   1  -3  -9 17724.5 1529.23  14
  -1  -3   9 20734.4 1750.94  63
   1  -3  -9 17994.2 1888.71  12
  -1  -3   9 20919.8 1546.61  10
   1  -3  -9 18752.5 1473.13  11
   1  -3  -9 18456.6 1666.93  49
  -1  -3   9 18826.2 1334.47  52
  -1  -3   8 11964.1 1141.03  16
   1  -3  -8 11606.4 1242.64  15
   1  -3  -8 11713.4 1184.04  14
  -1  -3   8 10562.7 1205.69  63
   1  -3  -8 13328.8 1382.04  57
   1  -3  -8 12063.1 1348.49  58
   1  -3  -8 11773.8 1282.72  49
   1  -3  -8 12515.0 1131.21  11
   1  -3  -8 12493.1 1496.58  12
   1  -3  -7 6427.51 810.577  14
   1  -3  -7 6267.01 870.477  15
  -1  -3   7 6620.74 996.143  13
   1  -3  -7 6761.25 908.636  49
   1  -3  -7 6352.28 1041.14  12
   1  -3  -7 6150.25 749.170  11
   1  -3  -6 10106.4 1000.11  14
   1  -3  -6 9950.50 1072.29  15
  -1  -3   6 10416.7 1201.24  13
  -1  -3   6 9352.44 763.312  51
   1  -3  -6 9195.67 1033.71  49
   1  -3  -6 9697.39 892.052  11
   1  -3  -6 12029.8 1328.99  12
  -1  -3   5 33378.3 2140.41  13
  -1  -3   5 30424.1 1446.71  51
   1  -3  -5 32819.6 1934.83  49
   1  -3  -5 30702.4 1591.22  11
  -1  -3   4 150286. 5034.06  13
   1  -3  -4 146344. 4598.54  13
  -1  -3   4 127244. 3859.12  51
   1  -3  -4 136313. 4628.93  49
   1  -3  -4 139573. 4086.14  11
   1  -3  -3 153286. 4856.82  13
  -1  -3   3 154230. 5086.19  13
   1  -3  -3 147896. 4785.23  49
   1  -3  -3 143561. 4206.58  11
   1  -3  -3 160967. 5244.20  12
  -1  -3   2 2848.37 531.128  13
   1  -3  -2 2657.14 497.886  13
  -1  -3   2 1821.51 310.381  50
   1  -3  -2 1875.30 417.775  49
   1  -3  -2 2914.46 573.675  12
  -1  -3   1 1536.65 382.776  13
   1  -3  -1 1173.18 341.196  13
  -1  -3   1 1072.03 303.031  43
  -1  -3   1 906.749 222.511  50
  -1  -3   1 873.686 117.652  45
   1  -3  -1 1267.72 380.395  12
   1  -3   0 1952.80 448.832  13
  -1  -3   0 2553.14 466.542  13
  -1  -3   0 1888.91 407.462  43
   1  -3   0 2085.09 407.306  50
   1  -3   0 2154.63 465.377  12
   1  -3   1 6686.65 835.067  13
  -1  -3  -1 6381.80 702.459  13
  -1  -3  -1 7297.24 803.360  43
  -1  -3  -1 6719.91 637.384  49
   1  -3   1 5670.64 667.832  50
   1  -3   1 7549.94 850.806  12
  -1  -3  -2 96771.8 3043.65  13
   1  -3   2 94856.8 3612.13  13
  -1  -3  -2 85734.8 3527.14  12
   1  -3   2 89119.8 3319.10  12
  -1  -3  -2 86411.0 3323.11  43
   1  -3   2 74118.4 2946.36  50
  -1  -3  -2 82632.1 2872.75  49
   1  -3   3 138304. 4677.17  13
  -1  -3  -3 137940. 3758.45  13
   1  -3   3 125008. 4247.21  63
   1  -3   3 130203. 4229.60  12
  -1  -3  -3 131195. 4581.79  12
   1  -3   3 123544. 3995.44  50
  -1  -3  -3 121756. 3872.42  49
   1  -3   3 113204. 3134.87  43
   1  -3   4 87047.0 3489.79  13
   1  -3   4 83450.2 3254.24  63
   1  -3   4 75211.6 2849.84  51
   1  -3   4 63370.9 1991.16  43
  -1  -3  -4 82710.8 2914.68  49
   1  -3   4 66583.7 2901.22  12
  -1  -3  -4 87959.0 3506.53  12
   1  -3   5 17673.4 1425.53  63
  -1  -3  -5 17603.7 1306.54  11
  -1  -3  -5 17566.0 1517.88  12
   1  -3   5 17492.2 1253.77  51
   1  -3   6 29686.4 1900.46  16
   1  -3   6 29972.9 2059.00  13
  -1  -3  -6 27440.7 1661.07  14
   1  -3   6 30004.0 1976.12  63
  -1  -3  -6 27780.9 1749.28  11
  -1  -3  -6 32831.6 2150.40  12
   1  -3   6 29462.3 1729.52  51
   1  -3   7 1599.58 453.598  16
  -1  -3  -7 1760.23 407.065  15
  -1  -3  -7 1614.50 387.089  14
   1  -3   7 1653.37 496.046  13
   1  -3   7 1349.27 522.447  58
   1  -3   7 2182.41 571.471  57
  -1  -3  -7 1910.11 548.488  12
  -1  -3  -7 1466.24 412.489  11
   1  -3   7 1595.48 405.592  10
   1  -3   7 1557.78 387.076  51
  -1  -3  -8 9506.18 994.670  15
  -1  -3  -8 7651.30 914.359  14
   1  -3   8 8510.13 1131.80  13
   1  -3   8 7626.24 1010.95  16
   1  -3   8 9505.74 1173.99  58
   1  -3   8 8343.06 1001.45  10
  -1  -3  -8 7325.92 1082.83  12
   1  -3   8 9203.39 973.904  51
  -1  -3  -8 7464.81 908.443  47
  -1  -3  -9 33746.5 2117.42  15
   1  -3   9 36779.0 2423.05  16
   1  -3   9 42106.5 2667.98  13
  -1  -3  -9 37503.4 2212.33  14
  -1  -3  -9 37292.2 2273.33  19
   1  -3   9 43803.9 2632.91  63
  -1  -3  -9 41691.4 2672.44  12
   1  -3   9 40884.3 2421.87  10
   1  -3   9 40316.5 2329.01  52
  -1  -3  -9 38483.0 2256.04  47
   1  -3  10 38289.8 2520.06  16
  -1  -3 -10 36923.0 2283.39  14
  -1  -3 -10 35508.7 2238.05  15
  -1  -3 -10 36191.1 2327.48  19
   1  -3  10 48076.9 2875.45  13
   1  -3  10 51803.5 2892.31  63
   1  -3  10 42231.6 2547.92  10
  -1  -3 -10 41511.6 2771.53  12
  -1  -3 -10 37378.6 2318.87  47
   1  -3  10 39447.7 2377.48  52
   1  -3  11 35643.2 2491.75  16
  -1  -3 -11 39611.3 2417.44  14
  -1  -3 -11 37161.8 2411.46  19
   1  -3  11 42247.6 2742.93  13
  -1  -3 -11 35946.5 2311.39  15
   1  -3  11 40200.1 2544.94  10
  -1  -3 -11 36571.3 2661.19  12
  -1  -3 -11 35859.4 2350.73  47
   1  -3  11 41128.5 2447.48  52
  -1  -3 -12 16904.3 1572.11  14
   1  -3  12 16653.3 1690.63  16
  -1  -3 -12 20194.1 1746.67  19
  -1  -3 -12 17850.1 1581.57  15
   1  -3  12 19632.7 1813.00  13
   1  -3  12 20696.7 1854.24  63
   1  -3  12 17763.8 1690.14  10
  -1  -3 -12 19785.5 1911.72  12
  -1  -3 -12 17167.5 1574.89  47
   1  -3  12 19732.1 1677.40  52
  -1  -3 -13 6801.80 984.853  14
   1  -3  13 7649.06 1059.82  13
   1  -3  13 6610.19 1062.51  16
  -1  -3 -13 7503.83 1057.07  19
  -1  -3 -13 7550.44 1022.15  15
   1  -3  13 7460.98 1117.42  63
  -1  -3 -13 8460.49 1190.76  12
   1  -3  13 7315.98 1082.73  10
  -1  -3 -13 8508.81 1111.36  47
   1  -3  13 7771.85 999.211  52
  -1  -3 -14 8100.66 1013.77   4
  -1  -3 -14 7779.60 1043.31  14
   1  -3  14 7662.91 1110.77  16
   1  -3  14 7170.94 1043.94  63
   1  -3  14 7050.87 1054.37  10
  -1  -3 -14 7760.15 1057.44  19
  -1  -3 -15 12448.4 1214.64   4
   1  -3  15 11056.9 1282.18  16
  -1  -3 -15 10466.5 1197.56  14
   1  -3  15 10293.0 1189.28  63
   1  -3  15 11144.1 1272.91  10
  -1  -3 -15 10780.9 1229.47  19
  -1  -3 -16 14480.3 1198.26   4
   1  -3  16 11510.2 1163.87  63
  -1  -3 -16 10437.1 1132.63  14
   1  -3  16 11540.4 1248.76  16
   1  -3  16 11182.4 1200.84  10
  -1  -3 -16 12716.4 1246.16  19
  -1  -3 -17 40616.0 1863.15   4
  -1  -3 -17 26040.4 1637.08  41
   1  -3  17 38396.0 2115.29  16
   1  -3  17 21996.7 1570.59  63
   1  -3  17 38473.0 2077.28  10
  -1  -3 -17 41408.9 2119.03  19
   1  -3  18 1380.37 340.828  10
  -1  -3 -18 1466.06 296.062   4
  -1  -3 -18 1602.50 372.960  19
   1  -3  18 1816.65 395.515  16
   1  -3  19 10826.1 764.133  10
  -1  -3 -19 11415.3 785.631  19
   1  -3  19 11475.1 797.332  16
   1  -2 -20 4999.89 498.891  41
  -1  -2  20 8331.41 743.351  10
   1  -2 -20 7272.28 677.426  19
  -1  -2  20 6037.56 566.376  16
   1  -2 -19 2621.91 474.767  41
  -1  -2  19 3260.75 566.771  10
   1  -2 -19 2940.63 524.289  19
  -1  -2  19 3055.95 510.283  16
   1  -2 -18 3579.35 626.645  41
  -1  -2  18 3677.60 644.582  16
  -1  -2  18 4578.23 742.493  10
   1  -2 -18 3782.05 658.432  19
  -1  -2  17 956.621 371.298  16
   1  -2 -17 1369.09 445.855  19
   1  -2 -17 1423.25 448.748  41
  -1  -2  17 1965.50 525.730  10
   1  -2 -17 1486.66 418.803  11
   1  -2 -17 1504.44 390.168   4
   1  -2 -16 22723.3 1847.42  19
   1  -2 -16 21730.9 1803.60  41
  -1  -2  16 17943.0 1664.49  16
   1  -2 -16 20763.4 2142.32  37
  -1  -2  16 21566.8 1858.42  10
   1  -2 -16 20840.3 1736.12  11
   1  -2 -16 19630.5 1507.18   4
   1  -2 -15 43140.6 2361.19   4
   1  -2 -15 37702.7 2627.93  47
   1  -2 -15 49259.5 2841.48  41
  -1  -2  15 37909.0 2213.48  63
  -1  -2  15 35834.9 2499.95  13
  -1  -2  15 42941.0 2696.26  16
  -1  -2  15 39297.3 2132.21   9
  -1  -2  15 44049.5 2777.74  10
   1  -2 -15 43690.2 2630.15  11
   1  -2 -15 41494.7 2626.72  19
   1  -2 -14 90093.0 4332.19  47
   1  -2 -14 119162. 4692.63  41
  -1  -2  14 106336. 4052.55  63
   1  -2 -14 79047.1 4277.76  15
   1  -2 -14 83464.8 4682.19  12
  -1  -2  14 100707. 4547.33  13
  -1  -2  14 91314.6 4254.10  16
   1  -2 -14 88606.3 4142.79  19
   1  -2 -14 103175. 4277.58  11
   1  -2 -14 101095. 3936.06   4
  -1  -2  14 92944.8 3638.51   1
   1  -2 -13 25118.9 2061.26  47
  -1  -2  13 27373.0 1930.71  63
   1  -2 -13 26676.4 2033.43  19
  -1  -2  13 31464.5 2363.86  13
  -1  -2  13 27131.3 2092.99  16
   1  -2 -13 24747.6 2147.51  15
   1  -2 -13 32134.2 2148.66  11
   1  -2 -13 25423.9 2455.92  12
  -1  -2  13 25514.6 1668.79   1
   1  -2 -13 31920.7 1963.30   4
   1  -2 -12 1006.35 401.938  47
  -1  -2  12 900.975 355.407  63
   1  -2 -12 989.402 383.409  19
  -1  -2  12 1106.78 423.127  16
  -1  -2  12 1352.52 505.461  13
   1  -2 -12 749.541 386.189  15
   1  -2 -12 884.477 376.344  11
   1  -2 -12 1331.84 572.533  12
   1  -2 -12 1451.85 396.906   4
  -1  -2  12 794.821 281.241   1
  -1  -2  11 857.152 281.813  52
  -1  -2  11 890.374 332.677  44
   1  -2 -11 1172.71 409.814  47
  -1  -2  11 871.183 331.712  63
   1  -2 -11 984.452 358.486  19
  -1  -2  11 1141.60 442.252  13
   1  -2 -11 776.586 347.638  15
  -1  -2  11 895.719 335.513  16
   1  -2 -11 1018.69 466.360  12
   1  -2 -11 1297.88 404.256  11
  -1  -2  11 1201.69 322.790   1
   1  -2 -11 1511.98 372.184   4
  -1  -2  10 29188.9 1607.89  52
  -1  -2  10 28078.3 1902.50  44
   1  -2 -10 27385.7 1946.06  47
  -1  -2  10 29156.4 1896.39  63
   1  -2 -10 26208.8 1922.41  15
  -1  -2  10 26934.3 1858.44  16
   1  -2 -10 26967.2 1824.57  19
  -1  -2  10 33748.5 2253.95  13
   1  -2 -10 30272.0 1857.54  11
   1  -2 -10 31634.6 2362.91  12
  -1  -2  10 28379.9 1524.25   1
   1  -2 -10 33365.0 1795.33   4
   1  -2  -9 19338.7 1520.45  47
  -1  -2   9 19842.2 1245.92  52
  -1  -2   9 20537.3 1553.28  44
  -1  -2   9 21641.0 1562.50  63
   1  -2  -9 18568.9 1056.19  60
   1  -2  -9 17845.0 1477.15  15
   1  -2  -9 20644.2 1483.44  19
  -1  -2   9 21959.9 1760.96  13
   1  -2  -9 18801.4 1758.68  12
   1  -2  -9 19941.8 1404.96  11
  -1  -2   9 21583.2 1203.32   1
  -1  -2   8 119036. 3658.16  52
   1  -2  -8 117024. 4179.34  47
  -1  -2   8 118516. 4285.99  44
  -1  -2   8 107889. 4052.53  63
   1  -2  -8 131407. 4140.96  58
   1  -2  -8 110906. 3271.30  60
  -1  -2   8 133313. 4676.94  13
   1  -2  -8 127074. 4810.70  12
   1  -2  -8 119678. 3958.23  11
  -1  -2   8 124109. 3503.58   1
   1  -2  -7 55259.9 2430.33  47
  -1  -2   7 45088.9 2350.28  44
   1  -2  -7 54849.2 2770.80  12
   1  -2  -7 53784.9 2207.07  11
  -1  -2   7 54273.3 1840.96   1
   1  -2  -7 50345.1 1669.46  60
   1  -2  -7 53826.1 2490.73  57
   1  -2  -7 49104.0 2485.02  58
   1  -2  -6 167531. 4814.38  47
  -1  -2   6 157202. 4955.83  44
   1  -2  -6 146080. 3712.65  60
   1  -2  -6 155508. 4429.04  11
   1  -2  -6 177689. 5391.06  12
  -1  -2   6 159054. 3954.99   1
  -1  -2   5 15755.4 1206.62  13
  -1  -2   5 13529.0 659.150   1
   1  -2  -5 15307.7 939.185  11
   1  -2  -5 15539.9 1246.84  12
  -1  -2   5 13525.9 1110.42  44
   1  -2  -5 13640.8 1019.97  47
  -1  -2   5 15316.2 795.326  51
   1  -2  -4 7938.30 744.512  13
  -1  -2   4 8246.22 821.963  13
  -1  -2   4 7446.37 403.357   1
   1  -2  -4 8183.73 626.615  11
  -1  -2   4 7990.35 534.140  51
  -1  -2   3 35989.5 1735.16  13
   1  -2  -3 35438.5 1662.97  13
  -1  -2   3 30699.3 895.286   1
   1  -2  -3 35688.4 1411.48  45
  -1  -2   3 33351.2 1718.19  44
   1  -2  -3 38628.5 1664.18  49
   1  -2  -3 34329.4 1326.28  11
   1  -2  -2 132352. 3752.17  13
  -1  -2   2 132266. 3798.66  13
   1  -2  -2 124514. 3608.04  49
  -1  -2   2 126092. 2910.22  45
  -1  -2   2 110606. 3742.71  44
   1  -2  -2 112982. 3139.55  45
  -1  -2   2 102536. 2959.32  50
   1  -2  -2 134242. 3889.98  12
   1  -2  -1 325555. 7388.36  13
  -1  -2   1 315592. 7290.81  13
   1  -2  -1 308811. 7192.32  49
   1  -2  -1 316908. 7403.11  12
   1  -2   0 156571. 4214.30  13
  -1  -2   0 141175. 3921.91  13
  -1  -2   0 132336. 4083.41  44
  -1  -2   0 129848. 3483.95  49
   1  -2   0 151417. 4111.74  12
  -1  -2  -1 76683.7 2389.58  13
   1  -2   1 85880.1 2795.28  13
   1  -2   1 69742.5 2397.90  50
  -1  -2  -1 65679.6 2461.23  43
  -1  -2  -1 78762.2 2245.38  49
   1  -2   1 73474.7 2537.22  12
  -1  -2  -2 102082. 2706.17  13
   1  -2   2 101391. 3268.96  13
  -1  -2  -3 5179.72 400.319  13
   1  -2   3 5127.96 605.932  63
  -1  -2  -3 5553.62 648.333  12
   1  -2   3 5543.04 547.255  50
  -1  -2  -3 5669.15 490.126  47
   1  -2   4 4450.61 576.175  63
  -1  -2  -4 3373.46 513.507  12
  -1  -2  -4 3348.83 409.102  47
   1  -2   4 3977.07 472.727  51
   1  -2   5 143048. 4612.63  13
   1  -2   5 134024. 3785.53   1
   1  -2   5 144306. 4215.02  51
  -1  -2  -5 145649. 4162.49  47
  -1  -2  -6 52007.9 2113.90  47
   1  -2   6 53072.1 2117.82  51
   1  -2   6 46350.8 2439.33  58
   1  -2   6 44142.3 2317.19  57
   1  -2   6 52928.9 2432.25  13
  -1  -2  -6 55242.8 2434.12  12
  -1  -2  -6 51232.7 2163.87  11
   1  -2   6 46242.0 1786.19   1
   1  -2   7 136423. 4329.18  51
  -1  -2  -7 141042. 4434.80  47
   1  -2   7 157631. 4864.32  58
   1  -2   7 155659. 4872.24  63
   1  -2   7 132826. 4754.58  13
  -1  -2  -7 153860. 4587.06  11
  -1  -2  -7 165631. 4965.61  12
   1  -2   7 132500. 4002.16   1
  -1  -2  -8 58131.3 2224.41  46
   1  -2   8 60616.0 2614.78  52
  -1  -2  -8 56428.3 2530.23  47
   1  -2   8 46105.9 2280.58  58
   1  -2   8 68279.3 2924.20  63
   1  -2   8 61668.3 2886.16  13
  -1  -2  -8 60308.9 2608.06  11
  -1  -2  -8 62415.3 2838.00  12
   1  -2   8 53087.7 2175.87   1
  -1  -2  -9 23156.5 1596.48  47
   1  -2   9 23136.9 1562.40  52
  -1  -2  -9 19805.3 1178.67  46
   1  -2   9 26904.5 1811.86  63
  -1  -2  -9 20254.8 1446.17  14
   1  -2   9 19715.2 1586.79  16
  -1  -2  -9 18367.2 1414.92  19
   1  -2   9 23641.5 1731.84  13
   1  -2   9 21135.1 1618.12  10
  -1  -2  -9 22360.6 1682.04  12
  -1  -2  -9 20260.6 1491.73  11
   1  -2   9 19730.6 1275.03   1
  -1  -2 -10 3831.11 680.197  47
   1  -2  10 4341.86 697.740  52
   1  -2  10 4541.40 768.138  63
   1  -2  10 3419.54 681.129  16
  -1  -2 -10 2740.62 532.960  14
  -1  -2 -10 3833.87 628.970  15
  -1  -2 -10 2894.39 581.464  19
   1  -2  10 4079.00 725.209  13
   1  -2  10 4350.24 734.907  10
   1  -2  10 3528.06 563.038   9
  -1  -2 -10 3246.08 642.672  11
  -1  -2 -10 2966.95 646.921  12
   1  -2  10 3326.55 530.677   1
   1  -2  11 1095.67 374.911  52
  -1  -2 -11 1029.07 400.122  47
   1  -2  11 1664.22 485.248  63
  -1  -2 -11 1769.23 389.248  60
   1  -2  11 1723.84 483.248  13
  -1  -2 -11 1330.77 417.767  19
   1  -2  11 969.557 395.485  16
  -1  -2 -11 1571.57 449.967  14
  -1  -2 -11 1562.54 419.235  15
   1  -2  11 1270.76 449.392  10
  -1  -2 -11 1398.23 488.261  11
  -1  -2 -11 1616.15 467.229  12
   1  -2  11 1578.56 392.903   9
   1  -2  11 1538.97 388.552   1
   1  -2  12 18215.1 1300.49  53
   1  -2  12 16469.9 1500.61  52
  -1  -2 -12 16952.7 1582.99  47
   1  -2  12 23012.6 1830.77  63
  -1  -2 -12 14883.2 1280.41  60
  -1  -2 -12 16987.4 1536.14  14
   1  -2  12 18068.6 1716.18  16
  -1  -2 -12 17796.3 1584.53  19
  -1  -2 -12 16339.5 1522.07  15
   1  -2  12 19304.4 1633.66  13
   1  -2  12 18928.6 1736.37  10
  -1  -2 -12 19012.9 1632.03  11
  -1  -2 -12 18072.5 1656.17  12
   1  -2  12 16640.4 1395.58   9
   1  -2  12 16598.4 1334.36   1
  -1  -2 -13 64090.9 3365.47  47
   1  -2  13 63569.1 2687.10  53
   1  -2  13 68944.0 3280.60  52
   1  -2  13 70816.3 3472.57  63
  -1  -2 -13 63448.7 3273.89  14
   1  -2  13 61862.0 3464.43  16
  -1  -2 -13 65129.8 3317.91  19
   1  -2  13 66166.4 3174.96  13
   1  -2  13 69096.9 3608.78  10
  -1  -2 -13 68385.3 3377.04  11
   1  -2  13 63105.3 2999.60   9
   1  -2  13 60442.0 2877.46   1
  -1  -2 -14 69100.7 3269.34   4
   1  -2  14 52494.2 2680.00   1
  -1  -2 -14 57267.8 3205.80  47
   1  -2  14 60770.1 3224.98  63
  -1  -2 -14 54552.7 3077.29  14
   1  -2  14 57612.6 3309.81  16
  -1  -2 -14 58482.2 3139.00  11
   1  -2  14 62008.1 3407.38  10
   1  -2  14 55395.5 2820.17   9
  -1  -2 -14 56929.5 3132.21  19
   1  -2  15 20512.4 1524.81   1
  -1  -2 -15 25610.7 1912.11   4
  -1  -2 -15 21986.0 1889.79  47
   1  -2  15 20340.9 1752.67  63
  -1  -2 -15 22415.7 1840.91  11
   1  -2  15 22947.3 1971.79  10
   1  -2  15 21527.3 1646.67   9
  -1  -2 -15 23253.7 1910.16  19
  -1  -2 -15 22973.9 1856.04  14
   1  -2  15 19927.1 1877.06  16
  -1  -2 -16 12560.9 1269.31   4
   1  -2  16 10285.4 1173.29  63
  -1  -2 -16 11326.4 1274.28  11
   1  -2  16 11489.7 1342.79  10
   1  -2  16 11659.6 1146.17   9
  -1  -2 -16 11603.0 1280.42  19
   1  -2  16 11813.5 1362.85  16
  -1  -2 -16 10402.7 1235.95  14
  -1  -2 -17 2425.41 532.876   4
   1  -2  17 2433.62 581.342  16
   1  -2  17 1305.05 404.785  63
   1  -2  17 2283.58 570.653  10
  -1  -2 -17 2488.18 535.130  11
   1  -2  17 1701.02 405.727   9
  -1  -2 -17 2402.58 556.725  19
   1  -2  18 407.413 178.941  63
   1  -2  18 417.875 244.598  16
  -1  -2 -18 408.051 246.496  19
  -1  -2 -18 165.166 209.189  41
   1  -2  18 550.718 263.439  10
   1  -2  18 534.441 195.122   9
  -1  -2 -18 300.253 208.972   4
  -1  -2 -19 8715.71 856.697  19
   1  -2  19 7790.33 839.791  16
  -1  -2 -19 6966.31 773.838  41
   1  -2  19 8903.86 883.369  10
  -1  -2 -19 8512.42 776.383   4
   1  -2  20 13428.2 899.344  16
  -1  -2 -20 13693.7 880.238  19
  -1  -2 -20 12784.7 749.236   4
   1  -1 -21 1195.39 266.936  41
  -1  -1  21 1461.28 262.183  16
   1  -1 -21 1258.89 249.784  19
   1  -1 -20 11791.6 982.007  19
  -1  -1  20 11487.2 989.710  16
   1  -1 -20 13018.8 1064.24  41
  -1  -1  20 11114.7 781.625   9
   1  -1 -20 10073.2 799.143   4
   1  -1 -19 19932.6 1493.37  19
  -1  -1  19 19406.2 1515.03  16
   1  -1 -19 22596.8 1650.98  41
  -1  -1  19 18790.1 1266.69   9
   1  -1 -19 18061.4 1315.63   4
   1  -1 -18 34719.4 2212.68  19
  -1  -1  18 36061.6 2309.11  16
   1  -1 -18 40877.2 2504.14  41
  -1  -1  18 40000.3 2461.35  10
   1  -1 -18 32733.1 2164.42  11
  -1  -1  18 34628.7 1986.81   9
   1  -1 -18 33799.7 2049.29   4
   1  -1 -17 16879.9 1599.90  19
   1  -1 -17 23682.3 1977.36  41
  -1  -1  17 19763.6 1774.83  16
  -1  -1  17 19498.5 1539.92   9
  -1  -1  17 20271.4 1823.01  10
   1  -1 -17 18248.8 1664.88  11
   1  -1 -17 17114.6 1497.54   4
   1  -1 -16 12533.4 1395.70  19
   1  -1 -16 10775.4 1355.73  47
   1  -1 -16 13863.8 1574.36  41
   1  -1 -16 13416.3 1768.23  37
  -1  -1  16 12703.4 1258.93   9
   1  -1 -16 11013.0 1308.02  11
  -1  -1  16 12030.5 1229.49   1
   1  -1 -16 12079.2 1293.17   4
   1  -1 -15 2046.33 576.569  19
   1  -1 -15 1500.62 423.165  60
   1  -1 -15 1837.11 673.202  37
   1  -1 -15 1896.03 607.134  41
   1  -1 -15 1473.27 486.066  11
  -1  -1  15 1743.19 480.867   9
  -1  -1  15 1410.61 413.520   1
   1  -1 -15 2084.70 536.986   4
   1  -1 -14 6887.79 951.110   4
  -1  -1  14 6464.87 873.671   1
  -1  -1  14 5407.62 868.890  13
   1  -1 -14 6298.01 889.916  60
   1  -1 -14 7441.93 1367.96  37
   1  -1 -14 6613.39 984.432  11
  -1  -1  14 6088.06 861.471   9
   1  -1 -14 6152.91 959.911  19
   1  -1 -13 28838.9 1934.54   4
  -1  -1  13 27993.3 1811.09   1
   1  -1 -13 29878.2 1927.43  60
  -1  -1  13 25229.7 1648.30  63
   1  -1 -13 25044.4 2095.55  15
  -1  -1  13 27675.5 2052.53  13
   1  -1 -13 19971.5 2052.62  12
   1  -1 -13 36592.5 3184.64  36
   1  -1 -13 30082.9 2066.12  11
  -1  -1  13 28059.0 1846.48   9
   1  -1 -13 27805.3 2011.95  19
   1  -1 -12 59687.4 2762.94  60
  -1  -1  12 67324.4 2774.95  63
  -1  -1  12 47895.9 2415.88  44
   1  -1 -12 58614.9 2960.08  19
   1  -1 -12 56217.1 3366.67  12
   1  -1 -12 55951.7 3085.99  15
  -1  -1  12 63328.8 3157.49  13
   1  -1 -12 74009.0 4514.92  36
   1  -1 -12 65432.7 3051.76  11
  -1  -1  12 62948.3 2794.58   9
   1  -1 -12 67430.7 2965.22   4
  -1  -1  12 63198.4 2747.77   1
  -1  -1  11 103697. 3536.90  63
   1  -1 -11 81359.9 3300.92  60
  -1  -1  11 81524.9 3300.69  44
   1  -1 -11 79287.4 3689.77  15
  -1  -1  11 87685.8 3799.52  13
   1  -1 -11 83192.3 3534.60  19
   1  -1 -11 105099. 5363.78  36
   1  -1 -11 93323.9 4294.72  12
   1  -1 -11 101953. 3795.69  11
  -1  -1  11 90807.5 3412.46   9
  -1  -1  11 92566.3 3352.93   1
   1  -1 -11 113561. 3802.84   4
  -1  -1  10 33422.1 1883.70  44
   1  -1 -10 39553.2 1951.52  60
  -1  -1  10 41683.3 1996.64  63
  -1  -1  10 41456.6 2283.59  13
   1  -1 -10 36208.6 2161.58  15
   1  -1 -10 36632.3 2049.81  14
   1  -1 -10 38193.9 2037.38  19
   1  -1 -10 42614.7 2678.22  12
   1  -1 -10 47224.5 2244.81  11
  -1  -1  10 41754.1 1932.46   1
   1  -1  -9 32764.5 1690.46  60
  -1  -1   9 35571.2 1799.22  63
   1  -1  -9 40552.5 2438.77  12
   1  -1  -9 44942.1 2050.67  11
  -1  -1   9 40533.4 1772.98   1
  -1  -1   9 38897.4 1698.15  52
  -1  -1   9 37347.5 1906.05  44
   1  -1  -8 56123.8 2101.99  60
   1  -1  -8 56189.7 2260.30  11
   1  -1  -8 54665.4 2754.12  12
  -1  -1   8 53464.2 2025.13   1
  -1  -1   8 57363.9 2032.23  52
  -1  -1   7 7923.12 622.466   1
   1  -1  -7 7148.40 608.741  60
  -1  -1   7 5933.12 644.805  63
   1  -1  -7 7980.97 567.006  58
   1  -1  -7 8139.56 917.324  12
   1  -1  -7 7854.51 703.313  11
   1  -1  -7 10572.0 867.693  21
   1  -1  -7 6420.25 552.365  54
   1  -1  -7 9526.43 773.196  42
  -1  -1   7 8427.26 620.112  52
  -1  -1   6 104424. 2940.83  52
   1  -1  -6 100851. 3105.34  54
   1  -1  -6 109800. 3762.29  12
   1  -1  -6 109107. 3216.62  11
  -1  -1   6 100782. 2951.16   1
   1  -1  -6 97737.9 2969.72  60
  -1  -1   5 170244. 4273.29  52
   1  -1  -5 177871. 4555.83  11
   1  -1  -5 177126. 5106.34  12
  -1  -1   5 169125. 4311.88   1
   1  -1  -5 175806. 4339.40  60
   1  -1  -4 122057. 2717.04  46
   1  -1  -4 116771. 3219.65  11
   1  -1  -4 125755. 3753.60  12
  -1  -1   4 128834. 3095.20   1
   1  -1  -4 127842. 3080.10  60
   1  -1  -4 126287. 3689.60  58
   1  -1  -3 152920. 3823.79  47
  -1  -1   3 153815. 3322.06  51
   1  -1  -3 139888. 3330.02  46
   1  -1  -3 136613. 3347.32  60
   1  -1  -3 143753. 3541.50  11
  -1  -1   3 144624. 3393.14   1
   1  -1  -2 183412. 4426.98  13
  -1  -1   2 166582. 4017.71  45
   1  -1  -2 189574. 4254.01  45
   1  -1  -2 160824. 4241.26  47
   1  -1  -1 67966.7 1898.22  45
   1  -1  -1 70367.6 2090.77  49
   1  -1   0 13472.5 697.342  49
  -1  -1  -1 279378. 5976.49  13
  -1  -1  -1 261129. 6192.89  44
  -1  -1  -1 255922. 5814.26  47
   1  -1   1 278868. 6186.13  50
  -1  -1  -2 321804. 6405.32  44
   1  -1   2 336850. 6555.44  50
   1  -1   3 82594.9 2257.81  51
   1  -1   3 66872.8 2493.04  58
   1  -1   3 94187.7 2542.69  13
  -1  -1  -3 58033.6 2138.08  12
   1  -1   3 77999.8 2108.90   1
   1  -1   4 313642. 7075.81  51
  -1  -1  -4 287343. 7036.66  11
  -1  -1  -4 292006. 7103.92  12
   1  -1   4 295646. 6906.25   1
   1  -1   5 47060.8 1725.57  51
   1  -1   5 43657.9 1756.45  54
   1  -1   5 44953.9 1804.58  58
   1  -1   5 50660.1 1894.79  13
  -1  -1  -5 49837.1 1788.03  11
  -1  -1  -5 55103.2 1886.55  12
   1  -1   5 44917.2 1609.32   1
   1  -1   6 102534. 3282.93  42
   1  -1   6 69458.0 2508.57  54
   1  -1   6 87577.5 2788.43  52
  -1  -1  -6 88447.0 2642.51  46
   1  -1   6 87192.3 2923.79  63
   1  -1   6 84860.7 2655.28  58
   1  -1   6 73973.8 2716.42  13
  -1  -1  -6 85481.7 2791.57  12
  -1  -1  -6 81936.8 2733.59  11
   1  -1   6 81290.8 2574.19   1
   1  -1   7 32968.1 1508.33   1
   1  -1   7 34135.4 1642.40  52
   1  -1   7 30853.5 1271.14  54
  -1  -1  -7 32722.1 1457.33  46
   1  -1   7 40703.4 1801.74  42
   1  -1   7 32488.9 1352.71  58
   1  -1   7 41000.3 1872.88  63
   1  -1   7 31107.0 1605.53  13
  -1  -1  -7 34420.8 1680.62  12
  -1  -1  -7 34272.3 1638.54  11
   1  -1   7 42043.6 1928.98  21
   1  -1   8 75577.5 2835.85  52
  -1  -1  -8 73743.7 2552.58  46
   1  -1   8 73520.5 2815.03  13
  -1  -1  -8 73507.4 2871.14  12
  -1  -1  -8 75918.1 2844.53  11
   1  -1   8 70532.8 2624.41   1
  -1  -1  -9 68870.5 2524.62  46
   1  -1   9 72649.7 2899.94  52
   1  -1   9 84574.6 3172.28  63
   1  -1   9 77139.5 2917.89  13
  -1  -1  -9 73860.1 2916.30  11
  -1  -1  -9 76623.9 3013.74  12
   1  -1   9 67454.6 2680.52   1
   1  -1  10 64130.0 2764.05  52
   1  -1  10 60064.4 2397.79  53
   1  -1  10 60278.2 2595.68  13
  -1  -1 -10 56291.3 2632.18  14
  -1  -1 -10 58587.9 2703.23  19
  -1  -1 -10 61463.8 2726.30  11
  -1  -1 -10 59851.3 2784.51  12
   1  -1  10 60096.6 2654.05   9
   1  -1  10 56545.0 2524.84   1
   1  -1  11 38378.0 2149.31  52
   1  -1  11 35366.7 1807.53  53
   1  -1  11 46281.9 2411.31  63
  -1  -1 -11 34818.8 2092.82  14
  -1  -1 -11 36075.2 2148.96  19
   1  -1  11 35290.5 1958.77  13
   1  -1  11 37684.2 2117.53   9
  -1  -1 -11 38465.1 2184.66  11
  -1  -1 -11 38499.5 2214.36  12
   1  -1  11 35857.1 1992.46   1
  -1  -1 -11 37425.4 1836.01   5
   1  -1  12 67496.8 3072.14   1
  -1  -1 -12 71501.3 2760.83   5
   1  -1  12 70101.8 2828.44  53
  -1  -1 -12 83163.2 3449.97  60
   1  -1  12 89691.1 3676.82  63
   1  -1  12 71734.3 2972.35  13
  -1  -1 -12 68739.4 3289.49  14
  -1  -1 -12 79591.3 3444.83  11
   1  -1  12 71952.7 3231.46   9
  -1  -1 -12 68479.7 3287.59  19
   1  -1  13 20670.2 1597.86   1
   1  -1  13 21529.4 1419.89  53
  -1  -1 -13 18851.6 1592.29  60
   1  -1  13 22697.9 1764.71  63
  -1  -1 -13 20121.3 1702.24  14
   1  -1  13 19649.2 1621.96   9
  -1  -1 -13 23271.0 1795.25  11
  -1  -1 -13 19127.2 1665.32  19
   1  -1  14 5766.47 853.346   1
   1  -1  14 5353.60 690.480  53
   1  -1  14 5889.46 905.679  63
  -1  -1 -14 5374.17 858.904  60
  -1  -1 -14 5515.78 902.944  14
   1  -1  14 4998.39 928.172  16
  -1  -1 -14 5864.44 924.377  11
   1  -1  14 5593.10 870.585   9
  -1  -1 -14 6499.16 979.576  19
   1  -1  15 25318.8 1882.30   1
  -1  -1 -15 26451.7 1933.37   3
  -1  -1 -15 26986.6 2182.42  47
  -1  -1 -15 28050.4 1997.39  60
   1  -1  15 26750.7 2008.21  63
  -1  -1 -15 26867.2 2073.02  14
   1  -1  15 27259.7 2214.98  16
  -1  -1 -15 30012.2 2154.40  11
   1  -1  15 28977.1 2271.70  10
   1  -1  15 27004.3 1968.47   9
  -1  -1 -15 26782.3 2070.60  19
  -1  -1 -16 22602.6 1697.24   3
   1  -1  16 23820.5 1809.08   1
  -1  -1 -16 29823.3 2236.16  47
   1  -1  16 26210.1 2149.55  16
  -1  -1 -16 23205.8 1820.69  60
   1  -1  16 22953.6 1809.35  63
   1  -1  16 29909.0 2242.51  10
   1  -1  16 27548.6 1964.82   9
  -1  -1 -16 30582.9 2138.66  11
  -1  -1 -16 27770.8 2095.36  19
   1  -1  17 27448.2 2096.19  16
  -1  -1 -17 27261.5 1944.19  11
   1  -1  17 27479.3 2069.04  10
   1  -1  17 25426.2 1803.71   9
  -1  -1 -17 25447.3 1937.89  19
  -1  -1 -18 20446.2 1635.09  19
   1  -1  18 20101.4 1494.90   9
   1  -1  18 22317.7 1738.29  10
  -1  -1 -18 18928.3 1516.03  11
  -1  -1 -18 21706.1 1615.34   4
   1  -1  18 20715.3 1706.89  16
  -1  -1 -19 23681.7 1605.53  19
   1  -1  19 22531.6 1436.62   9
   1  -1  19 22815.6 1596.23  10
  -1  -1 -19 24003.5 1547.09   4
   1  -1  19 23747.2 1667.82  16
  -1  -1 -20 2009.06 392.224  19
   1  -1  20 2098.89 409.434  16
   1  -1  20 2315.54 412.262  10
   1  -1  20 1513.53 297.623   9
  -1  -1 -20 1678.20 353.375   4
  -1  -1 -21 1743.86 268.739   4
  -1   0  21 13618.8 933.775  16
   1   0 -21 13081.5 950.900  41
  -1   0  21 12310.1 783.946   9
  -1   0  21 11819.1 832.489  10
   1   0 -21 12278.3 793.237   4
   1   0 -20 4096.16 595.058  19
  -1   0  20 4031.32 621.432  16
   1   0 -20 4850.03 697.287  41
  -1   0  20 4485.35 631.844  10
  -1   0  20 4582.09 589.285   9
   1   0 -20 3079.40 516.157   4
   1   0 -19 8375.28 969.374  19
   1   0 -19 10046.2 1152.04  41
  -1   0  19 8446.20 1026.26  16
  -1   0  19 8701.13 1031.16  10
  -1   0  19 7658.03 883.727   9
   1   0 -19 9223.52 988.667   4
   1   0 -18 2012.34 532.185  19
   1   0 -18 2482.26 646.824  41
  -1   0  18 2140.31 518.031   9
  -1   0  18 1953.66 554.447  10
   1   0 -18 1883.71 518.184   4
   1   0 -17 11282.2 1404.21  41
   1   0 -17 10261.2 1226.13  19
   1   0 -17 10816.4 1570.29  37
  -1   0  17 9317.53 1128.39   9
   1   0 -17 9741.03 1187.84   4
  -1   0  17 9356.96 1079.92   1
  -1   0  16 7070.45 977.293   1
   1   0 -16 6943.94 1022.79   4
   1   0 -16 6324.16 991.126  47
   1   0 -16 8034.34 1202.53  41
   1   0 -16 5744.23 912.672  60
   1   0 -16 7621.90 1379.02  37
  -1   0  16 7110.56 1000.32   9
   1   0 -16 6665.00 1020.06  19
  -1   0  15 11835.9 1265.13   1
   1   0 -15 13039.9 1393.90   4
   1   0 -15 10804.4 1293.35  60
   1   0 -15 14260.8 1633.54  41
   1   0 -15 11654.7 1395.73  47
   1   0 -15 12355.7 1805.87  37
  -1   0  15 12231.9 1306.60   9
   1   0 -15 12949.5 1408.89  19
  -1   0  14 105878. 4163.23   1
   1   0 -14 103906. 4318.71   4
   1   0 -14 102473. 4384.07  60
   1   0 -14 93173.8 4265.21  14
  -1   0  14 96673.7 3529.48  17
   1   0 -14 108644. 5727.56  37
  -1   0  14 106671. 4278.59   9
   1   0 -14 99246.4 4302.16  19
  -1   0  13 65888.5 2975.97   1
   1   0 -13 63842.2 3126.39   4
   1   0 -13 61398.4 3108.43  60
   1   0 -13 75806.0 3694.78  41
   1   0 -13 81699.1 5166.30  36
   1   0 -13 70663.2 4396.25  37
   1   0 -13 56329.5 2992.97  19
  -1   0  13 63194.7 3016.86   9
   1   0 -13 58278.2 3056.12  14
  -1   0  13 58576.1 2864.54  13
  -1   0  13 57169.3 2454.40  17
   1   0 -12 937.572 457.261  37
   1   0 -12 2034.83 745.193  36
   1   0 -12 1330.81 414.918  19
  -1   0  12 1516.28 401.812  13
   1   0 -12 1578.93 461.101  14
  -1   0  12 1353.82 305.546  17
   1   0 -12 1031.06 366.693  60
  -1   0  12 1509.82 398.405   1
   1   0 -12 1620.63 442.488   4
   1   0 -11 640.866 397.690  36
  -1   0  11 273.466 143.947   6
   1   0 -11 341.174 180.608   4
  -1   0  11 190.483 158.475   1
   1   0 -11 171.458 113.847  61
   1   0 -11 394.304 237.826  60
   1   0 -11 259.905 161.350  14
   1   0 -11 191.459 137.271  19
   1   0 -10 36513.0 1964.27  60
   1   0 -10 33892.2 1734.30  61
  -1   0  10 32247.0 1451.42   6
  -1   0  10 36520.4 1805.65   1
  -1   0   9 2711.16 307.226   2
  -1   0   9 2906.68 368.238   6
  -1   0   9 3172.50 466.602   1
   1   0  -9 1727.24 549.422  12
   1   0  -9 2999.20 454.962  61
   1   0  -9 2963.43 488.003  60
   1   0  -8 63562.0 2850.01  12
  -1   0   8 69143.7 2057.94   6
   1   0  -8 50690.3 1554.35   5
  -1   0   8 58154.8 1802.87   2
  -1   0   8 72335.5 2378.64   1
   1   0  -8 71729.0 2383.07  61
   1   0  -8 73262.5 2545.83  60
   1   0  -7 123398. 3976.17  12
   1   0  -7 126624. 3396.22  61
  -1   0   7 118402. 2886.64   2
  -1   0   7 125980. 3348.44   1
  -1   0   7 121214. 3072.08   6
  -1   0   6 88665.6 2284.71   1
  -1   0   6 71227.7 1834.91   2
  -1   0   6 80845.6 2067.49   6
   1   0  -6 84915.0 2840.91  12
   1   0  -6 85254.1 2313.88  61
   1   0  -6 86765.8 2416.15  60
   1   0  -6 75674.2 2167.43  21
  -1   0   5 20996.0 647.304  46
   1   0  -5 17712.1 762.892  54
   1   0  -5 25382.5 1065.21  61
   1   0  -5 26409.1 1117.45  60
  -1   0   5 26660.4 881.178   2
  -1   0   5 25271.9 1018.50   1
   1   0  -5 34392.3 1370.08  21
   1   0  -5 25164.9 1346.57  12
   1   0  -4 52878.0 1693.76  11
   1   0  -4 60434.8 2025.01  42
   1   0  -4 46477.4 1525.94  54
   1   0  -4 55676.2 1712.37  61
   1   0  -4 60319.2 1778.28  60
  -1   0   4 53908.4 1492.81   2
   1   0  -4 52351.5 1379.12  31
   1   0  -3 128067. 2965.06  11
   1   0  -3 118216. 2971.09  60
   1   0  -3 129456. 3010.18  61
  -1   0   3 144301. 2875.10   2
   1   0  -3 149122. 3573.21  42
   1   0  -3 123938. 2976.80  54
   1   0  -3 118531. 2694.06  31
   1   0  -2 1721.12 193.661  60
  -1   0   2 1891.41 182.530   2
   1   0  -2 1709.97 152.027  31
   1   0  -2 2625.01 383.888  21
   1   0  -2 1964.16 222.049  45
   1   0  -2 2094.20 193.550  47
  -1   0   2 2066.41 227.039  45
   1   0  -2 2089.47 327.857  42
   1   0  -2 1701.19 220.532  54
   1   0  -2 1398.68 200.728  55
   1   0  -1 232491. 5064.79  47
   1   0  -1 229154. 5054.72  49
   1   0   0 66056.2 2073.88  58
   1   0   0 68026.0 2064.48  54
   1   0   0 75875.9 1756.98  51
   1   0   0 82002.5 1793.77  50
   1   0   0 74368.4 2041.46  55
   1   0   1 52514.9 1492.38  13
   1   0   1 61072.8 1790.95  58
   1   0   1 56949.7 1467.85  31
   1   0   1 56580.0 1488.56  51
   1   0   1 55941.5 1732.30  54
   1   0   1 59507.2 1507.52  52
   1   0   2 98478.5 2014.99  13
   1   0   2 71883.6 2074.65  43
   1   0   2 82683.1 2597.50  42
   1   0   2 75223.7 2181.52  54
   1   0   2 64087.4 2088.45  55
   1   0   2 77840.8 1912.97  31
   1   0   2 91739.1 2791.56  21
   1   0   3 25682.2 1226.10  42
   1   0   3 25643.4 960.213  54
  -1   0  -3 23700.3 892.397  48
   1   0   3 23187.6 776.746  13
   1   0   3 26330.2 753.318  31
  -1   0  -3 25854.1 912.481  11
  -1   0  -4 38428.1 1353.35  46
   1   0   4 30955.5 1104.71  54
   1   0   4 38755.8 1520.53  42
  -1   0  -4 29823.8 1165.87  48
   1   0   4 41658.3 1637.15  21
   1   0   4 26272.3 979.558  13
  -1   0  -4 29004.1 1139.66  11
   1   0   4 37318.2 1219.50   6
  -1   0  -5 150153. 4017.61  48
   1   0   5 149034. 3702.53  54
   1   0   5 164618. 4125.15  52
  -1   0  -5 147246. 4051.69  46
   1   0   5 168960. 4340.85  21
   1   0   5 137899. 3705.86  13
  -1   0  -5 157625. 4012.64  11
   1   0   5 165427. 4077.38   1
   1   0   5 175354. 4016.19   6
   1   0   6 15982.7 929.550  52
   1   0   6 11868.2 545.727  54
  -1   0  -6 15436.7 924.930  46
  -1   0  -6 14124.2 887.670  48
   1   0   6 13161.0 809.922  21
   1   0   6 11954.2 668.995  13
  -1   0  -6 15490.3 823.176  12
  -1   0  -6 15047.8 871.047  11
   1   0   6 15589.6 826.066   6
   1   0   6 13207.0 823.612   1
   1   0   7 169615. 4617.70  52
   1   0   7 172463. 4390.72  53
  -1   0  -7 164988. 4578.85  48
   1   0   7 170418. 4649.13  63
  -1   0  -7 170858. 4406.36  12
  -1   0  -7 173737. 4541.91  11
   1   0   7 152780. 4418.18   1
   1   0   7 179236. 4404.63   6
  -1   0  -7 183842. 4509.78   5
   1   0   8 26023.5 1322.83  53
   1   0   8 28899.1 1537.49  63
   1   0   8 23925.1 1133.35  13
  -1   0  -8 27464.1 1383.08  12
  -1   0  -8 29835.5 1497.87  11
   1   0   8 30675.9 1378.98   6
   1   0   8 27298.3 1443.93   1
  -1   0  -8 31045.5 1436.68   5
   1   0   9 27754.8 1463.10  53
   1   0   9 34157.3 1749.85  63
   1   0   9 23922.5 1195.87  13
  -1   0  -9 35094.1 1727.36  11
  -1   0  -9 30758.8 1525.67   5
   1   0   9 31975.2 1491.20   6
   1   0   9 31441.0 1651.43   1
   1   0  10 8817.13 896.153   1
   1   0  10 8895.00 789.551   6
  -1   0 -10 9641.24 857.809   5
  -1   0 -10 9988.23 984.300   4
   1   0  10 8002.00 769.193  53
   1   0  10 10180.3 983.470  63
  -1   0 -10 8719.00 911.745  61
   1   0  10 8677.11 916.323   9
  -1   0 -10 10546.5 976.866  11
  -1   0 -10 8738.28 909.715  19
  -1   0 -11 14850.6 1112.17   5
   1   0  11 14954.2 1080.48   6
  -1   0 -11 15703.3 1319.80   4
   1   0  11 14347.1 1228.97   1
   1   0  11 14795.9 1106.83  53
   1   0  11 14799.4 1275.86  63
  -1   0 -11 13065.9 1150.57  61
  -1   0 -11 13440.2 1239.67  14
   1   0  11 12451.4 1026.50  17
  -1   0 -11 15775.7 1282.66  11
   1   0  11 13325.5 1224.33   9
  -1   0 -11 13423.4 1250.54  19
  -1   0 -12 4649.66 755.593   4
   1   0  12 4064.94 576.622   6
  -1   0 -12 3329.58 547.418   5
   1   0  12 3530.82 636.267   1
   1   0  12 3945.18 583.952  53
   1   0  12 3806.99 685.413  63
  -1   0 -12 3941.84 735.056  60
  -1   0 -12 4017.95 632.650  61
  -1   0 -12 4402.74 717.215  11
   1   0  12 4318.12 719.833   9
  -1   0 -12 4177.05 722.070  19
  -1   0 -12 3437.11 660.171  14
   1   0  12 4265.68 612.130  17
  -1   0 -13 86945.8 3696.07   4
  -1   0 -13 76799.5 2988.16   5
   1   0  13 78881.6 3467.71   1
   1   0  13 74746.1 3404.04  63
  -1   0 -13 76984.1 3647.85  60
   1   0  13 76614.3 3713.05  10
   1   0  13 77387.0 3531.49   9
  -1   0 -13 79121.7 3508.74  11
  -1   0 -13 74585.4 3543.66  19
   1   0  13 72960.1 3049.43  17
  -1   0 -14 77010.1 3576.27   4
   1   0  14 65182.9 3263.42   1
  -1   0 -14 80193.6 3677.14   3
  -1   0 -14 69995.3 3494.01  60
   1   0  14 65634.5 3186.35  63
   1   0  14 67828.3 3528.16  10
   1   0  14 69258.6 3394.07   9
  -1   0 -14 65594.9 3286.70  11
  -1   0 -14 64885.9 3402.78  19
   1   0  14 67261.4 2932.91  17
  -1   0 -15 2267.13 581.647  60
   1   0  15 2162.90 531.335  63
   1   0  15 3153.20 718.803  10
   1   0  15 2427.12 601.607   9
  -1   0 -15 2326.46 592.262  11
  -1   0 -15 1967.07 555.050   4
  -1   0 -15 2617.44 648.317   3
   1   0  15 2358.05 574.207   1
  -1   0 -15 1296.52 482.880  19
   1   0  15 2082.36 461.398  17
  -1   0 -16 13401.7 1420.38   4
   1   0  16 11474.2 1268.38   1
  -1   0 -16 11704.2 1306.98   3
   1   0  16 11121.4 1160.20  63
  -1   0 -16 11986.9 1319.41  60
   1   0  16 11946.5 1395.23  10
  -1   0 -16 11597.8 1312.35  11
   1   0  16 12011.8 1329.71   9
  -1   0 -16 10449.0 1287.26  19
   1   0  16 11342.8 1071.05  17
  -1   0 -17 8058.30 1092.78  19
   1   0  17 7663.19 818.195  17
   1   0  17 7794.85 1070.94  10
   1   0  17 8761.99 1101.79   9
  -1   0 -17 7571.12 982.581  11
  -1   0 -17 8670.96 1093.93   4
  -1   0 -17 6941.77 922.258   3
   1   0  18 59.6240 60.4377  17
  -1   0 -18 38.3387 201.865  19
  -1   0 -18 211.680 234.968  41
   1   0  18 110.895 183.501  10
   1   0  18 144.025 199.839   9
  -1   0 -18 318.379 186.263  11
  -1   0 -18-36.5433 143.420   4
  -1   0 -19 9658.17 1039.85  19
   1   0  19 9763.13 1070.26  16
  -1   0 -19 9941.21 1123.96  41
   1   0  19 9289.72 964.454   9
   1   0  19 9868.65 990.729  10
  -1   0 -19 10292.3 1045.89   4
   1   0  20 14190.5 1111.06  16
  -1   0 -20 16651.5 1192.52  41
   1   0  20 14879.8 989.095  10
   1   0  20 13408.5 1014.76   9
  -1   0 -20 13552.5 1069.54  19
   1   0  21 6467.64 540.101   9
   1   0  21 6466.70 591.701  16
  -1   0 -21 5480.14 540.487  41
  -1   1  21 2085.47 350.233  16
   1   1 -21 1989.28 341.414  41
  -1   1  21 1669.46 289.229   9
   1   1 -21 1512.10 294.892   4
  -1   1  20 14161.7 1140.92  16
   1   1 -20 12018.9 1056.29  41
   1   1 -20 11269.4 981.898   4
  -1   1  20 12918.1 999.790   9
   1   1 -19 22790.7 1677.29  41
  -1   1  19 17658.8 1361.13  10
  -1   1  19 20699.9 1479.41   9
   1   1 -19 20444.1 1531.52   4
   1   1 -18 33545.5 2147.65  19
   1   1 -18 37898.2 2443.73  41
  -1   1  18 31601.3 1666.37  17
  -1   1  18 37254.8 2214.63   9
  -1   1  18 35133.7 2165.66  10
   1   1 -18 33538.4 2199.15   4
   1   1 -17 17699.3 1615.20  19
   1   1 -17 20578.2 1873.56  41
  -1   1  17 17239.2 1293.12  17
   1   1 -17 20123.9 2140.42  37
  -1   1  17 19579.7 1662.99   9
   1   1 -17 17804.1 1653.47   4
   1   1 -16 10935.5 1321.68   4
   1   1 -16 10676.4 1111.97   3
   1   1 -16 12298.1 1396.83  60
   1   1 -16 14557.4 1627.38  41
   1   1 -16 12702.5 1822.31  37
   1   1 -16 10373.1 1264.38  19
  -1   1  16 11136.0 1077.16  17
  -1   1  16 12351.9 1351.98   9
   1   1 -15 1611.31 517.020  60
   1   1 -15 2104.24 574.888  19
  -1   1  15 2222.64 483.949  17
   1   1 -15 2546.81 817.153  37
   1   1 -15 2372.64 670.522  41
  -1   1  15 1881.88 528.262   9
   1   1 -15 2273.66 516.879   3
  -1   1  15 1963.31 425.829   6
   1   1 -15 1770.80 558.758   4
   1   1 -14 3249.16 743.608  11
  -1   1  14 5806.33 904.918   9
   1   1 -14 4941.13 882.232   4
  -1   1  14 5586.66 775.963   6
   1   1 -14 5357.60 810.216   3
   1   1 -14 4264.26 853.750  60
   1   1 -14 5079.05 817.074  61
   1   1 -14 5316.22 983.300  41
  -1   1  14 6230.39 800.917  17
   1   1 -14 7329.66 1391.14  37
   1   1 -14 4728.60 627.472  29
   1   1 -14 5303.99 890.718  19
   1   1 -13 29383.9 1999.42   3
  -1   1  13 31970.5 1805.30   6
   1   1 -13 29621.8 2191.99  60
   1   1 -13 30937.4 2153.96  61
   1   1 -13 36674.3 2518.09  41
  -1   1  13 30754.4 1814.13  17
   1   1 -13 35888.2 3139.40  37
   1   1 -13 25059.7 1997.27  11
   1   1 -13 30890.1 2120.24  19
  -1   1  12 70627.4 2778.97   6
   1   1 -12 57818.8 2903.65   3
   1   1 -12 74265.9 3442.98  60
   1   1 -12 62006.6 3080.90  61
   1   1 -12 78328.7 3643.16  41
  -1   1  12 62471.5 2702.42  17
   1   1 -12 69506.4 4327.63  37
   1   1 -12 53115.7 2905.35  11
   1   1 -12 62854.3 3081.58  19
  -1   1  11 86318.5 3021.84   2
   1   1 -11 87557.8 3569.73   3
  -1   1  11 87485.9 3189.75   6
   1   1 -11 91931.4 3770.63  60
   1   1 -11 88783.5 3708.18  61
   1   1 -11 109736. 4215.37  41
  -1   1  11 92522.1 3290.86  17
   1   1 -11 122229. 6303.13  36
   1   1 -11 103316. 5176.83  37
   1   1 -11 76580.1 3522.64  11
   1   1 -11 83435.8 3520.16  19
   1   1 -10 49394.0 2526.35  41
  -1   1  10 42867.4 1936.15   6
  -1   1  10 41585.3 1777.42   2
   1   1 -10 35511.4 1540.22   5
   1   1 -10 53601.4 3830.65  36
   1   1 -10 37232.2 2139.16  60
   1   1 -10 41156.6 2272.07  61
   1   1 -10 32726.0 2007.47  11
  -1   1   9 39606.5 1691.52   2
   1   1  -9 35566.7 1504.87   5
  -1   1   9 43251.6 1845.75   6
   1   1  -9 42235.6 2120.32  60
   1   1  -9 37269.8 2043.60  61
   1   1  -9 38308.8 1987.78  48
   1   1  -8 47487.8 2079.37  48
   1   1  -8 44557.1 2088.72  60
   1   1  -8 55863.5 2344.99  61
  -1   1   8 48770.7 1906.93   6
  -1   1   8 52841.4 1859.00   2
   1   1  -8 40096.2 1593.90   5
   1   1  -8 39240.0 1113.02  31
   1   1  -8 38121.4 1950.72  11
   1   1  -7 6862.80 631.757  45
   1   1  -7 5633.59 415.292  55
   1   1  -7 8471.63 743.078  48
  -1   1   7 5609.71 359.477  62
   1   1  -7 8589.35 837.105  61
   1   1  -7 7381.68 734.329  60
  -1   1   7 8381.47 682.794   6
   1   1  -7 5930.61 512.444   5
  -1   1   7 8549.16 651.419   2
  -1   1   7 9375.46 725.652   1
   1   1  -7 7425.66 388.013  31
   1   1  -7 6934.24 700.094  11
   1   1  -6 87865.9 2771.46  45
   1   1  -6 92049.6 2498.73  55
   1   1  -6 93150.5 2938.36  48
   1   1  -6 104065. 3276.05  61
   1   1  -6 91441.7 2461.42  62
   1   1  -6 84911.2 2616.61   5
  -1   1   6 95828.3 2820.45   1
  -1   1   6 108120. 2968.82   6
  -1   1   6 107841. 2881.67   2
   1   1  -6 93891.7 2377.70  31
   1   1  -6 82458.3 2894.79  11
   1   1  -5 179912. 4439.14  45
   1   1  -5 192734. 4290.46  55
   1   1  -5 172408. 4532.72  48
   1   1  -5 176115. 4216.40  62
   1   1  -5 161220. 4755.57  61
  -1   1   5 188744. 4492.67   1
  -1   1   5 201383. 4567.70   2
   1   1  -5 156646. 4301.50   5
  -1   1   5 155892. 4435.98   6
   1   1  -5 173977. 4120.79  31
   1   1  -5 162035. 4577.45  11
  -1   1   4 127263. 3297.22   1
   1   1  -4 119310. 3256.41   5
  -1   1   4 140121. 3442.62   2
  -1   1   4 136595. 3470.70   6
   1   1  -4 132724. 3241.15  62
   1   1  -4 138987. 3734.38  61
   1   1  -4 123185. 3136.93  31
   1   1  -4 135413. 3306.05  45
   1   1  -4 120745. 3214.69  55
   1   1  -4 115596. 3321.10  48
  -1   1   3 156783. 3854.33   2
   1   1  -3 155067. 3765.32   5
  -1   1   3 155554. 3456.24   5
   1   1  -3 152769. 4067.29  61
   1   1  -3 154361. 3735.43  62
   1   1  -3 140013. 3632.63  31
   1   1  -3 154862. 3791.27  55
   1   1  -3 145414. 3723.84  48
  -1   1   2 165013. 3720.43   5
   1   1  -2 166330. 3921.77   5
   1   1  -2 176461. 4003.53  60
   1   1  -2 155502. 3893.72  62
   1   1  -2 143388. 3802.61  31
   1   1  -2 161534. 3960.76  55
   1   1  -1 61237.0 1903.10  62
   1   1  -1 65255.6 1960.24  55
  -1   1   0 13683.6 629.284   5
  -1   1   0 14806.5 569.547  45
   1   1   0 12032.4 648.473  55
   1   1   0 11414.0 617.783  62
  -1   1  -1 273177. 6014.34   5
  -1   1  -1 275056. 5716.15  45
   1   1   2 308983. 7061.07  55
   1   1   2 286729. 6898.78  31
   1   1   2 304662. 7006.80  62
   1   1   3 76359.2 2154.35  62
   1   1   3 81261.8 2153.99   1
   1   1   3 78892.9 2199.23  55
   1   1   3 74697.5 2056.09  31
  -1   1  -3 76281.1 2040.37  11
   1   1   4 278573. 6550.61  62
   1   1   4 278847. 6750.88   2
   1   1   4 296972. 6681.10   1
   1   1   4 302360. 6779.59   6
   1   1   4 299985. 6620.46  55
   1   1   4 268011. 6426.28  31
  -1   1  -4 286503. 6563.04  11
   1   1   5 44029.1 1589.04   6
   1   1   5 42655.4 1539.52   1
  -1   1  -5 37153.2 1560.42   5
   1   1   5 42060.7 1388.85  55
   1   1   5 41477.7 1223.07  31
  -1   1  -5 38622.4 1430.02  11
   1   1   6 69007.3 2492.69  63
   1   1   6 65898.3 2074.39  62
  -1   1  -6 76873.1 2557.59   5
   1   1   6 71862.2 2411.82   1
   1   1   6 75360.6 2203.56  55
   1   1   6 72573.9 2410.81  53
   1   1   6 78086.2 1946.81  31
  -1   1  -6 75235.0 2387.24  11
   1   1   7 27376.0 1453.45  63
   1   1   7 33689.1 1510.13   1
   1   1   7 38548.3 1592.07   6
  -1   1  -7 34373.8 1569.11   5
  -1   1  -7 32750.2 1637.17  48
   1   1   7 31690.5 1445.31  53
   1   1   7 30900.6 913.789  31
  -1   1  -7 32422.2 1463.56  11
   1   1   8 63474.8 2433.94  53
  -1   1  -8 67399.4 2724.26  48
  -1   1  -8 68785.3 2531.18  11
   1   1   8 69214.1 2575.75   1
  -1   1  -8 67086.4 2577.38   5
   1   1   8 58544.2 2486.82  63
  -1   1  -9 77897.9 3152.09  48
   1   1   9 75531.3 2980.71  63
  -1   1  -9 80740.8 3003.62  11
   1   1   9 79392.8 3003.17   1
  -1   1  -9 80467.2 2987.75   5
  -1   1 -10 63780.4 2770.65   4
   1   1  10 65917.9 2744.86   1
  -1   1 -10 59576.4 2587.27   5
   1   1  10 73033.5 2758.97   6
  -1   1 -10 75587.7 3224.44   3
  -1   1 -10 58653.0 2805.74  48
   1   1  10 54259.0 2560.60  63
  -1   1 -10 62444.7 3046.53  61
   1   1  10 60000.3 2548.42  17
  -1   1 -10 57303.9 2582.47  11
   1   1  10 63956.9 2805.63   9
  -1   1 -10 57250.4 2735.97  19
  -1   1 -11 48946.8 2667.25   3
   1   1  11 45153.8 2187.14   6
  -1   1 -11 40798.7 2263.14   4
   1   1  11 39570.3 2151.87   1
  -1   1 -11 39412.0 2081.99   5
  -1   1 -11 37674.6 2282.53  48
   1   1  11 39780.5 2063.70  17
  -1   1 -11 42266.5 2416.35  60
   1   1  11 36607.2 2078.56  63
  -1   1 -11 43551.8 2548.04  61
   1   1  11 40290.8 1902.15   7
   1   1  11 39460.4 1862.38   8
  -1   1 -11 33949.7 2033.55  11
   1   1  11 39746.8 2230.34   9
  -1   1 -11 37488.5 2236.88  19
  -1   1 -12 83279.9 3575.30   4
   1   1  12 94477.8 3472.51   6
   1   1  12 80780.4 3438.00   1
  -1   1 -12 71467.2 3099.08   5
  -1   1 -12 89192.3 3911.82   3
   1   1  12 75914.7 3185.84  17
  -1   1 -12 77366.2 3592.34  60
  -1   1 -12 85017.6 3774.84  61
   1   1  12 73578.9 3244.83  63
   1   1  12 75206.6 2915.63   8
   1   1  12 81021.6 2970.68   7
  -1   1 -12 73578.2 3318.19  11
   1   1  12 82138.5 3545.17   9
  -1   1 -12 74515.1 3493.20  19
  -1   1 -13 21668.0 1737.88   4
  -1   1 -13 19434.4 1466.88   5
   1   1  13 21801.1 1697.98   1
  -1   1 -13 24953.8 1982.38   3
   1   1  13 22599.9 1613.23   6
   1   1  13 21470.8 1585.73  17
   1   1  13 17830.9 1481.87  63
  -1   1 -13 22949.4 1884.50  60
  -1   1 -13 20035.5 1742.43  61
   1   1  13 19130.2 1312.54   8
   1   1  13 18977.6 1674.76  10
  -1   1 -13 19306.9 1605.49  11
   1   1  13 22721.2 1794.17   9
  -1   1 -13 19297.2 1700.75  19
   1   1  14 6320.03 840.370   6
   1   1  14 5746.79 878.945   1
  -1   1 -14 7017.00 1068.05   3
  -1   1 -14 6155.80 954.782   4
   1   1  14 5622.48 810.097  17
   1   1  14 4924.96 760.610  63
  -1   1 -14 6961.08 1049.06  60
  -1   1 -14 5870.28 898.055  61
   1   1  14 5640.16 866.668  10
  -1   1 -14 5047.55 850.032  11
   1   1  14 5877.22 695.223   8
  -1   1 -14 5384.54 928.699  19
   1   1  15 32787.5 1929.72   6
  -1   1 -15 29581.5 2161.99   4
   1   1  15 27672.4 2016.88   1
  -1   1 -15 32491.6 2329.85   3
  -1   1 -15 28005.6 2181.18  60
   1   1  15 28715.9 1880.51  17
  -1   1 -15 19789.1 1662.38  18
   1   1  15 26537.1 1997.99  10
  -1   1 -15 22317.6 1837.79  11
  -1   1 -15 27738.2 2143.63  19
  -1   1 -16 26143.3 2024.02   3
   1   1  16 26917.0 1963.40   1
  -1   1 -16 24729.3 1955.14   4
  -1   1 -16 32006.5 2325.68  41
  -1   1 -16 25781.9 2075.39  60
   1   1  16 26147.9 1765.18  17
  -1   1 -16 24761.0 2007.96  19
  -1   1 -16 21030.7 1752.05  11
   1   1  16 25052.9 1872.16  10
  -1   1 -17 20543.9 1798.53  19
   1   1  17 21572.0 1543.51  17
  -1   1 -17 22691.6 1804.18   4
  -1   1 -17 22093.8 1751.03   3
   1   1  17 22406.2 1655.72  10
   1   1  18 19231.7 1317.16  17
  -1   1 -18 25096.3 1806.81  41
  -1   1 -18 21444.2 1650.24   4
  -1   1 -18 19429.0 1471.63   3
  -1   1 -18 20412.3 1648.45  19
  -1   1 -19 23514.6 1585.42   4
  -1   1 -19 24976.1 1606.83  41
   1   1  19 23852.3 1621.81  16
   1   1  19 21117.2 1211.82  17
  -1   1 -20 2174.73 413.710   4
  -1   1 -20 2635.70 423.851  41
   1   1  20 2672.31 446.010  16
  -1   1 -21 1416.45 261.022   4
   1   2 -20 5995.73 580.764  41
  -1   2  20 8154.06 690.861   9
  -1   2  19 3115.89 423.914  17
   1   2 -19 3331.78 544.592  41
  -1   2  19 3785.73 558.955   9
  -1   2  18 4207.86 581.762  17
  -1   2  18 4683.13 716.954   9
   1   2 -18 4348.68 724.960  41
  -1   2  17 1674.48 403.606  17
   1   2 -17 2033.67 536.345  41
  -1   2  17 1227.53 409.114   9
   1   2 -17 1749.51 411.715   3
   1   2 -17 1710.60 504.629   4
  -1   2  16 23930.7 1816.43   9
   1   2 -16 20237.2 1796.63  41
  -1   2  16 20269.9 1515.16  17
   1   2 -16 13749.2 1166.50  29
   1   2 -16 17528.6 1699.48   4
  -1   2  16 20961.1 1625.86   1
   1   2 -16 18754.7 1592.06   3
  -1   2  16 19647.3 1464.98   6
   1   2 -15 35624.2 2358.44   3
   1   2 -15 35182.3 2508.82   4
  -1   2  15 41351.3 2408.56   1
  -1   2  15 33162.2 2069.30   6
   1   2 -15 33630.4 2460.14  61
   1   2 -15 42313.4 2716.86  41
  -1   2  15 39978.7 2250.79  17
   1   2 -15 45534.1 3657.93  37
   1   2 -15 32035.9 1983.14  29
  -1   2  15 41243.0 2503.32   9
  -1   2  14 93536.9 3494.96   7
  -1   2  14 105345. 4325.05   9
  -1   2  14 105445. 3984.25   6
   1   2 -14 95077.4 4230.15   3
  -1   2  14 93324.0 3913.66   1
   1   2 -14 90217.9 4295.18   4
   1   2 -14 86948.8 4330.22  61
   1   2 -14 105672. 4553.05  41
  -1   2  14 102099. 3959.36  17
   1   2 -14 113029. 6096.11  37
   1   2 -14 83857.8 3661.46  29
   1   2 -14 88279.2 4119.34  19
   1   2 -13 31352.4 2254.48   3
   1   2 -13 26975.3 2126.70   4
  -1   2  13 32356.9 2002.67   6
  -1   2  13 36155.0 2164.38   1
   1   2 -13 28598.5 2293.54  61
   1   2 -13 33428.9 2390.12  41
   1   2 -13 40800.9 3485.36  37
   1   2 -13 27745.7 2081.90  19
  -1   2  13 28795.5 1652.21   8
  -1   2  13 29227.9 1767.83   7
  -1   2  13 31299.8 1976.10  17
   1   2 -12 1791.91 523.626  60
   1   2 -12 1646.21 535.154  61
  -1   2  12 1450.41 422.457  17
   1   2 -12 1116.08 405.262  19
   1   2 -12 2689.82 848.510  37
   1   2 -12 1618.13 500.001  41
  -1   2  12 1995.84 407.702   8
  -1   2  12 1273.40 361.583   7
   1   2 -12 1920.81 538.472   4
  -1   2  12 1081.93 343.407   2
   1   2 -12 2965.47 673.527   3
  -1   2  12 1853.80 459.387   6
  -1   2  12 1566.94 440.546   1
   1   2 -11 1265.43 468.353  61
   1   2 -11 757.166 354.711  60
   1   2 -11 1108.42 399.690  48
   1   2 -11 1062.32 353.002  19
  -1   2  11 859.400 332.760  17
   1   2 -11 2118.91 729.631  37
   1   2 -11 1155.97 384.011  41
  -1   2  11 1514.11 369.136   7
  -1   2  11 1182.95 300.438   8
   1   2 -11 1001.81 359.543   3
  -1   2  11 1143.66 344.373   6
   1   2 -11 977.812 275.642   5
   1   2 -11 576.652 298.836   4
  -1   2  11 955.797 316.260   1
  -1   2  11 1131.15 345.913   2
   1   2 -10 24858.6 1843.72   3
   1   2 -10 28242.8 1619.86   5
  -1   2  10 31859.1 1771.81   2
  -1   2  10 31570.0 1758.16   1
   1   2 -10 21171.9 1696.07   4
  -1   2  10 33024.8 1852.18   6
   1   2 -10 30280.0 2029.72  60
   1   2 -10 34204.5 2286.70  61
   1   2 -10 31962.7 2002.50  41
   1   2 -10 29178.8 1913.34  48
  -1   2  10 30592.3 1773.00  17
   1   2 -10 33676.8 2916.96  37
  -1   2  10 26397.7 1636.62   7
  -1   2  10 26541.5 1534.46   8
   1   2 -10 21442.4 1651.78  19
   1   2  -9 13383.0 1251.74   4
  -1   2   9 17836.1 1228.45   1
  -1   2   9 18727.3 1284.56   2
  -1   2   9 17211.9 1271.49   6
   1   2  -9 15106.0 1328.19   3
   1   2  -9 16228.7 1174.78   5
   1   2  -9 17072.9 1416.74  60
   1   2  -9 18344.0 1596.22  61
   1   2  -9 17049.9 1368.97  48
  -1   2   9 19295.9 1316.08  17
   1   2  -9 21507.6 2167.82  37
   1   2  -9 14174.0 1209.66  19
  -1   2   9 15234.8 1164.92   7
  -1   2   9 16287.5 1114.44   8
  -1   2   8 131136. 3830.35   1
  -1   2   8 129653. 3939.24   2
  -1   2   8 136113. 4077.76   6
   1   2  -8 101172. 3638.14   5
   1   2  -8 120158. 4130.89  60
   1   2  -8 106914. 3254.62  62
  -1   2   8 110472. 3229.87  62
   1   2  -8 133128. 4651.39  61
   1   2  -8 114958. 3178.82  31
   1   2  -8 117911. 4033.97  48
   1   2  -8 124998. 3424.66  55
  -1   2   8 105417. 3291.12  55
   1   2  -7 48649.8 2087.77   5
  -1   2   7 57938.3 2098.49   1
  -1   2   7 63963.6 2339.95   2
  -1   2   7 63497.0 2356.19   6
   1   2  -7 63483.5 2006.92  62
  -1   2   7 56292.6 1903.45  62
   1   2  -7 54900.6 2359.98  60
   1   2  -7 69537.7 2907.05  61
   1   2  -7 56395.5 1826.32  31
   1   2  -7 57890.2 2345.62  48
   1   2  -7 67257.3 2088.34  55
  -1   2   6 169659. 4550.78   2
   1   2  -6 134863. 4287.81   5
  -1   2   6 162444. 4231.49   1
  -1   2   6 163320. 4535.67   6
   1   2  -6 141717. 4528.88  60
   1   2  -6 130481. 4181.88  59
   1   2  -6 176447. 4270.65  62
  -1   2   6 175994. 4242.07  62
   1   2  -6 167133. 5075.17  61
   1   2  -6 152296. 4074.44  31
   1   2  -6 152106. 4484.35  48
   1   2  -6 171036. 4334.16  55
  -1   2   5 13718.6 951.328   2
  -1   2   5 12698.0 779.923   1
   1   2  -5 11895.8 894.537   5
  -1   2   5 13479.9 941.870   6
   1   2  -5 13098.8 930.619  60
   1   2  -5 13836.4 865.978  62
   1   2  -5 13657.0 897.522  55
  -1   2   4 7898.29 688.586   2
  -1   2   4 7799.27 556.120   1
   1   2  -4 8414.13 713.213   5
   1   2  -4 7000.32 625.683  60
   1   2  -4 8353.80 667.147  62
   1   2  -4 8220.51 692.847  55
  -1   2   3 36102.8 1512.52   6
   1   2  -3 34041.7 1517.89   5
  -1   2   3 36908.4 1340.86   5
  -1   2   3 36497.5 1231.65   1
   1   2  -3 35551.4 1421.82  60
   1   2  -3 32467.2 1438.64  62
   1   2  -3 31700.5 1614.15  61
   1   2  -3 38871.2 1618.08  55
  -1   2   2 107941. 3114.46   6
  -1   2   2 104347. 2980.12   5
   1   2  -2 114600. 3396.68  61
   1   2  -2 104659. 3149.68  62
   1   2  -1 252226. 5981.73   2
  -1   2   1 263743. 6315.46   5
  -1   2   1 277460. 6376.48   2
  -1   2   1 287757. 6355.01   6
   1   2  -1 241052. 6404.88  61
   1   2  -1 229362. 6308.38  62
   1   2  -1 255542. 6499.89  55
  -1   2   0 140200. 3594.50   2
  -1   2   0 141267. 3527.26   6
   1   2   0 128003. 3371.74   2
   1   2   0 123595. 3270.16   6
  -1   2   0 134226. 3659.60   5
   1   2   0 125386. 3584.34  61
   1   2   0 115461. 3597.29  62
   1   2   0 129385. 3763.68  55
   1   2   1 68350.1 1989.67   6
  -1   2  -1 68345.1 2078.80   2
  -1   2  -1 66857.4 2255.99   5
  -1   2  -1 60830.8 1650.80  60
   1   2   2 93023.5 2668.89   6
  -1   2  -2 88706.4 2598.45   2
  -1   2  -2 92241.5 2910.41   5
   1   2   2 88690.3 2795.18  62
   1   2   2 87261.6 2943.79  59
   1   2   2 99476.1 2958.61  55
   1   2   3 4344.57 456.603   6
  -1   2  -3 4408.64 525.891   5
  -1   2  -3 4069.36 394.447   2
   1   2   3 4667.41 355.233   1
   1   2   3 5064.42 572.572  59
   1   2   3 4836.98 513.481  62
   1   2   3 4952.26 547.474  55
   1   2   4 4404.24 490.895   6
   1   2   4 4172.25 386.758   1
  -1   2  -4 4452.66 549.951   5
  -1   2  -4 4119.59 382.769   2
   1   2   4 4788.66 555.244  59
   1   2   4 4320.81 479.777  62
   1   2   4 4463.28 504.650  55
   1   2   5 143810. 3949.59   2
   1   2   5 125962. 3496.47   1
   1   2   5 125698. 3846.09  59
   1   2   5 143152. 3756.94  62
   1   2   5 134287. 3581.90  31
   1   2   5 144984. 3822.42  55
   1   2   6 57100.0 2179.25   2
   1   2   6 47359.3 1825.20   1
  -1   2  -6 43927.1 1462.67   2
  -1   2  -6 39382.0 2002.77   5
   1   2   6 50939.5 1861.73  62
   1   2   6 33490.8 1741.81  59
   1   2   6 53832.9 1759.29  31
   1   2   6 52343.6 1922.98  55
  -1   2  -7 113790. 3071.85   2
   1   2   7 148644. 4247.37   2
  -1   2  -7 120620. 4127.82   5
   1   2   7 118715. 3744.20   1
   1   2   7 154987. 4310.03   6
  -1   2  -7 140654. 4225.49  60
   1   2   7 114009. 3768.79  59
   1   2   7 128136. 3646.05  62
  -1   2  -7 128895. 3632.49  62
   1   2   7 127550. 3422.80  31
   1   2   7 145930. 3799.39  55
   1   2   8 51958.0 1956.89  62
  -1   2  -8 54522.1 1974.25  62
  -1   2  -8 75636.9 3361.45  61
  -1   2  -8 62715.5 2671.62  60
   1   2   8 67842.9 2634.69   6
   1   2   8 47635.0 2185.73   1
  -1   2  -8 56590.7 2592.78   5
  -1   2  -8 59762.0 2707.30  48
  -1   2  -8 56833.2 2080.12  55
   1   2   8 62437.1 2150.24  55
  -1   2  -9 18994.2 1402.12   4
   1   2   9 25509.9 1619.82   6
   1   2   9 20301.7 1375.61   1
  -1   2  -9 20409.2 1511.91   5
  -1   2  -9 21377.3 1684.72   3
  -1   2  -9 22415.0 1587.91  60
  -1   2  -9 27234.8 2061.81  61
   1   2   9 20311.0 1329.42   8
   1   2   9 22046.8 1461.48   9
   1   2   9 23171.5 1481.65   7
  -1   2  -9 19694.8 1533.05  19
  -1   2  -9 19831.1 1564.92  48
   1   2  10 4919.36 729.744   6
   1   2  10 4227.91 640.872   1
  -1   2 -10 3550.87 616.254   4
  -1   2 -10 3752.90 653.146   5
  -1   2 -10 4838.34 776.054  60
  -1   2 -10 3744.74 791.429  61
  -1   2 -10 3709.40 699.994  48
   1   2  10 4542.28 622.135   8
   1   2  10 3675.11 625.507   9
   1   2  10 4296.77 637.737   7
  -1   2 -10 3831.10 695.984  19
  -1   2 -11 1095.91 397.308  60
  -1   2 -11 1444.10 528.311  61
  -1   2 -11 1272.70 447.336  48
   1   2  11 1276.65 373.050  17
  -1   2 -11 1059.81 379.263  19
  -1   2 -11 1077.21 378.827  18
  -1   2 -11 1741.17 441.686  41
   1   2  11 972.200 305.333   8
   1   2  11 1091.13 337.233   7
   1   2  11 1000.66 344.327   9
   1   2  11 1145.43 354.828   1
   1   2  11 1005.02 344.852   6
  -1   2 -11 919.612 348.436   4
  -1   2 -11 1167.60 390.220   5
  -1   2 -12 18724.5 1619.64   4
   1   2  12 23703.3 1756.57   6
   1   2  12 20648.2 1597.19   1
  -1   2 -12 21653.1 1685.85   5
  -1   2 -12 21766.9 1906.56   3
  -1   2 -12 19741.4 1774.86  48
  -1   2 -12 22248.7 1717.16  41
  -1   2 -12 19067.4 1710.18  60
  -1   2 -12 20827.8 1984.33  61
  -1   2 -12 21172.3 1790.86  18
   1   2  12 20306.8 1570.07  17
   1   2  12 20515.7 1492.82   7
   1   2  12 21287.0 1474.12   8
   1   2  12 20598.8 1678.65   9
  -1   2 -12 18289.9 1685.08  19
   1   2  13 80417.2 3511.30   6
  -1   2 -13 64520.2 3306.44   4
  -1   2 -13 73196.1 3737.23   3
  -1   2 -13 63863.4 3127.52   5
   1   2  13 63540.2 3150.82   1
  -1   2 -13 62960.3 3456.38  48
  -1   2 -13 78971.7 3550.86  41
  -1   2 -13 72898.0 3620.45  60
  -1   2 -13 69266.2 3752.42  61
  -1   2 -13 66190.4 3403.28  18
   1   2  13 70880.2 3237.37  17
   1   2  13 71949.2 2971.08   8
   1   2  13 68773.1 3344.32   9
   1   2  13 65600.4 2937.43   7
  -1   2 -13 64495.9 3410.80  19
  -1   2 -14 54018.5 3062.56   4
   1   2  14 55345.6 2935.74   1
  -1   2 -14 69087.3 3635.36   3
  -1   2 -14 59552.5 2849.93   5
   1   2  14 72982.8 3278.55   6
  -1   2 -14 69547.9 3321.90  41
  -1   2 -14 60721.9 3363.04  60
  -1   2 -14 72669.5 3743.87  61
  -1   2 -14 57403.3 3096.35  18
   1   2  14 59233.0 2967.95  17
   1   2  14 59403.1 2682.55   8
   1   2  14 60824.5 2726.86   7
   1   2  14 68548.1 3327.08   9
  -1   2 -14 55576.6 3202.22  19
  -1   2 -15 16471.9 1662.28  60
  -1   2 -15 22597.7 1930.38  61
  -1   2 -15 23570.2 1826.23  41
  -1   2 -15 22436.5 1833.78   4
   1   2  15 20669.2 1634.41   1
   1   2  15 22708.2 1713.17   6
  -1   2 -15 22077.8 1936.19   3
   1   2  15 21250.7 1432.84   7
   1   2  15 22063.9 1773.04   9
   1   2  15 20488.7 1400.50   8
  -1   2 -15 16031.2 1473.85  18
   1   2  15 21482.6 1658.95  17
  -1   2 -16 13929.7 1346.90  41
  -1   2 -16 11917.1 1287.51   4
   1   2  16 14253.0 1267.75   6
  -1   2 -16 13223.3 1417.92   3
   1   2  16 10445.0 925.831   8
   1   2  16 13299.3 1335.25   9
   1   2  16 11503.4 1162.19  17
  -1   2 -17 2639.45 520.056  41
   1   2  17 2073.33 459.517  17
  -1   2 -17 2968.95 625.952   3
  -1   2 -17 2120.43 520.689   4
   1   2  17 2769.42 576.102   9
  -1   2 -18 774.941 248.022  41
  -1   2 -18 660.332 278.920   3
  -1   2 -18 374.096 238.693   4
   1   2  18 462.182 253.677   9
   1   2  18 292.805 186.926  17
  -1   2 -19 6932.14 681.070   3
  -1   2 -19 6437.51 731.442   4
   1   2  19 7178.99 732.051   9
   1   2  19 6841.15 646.766  17
   1   2  19 7240.16 751.508  16
   1   2  20 13019.7 813.224  26
   1   2  20 12461.1 678.577  17
  -1   2 -20 11882.7 808.420   4
   1   2  20 13655.4 808.784   9
  -1   3  19 4966.08 472.694  17
   1   3 -19 4809.84 570.322   4
  -1   3  19 4651.67 464.025   9
  -1   3  18 17810.3 1124.70  17
  -1   3  18 16933.9 1121.97   9
   1   3 -18 16869.4 1295.98   4
  -1   3  17 22944.9 1483.67   9
  -1   3  17 20966.6 1388.60  17
   1   3 -17 20122.6 1329.89  41
   1   3 -17 17565.5 1167.97  29
   1   3 -17 20770.3 1597.68   4
   1   3 -17 21499.2 1456.88   3
  -1   3  16 11020.3 916.807   7
  -1   3  16 14106.6 1251.87   9
   1   3 -16 11950.1 1137.77  41
   1   3 -16 11875.9 1292.34   4
   1   3 -16 12210.8 1236.22   3
  -1   3  16 12865.2 1174.48   6
   1   3 -16 13261.4 1147.17  29
  -1   3  16 13208.7 1168.06  17
  -1   3  15 957.745 350.306  17
  -1   3  15 623.492 295.285   9
  -1   3  15 613.908 242.017   8
  -1   3  15 496.451 237.526   7
   1   3 -15 810.515 303.581  41
   1   3 -15 511.910 293.740  29
   1   3 -15 743.778 374.118   4
  -1   3  15 570.971 287.329   6
   1   3 -15 955.648 381.426   3
   1   3 -14 293.616 271.691   4
  -1   3  14 527.430 231.532   1
  -1   3  14 576.126 301.549   6
   1   3 -14 48.1203 188.986   3
   1   3 -14 467.633 290.260  61
   1   3 -14 381.324 236.726  60
  -1   3  14 402.292 248.698  17
   1   3 -14 519.090 252.779  41
   1   3 -14 269.169 213.536  29
  -1   3  14 513.696 264.395   7
  -1   3  14 385.636 193.513   8
  -1   3  14 586.184 291.075   9
   1   3 -13 20404.0 2036.97  61
   1   3 -13 21500.6 1834.26  60
   1   3 -13 18871.0 1652.39  41
  -1   3  13 24176.0 1752.50  17
  -1   3  13 18796.7 1391.11  39
  -1   3  13 18974.5 1550.15   7
  -1   3  13 20849.2 1480.86   8
  -1   3  13 21719.6 1721.99   9
  -1   3  13 19208.6 1633.96   6
   1   3 -13 17108.9 1707.67   4
   1   3 -13 18788.4 1814.47   3
  -1   3  13 20828.3 1517.59   1
   1   3 -12 33020.9 2224.98  41
   1   3 -12 35858.0 2426.70  48
  -1   3  12 37118.5 2237.85   2
  -1   3  12 36384.0 2091.06   1
   1   3 -12 33272.5 2453.47   3
  -1   3  12 40770.4 2389.40   6
   1   3 -12 28112.5 2265.70   4
  -1   3  12 39950.1 2300.24  17
   1   3 -12 32877.3 2017.17  18
   1   3 -12 40101.1 2908.71  61
   1   3 -12 35071.5 2412.58  60
  -1   3  12 33892.9 2120.38   7
  -1   3  12 37555.3 2088.37   8
   1   3 -11 38420.9 2369.45  41
   1   3 -11 42891.4 2612.47  48
   1   3 -11 38436.9 2625.18   3
   1   3 -11 29825.5 2301.54   4
  -1   3  11 45274.2 2478.64   2
   1   3 -11 39082.1 2253.79   5
  -1   3  11 46248.4 2550.83   6
  -1   3  11 44331.8 2252.06   1
   1   3 -11 38785.9 2267.86  18
   1   3 -11 49165.3 3162.32  61
   1   3 -11 42890.1 2614.93  60
  -1   3  11 40613.2 2340.13   7
  -1   3  11 40157.8 2190.95   8
   1   3 -10 16765.4 1536.78  48
   1   3 -10 15698.4 1368.91  41
   1   3 -10 12037.2 1353.27   4
   1   3 -10 14338.0 1327.60   5
  -1   3  10 17072.4 1437.58   2
   1   3 -10 12945.2 1442.80   3
  -1   3  10 15350.6 1213.83   1
  -1   3  10 16435.1 1432.02   6
   1   3 -10 12531.6 1249.50  18
   1   3 -10 17228.5 1808.25  61
   1   3 -10 11692.6 1289.55  60
  -1   3  10 16681.7 1419.82   7
  -1   3  10 14466.8 1247.74   8
   1   3  -9 22390.7 2012.44  61
   1   3  -9 16981.1 1490.17  60
   1   3  -9 21320.0 1662.64  48
  -1   3   9 22887.5 1413.37   1
  -1   3   9 26545.6 1758.73   2
   1   3  -9 17881.3 1611.53   4
  -1   3   9 22973.6 1674.62   6
   1   3  -9 19416.0 1557.25   5
   1   3  -9 18218.4 1700.57   3
  -1   3   9 22531.1 1573.05  17
   1   3  -9 17397.3 1485.71  18
   1   3  -9 18522.3 1124.56  31
  -1   3   9 22087.7 1629.32   7
  -1   3   9 21400.6 1508.56   8
   1   3  -8 10886.1 1097.66  60
  -1   3   8 11420.9 937.029  62
   1   3  -8 11431.5 960.105  62
   1   3  -8 12442.5 1210.99  48
  -1   3   8 8165.71 1026.34  55
   1   3  -8 12679.4 1042.53  55
  -1   3   8 13545.3 1211.87   2
  -1   3   8 13188.0 988.810   1
   1   3  -8 12261.9 1252.33   4
   1   3  -8 11758.3 1152.55   5
   1   3  -8 9246.21 1070.48  18
   1   3  -8 12344.7 934.993  31
  -1   3   8 13427.9 1232.47   7
  -1   3   8 13061.4 1124.10   8
  -1   3   7 5941.44 787.596   7
  -1   3   7 6395.27 766.426   8
   1   3  -7 4951.32 705.589  59
   1   3  -7 4760.11 682.692  60
  -1   3   7 5935.17 695.509  62
   1   3  -7 6022.64 709.195  62
  -1   3   7 5188.52 718.930  59
   1   3  -7 5889.11 748.113  55
  -1   3   7 5572.35 752.757  55
   1   3  -7 6002.53 795.134  48
   1   3  -7 6125.30 828.173   4
  -1   3   7 5867.94 612.691   1
  -1   3   7 6713.32 831.658   2
   1   3  -7 5036.69 757.683   5
   1   3  -7 5271.12 752.407  18
   1   3  -7 5716.16 656.876  31
   1   3  -7 6784.86 1126.40  20
   1   3  -6 8855.54 984.014   5
   1   3  -6 8498.78 963.017   4
  -1   3   6 11845.1 1064.44   2
  -1   3   6 10999.9 1021.31   6
  -1   3   6 11089.1 791.565   1
   1   3  -6 9963.91 1185.40  61
   1   3  -6 8371.72 862.765  60
   1   3  -6 10020.3 1032.89  59
   1   3  -6 10295.7 946.752  62
  -1   3   6 10385.8 948.092  62
  -1   3   6 11797.9 1109.10  59
   1   3  -6 10359.5 911.931  31
   1   3  -6 9821.89 959.235  55
  -1   3   6 11938.7 1063.10  55
  -1   3   6 11424.4 1006.85   8
  -1   3   6 9930.78 1006.49   7
   1   3  -5 32530.3 2104.11  61
   1   3  -5 33171.5 1691.96  60
  -1   3   5 41601.3 2145.42  59
   1   3  -5 35933.8 1854.09  62
  -1   3   5 37583.2 1863.54  62
   1   3  -5 35223.6 1993.09  59
   1   3  -5 32028.3 1833.93  55
  -1   3   5 30533.7 1358.57   1
  -1   3   5 37283.4 1886.53   6
   1   3  -5 27997.5 1784.68   5
   1   3  -4 122328. 4561.36  61
  -1   3   4 128918. 4226.07  62
   1   3  -4 134289. 4302.82  62
   1   3  -4 149885. 4740.43  59
   1   3  -4 142465. 4512.70  55
  -1   3   4 118843. 3430.25   1
   1   3  -4 122130. 4319.54   5
  -1   3   4 135250. 4220.13   6
   1   3  -3 113729. 4271.16  61
  -1   3   3 179586. 5041.25  59
  -1   3   3 130391. 4211.10  62
   1   3  -3 144449. 4366.81  62
   1   3  -3 167271. 4859.05  59
   1   3  -3 140343. 4446.43  55
  -1   3   3 104324. 3190.92   1
  -1   3   3 145187. 4268.84   2
  -1   3   3 139696. 4127.63   6
  -1   3   2 4203.29 681.590  59
   1   3  -2 3557.59 554.979  62
  -1   3   2 3637.90 391.248  61
  -1   3   2 3360.26 542.385  62
   1   3  -2 3333.10 567.473  61
   1   3  -2 4094.05 650.327  59
   1   3  -2 4104.61 620.371  55
  -1   3   2 3261.41 481.133   5
  -1   3   2 3633.90 523.633   2
  -1   3   2 3505.24 487.418   6
  -1   3   2 2729.12 254.981   1
   1   3  -1 483.345 220.623  61
   1   3  -1 1154.98 355.190  59
  -1   3   1 435.867 170.664  61
   1   3  -1 1063.20 308.837  62
   1   3  -1 706.293 285.011  55
  -1   3   1 375.733 172.129   2
   1   3  -1 527.893 132.738   6
  -1   3   1 600.181 211.013   6
   1   3  -1 317.826 139.238   2
  -1   3   1 337.817 181.410   5
   1   3   0 2304.63 446.713  62
   1   3   0 1855.07 364.253  61
  -1   3   0 1579.83 347.872  61
   1   3   0 2244.97 481.517  59
   1   3   0 2509.55 501.074  55
   1   3   0 1428.74 293.754   2
  -1   3   0 1393.37 295.884   6
  -1   3   0 1820.28 391.454   5
  -1   3   0 1332.52 309.678   2
   1   3   0 1979.48 298.908   6
  -1   3  -1 9042.70 889.459  61
  -1   3  -1 8057.44 650.829   6
   1   3   1 8165.86 717.760   2
  -1   3  -1 8573.18 727.551   2
   1   3   1 7810.17 650.969   6
  -1   3  -1 8253.46 839.464   5
   1   3   2 80755.3 3145.85  59
   1   3   2 66914.6 2741.23  62
  -1   3  -2 74734.5 2992.80  61
   1   3   2 75682.7 2951.24  55
   1   3   2 66063.0 2492.01   2
  -1   3  -2 63135.0 2306.57   2
  -1   3  -2 55251.3 2101.73   6
  -1   3  -2 70825.7 2842.98   5
   1   3   2 72578.7 2456.77   6
  -1   3  -3 134100. 4139.02  62
  -1   3  -3 116788. 3178.86  60
   1   3   3 127587. 4324.76  59
  -1   3  -3 117067. 4283.01  61
   1   3   3 122065. 4010.81  62
   1   3   3 137162. 4270.72  55
   1   3   3 112824. 3793.85   2
   1   3   3 105295. 3595.71   6
  -1   3  -3 118282. 4104.70   5
  -1   3  -3 106226. 3358.09   2
   1   3   4 92262.6 3402.89  59
  -1   3  -4 67011.7 2357.66  60
  -1   3  -4 100289. 3598.10  59
  -1   3  -4 77107.3 3408.03  61
  -1   3  -4 84631.3 3071.49  62
   1   3   4 76581.9 2947.48  62
   1   3   4 76628.9 2945.72   2
  -1   3  -4 62951.5 2272.60   2
   1   3   4 76599.0 2837.43   6
  -1   3  -4 74785.2 3118.49   5
   1   3   4 82854.5 3120.88  55
   1   3   5 16212.1 1228.01  55
  -1   3  -5 16840.9 1361.26  59
  -1   3  -5 12786.8 926.135  60
  -1   3  -5 17489.1 1252.94  62
  -1   3  -5 17423.5 1554.89  61
   1   3   5 15516.1 1169.83  62
   1   3   5 10748.4 1079.68  59
   1   3   5 13637.2 1092.85  39
   1   3   5 15554.5 1204.39   7
   1   3   5 14359.6 1088.96   8
   1   3   5 14796.6 756.118   1
  -1   3  -5 13743.8 764.551   2
   1   3   5 16588.5 1196.35   6
   1   3   6 30053.6 1831.27  59
  -1   3  -6 24472.4 1452.81  60
  -1   3  -6 24714.7 1731.93  59
   1   3   6 33241.2 1750.17  62
  -1   3  -6 31351.3 1735.51  62
  -1   3  -6 38811.0 2442.44  61
   1   3   6 35136.4 1834.59  55
   1   3   6 27067.7 1629.64  39
   1   3   6 28958.7 1551.31  31
  -1   3  -6 29420.4 1929.47   3
   1   3   6 25324.9 1238.10   1
   1   3   6 36315.9 1893.50   6
   1   3   7 1947.31 494.398   2
  -1   3  -7 1363.00 406.006   3
  -1   3  -7 1613.44 376.854   4
   1   3   7 1818.87 316.673   1
   1   3   7 2548.94 518.270   6
  -1   3  -7 1017.36 370.022   5
  -1   3  -7 2035.43 416.343  60
   1   3   7 1495.43 380.595  59
  -1   3  -7 1575.10 388.826  59
  -1   3  -7 2134.04 444.344  62
   1   3   7 2068.50 416.927  62
  -1   3  -7 1935.75 451.142  55
   1   3   7 2141.34 426.817  55
  -1   3  -7 1392.13 450.268  18
   1   3   7 2166.91 424.149  17
   1   3   7 1738.56 391.966  39
   1   3   7 1697.85 342.563  31
   1   3   7 1911.22 454.927   7
   1   3   7 1834.10 409.700   8
  -1   3  -8 7019.03 854.921   4
   1   3   8 5778.26 640.777   1
  -1   3  -8 7999.02 1035.57   5
  -1   3  -8 7613.26 1037.32   3
  -1   3  -8 7160.46 845.061  60
   1   3   8 5243.45 731.095  59
  -1   3  -8 7726.37 782.894  62
   1   3   8 7988.71 801.110  62
  -1   3  -8 7849.39 881.334  55
   1   3   8 8613.47 857.583  55
   1   3   8 7497.71 841.357  39
   1   3   8 8768.89 981.962   7
   1   3   8 8211.22 898.663   8
   1   3   8 8000.28 700.967  31
  -1   3  -8 5928.65 904.984  18
   1   3   8 7906.76 885.809  17
  -1   3  -9 42233.7 2336.82  60
  -1   3  -9 52933.4 3187.08  61
   1   3   9 44354.8 2205.29  39
  -1   3  -9 37796.0 2543.41  18
   1   3   9 44720.2 2319.04  17
   1   3   9 48451.3 2370.25   8
   1   3   9 49442.1 2503.55   7
   1   3   9 45994.3 2200.99   9
  -1   3  -9 37152.0 2202.87   4
   1   3   9 31190.7 1780.39   1
  -1   3  -9 40329.4 2477.77   5
  -1   3  -9 39647.4 2582.92   3
  -1   3 -10 38468.5 2289.98  60
  -1   3 -10 42125.3 2901.04  61
   1   3  10 36825.6 1989.34  39
  -1   3 -10 37090.9 2484.76  18
   1   3  10 38173.8 2202.74  17
   1   3  10 40943.7 2207.27   8
   1   3  10 34545.7 2016.83   9
   1   3  10 40766.5 2311.88   7
  -1   3 -10 30665.6 2061.22   4
   1   3  10 28642.6 1747.96   1
  -1   3 -10 39828.8 2473.41   5
  -1   3 -10 36676.3 2540.75   3
   1   3  10 43827.2 2483.38   6
  -1   3 -11 37080.5 2342.56  60
  -1   3 -11 40425.0 2908.15  61
   1   3  11 36817.0 1976.48  39
  -1   3 -11 39195.8 2585.73  18
   1   3  11 41501.7 2365.06  17
   1   3  11 40619.3 2254.57   8
   1   3  11 39815.1 2229.02   9
   1   3  11 41518.9 2376.85   7
  -1   3 -11 31952.7 2178.88   4
   1   3  11 33328.5 1957.10   1
   1   3  11 50399.1 2702.54   6
  -1   3 -11 40495.4 2535.10   5
  -1   3 -11 38006.0 2645.23   3
  -1   3 -12 20046.7 1745.87  60
  -1   3 -12 20956.8 2072.83  61
  -1   3 -12 19737.4 1799.29  18
   1   3  12 17757.0 1289.96  39
   1   3  12 21950.6 1601.82   8
   1   3  12 20167.1 1617.92   7
   1   3  12 21764.5 1637.88   9
  -1   3 -12 17051.1 1583.31   4
   1   3  12 17001.8 1374.60   1
   1   3  12 25258.7 1925.54   6
  -1   3 -12 20829.9 1749.97   5
  -1   3 -12 19045.5 1865.30   3
  -1   3 -13 6951.31 1078.52  48
  -1   3 -13 7031.64 997.081   4
   1   3  13 9448.05 1193.11   6
  -1   3 -13 7778.42 1027.43   5
  -1   3 -13 6682.75 978.216  60
  -1   3 -13 7328.57 1207.12  61
   1   3  13 8478.59 957.585   8
   1   3  13 6226.06 875.107   9
   1   3  13 6610.08 888.227   7
  -1   3 -13 6466.02 990.367  18
  -1   3 -14 6686.63 966.558   4
   1   3  14 7364.89 1030.35   6
  -1   3 -14 8067.61 966.472   5
  -1   3 -14 7445.15 1160.32  61
   1   3  14 7927.57 901.941   8
   1   3  14 6710.98 863.802   7
   1   3  14 7806.06 962.226   9
  -1   3 -14 6373.94 977.323  18
   1   3  15 10729.8 1009.41   8
   1   3  15 11417.9 1055.06   7
   1   3  15 9914.46 1048.24   9
  -1   3 -15 10268.5 1162.39   4
   1   3  15 13634.1 1317.44   6
  -1   3 -15 12601.5 1406.04   3
  -1   3 -15 10538.5 1106.87  18
   1   3  15 12308.3 1203.94  17
  -1   3 -16 11450.3 1149.37   4
   1   3  16 14096.1 1239.37   6
  -1   3 -16 12591.9 1311.40   3
   1   3  16 12860.7 1160.28  17
   1   3  16 11021.0 899.677  25
   1   3  16 12034.7 974.365   7
   1   3  16 11725.1 1059.75   9
   1   3  16 11599.4 951.677   8
   1   3  17 34484.0 1419.03  25
  -1   3 -17 36044.0 2032.23   3
  -1   3 -17 33657.6 1847.22   4
   1   3  17 39182.8 1911.85  17
   1   3  17 37159.9 1743.87   9
   1   3  17 30636.1 1399.71   8
   1   3  17 31880.5 1401.11   7
  -1   3 -18 2611.47 457.644   3
  -1   3 -18 2245.27 395.020   4
   1   3  18 2545.63 410.390  17
   1   3  18 2394.98 400.523  26
   1   3  19 9633.40 666.328  26
   1   3  19 11754.4 720.715  17
  -1   3 -19 9927.62 665.690   3
  -1   4  18 2010.10 267.042  17
   1   4 -18 1472.23 249.333   4
   1   4 -17 2871.80 371.771  29
  -1   4  17 3350.87 440.314  17
   1   4 -17 2791.17 451.989   4
   1   4 -17 2986.70 441.347   3
  -1   4  16 17636.1 958.690   8
  -1   4  16 18669.5 1061.62   7
   1   4 -16 18610.3 1323.53   3
   1   4 -16 17017.2 1310.51   4
   1   4 -16 18217.4 1177.88  29
  -1   4  15 13002.3 963.549   8
  -1   4  15 14838.8 1093.81   7
   1   4 -15 13991.2 1176.56  29
   1   4 -15 12805.8 1236.82   4
   1   4 -15 15134.6 1334.04   3
  -1   4  15 13955.2 1199.97   6
  -1   4  14 33389.1 1787.67   8
  -1   4  14 31805.2 1855.24   7
  -1   4  14 33560.9 1684.56  39
   1   4 -14 34831.5 2105.03  29
   1   4 -14 32451.1 2175.40   4
   1   4 -14 32463.4 2197.17   3
  -1   4  14 35293.8 2089.25   6
  -1   4  13 8863.38 911.344  39
  -1   4  13 10026.8 1078.71  17
   1   4 -13 8281.66 1098.91   4
   1   4 -13 9079.24 1208.86   3
  -1   4  13 8912.51 1085.65   6
  -1   4  13 9432.84 980.860   8
  -1   4  13 8995.52 919.857   9
  -1   4  13 9328.02 1039.99   7
   1   4 -12 310.144 243.436  61
  -1   4  12-71.7153 178.013  17
   1   4 -12 167.675 131.626  18
  -1   4  12 284.237 221.723  39
  -1   4  12 451.833 247.268   7
  -1   4  12 163.978 199.399   8
  -1   4  12 392.121 190.883   9
   1   4 -12 153.063 219.349   3
   1   4 -12 140.927 233.199   4
  -1   4  12 40.0211 157.076   6
   1   4 -11 979.275 367.231  48
  -1   4  11 1122.85 398.877   7
  -1   4  11 979.817 348.269   8
  -1   4  11 1207.93 340.341   9
  -1   4  11 1246.18 397.283  17
   1   4 -11 1392.55 408.060  18
   1   4 -11 1395.69 478.656  29
  -1   4  11 1286.64 437.731   2
   1   4 -11 1156.94 448.343   4
   1   4 -10 1727.18 486.191  48
  -1   4  10 1282.41 436.508   7
  -1   4  10 1450.02 437.056   8
  -1   4  10 1573.48 450.414  17
   1   4 -10 1125.15 401.555  18
   1   4 -10 1628.82 501.483  29
  -1   4  10 1226.08 452.205   2
   1   4 -10 963.377 423.610   4
   1   4  -9 16536.1 1883.52  61
   1   4  -9 15729.2 1518.23  48
  -1   4   9 17503.1 1475.90  17
   1   4  -9 13710.9 1426.32  18
  -1   4   9 16719.5 1460.10   8
  -1   4   9 18838.8 1627.96   7
   1   4  -9 14101.2 1520.43   4
  -1   4   9 19500.7 1664.18   2
  -1   4   9 18968.9 1612.26   6
  -1   4   8 155888. 5298.67   2
  -1   4   8 156729. 5230.75   6
   1   4  -8 114449. 5175.54   3
   1   4  -8 129277. 5182.48   4
   1   4  -8 144005. 5909.13  61
  -1   4   8 150405. 5076.17  59
   1   4  -8 149871. 5223.72  59
  -1   4   8 134405. 4620.03  62
   1   4  -8 131672. 5009.31  48
  -1   4   8 137873. 4815.74  55
  -1   4   8 146819. 4862.91  17
   1   4  -8 105161. 4749.27  18
   1   4  -8 130386. 4478.03  38
   1   4  -8 115918. 4226.26  30
   1   4  -8 134321. 4485.21  31
  -1   4   8 137963. 4899.20   8
  -1   4   8 137996. 5085.41   7
  -1   4   7 20770.5 1601.47   8
   1   4  -7 17491.0 1621.71   4
   1   4  -7 18001.0 1740.87   3
  -1   4   7 21296.0 1659.09   6
   1   4  -7 18786.3 1886.59  61
  -1   4   7 20019.6 1676.56  59
   1   4  -7 21352.4 1614.82  62
  -1   4   7 20195.3 1552.51  62
   1   4  -7 22954.7 1837.98  59
   1   4  -7 17932.1 1565.46  48
  -1   4   7 20767.6 1656.92  55
   1   4  -7 21195.4 1661.94  55
  -1   4   7 21074.9 1535.08  17
   1   4  -7 18398.6 1659.05  18
   1   4  -7 20200.9 1497.64  38
  -1   4   7 18370.3 1449.31  38
   1   4  -7 20142.3 1479.13  31
   1   4  -7 17231.5 1348.07  30
   1   4  -7 24386.2 2449.26  20
  -1   4   6 56126.5 2963.82   7
   1   4  -6 57553.7 3048.64   4
  -1   4   6 63316.7 3032.30   2
   1   4  -6 53912.2 3101.48   3
  -1   4   6 65627.3 2999.83   6
  -1   4   6 56646.9 3045.22  59
  -1   4   6 59846.9 2887.01  62
   1   4  -6 54867.0 3274.62  61
   1   4  -6 60385.0 2984.00  62
   1   4  -6 68606.0 3392.68  59
   1   4  -6 72805.0 3271.50  55
  -1   4   6 65074.8 3132.45  55
  -1   4   6 62699.4 2751.93  17
  -1   4   6 45009.9 2455.43  18
   1   4  -6 58611.9 3093.97  18
   1   4  -6 60601.0 2836.99  38
   1   4  -6 58361.3 2812.11  31
   1   4  -6 71627.9 4362.06  20
   1   4  -5 9501.64 1123.39   4
  -1   4   5 9182.23 1027.35   6
  -1   4   5 10274.4 1112.54   2
   1   4  -5 9835.50 1211.75   3
   1   4  -5 9052.90 1212.19  61
   1   4  -5 9494.10 1113.93  62
  -1   4   5 12039.0 1349.50  59
  -1   4   5 10141.4 1127.12  62
   1   4  -5 12084.0 1357.63  59
  -1   4   5 12125.2 1291.31  55
   1   4  -5 10518.1 1190.78  55
  -1   4   5 8261.77 924.835  18
   1   4  -5 8106.92 1071.79  18
   1   4  -5 9019.95 1035.19  38
   1   4  -5 10149.7 1085.01  31
   1   4  -5 8021.54 988.609  29
  -1   4   5 10326.0 1137.17   7
   1   4  -4 84.5280 196.268   3
  -1   4   4 310.027 209.446   2
   1   4  -4 380.615 211.256   4
  -1   4   4 277.428 195.078   6
   1   4  -4 88.7442 174.155  61
   1   4  -4 278.309 257.447  59
   1   4  -4 115.676 135.371  62
  -1   4   4-45.2321 137.524  59
  -1   4   4 187.146 185.819  62
   1   4  -4 83.4642 163.796  55
  -1   4   4 41.4299 125.969  55
  -1   4   4 434.932 204.025  18
   1   4  -4 123.110 161.067  18
   1   4  -4 214.561 188.301  38
   1   4  -4 324.559 180.148  29
  -1   4   4 282.840 214.963   7
  -1   4   4 193.092 169.464   8
   1   4  -3 13282.2 1342.52   3
  -1   4   3 14501.4 1258.62   2
  -1   4   3 13167.2 1144.37   6
   1   4  -3 12787.2 1254.77   4
  -1   4   3 16392.4 1605.49  59
  -1   4   3 13329.7 1300.87  62
   1   4  -3 13491.0 1366.95  61
   1   4  -3 16987.5 1621.40  59
   1   4  -3 15560.3 1437.65  62
   1   4  -3 14040.0 1409.03  55
  -1   4   3 15143.1 1487.06  55
  -1   4   3 14012.9 1234.29  18
   1   4  -3 14744.6 1387.32  18
   1   4  -3 13372.1 1015.64  39
   1   4  -3 13386.8 1281.35  38
   1   4  -3 14487.6 1188.85  29
  -1   4   3 14235.7 1271.53   7
  -1   4   3 14961.1 1250.33   8
  -1   4   2 28489.9 1771.24   2
  -1   4   2 27691.5 1629.95   6
   1   4  -2 28414.8 1945.98   3
  -1   4   2 36567.3 2403.62  59
   1   4  -2 36610.9 2417.46  59
   1   4  -2 29344.6 1950.66  61
  -1   4   2 28201.6 1942.82  62
   1   4  -2 29681.1 2027.73  62
  -1   4   2 31576.9 2169.39  55
   1   4  -2 33109.6 2207.17  55
  -1   4   2 32466.2 1946.01  18
   1   4  -2 26325.4 1850.96  38
   1   4  -2 31315.3 1657.28  39
   1   4  -2 24122.8 1594.81  29
  -1   4   2 26755.3 1759.81   7
  -1   4   2 28928.8 1777.31   8
  -1   4   1 29716.4 1782.47   2
  -1   4   1 27954.4 1600.14   6
   1   4  -1 34127.5 2101.36   3
   1   4  -1 40371.4 2549.98  59
   1   4  -1 32094.8 2132.68  62
   1   4  -1 34938.1 2282.77  55
  -1   4   1 38502.0 2166.27  18
   1   4  -1 35632.9 1841.03  39
   1   4  -1 34761.4 1759.99  29
  -1   4   1 29775.7 1812.68   7
  -1   4   1 33651.0 1883.41   8
  -1   4   0 47423.4 2385.09   2
  -1   4   0 65912.8 2980.05   5
   1   4   0 68304.7 3024.50   3
  -1   4   0 55560.3 2293.21   6
   1   4   0 72534.0 3512.05  59
  -1   4   0 75605.5 3575.26  59
  -1   4   0 60031.9 2973.80  62
   1   4   0 63298.8 3081.50  62
  -1   4   0 65841.1 2633.65  61
   1   4   0 65425.5 3210.59  55
   1   4   0 65635.9 2683.42  39
   1   4   0 52250.3 2757.40  38
   1   4   0 61442.3 2330.43  25
  -1   4   0 68967.6 3084.72  18
   1   4   0 69196.9 3104.40  18
   1   4   0 47130.2 2231.93   8
  -1   4   0 52250.0 2481.55   7
  -1   4   0 63800.1 2680.85   8
  -1   4  -1 15602.7 1551.45  59
  -1   4  -1 12639.8 1277.25  62
  -1   4  -1 13465.4 1176.45  61
   1   4   1 15296.3 1374.10  18
  -1   4  -1 12363.1 1283.16  18
   1   4   1 12055.2 1082.54  39
   1   4   1 12147.1 1212.05  38
  -1   4  -1 11181.7 978.563   2
   1   4   1 14148.7 1001.40   6
  -1   4  -1 12858.0 1115.31   3
  -1   4  -1 14507.0 1333.73   5
   1   4   1 12547.9 1227.57   3
  -1   4  -1 12601.4 1046.62   8
   1   4   1 14437.7 1107.61   7
   1   4   1 10692.4 954.758   8
  -1   4  -1 9992.10 927.609   7
   1   4   2 28822.0 2134.39  59
  -1   4  -2 29655.2 2172.99  59
  -1   4  -2 27123.7 1840.67  61
   1   4   2 24913.2 1832.83  62
  -1   4  -2 24934.3 1830.84  62
   1   4   2 25807.5 1928.84  55
  -1   4  -2 24975.3 1859.19  18
   1   4   2 28226.4 1891.02  18
   1   4   2 23050.5 1577.10  39
   1   4   2 22634.4 1714.76  38
   1   4   2 18807.6 1426.65   2
  -1   4  -2 23549.6 1386.85   2
   1   4   2 26434.2 1540.63   6
   1   4   2 24243.0 1725.91   3
  -1   4  -2 26280.1 1697.37   3
  -1   4  -2 24967.5 1838.16   5
   1   4   2 24775.2 1565.89   7
   1   4   2 23834.5 1492.41   8
  -1   4  -3 34830.8 2221.64  61
   1   4   3 35379.6 2366.38  59
  -1   4  -3 40330.9 2567.74  59
  -1   4  -3 30837.1 2059.44  62
   1   4   3 32404.2 2105.39  62
  -1   4  -3 38255.7 2408.78  55
   1   4   3 36925.3 2305.11  55
   1   4   3 38707.7 2215.92  18
  -1   4  -3 32489.7 2197.95  18
   1   4   3 29752.3 1963.29  38
  -1   4  -3 31332.2 2001.21   3
   1   4   3 25251.7 1731.12   2
  -1   4  -3 32848.7 1578.36   2
   1   4   3 33317.4 1838.09   6
  -1   4  -3 32403.1 2133.96   5
   1   4   3 26956.9 1764.10   7
   1   4   3 28401.4 1747.31   8
  -1   4  -4 4455.58 810.466  61
  -1   4  -4 5482.44 912.382  59
  -1   4  -4 4651.46 773.918  62
   1   4   4 4519.33 763.208  62
   1   4   4 6272.72 982.995  59
  -1   4  -4 5676.22 906.744  55
   1   4   4 5029.47 823.521  55
  -1   4  -4 4371.77 799.601  18
   1   4   4 4637.16 772.611  18
   1   4   4 4204.76 701.961  38
   1   4   4 4635.94 691.462   8
   1   4   4 3866.07 663.155   7
   1   4   4 3780.53 655.208   2
  -1   4  -4 4426.59 745.254   3
  -1   4  -4 3693.04 724.464   5
   1   4   4 4364.58 655.411   6
  -1   4  -5 68329.3 3333.14   3
  -1   4  -5 67118.2 3404.89   5
   1   4   5 69140.5 3044.88   6
  -1   4  -5 81931.0 3735.00  59
  -1   4  -5 68333.1 3573.49  61
  -1   4  -5 70931.7 3257.04  62
   1   4   5 77188.9 3400.35  62
   1   4   5 60203.3 3308.41  59
   1   4   5 79747.1 3494.32  55
  -1   4  -5 90484.0 3775.14  55
  -1   4  -5 66618.4 3447.91  18
   1   4   5 60457.0 3214.70  18
   1   4   5 58913.0 2618.51  17
   1   4   5 65831.6 3029.01  38
   1   4   5 64672.2 3023.11  39
   1   4   5 75555.7 3165.74  31
   1   4   5 74844.8 3246.41   7
   1   4   5 78684.4 3178.46   8
   1   4   6 44459.8 2423.31   6
  -1   4  -6 43999.5 2637.38   3
  -1   4  -6 41105.8 2394.46  62
  -1   4  -6 46517.0 2721.12  59
   1   4   6 36887.5 2480.86  59
   1   4   6 46090.5 2511.24  62
  -1   4  -6 48909.9 3041.34  61
   1   4   6 44359.7 2529.48  55
  -1   4  -6 52693.2 2771.20  55
   1   4   6 39587.4 2084.23  17
   1   4   6 44041.4 2327.72  38
   1   4   6 42896.4 2369.96  39
   1   4   6 45021.2 2294.86  31
   1   4   6 45032.8 2494.81   7
   1   4   6 42147.9 2330.69   8
   1   4   7 44738.5 2412.90   8
   1   4   7 48446.1 2612.84   7
   1   4   7 45911.7 2536.03   6
  -1   4  -7 40153.7 2609.43   3
  -1   4  -7 45865.2 2625.82  59
   1   4   7 40811.6 2337.96  62
   1   4   7 41961.0 2556.82  59
  -1   4  -7 44649.0 2393.47  62
  -1   4  -7 43212.1 2944.70  61
  -1   4  -7 46583.4 2592.44  55
   1   4   7 45023.3 2456.98  55
   1   4   7 40359.8 2168.95  17
   1   4   7 40031.4 2172.73  38
  -1   4  -7 40410.9 2239.63  38
   1   4   7 43631.7 2390.65  39
   1   4   7 44524.2 2199.40  31
   1   4   7 35525.2 1965.04  30
   1   4   7 37788.7 1996.56  26
   1   4   8 37668.6 2189.30  55
  -1   4  -8 29404.8 2324.10  18
   1   4   8 35942.7 2081.80  17
  -1   4  -8 34880.4 1970.57  38
   1   4   8 40734.3 2282.64  39
  -1   4  -8 41289.7 2376.90  59
   1   4   8 35365.7 2094.35  62
   1   4   8 31068.2 2162.25  59
  -1   4  -8 52505.6 3240.73  61
  -1   4  -8 31661.1 2351.11   5
  -1   4  -8 34972.6 2065.81   4
   1   4   8 48312.4 2617.29   6
  -1   4  -8 33555.7 2427.41   3
  -1   4  -9 8007.85 1273.56  61
  -1   4  -9 6602.92 1040.97  48
  -1   4  -9 6367.79 1041.57  18
   1   4   9 7565.05 936.563  17
   1   4   9 7007.07 908.895  39
  -1   4  -9 7041.36 920.677   4
   1   4   9 8723.03 1113.79   6
  -1   4  -9 5497.21 981.036   3
  -1   4  -9 4888.77 899.688   5
   1   4   9 8254.65 1005.79   8
   1   4   9 7798.01 1036.35   7
  -1   4 -10 4628.93 894.055  48
  -1   4 -10 4974.86 944.903  18
   1   4  10 5442.09 807.103  17
   1   4  10 4958.07 763.499  39
   1   4  10 6352.03 963.321   6
  -1   4 -10 3995.65 865.997   3
  -1   4 -10 5112.31 906.797   5
  -1   4 -10 6227.61 847.722   4
   1   4  10 5419.33 832.596   8
   1   4  10 5389.10 857.717   7
  -1   4 -11 2994.11 682.556  48
   1   4  11 3275.68 602.001  39
  -1   4 -11 3679.91 650.214   4
  -1   4 -11 3252.46 788.280   3
  -1   4 -11 3342.62 714.291   5
   1   4  11 4511.63 744.714   8
   1   4  11 4140.79 736.740   7
  -1   4 -11 3902.25 811.124  18
   1   4  11 3915.20 680.208  17
   1   4  12 6515.14 781.544  39
  -1   4 -12 6286.58 860.662   4
  -1   4 -12 7192.53 1101.36   3
  -1   4 -12 7188.60 1007.21   5
   1   4  12 8060.36 955.087   8
   1   4  12 7892.53 991.442   7
  -1   4 -12 6527.42 1018.71  18
   1   4  12 8089.78 967.701  17
   1   4  13 27624.3 1806.55  17
  -1   4 -13 27508.1 1939.38  18
  -1   4 -13 21942.8 1614.13   4
   1   4  13 31927.9 2096.46   6
  -1   4 -13 26172.4 2063.85   3
  -1   4 -13 24305.7 1782.54   5
   1   4  13 26120.0 1469.43  39
   1   4  13 21074.6 1521.56  26
   1   4  13 26977.8 1742.01   8
   1   4  13 26310.3 1773.88   7
  -1   4 -14 23823.0 1595.11   4
  -1   4 -14 24573.1 1893.39   3
   1   4  14 33142.0 2021.87   6
  -1   4 -14 26717.0 1745.11  18
   1   4  14 27808.5 1730.03  17
   1   4  14 23008.6 1504.77  26
   1   4  14 29823.9 1697.70   8
   1   4  14 27967.3 1717.22   7
  -1   4 -15 20370.9 1335.51   4
   1   4  15 27001.9 1693.03   6
   1   4  15 23828.6 1484.71  17
   1   4  15 21044.5 1317.44  26
   1   4  15 22588.6 1353.61  25
   1   4  15 24207.0 1402.31   8
   1   4  15 23216.2 1400.34   7
   1   4  16 5118.37 520.914  25
  -1   4 -16 4647.10 506.226   4
   1   4  16 5612.09 622.735  17
  -1   4 -16 4323.20 553.612  29
   1   4  16 4797.85 528.225  26
   1   4  16 5002.31 533.501   7
   1   4  16 4757.26 520.356   8
  -1   4 -17 4397.92 537.986   3
   1   4  17 4708.35 483.992  17
   1   4  17 3393.06 346.006  26
   1   4  17 3974.30 347.761  25
  -1   5  15 719.847 183.725  17
   1   5 -15 698.485 216.783   3
  -1   5  15 700.422 179.703  25
  -1   5  15 591.384 165.750   7
  -1   5  15 492.995 142.510   8
  -1   5  14 212.418 102.905  39
  -1   5  14 211.016 124.214   8
  -1   5  14 168.778 123.186   7
   1   5 -14 25.8697 120.163   3
  -1   5  14 157.181 130.078  17
  -1   5  13 11677.9 887.439  39
  -1   5  13 13309.1 993.493   8
  -1   5  13 12120.8 1003.43   7
   1   5 -13 12200.4 1066.58  29
  -1   5  13 12080.8 947.679  17
  -1   5  12 32250.8 1714.95  17
  -1   5  12 27615.3 1710.48   7
  -1   5  12 30496.1 1699.59   8
  -1   5  12 28757.2 1634.51  39
   1   5 -12 28798.1 1798.44  29
  -1   5  12 27286.8 1740.63   6
   1   5 -11 34217.8 1947.13  18
  -1   5  11 34533.7 1873.48  17
  -1   5  11 35381.9 1965.45   8
  -1   5  11 31466.2 1957.79   7
  -1   5  11 33626.1 1911.89  39
   1   5 -11 33167.8 2040.77  29
  -1   5  11 37598.4 2134.36   6
   1   5 -11 28904.2 2121.11   3
   1   5 -11 27629.8 1921.16   4
   1   5 -10 26543.7 1844.26  18
  -1   5  10 30476.5 1788.71  17
  -1   5  10 25234.9 1809.15   7
  -1   5  10 30164.9 1876.71   8
  -1   5  10 26071.8 1756.95  39
   1   5 -10 27897.2 1934.81  29
  -1   5  10 33233.5 2032.95   6
   1   5 -10 23092.3 1952.59   3
   1   5 -10 24159.4 1840.04   4
   1   5  -9 5507.34 868.612  18
  -1   5   9 4679.62 689.101  17
  -1   5   9 6193.94 848.892   8
  -1   5   9 7033.39 913.669  39
   1   5  -9 4739.54 805.512  29
  -1   5   9 6576.25 900.117   6
   1   5  -9 3432.80 772.775   3
  -1   5   8 1459.73 433.795   2
   1   5  -8 1110.18 452.314   3
  -1   5   8 1528.76 434.834   6
   1   5  -8 1302.83 446.753  59
   1   5  -8 1189.06 456.106  61
  -1   5   8 1770.39 469.114  59
  -1   5   8 1150.10 349.255  17
   1   5  -8 788.454 385.232  18
  -1   5   8 1250.22 347.483  38
  -1   5   8 1040.19 392.030  39
   1   5  -8 913.982 311.520  38
   1   5  -8 1548.87 386.137  30
   1   5  -8 1420.72 449.598  29
  -1   5   8 1325.12 440.855   7
  -1   5   7 1514.24 461.708   2
   1   5  -7 713.552 400.841   3
  -1   5   7 1443.51 441.307   6
   1   5  -7 1166.65 447.525  61
   1   5  -7 1612.19 500.824  59
  -1   5   7 1935.10 524.515  59
  -1   5   7 1334.29 396.638  62
  -1   5   7 1108.46 375.251  55
  -1   5   7 1247.67 358.325  17
   1   5  -7 1106.17 413.241  18
  -1   5   7 1528.26 465.257  39
   1   5  -7 1406.90 404.788  38
  -1   5   7 1143.60 385.495  38
   1   5  -7 1136.62 401.895  29
   1   5  -7 1238.33 358.192  31
   1   5  -7 925.011 327.404  30
  -1   5   7 1023.53 394.374   7
  -1   5   6 7019.48 910.404   6
  -1   5   6 8094.35 1061.83   2
   1   5  -6 8372.72 1210.94   3
   1   5  -6 9555.71 1301.04  59
   1   5  -6 7745.40 1053.08  62
  -1   5   6 8900.88 1206.12  59
  -1   5   6 7820.42 1012.38  62
   1   5  -6 7832.09 1105.46  55
   1   5  -6 7472.91 963.437  48
  -1   5   6 8568.22 1118.32  55
  -1   5   6 7479.79 838.683  17
  -1   5   6 6119.87 849.340  18
   1   5  -6 6274.52 1012.47  18
   1   5  -6 7573.91 975.166  38
  -1   5   6 7108.90 958.583  38
   1   5  -6 6336.98 911.518  29
   1   5  -6 5779.22 868.977  31
   1   5  -6 6266.90 858.175  30
  -1   5   6 7826.87 1030.52   7
  -1   5   6 7805.14 995.339   8
  -1   5   5 18406.7 1587.53   2
   1   5  -5 20130.9 1849.16   3
  -1   5   5 16321.8 1388.32   6
  -1   5   5 21225.2 1946.42  59
   1   5  -5 19768.5 1923.58  59
  -1   5   5 16931.9 1589.69  62
   1   5  -5 17609.4 1674.50  62
   1   5  -5 19845.2 1825.64  55
   1   5  -5 18986.2 1549.02  48
  -1   5   5 16474.9 1664.34  55
  -1   5   5 15485.9 1205.75  17
  -1   5   5 18148.6 1469.04  18
   1   5  -5 15801.4 1616.41  18
   1   5  -5 16118.7 1521.57  38
  -1   5   5 14889.4 1409.94  39
  -1   5   5 17295.5 1568.34  38
   1   5  -5 17675.4 1549.57  31
   1   5  -5 14876.0 1377.58  29
   1   5  -5 14855.8 1409.22  30
  -1   5   5 15744.7 1439.68   8
  -1   5   5 18027.3 1567.92   7
  -1   5   4 69769.3 3301.04   2
  -1   5   4 63440.6 2938.14   6
   1   5  -4 81120.8 3842.82   3
   1   5  -4 87252.1 4286.83  59
  -1   5   4 84652.4 4133.00  59
   1   5  -4 77631.8 3777.89  62
  -1   5   4 70664.8 3542.89  62
  -1   5   4 74601.5 3802.49  55
   1   5  -4 78328.4 3884.45  55
  -1   5   4 78099.9 3386.29  18
   1   5  -4 77713.4 3756.48  18
  -1   5   4 62201.8 3290.83  38
   1   5  -4 64545.2 3317.84  38
  -1   5   4 56218.1 2996.24  39
   1   5  -4 75057.8 3487.40  31
   1   5  -4 65894.1 3085.95  29
  -1   5   4 70009.3 3233.38   8
  -1   5   4 69514.4 3281.57   7
  -1   5   3 59667.6 2990.73   2
  -1   5   3 58834.4 2709.70   6
   1   5  -3 77238.5 3673.00   3
  -1   5   3 63374.9 3385.47  62
  -1   5   3 77576.5 3973.77  59
   1   5  -3 78859.4 4114.24  59
   1   5  -3 68940.0 3555.19  62
   1   5  -3 69302.0 3692.05  55
  -1   5   3 73964.8 3769.18  55
  -1   5   3 76645.1 3355.44  18
  -1   5   3 61666.5 3272.26  38
   1   5  -3 65107.6 2641.28  39
   1   5  -3 60454.5 3230.91  38
  -1   5   3 50983.0 2793.22  39
   1   5  -3 63026.1 3248.87  31
   1   5  -3 62967.8 2851.39  29
  -1   5   3 60042.4 2997.25   7
  -1   5   3 64972.7 3060.05   8
  -1   5   2 4637.85 744.910   2
   1   5  -2 7090.63 1067.63   3
  -1   5   2 5996.03 718.843   6
  -1   5   2 8156.61 1254.87  59
   1   5  -2 7972.01 1270.27  59
  -1   5   2 5640.10 962.959  62
   1   5  -2 7009.88 1081.14  62
   1   5  -2 6773.57 1108.55  55
  -1   5   2 7850.23 1186.35  55
  -1   5   2 7454.09 1007.69  18
   1   5  -2 5407.63 904.926  38
  -1   5   2 5676.53 929.442  38
   1   5  -2 6533.88 783.651  39
  -1   5   2 7125.55 908.732  39
   1   5  -2 7419.59 817.268  29
   1   5  -2 7411.69 1036.30  31
  -1   5   2 6369.71 861.998   7
  -1   5   2 6734.81 895.627   8
   1   5  -1 9072.91 1350.61  59
   1   5  -1 6056.83 1004.19  62
   1   5  -1 6445.66 1080.44  55
   1   5  -1 9796.17 1217.28  18
  -1   5   1 7320.95 1008.99  18
   1   5  -1 7385.83 861.791  39
  -1   5   1 6507.30 853.415  39
  -1   5   1 6534.34 1005.96  38
  -1   5   1 6052.84 811.996   7
  -1   5   1 6251.62 841.810   8
  -1   5   1 5621.07 782.375   2
   1   5  -1 7739.54 1095.67   3
  -1   5   0 5437.78 727.466   2
   1   5   0 7184.87 1028.23   3
  -1   5   0 7079.19 1163.62  59
   1   5   0 7677.26 1275.69  59
  -1   5   0 4663.89 878.777  62
   1   5   0 5101.42 925.114  62
   1   5   0 6718.20 1107.51  55
  -1   5   0 6192.69 1065.07  55
   1   5   0 8220.40 1139.49  18
  -1   5   0 6963.48 1012.99  18
  -1   5   0 6257.33 803.973  39
  -1   5   0 5539.38 928.793  38
   1   5   0 6138.61 962.156  38
   1   5   0 6630.84 845.394  39
   1   5   0 5345.88 886.147  31
   1   5   0 5839.52 685.360   8
  -1   5   0 5389.50 726.942   7
  -1   5   0 4632.57 713.186   8
   1   5   1 3496.24 568.773   8
  -1   5  -1 3390.03 576.168   8
   1   5   1 4267.68 625.655   7
  -1   5  -1 4553.80 959.691  59
  -1   5  -1 5047.85 902.221  62
  -1   5  -1 4706.75 930.405  55
  -1   5  -1 4446.99 825.170  18
   1   5   1 5512.34 912.726  18
   1   5   1 5239.48 879.927  38
  -1   5  -1 4029.20 603.635  39
   1   5   1 4646.40 725.081  39
   1   5   1 4239.79 791.476  31
   1   5   1 3985.52 569.136  25
   1   5   2 36255.1 2037.85   7
   1   5   2 30722.1 1886.18   8
  -1   5  -2 28779.9 1755.58   8
  -1   5  -2 39804.7 2256.27   3
  -1   5  -2 44502.4 2980.91  59
   1   5   2 35651.6 2497.19  62
  -1   5  -2 34370.2 2427.24  62
   1   5   2 45268.4 3060.50  59
   1   5   2 37996.4 2662.84  55
  -1   5  -2 40135.0 2737.00  55
   1   5   2 46064.3 2677.70  18
  -1   5  -2 40121.1 2598.30  18
   1   5   2 35419.7 2159.32  39
  -1   5  -2 31981.1 2281.28  38
  -1   5  -2 35553.1 1823.90  39
   1   5   2 32452.2 2296.13  38
   1   5   2 34636.1 2323.58  31
   1   5   2 34119.5 1859.39  25
   1   5   3 61716.3 2931.68   8
   1   5   3 64250.5 3030.68   7
  -1   5  -3 73610.7 3377.23   3
  -1   5  -3 86977.1 4299.48  59
  -1   5  -3 69735.0 3596.44  62
   1   5   3 82859.1 4232.65  59
   1   5   3 70738.2 3652.66  62
   1   5   3 72157.0 3792.98  55
  -1   5  -3 82384.4 4016.91  55
  -1   5  -3 79690.0 3811.92  18
   1   5   3 87219.9 3922.04  18
   1   5   3 73335.9 3535.45  38
  -1   5  -3 66937.9 3455.98  38
   1   5   3 64576.2 3145.15  39
   1   5   3 73406.6 3454.77  31
   1   5   3 68378.4 2913.29  25
   1   5   4 29293.9 1903.04   8
   1   5   4 29790.6 1961.83   7
  -1   5  -4 31957.3 2164.25   3
  -1   5  -4 30364.7 2316.46   5
   1   5   4 28844.0 1838.27   6
  -1   5  -4 23713.5 1948.85  61
  -1   5  -4 39306.8 2727.75  59
  -1   5  -4 33605.2 2353.53  62
   1   5   4 31506.2 2309.46  62
   1   5   4 36501.8 2680.31  59
   1   5   4 36029.0 2507.16  55
  -1   5  -4 35862.3 2516.25  55
  -1   5  -4 31472.0 2346.90  18
   1   5   4 36305.0 2393.86  18
  -1   5  -4 30812.8 2163.63  38
   1   5   4 31705.1 2159.37  38
   1   5   4 31348.5 2116.88  31
   1   5   4 28396.7 1795.19  25
   1   5   5 3608.52 654.199   8
   1   5   5 3488.60 672.217   7
   1   5   5 3126.47 591.568   6
  -1   5  -5 3044.69 680.705   3
  -1   5  -5 2252.53 624.852   5
  -1   5  -5 3129.06 689.761  61
   1   5   5 4005.79 859.471  59
  -1   5  -5 4333.29 775.122  62
  -1   5  -5 4214.15 850.002  59
   1   5   5 3204.71 675.622  62
   1   5   5 3326.02 705.959  55
  -1   5  -5 3387.10 734.131  55
  -1   5  -5 3390.98 772.206  18
  -1   5  -5 2759.66 621.306  38
   1   5   5 3166.01 651.346  38
   1   5   5 3023.72 595.701  30
   1   5   5 3616.89 670.774  31
   1   5   5 2970.29 562.128  25
   1   5   6 5380.07 811.937   6
  -1   5  -6 6992.21 1038.58   3
  -1   5  -6 5471.49 969.122   5
  -1   5  -6 7067.61 1083.65  59
   1   5   6 6099.82 1031.59  59
  -1   5  -6 6376.80 930.983  62
   1   5   6 5770.72 880.573  62
  -1   5  -6 6070.46 992.845  61
   1   5   6 5917.72 919.425  55
  -1   5  -6 6237.68 947.007  55
  -1   5  -6 4402.61 888.038  18
  -1   5  -6 5751.73 854.785  38
   1   5   6 6190.04 903.375  39
   1   5   6 5913.10 849.378  38
   1   5   6 6136.12 813.446  30
   1   5   6 6515.73 843.314  31
   1   5   6 6189.84 865.464   8
   1   5   6 6824.99 934.075   7
   1   5   7 3424.70 661.477   6
  -1   5  -7 3175.56 702.162   3
   1   5   7 3330.93 712.391  59
  -1   5  -7 4012.45 794.348  59
   1   5   7 3735.40 676.265  62
  -1   5  -7 3500.46 765.230  61
   1   5   7 3409.19 668.507  55
   1   5   7 2572.92 458.714  17
   1   5   7 3322.01 606.292  38
   1   5   7 3833.67 691.792  39
  -1   5  -7 3258.34 605.691  38
   1   5   7 3461.78 579.315  30
   1   5   7 3828.10 679.900   8
   1   5   7 3957.52 721.390   7
   1   5   8 3737.50 707.380  59
  -1   5  -8 3292.22 699.763  48
   1   5   8 3719.24 579.190  38
  -1   5  -8 2796.66 526.056  38
   1   5   8 3749.42 676.384  39
  -1   5  -8 3227.45 726.349   5
   1   5   8 4248.11 755.562   6
  -1   5  -8 4494.91 827.788   3
   1   5   8 3931.73 581.259  17
   1   5   8 4273.76 705.463   8
   1   5   8 3998.20 731.384   7
   1   5   9 35743.7 2077.31  39
   1   5   9 39729.4 2309.25   6
  -1   5  -9 32665.1 2295.80   5
  -1   5  -9 28324.0 2128.58   3
  -1   5  -9 28018.6 2141.82  18
   1   5   9 29437.6 1714.23  17
   1   5   9 37664.7 2222.84   7
  -1   5 -10 41947.4 2545.38  18
   1   5  10 43181.3 2100.82  17
  -1   5 -10 43514.3 2591.56   5
  -1   5 -10 38944.1 2491.42   3
   1   5  10 49149.3 2373.87  39
   1   5  11 25849.6 1561.59  39
   1   5  11 27849.8 1822.28   6
  -1   5 -11 21750.0 1754.88   3
   1   5  11 24463.6 1475.61  17
  -1   5 -11 24072.3 1777.71  18
   1   5  11 27313.5 1750.25   7
   1   5  11 27187.2 1687.00   8
   1   5  12 11400.4 989.099  25
  -1   5 -12 11064.0 1085.88  18
   1   5  12 10793.8 905.600  17
  -1   5 -12 9833.03 1101.56   3
   1   5  12 14181.8 1209.82   6
   1   5  12 11691.9 923.202  39
  -1   5 -12 11823.8 1096.56  29
   1   5  12 13126.2 1064.65   8
   1   5  12 12164.2 1093.57   7
   1   5  13 2056.39 385.048  25
  -1   5 -13 2208.52 432.906  18
   1   5  13 2350.47 378.213  17
  -1   5 -13 1737.65 442.270   3
   1   5  13 2250.21 333.944  39
  -1   5 -13 2276.81 448.842  29
   1   5  13 2173.75 418.811   7
   1   5  13 2480.92 432.023   8
   1   5  14 145.239 109.750  25
  -1   5 -14 71.6100 110.895   3
   1   5  14 249.961 114.369  17
  -1   5 -14 155.002 117.848  29
   1   5  14 199.201 142.180   7
   1   5  14 249.381 139.979   8
  -1   5 -15 4233.59 510.017   3
   1   5  15 5537.56 458.781  25
   1   5  15 4520.16 436.035   7
   1   5  15 4850.76 443.751   8
  -1   6  12 2126.73 256.773  25
  -1   6  12 2405.88 286.455  39
   1   6 -12 2348.16 310.068  29
  -1   6  12 2739.35 325.839   8
  -1   6  11 274.158 116.684  25
   1   6 -11 282.161 174.701   3
  -1   6  11 552.471 171.308  39
   1   6 -11 195.417 132.092  29
  -1   6  11 535.731 170.043   8
  -1   6  10 2027.34 319.222  25
   1   6 -10 1851.35 343.213  18
   1   6 -10 2072.06 431.600   3
  -1   6  10 2393.32 387.761  39
   1   6 -10 2012.03 361.584  29
  -1   6  10 2561.32 416.368   7
  -1   6   9 6079.99 589.961  25
   1   6  -9 9138.52 855.810  18
   1   6  -9 7149.69 862.008   3
  -1   6   9 9313.24 831.456  39
   1   6  -9 7979.54 754.550  29
  -1   6   9 8786.34 830.133   7
  -1   6   8 14155.6 965.714  25
   1   6  -8 21783.7 1465.47  18
   1   6  -8 19092.1 1474.26   3
   1   6  -8 16421.4 1148.35  29
  -1   6   8 23158.5 1402.42   8
  -1   6   8 21852.6 1388.80   7
  -1   6   7 18815.7 1303.39   8
  -1   6   7 17670.3 1279.08   7
   1   6  -7 16009.6 1436.45  59
   1   6  -7 16793.5 1375.55  18
   1   6  -7 17092.0 1445.73   3
   1   6  -7 16102.7 1131.26  38
  -1   6   7 16658.6 1150.06  38
  -1   6   7 15775.0 1058.78  30
   1   6  -7 13853.2 1032.13  30
   1   6  -7 14991.6 1109.79  29
  -1   6   7 12061.5 890.883  25
  -1   6   6 12824.7 1281.15  59
   1   6  -6 12698.1 1374.65  59
   1   6  -6 9595.34 1085.19  18
   1   6  -6 11499.2 1208.03   3
   1   6  -6 10511.1 1007.32  38
  -1   6   6 10223.6 988.529  38
  -1   6   6 9500.72 961.295  39
   1   6  -6 9019.29 903.577  30
   1   6  -6 10519.3 918.810  29
  -1   6   6 11858.3 1052.75   8
  -1   6   6 10083.4 973.829   7
   1   6  -5 3960.49 818.487  59
  -1   6   5 4569.24 820.419  59
   1   6  -5 3552.52 696.294  18
   1   6  -5 5413.48 826.529   3
  -1   6   5 4620.93 701.760  38
  -1   6   5 3777.98 613.659  39
   1   6  -5 4177.08 670.229  38
   1   6  -5 4143.33 548.099  29
   1   6  -5 4309.21 654.563  30
  -1   6   5 3780.00 604.177   8
  -1   6   5 3548.44 584.687   7
  -1   6   4 17655.5 1666.11  59
   1   6  -4 18246.8 1778.55  59
  -1   6   4 15815.2 1291.37  18
   1   6  -4 17210.6 1497.16   3
   1   6  -4 13823.3 1308.06  38
  -1   6   4 14090.1 1307.20  38
  -1   6   4 13365.2 1160.71  39
   1   6  -4 14997.1 1294.11  30
  -1   6   4 11174.0 1054.87   7
  -1   6   4 15009.6 1224.90   8
   1   6  -3 13093.6 1555.05  59
  -1   6   3 13038.7 1487.37  59
  -1   6   3 13328.8 1221.75  18
   1   6  -3 13282.9 1302.02   3
   1   6  -3 11743.4 1218.37  38
  -1   6   3 9251.67 951.067  39
  -1   6   3 10463.0 1163.49  38
   1   6  -3 9797.75 1067.86  30
  -1   6   3 9176.99 949.630   8
  -1   6   3 8628.03 886.932   7
  -1   6   2 18033.0 1339.61  39
   1   6  -2 18352.2 1593.79  38
  -1   6   2 20467.5 1669.30  38
   1   6  -2 24286.2 1861.79  18
  -1   6   2 28030.7 1829.20  18
   1   6  -2 22633.8 2106.27  59
  -1   6   2 22123.9 1972.10  59
  -1   6   2 16230.0 1266.29   8
  -1   6   1 24133.6 1875.17  38
  -1   6   1 26393.8 1562.83  39
   1   6  -1 27145.5 1537.21  39
   1   6  -1 34037.0 2220.47  18
  -1   6   1 36781.8 2146.86  18
   1   6  -1 29211.1 2394.15  59
  -1   6   1 20308.1 1403.01   8
  -1   6   0 12863.1 1007.09  39
   1   6   0 12439.4 1322.63  38
  -1   6   0 12374.9 1315.20  38
   1   6   0 15247.1 1168.77  39
  -1   6   0 17651.4 1506.87  18
   1   6   0 16874.2 1545.20  18
   1   6   0 11140.3 1181.48  30
   1   6   0 14722.0 1698.03  59
  -1   6   0 12913.6 1537.35  59
   1   6   1 16971.4 1293.60  39
   1   6   1 16250.4 1505.23  38
  -1   6  -1 21383.7 1704.69  18
   1   6   1 21770.4 1749.86  18
   1   6   1 14953.3 1373.65  30
  -1   6  -1 20533.5 1920.25  59
  -1   6  -2 10339.7 1189.11  38
   1   6   2 13535.6 1167.02  39
   1   6   2 12627.2 1310.55  38
   1   6   2 15059.1 1467.52  18
  -1   6  -2 15308.5 1454.81  18
   1   6   2 12207.2 1214.20  30
  -1   6  -2 14595.9 1589.91  59
   1   6   2 16230.4 1747.03  59
  -1   6  -3 4265.55 832.959  59
   1   6   3 3781.84 823.745  59
  -1   6  -3 3713.50 721.915  18
   1   6   3 3042.96 563.390  39
  -1   6  -3 3371.62 644.153  38
   1   6   3 3633.31 672.548  38
   1   6   3 2423.86 534.899  30
   1   6   3 2691.81 457.923   8
   1   6   4 1698.54 374.421   8
   1   6   4 2139.38 414.327   7
   1   6   4 2836.85 714.439  59
  -1   6  -4 3344.92 741.132  59
  -1   6  -4 2545.63 598.414  18
  -1   6  -4 2958.54 511.268   3
   1   6   4 2934.40 579.540  38
   1   6   4 2623.10 518.041  39
  -1   6  -4 2354.29 535.403  38
   1   6   4 2171.39 485.509  30
   1   6   4 2115.09 362.136  25
   1   6   5 7268.35 782.803   8
   1   6   5 6042.60 722.423   7
  -1   6  -5 9540.00 1165.68  59
   1   6   5 9352.50 1212.70  59
  -1   6  -5 6899.65 952.959  18
  -1   6  -5 8626.01 895.588   3
  -1   6  -5 7606.50 892.094  38
   1   6   5 8365.54 929.943  38
   1   6   5 6735.59 816.093  39
   1   6   5 7546.96 841.357  30
   1   6   5 6719.15 687.549  25
   1   6   6 13050.4 1081.54   7
   1   6   6 14721.9 1119.04   8
  -1   6  -6 15294.0 1402.83  59
   1   6   6 16651.4 1515.15  59
  -1   6  -6 13871.5 1326.17  18
   1   6   6 12820.0 1088.29  38
  -1   6  -6 12634.4 1082.92  38
  -1   6  -6 14918.8 1196.47   3
   1   6   6 13709.5 1056.59  30
  -1   6  -6 11835.8 905.173  29
   1   6   6 11772.0 942.955  25
   1   6   7 17505.4 1157.49  25
   1   6   7 21486.9 1273.75  38
   1   6   7 22697.1 1447.62  39
  -1   6  -7 22807.5 1475.66   3
  -1   6  -7 17685.8 1156.42  29
   1   6   7 20963.4 1185.81  30
  -1   6  -7 17092.1 1126.81  30
   1   6   7 23793.2 1414.77   8
   1   6   7 21352.2 1381.73   7
   1   6   8 5119.93 583.702  25
  -1   6  -8 4682.17 646.812   3
   1   6   8 5965.58 692.258  39
  -1   6  -8 5100.33 583.225  29
   1   6   8 6201.40 679.286   8
   1   6   8 5940.09 687.625   7
   1   6   9 7257.29 671.205  25
  -1   6  -9 8179.20 874.760  18
  -1   6  -9 7523.33 784.345   3
   1   6   9 9423.04 812.321  39
  -1   6  -9 6633.61 645.288  29
   1   6   9 10038.3 824.071   8
   1   6   9 9884.04 847.282   7
   1   6  10 2963.54 391.506  25
  -1   6 -10 2994.25 482.438  18
  -1   6 -10 2689.82 435.012   3
   1   6  10 3680.09 454.935  39
  -1   6 -10 2842.23 396.697  29
   1   6  10 3463.48 463.225   7
   1   6  10 3830.53 470.923   8
   1   6  11 589.871 168.293  25
  -1   6 -11 880.534 225.744  18
   1   6  11 655.057 171.334  39
  -1   6 -11 614.985 175.890  29
  -1   6 -11 672.189 197.084   3
   1   6  11 619.849 175.348   8
   1   6  11 632.759 189.309   7
   1   6  12 7227.82 482.866  25
   1   6  12 6930.09 520.643   7
  -1   7   6 3269.59 307.165  39
  -1   7   5 5525.77 419.123  39
   1   7  -5 4751.22 405.431  30
   1   7  -4 7335.69 599.112  38
  -1   7   4 8338.42 629.510  38
   1   7  -4 6779.88 563.391  30
  -1   7   4 7853.18 576.369  30
   1   7  -3 14523.1 931.342  38
  -1   7   3 14553.2 931.479  38
  -1   7   3 14126.5 869.310  30
   1   7  -3 12846.8 853.149  30
  -1   7   2 4299.10 516.509  38
   1   7  -2 3834.21 503.196  38
  -1   7   2 4434.74 500.680  30
   1   7  -2 4200.25 500.880  30
  -1   7   1 824.246 244.225  38
  -1   7   1 936.972 252.720  30
  -1   7   0 974.185 259.363  38
   1   7   0 1039.77 276.878  38
   1   7   0 813.787 238.155  30
  -1   7   0 665.751 217.203  30
   1   7   1 2301.71 394.996  38
  -1   7  -1 2925.80 426.058  18
   1   7   1 2125.00 366.804  30
   1   7   2 11298.2 853.097  38
  -1   7  -2 10551.9 820.797  38
   1   7   2 11373.1 810.854  30
  -1   7  -2 9955.54 764.010  30
   1   7   3 13214.2 866.591  38
  -1   7  -3 11769.5 816.692  38
  -1   7  -3 14911.8 956.999  18
  -1   7  -3 11680.7 781.274  30
   1   7   3 13485.2 826.098  30
   1   7   4 10978.2 714.005  38
  -1   7  -4 9619.44 662.195  38
   1   7   4 8134.76 575.538  39
  -1   7  -4 12234.6 842.191  18
  -1   7  -4 8677.31 618.028  30
   1   7   4 11204.2 673.707  30
   1   7   5 3922.90 376.391  39
  -1   7  -5 4333.64 474.720  18
   1   7   6 1409.45 211.549  39
  -1   7  -6 1334.19 247.551  18
   2  -7  -5 12890.3 766.912  14
   2  -7  -5 10682.0 737.466  15
   2  -7  -4 12589.7 1341.38  22
   2  -7  -4 14332.8 868.130  14
   2  -7  -4 12059.2 862.100  15
   2  -7  -3 4192.98 880.762  22
   2  -7  -3 4524.43 923.130  40
   2  -7  -3 3288.25 420.093  14
   2  -7  -3 3436.51 461.476  15
   2  -7  -2 4326.73 493.632  14
   2  -7  -2 4311.03 532.544  15
   2  -7  -1 125.853 312.416  40
   2  -7  -1 216.554 129.396  15
   2  -7  -1 397.022 171.464  14
   2  -7   0 63.9069 224.319  40
   2  -7   0-19.7077 97.8298  15
   2  -7   0-17.2661 95.8261  14
   2  -7   1 10688.5 793.981  14
   2  -7   1 11093.3 859.524  15
   2  -7   2 8295.03 679.325  14
   2  -7   2 8362.90 731.164  15
   2  -7   3 7279.26 1133.51  22
   2  -7   3 8259.30 651.741  14
   2  -7   3 8200.98 691.652  15
   2  -7   4 12017.8 756.364  14
   2  -7   4 12467.6 822.939  15
   2  -7   5 2615.18 317.587  14
   2  -6 -12 5108.05 470.132  14
   2  -6 -11 1513.83 310.178  14
   2  -6 -11 1532.84 292.690  19
   2  -6 -11 1091.48 281.680  15
   2  -6 -11 1572.82 313.918  23
   2  -6 -10 8784.87 773.176  19
   2  -6 -10 8558.27 779.178  14
   2  -6 -10 8022.92 803.795  15
   2  -6  -9 15448.2 1213.09  15
   2  -6  -9 15291.3 1134.48  19
   2  -6  -9 16838.9 1200.29  14
  -2  -6   9 13219.3 1138.77  63
   2  -6  -8 15747.4 1221.50  19
   2  -6  -8 15518.1 1295.88  15
   2  -6  -8 15153.3 1206.88  14
  -2  -6   8 11161.7 934.149  15
  -2  -6   8 12729.5 1194.56  63
   2  -6  -7 18006.8 1382.04  14
   2  -6  -7 20662.9 1584.03  15
   2  -6  -6 11843.4 1221.77  15
   2  -6  -6 11521.1 1132.15  14
  -2  -6   6 8558.60 872.701  15
   2  -6  -6 9400.16 1261.13  57
   2  -6  -6 9270.62 1157.49  56
   2  -6  -5 789.258 656.376  40
   2  -6  -5 509.533 275.328  15
  -2  -6   5 679.954 238.869  15
   2  -6  -5 309.768 234.156  14
   2  -6  -5 564.528 328.746  57
  -2  -6   5 287.115 278.970  63
   2  -6  -5 624.990 304.377  12
  -2  -6   5 360.481 223.892  12
  -2  -6   4 3998.92 588.056  15
   2  -6  -4 4675.13 743.623  14
   2  -6  -4 4268.05 770.784  15
   2  -6  -4 3172.94 840.933  57
   2  -6  -4 4164.90 790.589  12
  -2  -6   4 3257.71 711.112  12
   2  -6  -3 2041.97 538.064  15
  -2  -6   3 1471.65 359.026  15
   2  -6  -3 1572.67 445.450  14
   2  -6  -3 1143.25 554.189  57
  -2  -6   3 599.599 361.396  63
   2  -6  -3 1077.59 395.180  12
  -2  -6   3 1253.72 440.815  12
   2  -6  -2 12407.3 1243.99  14
   2  -6  -2 11766.4 1305.92  15
   2  -6  -2 12333.5 1702.73  57
  -2  -6   2 11278.1 1429.12  12
   2  -6  -2 9804.68 1207.55  12
   2  -6  -1 31266.7 1969.08  14
   2  -6  -1 27672.7 2007.76  15
   2  -6   0 12608.0 1343.60  15
   2  -6   0 11919.7 1232.87  14
   2  -6   0 10472.2 1581.30  57
  -2  -6   0 7676.20 1001.70  11
   2  -6   1 24724.2 1897.69  15
   2  -6   1 21329.8 2265.13  57
  -2  -6  -1 28234.3 2237.79  12
   2  -6   2 3212.84 665.091  15
   2  -6   2 2934.63 822.739  57
  -2  -6  -2 2301.59 670.301  12
  -2  -6  -2 2030.73 483.659  11
   2  -6   3 1083.99 537.269  57
  -2  -6  -3 1280.13 458.908  12
  -2  -6  -4 13575.1 1484.32  12
   2  -6   4 12863.2 1627.01  57
  -2  -6  -5 11840.8 1013.11  19
  -2  -6  -5 13725.8 1472.21  12
   2  -6   5 14545.7 1597.38  57
   2  -6   5 10787.3 1261.03  56
   2  -6   6 11821.6 1293.81  57
   2  -6   6 11052.1 1163.65  56
  -2  -6  -6 12028.7 970.523  19
  -2  -6  -7 20356.8 1224.88  19
   2  -6   8 8685.20 902.813  15
  -2  -6  -8 7538.71 655.622  19
   2  -6   9 2170.24 420.962  15
   2  -6  10 1466.25 316.741  15
   2  -6  11 1112.01 234.628  15
   2  -5 -15 526.508 160.420  19
   2  -5 -14 4256.33 539.080  19
   2  -5 -14 4617.45 618.976  15
  -2  -5  13 8496.37 852.966  63
   2  -5 -13 8594.86 860.755  19
   2  -5 -13 8098.25 912.476  15
  -2  -5  12 10977.1 1090.11  63
   2  -5 -12 10833.2 1053.63  19
   2  -5 -12 9709.47 1088.12  15
  -2  -5  11 32277.3 2104.86  63
   2  -5 -11 33556.9 2218.53  15
   2  -5 -11 35637.5 2107.20  19
   2  -5 -10 10619.3 1260.53  15
   2  -5 -10 12929.1 1258.96  19
  -2  -5  10 12064.4 1304.44  63
   2  -5  -9 5165.02 841.356  19
   2  -5  -9 4516.61 837.811  15
   2  -5  -9 4734.52 998.394  12
  -2  -5   9 3823.00 793.762  63
   2  -5  -8 1164.96 459.417  15
  -2  -5   8 1424.29 490.846  13
   2  -5  -8 2104.40 847.659  40
   2  -5  -8 722.428 447.087  12
  -2  -5   8 1343.01 502.088  63
   2  -5  -8 1095.34 430.557  57
   2  -5  -7 4365.90 829.040  50
   2  -5  -7 5157.46 1113.29  12
  -2  -5   7 3976.35 897.961  63
   2  -5  -7 4683.83 1000.11  57
   2  -5  -7 5473.27 961.588  15
  -2  -5   7 5008.56 946.566  13
   2  -5  -6 10368.0 1268.01  50
   2  -5  -6 12439.0 1662.42  12
   2  -5  -6 11636.6 1674.53  58
   2  -5  -6 12484.6 1731.23  57
   2  -5  -6 12094.1 1424.28  15
  -2  -5   6 13910.3 1539.48  13
   2  -5  -5 13249.7 1455.87  50
  -2  -5   5 10526.3 1466.64  12
   2  -5  -5 13987.3 1730.07  12
   2  -5  -5 12523.4 1851.27  58
   2  -5  -5 12964.1 1862.04  57
   2  -5  -5 16809.5 1674.45  15
  -2  -5   5 16003.4 1638.03  13
   2  -5  -4 41684.6 2667.96  50
   2  -5  -4 48919.4 3283.96  12
  -2  -5   4 39721.0 2959.31  12
   2  -5  -4 46898.9 3751.76  58
   2  -5  -4 44886.0 3607.13  57
   2  -5  -4 52506.8 3084.09  15
  -2  -5   4 53395.9 3090.11  13
   2  -5  -3 33569.3 2348.72  50
   2  -5  -3 37627.9 2780.64  12
   2  -5  -3 32584.5 3087.61  57
   2  -5  -3 37820.0 3428.27  58
   2  -5  -3 38421.3 2631.11  15
  -2  -5   3 41749.1 2639.13  13
   2  -5  -2 30124.3 2171.53  50
   2  -5  -2 31892.1 2496.33  12
   2  -5  -2 26165.3 2873.14  58
   2  -5  -2 29286.9 2401.19  13
   2  -5  -2 34775.9 2452.47  15
  -2  -5   2 28411.5 1979.62  15
  -2  -5   1 62.0559 243.579  12
   2  -5  -1 159.467 228.564  12
   2  -5  -1 261.461 202.401  50
   2  -5  -1 353.243 280.108  15
  -2  -5   1 299.732 186.046  15
   2  -5  -1 222.965 239.677  13
   2  -5   0 2345.21 602.491  50
   2  -5   0 3276.02 715.101  12
  -2  -5   0 2734.04 788.171  12
   2  -5   0 1757.51 780.362  58
   2  -5   0 1853.75 806.745  57
   2  -5   0 2473.53 701.445  13
  -2  -5   0 2672.34 542.171  14
  -2  -5   0 2857.73 566.752  15
  -2  -5  -1 24969.0 2308.73  12
   2  -5   1 18099.0 1703.16  12
   2  -5   1 18128.6 2338.54  57
   2  -5   1 17277.5 1402.56  63
   2  -5   1 20925.0 2530.50  58
   2  -5   1 23032.7 1904.45  16
   2  -5   1 23455.6 2158.29  13
  -2  -5  -1 21386.3 1551.14  14
   2  -5   2 39548.1 2477.79  51
  -2  -5  -2 48871.4 3231.53  12
   2  -5   2 33885.4 2306.36  12
   2  -5   2 39462.2 3525.36  58
   2  -5   2 36515.1 3309.04  57
   2  -5   2 39200.3 2274.92  63
   2  -5   2 50325.8 2893.90  16
   2  -5   2 47610.6 3165.09  13
  -2  -5  -2 41905.8 2256.07  14
   2  -5   3 10421.3 1210.90  51
  -2  -5  -3 10166.4 1219.91  11
  -2  -5  -3 13815.2 1663.59  12
   2  -5   3 12258.7 1888.60  58
   2  -5   3 8989.44 1589.53  57
   2  -5   3 10906.5 1171.68  63
   2  -5   3 11398.1 1341.79  16
   2  -5   3 10458.3 1436.76  13
  -2  -5  -3 11134.6 1110.60  14
   2  -5   4 24198.3 1880.56  51
  -2  -5  -4 25859.8 1957.05  11
  -2  -5  -4 30141.5 2509.42  12
   2  -5   4 25917.1 2691.96  58
   2  -5   4 25410.3 1878.12  63
   2  -5   4 26856.4 2741.31  57
   2  -5   4 29753.3 2192.23  16
   2  -5   4 26759.6 2344.23  13
  -2  -5  -4 24247.5 1686.70  14
   2  -5   5 13069.1 1311.07  51
  -2  -5  -5 15318.1 1745.45  12
  -2  -5  -5 14900.6 1454.50  11
   2  -5   5 13877.1 1852.34  58
   2  -5   5 12158.4 1778.98  57
   2  -5   5 14755.9 1440.27  63
   2  -5   5 14899.7 1529.21  16
   2  -5   5 13006.1 1617.11  13
  -2  -5  -5 12131.8 1159.31  14
   2  -5   6 7848.42 1016.86  51
   2  -5   6 8476.33 1340.82  54
   2  -5   6 6147.81 1181.94  58
   2  -5   6 8285.33 1074.52  63
   2  -5   6 8193.23 1370.19  57
  -2  -5  -6 7842.95 1260.56  12
  -2  -5  -6 7728.70 1039.40  11
   2  -5   6 9332.59 1194.90  16
  -2  -5  -6 8205.93 932.175  14
   2  -5   7 3451.92 1145.59  40
   2  -5   7 2415.57 663.264  57
   2  -5   7 2475.06 590.317  63
  -2  -5  -7 1868.23 613.758  12
  -2  -5  -7 1871.16 511.359  11
  -2  -5  -7 1493.50 430.676  19
  -2  -5  -7 1837.03 421.592  14
   2  -5   7 1763.41 527.864  16
   2  -5   7 1734.01 557.022  13
   2  -5   8 2257.94 845.244  40
  -2  -5  -8 916.489 423.889  12
  -2  -5  -8 1100.99 397.235  11
   2  -5   8 1765.50 494.655  63
  -2  -5  -8 1086.20 374.906  19
   2  -5   8 1129.00 418.180  16
  -2  -5  -8 1242.88 337.529  14
  -2  -5  -9 9906.55 1288.17  12
  -2  -5  -9 13191.2 1260.69  11
   2  -5   9 13500.5 1344.60  63
   2  -5   9 14800.3 1436.50  16
  -2  -5  -9 12821.7 1093.95  14
  -2  -5  -9 13452.9 1226.49  19
  -2  -5 -10 46714.9 2464.70  11
   2  -5  10 45875.5 2535.53  16
  -2  -5 -10 46557.9 2128.56  14
  -2  -5 -10 47337.2 2340.99  19
   2  -5  10 48880.8 2637.05  63
   2  -5  11 26716.1 1790.40  16
  -2  -5 -11 27259.6 1622.33  19
   2  -5  11 28519.5 1843.07  63
   2  -5  12 3362.60 567.013  16
  -2  -5 -12 3147.42 460.451   4
  -2  -5 -12 3398.14 496.624  19
   2  -5  12 2217.57 470.640  63
   2  -5  13 2998.48 483.265  16
  -2  -5 -13 2558.29 368.981  19
   2  -5  13 2184.20 427.061  63
   2  -5  14 2129.82 344.264  16
   2  -4 -17 4380.08 492.025  19
   2  -4 -17 5048.89 715.985  23
   2  -4 -17 4511.67 544.273  14
   2  -4 -16 10906.7 937.758  19
   2  -4 -16 13021.4 1202.86  37
   2  -4 -15 19151.4 1404.60  19
   2  -4 -15 16598.1 1429.42  15
  -2  -4  14 27952.9 1760.88  63
   2  -4 -14 24408.4 1740.83  19
   2  -4 -14 24484.5 1935.53  15
   2  -4 -14 26621.8 2348.73  12
   2  -4 -13 5141.96 1073.52  12
  -2  -4  13 6008.12 874.888  63
   2  -4 -13 4742.46 787.081  19
   2  -4 -13 4082.74 827.405  15
   2  -4 -12 7244.83 1320.82  12
  -2  -4  12 5878.21 955.051  63
   2  -4 -12 6616.51 964.378  19
   2  -4 -12 6518.40 1069.87  15
   2  -4 -11 3081.74 724.396  49
   2  -4 -11 2915.44 838.962  12
  -2  -4  11 3111.44 699.312  63
   2  -4 -11 2521.21 671.940  15
   2  -4 -11 2045.66 558.801  19
   2  -4 -10 3598.02 808.885  49
  -2  -4  10 3080.69 738.774  63
  -2  -4  10 4149.87 893.063  13
   2  -4 -10 3813.22 750.312  19
   2  -4 -10 4020.91 833.420  15
   2  -4  -9 74530.0 3862.75  49
   2  -4  -9 71466.5 3732.83  57
  -2  -4   9 73441.7 3758.00  63
  -2  -4   9 81306.1 4269.78  13
   2  -4  -9 74383.0 3817.55  15
   2  -4  -8 29721.0 2323.31  49
   2  -4  -8 26525.0 2381.01  54
  -2  -4   8 26436.2 2151.58  63
   2  -4  -8 26684.9 2429.89  58
   2  -4  -8 24945.1 2265.33  57
  -2  -4   8 34667.9 2661.50  13
   2  -4  -8 32653.5 2380.62  15
   2  -4  -7 25347.5 2079.04  49
   2  -4  -7 24933.3 2363.48  12
   2  -4  -7 25889.7 2486.92  58
   2  -4  -7 21568.0 2231.74  57
  -2  -4   7 25980.5 2266.09  13
   2  -4  -7 24750.4 2054.31  15
   2  -4  -6 36263.6 2490.06  49
   2  -4  -6 32927.6 2677.63  12
   2  -4  -6 33489.0 2897.33  58
   2  -4  -6 32571.5 2816.23  57
  -2  -4   6 37773.1 2661.55  13
   2  -4  -6 35321.7 2439.17  15
   2  -4  -5 638.796 444.489  12
   2  -4  -5 764.445 464.978  58
   2  -4  -5 953.026 481.623  57
  -2  -4   5 567.565 339.129  13
   2  -4  -5 687.944 332.186  15
  -2  -4   4 1912.64 517.616  43
   2  -4  -4 2068.47 544.861  50
   2  -4  -4 2322.43 680.555  12
   2  -4  -4 1866.57 723.424  58
   2  -4  -4 1119.84 572.582  57
  -2  -4   4 2613.38 664.637  13
   2  -4  -4 2114.89 524.340  14
   2  -4  -3 21336.8 1747.02  50
  -2  -4   3 21001.3 1743.28  43
   2  -4  -3 23521.9 2075.60  12
   2  -4  -3 23908.1 2468.37  57
   2  -4  -3 19815.6 2320.71  58
   2  -4  -3 22777.8 1936.28  13
  -2  -4   3 27795.0 2059.46  13
   2  -4  -2 22553.1 1749.49  50
  -2  -4   2 21566.3 1761.92  43
   2  -4  -2 23252.1 1953.57  12
   2  -4  -2 19376.6 2226.61  57
   2  -4  -2 19653.0 2305.28  58
   2  -4  -2 26897.6 2076.25  13
  -2  -4   2 26750.4 1941.09  13
   2  -4  -1 73329.2 3564.01  12
   2  -4  -1 60095.3 3066.11  50
  -2  -4   1 66636.6 3300.85  43
   2  -4  -1 68074.0 3311.72  16
   2  -4  -1 71289.2 3652.78  13
  -2  -4   1 76644.0 3311.15  13
   2  -4   0 67182.4 3165.91  50
  -2  -4   0 68748.7 3377.36  43
   2  -4   0 66216.6 3307.41  12
  -2  -4   0 77308.4 3800.54  12
   2  -4   0 52168.7 2612.06  63
   2  -4   0 63751.3 4185.67  57
   2  -4   0 52190.4 3915.24  58
   2  -4   0 74690.7 3413.02  16
   2  -4   0 82296.0 3826.78  13
  -2  -4   0 82302.7 3252.95  13
   2  -4   1 52252.1 2716.34  50
  -2  -4  -1 58119.3 3074.21  43
  -2  -4  -1 62686.5 3376.00  12
   2  -4   1 52536.6 2817.28  12
   2  -4   1 46861.6 2464.69  63
   2  -4   1 49242.3 3642.29  57
   2  -4   1 46740.5 3637.07  58
   2  -4   1 57927.4 2948.73  16
   2  -4   1 59433.9 3317.70  13
   2  -4   2 1489.13 429.576  50
  -2  -4  -2 2158.57 605.877  12
   2  -4   2 1278.04 407.862  12
   2  -4   2 1020.94 552.198  58
   2  -4   2 1808.35 700.434  57
   2  -4   2 1386.26 409.204  63
   2  -4   2 1575.36 466.921  16
   2  -4   2 1827.81 557.348  13
   2  -4   3 1190.28 408.672  51
   2  -4   3 1848.33 430.544  10
   2  -4   3 1262.46 370.375  12
  -2  -4  -3 1239.86 489.084  12
   2  -4   3 1624.61 665.764  58
   2  -4   3 892.565 506.383  57
   2  -4   3 2175.58 519.140  63
   2  -4   3 993.437 459.704  13
   2  -4   3 1362.06 442.860  16
   2  -4   4 15176.5 1413.85  51
   2  -4   4 16191.2 1358.09  10
  -2  -4  -4 18353.5 1796.97  12
   2  -4   4 14795.7 1899.73  57
   2  -4   4 16244.1 1484.08  63
   2  -4   4 14710.0 1947.21  58
   2  -4   4 15610.5 1513.48  16
   2  -4   4 15124.2 1637.86  13
  -2  -4  -4 15217.1 1228.68  14
   2  -4   5 47824.8 2640.76  51
   2  -4   5 48338.0 2568.61  10
  -2  -4  -5 52552.0 3140.25  12
   2  -4   5 47335.7 3499.22  58
   2  -4   5 52883.9 2858.30  63
   2  -4   5 45520.1 3395.01  57
   2  -4   5 49808.8 2862.24  16
  -2  -4  -5 45669.5 2361.48  14
   2  -4   6 38662.7 2351.61  51
   2  -4   6 36105.1 2233.16  10
  -2  -4  -6 44125.7 2847.11  12
   2  -4   6 35247.2 2947.89  58
   2  -4   6 39547.0 3031.35  57
   2  -4   6 41177.6 2540.57  63
  -2  -4  -6 32432.7 1986.10  14
   2  -4   6 35828.4 2452.95  16
   2  -4   6 36658.9 2679.55  13
   2  -4   7 13562.6 1662.36  54
   2  -4   7 13417.6 1349.81  51
   2  -4   7 13581.9 1485.19  16
   2  -4   7 12918.2 1564.28  13
  -2  -4  -7 12885.5 1216.10  14
   2  -4   7 15513.6 1441.55  10
  -2  -4  -7 15994.5 1688.85  12
   2  -4   7 15458.3 1822.75  58
   2  -4   7 17847.6 1654.88  63
   2  -4   7 10410.9 1562.69  57
   2  -4   8 57710.8 2939.05  51
   2  -4   8 69695.9 4716.27  42
   2  -4   8 52686.4 3105.00  16
  -2  -4  -8 48894.7 2587.60  14
   2  -4   8 55559.3 3365.40  13
  -2  -4  -8 52767.4 2808.17  19
   2  -4   8 83585.5 5739.52  40
   2  -4   8 54940.7 2925.38  10
  -2  -4  -8 60749.6 3459.43  12
   2  -4   8 56754.0 3146.43  63
   2  -4   8 35978.9 2778.06  57
   2  -4   9 16980.4 1792.00  13
   2  -4   9 15951.2 1653.26  16
  -2  -4  -9 16121.0 1404.26  14
  -2  -4  -9 17140.2 1522.57  19
   2  -4   9 16177.0 1624.37  63
   2  -4   9 16247.0 1538.77  10
  -2  -4  -9 16849.2 1744.59  12
   2  -4   9 16735.8 1594.52  52
   2  -4  10 5853.62 975.853  16
  -2  -4 -10 5745.24 814.490  14
   2  -4  10 4454.24 880.971  13
  -2  -4 -10 5611.68 871.109  19
   2  -4  10 7106.98 1065.57  63
   2  -4  10 4842.59 840.411  52
   2  -4  10 5670.02 908.262  10
  -2  -4 -10 5831.01 1004.27  12
   2  -4  11 13417.3 1463.43  16
  -2  -4 -11 12508.2 1213.12  14
   2  -4  11 14780.3 1540.85  13
  -2  -4 -11 12097.6 1266.56  19
   2  -4  11 16704.7 1508.62  52
   2  -4  11 12568.3 1337.96  10
   2  -4  12 18049.8 1554.11  10
  -2  -4 -12 17944.8 1420.10  14
   2  -4  12 19533.2 1721.55  16
  -2  -4 -12 21755.7 1638.24  19
   2  -4  13 12622.3 1314.64  63
   2  -4  13 13395.6 1285.89  10
  -2  -4 -13 14460.1 1274.28  19
  -2  -4 -13 14282.1 1188.74  14
   2  -4  13 13956.3 1380.41  16
  -2  -4 -14 28758.9 1665.74   4
   2  -4  14 22722.9 1591.83  10
  -2  -4 -14 27568.3 1668.11  19
  -2  -4 -14 24934.1 1458.84  14
   2  -4  14 27424.8 1833.98  16
  -2  -4 -15 11773.1 932.099   4
   2  -4  15 11008.7 970.811  10
  -2  -4 -15 12547.8 987.170  19
   2  -4  15 12572.9 1115.67  16
  -2  -4 -16 6698.33 610.786  19
   2  -4  16 6067.37 616.684  10
  -2  -4 -16 5982.73 553.561   4
   2  -4  16 7934.58 755.683  16
   2  -4  17 618.981 175.610  16
   2  -3 -19 12718.6 750.467  19
  -2  -3  18 17088.3 1097.70  10
   2  -3 -18 19116.6 1462.46  23
   2  -3 -18 16730.0 1126.81  19
   2  -3 -17 17768.0 1441.95  14
  -2  -3  17 20311.9 1395.11  10
   2  -3 -17 23985.5 1907.78  20
   2  -3 -17 18642.4 1376.94  19
   2  -3 -17 20947.1 1805.15  37
   2  -3 -16 3516.86 668.119  14
   2  -3 -16 3706.51 663.120  19
  -2  -3  16 4076.55 681.697  10
  -2  -3  15 1302.42 424.171  10
   2  -3 -15 1055.31 463.073  12
   2  -3 -15 1357.13 364.301  11
   2  -3 -15 1390.39 450.493  19
   2  -3 -15 1418.41 461.790  14
   2  -3 -15 1741.02 590.422  15
   2  -3 -14 18300.6 1796.92  49
   2  -3 -14 19990.9 1772.21  14
  -2  -3  14 24093.3 2158.40  13
   2  -3 -14 19522.8 1694.31  19
   2  -3 -14 19281.4 1919.08  15
   2  -3 -14 19908.9 2195.99  12
  -2  -3  14 22148.3 1639.10  63
  -2  -3  14 20873.7 1709.45  10
   2  -3 -14 21858.9 1599.50  11
   2  -3 -13 9337.32 1208.60  14
  -2  -3  13 10256.6 1435.65  13
   2  -3 -13 10350.5 1232.44  19
   2  -3 -13 9867.94 1320.07  15
  -2  -3  13 9570.43 1154.59  10
   2  -3 -13 12413.5 1757.61  12
   2  -3 -13 10545.9 1111.61  11
  -2  -3  13 10135.5 1168.68  63
  -2  -3  12 22373.6 2149.85  13
   2  -3 -12 19021.0 1747.98  14
   2  -3 -12 20874.3 1778.68  19
   2  -3 -12 18608.4 1865.91  15
  -2  -3  12 21906.7 1768.10  10
   2  -3 -12 23719.4 1703.70  11
   2  -3 -12 24754.2 2490.95  12
  -2  -3  12 21020.9 1795.41  63
   2  -3 -12 28766.8 2916.27  36
   2  -3 -11 62102.8 3253.52  14
   2  -3 -11 60372.9 3197.28  19
  -2  -3  11 76118.0 4074.02  13
   2  -3 -11 58863.6 3426.27  15
   2  -3 -11 90110.0 5464.38  36
   2  -3 -11 73875.0 4356.37  12
  -2  -3  11 70077.1 3242.77  10
   2  -3 -11 71162.9 3073.26  11
  -2  -3  11 55626.3 3106.98  63
   2  -3 -10 39534.3 2411.31  19
   2  -3 -10 34384.4 2293.21  14
   2  -3 -10 37929.6 2578.09  15
  -2  -3  10 38236.1 2222.19  10
   2  -3 -10 43925.5 3190.24  12
   2  -3 -10 43714.1 2224.10  11
  -2  -3  10 43894.4 2847.76  44
   2  -3  -9 22319.2 1740.37  14
  -2  -3   9 26264.9 2203.64  13
   2  -3  -9 21443.9 1846.22  15
  -2  -3   9 19592.3 1845.34  63
   2  -3  -9 24642.4 2305.18  12
   2  -3  -9 25028.1 1596.49  11
  -2  -3   9 21098.4 1954.16  44
   2  -3  -9 22934.7 1841.55  54
   2  -3  -8 2256.05 577.397  15
  -2  -3   8 3121.44 738.092  13
   2  -3  -8 2309.21 529.316  14
   2  -3  -8 2577.18 641.455  58
   2  -3  -8 2763.72 639.175  57
   2  -3  -8 2374.58 457.977  11
   2  -3  -8 3735.38 947.581  42
  -2  -3   8 2464.32 662.713  44
   2  -3  -8 2411.30 603.370  49
   2  -3  -8 3417.40 734.045  54
  -2  -3   7 22673.2 1933.67  13
   2  -3  -7 21624.6 1601.95  14
   2  -3  -7 25849.6 2158.64  58
   2  -3  -7 21029.2 1916.51  57
   2  -3  -7 21918.4 1350.31  11
  -2  -3   7 21331.3 1875.54  44
   2  -3  -7 22551.3 1790.20  49
  -2  -3   6 74261.2 3544.06  13
   2  -3  -6 69054.1 2996.12  14
   2  -3  -6 77825.1 3976.63  58
   2  -3  -6 67896.9 3695.33  57
   2  -3  -6 68030.7 3593.84  12
   2  -3  -6 60171.3 2434.50  11
   2  -3  -6 73240.2 3306.44  49
  -2  -3   5 73376.3 3387.08  13
   2  -3  -5 67831.8 2901.68  14
   2  -3  -5 67205.8 3714.54  57
   2  -3  -5 75490.5 3964.07  58
   2  -3  -5 73471.5 3579.36  12
   2  -3  -5 74265.7 3236.34  49
  -2  -3   4 121141. 4349.73  13
   2  -3  -4 110732. 4127.30  13
   2  -3  -4 103017. 4800.24  57
   2  -3  -4 96554.1 4739.78  58
   2  -3  -4 118043. 4476.24  12
   2  -3  -4 88656.4 2962.89  11
  -2  -3   4 101860. 4224.63  44
   2  -3  -4 117261. 4189.10  49
   2  -3  -3 32307.3 2038.79  13
  -2  -3   3 36343.9 2088.15  13
   2  -3  -3 28703.8 2378.20  57
   2  -3  -3 27150.4 2367.81  58
   2  -3  -3 25869.0 1191.36  11
   2  -3  -3 33456.9 2139.92  12
  -2  -3   3 29999.0 2058.72  44
   2  -3  -3 31184.6 1914.74  49
   2  -3  -2 50938.0 2684.02  13
  -2  -3   2 58288.9 2639.35  13
   2  -3  -2 37175.5 2777.57  57
   2  -3  -2 41711.7 2933.71  58
   2  -3  -2 51173.8 2608.26  12
  -2  -3   2 47721.6 2597.65  44
   2  -3  -2 45784.2 2262.76  50
  -2  -3   2 46929.1 1634.21  45
   2  -3  -1 2124.56 517.777  13
  -2  -3   1 2148.64 454.296  13
   2  -3  -1 2134.68 359.464  63
   2  -3  -1 2391.68 530.602  12
  -2  -3   1 1726.59 280.249  45
  -2  -3   1 1805.50 467.438  44
  -2  -3   1 1886.88 452.737  43
   2  -3  -1 1736.84 410.368  50
  -2  -3   0 4131.35 587.948  13
   2  -3   0 4410.67 739.354  13
   2  -3   0 2899.78 767.618  57
   2  -3   0 3741.95 507.115  63
   2  -3   0 3637.96 838.673  58
   2  -3   0 3406.69 600.405  12
   2  -3   0 3181.92 542.814  50
  -2  -3   0 3277.70 589.584  43
  -2  -3   0 2927.44 358.422  50
   2  -3   1 35314.2 2138.77  13
  -2  -3  -1 33272.7 1637.09  13
   2  -3   1 27149.2 2297.75  57
   2  -3   1 26944.8 1618.75  63
   2  -3   1 27471.7 2337.63  58
   2  -3   1 34407.4 1873.16  12
   2  -3   1 31531.6 1788.07  50
  -2  -3  -1 32602.0 1964.55  43
   2  -3   2 108452. 4119.14  13
  -2  -3  -2 94578.6 3063.18  13
   2  -3   2 89751.2 4519.35  57
   2  -3   2 97796.7 3551.30  63
   2  -3   2 93191.6 4604.10  58
   2  -3   2 92869.1 3451.15  12
  -2  -3  -2 106388. 4035.12  12
   2  -3   2 100443. 3599.59  50
  -2  -3  -2 106682. 3960.95  43
   2  -3   3 77477.1 3258.42  16
   2  -3   3 76961.1 4008.75  57
   2  -3   3 79268.2 3154.47  63
   2  -3   3 76382.8 4082.04  58
   2  -3   3 72003.1 2835.41  12
  -2  -3  -3 86336.9 3538.52  12
  -2  -3  -3 75287.2 2624.09  49
   2  -3   4 64641.6 2963.66  16
   2  -3   4 70470.4 2994.05  63
   2  -3   4 63782.6 3592.83  57
   2  -3   4 57248.1 3498.81  58
  -2  -3  -4 72902.4 3212.45  12
   2  -3   4 64826.3 2773.31  51
  -2  -3  -4 69484.7 2527.70  49
   2  -3   5 33113.2 2073.88  16
   2  -3   5 33137.0 2213.80  13
   2  -3   5 32280.1 2490.56  58
   2  -3   5 26343.8 2276.83  57
   2  -3   5 33375.1 2054.13  63
  -2  -3  -5 36366.5 2222.05  12
   2  -3   5 34561.7 2013.54  10
  -2  -3  -5 34657.2 1982.64  11
   2  -3   5 32187.0 1913.63  51
   2  -3   6 13123.5 1325.19  16
   2  -3   6 12397.8 1347.00  13
   2  -3   6 12792.6 1531.14  58
   2  -3   6 11890.3 1486.80  57
   2  -3   6 15085.4 1381.31  63
   2  -3   6 11656.2 1196.68  10
  -2  -3  -6 14582.0 1400.77  12
  -2  -3  -6 11924.2 1172.60  11
   2  -3   6 12739.3 1180.03  51
  -2  -3  -7 15874.6 1286.93  19
   2  -3   7 14234.4 1413.52  16
  -2  -3  -7 15265.6 1204.84  14
   2  -3   7 15240.5 1536.57  13
   2  -3   7 13424.2 1510.24  57
   2  -3   7 16762.4 1524.24  63
   2  -3   7 19689.8 1835.59  58
   2  -3   7 16502.9 1473.16  10
  -2  -3  -7 19101.4 1641.91  12
  -2  -3  -7 16151.9 1413.28  11
   2  -3   7 15983.3 1361.79  51
   2  -3   7 16534.6 1652.73  54
   2  -3   8 15459.6 1510.21  16
  -2  -3  -8 13732.4 1207.60  14
  -2  -3  -8 12618.8 1222.20  19
   2  -3   8 15209.8 1547.63  13
   2  -3   8 15660.8 1579.31  58
   2  -3   8 17802.7 1625.85  63
  -2  -3  -8 14021.9 1194.95  47
   2  -3   8 16216.9 1410.54  51
   2  -3   8 15391.8 1464.98  10
  -2  -3  -8 16238.7 1549.16  12
  -2  -3  -8 16050.7 1443.52  11
   2  -3   9 49806.2 2965.35  16
  -2  -3  -9 47564.0 2501.75  14
  -2  -3  -9 49483.1 2651.03  19
   2  -3   9 56092.6 3135.46  13
   2  -3   9 54630.2 2901.08  52
  -2  -3  -9 52235.7 2567.52  47
   2  -3   9 55357.7 3001.21  10
   2  -3   9 48812.1 2409.94   9
  -2  -3  -9 58093.1 3101.82  12
  -2  -3  -9 53836.4 2855.53  11
   2  -3  10 45397.0 2871.15  16
  -2  -3 -10 45804.3 2491.02  14
  -2  -3 -10 46543.5 2592.85  19
   2  -3  10 51276.8 2986.41  13
   2  -3  10 50188.5 2893.05  10
  -2  -3 -10 45337.5 2774.72  12
  -2  -3 -10 46541.2 2702.17  11
   2  -3  10 46010.7 2366.99   9
   2  -3  10 46639.6 2743.07  52
  -2  -3 -11 37148.2 2262.42  14
   2  -3  11 35191.6 2531.96  16
   2  -3  11 39542.2 2531.91  13
  -2  -3 -11 39755.8 2411.51  19
   2  -3  11 46598.0 2820.29  63
   2  -3  11 38222.4 2553.69  10
  -2  -3 -11 36376.8 2393.54  11
   2  -3  11 32567.1 1994.79   9
   2  -3  11 41550.1 2555.06  52
  -2  -3 -12 6975.79 948.528  14
   2  -3  12 5394.63 960.059  16
  -2  -3 -12 7323.62 997.631  19
   2  -3  12 6910.68 987.632  13
   2  -3  12 7656.50 1125.98  63
   2  -3  12 7204.74 1080.31  10
   2  -3  12 6489.92 810.040   9
  -2  -3 -12 7172.17 1036.68  11
   2  -3  12 7245.28 1047.56  52
   2  -3  13 10436.6 1191.37  52
   2  -3  13 8534.01 926.532  53
   2  -3  13 12048.4 1379.78  63
  -2  -3 -13 10213.9 1132.21  14
   2  -3  13 8496.75 1186.41  16
   2  -3  13 9875.66 1254.93  10
   2  -3  13 8571.29 929.382   9
  -2  -3 -13 9919.33 1204.61  11
  -2  -3 -13 9371.68 1131.44  19
  -2  -3 -14 3776.58 708.568   4
   2  -3  14 2210.44 421.314  53
  -2  -3 -14 2195.43 520.311  14
   2  -3  14 1673.82 512.049  16
   2  -3  14 2184.52 592.843  63
   2  -3  14 2436.80 610.387  10
   2  -3  14 2534.57 463.975   9
  -2  -3 -14 2971.76 651.725  11
  -2  -3 -14 2741.24 596.010  19
   2  -3  15 2006.94 540.865  16
  -2  -3 -15 2187.58 514.261  19
  -2  -3 -15 1872.45 466.995  14
   2  -3  15 1669.32 480.059  63
   2  -3  15 1947.49 524.942  10
  -2  -3 -15 2511.31 532.252  11
  -2  -3 -15 2092.60 499.840   4
  -2  -3 -16 27650.8 1667.48   4
   2  -3  16 25592.8 1774.13  16
   2  -3  16 18682.0 1521.87  63
   2  -3  16 21695.3 1650.79  10
  -2  -3 -16 23297.6 1565.59  19
  -2  -3 -17 30396.8 1561.71   4
   2  -3  17 30192.6 1762.37  16
   2  -3  17 25912.4 1613.66  10
  -2  -3 -17 28570.6 1549.46  19
  -2  -3 -18 10002.9 729.858  19
   2  -3  18 11476.2 891.060  16
   2  -3  18 10058.8 814.786  10
  -2  -3 -18 12341.0 801.193   4
  -2  -2  20 9987.78 778.956  10
  -2  -2  19 4417.33 640.458  10
   2  -2 -19 3291.38 496.103  19
  -2  -2  18 1566.80 366.905  16
   2  -2 -18 1196.82 340.457  19
   2  -2 -18 1687.47 494.466  37
   2  -2 -18 1318.60 348.293  41
  -2  -2  18 1272.62 404.015  10
   2  -2 -18 1698.20 471.009  23
   2  -2 -17 6272.29 843.809  41
   2  -2 -17 5034.46 821.087  14
  -2  -2  17 5485.06 788.622  16
   2  -2 -17 6954.15 1219.04  37
  -2  -2  17 5006.56 840.401  10
   2  -2 -17 7219.00 1117.71  20
   2  -2 -17 5079.07 795.800  19
   2  -2 -17 7868.39 1192.29  23
   2  -2 -16 37712.2 2300.40  41
   2  -2 -16 33500.3 2303.86  14
  -2  -2  16 34500.2 2178.79  16
   2  -2 -16 39602.1 3288.07  37
  -2  -2  16 35601.7 2380.95  10
   2  -2 -16 33429.2 2145.73  11
   2  -2 -16 33017.0 2190.75  19
   2  -2 -15 32623.7 2217.04  41
   2  -2 -15 31429.6 2371.27  49
   2  -2 -15 29736.6 2226.77  14
  -2  -2  15 30984.6 2136.76  16
  -2  -2  15 32661.0 2436.71  13
   2  -2 -15 34422.4 3188.29  36
   2  -2 -15 32192.1 2167.22  11
   2  -2 -15 31959.1 2202.59  19
   2  -2 -14 22473.3 1859.63  19
   2  -2 -14 25301.6 1929.74  41
   2  -2 -14 20671.3 1826.73  14
  -2  -2  14 22214.7 1822.23  16
   2  -2 -14 20716.2 2042.87  15
  -2  -2  14 27284.4 2259.67  13
   2  -2 -14 17148.5 2090.43  12
   2  -2 -14 29134.8 3012.18  36
   2  -2 -14 23696.4 1841.02  11
   2  -2 -14 21227.7 1512.90   4
  -2  -2  13 9720.01 1034.01  63
   2  -2 -13 10270.6 1203.92  41
   2  -2 -13 7371.96 1395.84  12
   2  -2 -13 8774.22 1155.75  14
   2  -2 -13 8971.25 1140.22  19
  -2  -2  13 8821.44 1111.11  16
   2  -2 -13 8480.08 1254.36  15
  -2  -2  13 10220.4 1393.04  13
   2  -2 -13 9742.72 1763.52  36
   2  -2 -13 9847.10 1143.25  11
  -2  -2  13 8189.36 902.353   1
  -2  -2  12 25255.4 1773.49  63
   2  -2 -12 31263.9 2078.40  41
  -2  -2  12 25521.7 2023.01  44
   2  -2 -12 26236.6 1973.71  14
   2  -2 -12 24897.6 1900.31  19
  -2  -2  12 24921.1 1865.84  16
   2  -2 -12 25734.3 2118.51  15
  -2  -2  12 30387.6 2395.07  13
   2  -2 -12 33461.0 3284.99  36
   2  -2 -12 27038.3 2585.85  12
   2  -2 -12 28541.7 1924.39  11
  -2  -2  12 28916.6 1682.36   1
  -2  -2  11 412.298 225.952  63
  -2  -2  11 679.089 307.972  44
   2  -2 -11 607.396 328.229  15
  -2  -2  11 631.662 345.880  13
  -2  -2  11 791.123 296.271  16
   2  -2 -11 795.330 332.566  19
   2  -2 -11 429.477 247.364  14
   2  -2 -11 917.281 322.205  41
   2  -2 -11 666.362 442.196  36
   2  -2 -11 452.220 424.408  12
   2  -2 -11 541.005 272.217  11
  -2  -2  11 513.997 206.374   1
  -2  -2  10 9835.60 1065.42  63
   2  -2 -10 11314.1 1114.04  41
  -2  -2  10 10924.5 1259.33  44
  -2  -2  10 11830.9 1399.30  13
   2  -2 -10 9143.38 1047.15  14
   2  -2 -10 9343.37 1051.99  19
   2  -2 -10 15239.7 2069.85  36
   2  -2 -10 13005.4 1603.97  12
   2  -2 -10 11914.4 1107.74  11
  -2  -2  10 11627.7 931.585   1
  -2  -2   9 74538.9 3521.83  44
   2  -2  -9 80958.0 3098.45  54
   2  -2  -9 75105.4 3172.53  19
   2  -2  -9 72472.7 3169.94  14
   2  -2  -9 88392.6 3160.59  11
   2  -2  -9 85308.2 4174.54  12
  -2  -2   9 83838.5 2749.33   1
  -2  -2   8 54138.4 2921.03  44
   2  -2  -8 52191.7 2638.29  54
   2  -2  -8 54045.7 2577.73  14
   2  -2  -8 60648.6 3343.38  12
   2  -2  -8 63906.7 2526.51  11
  -2  -2   8 60062.9 2182.48   1
  -2  -2   7 82623.4 3639.79  44
   2  -2  -7 104447. 3915.47  54
   2  -2  -7 96213.0 3796.95  58
   2  -2  -7 90141.9 3690.01  57
  -2  -2   7 90861.2 3789.00  13
   2  -2  -7 92080.8 3091.69  11
  -2  -2   7 84289.9 2725.57   1
  -2  -2   6 66917.2 2092.35  52
   2  -2  -6 73226.1 2475.47  11
  -2  -2   6 70427.1 2195.24   1
   2  -2  -6 74831.1 3278.60  57
   2  -2  -5 3481.33 414.027  11
   2  -2  -5 3832.97 679.066  12
  -2  -2   5 2978.41 317.586   1
   2  -2  -5 3655.68 698.807  58
   2  -2  -5 4287.74 729.452  57
  -2  -2   4 559.198 263.514  44
   2  -2  -4 550.220 308.581  58
   2  -2  -4 612.080 315.021  57
   2  -2  -4 422.736 143.441  11
   2  -2  -4 503.768 276.417  12
  -2  -2   4 319.507 100.991   1
  -2  -2   3 28752.8 937.826  51
  -2  -2   3 29557.0 1733.43  44
  -2  -2   3 41601.8 1433.67  45
   2  -2  -3 29475.4 2005.62  57
   2  -2  -3 35112.4 2216.25  58
   2  -2  -3 36475.8 1912.92  13
   2  -2  -3 36672.0 1919.74  12
   2  -2  -3 28834.8 1109.43  11
  -2  -2   3 31082.4 1037.21   1
   2  -2  -2 15967.1 1194.01  13
  -2  -2   2 15375.6 1075.51  13
   2  -2  -2 11634.4 1234.19  57
   2  -2  -2 11258.0 1231.76  58
  -2  -2   2 14836.9 827.600  45
  -2  -2   2 14070.3 1103.42  44
   2  -2  -2 15444.6 1131.33  12
   2  -2  -2 10799.0 536.615  11
   2  -2  -1 188045. 4968.57  13
  -2  -2   1 162926. 4397.21  13
   2  -2  -1 167345. 4526.92  12
  -2  -2   1 155135. 4580.37  44
  -2  -2   1 133465. 3346.34  50
  -2  -2   0 67630.1 2293.70  13
   2  -2   0 70141.0 2696.09  13
   2  -2   0 49399.7 2768.16  57
   2  -2   0 54148.5 2953.12  58
   2  -2   0 60797.7 2292.62  12
  -2  -2   0 60627.7 2448.33  44
  -2  -2  -1 72090.3 2233.69  13
   2  -2   1 51799.7 2853.52  57
   2  -2   1 60829.6 3080.97  58
   2  -2   1 55858.3 2169.30  12
   2  -2   1 59665.6 2309.86  50
  -2  -2  -1 60907.9 1753.26  49
  -2  -2  -1 67894.1 2537.62  43
  -2  -2  -1 67862.3 2505.46  44
  -2  -2  -2 15996.4 844.154  13
   2  -2   2 18127.5 1545.55  57
   2  -2   2 17170.2 1124.71  63
   2  -2   2 19188.2 1616.01  58
   2  -2   2 18736.1 1012.56  12
  -2  -2  -2 22092.1 1251.60  44
   2  -2   2 19186.5 1149.17  50
  -2  -2  -2 19744.3 1290.72  43
   2  -2   3 10247.3 959.331  13
   2  -2   3 8537.12 1089.34  58
   2  -2   3 7362.63 972.901  57
   2  -2   3 7119.78 764.437  63
  -2  -2  -3 7926.70 786.166  12
   2  -2   3 7140.27 556.340  12
   2  -2   3 8258.04 741.571  51
  -2  -2  -3 8857.69 874.881  43
  -2  -2  -3 8023.41 538.883  47
   2  -2   4 17052.0 1286.52  13
   2  -2   4 20078.6 1624.18  58
   2  -2   4 15967.8 1184.50  63
  -2  -2  -4 18359.6 1249.06  12
   2  -2   4 16773.7 1127.21  51
  -2  -2  -4 18099.2 946.653  47
  -2  -2  -4 18066.2 1341.23  43
   2  -2   5 51531.1 2467.61  13
   2  -2   5 43142.7 2522.21  57
   2  -2   5 58456.5 2485.74  63
   2  -2   5 47644.6 2643.73  58
  -2  -2  -5 54362.7 2343.07  12
  -2  -2  -5 48101.1 2154.15  11
   2  -2   5 49666.8 2200.14  51
  -2  -2  -5 54370.6 1983.39  47
   2  -2   5 51565.6 2649.36  54
   2  -2   6 133054. 4582.67  13
   2  -2   6 148474. 4688.26  63
   2  -2   6 157546. 5136.97  58
  -2  -2  -6 138645. 4411.19  12
  -2  -2  -6 134891. 4327.52  11
  -2  -2  -6 128797. 3989.62  47
   2  -2   6 139761. 4358.99  51
   2  -2   6 153391. 5006.15  54
   2  -2   7 58176.5 2799.48  13
   2  -2   7 63861.0 2972.16  58
   2  -2   7 51499.8 2793.81  57
   2  -2   7 62492.0 2872.57  10
  -2  -2  -7 74657.1 2898.99  12
  -2  -2  -7 63648.2 2697.95  11
   2  -2   7 83924.6 4089.09  42
   2  -2   7 56841.8 2764.76  54
   2  -2   7 62153.5 2673.75  51
  -2  -2  -7 60760.2 2482.07  47
  -2  -2  -8 42341.3 2093.31  46
   2  -2   8 39827.7 2212.52  52
   2  -2   8 34597.5 2011.54  54
  -2  -2  -8 39856.8 2024.22  47
   2  -2   8 48866.7 2917.24  42
   2  -2   8 47085.5 2352.20  58
   2  -2   8 40476.9 2262.09  13
  -2  -2  -8 34151.6 1932.19  19
   2  -2   8 36744.4 2240.35  10
  -2  -2  -8 41516.0 2179.60  12
   2  -2   8 35318.0 1964.62   9
  -2  -2  -8 38247.5 2116.14  11
  -2  -2  -9 9227.10 931.977  14
  -2  -2  -9 10091.5 1007.71  19
   2  -2   9 9007.10 1047.70  13
   2  -2   9 13058.7 1300.47  63
  -2  -2  -9 9349.16 1006.22  12
   2  -2   9 9449.07 1125.53  10
   2  -2   9 10080.5 999.242   9
  -2  -2  -9 9664.90 1077.05  11
   2  -2   9 9366.72 1059.77  52
  -2  -2  -9 9917.90 1023.19  47
  -2  -2  -9 9998.04 982.050  46
  -2  -2 -10 9060.50 979.891  14
  -2  -2 -10 8844.94 1013.99  19
   2  -2  10 9283.56 1065.82  13
   2  -2  10 12254.2 1312.28  63
   2  -2  10 7872.44 1081.32  10
   2  -2  10 8433.39 988.493   9
  -2  -2 -10 8929.28 1073.48  11
   2  -2  10 8709.63 1062.65  52
  -2  -2 -10 6624.96 803.259  46
  -2  -2 -10 8290.35 984.579  47
  -2  -2 -11 3775.22 664.034  14
  -2  -2 -11 3897.54 702.003  19
   2  -2  11 4360.80 718.925  13
   2  -2  11 5402.37 906.172  63
   2  -2  11 4208.46 817.820  10
   2  -2  11 4082.09 702.874   9
  -2  -2 -11 4623.24 788.884  11
  -2  -2 -11 4220.28 737.081  47
   2  -2  11 4079.75 746.256  52
  -2  -2 -12 28410.2 1818.37   5
   2  -2  12 33944.8 2275.53  52
  -2  -2 -12 31783.5 2180.36  47
   2  -2  12 33851.9 2001.21  53
   2  -2  12 40192.0 2560.52  63
  -2  -2 -12 30752.1 2079.76  14
  -2  -2 -12 32768.2 2200.13  11
   2  -2  12 33867.8 2410.10  10
   2  -2  12 28583.1 2003.44   9
  -2  -2 -12 33267.1 2178.84  19
   2  -2  13 34795.6 2327.18  52
  -2  -2 -13 32304.0 2223.90  47
   2  -2  13 32490.9 1959.39  53
   2  -2  13 36524.4 2477.95  63
  -2  -2 -13 30216.4 2094.76  14
   2  -2  13 31201.8 2363.19  10
   2  -2  13 27989.5 1992.90   9
  -2  -2 -13 34007.2 2258.31  11
  -2  -2 -13 31958.4 2188.18  19
   2  -2  14 18647.2 1409.64  53
  -2  -2 -14 21062.6 1746.91  47
   2  -2  14 21499.5 1871.61  63
  -2  -2 -14 18652.1 1608.00  14
   2  -2  14 19930.6 1848.65  10
   2  -2  14 19712.7 1620.42   9
  -2  -2 -14 20523.4 1734.56  11
  -2  -2 -14 19882.0 1712.98  19
   2  -2  15 24426.1 1566.55  53
  -2  -2 -15 30149.1 2044.25  14
   2  -2  15 28341.0 2158.49  63
  -2  -2 -15 30952.2 2109.58  19
   2  -2  15 27942.1 2181.88  10
   2  -2  15 28579.1 1921.41   9
  -2  -2 -15 30351.1 2081.06  11
   2  -2  16 16046.0 1490.61  63
   2  -2  16 17777.4 1412.00   9
  -2  -2 -16 18277.4 1531.79  11
  -2  -2 -16 18627.7 1556.27  19
   2  -2  17 1146.94 328.416   9
  -2  -2 -17 1452.24 400.147  19
   2  -2  17 737.409 312.048  63
  -2  -2 -18 3757.54 571.457   4
   2  -2  18 2374.36 443.638  63
   2  -2  18 3412.17 475.105   9
  -2  -2 -18 3420.08 552.807  19
  -2  -2 -19 12460.3 868.559  19
  -2  -2 -19 7245.75 750.469  41
   2  -2  19 9826.14 624.888   9
  -2  -2 -19 14971.2 957.421   4
  -2  -1  21 1671.20 300.524  10
   2  -1 -20 13742.2 1019.30  41
  -2  -1  20 13178.3 1050.81  10
   2  -1 -20 9569.43 780.144  19
  -2  -1  20 10739.6 831.074  16
   2  -1 -19 24685.4 1654.02  41
  -2  -1  19 23273.3 1514.72  16
  -2  -1  19 25111.8 1696.22  10
  -2  -1  19 20832.7 1224.06   9
   2  -1 -19 20284.6 1389.01  19
   2  -1 -18 33314.6 2154.57  41
  -2  -1  18 28568.6 1924.61  16
   2  -1 -18 31064.8 2548.51  37
  -2  -1  18 34660.8 2227.75  10
  -2  -1  18 29703.5 1705.77   9
   2  -1 -18 27859.0 1843.76  19
   2  -1 -17 14326.1 1381.94  19
   2  -1 -17 17594.5 1725.15  23
   2  -1 -17 15269.3 1533.58  41
  -2  -1  17 15586.9 1483.14  16
   2  -1 -17 16468.6 2021.51  37
  -2  -1  17 14400.8 1247.82   9
   2  -1 -17 13172.1 1316.42  11
   2  -1 -17 14007.3 1259.69   4
   2  -1 -16 7961.38 1262.73  23
   2  -1 -16 5462.62 875.125  19
   2  -1 -16 6653.40 1208.81  20
   2  -1 -16 5679.75 974.596  41
   2  -1 -16 4542.44 846.226  47
   2  -1 -16 4751.85 852.174  14
   2  -1 -16 4102.63 1120.06  37
   2  -1 -16 6258.35 1376.21  36
   2  -1 -16 4502.97 814.938  11
  -2  -1  16 5335.71 782.889   9
   2  -1 -16 4059.23 695.126   4
  -2  -1  16 4384.38 698.681   1
   2  -1 -15 8097.51 1419.01  20
   2  -1 -15 4984.44 858.021  19
   2  -1 -15 6447.53 1203.57  23
   2  -1 -15 4535.96 882.743  47
   2  -1 -15 7225.81 1118.11  41
   2  -1 -15 4742.15 886.966  14
  -2  -1  15 6669.31 1003.36  13
   2  -1 -15 5866.57 1362.67  37
   2  -1 -15 8679.83 1705.31  36
  -2  -1  15 5503.96 816.735   9
   2  -1 -15 5214.24 889.314  11
  -2  -1  15 5734.40 830.962   1
   2  -1 -15 5392.91 825.922   4
   2  -1 -14 3808.26 656.104   4
  -2  -1  14 3131.13 614.691   1
   2  -1 -14 3414.99 625.528  60
   2  -1 -14 2729.49 660.881  47
   2  -1 -14 3522.77 778.270  41
  -2  -1  14 3736.61 765.635  13
   2  -1 -14 3674.48 748.614  14
   2  -1 -14 5100.69 1294.04  36
   2  -1 -14 3425.90 714.216  11
  -2  -1  14 3426.24 642.173   9
   2  -1 -14 3127.66 683.544  19
   2  -1 -13 6832.94 858.463   4
  -2  -1  13 5855.94 800.599   1
   2  -1 -13 6445.69 864.740  60
   2  -1 -13 6974.06 1065.54  41
   2  -1 -13 5664.98 948.663  47
   2  -1 -13 6029.41 921.693  14
  -2  -1  13 6544.45 1038.22  13
   2  -1 -13 8439.11 1651.10  36
  -2  -1  13 6451.25 854.858   9
   2  -1 -13 7175.73 998.754  11
   2  -1 -13 6374.65 937.754  19
  -2  -1  12 104983. 3808.87   1
   2  -1 -12 104396. 3877.40   4
   2  -1 -12 90869.2 3717.97  60
   2  -1 -12 119574. 4637.38  41
  -2  -1  12 92836.5 3995.27  44
   2  -1 -12 97459.2 4212.94  47
   2  -1 -12 98880.8 4089.85  14
  -2  -1  12 108311. 4559.41  13
   2  -1 -12 81897.4 4555.55  12
   2  -1 -12 124168. 6685.30  36
   2  -1 -12 112432. 4266.63  11
   2  -1 -12 98560.3 4003.76  19
   2  -1 -11 54129.4 2576.48  60
   2  -1 -11 69377.3 3246.99  41
   2  -1 -11 57628.7 2951.81  47
   2  -1 -11 60354.2 2920.92  14
   2  -1 -11 58455.0 2810.20  19
   2  -1 -11 56509.9 3520.45  12
   2  -1 -11 74886.6 4874.24  36
   2  -1 -11 64408.1 2922.50  11
  -2  -1  11 60946.9 2625.56   1
   2  -1 -11 61305.3 2667.21   4
   2  -1 -10 45305.3 2186.98  60
   2  -1 -10 42983.8 2401.93  47
   2  -1 -10 54913.4 2701.17  41
   2  -1 -10 45490.4 2384.61  14
   2  -1 -10 47364.3 2357.93  19
   2  -1 -10 49567.5 3048.09  12
   2  -1 -10 53698.8 2469.23  11
  -2  -1  10 49418.0 2203.62   1
   2  -1  -9 14495.8 1067.51  60
  -2  -1   9 10706.9 914.009  63
   2  -1  -9 15288.3 1160.40  11
   2  -1  -9 15144.4 1654.55  12
  -2  -1   9 15908.2 1085.25   1
   2  -1  -9 14758.4 1236.16  47
  -2  -1   8 477.377 179.896   1
  -2  -1   8 363.819 159.185  63
   2  -1  -8 791.605 235.934  60
   2  -1  -8 415.871 357.804  12
   2  -1  -8 923.960 281.387  11
   2  -1  -8 949.811 321.076  21
   2  -1  -8 825.435 284.413  42
   2  -1  -8 398.100 198.054  47
  -2  -1   7 16308.9 980.373   1
   2  -1  -7 19244.7 1200.78  58
   2  -1  -7 17309.7 1039.15  60
   2  -1  -7 17241.7 1081.08  11
   2  -1  -7 16176.3 1489.25  12
   2  -1  -7 16132.3 1164.24  47
   2  -1  -7 18846.1 1168.72  54
  -2  -1   6 106316. 3146.83   1
   2  -1  -6 119995. 3735.47  58
   2  -1  -6 99661.9 3133.73  60
   2  -1  -6 100127. 3198.76  11
   2  -1  -6 102148. 3527.20  54
   2  -1  -6 113093. 3554.93  47
   2  -1  -5 81344.0 2860.64  54
   2  -1  -5 70859.6 2505.27  47
   2  -1  -5 69119.2 2210.85  11
  -2  -1   5 71660.5 2186.00   1
  -2  -1   5 65334.9 1800.49   2
   2  -1  -5 76657.3 2824.38  58
   2  -1  -4 151466. 4577.25  58
  -2  -1   4 169752. 4093.40  45
   2  -1  -4 154033. 4196.09  45
   2  -1  -4 138282. 4491.91  54
   2  -1  -4 144732. 4086.08  49
   2  -1  -4 141312. 4064.71  47
   2  -1  -4 127875. 4402.55  12
   2  -1  -4 131809. 3631.26  11
   2  -1  -3 12316.7 1022.90  58
   2  -1  -3 15530.2 1435.83  42
  -2  -1   3 11931.9 730.310  45
   2  -1  -3 9863.84 733.572  45
   2  -1  -3 13678.7 832.347  49
   2  -1  -3 11806.6 991.446  54
   2  -1  -3 10389.2 876.998  12
   2  -1  -3 11247.1 551.594  11
   2  -1  -2 51400.4 2329.40  58
   2  -1  -2 48484.4 2206.83  54
   2  -1  -2 58464.8 1906.80  49
  -2  -1   2 54704.5 1779.20  45
   2  -1  -1 110330. 3164.49  13
   2  -1  -1 110497. 2923.87  49
   2  -1  -1 101868. 2765.23  50
   2  -1   0 89520.5 3277.64  58
   2  -1   0 85979.5 2559.97  50
   2  -1   0 88110.5 3179.42  54
   2  -1   1 308970. 8102.00  58
   2  -1   1 293980. 7225.69  50
   2  -1   1 282943. 7949.15  54
   2  -1   2 241250. 5907.98  13
   2  -1   2 247613. 6506.11  58
   2  -1   2 216792. 6267.10  54
   2  -1   2 221088. 5581.48  51
   2  -1   2 256762. 7439.40  42
  -2  -1  -2 211619. 5740.28  43
   2  -1   3 191285. 3984.82  13
   2  -1   3 184690. 4544.27  58
  -2  -1  -3 147339. 3388.32  12
  -2  -1  -3 194011. 4051.76  43
   2  -1   3 245608. 6042.52  42
   2  -1   3 173313. 4358.82  54
   2  -1   4 21562.4 1167.56  13
   2  -1   4 19503.5 1319.11  58
   2  -1   4 17078.2 1102.20  63
  -2  -1  -4 15089.7 874.958  12
  -2  -1  -4 16955.7 972.847  11
   2  -1   4 23596.8 1801.82  42
   2  -1   4 18719.8 1262.71  54
   2  -1   5 48759.3 2262.27  54
   2  -1   5 60529.5 2459.76  58
   2  -1   5 57059.0 2137.77  13
  -2  -1  -5 46245.3 1794.68  12
  -2  -1  -5 53996.6 2019.88  11
   2  -1   5 48432.6 1926.20   1
   2  -1   6 38248.6 1749.19   1
  -2  -1  -6 40898.6 1874.34  46
   2  -1   6 41891.4 1933.34  54
   2  -1   6 44299.5 2059.84  58
   2  -1   6 38881.6 1806.73  13
  -2  -1  -6 42931.9 1703.87  12
  -2  -1  -6 41580.8 1824.02  11
   2  -1   7 20892.4 1287.47   1
  -2  -1  -7 23932.3 1420.16  46
   2  -1   7 23389.3 1315.65  54
   2  -1   7 25599.8 1807.89  42
   2  -1   7 25988.3 1574.72  63
   2  -1   7 21707.8 1310.57  13
  -2  -1  -7 20960.7 1178.79  12
  -2  -1  -7 21317.9 1304.64  11
   2  -1   8 3887.63 560.440   1
   2  -1   8 4556.84 648.357  52
  -2  -1  -8 3408.54 540.568  46
   2  -1   8 5609.20 762.011  42
   2  -1   8 5287.72 730.839  63
   2  -1   8 3086.90 482.083  13
  -2  -1  -8 3599.32 551.840  11
   2  -1   8 6416.19 850.658  21
   2  -1   9 129118. 4317.70  52
  -2  -1  -9 125240. 4094.45  46
   2  -1   9 103218. 4146.14  16
   2  -1   9 99359.6 3635.28  13
   2  -1   9 114608. 4339.38  10
   2  -1   9 107567. 4020.92   9
  -2  -1  -9 121084. 4079.98  11
   2  -1   9 116281. 3992.07   1
   2  -1  10 22113.4 1530.54   1
   2  -1  10 25964.5 1831.06  63
   2  -1  10 23963.9 1687.34  52
  -2  -1 -10 20932.3 1465.31  46
   2  -1  10 22100.0 1471.06  53
  -2  -1 -10 21765.8 1513.99  14
   2  -1  10 20505.9 1653.49  16
   2  -1  10 19313.3 1278.85  13
   2  -1  10 20337.1 1310.87  17
   2  -1  10 21719.2 1578.48   9
   2  -1  10 22061.6 1757.88  10
  -2  -1 -10 24200.6 1615.26  11
  -2  -1 -10 23710.2 1614.23  19
   2  -1  11 96133.7 3862.94   1
  -2  -1 -11 98427.6 3689.53   5
   2  -1  11 128968. 4610.56  63
   2  -1  11 114875. 4250.57  52
   2  -1  11 109442. 3834.65  53
  -2  -1 -11 96988.8 3857.01  14
   2  -1  11 92267.4 4109.09  16
   2  -1  11 91426.9 3457.04  17
   2  -1  11 90790.2 3333.97  34
   2  -1  11 102454. 4289.27  10
   2  -1  11 95125.1 3913.19   9
  -2  -1 -11 105690. 3983.94  11
  -2  -1 -11 102529. 3973.65  19
   2  -1  12 10187.4 1129.97   1
  -2  -1 -12 11390.5 1098.10   5
   2  -1  12 11814.7 1130.40  53
   2  -1  12 15112.8 1486.60  63
  -2  -1 -12 10710.7 1170.51  14
   2  -1  12 11479.4 1332.92  16
   2  -1  12 10178.1 983.747  17
   2  -1  12 10836.8 1310.15  10
   2  -1  12 11770.3 1257.02   9
  -2  -1 -12 12168.9 1237.36  11
  -2  -1 -12 11879.8 1243.15  19
   2  -1  13 2982.64 636.159   1
  -2  -1 -13 4265.03 783.296   4
  -2  -1 -13 3394.59 586.117   5
   2  -1  13 4119.49 670.962  53
   2  -1  13 4215.53 809.277  63
  -2  -1 -13 3669.87 707.262  14
   2  -1  13 4005.99 821.687  16
   2  -1  13 3599.43 577.034  17
   2  -1  13 4158.73 823.489  10
   2  -1  13 3534.89 720.372   9
  -2  -1 -13 4274.32 768.097  11
  -2  -1 -13 4365.59 776.237  19
   2  -1  14 4054.06 747.734   1
  -2  -1 -14 4889.68 848.574   4
   2  -1  14 3727.21 636.614  53
  -2  -1 -14 4494.80 795.218  60
   2  -1  14 4062.15 804.656  63
   2  -1  14 4174.24 846.319  16
   2  -1  14 3482.38 575.102  17
   2  -1  14 5059.32 922.453  10
   2  -1  14 3884.26 750.881   9
  -2  -1 -14 4486.29 792.615  11
  -2  -1 -14 4328.13 808.421  19
  -2  -1 -15 23179.6 1846.91   4
   2  -1  15 18444.4 1403.66  53
  -2  -1 -15 21560.7 1859.67  47
   2  -1  15 19937.6 1859.04  16
   2  -1  15 17951.6 1306.07  17
   2  -1  15 22906.6 1889.86  63
  -2  -1 -15 20690.0 1722.73  60
   2  -1  15 19456.9 1814.37  10
   2  -1  15 19375.4 1694.56   9
  -2  -1 -15 20873.9 1712.94  11
  -2  -1 -15 20452.7 1745.53  19
  -2  -1 -16 31349.3 2089.35   4
  -2  -1 -16 22299.0 1821.44   3
   2  -1  16 29632.8 2204.93  16
   2  -1  16 28401.8 2053.80  63
   2  -1  16 30130.4 2191.84  10
   2  -1  16 26812.9 1955.15   9
  -2  -1 -16 27127.6 1944.73  11
  -2  -1 -16 26754.9 1989.53  19
  -2  -1 -17 24641.5 1748.34   4
   2  -1  17 23319.8 1841.74  16
   2  -1  17 23469.0 1713.92  63
   2  -1  17 22258.0 1780.10  10
   2  -1  17 22910.8 1683.95   9
  -2  -1 -17 23690.4 1660.86  11
  -2  -1 -17 22214.3 1700.46  19
  -2  -1 -18 18790.2 1403.43   4
   2  -1  18 13339.9 1124.99  63
   2  -1  18 14802.4 1342.23  16
   2  -1  18 15669.4 1345.95  10
   2  -1  18 14349.4 1211.90   9
  -2  -1 -18 15075.9 1290.68  19
  -2  -1 -19 11512.5 976.159  19
  -2  -1 -19 9255.47 976.241  41
   2  -1  19 12108.2 1001.47  10
   2  -1  19 11840.5 953.637   9
  -2  -1 -19 12868.5 1026.91   4
   2  -1  19 12405.3 1070.75  16
   2  -1  20 3196.38 435.853  16
  -2  -1 -20 2444.44 392.599  41
   2  -1  20 3249.47 392.193  10
   2  -1  20 3159.44 385.372   9
  -2   0  21 3314.55 421.020  10
  -2   0  21 3362.55 385.467  16
  -2   0  20 583.350 248.371  10
  -2   0  20 961.298 253.027   9
  -2   0  20 817.915 266.295  16
   2   0 -19 2713.30 499.423  19
   2   0 -19 4042.49 776.303  37
  -2   0  19 2937.71 573.011  16
  -2   0  19 2596.69 559.786  10
  -2   0  19 4076.78 602.309   9
   2   0 -19 2947.43 514.173   4
   2   0 -18 1918.24 647.268  37
   2   0 -18 1466.14 414.939  19
  -2   0  18 1808.78 452.097   9
   2   0 -18 1610.07 429.950   4
   2   0 -17 4908.05 803.862  19
   2   0 -17 5409.03 1231.67  37
  -2   0  17 6503.41 898.546   9
   2   0 -17 4300.30 758.527   4
   2   0 -16 40555.3 2525.59   4
  -2   0  16 39181.4 2373.61   1
   2   0 -16 38455.3 2559.13  47
   2   0 -16 40966.1 2563.35  60
   2   0 -16 46201.8 3787.34  37
  -2   0  16 45802.1 2586.52   9
   2   0 -16 40187.8 2483.82  19
   2   0 -15 31564.9 2219.58   4
  -2   0  15 39420.7 2321.41   1
   2   0 -15 37901.7 2457.49  60
   2   0 -15 32345.5 2330.74  47
   2   0 -15 40730.3 3971.32  36
   2   0 -15 40371.9 3578.99  37
   2   0 -15 27256.3 2202.41  11
  -2   0  15 33481.2 2241.71   9
   2   0 -15 39450.2 3101.78  20
   2   0 -15 31722.8 2202.43  19
  -2   0  14 88974.4 3736.79   1
   2   0 -14 84101.8 3823.17   4
   2   0 -14 92036.8 4042.28  60
   2   0 -14 79908.2 3872.40  47
   2   0 -14 79943.8 3823.53  14
  -2   0  14 84350.7 3858.61  13
   2   0 -14 98380.2 5756.05  37
   2   0 -14 113810. 6713.04  36
   2   0 -14 70390.2 3792.24  11
   2   0 -14 87069.4 3842.88  19
   2   0 -14 108711. 4901.07  23
   2   0 -14 104786. 5411.21  20
  -2   0  13 8601.29 1000.09   1
   2   0 -13 7811.20 1023.73   4
   2   0 -13 9526.18 1150.84  60
   2   0 -13 7378.37 1019.76  47
   2   0 -13 7726.85 1034.83  14
   2   0 -13 11152.0 1823.20  37
   2   0 -13 11575.4 2045.26  36
   2   0 -13 7356.54 1113.99  11
   2   0 -13 11022.7 1644.23  20
   2   0 -13 8403.73 1052.99  19
   2   0 -13 12265.9 1514.27  23
   2   0 -12 5418.29 814.519   4
  -2   0  12 6190.42 810.804   1
   2   0 -12 5066.40 803.522  60
   2   0 -12 6507.33 914.259  47
   2   0 -12 5012.14 790.738  14
   2   0 -12 7351.24 1556.49  36
   2   0 -12 6102.74 1319.29  37
   2   0 -12 4674.19 829.112  11
   2   0 -12 7681.33 1327.39  20
   2   0 -12 7116.57 1150.65  23
   2   0 -12 6057.72 819.525  19
   2   0 -11 1564.38 394.695   4
  -2   0  11 2241.78 472.547   1
   2   0 -11 2129.20 514.428  60
   2   0 -11 2849.50 621.259  41
   2   0 -11 1907.32 472.735  47
   2   0 -11 2169.56 481.251  14
   2   0 -11 2620.52 870.270  36
   2   0 -11 1748.17 489.041  11
   2   0 -11 3332.70 768.352  23
   2   0 -11 2354.02 479.089  19
   2   0 -10 45493.6 2307.96  47
   2   0 -10 51900.3 2662.06  41
   2   0 -10 43954.1 2303.25  60
   2   0 -10 43995.0 2309.66  11
  -2   0  10 48426.6 1875.48   6
  -2   0  10 42255.0 2113.06   1
  -2   0   9 134808. 3723.06   2
  -2   0   9 149071. 4458.02   1
  -2   0   9 158372. 4121.10   6
   2   0  -9 146969. 4620.01  47
   2   0  -9 144767. 4687.71  11
   2   0  -9 148257. 4678.11  60
   2   0  -8 70323.1 2673.98  60
   2   0  -8 68763.2 2576.09  47
   2   0  -8 52979.3 1917.16  54
  -2   0   8 70762.7 2491.69   1
  -2   0   8 71881.5 2078.36   2
  -2   0   8 68150.8 2244.74   6
   2   0  -8 58347.6 2521.21  11
   2   0  -8 79909.8 3029.03  21
   2   0  -7 12959.0 957.700  60
   2   0  -7 12771.1 788.558  54
   2   0  -7 12614.1 911.461  47
  -2   0   7 11890.0 681.977   2
  -2   0   7 13351.9 887.012   1
  -2   0   7 12716.1 797.740   6
   2   0  -7 7800.56 1078.42  12
   2   0  -7 10729.4 881.279  11
   2   0  -7 17430.3 1388.01  21
   2   0  -6 44355.2 1764.10  60
   2   0  -6 45437.6 1680.60  47
   2   0  -6 49610.7 2340.52  42
   2   0  -6 40988.0 1586.24  54
  -2   0   6 45526.7 1623.73   1
  -2   0   6 46209.3 1421.29   2
  -2   0   6 30668.6 1327.68   6
   2   0  -6 24001.3 1925.64  12
   2   0  -6 40794.7 1663.25  11
   2   0  -6 64461.0 2763.02  21
   2   0  -5 77119.0 3144.62  42
   2   0  -5 67816.0 2322.52  54
   2   0  -5 68234.5 2185.25  47
   2   0  -5 72562.3 2339.11  60
  -2   0   5 68737.2 2026.35   2
   2   0  -5 61739.4 2169.85  11
   2   0  -4 1808.26 274.972  11
   2   0  -4 1747.75 284.622  60
   2   0  -4 2005.53 483.164  42
   2   0  -4 1686.67 311.303  54
   2   0  -4 1705.17 251.776  47
  -2   0   4 1932.72 261.129   2
   2   0  -4 1753.04 223.540  31
   2   0  -4 2292.72 526.609  21
   2   0  -3 24951.2 1711.50  12
   2   0  -3 41892.9 1361.50  31
   2   0  -3 59650.2 2770.37  21
  -2   0   3 45357.0 1655.06  45
   2   0  -3 43827.8 1422.71  47
   2   0  -3 44994.6 1398.15  49
   2   0  -3 40539.4 1694.35  55
   2   0  -3 43220.7 1765.07  54
   2   0  -3 53388.6 2522.04  42
   2   0  -2 9460.17 732.775  55
   2   0  -2 10003.3 472.314  50
   2   0  -2 12351.9 572.718  49
   2   0  -2 12692.2 1172.78  42
   2   0  -2 9864.42 776.627  54
   2   0  -1 936289. 20174.9  21
   2   0  -1 778280. 17741.5  51
   2   0  -1 999999. 17942.7  50
   2   0  -1 811722. 19702.6  42
   2   0  -1 718198. 18447.5  55
   2   0   0 338610. 7897.76  52
   2   0   0 362733. 8684.20  55
   2   0   0 345217. 8733.70  54
   2   0   1 256.754 100.742  31
   2   0   1 287.905 95.6501  52
   2   0   1 324.460 98.4395  51
  -2   0  -1 476.426 157.663  46
   2   0   1 141.719 139.170  54
   2   0   2 31938.6 1267.27  52
   2   0   2 38642.1 1686.79  54
   2   0   2 40560.8 2207.28  42
  -2   0  -2 35610.2 1466.32  46
  -2   0  -2 42292.2 1364.38  43
   2   0   2 37279.3 1644.13  55
   2   0   2 40026.9 1288.59  31
  -2   0  -2 37861.8 1191.84  11
   2   0   3 20729.4 1568.10  21
   2   0   3 13142.8 764.730  52
   2   0   3 10200.9 901.423  55
   2   0   3 17611.7 1041.80  54
   2   0   3 18092.6 1422.38  42
  -2   0  -3 15011.0 699.540  48
   2   0   3 12150.4 692.231  13
   2   0   3 16223.8 718.786  31
  -2   0  -3 14769.6 690.633  11
   2   0   4 53755.3 1872.42  52
   2   0   4 68332.0 2885.85  42
  -2   0  -4 52904.8 1722.47  48
   2   0   4 62894.8 2155.60  54
   2   0   4 76117.5 3159.39  21
   2   0   4 41463.4 1540.96  13
  -2   0  -4 52322.1 1694.03  11
   2   0   4 53837.7 1894.11   1
   2   0   5 41134.5 1662.38   1
  -2   0  -5 39365.1 1525.54  48
   2   0   5 42689.8 1696.29  52
   2   0   5 50728.5 2459.77  42
   2   0   5 46357.1 1799.24  54
  -2   0  -5 39906.3 1762.94  46
   2   0   5 39290.4 1745.82  63
   2   0   5 28783.3 1201.94  13
  -2   0  -5 41542.0 1532.71  11
   2   0   5 60177.5 2787.78  21
   2   0   6 71789.0 2484.63   1
  -2   0  -6 72267.5 2367.96  48
   2   0   6 75783.1 2400.49  54
   2   0   6 69599.8 2402.10  53
  -2   0  -6 72632.2 2654.85  46
   2   0   6 78104.0 3151.68  42
   2   0   6 71564.5 2625.77  63
  -2   0  -6 68580.2 2268.30  11
   2   0   7 118347. 3589.45   1
  -2   0  -7 119866. 3521.80  48
   2   0   7 135002. 3345.63  54
  -2   0  -7 117996. 3742.73  46
   2   0   7 127200. 3562.57  53
   2   0   7 134622. 3945.77  63
  -2   0  -7 121303. 3415.04  11
   2   0   8 82466.2 3080.39   1
  -2   0  -8 91747.8 3148.59   5
   2   0   8 94725.7 3432.85  63
  -2   0  -8 80999.8 2918.04  11
   2   0   8 82076.4 3276.27  21
  -2   0  -8 83740.7 3056.96  48
   2   0   8 90272.9 3062.63  53
   2   0   9 59300.8 2455.81  53
   2   0   9 59923.7 2750.27  63
  -2   0  -9 56150.5 2383.17  11
   2   0   9 50999.8 2427.10   1
  -2   0  -9 65204.7 2637.82   5
   2   0  10 80.8626 116.071  53
   2   0  10 352.982 214.706  63
   2   0  10 389.771 176.753  17
  -2   0 -10 559.026 231.349  19
   2   0  10 212.844 152.650  10
   2   0  10 488.639 178.945   8
   2   0  10 597.154 247.115   9
  -2   0 -10 542.305 260.740  11
   2   0  10 369.935 209.654   1
  -2   0 -10 423.324 221.608   5
   2   0  11 3262.90 615.830   1
  -2   0 -11 3521.33 643.900   4
  -2   0 -11 4165.35 655.532   5
   2   0  11 3110.72 557.204  53
   2   0  11 3801.15 718.212  63
   2   0  11 3163.28 550.154  17
   2   0  11 2830.17 589.619  10
   2   0  11 3241.15 633.983   9
  -2   0 -11 4621.90 684.981  11
  -2   0 -11 3037.69 601.435  19
   2   0  12 80896.0 3590.51   1
  -2   0 -12 92463.9 3771.48   4
  -2   0 -12 79624.8 3388.49   5
   2   0  12 89562.4 3502.42  53
   2   0  12 98371.3 4042.36  63
  -2   0 -12 67779.4 3336.33  61
   2   0  12 81531.2 3329.05  17
   2   0  12 84543.5 3797.81  10
   2   0  12 84168.6 3728.24   9
  -2   0 -12 91210.1 3598.93  11
  -2   0 -12 86713.9 3731.08  19
   2   0  13 115223. 4621.08   1
  -2   0 -13 127231. 4769.34   4
  -2   0 -13 112106. 4253.48   5
   2   0  13 118688. 4361.24  53
   2   0  13 125763. 4932.71  63
   2   0  13 126614. 4970.07  10
   2   0  13 118188. 4730.46   9
  -2   0 -13 125902. 4587.82  11
  -2   0 -13 120932. 4739.43  19
   2   0  13 117865. 4309.52  17
   2   0  14 10253.4 1217.41   1
  -2   0 -14 13272.7 1370.62   4
  -2   0 -14 10459.8 1076.51   5
  -2   0 -14 11344.8 1335.61  60
   2   0  14 11923.0 1344.72  63
   2   0  14 11385.4 1348.44  10
   2   0  14 12560.6 1372.09   9
  -2   0 -14 10641.1 1179.37  11
  -2   0 -14 10882.4 1277.47  19
   2   0  14 10373.3 1092.98  17
   2   0  15 3656.74 720.021   1
  -2   0 -15 4483.63 809.726   4
  -2   0 -15 4377.36 846.536   3
   2   0  15 3260.41 728.384  16
   2   0  15 3689.46 634.571  17
  -2   0 -15 3018.44 737.149  60
   2   0  15 3877.70 749.804  63
   2   0  15 3601.87 741.973  10
   2   0  15 3163.39 695.304   9
  -2   0 -15 3484.94 680.783  11
  -2   0 -15 2848.12 666.763  19
   2   0  16 17593.9 1562.16   1
  -2   0 -16 19858.5 1669.52   4
  -2   0 -16 18082.2 1651.43   3
   2   0  16 18680.3 1727.23  16
   2   0  16 16661.0 1318.67  17
   2   0  16 14874.6 1444.88  63
   2   0  16 15384.8 1169.72  34
   2   0  16 18148.2 1641.13  10
   2   0  16 16915.9 1582.10   9
  -2   0 -16 16663.5 1470.54  11
  -2   0 -16 16637.3 1575.84  19
  -2   0 -17 8219.17 1015.48   4
  -2   0 -17 5835.58 868.112   3
   2   0  17 6645.54 970.050  16
   2   0  17 7449.50 797.843  17
   2   0  17 6435.81 853.265  63
   2   0  17 8080.83 997.779  10
   2   0  17 7278.99 993.454   9
  -2   0 -17 6638.39 861.218  11
  -2   0 -17 6781.71 943.674  19
   2   0  18 853.717 229.279  17
  -2   0 -18 1053.19 356.616  19
   2   0  18 1017.07 369.837  16
  -2   0 -18 1205.24 415.874  41
   2   0  18 1077.82 353.033  10
   2   0  18 956.611 343.065   9
  -2   0 -18 776.886 299.404   3
  -2   0 -18 962.185 352.078   4
   2   0  19 7380.75 645.631  26
  -2   0 -19 9507.62 922.353  19
  -2   0 -19 11274.7 1038.42  41
   2   0  19 9565.10 923.259   9
  -2   0 -19 10587.3 958.835   4
   2   0  19 10927.0 996.099  16
  -2   0 -20 13852.6 970.634  41
   2   0  20 16894.6 1034.82   9
  -2   0 -20 17188.0 1062.19   4
   2   0  20 16711.2 1023.37  16
  -2   1  21 2494.54 316.079   9
   2   1 -21 1756.30 316.938  41
  -2   1  21 2051.72 307.300  16
   2   1 -20 12487.2 1046.45  41
  -2   1  20 9307.70 811.693  10
  -2   1  20 13063.3 958.061   9
   2   1 -20 11814.6 920.894   4
  -2   1  20 12920.6 1023.90  16
   2   1 -19 23192.1 1674.93  41
  -2   1  19 16670.9 1343.48  10
  -2   1  19 24648.5 1542.54   9
   2   1 -19 19055.9 1418.28   4
   2   1 -18 35147.7 2312.51  41
   2   1 -18 37069.4 2887.51  37
  -2   1  18 32234.9 2011.65   9
   2   1 -18 31435.2 2057.65   4
   2   1 -17 13304.3 1297.25  19
   2   1 -17 16501.0 1655.43  41
  -2   1  17 12992.2 1043.43  17
   2   1 -17 16449.0 2114.57  37
  -2   1  17 15739.9 1446.39   9
   2   1 -17 13171.6 1400.23   4
   2   1 -16 4376.43 840.958   4
   2   1 -16 4786.99 857.571  60
   2   1 -16 4323.72 899.180  41
   2   1 -16 4367.00 756.694  47
  -2   1  16 3658.81 593.939  17
   2   1 -16 4188.17 1144.54  37
  -2   1  16 4720.66 828.428   9
   2   1 -16 4204.67 769.280  19
   2   1 -15 4836.45 931.184  60
   2   1 -15 5931.07 1053.90  41
   2   1 -15 4632.13 808.189  47
  -2   1  15 6294.24 786.177  17
   2   1 -15 7613.57 1581.72  37
   2   1 -15 5269.31 931.730   4
   2   1 -15 5316.98 867.485  19
   2   1 -14 2202.48 604.455  60
   2   1 -14 2391.30 577.340  47
  -2   1  14 2549.37 499.229  17
   2   1 -14 2426.03 918.586  37
   2   1 -14 2742.90 709.353  41
   2   1 -14 2441.61 560.228  19
   2   1 -14 2520.46 641.843   4
  -2   1  14 2529.25 473.063   6
   2   1 -13 5895.95 951.704   4
  -2   1  13 5271.56 705.712   6
   2   1 -13 5727.57 959.106  60
   2   1 -13 5880.19 1020.09  41
  -2   1  13 6491.83 789.383  17
   2   1 -13 8355.24 1602.02  37
   2   1 -13 7773.41 1770.26  36
   2   1 -13 5098.50 647.359  29
   2   1 -13 7349.55 1282.91  20
   2   1 -13 5563.47 875.479  19
   2   1 -12 94214.7 4111.66   4
  -2   1  12 104745. 3675.15   6
   2   1 -12 96447.9 4271.13  60
   2   1 -12 118116. 4782.88  41
  -2   1  12 109812. 3777.37  17
   2   1 -12 143899. 7469.21  36
   2   1 -12 124400. 6332.26  37
   2   1 -12 83957.1 3404.86  29
   2   1 -12 146732. 7417.48  27
   2   1 -12 102145. 4068.97  19
   2   1 -12 124234. 5734.72  20
  -2   1  11 59139.0 2500.05   6
   2   1 -11 49070.4 2703.17   4
  -2   1  11 50811.4 2180.74   2
   2   1 -11 59756.9 3002.07  60
   2   1 -11 58978.2 2968.92  61
   2   1 -11 66027.7 3284.59  41
  -2   1  11 61182.5 2533.53  17
   2   1 -11 66939.1 4360.13  37
   2   1 -11 77277.2 5204.89  36
   2   1 -11 47520.4 2273.24  29
   2   1 -11 76766.0 5082.73  27
   2   1 -11 86893.4 5648.66  32
   2   1 -11 70582.9 4006.96  20
   2   1 -11 51900.8 2613.68  19
   2   1 -10 47192.2 2527.25  61
   2   1 -10 44765.8 2467.94  60
   2   1 -10 51570.9 2742.56  41
   2   1 -10 63538.8 4456.74  36
   2   1 -10 57681.3 3764.04  37
   2   1 -10 56413.0 4091.22  27
   2   1 -10 37708.4 2244.16   4
  -2   1  10 47633.2 2008.24   2
  -2   1  10 46167.0 2149.90   6
   2   1 -10 58278.9 3562.81  20
  -2   1   9 15146.3 1016.92   2
  -2   1   9 16381.0 1135.72   6
   2   1  -9 15497.0 1327.74  61
   2   1  -9 14568.9 1257.94  60
  -2   1   8 307.964 149.242   2
  -2   1   8 352.181 170.639   6
   2   1  -8 448.418 225.481  60
   2   1  -8 359.847 223.364  61
   2   1  -8 366.828 110.694  31
   2   1  -8 15.9702 137.438  55
  -2   1   7 17947.9 1088.16   6
  -2   1   7 14463.3 931.698   2
   2   1  -7 14488.0 1106.88  60
   2   1  -7 14110.2 1154.87  61
   2   1  -7 14770.8 732.180  31
  -2   1   6 78599.5 2849.29   6
  -2   1   6 110326. 3065.13   2
   2   1  -6 104181. 3455.81  61
   2   1  -6 92633.1 3213.30  60
   2   1  -6 98302.9 2616.98  31
   2   1  -6 84403.2 2882.25  55
   2   1  -5 83544.3 2704.59  54
   2   1  -5 75751.7 2481.22  55
   2   1  -5 65211.8 2620.02  61
   2   1  -5 68476.8 2293.22  62
   2   1  -5 69515.8 2535.41  60
  -2   1   5 76247.8 2432.36   2
  -2   1   5 75786.0 2499.74   6
   2   1  -5 67918.8 2105.08  31
   2   1  -5 93340.7 4073.72  21
   2   1  -4 148084. 4056.85  55
   2   1  -4 152913. 4279.78  54
   2   1  -4 145388. 4303.62  61
   2   1  -4 139268. 3922.63  62
  -2   1   4 158732. 4098.81   2
   2   1  -4 138349. 3703.45  31
   2   1  -3 8864.08 397.125  47
   2   1  -3 9824.35 724.854  55
   2   1  -3 10674.3 820.088  54
   2   1  -3 11035.6 723.300  62
  -2   1   3 9233.71 442.037   5
  -2   1   3 11036.0 738.568   2
   2   1  -3 9090.85 579.138  31
  -2   1   2 50222.6 1468.95   5
  -2   1   2 58401.1 1891.65   2
   2   1  -2 43365.2 1701.43  62
   2   1  -2 42833.0 1748.04  55
   2   1  -2 48404.0 1991.11  54
   2   1  -2 57492.0 3093.35  21
  -2   1   1 107801. 2757.68   5
  -2   1   1 115936. 3090.83   2
   2   1  -1 86980.7 2893.62  62
   2   1  -1 126843. 4824.28  21
   2   1  -1 91948.1 2979.70  55
  -2   1   1 113092. 2960.41  45
  -2   1   0 95833.8 2472.94  45
   2   1   0 77004.4 2548.34  55
   2   1   0 82184.6 2796.37  54
   2   1   0 70841.4 2442.08  62
  -2   1   0 93509.1 2440.00   5
   2   1   0 73263.0 2291.76  31
   2   1   0 95452.8 4128.85  21
  -2   1  -1 279327. 6442.41   5
   2   1   1 258482. 6266.85  31
   2   1   1 273667. 6916.57  54
   2   1   2 202970. 5267.77  55
   2   1   2 229206. 5673.56  54
   2   1   2 195054. 5146.50  62
   2   1   2 192409. 5164.92   6
  -2   1  -2 199079. 5138.67   5
   2   1   2 205476. 4938.96  31
   2   1   2 241399. 7332.13  21
   2   1   3 158490. 4249.85  55
   2   1   3 143962. 4068.30  62
  -2   1  -3 136568. 4089.61   5
   2   1   3 152428. 3855.80  31
  -2   1  -4 13816.1 653.732  11
   2   1   4 15661.2 1044.00  54
   2   1   4 15475.3 940.065  55
   2   1   4 10927.7 892.182  63
   2   1   4 13190.7 843.629  62
   2   1   4 15201.9 878.769   1
   2   1   4 17292.0 978.838   6
  -2   1  -4 12522.9 883.168   5
   2   1   4 13540.0 715.000  31
  -2   1  -5 51707.5 1717.28  11
   2   1   5 62573.4 2172.62  55
   2   1   5 59881.1 2264.21  54
   2   1   5 41301.2 2065.81  63
   2   1   5 57818.9 2135.32   6
   2   1   5 53496.6 2006.70   1
   2   1   5 51423.0 1683.51  31
   2   1   5 72554.6 3529.07  21
   2   1   6 31271.0 1766.47  63
   2   1   6 42279.7 1856.62   6
   2   1   6 38648.0 1714.90   1
   2   1   6 36344.6 1690.78  53
   2   1   6 44258.4 1841.73  55
   2   1   6 41820.9 1382.50  31
  -2   1  -6 38203.1 1492.64  11
   2   1   7 19229.0 1225.67   1
   2   1   7 23453.0 1365.24   6
  -2   1  -7 21057.8 1333.37   5
   2   1   7 20261.1 1246.37  53
   2   1   7 18841.2 1240.87  55
  -2   1  -7 20558.4 1315.21  48
   2   1   7 22040.6 893.196  31
  -2   1  -7 20333.6 1105.66  11
   2   1   8 2762.47 473.116  53
  -2   1  -8 3329.20 553.275  48
   2   1   8 2369.56 516.713  63
  -2   1  -8 2894.95 431.109  11
   2   1   8 2857.39 495.216   1
   2   1   8 4170.25 589.289   6
  -2   1  -8 2705.12 498.541   5
   2   1   9 110499. 3994.73   1
   2   1   9 133114. 4214.96   6
  -2   1  -9 126995. 4229.28   5
   2   1   9 124227. 4065.17  53
  -2   1  -9 120801. 4209.44  48
   2   1   9 105621. 4237.90  63
   2   1   9 114297. 3953.93  17
   2   1   9 124221. 3874.85   8
  -2   1  -9 120659. 3828.29  11
   2   1   9 113693. 4117.41   9
  -2   1  -9 113547. 4130.48  19
   2   1  10 23935.9 1589.95   6
  -2   1 -10 24142.6 1594.62   4
   2   1  10 20713.5 1518.95   1
  -2   1 -10 22461.4 1591.79   5
  -2   1 -10 21649.4 1612.35  48
   2   1  10 21186.2 1627.82  63
   2   1  10 21886.6 1495.79  17
   2   1  10 21974.6 1389.10   8
  -2   1 -10 21770.9 1428.36  11
   2   1  10 22303.5 1408.23   7
   2   1  10 20372.9 1543.39   9
  -2   1 -10 20511.4 1560.42  19
  -2   1 -11 115800. 4142.56   4
   2   1  11 100880. 3974.40   1
   2   1  11 125426. 4179.16   6
  -2   1 -11 104817. 4010.11   5
  -2   1 -11 98403.8 4097.78  48
   2   1  11 98855.7 3803.23  17
   2   1  11 97853.0 4151.54  63
   2   1  11 103246. 3636.92   8
   2   1  11 88595.7 3810.27  10
   2   1  11 109391. 3708.25   7
  -2   1 -11 95465.7 3676.11  11
   2   1  11 99327.8 4050.67   9
  -2   1 -11 96957.6 4009.58  19
  -2   1 -12 10561.0 1148.25   4
   2   1  12 8787.50 1070.72   1
   2   1  12 10880.4 1128.44   6
  -2   1 -12 11311.2 1181.31   5
  -2   1 -12 12021.7 1381.61   3
   2   1  12 7849.99 966.000  17
   2   1  12 9572.38 1155.18  63
  -2   1 -12 8319.58 1157.55  61
   2   1  12 10102.9 972.679   8
   2   1  12 11348.5 1000.48   7
   2   1  12 9766.31 1076.96  10
  -2   1 -12 9545.98 1027.18  11
   2   1  12 11325.3 1230.86   9
  -2   1 -12 9968.72 1170.14  19
   2   1  13 5092.92 828.397   1
  -2   1 -13 5313.24 844.091   4
  -2   1 -13 4803.38 785.320   5
  -2   1 -13 6000.70 1021.84   3
   2   1  13 5076.53 783.074  17
   2   1  13 6224.74 943.882  63
  -2   1 -13 4920.45 861.054  61
  -2   1 -13 4423.65 738.037  11
   2   1  13 4635.70 655.577   7
   2   1  13 4670.72 776.488  10
   2   1  13 5447.01 884.507   9
   2   1  13 4308.84 648.626   8
  -2   1 -13 4331.14 804.362  19
   2   1  14 3973.22 751.202   1
  -2   1 -14 5027.65 842.421   4
  -2   1 -14 4286.90 698.163   5
  -2   1 -14 6094.23 1032.46   3
   2   1  14 4524.52 746.910  17
   2   1  14 3761.19 747.760  63
  -2   1 -14 4218.78 776.919  61
  -2   1 -14 4979.64 937.469  60
   2   1  14 4231.92 720.064  10
   2   1  14 4216.01 780.224   9
   2   1  14 3974.62 617.115   8
  -2   1 -14 3440.53 635.095  11
  -2   1 -14 4206.30 814.263  19
   2   1  15 21103.3 1744.71   1
  -2   1 -15 20489.3 1708.70   4
  -2   1 -15 23739.8 1987.63   3
   2   1  15 20318.9 1595.48  17
   2   1  15 18814.1 1631.33  63
  -2   1 -15 23031.8 1938.50  60
  -2   1 -15 18971.8 1727.75  19
   2   1  15 21148.4 1655.76  10
  -2   1 -15 18978.4 1523.87  11
   2   1  15 22208.2 1835.25   9
  -2   1 -16 23008.7 1866.54  19
  -2   1 -16 17006.3 1549.14  18
   2   1  16 26093.5 1761.17  17
   2   1  16 24386.7 1869.78   1
  -2   1 -16 27300.0 1936.35   4
  -2   1 -16 31666.3 2209.20   3
   2   1  16 23626.1 1665.44  10
   2   1  16 27064.2 1989.18   9
  -2   1 -17 20921.3 1698.41  19
  -2   1 -17 26698.7 1853.50  41
   2   1  17 22127.7 1716.70  16
   2   1  17 21035.6 1486.84  17
   2   1  17 23784.8 1769.55   9
  -2   1 -17 21643.1 1647.03   4
  -2   1 -17 23272.9 1782.99   3
  -2   1 -18 17036.9 1332.57  41
   2   1  18 17680.1 1376.18  16
   2   1  18 14944.7 1119.89  17
   2   1  18 15230.8 995.529  34
   2   1  18 16663.7 1348.45   9
  -2   1 -18 16595.9 1328.57   4
  -2   1 -18 16063.1 1328.74   3
  -2   1 -19 12346.3 990.985   4
  -2   1 -19 8661.08 800.359   3
  -2   1 -19 11132.6 902.265  41
   2   1  19 10992.8 922.777  16
   2   1  19 11619.6 807.445  17
   2   1  19 8829.92 595.028  33
   2   1  19 12684.9 1016.32   9
   2   1  19 10716.5 856.370  26
   2   1  20 3555.10 432.236   9
  -2   1 -20 3405.45 426.667   4
   2   1  20 2533.30 315.315  26
   2   2 -20 8508.48 705.957   4
   2   2 -20 7092.31 641.559  41
  -2   2  19 2741.51 353.163  17
   2   2 -19 3999.60 592.914  41
   2   2 -19 3439.73 554.548   4
   2   2 -18 1051.36 379.902  41
   2   2 -18 922.966 360.759   4
  -2   2  18 1405.90 318.737  17
  -2   2  17 7022.48 791.587  17
   2   2 -17 6415.31 955.494  41
   2   2 -17 5723.21 904.331   4
  -2   2  16 36867.4 2039.29  17
   2   2 -16 37292.4 2547.27  41
   2   2 -16 34429.7 2400.48   4
  -2   2  16 32245.9 1878.43   6
   2   2 -15 31877.2 2391.33  41
  -2   2  15 32386.9 1964.89  17
   2   2 -15 27277.0 1731.11  29
   2   2 -15 29007.7 2259.97   4
  -2   2  15 31504.1 1922.62   6
   2   2 -15 29377.7 1956.35   3
  -2   2  15 35712.6 2189.02   1
   2   2 -14 26134.2 2192.45  41
  -2   2  14 25540.7 1751.37  17
   2   2 -14 19449.9 1523.19  29
   2   2 -14 21544.1 1944.46   4
  -2   2  14 22239.0 1635.71   6
   2   2 -14 22476.2 1757.53   3
  -2   2  14 23964.8 1784.59   1
  -2   2  13 6863.94 807.768   7
   2   2 -13 7138.59 1116.82  41
  -2   2  13 6980.80 885.500  17
   2   2 -13 7907.57 1616.01  37
   2   2 -13 6273.94 849.915  29
  -2   2  13 7166.86 947.839   1
  -2   2  13 6381.25 800.564   2
   2   2 -13 7025.92 955.824   3
  -2   2  13 5771.07 847.990   6
  -2   2  12 25717.7 1543.10   8
  -2   2  12 28784.1 1766.59   7
  -2   2  12 31963.5 1872.31   2
  -2   2  12 30759.9 1941.44   1
  -2   2  12 30929.8 1926.62   6
   2   2 -12 22341.1 1820.36   3
   2   2 -12 29715.8 2340.85  61
   2   2 -12 28600.4 2226.77  41
  -2   2  12 27709.8 1821.85  17
   2   2 -12 33922.9 3309.93  37
   2   2 -12 36966.4 4040.82  32
   2   2 -12 22562.4 1695.44  29
   2   2 -12 31788.1 2710.44  20
  -2   2  11 441.538 182.773   8
  -2   2  11 301.156 183.216   7
  -2   2  11 267.644 202.250   2
   2   2 -11 198.577 156.004   3
  -2   2  11 420.367 234.087   1
  -2   2  11 462.638 252.890   6
   2   2 -11 304.237 281.496  61
  -2   2  11 347.063 214.567  17
   2   2 -11 428.700 217.299  19
   2   2 -11 183.018 321.274  37
   2   2 -11 276.351 228.733  41
   2   2 -11 202.614 177.925  29
   2   2 -11 654.528 513.769  32
   2   2 -11 639.502 374.178  20
  -2   2  10 13014.2 1144.88   7
  -2   2  10 13696.2 1043.42   8
   2   2 -10 15762.9 1576.96  61
   2   2 -10 12533.8 1323.32  60
   2   2 -10 11737.3 1304.63  41
  -2   2  10 14626.0 1207.82   1
  -2   2  10 14437.9 1192.40   2
  -2   2  10 14915.2 1256.93   6
   2   2 -10 12572.3 1236.98   3
   2   2 -10 17681.2 2220.11  37
   2   2 -10 12120.7 1168.67  29
   2   2 -10 19198.9 2665.43  27
   2   2 -10 23750.2 3060.72  32
   2   2 -10 13372.9 1724.55  20
   2   2 -10 9957.59 1050.83  19
  -2   2   9 78459.9 2890.32   8
  -2   2   9 78467.0 3108.69   7
   2   2  -9 77771.4 3684.60  61
   2   2  -9 76219.0 3431.07  60
   2   2  -9 77251.1 3465.18  41
  -2   2   9 87806.3 3184.84   2
  -2   2   9 81520.3 3185.37   6
  -2   2   9 80359.1 3070.22   1
   2   2  -9 64812.9 3145.40   3
   2   2  -9 85623.1 4929.49  37
   2   2  -9 103577. 6116.81  27
   2   2  -9 73103.2 2343.23  31
   2   2  -9 68407.9 3041.23  29
   2   2  -9 119567. 6989.70  32
   2   2  -9 84104.8 4487.83  20
  -2   2   8 65992.3 2638.98   2
  -2   2   8 64557.2 2527.39   1
  -2   2   8 63308.5 2654.75   6
   2   2  -8 57784.8 2356.22  55
   2   2  -8 56685.7 2518.36  48
   2   2  -8 63621.8 2929.08  41
   2   2  -8 57981.7 3043.34  61
   2   2  -8 53312.5 2665.25  60
   2   2  -8 50750.8 2146.12  62
  -2   2   8 64392.7 2216.74  62
   2   2  -8 63250.9 3995.94  37
   2   2  -8 56558.9 2015.89  31
   2   2  -8 50060.7 2444.88  29
   2   2  -8 81798.4 5130.56  27
   2   2  -8 96327.0 5948.74  32
  -2   2   8 68753.1 2723.99   7
  -2   2   7 95733.0 3174.65   1
  -2   2   7 95335.6 3351.13   2
  -2   2   7 107547. 3537.86   6
   2   2  -7 99319.1 3249.16  55
   2   2  -7 84656.0 3152.27  48
   2   2  -7 93492.4 2884.20  31
   2   2  -7 83212.0 3707.55  61
   2   2  -7 95492.0 3461.25  59
   2   2  -7 89706.9 3499.15  60
   2   2  -7 88824.1 3070.20  62
  -2   2   6 67606.6 2458.05   1
  -2   2   6 66947.6 2653.39   2
  -2   2   6 80622.3 2850.14   6
   2   2  -6 76880.5 2723.49  55
   2   2  -6 65285.4 2471.17  48
   2   2  -6 71893.5 2380.97  31
   2   2  -6 68956.4 3093.25  61
   2   2  -6 63853.2 2728.03  60
   2   2  -6 61246.5 2651.40  59
   2   2  -6 72180.6 2593.89  62
  -2   2   5 2540.50 370.111   1
  -2   2   5 2674.05 445.573   2
  -2   2   5 2520.00 429.633   6
   2   2  -5 2224.39 349.241  48
   2   2  -5 2241.00 399.296  55
   2   2  -5 2250.97 350.215  31
   2   2  -5 2969.72 557.864  61
   2   2  -5 1405.27 346.396  60
   2   2  -5 2657.44 421.839  62
   2   2  -5 2439.80 462.146  59
  -2   2   4 753.389 240.035   2
  -2   2   4 705.291 156.157   5
   2   2  -4 567.538 170.496  48
   2   2  -4 419.088 180.578  55
   2   2  -4 483.674 172.548  31
   2   2  -4 676.590 264.159  59
   2   2  -4 616.339 221.024  62
  -2   2   3 33506.5 1588.16   2
  -2   2   3 33768.5 1298.85   5
   2   2  -3 28399.6 1199.45  48
   2   2  -3 30652.4 1582.50  55
   2   2  -3 29319.4 1414.76  31
   2   2  -3 34734.1 1756.22  59
   2   2  -3 31309.3 1535.02  62
  -2   2   2 11846.8 764.553   5
   2   2  -2 11364.2 905.386  55
   2   2  -2 13869.0 1065.62  59
   2   2  -2 12854.9 931.012  62
  -2   2   1 169369. 4322.14   5
   2   2  -1 170198. 4897.58  59
  -2   2   0 58829.7 2087.80   5
   2   2   0 51820.9 1858.60   6
   2   2   0 52860.1 2168.67  55
   2   2   0 57087.7 2378.88  59
   2   2   0 51346.9 2124.63  62
   2   2   0 48108.0 1933.26  31
   2   2   1 55602.3 2153.67  31
   2   2   1 62536.9 2156.94   6
  -2   2  -1 72605.0 2395.94   2
  -2   2  -1 65907.3 2340.21   5
   2   2   2 19592.4 1087.53   6
  -2   2  -2 20162.7 1142.99   2
  -2   2  -2 18636.9 1153.52   5
  -2   2  -2 19066.1 825.188  45
   2   2   2 18283.1 1176.52  55
   2   2   2 16985.2 1021.97  31
   2   2   2 17123.2 1107.60  62
   2   2   2 20567.4 1324.29  59
  -2   2  -3 7638.74 760.165   5
  -2   2  -3 8090.15 690.445   2
   2   2   3 7834.56 707.938   6
  -2   2  -3 7300.40 469.928  45
   2   2   3 7361.89 731.185  55
   2   2   3 7553.72 648.981  31
   2   2   3 7397.36 803.425  59
   2   2   3 8035.81 744.546  62
  -2   2  -4 11210.7 962.962   5
   2   2   4 13257.4 996.673   6
  -2   2  -4 14088.2 933.796   2
  -2   2  -4 13349.4 655.911  45
   2   2   4 14926.8 1049.32  55
   2   2   4 14456.5 893.616  31
   2   2   4 10214.4 963.420  59
   2   2   4 14031.8 1006.92  62
   2   2   5 48487.7 1892.90   1
  -2   2  -5 45227.6 2200.64   5
  -2   2  -5 45360.1 1877.96   2
   2   2   5 54784.0 2216.53  55
   2   2   5 54511.6 1923.18  31
   2   2   5 50068.1 2303.65  59
   2   2   5 50043.4 2099.77  62
   2   2   6 138248. 3970.31   1
   2   2   6 147602. 4249.77  55
   2   2   6 147736. 3762.18  31
   2   2   6 140767. 4426.55  59
   2   2   6 137666. 4054.69  62
   2   2   7 63625.1 2766.66  59
   2   2   7 56320.3 2366.89  62
   2   2   7 71241.3 2605.12  55
   2   2   7 62520.9 2453.90   1
   2   2   7 70981.2 2824.07   6
  -2   2  -7 48008.7 2046.90   2
   2   2   7 60296.8 2050.39  31
   2   2   7 65820.7 2537.93   8
   2   2   7 68573.1 2674.74   7
   2   2   8 31414.9 1763.78  17
   2   2   8 28989.0 1657.06   1
   2   2   8 38405.8 2060.14   6
  -2   2  -8 34631.7 2031.91   5
  -2   2  -8 24368.1 1299.80   2
  -2   2  -8 39195.2 2274.31   3
   2   2   8 35540.4 1814.50   8
   2   2   8 34238.4 1860.11   7
  -2   2  -8 35164.4 2052.40  48
   2   2   8 22622.0 1512.30  55
  -2   2  -9 10088.2 1123.34  48
  -2   2  -9 8601.72 1010.61  19
   2   2   9 9569.14 983.309  17
   2   2   9 10695.7 988.145   8
   2   2   9 9066.75 964.997   9
   2   2   9 11018.4 1042.43   7
  -2   2  -9 9508.11 931.109   4
   2   2   9 8312.74 900.284   1
   2   2   9 11479.1 1142.72   6
  -2   2  -9 9266.34 1057.27   5
  -2   2  -9 10884.1 1225.54   3
  -2   2 -10 8374.77 921.147   4
   2   2  10 7728.42 917.193   1
   2   2  10 10368.7 1148.44   6
  -2   2 -10 9303.19 1113.76   5
  -2   2 -10 12508.7 1370.20   3
  -2   2 -10 10677.5 1163.48  60
  -2   2 -10 10219.4 1375.31  61
   2   2  10 9251.85 955.481   8
   2   2  10 9217.79 982.937   7
   2   2  10 8814.28 983.615   9
  -2   2 -10 7734.00 1011.27  19
  -2   2 -10 9624.31 1138.65  48
  -2   2 -11 5275.65 786.452   4
   2   2  11 4301.67 723.683   1
   2   2  11 5660.58 861.901   6
  -2   2 -11 5497.27 869.633   5
  -2   2 -11 6182.84 1012.58   3
  -2   2 -11 5717.66 919.101  48
  -2   2 -11 4716.35 822.152  60
  -2   2 -11 5539.34 1105.00  61
   2   2  11 5431.10 747.708   8
   2   2  11 5015.70 734.992   7
   2   2  11 4382.05 739.156   9
  -2   2 -11 3524.90 713.845  19
  -2   2 -12 30206.2 2228.27  48
  -2   2 -12 33621.4 2376.44  60
  -2   2 -12 33858.3 2600.90  61
   2   2  12 31704.4 2081.37  17
   2   2  12 33773.9 1985.91   8
   2   2  12 35404.3 2059.45   7
   2   2  12 29678.8 2069.99   9
   2   2  12 36369.4 2278.04   6
   2   2  12 27638.9 1944.85   1
  -2   2 -12 30343.8 2041.88   4
  -2   2 -12 33160.5 2236.80   5
  -2   2 -12 39878.0 2669.12   3
  -2   2 -13 42513.7 2422.02  41
  -2   2 -13 35773.4 2489.67  48
  -2   2 -13 40056.9 2601.53  60
  -2   2 -13 39691.9 2849.57  61
  -2   2 -13 46087.3 2856.05  18
   2   2  13 37523.0 2321.30  17
   2   2  13 40434.4 2208.55   8
   2   2  13 39467.5 2197.02   7
   2   2  13 36379.4 2360.14   9
   2   2  13 35788.8 2300.95   1
  -2   2 -13 36163.1 2303.89   4
   2   2  13 45873.9 2578.10   6
  -2   2 -13 42666.0 2537.89   5
   2   2  14 19252.0 1618.20   1
  -2   2 -14 20139.7 1675.88   4
   2   2  14 20704.3 1704.69   6
  -2   2 -14 19767.8 1638.39   5
  -2   2 -14 22212.1 1688.38  41
  -2   2 -14 19960.6 1745.23  60
  -2   2 -14 22905.3 2021.95  61
  -2   2 -14 22723.7 1910.71  18
   2   2  14 21563.1 1697.52  17
   2   2  14 17551.3 1260.86  25
   2   2  14 19895.3 1476.96   7
   2   2  14 20488.6 1719.52   9
   2   2  14 21960.6 1536.16   8
  -2   2 -15 25483.1 1966.95  18
   2   2  15 29449.0 1953.54  17
  -2   2 -15 30772.8 1937.35  41
   2   2  15 23598.4 1783.18   1
  -2   2 -15 27042.3 1916.99   4
  -2   2 -15 28879.8 2212.61   3
   2   2  15 26437.9 1633.83   7
   2   2  15 26983.2 1681.48   8
   2   2  15 29534.0 2025.29   9
  -2   2 -16 13152.1 1288.48  18
   2   2  16 17054.1 1405.62  17
  -2   2 -16 18180.3 1372.79  41
  -2   2 -16 18273.6 1483.40   4
  -2   2 -16 20376.8 1741.82   3
   2   2  16 17952.9 1177.68   7
   2   2  16 16305.1 1412.97   9
  -2   2 -17 1164.76 399.615   3
  -2   2 -17 869.139 329.304   4
   2   2  17 1318.48 355.790  17
   2   2  17 1106.26 315.816  16
   2   2  17 1216.08 362.631   9
   2   2  18 3688.71 527.173  17
   2   2  18 3280.98 523.056  26
   2   2  18 3111.83 499.474   9
  -2   2 -18 3268.59 516.698   4
  -2   2 -18 3187.51 554.599   3
   2   2  19 13211.2 861.332   9
   2   2  19 12299.1 696.407  34
   2   2  19 14176.7 933.672  26
   2   2  19 14171.2 877.143  17
  -2   2 -19 12594.7 850.313   4
  -2   2 -19 13350.7 927.884   3
  -2   3  19 14038.6 726.693  17
  -2   3  19 14931.5 817.708   9
  -2   3  18 17862.9 1042.81  17
  -2   3  18 18972.9 1150.73   9
  -2   3  17 19707.1 1277.17  17
   2   3 -17 17198.2 1283.63  41
  -2   3  17 20474.7 1374.79   9
  -2   3  16 4932.59 732.408   9
   2   3 -16 4511.31 729.122  41
  -2   3  16 5657.12 732.308  17
   2   3 -16 4229.42 600.043  29
   2   3 -16 4688.34 812.683   4
  -2   3  16 3829.89 586.450   6
   2   3 -16 5382.33 724.638   3
  -2   3  15 1342.45 337.093   7
  -2   3  15 1196.59 388.375   9
  -2   3  15 1711.53 443.769  17
   2   3 -15 2008.30 533.142  41
   2   3 -15 1820.49 448.632  29
   2   3 -15 1624.77 459.339   3
  -2   3  15 1259.21 369.163   6
   2   3 -15 1811.24 541.576   4
  -2   3  14 21826.0 1542.04   7
  -2   3  14 20917.6 1359.33   8
  -2   3  14 23180.9 1682.96  17
   2   3 -14 22268.6 1857.97  41
   2   3 -14 21199.2 1635.70  29
   2   3 -14 20178.0 1857.74   4
  -2   3  14 18300.8 1535.30   6
   2   3 -14 20638.0 1741.01   3
  -2   3  14 21936.5 1576.78   1
  -2   3  13 10996.3 1119.73   7
  -2   3  13 10034.5 984.601   8
   2   3 -13 9446.24 1206.65  41
  -2   3  13 12137.0 1222.78  17
   2   3 -13 10977.1 1218.63  29
   2   3 -13 9417.76 1284.49   4
  -2   3  13 11047.7 1147.60   2
   2   3 -13 11274.3 1317.04   3
  -2   3  13 10956.5 1184.32   6
  -2   3  13 11679.9 1141.12   1
   2   3 -12 18801.8 1856.15   4
  -2   3  12 27121.8 1854.72   2
  -2   3  12 22036.0 1746.39   6
   2   3 -12 23554.7 1968.68   3
  -2   3  12 22889.0 1634.57   1
   2   3 -12 24028.2 2270.60  61
   2   3 -12 19816.0 1821.60  60
   2   3 -12 21877.0 1882.98  41
  -2   3  12 25864.2 1827.06  17
   2   3 -12 32470.3 3343.43  37
   2   3 -12 20801.6 1770.11  29
  -2   3  12 24162.4 1750.84   7
  -2   3  12 24246.5 1610.99   8
  -2   3  11 68154.6 2994.17   8
  -2   3  11 76569.8 3354.26   7
  -2   3  11 72253.7 3059.54   1
   2   3 -11 51576.8 3236.77   4
  -2   3  11 78073.4 3400.85   2
  -2   3  11 72987.6 3359.91   6
   2   3 -11 63247.4 3445.76   3
   2   3 -11 69333.2 3960.08  61
   2   3 -11 64887.4 3431.66  60
   2   3 -11 62366.9 3339.71  41
  -2   3  11 69781.2 3194.19  17
   2   3 -11 90091.8 5668.46  37
   2   3 -11 68237.9 3338.34  29
   2   3 -11 81613.5 4640.11  20
  -2   3  10 39289.9 2137.88   8
  -2   3  10 33938.5 2158.58   7
   2   3 -10 39563.1 2820.11  61
   2   3 -10 33916.1 2314.17  60
   2   3 -10 34904.2 2333.16  41
   2   3 -10 27650.3 2204.14   4
  -2   3  10 39631.1 2082.26   1
  -2   3  10 39918.5 2306.11   2
  -2   3  10 35860.7 2240.42   6
   2   3 -10 32387.6 2349.44   3
   2   3 -10 44578.7 3869.50  37
   2   3 -10 37206.8 2331.58  29
   2   3 -10 42127.1 3272.96  20
  -2   3   9 18268.0 1541.49   7
  -2   3   9 20535.5 1485.48   8
   2   3  -9 17426.5 1666.39   4
  -2   3   9 21565.2 1629.26   2
  -2   3   9 21357.6 1428.45   1
   2   3  -9 17490.3 1651.26   3
  -2   3   9 20962.6 1662.12   6
   2   3  -9 19498.6 1931.11  61
   2   3  -9 20233.5 1571.14  48
   2   3  -9 17870.2 1602.00  41
   2   3  -9 24274.3 2775.51  37
   2   3  -9 19513.8 1186.32  31
   2   3  -9 21634.6 2290.64  20
  -2   3   8 2666.20 567.227   7
  -2   3   8 2539.92 511.509   8
   2   3  -8 1859.91 522.877   3
  -2   3   8 3192.29 614.100   2
  -2   3   8 2337.31 445.764   1
  -2   3   8 1931.77 495.723   6
   2   3  -8 2419.79 599.272   4
   2   3  -8 2414.41 666.186  61
  -2   3   8 2401.47 479.887  59
   2   3  -8 2542.35 535.693  59
  -2   3   8 2500.53 454.882  62
   2   3  -8 3131.98 547.064  62
   2   3  -8 2281.97 532.211  41
   2   3  -8 2579.90 516.185  55
   2   3  -8 2406.70 499.660  48
   2   3  -8 2022.39 443.138  18
   2   3  -8 3392.54 967.198  37
   2   3  -8 3530.06 1265.64  32
   2   3  -8 2256.75 404.634  31
   2   3  -8 2985.67 830.054  20
  -2   3   7 21729.0 1480.55   8
  -2   3   7 22680.9 1624.52   7
   2   3  -7 19072.1 1627.00   4
  -2   3   7 21961.9 1578.75   2
   2   3  -7 18776.7 1622.45   3
  -2   3   7 18953.4 1235.38   1
  -2   3   7 18319.3 1466.59  59
   2   3  -7 21342.4 1637.20  59
  -2   3   7 18175.1 1313.32  62
   2   3  -7 21053.0 1461.81  62
   2   3  -7 20585.3 1571.15  41
   2   3  -7 20665.1 1489.82  55
   2   3  -7 19009.4 1384.76  48
   2   3  -7 14235.2 1252.05  18
   2   3  -7 19636.1 1299.36  38
   2   3  -7 19024.4 1238.94  30
   2   3  -7 17257.7 1434.97  29
   2   3  -7 20827.5 1310.87  31
   2   3  -7 21908.5 2249.27  20
  -2   3   6 67735.6 2866.18   8
   2   3  -6 67671.5 3196.07   4
  -2   3   6 71237.1 3041.33   2
   2   3  -6 62621.5 3129.46   3
  -2   3   6 70034.1 2540.32   1
  -2   3   6 98116.6 3660.61  59
  -2   3   6 74341.6 2933.84  62
   2   3  -6 78580.0 3405.65  59
   2   3  -6 69093.7 2946.54  62
   2   3  -6 63161.0 2971.68  41
   2   3  -6 76193.8 3086.02  55
   2   3  -6 62985.5 2666.15  48
   2   3  -6 63900.8 2843.61  18
   2   3  -6 65509.6 2733.89  38
   2   3  -6 66241.0 2681.94  31
   2   3  -6 56857.8 2531.30  30
   2   3  -6 102167. 6817.74  32
   2   3  -6 63932.7 2917.76  29
   2   3  -6 75627.2 4362.09  20
   2   3  -5 71643.1 3253.20   4
  -2   3   5 75343.2 2575.65   1
  -2   3   5 79830.4 3163.86   2
  -2   3   5 85691.5 3230.11   6
   2   3  -5 71582.1 3278.92   3
   2   3  -5 63519.6 3265.08  61
   2   3  -5 77436.7 3362.57  59
   2   3  -5 77751.5 3122.46  62
   2   3  -5 69398.9 2768.32  30
   2   3  -5 73762.9 2876.09  31
   2   3  -5 68867.4 2969.57  29
   2   3  -5 80060.9 4450.84  20
   2   3  -5 67121.0 2685.04  48
   2   3  -5 78118.9 3213.05  55
   2   3  -4 104973. 4023.78   4
  -2   3   4 107347. 3220.24   1
  -2   3   4 124933. 3979.98   6
   2   3  -4 95400.3 4134.47  61
   2   3  -4 112027. 3959.69  62
   2   3  -4 113751. 4269.06  59
   2   3  -4 98720.2 3689.94  29
   2   3  -4 105419. 3673.57  31
   2   3  -4 113734. 5385.75  20
   2   3  -4 115847. 4117.88  55
   2   3  -4 99890.3 3374.26  48
   2   3  -3 33017.4 1900.82  62
   2   3  -3 34650.9 2108.42  59
   2   3  -3 30824.6 1717.59  31
  -2   3   3 34800.7 1825.60   6
  -2   3   3 34141.9 1846.51   2
  -2   3   3 33684.1 1618.15   5
  -2   3   3 28927.2 1321.73   1
   2   3  -3 34945.3 1992.29  55
   2   3  -2 50550.0 2615.73  59
   2   3  -2 45157.7 2281.69  62
  -2   3   2 47715.6 2230.02   2
  -2   3   2 53862.8 2273.94   6
  -2   3   2 46360.2 2041.58   5
  -2   3   2 46785.8 1700.63   1
   2   3  -2 47711.5 2414.66  55
   2   3  -1 1448.50 427.468  59
   2   3  -1 1355.85 374.322  62
  -2   3   1 1470.60 342.157   5
  -2   3   1 1656.20 379.485   2
  -2   3   1 1831.95 376.148   6
   2   3  -1 1249.87 365.089  55
   2   3   0 2916.87 551.102  62
   2   3   0 3294.23 625.891  59
   2   3   0 2863.85 497.216  31
   2   3   0 3320.16 424.163   6
  -2   3   0 3138.15 489.291   6
  -2   3   0 3413.32 534.826   5
  -2   3   0 3003.58 495.418   2
   2   3   0 3184.59 570.532  55
   2   3   1 30176.0 1691.82  31
   2   3   1 31114.5 1515.73   6
  -2   3  -1 30736.9 1557.71   6
  -2   3  -1 31894.3 1668.48   2
  -2   3  -1 35219.6 1864.87   5
   2   3   2 96346.9 3579.75  62
   2   3   2 97945.7 3913.70  59
   2   3   2 99227.2 3697.54  55
   2   3   2 95795.7 3357.62  31
   2   3   2 105446. 3309.07   6
  -2   3  -2 86190.3 3099.34   2
  -2   3  -2 98646.7 3583.53   5
  -2   3  -3 62439.7 2068.05  60
   2   3   3 83447.2 3425.54  59
   2   3   3 74240.6 3004.79  62
   2   3   3 74602.2 3081.90  55
   2   3   3 81351.8 3127.19  18
   2   3   3 68361.1 2693.50  39
   2   3   3 75239.5 2790.57  31
   2   3   3 71445.5 2743.77   6
  -2   3  -3 61614.5 2453.46   2
  -2   3  -3 49391.3 2176.19   6
  -2   3  -3 75817.1 3070.93   5
   2   3   4 59329.1 2531.62   6
  -2   3  -4 56619.6 2721.98   5
  -2   3  -4 50190.7 1971.68  60
   2   3   4 59603.8 2925.71  59
   2   3   4 58616.6 2633.09  62
   2   3   4 58377.5 2707.71  55
   2   3   4 56480.5 2655.75  18
  -2   3  -4 60901.2 2901.65  18
   2   3   4 55717.7 2410.40  39
   2   3   4 62200.6 2466.64  31
   2   3   4 55518.7 2356.22   8
   2   3   4 56126.5 2461.10   7
   2   3   5 33303.4 1765.49   8
   2   3   5 32322.8 1845.85   7
  -2   3  -5 26158.6 1386.46   2
   2   3   5 29364.5 1760.89   6
  -2   3  -5 30452.2 1959.98   5
  -2   3  -5 33656.7 1972.55   3
  -2   3  -5 25300.1 1412.21  60
   2   3   5 33057.7 1908.46  62
   2   3   5 22996.6 1768.89  59
   2   3   5 31931.4 1892.26  55
  -2   3  -5 32719.2 2129.19  18
   2   3   5 31327.7 1693.04  38
   2   3   5 29923.6 1700.79  39
   2   3   5 28906.9 1563.75  30
   2   3   5 29860.5 1643.91  31
   2   3   5 31393.4 1720.68  26
   2   3   6 11261.0 1118.71   6
  -2   3  -6 11058.8 804.131   2
  -2   3  -6 11640.1 1218.89   5
  -2   3  -6 12379.4 1204.94   3
  -2   3  -6 11101.0 950.255  60
   2   3   6 11699.4 1105.11  62
   2   3   6 11279.1 1196.56  59
   2   3   6 12536.7 1157.84  55
  -2   3  -6 12016.7 1306.78  18
   2   3   6 11806.6 1011.85  17
   2   3   6 12831.2 1087.38  39
   2   3   6 11621.2 1009.47  38
   2   3   6 10871.3 903.475  30
   2   3   6 12680.2 983.134  31
   2   3   6 13196.2 1109.79   8
  -2   3  -7 16197.0 1230.37  60
  -2   3  -7 15235.0 1367.13  59
   2   3   7 14588.4 1351.80  59
   2   3   7 14917.9 1240.84  62
  -2   3  -7 15502.0 1241.77  62
   2   3   7 16842.1 1340.10  55
  -2   3  -7 12385.1 1400.15  18
   2   3   7 15267.6 1204.49  17
   2   3   7 13829.2 1159.50  39
   2   3   7 16452.7 1095.59  31
   2   3   7 15575.7 1374.98   6
  -2   3  -7 14441.8 1409.70   3
  -2   3  -8 14306.1 1240.92  60
   2   3   8 14383.7 1336.47  59
   2   3   8 16197.7 1266.26  62
  -2   3  -8 17815.2 1278.68  62
   2   3   8 17356.3 1348.77  55
   2   3   8 17315.8 1369.88  17
   2   3   8 17571.0 1312.11  39
   2   3   8 18388.9 1416.20   8
   2   3   8 18442.9 1485.55   7
   2   3   8 16752.3 1499.82   6
  -2   3  -8 16376.5 1552.74   3
  -2   3  -9 55779.4 2724.30  60
  -2   3  -9 65694.2 3707.44  61
  -2   3  -9 54704.5 3049.12  48
  -2   3  -9 49414.8 3048.68  18
   2   3   9 54506.9 2715.30  17
   2   3   9 53947.0 2526.54  39
   2   3   9 55742.3 2694.52   8
   2   3   9 61964.7 2940.31   7
  -2   3  -9 50956.6 2973.95   5
  -2   3  -9 55716.9 3111.02   3
  -2   3 -10 48668.3 2611.13  60
  -2   3 -10 55874.3 3470.54  61
  -2   3 -10 45541.5 2843.70  48
  -2   3 -10 50555.3 3076.29  18
   2   3  10 50986.4 2634.81  17
   2   3  10 50785.4 2348.35  39
   2   3  10 55061.5 2689.25   8
   2   3  10 40702.0 2229.06   9
   2   3  10 53095.1 2751.64   7
  -2   3 -10 42093.3 2334.30   4
  -2   3 -10 50901.1 2948.62   5
  -2   3 -10 52429.7 3074.96   3
  -2   3 -11 41899.4 2467.66  60
  -2   3 -11 44834.4 3115.14  61
  -2   3 -11 39359.9 2630.51  48
  -2   3 -11 40479.5 2767.11  18
   2   3  11 42196.2 2416.09  17
   2   3  11 41211.0 2042.12  39
   2   3  11 45121.4 2428.62   8
   2   3  11 45172.8 2510.49   7
   2   3  11 35823.9 2123.72   9
  -2   3 -11 36109.7 2198.52   4
   2   3  11 47998.4 2790.52   6
  -2   3 -11 41354.3 2637.82   5
  -2   3 -11 42138.5 2797.59   3
  -2   3 -12 4770.83 886.455  48
   2   3  12 7828.61 1075.69   6
  -2   3 -12 5717.23 823.529   4
  -2   3 -12 7028.58 1032.10   5
  -2   3 -12 7422.69 1146.12   3
  -2   3 -12 6068.91 1033.70  18
   2   3  12 5338.66 847.450  17
   2   3  12 6250.04 863.709   8
   2   3  12 7152.38 945.947   7
   2   3  12 6586.51 836.206   9
  -2   3 -12 7320.45 993.441  60
  -2   3 -12 6727.18 1138.56  61
  -2   3 -13 10028.2 1142.84  60
  -2   3 -13 9582.88 1337.09  61
  -2   3 -13 10134.1 1250.05  48
   2   3  13 9478.41 992.932  25
  -2   3 -13 8351.43 993.044   4
   2   3  13 11789.0 1306.71   6
  -2   3 -13 10366.4 1221.24   5
  -2   3 -13 10655.7 1366.48   3
   2   3  13 10020.3 1077.97   8
   2   3  13 10996.2 1140.92   7
   2   3  13 9323.32 1014.02   9
  -2   3 -13 9423.00 1274.41  18
   2   3  13 9610.41 1102.48  17
   2   3  14 2323.41 462.644  25
  -2   3 -14 2202.70 619.755   3
  -2   3 -14 2299.47 524.653   4
   2   3  14 3095.44 667.635   6
  -2   3 -14 2530.70 553.353   5
   2   3  14 2411.47 505.245   8
   2   3  14 2888.35 554.312   7
   2   3  14 2518.43 499.669   9
  -2   3 -14 2627.81 630.179  18
   2   3  15 2731.07 453.464  25
  -2   3 -15 2439.75 496.981   4
  -2   3 -15 2733.32 633.273   3
   2   3  15 1955.79 434.177   7
   2   3  15 2319.18 460.215   8
  -2   3 -15 1504.08 464.170  18
   2   3  16 20689.4 1125.43  25
   2   3  16 23539.8 1535.99  26
  -2   3 -16 18939.6 1352.45  18
  -2   3 -16 19920.7 1335.15   4
   2   3  16 22355.3 1297.49   7
   2   3  16 23037.9 1352.95   8
   2   3  17 29500.8 1561.51  17
   2   3  17 28699.3 1546.00  26
   2   3  17 26677.4 1181.33   7
   2   3  18 9971.78 751.827  26
   2   3  18 9651.44 744.384  17
  -2   3 -18 11200.3 874.170   3
  -2   4  17 4600.85 476.914  17
   2   4 -17 3958.30 526.594   4
  -2   4  16 14550.7 1015.16  17
  -2   4  16 11971.9 766.651   7
   2   4 -16 12743.8 910.977  29
   2   4 -16 13125.3 1120.59   4
   2   4 -16 13081.1 967.295   3
  -2   4  15 18785.2 1287.64  17
  -2   4  15 16248.5 995.795   8
  -2   4  15 17215.6 1133.28   7
   2   4 -15 17382.9 1249.85  29
   2   4 -15 17317.1 1444.69   4
   2   4 -15 20283.2 1417.10   3
  -2   4  15 16202.5 955.924  39
  -2   4  14 27350.3 1496.45   8
  -2   4  14 27520.0 1599.27   9
  -2   4  14 25436.9 1578.79   7
   2   4 -14 28395.7 1772.97  29
   2   4 -14 22665.4 1828.91   4
  -2   4  14 26662.1 1737.21   6
   2   4 -14 26756.3 1858.55   3
  -2   4  14 23535.6 1401.49  39
  -2   4  13 4119.40 664.600   7
  -2   4  13 4375.64 638.601   8
  -2   4  13 4572.25 674.530   9
   2   4 -13 4027.59 700.284  29
  -2   4  13 4742.25 660.301  39
   2   4 -13 3634.36 753.150   4
   2   4 -13 3906.98 762.411   3
  -2   4  13 4559.88 734.466   6
   2   4 -12 5471.45 946.126   4
  -2   4  12 7049.38 959.585   6
   2   4 -12 7466.67 1084.84   3
  -2   4  12 6761.12 900.159   7
  -2   4  12 7767.58 893.775   8
  -2   4  11 3450.70 653.171  17
   2   4 -11 3942.40 918.627  20
  -2   4  11 3367.39 617.414   8
  -2   4  11 2947.41 627.744   7
   2   4 -11 2429.71 655.874   3
  -2   4  11 4057.61 714.922   2
   2   4 -11 1830.87 588.694   4
  -2   4  11 3185.50 651.668   6
   2   4 -10 2036.36 623.825   3
  -2   4  10 2721.11 608.224   2
   2   4 -10 2165.85 629.311   4
  -2   4  10 2279.54 534.792  17
   2   4 -10 2635.20 536.321  18
   2   4 -10 4111.05 992.511  20
   2   4 -10 2518.78 616.808  29
  -2   4  10 2986.85 597.713   8
  -2   4  10 2759.54 611.435   7
   2   4  -9 61731.8 3516.13   4
  -2   4   9 76740.8 3537.86   2
   2   4  -9 62617.3 3537.17   3
   2   4  -9 87758.5 5038.77  20
  -2   4   9 75962.1 3291.52  17
   2   4  -9 69303.9 3202.91  18
   2   4  -9 65939.0 3365.08  29
   2   4  -9 65973.4 2699.42  30
  -2   4   9 71817.2 3244.53   8
  -2   4   9 66976.6 3353.88   7
  -2   4   8 35544.9 2160.56   8
  -2   4   8 30693.4 2159.26   7
   2   4  -8 30587.3 2333.79   4
  -2   4   8 36720.2 2315.12   2
  -2   4   8 35737.1 2253.63   6
  -2   4   8 29104.5 2031.61  59
   2   4  -8 35524.4 2494.30  59
  -2   4   8 28972.5 1865.33  62
  -2   4   8 35380.3 2140.46  55
   2   4  -8 30809.9 1957.98  48
   2   4  -8 27446.0 1956.46  18
   2   4  -8 31127.2 1860.98  38
   2   4  -8 27672.8 2109.74  29
   2   4  -8 27660.5 1717.21  30
   2   4  -8 30646.3 1793.63  31
   2   4  -8 37105.9 3277.16  20
  -2   4   7 25623.9 1805.96   8
   2   4  -7 24824.3 2035.44   4
  -2   4   7 26926.5 1916.57   6
  -2   4   7 20240.7 1754.37  59
  -2   4   7 25523.1 1774.39  62
   2   4  -7 28458.9 2201.96  59
   2   4  -7 23805.2 1796.93  62
  -2   4   7 26236.6 1900.54  55
   2   4  -7 27579.1 1987.07  55
   2   4  -7 23458.5 1620.70  48
   2   4  -7 20309.2 1699.41  18
   2   4  -7 25277.1 1715.59  38
   2   4  -7 22335.9 1801.90  29
   2   4  -7 24872.2 1648.67  31
   2   4  -7 21740.5 1562.87  30
   2   4  -7 27780.6 2855.91  20
  -2   4   6 33703.0 2115.88   8
   2   4  -6 33195.2 2350.61   4
  -2   4   6 35395.0 2186.45   6
   2   4  -6 32501.6 2203.82  62
   2   4  -6 38351.1 2583.25  59
  -2   4   6 32807.8 2299.37  59
  -2   4   6 34051.0 2136.00  62
   2   4  -6 35174.8 2295.64  55
  -2   4   6 35979.5 2310.46  55
   2   4  -6 29817.4 1833.49  48
   2   4  -6 30624.4 2107.02  18
   2   4  -6 29941.5 1968.98  38
   2   4  -6 32463.3 1972.84  31
   2   4  -6 28717.9 1866.93  30
   2   4  -6 28673.4 2029.78  29
   2   4  -6 37000.9 3309.01  20
   2   4  -5 1040.57 423.621   3
  -2   4   5 772.691 339.459   2
   2   4  -5 545.241 319.433   4
  -2   4   5 590.543 324.538   7
  -2   4   5 824.089 327.199   6
  -2   4   5 952.601 378.686  62
   2   4  -5 888.931 430.786  59
   2   4  -5 1077.88 411.943  62
  -2   4   5 610.456 340.232  59
   2   4  -5 689.305 247.535  48
   2   4  -5 1287.76 461.381  55
   2   4  -5 1056.76 397.536  18
   2   4  -5 1211.12 284.558  39
   2   4  -5 800.377 326.022  38
   2   4  -5 919.130 359.665  29
   2   4  -5 662.243 293.870  31
   2   4  -5 598.333 267.891  30
   2   4  -5 2032.58 791.035  20
   2   4  -4 2373.66 616.911   3
  -2   4   4 1818.04 489.249   2
  -2   4   4 1931.86 508.184   7
   2   4  -4 2372.71 593.944   4
  -2   4   4 2469.36 532.797   6
   2   4  -4 2181.68 639.653  59
  -2   4   4 2986.31 703.552  59
  -2   4   4 1993.36 515.189  62
   2   4  -4 1689.15 499.086  62
   2   4  -4 2142.87 561.241  55
   2   4  -4 2215.09 428.952  48
   2   4  -4 2043.08 532.608  18
   2   4  -4 1703.95 466.327  38
   2   4  -4 2310.95 412.026  39
   2   4  -4 2014.58 494.280  31
   2   4  -4 2324.02 521.295  29
   2   4  -4 1826.97 454.317  30
   2   4  -4 2644.68 889.861  20
  -2   4   3 22665.3 1721.13   7
  -2   4   3 25684.0 1740.05   8
  -2   4   3 23089.2 1693.23   2
  -2   4   3 22217.1 1603.02   6
   2   4  -3 25766.9 1961.16   3
   2   4  -3 26721.0 2177.76  59
   2   4  -3 21504.8 1799.47  62
  -2   4   3 22838.1 1792.79  62
   2   4  -3 24027.8 1926.51  55
   2   4  -3 26502.9 1886.96  18
  -2   4   3 25926.8 1636.91  18
   2   4  -3 23681.7 1460.92  39
   2   4  -3 23516.4 1760.76  38
   2   4  -3 22412.6 1673.59  31
   2   4  -3 19058.8 1534.96  30
   2   4  -3 23046.9 1631.16  29
   2   4  -3 25940.1 2761.64  20
  -2   4   2 21812.5 1620.61   2
   2   4  -2 22549.5 1799.53   3
  -2   4   2 21420.7 1499.36   6
  -2   4   2 21540.1 1532.17   5
  -2   4   2 28233.7 2158.04  59
   2   4  -2 24225.8 2071.16  59
  -2   4   2 20666.7 1687.52  62
   2   4  -2 19380.3 1695.53  62
   2   4  -2 23690.5 1900.51  55
   2   4  -2 23235.1 1759.35  18
  -2   4   2 22639.2 1593.64  18
   2   4  -2 19536.5 1601.02  38
   2   4  -2 22234.8 1457.37  39
   2   4  -2 22477.4 1525.60  29
   2   4  -2 23351.0 2635.66  20
   2   4  -2 20154.3 1223.03  25
   2   4  -1 64016.1 3157.91   3
  -2   4   1 50029.2 2444.83   6
  -2   4   1 62820.5 2877.56   5
  -2   4   1 58190.9 2759.83   2
   2   4  -1 67809.6 3563.40  59
   2   4  -1 54777.1 3010.67  62
   2   4  -1 61055.4 3225.26  55
   2   4  -1 73079.5 3237.48  18
  -2   4   1 62404.7 2913.59  18
   2   4  -1 59384.0 2618.10  39
   2   4  -1 58137.9 2550.25  29
   2   4  -1 57813.3 2360.05  25
  -2   4   0 49473.0 2346.64   6
  -2   4   0 54792.2 2632.72   2
   2   4   0 67750.0 3206.36   3
  -2   4   0 65728.7 2978.85   5
  -2   4   0 69135.3 3577.93  59
   2   4   0 71237.2 3677.40  59
  -2   4   0 55823.4 2949.71  62
   2   4   0 56101.8 3034.15  62
  -2   4   0 61055.0 2674.98  61
   2   4   0 62352.8 3252.95  55
  -2   4   0 62541.2 2963.97  18
   2   4   0 56195.5 2885.46  38
   2   4   0 63121.8 2719.88  39
   2   4   0 59241.2 2477.58  29
   2   4   0 49132.4 2647.16  30
   2   4   0 53484.2 2771.09  31
   2   4   0 61774.1 2486.41  25
   2   4   1 48563.4 2159.14   8
   2   4   1 54843.9 2392.60   7
   2   4   1 48915.9 2155.98   6
  -2   4  -1 41412.5 2216.93   2
   2   4   1 58302.9 2939.18   3
  -2   4  -1 40194.5 2018.45   6
  -2   4  -1 58061.7 2827.63   5
  -2   4  -1 67164.3 3480.88  59
  -2   4  -1 50083.5 2760.94  62
  -2   4  -1 48782.1 2550.51  61
  -2   4  -1 55981.4 2844.99  18
   2   4   1 53464.3 2504.29  39
   2   4   1 45376.8 2555.25  38
   2   4   1 47616.4 2497.77  30
   2   4   1 53261.9 2693.40  31
   2   4   1 50020.7 2271.04  25
   2   4   2 1529.23 354.484   8
   2   4   2 2768.46 499.967   7
  -2   4  -2 1351.94 363.425   2
   2   4   2 1800.30 429.917   6
  -2   4  -2 2192.35 534.156   5
  -2   4  -2 1821.99 488.106  61
  -2   4  -2 2615.02 667.440  59
   2   4   2 2200.15 631.452  59
  -2   4  -2 1977.08 531.303  62
   2   4   2 1789.55 514.090  62
   2   4   2 1616.62 493.669  55
   2   4   2 2536.05 603.494  18
  -2   4  -2 1521.48 458.041  18
   2   4   2 1534.48 447.139  38
   2   4   2 2338.51 498.011  39
   2   4   2 1575.14 425.867  30
   2   4   2 1745.55 460.101  31
   2   4   2 2099.94 435.423  25
   2   4   3 1684.01 406.779   7
   2   4   3 1369.03 358.395   8
  -2   4  -3 1089.01 292.516   2
  -2   4  -3 1408.81 377.929   3
   2   4   3 1318.77 389.159   6
  -2   4  -3 1557.41 462.054   5
  -2   4  -3 1108.89 390.076  61
   2   4   3 1097.67 392.909  62
   2   4   3 1089.37 446.752  59
  -2   4  -3 2349.91 627.177  59
  -2   4  -3 1083.46 399.220  62
   2   4   3 1289.75 442.285  55
   2   4   3 1083.58 440.608  18
  -2   4  -3 872.109 383.506  18
   2   4   3 918.502 348.184  38
   2   4   3 1550.92 428.478  31
   2   4   3 1091.40 353.999  30
   2   4   3 1325.63 359.113  25
   2   4   4 12899.3 1156.47   8
   2   4   4 11187.5 1143.73   7
  -2   4  -4 13342.1 1264.10   3
   2   4   4 12322.9 1178.09   6
  -2   4  -4 13772.7 1421.07   5
   2   4   4 16909.9 1701.87  59
  -2   4  -4 17067.9 1667.79  59
  -2   4  -4 15765.9 1442.39  62
   2   4   4 12479.8 1333.89  62
  -2   4  -4 12042.6 1390.98  61
   2   4   4 12941.8 1374.58  55
   2   4   4 11194.5 1318.79  18
  -2   4  -4 11528.1 1347.96  18
   2   4   4 10690.2 1153.15  38
   2   4   4 11045.4 1136.89  39
   2   4   4 13797.8 1255.37  31
   2   4   4 12103.6 1153.09  30
   2   4   4 12011.6 1127.17  25
  -2   4  -5 41376.8 2659.20   5
   2   4   5 46209.3 2526.19   6
  -2   4  -5 49932.6 2698.65   3
   2   4   5 43581.6 2918.83  59
  -2   4  -5 51519.0 2730.20  62
   2   4   5 49725.5 2759.81  62
  -2   4  -5 49571.2 3035.44  61
   2   4   5 49191.0 2826.66  55
  -2   4  -5 47981.3 2881.01  18
   2   4   5 48055.4 2519.50  38
   2   4   5 46311.1 2479.00  39
   2   4   5 45036.2 2337.84  30
   2   4   5 51358.0 2513.73  31
   2   4   5 42626.4 2138.67  26
   2   4   5 50844.9 2502.77   8
   2   4   5 47081.5 2533.29   7
   2   4   6 32677.8 2165.34   6
  -2   4  -6 38236.1 2408.84   3
  -2   4  -6 32054.6 2370.83   5
  -2   4  -6 53888.7 2915.37  59
  -2   4  -6 39690.5 2329.36  62
   2   4   6 38549.3 2372.14  62
   2   4   6 39104.2 2629.58  59
  -2   4  -6 41809.2 2853.92  61
   2   4   6 39365.5 2450.05  55
  -2   4  -6 37120.6 2554.36  18
   2   4   6 31289.8 1836.34  17
   2   4   6 37673.7 2206.07  39
   2   4   6 36831.4 2141.21  38
   2   4   6 33321.9 1980.13  30
   2   4   6 35381.8 1961.14  26
   2   4   6 42267.6 2156.59  31
   2   4   6 41624.0 2268.42   8
   2   4   6 40201.0 2342.26   7
   2   4   7 13351.4 1365.13   6
  -2   4  -7 14558.1 1485.47   3
  -2   4  -7 12046.3 1439.64   5
  -2   4  -7 14488.6 1458.71  59
   2   4   7 10533.8 1339.20  59
  -2   4  -7 15296.3 1368.85  62
   2   4   7 12864.2 1308.58  62
  -2   4  -7 17257.6 1815.57  61
   2   4   7 15456.5 1427.46  55
  -2   4  -7 14622.7 1410.98  55
  -2   4  -7 12368.2 1488.96  18
   2   4   7 12901.5 1145.67  17
   2   4   7 14020.7 1300.57  39
   2   4   7 12991.5 1152.06  38
   2   4   7 13912.1 1151.96  31
   2   4   7 12532.3 1148.60  26
   2   4   7 14208.0 1163.64  30
   2   4   7 14928.1 1350.49   8
   2   4   7 14798.1 1409.01   7
   2   4   8 54604.6 2933.22   6
  -2   4  -8 47774.2 2863.62   3
   2   4   8 42424.8 2778.23  59
  -2   4  -8 38980.8 2419.74  59
   2   4   8 37577.5 2332.49  62
  -2   4  -8 52496.2 3328.54  61
   2   4   8 49185.1 2634.64  55
   2   4   8 48105.4 2417.55  17
  -2   4  -8 43627.9 2278.53  38
   2   4   8 48662.2 2548.93  39
   2   4   8 40387.7 2260.99  26
   2   4   8 54633.4 2712.02   8
  -2   4  -9 21078.7 2066.13  61
  -2   4  -9 17370.7 1712.86  48
   2   4   9 15998.4 1364.82  17
   2   4   9 18048.6 1445.09  39
   2   4   9 13675.6 1267.90  26
   2   4   9 18431.5 1674.31   6
  -2   4  -9 15203.2 1614.34   5
  -2   4  -9 14547.5 1568.38   3
   2   4  10 6826.27 920.902   8
   2   4  10 7456.63 987.733   7
   2   4  10 7393.37 1035.05   6
  -2   4 -10 6141.24 1009.80   5
  -2   4 -10 5407.65 959.870   3
  -2   4 -10 7954.87 1235.24  61
  -2   4 -10 5471.76 940.317  48
  -2   4 -10 5591.95 1002.88  18
   2   4  10 5702.52 809.327  17
   2   4  10 7256.97 878.778  39
   2   4  10 3703.14 662.226  26
   2   4  10 5325.34 805.179  25
   2   4  11 15476.7 1513.14   6
  -2   4 -11 13577.4 1462.60   5
  -2   4 -11 13033.7 1452.36   3
   2   4  11 12604.1 1199.10  25
  -2   4 -11 12576.7 1428.76  48
  -2   4 -11 13202.3 1479.14  18
   2   4  11 13905.7 1275.39  17
   2   4  11 12355.3 1094.58  39
   2   4  11 10427.6 1107.26  26
   2   4  11 14426.4 1315.80   8
   2   4  11 13609.1 1329.04   7
   2   4  12 18582.5 1425.50  25
  -2   4 -12 18409.3 1666.49  18
   2   4  12 18506.8 1450.65  17
  -2   4 -12 20460.1 1687.55   5
  -2   4 -12 16147.1 1577.89   3
   2   4  12 18709.3 1256.21  39
   2   4  12 14682.8 1289.65  26
   2   4  12 20779.0 1532.38   8
   2   4  12 20872.7 1590.31   7
   2   4  13 13594.4 1148.70  25
  -2   4 -13 13272.9 1341.50  18
   2   4  13 14816.9 1238.49  17
  -2   4 -13 13378.1 1372.33   3
   2   4  13 13892.9 942.277  39
   2   4  13 12084.2 1101.62  26
   2   4  13 14128.1 1219.28   8
   2   4  13 14974.9 1269.84   7
   2   4  14 23699.0 1422.59  25
  -2   4 -14 24464.0 1780.81   3
  -2   4 -14 24273.8 1665.97  18
   2   4  14 25870.7 1586.88  17
   2   4  14 23385.1 1469.05  26
   2   4  14 27873.0 1611.46   8
   2   4  14 26471.7 1592.32   7
   2   4  15 11626.1 848.797  25
  -2   4 -15 12627.6 1137.36   3
  -2   4 -15 12212.9 988.659  18
   2   4  15 13504.7 1014.19  17
   2   4  15 11662.9 905.005  26
   2   4  15 12301.4 946.726   7
   2   4  15 13470.8 980.358   8
   2   4  16 6942.23 512.941  25
   2   4  16 6965.51 627.462  17
   2   4  16 6029.92 550.012  26
  -2   4 -16 6475.16 710.396   3
   2   4  16 6531.00 566.515   7
   2   4  17 556.327 142.275  33
   2   4  17 344.108 123.062  17
  -2   4 -17 349.917 155.882   3
  -2   5  15 461.579 142.769  17
  -2   5  15 323.576 104.704   7
   2   5 -15 526.865 162.606  29
   2   5 -15 605.485 163.294   3
  -2   5  14 3629.08 388.462  39
  -2   5  14 3885.29 420.256   8
  -2   5  14 3825.55 464.836   7
   2   5 -14 4102.63 550.877   3
  -2   5  14 4137.76 473.511  17
  -2   5  13 10010.4 834.323  17
  -2   5  13 9425.43 774.283   8
  -2   5  13 9856.01 853.055   7
  -2   5  13 9181.94 764.856  39
   2   5 -13 9252.09 866.316  29
   2   5 -13 8665.63 936.471   3
  -2   5  12 8844.67 844.496  17
  -2   5  12 9148.52 852.434   8
  -2   5  12 7914.37 844.962   7
  -2   5  12 9719.59 874.132  39
   2   5 -12 8675.59 925.698  29
  -2   5  12 9000.95 925.615   6
   2   5 -12 8335.70 1005.27   3
  -2   5  11 38737.7 1966.84  17
  -2   5  11 36012.7 2030.46   7
  -2   5  11 37992.1 1987.99   8
  -2   5  11 37143.6 1972.66  39
   2   5 -11 35676.4 2064.44  29
  -2   5  11 34096.1 2001.56   6
  -2   5  10 15369.4 1226.76  17
  -2   5  10 13079.7 1248.40   7
  -2   5  10 15854.0 1289.86   8
  -2   5  10 15016.6 1266.39  39
   2   5 -10 12703.2 1251.69  29
  -2   5  10 15374.2 1345.30   6
  -2   5   9 4506.73 675.336  17
   2   5  -9 3093.10 597.533  18
  -2   5   9 4099.11 686.550   8
   2   5  -9 3936.56 703.306  29
  -2   5   9 3464.17 672.727   6
   2   5  -8 1194.77 446.139   3
  -2   5   8 1235.92 393.992   6
  -2   5   8 1191.20 352.321  17
   2   5  -8 1061.44 388.672  18
   2   5  -8 1033.13 387.307  59
  -2   5   8 1172.73 370.430  59
  -2   5   8 914.668 289.301  38
   2   5  -8 1179.56 368.361  38
   2   5  -8 1182.66 334.415  30
   2   5  -8 1335.96 445.005  29
  -2   5   8 1454.25 431.944   8
  -2   5   7 6868.15 943.768   2
  -2   5   7 5828.82 857.253   6
   2   5  -7 5977.72 1002.19   3
  -2   5   7 7608.57 1037.08  59
   2   5  -7 5982.76 1033.82  59
  -2   5   7 5690.35 765.656  17
   2   5  -7 5936.07 912.113  18
  -2   5   7 5154.04 782.606  38
   2   5  -7 6368.23 855.741  38
   2   5  -7 5025.13 822.888  29
   2   5  -7 6057.03 799.303  31
   2   5  -7 5948.11 792.605  30
  -2   5   7 6553.89 939.427   7
  -2   5   6 12128.7 1260.44   2
  -2   5   6 9743.54 1090.41   6
   2   5  -6 9879.41 1309.23   3
  -2   5   6 12672.3 1435.23  59
  -2   5   6 10456.6 1169.71  62
   2   5  -6 9381.31 1200.84  62
   2   5  -6 9895.98 1412.45  59
  -2   5   6 8741.64 1145.59  55
   2   5  -6 13304.3 1443.69  55
  -2   5   6 8676.58 947.492  17
   2   5  -6 8116.25 1094.37  18
   2   5  -6 10957.2 1173.93  38
  -2   5   6 8978.20 1082.54  38
   2   5  -6 9635.40 1062.57  31
   2   5  -6 10415.0 1095.69  30
   2   5  -6 9000.57 1079.62  29
  -2   5   6 10492.4 1188.87   7
  -2   5   5 20562.9 1698.51   2
   2   5  -5 21860.4 1939.14   3
  -2   5   5 18325.2 1488.35   6
  -2   5   5 23890.2 2036.01  59
   2   5  -5 21612.5 2095.36  59
  -2   5   5 20758.0 1720.65  62
   2   5  -5 19611.6 1795.54  62
   2   5  -5 23640.6 2022.52  55
  -2   5   5 19928.4 1831.61  55
  -2   5   5 17541.4 1349.78  17
   2   5  -5 18991.0 1719.59  18
  -2   5   5 18460.4 1630.28  38
   2   5  -5 19283.6 1635.19  38
   2   5  -5 18170.0 1547.35  30
   2   5  -5 19683.4 1619.50  31
   2   5  -5 19545.3 1578.01  29
  -2   5   5 19710.9 1609.90   8
  -2   5   5 19194.4 1627.01   7
  -2   5   4 47164.8 2692.44   2
   2   5  -4 57923.9 3250.47   3
  -2   5   4 45284.4 2443.50   6
   2   5  -4 61806.1 3664.20  59
  -2   5   4 62194.0 3488.47  59
  -2   5   4 50104.4 2909.18  62
   2   5  -4 50725.6 3056.09  62
  -2   5   4 53771.4 3145.39  55
   2   5  -4 52973.6 3223.76  55
  -2   5   4 46077.9 2279.45  17
   2   5  -4 49568.6 2906.44  18
  -2   5   4 57789.5 2640.61  18
   2   5  -4 49929.5 2832.95  38
   2   5  -4 49255.0 2224.22  39
   2   5  -4 46914.3 2644.77  30
   2   5  -4 51718.9 2793.14  31
   2   5  -4 48595.5 2566.64  29
  -2   5   4 52545.6 2740.71   8
  -2   5   4 48273.6 2721.14   7
  -2   5   3 29381.0 2026.47   2
   2   5  -3 38626.0 2606.33   3
  -2   5   3 26890.1 1770.41   6
  -2   5   3 36953.5 2678.17  59
   2   5  -3 33635.7 2469.24  62
  -2   5   3 30428.8 2257.89  62
   2   5  -3 39836.0 2930.23  59
  -2   5   3 35194.8 2532.56  55
   2   5  -3 32880.7 2497.26  55
   2   5  -3 33902.2 2360.12  18
  -2   5   3 36505.8 2120.13  18
   2   5  -3 29298.1 2135.57  38
   2   5  -3 34002.8 1847.26  39
   2   5  -3 29136.6 2058.50  30
   2   5  -3 29465.9 2103.00  31
   2   5  -3 32736.2 1969.33  29
  -2   5   3 26088.4 1921.21   7
  -2   5   3 33917.9 2137.41   8
  -2   5   2 30768.4 1976.31   2
   2   5  -2 36947.9 2540.64   3
  -2   5   2 22881.8 1584.19   6
  -2   5   2 27731.8 2172.85  62
   2   5  -2 33519.1 2462.95  62
   2   5  -2 38757.5 2929.81  59
  -2   5   2 29862.1 2363.92  55
   2   5  -2 31075.8 2457.12  55
   2   5  -2 36100.0 2421.04  18
  -2   5   2 35639.6 2143.88  18
   2   5  -2 33783.4 1905.32  39
   2   5  -2 31592.8 1848.25  29
   2   5  -2 27516.5 2057.96  31
  -2   5   2 32066.0 2045.98   8
  -2   5   2 26534.8 1879.24   7
  -2   5   1 174.347 136.847   2
   2   5  -1-48.2859 169.493   3
   2   5  -1 65.8211 231.041  59
   2   5  -1 52.5370 159.709  62
   2   5  -1 56.1525 170.699  55
  -2   5   1-79.3743 155.754  18
   2   5  -1 160.356 177.998  39
   2   5  -1 64.7051 65.5771  25
  -2   5   1 34.9507 137.167   7
  -2   5   1 498.642 265.210   8
  -2   5   0 2102.37 489.886   8
  -2   5   0 2396.47 491.141   7
  -2   5   0 1907.22 438.257   2
  -2   5   0 2355.87 687.233  59
   2   5   0 3094.00 858.090  59
  -2   5   0 2113.23 593.142  62
   2   5   0 2312.54 647.366  62
  -2   5   0 2182.56 644.078  55
   2   5   0 2526.63 698.344  55
  -2   5   0 2225.27 572.679  18
   2   5   0 1994.78 570.125  38
  -2   5   0 2085.72 457.712  39
   2   5   0 3175.65 597.689  39
   2   5   0 1822.96 524.307  31
   2   5   0 1680.27 500.486  30
   2   5   0 2938.51 471.146  25
   2   5   1 18633.5 1288.42   8
   2   5   1 21771.8 1423.43   7
  -2   5  -1 17843.8 1439.35   8
  -2   5  -1 17023.0 1321.56   7
  -2   5  -1 26341.0 2252.50  59
  -2   5  -1 20423.1 1842.32  62
  -2   5  -1 19962.2 1916.76  55
   2   5   1 24145.3 1976.27  18
  -2   5  -1 21734.5 1815.82  18
   2   5   1 18604.8 1689.00  38
   2   5   1 21253.9 1618.42  39
  -2   5  -1 18777.1 1338.34  39
   2   5   1 18934.3 1631.48  30
   2   5   1 18595.9 1653.28  31
   2   5   1 18976.6 1342.51  25
   2   5   2 33379.0 1878.33   8
   2   5   2 40078.9 2109.75   7
  -2   5  -2 28246.4 1840.29   8
  -2   5  -2 40145.5 2534.22   5
  -2   5  -2 43351.4 2936.28  59
   2   5   2 41770.5 3074.08  59
  -2   5  -2 38736.7 2577.98  62
   2   5   2 36668.6 2610.65  62
  -2   5  -2 41906.3 2794.72  55
   2   5   2 36912.4 2670.69  55
  -2   5  -2 37763.3 2482.11  18
   2   5   2 44632.8 2805.08  18
   2   5   2 35223.0 2361.80  38
   2   5   2 37008.4 2226.87  39
   2   5   2 35211.7 2265.34  30
   2   5   2 33691.1 2283.05  31
   2   5   2 35667.2 1973.48  25
   2   5   3 9405.74 989.818   8
   2   5   3 10821.8 1099.16   7
  -2   5  -3 9731.06 975.941   8
  -2   5  -3 12070.7 1368.47   5
  -2   5  -3 15977.9 1736.21  59
   2   5   3 14846.6 1754.86  59
   2   5   3 11208.6 1388.85  62
  -2   5  -3 11288.8 1330.48  62
  -2   5  -3 11495.7 1424.10  55
   2   5   3 11917.4 1477.94  55
   2   5   3 14738.8 1533.21  18
  -2   5  -3 13632.8 1473.73  18
   2   5   3 12385.0 1349.87  38
   2   5   3 11611.6 1219.96  39
   2   5   3 11328.0 1213.30  30
   2   5   3 14056.6 1371.64  31
   2   5   3 11910.3 1112.40  25
   2   5   4 28422.4 1821.26   8
   2   5   4 24542.9 1766.90   7
  -2   5  -4 23344.7 1512.68   8
  -2   5  -4 29144.0 1913.95   3
  -2   5  -4 28200.4 2166.18   5
  -2   5  -4 37257.0 2642.42  59
   2   5   4 31139.0 2570.38  59
  -2   5  -4 28209.2 2137.91  62
   2   5   4 31860.0 2333.49  62
  -2   5  -4 34784.3 2458.62  55
   2   5   4 29236.5 2298.88  55
  -2   5  -4 33074.1 2347.97  18
   2   5   4 30795.3 2107.15  38
   2   5   4 31410.0 2050.86  31
   2   5   4 28820.7 1944.30  30
   2   5   4 27016.5 1773.73  25
   2   5   5 10861.1 1101.10   8
   2   5   5 10390.1 1125.04   7
   2   5   5 9250.59 1029.69   6
  -2   5  -5 11385.9 1194.37   3
  -2   5  -5 10564.1 1316.54   5
  -2   5  -5 15073.0 1646.72  59
  -2   5  -5 13418.0 1361.92  62
   2   5   5 12977.2 1388.15  62
   2   5   5 12322.4 1544.05  59
  -2   5  -5 9319.96 1191.36  61
  -2   5  -5 11968.9 1400.95  55
   2   5   5 13440.5 1467.66  55
  -2   5  -5 10729.7 1342.17  18
  -2   5  -5 11672.6 1263.68  38
   2   5   5 11964.2 1258.43  38
   2   5   5 10262.2 1145.26  39
   2   5   5 12230.4 1206.15  31
   2   5   5 11442.4 1159.89  30
   2   5   5 9966.03 1065.08  25
   2   5   6 7584.59 922.285   8
   2   5   6 7325.93 965.738   7
   2   5   6 4422.87 780.713   6
  -2   5  -6 7076.31 953.653   3
  -2   5  -6 5891.32 985.054   5
  -2   5  -6 7658.76 1104.52  59
   2   5   6 8840.02 1260.74  59
   2   5   6 6939.41 997.761  62
  -2   5  -6 8668.94 1052.54  62
  -2   5  -6 6688.15 1024.36  61
  -2   5  -6 7105.35 1033.25  55
   2   5   6 8477.02 1115.34  55
  -2   5  -6 6362.45 1030.82  18
  -2   5  -6 6555.72 905.047  38
   2   5   6 8244.80 978.352  38
   2   5   6 6875.18 928.507  39
   2   5   6 7290.74 876.712  30
   2   5   6 8272.19 912.012  31
   2   5   6 5951.26 824.150  25
   2   5   7 2026.09 479.082   8
   2   5   7 1827.73 482.329   7
  -2   5  -7 2370.44 561.964  59
   2   5   7 1790.28 524.834  59
  -2   5  -7 1646.95 545.474  18
  -2   5  -7 1533.72 484.397   3
   2   5   7 1467.01 418.012   6
  -2   5  -7 1293.71 484.341   5
   2   5   7 1912.47 486.717  39
   2   5   7 1744.57 424.401  38
  -2   5  -7 1871.77 457.971  38
   2   5   7 1569.45 393.175  30
   2   5   7 1339.22 395.720  25
  -2   5  -8 839.787 402.025  18
  -2   5  -8 1215.57 402.169   3
   2   5   8 1333.42 385.656   6
   2   5   8 1338.52 397.862  25
   2   5   8 1195.50 313.307  38
   2   5   8 1732.73 442.332  39
   2   5   8 1554.81 415.484   8
   2   5   8 1276.90 415.817   7
   2   5   9 14957.6 1256.25  39
   2   5   9 14125.5 1305.40   6
  -2   5  -9 12957.3 1307.26   3
   2   5   9 17932.6 1457.05   7
   2   5   9 16496.9 1342.81   8
   2   5  10 47493.5 2246.97  39
   2   5  10 55228.1 2475.74   8
   2   5  11 26551.3 1458.89  39
  -2   5 -11 21526.3 1593.10   3
   2   5  11 24716.2 1512.70  25
  -2   5 -11 24521.4 1747.69  18
  -2   5 -12 4140.66 651.933  18
  -2   5 -12 4164.97 640.543   3
   2   5  12 4331.62 490.675  39
   2   5  12 4874.50 601.844  25
   2   5  12 5121.89 634.174   8
   2   5  12 5467.67 674.287   7
   2   5  13 3198.59 438.454  25
  -2   5 -13 2375.77 440.646   3
  -2   5 -13 3273.39 495.588  18
  -2   5 -13 1957.56 386.386  29
   2   5  13 3245.38 463.015   8
   2   5  13 2978.88 459.051   7
   2   5  14 2231.67 305.102  25
  -2   5 -14 1815.34 306.455  18
  -2   5 -14 2179.15 363.272   3
   2   5  14 2395.09 351.651   7
   2   5  14 2923.27 374.938   8
  -2   6  12 4120.77 376.715   7
  -2   6  12 5693.54 409.467   8
  -2   6  11 1209.26 186.474  25
  -2   6  11 1576.61 272.403  39
   2   6 -11 1769.32 282.149  29
  -2   6  11 2096.44 305.516   8
  -2   6  10 5799.56 481.052  25
   2   6 -10 8570.42 855.278   3
   2   6 -10 8065.26 672.417  29
  -2   6  10 8731.81 705.768   8
  -2   6  10 8112.57 698.379   7
  -2   6  10 8809.04 710.708  39
   2   6  -9 16429.2 1278.77   3
  -2   6   9 16499.9 1076.62  39
   2   6  -9 14801.9 1008.78  29
  -2   6   9 16903.1 1110.01   7
   2   6  -8 14456.8 1072.18  18
   2   6  -8 13573.4 1226.46   3
   2   6  -8 13935.2 1014.21  29
  -2   6   8 16458.6 1154.15   7
   2   6  -7 16927.2 1280.97  18
   2   6  -7 18588.5 1485.35   3
  -2   6   7 14605.5 1137.67  39
   2   6  -7 15160.8 1066.67  38
  -2   6   7 17478.2 1132.03  38
   2   6  -7 16664.5 1127.01  29
   2   6  -7 16080.7 1061.37  30
  -2   6   7 18672.0 1281.55   7
  -2   6   7 19151.3 1279.57   8
   2   6  -6 7547.02 1081.02  59
  -2   6   6 13445.1 1244.95  59
   2   6  -6 11590.1 1114.47  18
   2   6  -6 11422.9 1191.59   3
  -2   6   6 8940.53 892.488  39
   2   6  -6 11001.9 986.345  38
  -2   6   6 11139.5 997.407  38
   2   6  -6 11375.7 924.465  29
   2   6  -6 9938.86 911.175  30
  -2   6   6 10469.2 980.520   7
  -2   6   6 11789.7 1032.12   8
  -2   6   5 667.730 316.021  59
   2   6  -5 636.558 309.976  59
   2   6  -5 240.652 217.722  18
   2   6  -5 420.490 284.769   3
   2   6  -5 269.372 196.740  38
  -2   6   5 367.836 201.188  39
  -2   6   5 509.429 263.107  38
   2   6  -5 673.156 209.031  29
   2   6  -5 493.809 226.002  30
  -2   6   5 488.331 238.228   8
  -2   6   5 241.410 188.508   7
   2   6  -4 4453.05 757.327  18
  -2   6   4 4216.98 782.062  59
   2   6  -4 4237.44 888.903  59
  -2   6   4 3282.12 539.204  39
   2   6  -4 4191.12 679.997  38
  -2   6   4 3994.20 663.001  38
   2   6  -4 4085.96 515.275  29
   2   6  -4 3618.50 611.209  30
  -2   6   4 3255.30 535.404   7
  -2   6   4 3580.69 591.857   8
  -2   6   3 2604.78 460.397  18
   2   6  -3 1735.87 512.451  18
  -2   6   3 1884.68 548.404  59
   2   6  -3 2288.07 672.472  59
  -2   6   3 1814.34 400.320  39
  -2   6   3 1604.59 461.343  38
   2   6  -3 1527.22 442.300  38
   2   6  -3 1911.23 459.836  30
  -2   6   3 1714.39 401.876   8
  -2   6   3 1343.67 346.614   7
   2   6  -2 12905.6 966.606  39
  -2   6   2 11540.1 985.498  39
  -2   6   2 11667.5 1217.80  38
  -2   6   2 12990.8 1446.18  59
   2   6  -2 12787.5 1584.89  59
  -2   6   2 10436.3 1006.20   8
  -2   6   2 16460.5 1253.61  18
  -2   6   1 32228.4 1854.46  18
   2   6  -1 31170.8 2467.79  59
  -2   6   1 23397.3 1797.34  38
   2   6  -1 28453.1 1562.41  39
  -2   6   1 24069.3 1402.85  39
   2   6  -1 23419.6 1705.01  30
  -2   6   1 22065.6 1457.99   8
   2   6   0 14460.2 1429.66  18
  -2   6   0 14313.1 1258.37  18
  -2   6   0 11760.7 1396.10  59
   2   6   0 11393.2 1481.80  59
   2   6   0 11788.7 1235.57  38
   2   6   0 13267.3 1078.46  39
  -2   6   0 8846.66 1087.66  38
   2   6   0 11402.6 1165.00  30
  -2   6   0 8016.05 829.474   8
   2   6   1 22191.7 1732.89  38
   2   6   1 24623.1 1567.78  39
  -2   6  -1 26656.6 2118.94  59
   2   6   1 21918.7 1635.80  30
  -2   6  -1 27150.6 1817.31  18
   2   6   2 2267.24 545.816  38
  -2   6  -2 2116.95 511.100  38
   2   6   2 2491.13 489.563  39
   2   6   2 3047.19 762.492  59
  -2   6  -2 3368.35 732.474  59
   2   6   2 2239.98 509.074  30
  -2   6  -2 2860.26 590.237  18
   2   6   3 943.075 317.832  39
  -2   6  -3 723.532 308.965  38
   2   6   3 1146.56 379.484  38
  -2   6  -3 1257.61 453.261  59
   2   6   3 1332.02 512.559  59
   2   6   3 947.168 317.859  30
  -2   6  -3 789.558 333.884  18
  -2   6  -4 12632.0 1235.44  18
  -2   6  -4 14851.3 1444.43  59
   2   6   4 12214.7 1442.56  59
  -2   6  -4 12611.9 1160.84  38
   2   6   4 12793.4 1168.22  38
   2   6   4 10843.4 1037.38  39
   2   6   4 13517.3 1133.01  30
   2   6   4 10888.0 877.131  25
  -2   6  -5 14324.9 1295.99  18
  -2   6  -5 17662.6 1483.64  59
   2   6   5 11906.8 1356.01  59
   2   6   5 14620.7 1167.50  38
  -2   6  -5 13964.6 1157.80  38
   2   6   5 14335.6 1097.69  30
   2   6   5 11416.6 914.162  25
   2   6   6 11079.2 887.402   8
   2   6   6 10308.8 891.156   7
  -2   6  -6 12660.8 1183.45  18
   2   6   6 7448.50 1060.66  59
  -2   6  -6 14455.5 1265.69  59
   2   6   6 13598.4 1030.39  38
  -2   6  -6 13130.3 1015.39  38
   2   6   6 13387.3 961.014  30
   2   6   6 11030.8 882.491  25
   2   6   7 16197.1 1074.44  25
   2   6   7 20237.3 1301.66  39
   2   6   7 18749.1 1076.10  38
  -2   6  -7 18275.9 1390.27  18
   2   6   7 18540.9 1001.12  30
   2   6   7 18439.5 1138.55   8
   2   6   7 16259.3 1121.00   7
   2   6   8 6793.40 646.790  25
  -2   6  -8 7102.66 807.794  18
   2   6   8 8180.77 758.434  39
  -2   6  -8 6229.83 568.924  29
   2   6   8 8652.67 740.813   8
   2   6   8 7944.73 722.535   7
   2   6   9 2368.94 354.844  25
   2   6   9 2998.60 415.320  39
  -2   6  -9 2161.04 310.130   3
  -2   6  -9 1782.09 277.072  29
   2   6   9 2717.03 384.756   8
   2   6   9 2805.29 408.777   7
   2   6  10 1103.53 222.257  25
   2   6  10 1375.34 251.960  39
  -2   6 -10 1088.74 198.156  29
   2   6  10 1290.81 268.647   7
   2   6  10 1140.63 239.106   8
   2   6  11 1382.71 218.424  25
   2   6  11 1438.87 242.961   7
   2   6  11 1152.22 216.955   8
  -2   6 -11 1103.77 237.171  18
  -2   7   4 10973.2 626.894  30
   2   7  -4 11577.0 665.655  30
   2   7  -4 13050.7 725.270  38
  -2   7   4 12991.8 716.835  38
  -2   7   3 2798.44 340.802  30
   2   7  -3 2253.58 321.344  30
   2   7  -3 2148.49 326.182  38
  -2   7   3 2298.69 332.674  38
  -2   7   2 3878.82 425.902  30
   2   7  -2 4595.33 496.385  38
  -2   7   2 4393.59 479.761  38
  -2   7   1 176.211 106.302  30
  -2   7   1 114.805 107.742  38
   2   7   0 90.7420 91.9538  30
  -2   7   0 44.7008 69.1977  30
  -2   7   0 99.2631 116.146  38
   2   7   0 16.7899 88.4087  38
   2   7   1 10471.4 723.782  30
   2   7   1 9989.66 747.033  38
  -2   7  -1 8255.15 587.363  18
  -2   7  -2 6405.94 541.489  30
   2   7   2 7829.06 597.154  30
  -2   7  -2 6342.91 565.409  38
   2   7   2 7390.55 614.154  38
  -2   7  -2 6678.97 537.611  18
  -2   7  -3 5828.34 477.822  30
   2   7   3 7896.16 544.153  30
  -2   7  -3 6355.77 523.386  18
  -2   7  -3 6860.53 541.692  38
   2   7   3 7400.45 568.902  38
   2   7   3 5254.42 413.497  39
  -2   7  -4 8517.06 583.934  18
   2   7   4 7107.40 473.622  39
   3  -7  -1 319.105 198.008  22
   3  -7  -1 12.8103 63.5997  15
   3  -7  -1 286.972 190.364  40
   3  -7   0 1096.65 370.910  22
   3  -7   0 777.851 194.185  15
   3  -7   0 1587.62 458.324  40
   3  -6 -11 1297.73 265.969  15
   3  -6 -10 4430.61 481.762  14
   3  -6 -10 3591.35 389.418  19
   3  -6 -10 4619.27 553.958  15
   3  -6  -9 17298.3 1084.06  14
   3  -6  -9 17056.1 1186.18  15
   3  -6  -9 16897.9 1010.18  19
   3  -6  -8 7331.89 736.173  14
   3  -6  -8 7085.75 698.301  19
   3  -6  -8 7629.95 830.452  15
   3  -6  -7 9039.10 836.122  19
   3  -6  -7 8483.91 846.326  14
   3  -6  -7 10691.7 1445.76  22
   3  -6  -7 12082.9 1524.73  40
   3  -6  -6 4988.60 675.325  14
   3  -6  -6 5122.58 1226.87  40
   3  -6  -6 4940.57 772.785  57
   3  -6  -6 3993.12 663.210  56
   3  -6  -6 6654.47 1312.80  22
   3  -6  -5 2868.16 993.019  40
   3  -6  -5 1850.32 437.283  14
   3  -6  -5 1663.19 456.630  56
   3  -6  -5 1491.67 456.489  57
  -3  -6   5 443.826 332.032  63
   3  -6  -4 18703.4 1408.05  14
   3  -6  -4 16621.2 1625.35  56
   3  -6  -4 17721.7 1773.30  57
   3  -6  -3 5088.79 739.564  14
   3  -6  -3 5518.52 1018.16  57
   3  -6  -3 4785.90 897.743  56
   3  -6  -2 29156.1 1808.96  14
   3  -6  -2 28325.4 2404.22  57
  -3  -6   1 14684.0 1551.12  12
   3  -6  -1 17845.9 1410.88  14
   3  -6  -1 17830.4 1515.19  15
   3  -6   0 19397.3 1573.27  15
   3  -6   0 19333.3 1472.27  14
  -3  -6   0 20054.5 1794.59  12
   3  -6   0 19193.9 2007.74  57
   3  -6   0 14486.6 1642.21  56
   3  -6   1 3051.23 735.666  56
   3  -6   1 4504.68 737.619  15
   3  -6   1 4517.56 695.687  14
  -3  -6  -1 4803.96 847.198  12
   3  -6   1 4118.24 963.942  57
   3  -6   2 4077.96 850.136  56
   3  -6   2 4992.41 980.371  57
   3  -6   2 5594.60 819.168  15
   3  -6   3 3212.32 1117.32  40
   3  -6   3 1414.60 411.030  15
   3  -6   3 2666.55 656.252  57
   3  -6   3 1307.73 455.984  56
   3  -6   4 6705.61 1020.34  57
   3  -6   4 7616.90 1015.97  56
   3  -6   4 8015.42 924.766  15
   3  -6   5 15356.6 2107.18  40
   3  -6   5 8442.52 915.166  15
   3  -6   5 9100.12 1091.43  57
   3  -6   5 8832.93 983.007  56
   3  -6   5 13105.2 1954.68  22
   3  -6   6 21886.9 2223.38  22
   3  -6   6 24088.0 2348.27  40
   3  -6   6 16101.8 1227.58  15
   3  -6   7 4943.12 622.409  15
   3  -6   8 13000.3 918.398  15
   3  -6   9 5383.15 500.234  15
   3  -5 -14 6734.29 589.998  14
   3  -5 -14 7489.66 843.914  23
   3  -5 -13 14317.4 1031.40  14
   3  -5 -13 14811.2 1166.21  15
   3  -5 -13 17768.0 1487.44  23
   3  -5 -13 13809.6 932.482  19
   3  -5 -12 26848.2 1594.38  14
   3  -5 -12 28372.0 1544.34  19
   3  -5 -12 28079.3 1777.95  15
  -3  -5  12 28911.8 1623.49  63
   3  -5 -11 6663.93 824.666  14
   3  -5 -11 7261.91 805.710  19
   3  -5 -11 6440.93 896.801  15
  -3  -5  11 5954.01 806.318  63
   3  -5 -10 8907.65 1370.14  36
   3  -5 -10 5556.79 804.104  14
   3  -5 -10 6064.56 789.678  19
  -3  -5  10 4859.27 805.641  63
   3  -5 -10 8762.19 1211.30  12
   3  -5  -9 4247.73 695.056  19
   3  -5  -9 4136.55 707.568  14
   3  -5  -9 5077.10 947.939  12
  -3  -5   9 2791.71 652.161  63
  -3  -5   8 368.525 291.822  63
   3  -5  -8 1418.74 665.607  40
   3  -5  -8 610.964 314.637  14
   3  -5  -8 885.089 401.313  12
   3  -5  -8 893.115 522.666  22
   3  -5  -7 10672.3 1188.18  14
   3  -5  -7 11298.4 1461.84  12
   3  -5  -7 9977.55 1367.28  57
   3  -5  -7 11142.5 1373.85  56
   3  -5  -6 14156.2 1415.32  14
   3  -5  -6 14588.3 1694.55  12
   3  -5  -6 14711.4 1826.89  57
   3  -5  -6 11144.6 1498.44  56
   3  -5  -5 26126.0 2045.95  50
   3  -5  -5 25405.0 2569.32  54
   3  -5  -5 31360.7 2137.37  14
  -3  -5   5 30059.9 2233.34  13
   3  -5  -5 27559.1 2377.98  12
   3  -5  -5 26372.8 2643.27  58
   3  -5  -5 27919.1 2678.77  57
   3  -5  -4 43283.0 4304.30  42
   3  -5  -4 33347.8 2310.91  50
   3  -5  -4 33601.3 3007.66  54
   3  -5  -4 34738.0 2266.94  14
   3  -5  -4 35821.1 2484.44  15
   3  -5  -4 29330.6 2427.23  12
   3  -5  -4 32574.7 3014.31  58
   3  -5  -4 36340.3 3146.33  57
   3  -5  -3 20352.4 1767.18  50
   3  -5  -3 21304.0 2372.62  54
  -3  -5   3 13451.3 1696.70  12
   3  -5  -3 17945.7 1781.70  12
   3  -5  -3 23244.9 2570.69  58
   3  -5  -3 20598.7 2392.74  57
   3  -5  -3 22202.1 1781.93  14
   3  -5  -3 23857.6 1992.76  15
   3  -5  -2 8532.44 1123.21  50
   3  -5  -2 6964.59 1359.01  54
   3  -5  -2 6855.18 1051.24  12
  -3  -5   2 6645.13 1184.47  12
   3  -5  -2 9011.28 1604.12  58
   3  -5  -2 8326.29 1180.30  15
   3  -5  -2 7596.22 1038.33  14
   3  -5  -1 3600.50 721.037  12
  -3  -5   1 4520.75 1000.12  12
   3  -5  -1 4303.45 819.535  50
   3  -5  -1 5401.79 936.501  15
   3  -5   0 7575.31 1054.82  51
   3  -5   0 7948.33 1455.46  54
  -3  -5   0 7065.67 1211.52  12
   3  -5   0 7190.56 1420.10  58
   3  -5   0 7105.03 1440.62  57
   3  -5   0 9206.58 1336.92  13
   3  -5   0 8342.58 1172.58  15
   3  -5   1 20749.9 1775.93  51
   3  -5   1 22106.3 2482.62  54
  -3  -5  -1 21733.4 2131.41  12
   3  -5   1 23200.4 2554.36  58
   3  -5   1 21078.0 2444.29  57
   3  -5   1 25610.0 2237.87  13
   3  -5   1 24944.7 2034.09  15
   3  -5   2 17270.6 1603.65  51
   3  -5   2 16140.1 2056.59  54
   3  -5   2 17277.1 1714.06  16
   3  -5   2 18854.9 1962.81  13
   3  -5   2 18528.1 1732.67  15
  -3  -5  -2 20397.7 2027.02  12
   3  -5   2 16303.6 2113.69  58
   3  -5   2 17574.4 2192.61  57
   3  -5   3 58470.6 5080.46  42
   3  -5   3 48788.7 2809.53  51
   3  -5   3 51008.0 3764.69  54
   3  -5   3 54728.9 3090.72  16
   3  -5   3 51104.8 3365.25  13
   3  -5   3 51561.0 2997.02  15
  -3  -5  -3 58769.6 3469.59  12
   3  -5   3 49365.6 3723.80  58
   3  -5   3 52067.7 3864.07  57
   3  -5   4 9655.70 1926.83  42
   3  -5   4 8056.43 1063.60  51
   3  -5   4 8011.74 1370.66  54
   3  -5   4 8430.32 1152.85  16
   3  -5   4 9371.60 1195.50  15
  -3  -5  -4 8942.11 1283.46  12
   3  -5   4 8023.00 1405.26  58
   3  -5   4 9105.80 1513.25  57
   3  -5   4 6852.55 1215.46  56
   3  -5   4 12674.1 2590.44  40
   3  -5   5 13336.3 1437.50  16
   3  -5   5 13122.7 1400.96  15
  -3  -5  -5 13180.5 1549.28  12
   3  -5   5 11614.7 1110.93  10
   3  -5   5 11359.2 1481.49  56
   3  -5   5 11301.6 1121.17  63
   3  -5   5 12302.2 1681.18  57
   3  -5   6 1687.77 516.732  56
   3  -5   6 2298.12 1027.38  40
   3  -5   6 1028.81 399.515  15
   3  -5   6 1346.01 460.379  16
   3  -5   6 1795.47 422.177  10
  -3  -5  -6 2681.14 647.225  12
   3  -5   6 1734.31 630.646  57
   3  -5   6 1680.57 447.669  63
   3  -5   7 4968.06 756.897  63
   3  -5   7 4909.22 875.386  57
   3  -5   7 3836.29 719.831  56
   3  -5   7 6098.01 1433.23  40
   3  -5   7 3992.68 630.429  10
  -3  -5  -7 4960.79 850.837  12
   3  -5   7 6183.66 1499.85  22
   3  -5   7 4162.16 788.225  16
   3  -5   8 16489.6 1512.00  16
   3  -5   8 18543.4 1460.83  63
   3  -5   8 16093.5 1263.82  10
   3  -5   9 41901.4 2382.95  16
   3  -5   9 39260.3 2163.23  63
   3  -5   9 37845.1 1969.58  10
   3  -5  10 17810.4 1431.13  16
   3  -5  10 16255.3 1300.90  15
   3  -5  10 17237.5 1183.35  10
   3  -5  10 18807.1 1379.06  63
   3  -5  11 9270.88 947.365  16
   3  -5  11 7939.30 803.637  15
   3  -5  11 8366.58 849.653  63
   3  -5  11 8111.99 717.933  10
   3  -5  11 8626.28 748.068  53
   3  -5  12 3253.13 377.409  10
   3  -5  12 3992.69 562.358  16
  -3  -5 -12 3951.24 488.646   4
   3  -5  13 1745.84 324.162  16
  -3  -5 -13 1261.69 235.368   4
   3  -4 -17 3846.99 560.368  23
   3  -4 -16 14237.8 1398.62  20
   3  -4 -16 12853.7 1255.27  37
   3  -4 -16 10740.8 854.205  14
   3  -4 -15 10708.3 970.948  14
   3  -4 -15 10184.0 859.013  19
   3  -4 -14 11429.0 1110.30  14
   3  -4 -14 11256.9 1227.89  15
   3  -4 -14 10705.4 985.597  19
   3  -4 -13 14248.6 1327.04  14
   3  -4 -13 14338.3 1254.49  19
  -3  -4  13 18135.2 1356.32  63
   3  -4 -12 529.039 290.751  19
   3  -4 -12 723.871 321.050  14
  -3  -4  12 832.687 305.122  63
   3  -4 -12 1559.96 628.289  36
  -3  -4  11 947.504 415.948  13
   3  -4 -11 992.502 373.261  19
   3  -4 -11 691.931 319.747  14
   3  -4 -11 483.774 402.508  12
  -3  -4  11 714.947 338.509  63
   3  -4 -11 95.2334 373.979  36
   3  -4 -10 5456.06 1152.44  12
  -3  -4  10 5805.30 950.170  63
  -3  -4  10 7085.53 1170.50  13
   3  -4 -10 5126.73 839.850  19
   3  -4 -10 5280.99 881.909  14
   3  -4  -9 61684.3 3392.16  50
  -3  -4   9 82998.5 4344.02  13
   3  -4  -9 75409.9 3468.96  19
   3  -4  -9 72253.5 3478.84  14
   3  -4  -9 78767.4 4525.73  12
  -3  -4   9 60162.7 3513.37  63
   3  -4  -9 70589.3 3496.82  56
   3  -4  -9 66227.8 3487.36  57
   3  -4  -8 22247.5 1926.09  50
   3  -4  -8 27654.9 2451.71  54
  -3  -4   8 32125.2 2571.68  13
   3  -4  -8 25795.4 1968.92  14
   3  -4  -8 28784.6 2597.78  12
   3  -4  -8 24033.1 2263.76  58
   3  -4  -8 22906.6 2165.84  57
   3  -4  -8 21445.6 1993.27  56
   3  -4  -7 45692.9 4017.58  42
   3  -4  -7 31202.1 2276.12  50
   3  -4  -7 41022.4 3041.34  54
  -3  -4   7 34147.8 2697.14  13
   3  -4  -7 29782.8 2141.11  14
   3  -4  -7 33021.1 2452.13  15
   3  -4  -7 33670.0 2806.43  12
   3  -4  -7 31911.7 2757.50  58
   3  -4  -7 36099.6 2889.78  57
   3  -4  -7 29521.2 2478.36  56
   3  -4  -6 3654.23 1152.40  42
   3  -4  -6 1579.78 497.258  50
   3  -4  -6 1547.70 607.696  54
   3  -4  -6 1891.21 586.978  15
  -3  -4   6 1705.83 599.780  13
   3  -4  -6 2364.76 592.555  14
   3  -4  -6 2960.90 1273.36  40
   3  -4  -6 1489.52 602.445  12
   3  -4  -6 76.0757 641.275  58
   3  -4  -6 1954.92 730.816  57
  -3  -4   5 13946.6 1531.47  43
   3  -4  -5 17292.5 2048.79  54
   3  -4  -5 13110.7 1687.81  12
   3  -4  -5 16347.5 2090.77  58
   3  -4  -5 17162.8 2076.56  57
  -3  -4   5 15476.6 1702.02  13
   3  -4  -5 16464.7 1508.99  14
   3  -4  -5 16237.5 1634.88  15
  -3  -4   4 2655.91 642.653  43
   3  -4  -4 2126.00 783.693  54
   3  -4  -4 3669.53 855.646  12
   3  -4  -4 2545.86 854.488  58
   3  -4  -4 2439.96 830.661  57
  -3  -4   4 2663.49 696.677  13
   3  -4  -4 2833.31 685.651  15
   3  -4  -4 2575.61 592.679  14
  -3  -4   3 15209.5 1593.80  43
   3  -4  -3 13363.9 1556.14  12
   3  -4  -3 14686.9 2015.99  58
   3  -4  -3 12889.6 1858.04  57
  -3  -4   3 16983.4 1604.29  13
   3  -4  -3 16062.8 1584.62  15
   3  -4  -2 42445.8 2562.13  50
  -3  -4   2 42860.9 2751.86  43
   3  -4  -2 32240.2 2436.85  12
   3  -4  -2 37038.2 3271.05  58
   3  -4  -2 47144.7 3021.11  13
  -3  -4   2 48329.1 2661.14  13
   3  -4  -2 43834.8 2677.97  15
   3  -4  -1 38593.1 2572.31  12
   3  -4  -1 42084.9 2415.41  10
   3  -4  -1 47636.7 2739.08  50
  -3  -4   1 53261.2 3108.70  43
   3  -4  -1 55906.5 3338.10  13
   3  -4  -1 55887.1 3025.36  16
   3  -4  -1 52540.8 2915.63  15
   3  -4   0 16065.1 1499.99  50
  -3  -4   0 19643.8 1832.98  43
   3  -4   0 11000.4 1246.72  12
  -3  -4   0 16820.7 1766.48  12
   3  -4   0 15293.3 1365.97  10
   3  -4   0 15782.1 2119.88  58
   3  -4   0 14597.8 2003.97  57
   3  -4   0 19231.5 1709.52  16
   3  -4   0 17580.5 1866.58  13
   3  -4   0 16517.4 1575.13  15
  -3  -4  -1 14819.1 1609.58  43
   3  -4   1 14926.3 1439.77  50
   3  -4   1 13312.3 1276.78  10
  -3  -4  -1 15233.4 1671.14  12
   3  -4   1 11674.6 1852.64  58
   3  -4   1 14529.6 1984.80  57
   3  -4   1 14948.7 1511.60  16
   3  -4   1 14421.5 1683.16  13
   3  -4   1 13638.4 1429.50  15
   3  -4   2 26882.1 1963.90  51
  -3  -4  -2 28226.3 2285.01  43
   3  -4   2 27553.5 2721.56  54
   3  -4   2 29512.9 1965.45  10
  -3  -4  -2 30962.7 2437.22  12
   3  -4   2 28536.3 2842.67  58
   3  -4   2 26544.1 2696.74  57
   3  -4   2 26182.5 1723.91  63
   3  -4   2 29805.4 2163.46  16
   3  -4   2 29948.2 2440.68  13
   3  -4   2 28017.6 2082.79  15
   3  -4   3 6557.71 945.676  51
   3  -4   3 7747.28 1413.31  54
   3  -4   3 6366.15 919.494  10
  -3  -4  -3 7744.60 1178.43  12
   3  -4   3 6879.69 1370.70  58
   3  -4   3 6529.60 1329.97  57
   3  -4   3 6172.03 836.934  63
   3  -4   3 6856.14 1035.03  16
   3  -4   4 43096.8 2560.60  51
   3  -4   4 45924.1 3493.39  54
   3  -4   4 42840.8 2731.34  16
   3  -4   4 44809.8 2566.73  10
  -3  -4  -4 46447.4 2963.77  12
  -3  -4  -4 42136.7 2572.79  11
   3  -4   4 48383.3 3635.76  58
   3  -4   4 38358.1 3202.02  57
   3  -4   4 46576.3 2535.58  63
   3  -4   5 73236.4 3525.27  51
   3  -4   5 77146.8 4518.06  54
   3  -4   5 75559.5 3789.49  16
   3  -4   5 73998.1 4059.96  13
   3  -4   5 74014.1 3511.68  10
  -3  -4  -5 84090.3 4033.93  12
  -3  -4  -5 74518.5 3603.16  11
   3  -4   5 66637.5 4353.12  58
   3  -4   5 79243.8 3558.32  63
   3  -4   5 67755.1 4262.65  57
   3  -4   6 13533.7 1397.43  51
   3  -4   6 13172.2 1683.37  54
   3  -4   6 18142.3 2540.69  42
   3  -4   6 13089.6 1477.56  16
   3  -4   6 13304.9 1618.54  13
   3  -4   6 13128.9 1384.44  10
  -3  -4  -6 14492.1 1577.97  12
  -3  -4  -6 13003.1 1385.56  11
   3  -4   6 13804.0 1770.84  58
   3  -4   6 12482.4 1542.87  56
   3  -4   6 13052.3 1372.17  63
   3  -4   6 12528.0 1712.37  57
   3  -4   7 18598.4 1677.66  51
   3  -4   7 26505.9 2971.97  42
   3  -4   7 21345.4 1897.48  16
   3  -4   7 18580.1 1898.25  13
   3  -4   7 31030.0 3627.87  40
   3  -4   7 20095.5 1759.24  10
  -3  -4  -7 24328.6 2017.31  12
  -3  -4  -7 21176.0 1780.96  11
   3  -4   7 21818.6 2180.31  58
   3  -4   7 22001.7 1820.69  63
   3  -4   7 15518.9 1804.65  57
   3  -4   7 16547.7 1730.18  56
   3  -4   8 19422.6 1731.87  63
   3  -4   8 19071.5 1824.05  57
   3  -4   8 18950.6 1749.34  52
   3  -4   8 19189.5 1798.04  16
   3  -4   8 18515.5 1876.62  13
   3  -4   8 28035.9 3239.03  40
   3  -4   8 19865.7 1751.26  10
  -3  -4  -8 18170.8 1703.64  12
  -3  -4  -8 18950.3 1691.54  11
   3  -4   8 29206.4 3245.90  22
   3  -4   9 1021.84 435.695  16
  -3  -4  -9 796.906 280.100  19
   3  -4   9 925.473 394.207  13
   3  -4   9 954.089 365.689  52
   3  -4   9 702.897 345.113  10
  -3  -4  -9 774.136 370.062  11
   3  -4   9 316.574 238.560  63
   3  -4  10 1276.14 442.652  10
  -3  -4 -10 1625.16 491.481  11
   3  -4  10 1583.91 489.252  63
  -3  -4 -10 1776.35 410.414  19
   3  -4  10 893.419 421.829  16
   3  -4  11 4539.78 799.151  63
   3  -4  11 3788.54 762.336  16
   3  -4  11 4083.56 751.784  10
  -3  -4 -11 3677.15 718.588  11
  -3  -4 -11 4481.38 631.523  19
   3  -4  12 12181.7 1262.64  63
   3  -4  12 12490.6 1297.04  16
   3  -4  12 12796.6 1093.75  53
   3  -4  12 11974.5 1220.25  10
  -3  -4 -12 12271.1 1218.02  11
  -3  -4 -12 13939.4 1085.36  19
   3  -4  13 23686.3 1694.32  16
   3  -4  13 22439.9 1639.57  63
   3  -4  13 20261.8 1519.94  10
   3  -4  13 22481.7 1343.53  53
   3  -4  14 14050.9 1186.19  16
   3  -4  14 12303.2 1069.44  10
   3  -4  15 12964.7 1000.27  16
  -3  -4 -15 12744.8 889.112   4
   3  -4  15 11512.1 899.381  10
   3  -4  16 1878.41 308.991  16
   3  -4  16 759.000 190.745  10
   3  -4  16 1449.73 291.590  28
  -3  -4 -16 1330.73 236.095   4
   3  -3 -18 23336.7 1531.68  23
   3  -3 -18 22285.1 1473.54  37
   3  -3 -17 6462.66 741.966  14
  -3  -3  17 7058.01 674.781  10
   3  -3 -17 9721.40 1191.25  23
   3  -3 -17 9097.99 1177.23  20
   3  -3 -17 8712.18 1177.70  37
   3  -3 -16 1457.87 359.637  19
   3  -3 -16 1235.39 366.258  14
  -3  -3  16 1348.02 337.857  10
   3  -3 -16 1894.48 619.211  23
   3  -3 -16 2022.27 677.990  37
   3  -3 -15 5296.69 800.186  14
  -3  -3  15 4357.18 680.553  10
   3  -3 -15 7849.36 1346.92  23
   3  -3 -15 5496.49 756.908  19
   3  -3 -15 5550.41 1114.70  36
   3  -3 -14 6747.31 957.334  14
  -3  -3  14 6078.50 852.806  10
   3  -3 -14 4238.42 1017.16  12
   3  -3 -14 6574.45 891.207  19
   3  -3 -13 27453.9 2622.45  12
   3  -3 -13 27038.7 2023.69  14
   3  -3 -13 28297.2 1973.67  19
  -3  -3  13 30156.8 2507.04  13
  -3  -3  13 26927.7 1856.10  10
   3  -3 -13 24690.0 2075.26  49
   3  -3 -12 40875.7 2797.07  49
   3  -3 -12 51277.1 3675.58  12
   3  -3 -12 47752.3 2755.18  14
   3  -3 -12 50239.9 2726.32  19
  -3  -3  12 41743.8 2413.55  10
  -3  -3  12 46250.9 2550.66  63
   3  -3 -11 8380.72 1759.18  36
  -3  -3  11 5989.19 1062.43  44
   3  -3 -11 4986.51 941.945  49
  -3  -3  11 5149.19 828.616  63
   3  -3 -11 5334.78 884.183  14
   3  -3 -11 5655.90 878.323  19
  -3  -3  10 16054.0 1780.14  44
   3  -3 -10 15547.5 1649.37  49
  -3  -3  10 14383.0 1448.64  63
   3  -3 -10 16911.6 1545.99  14
   3  -3 -10 15972.0 1472.41  19
   3  -3 -10 15219.3 1625.21  15
  -3  -3  10 17917.3 1928.81  13
  -3  -3   9 19228.5 1966.49  44
   3  -3  -9 19452.1 1807.23  49
   3  -3  -9 25376.3 2422.75  12
   3  -3  -9 19453.5 1663.56  56
   3  -3  -9 21145.8 1672.95  19
   3  -3  -9 19432.7 1632.62  14
   3  -3  -9 19529.1 1821.59  15
  -3  -3   9 22747.3 2150.64  13
   3  -3  -8 9498.56 1366.52  54
  -3  -3   8 6569.48 1130.69  44
   3  -3  -8 9336.20 1247.94  49
   3  -3  -8 13747.4 1997.56  42
   3  -3  -8 8591.88 1048.95  14
   3  -3  -8 10218.2 1274.48  15
  -3  -3   8 12180.0 1508.89  13
   3  -3  -8 10469.1 1515.76  12
   3  -3  -8 11537.0 1448.41  58
   3  -3  -8 9809.67 1215.93  56
   3  -3  -8 10502.4 1336.45  57
   3  -3  -7 35574.3 3365.01  42
   3  -3  -7 29055.8 2150.84  49
   3  -3  -7 29054.0 2424.93  54
   3  -3  -7 25763.3 1819.78  14
   3  -3  -7 28055.6 2085.96  15
  -3  -3   7 29841.6 2329.73  13
   3  -3  -7 26838.6 2379.33  12
   3  -3  -7 32751.9 2571.93  58
   3  -3  -7 28414.1 2342.14  57
   3  -3  -7 24199.6 2055.09  56
   3  -3  -6 17276.7 2340.07  42
  -3  -3   6 10275.6 1351.66  44
   3  -3  -6 8225.80 1301.38  54
   3  -3  -6 10385.6 1088.94  14
   3  -3  -6 9608.31 1160.66  15
  -3  -3   6 10215.1 1309.25  13
   3  -3  -6 18174.9 2684.54  40
   3  -3  -6 10409.2 1411.18  12
   3  -3  -6 11196.0 1512.68  58
   3  -3  -6 9724.70 1420.55  57
  -3  -3   5 72877.8 3850.69  44
   3  -3  -5 80280.0 4381.94  54
   3  -3  -5 79799.0 3317.01  14
   3  -3  -5 79811.2 3604.79  15
  -3  -3   5 85075.2 3934.49  13
   3  -3  -5 77945.4 3992.71  12
   3  -3  -5 79618.6 4388.53  58
   3  -3  -5 80406.5 4370.41  57
  -3  -3   4 81894.5 3972.22  44
   3  -3  -4 76601.9 3456.65  50
   3  -3  -4 84838.7 4500.24  54
   3  -3  -4 78757.4 3865.51  12
   3  -3  -4 97121.1 4854.24  58
   3  -3  -4 86256.5 4537.51  57
   3  -3  -4 86619.5 3663.34  15
   3  -3  -4 84113.9 3365.13  14
  -3  -3   4 99922.3 4068.79  13
  -3  -3   3 20022.5 1806.27  44
   3  -3  -3 24036.5 1697.70  50
   3  -3  -3 24012.9 2263.18  54
  -3  -3   3 29146.7 1945.22  13
   3  -3  -3 25740.3 1786.17  15
   3  -3  -3 20979.9 1773.34  12
   3  -3  -3 25855.9 2413.82  58
   3  -3  -3 25581.6 2340.42  57
  -3  -3   2 8271.06 1092.35  44
   3  -3  -2 6946.48 1131.30  13
   3  -3  -2 9821.74 1082.25  16
  -3  -3   2 9366.12 1048.63  13
   3  -3  -2 9210.18 1005.12  15
   3  -3  -2 9849.03 898.906  35
   3  -3  -2 7478.41 1022.47  12
   3  -3  -2 8007.31 969.873  10
   3  -3  -2 7360.88 1258.51  57
   3  -3  -1 2315.63 412.446  35
  -3  -3   1 1611.11 419.557  13
   3  -3  -1 1725.80 446.916  16
   3  -3  -1 1735.22 536.808  13
   3  -3  -1 1991.61 456.786  15
   3  -3  -1 1547.23 451.043  12
   3  -3  -1 2247.71 466.596  10
  -3  -3   1 1988.16 378.139  45
  -3  -3   1 2013.77 536.385  44
  -3  -3   0 234.858 194.519  44
   3  -3   0 866.975 298.545  15
  -3  -3   0 512.431 217.101  13
   3  -3   0 658.097 297.942  16
   3  -3   0 493.561 284.073  13
   3  -3   0 316.956 176.144  10
   3  -3   0 377.563 191.504  12
   3  -3   0 397.924 349.306  58
   3  -3   0 256.395 297.776  57
   3  -3   0 600.069 206.740  35
   3  -3   1 51578.3 2574.38  16
   3  -3   1 47478.3 2063.23  35
   3  -3   1 47439.9 2411.02  10
   3  -3   1 46302.4 3261.69  58
   3  -3   1 45024.0 3203.66  57
   3  -3   1 46260.0 2092.68  63
   3  -3   2 25243.3 2338.09  54
  -3  -3  -2 34085.7 2209.80  43
   3  -3   2 27252.7 1867.94  16
   3  -3   2 26585.0 1499.06  35
   3  -3   2 29329.9 1872.69  10
   3  -3   2 27949.5 2539.50  58
   3  -3   2 29650.4 2520.93  57
   3  -3   2 25664.9 1606.25  63
  -3  -3  -3 93964.6 4033.41  43
   3  -3   3 103664. 4871.99  54
   3  -3   3 92631.5 3799.66  16
   3  -3   3 92896.6 4119.25  13
   3  -3   3 83119.8 3068.35  35
   3  -3   3 86567.8 3615.09  10
  -3  -3  -3 87266.6 3771.31  12
   3  -3   3 96902.0 4876.13  58
   3  -3   3 83803.7 4544.66  57
   3  -3   3 82321.7 3356.34  63
   3  -3   4 38088.0 2858.11  54
   3  -3   4 35915.7 2264.11  16
   3  -3   4 40316.6 2595.19  13
   3  -3   4 32642.2 1748.32  35
   3  -3   4 37805.0 2263.04  10
   3  -3   4 34665.6 1962.05   9
  -3  -3  -4 36829.5 2294.36  12
   3  -3   4 42259.1 3067.91  58
   3  -3   4 39495.3 2903.49  57
   3  -3   4 37860.2 2159.75  63
   3  -3   5 46176.8 3873.11  42
   3  -3   5 28639.1 1893.51  51
   3  -3   5 31328.6 2529.42  54
   3  -3   5 29169.0 2059.56  16
   3  -3   5 28881.6 2191.71  13
   3  -3   5 53552.4 4719.33  40
   3  -3   5 25428.4 1516.22  35
   3  -3   5 30069.5 2054.46  10
   3  -3   5 28901.7 1790.20   9
  -3  -3  -5 29496.0 2027.52  12
  -3  -3  -5 25249.7 1851.98  11
   3  -3   5 35884.5 2755.24  58
   3  -3   5 32832.7 2058.10  63
   3  -3   5 23744.1 2234.39  57
   3  -3   5 27144.5 2207.99  56
   3  -3   6 7755.55 1590.43  42
   3  -3   6 5034.44 791.975  51
   3  -3   6 4919.36 1000.71  54
   3  -3   6 4569.81 846.828  13
   3  -3   6 4653.49 606.360  35
   3  -3   6 8076.31 1747.87  40
   3  -3   6 5380.51 872.957  10
   3  -3   6 4849.24 709.006   9
  -3  -3  -6 4960.02 806.583  12
  -3  -3  -6 5650.24 858.251  11
   3  -3   6 4778.45 996.787  58
   3  -3   6 4458.12 874.657  56
   3  -3   6 5762.91 877.898  63
   3  -3   6 4631.38 931.089  57
   3  -3   7 8384.51 1045.60  51
   3  -3   7 5491.23 1062.14  54
   3  -3   7 10595.6 1779.38  42
   3  -3   7 6902.36 1068.66  13
   3  -3   7 7225.33 772.442  35
   3  -3   7 8043.57 1092.88  10
   3  -3   7 7964.32 913.120   9
  -3  -3  -7 9202.96 1103.11  12
  -3  -3  -7 8412.82 1061.33  11
   3  -3   7 8645.90 1274.20  58
   3  -3   7 8252.74 1084.43  63
   3  -3   7 7332.51 1134.63  57
   3  -3   7 6905.26 1034.82  56
   3  -3   8 17410.6 1680.47  57
   3  -3   8 21932.6 1825.07  63
  -3  -3  -8 19412.7 1632.79  46
   3  -3   8 22988.9 2528.75  42
   3  -3   8 16750.2 1708.98  13
   3  -3   8 30602.9 3201.11  40
   3  -3   8 17459.1 1252.37  35
   3  -3   8 18962.0 1727.05  10
   3  -3   8 17008.1 1433.38   9
  -3  -3  -8 20682.7 1651.24  12
  -3  -3  -8 17296.3 1578.68  11
   3  -3   8 30731.0 3097.10  21
   3  -3   8 28506.8 3081.32  22
   3  -3   9 39113.0 2538.07  52
  -3  -3  -9 38551.3 2358.96  46
   3  -3   9 38674.0 2624.29  13
  -3  -3  -9 40544.0 2227.22  19
   3  -3   9 32587.2 1843.81  35
   3  -3   9 40532.2 2631.88  10
   3  -3   9 37596.4 2206.14   9
  -3  -3  -9 40404.8 2474.73  11
   3  -3  10 37859.5 2472.15  13
  -3  -3 -10 38230.8 2201.85  19
   3  -3  10 36787.1 2561.08  10
   3  -3  10 34275.5 2132.74   9
  -3  -3 -10 33813.5 2296.82  11
   3  -3  10 43758.2 2725.19  63
   3  -3  10 40034.1 2546.32  52
   3  -3  11 9536.10 1271.65  10
   3  -3  11 11128.3 1145.46   9
  -3  -3 -11 10065.5 1215.99  11
  -3  -3 -11 9560.60 1074.65  19
   3  -3  11 10516.4 1278.96  52
   3  -3  12 14151.5 1516.40  10
  -3  -3 -12 12422.2 1326.61  11
   3  -3  12 13861.3 1264.41   9
  -3  -3 -12 15852.5 1358.12  19
   3  -3  12 14177.5 1459.66  52
   3  -3  12 14765.6 1311.90  53
   3  -3  13 8497.00 1157.41  63
   3  -3  13 7717.73 898.520  53
   3  -3  13 6847.19 1024.31  10
   3  -3  13 6934.58 846.133   9
  -3  -3 -13 8056.05 1026.43  11
  -3  -3 -13 6698.96 857.429  19
  -3  -3 -14 909.061 312.318  19
   3  -3  14 1184.95 418.860  10
  -3  -3 -14 2066.20 484.570  11
   3  -3  14 1181.29 320.126   9
   3  -3  14 1089.27 317.184  53
   3  -3  14 1155.92 397.595  63
   3  -3  15 10223.2 846.396  53
   3  -3  15 11892.0 1191.15  63
  -3  -3 -15 11066.4 959.482  19
   3  -3  15 10129.3 1111.77  10
   3  -3  15 10133.9 851.347   9
   3  -3  16 21293.1 1502.09  63
   3  -3  16 23923.0 1560.17  10
  -3  -3 -16 23343.7 1226.14  19
   3  -3  17 3741.55 489.507  28
   3  -3  17 3059.87 467.188  10
   3  -3  18 4437.22 444.303  10
   3  -3  18 9867.57 621.838  16
   3  -2 -19 892.294 277.049  37
  -3  -2  19 351.906 188.247  10
   3  -2 -18 910.065 376.760  37
  -3  -2  18 527.265 267.179  10
   3  -2 -18 1067.33 390.378  23
   3  -2 -18 651.613 277.767  20
   3  -2 -17 12705.6 1731.28  37
   3  -2 -17 13953.7 1682.66  36
   3  -2 -17 14848.1 1630.88  23
   3  -2 -17 12373.0 1575.49  20
   3  -2 -17 10726.4 988.585  19
  -3  -2  17 11221.2 1214.58  10
   3  -2 -16 27318.1 2769.84  37
   3  -2 -16 29484.3 2878.71  36
   3  -2 -16 22679.3 1748.63  14
   3  -2 -16 21779.0 1581.59  19
   3  -2 -16 31125.0 2627.99  23
   3  -2 -16 32417.6 2891.03  20
   3  -2 -16 21661.0 1592.91  41
   3  -2 -15 48624.2 2621.19  41
   3  -2 -15 50815.4 2813.07  14
   3  -2 -15 53782.3 2721.37  19
   3  -2 -15 44823.1 2406.01  11
   3  -2 -14 24794.8 2082.62  49
   3  -2 -14 28620.2 1963.61  41
   3  -2 -14 27447.7 2034.88  14
  -3  -2  14 30914.0 2500.61  13
   3  -2 -14 26789.2 1901.80  19
   3  -2 -14 23728.7 1724.10  11
  -3  -2  13 5047.14 928.717  44
   3  -2 -13 7631.90 1088.69  49
   3  -2 -13 7580.61 980.080  41
  -3  -2  13 8563.55 1278.16  13
   3  -2 -13 7260.26 1023.46  14
   3  -2 -13 6999.03 1207.35  15
   3  -2 -13 10441.3 1978.16  36
   3  -2 -13 7054.54 958.453  19
   3  -2 -13 3004.08 1039.24  12
   3  -2 -13 8588.52 990.650  11
  -3  -2  12 539.264 299.472  44
   3  -2 -12 583.618 295.868  49
  -3  -2  12 241.868 237.528  13
   3  -2 -12 497.909 242.589  19
   3  -2 -12 455.490 290.881  14
   3  -2 -12 472.944 332.692  15
   3  -2 -12 566.686 257.008  41
   3  -2 -12 1041.57 703.678  36
   3  -2 -12 792.463 567.891  32
   3  -2 -12 297.431 412.814  12
   3  -2 -12 700.515 268.489  11
   3  -2 -11 9873.25 1017.93  11
  -3  -2  11 9130.46 1285.88  44
   3  -2 -11 9643.59 1219.90  49
   3  -2 -11 10010.7 1067.13  41
   3  -2 -11 9678.62 1137.26  14
  -3  -2  11 12358.9 1555.77  13
   3  -2 -11 9509.73 1079.34  19
   3  -2 -11 9103.40 1237.52  15
   3  -2 -11 8271.37 1541.96  12
   3  -2 -11 12829.7 2174.73  36
  -3  -2  11 11244.9 984.674   1
  -3  -2  10 19715.2 1883.70  44
   3  -2 -10 20139.8 1740.04  49
   3  -2 -10 19544.0 1492.55  41
   3  -2 -10 19825.6 1592.48  14
   3  -2 -10 22011.3 1608.66  19
   3  -2 -10 21779.5 1859.98  15
   3  -2 -10 23024.4 1497.41  11
  -3  -2  10 24377.2 1420.76   1
  -3  -2   9 39814.9 2681.88  44
   3  -2  -9 42569.0 2517.12  49
   3  -2  -9 43769.2 2373.72  54
   3  -2  -9 39853.2 2247.65  14
   3  -2  -9 44703.4 2282.58  19
   3  -2  -9 41194.4 2535.63  15
   3  -2  -9 41741.8 2001.45  11
  -3  -2   9 44512.6 1937.42   1
  -3  -2   8 27041.0 1429.71   1
  -3  -2   8 28198.2 2170.51  44
   3  -2  -8 27754.7 1943.84  49
   3  -2  -8 32681.7 2138.67  54
   3  -2  -8 43275.5 3135.06  42
   3  -2  -8 33356.2 2188.11  58
   3  -2  -8 32167.4 2055.54  57
   3  -2  -8 31149.5 1984.19  56
   3  -2  -8 27708.8 1708.31  19
   3  -2  -8 27777.1 1768.52  14
   3  -2  -8 27936.9 1970.53  15
   3  -2  -8 29717.6 2487.32  12
   3  -2  -8 24586.2 1428.07  11
   3  -2  -8 42755.5 3303.73  21
  -3  -2   7 92419.1 2967.93   1
   3  -2  -7 98571.5 4151.39  54
   3  -2  -7 94354.0 3772.10  49
   3  -2  -7 132662. 5862.57  42
   3  -2  -7 111904. 4416.56  58
   3  -2  -7 101434. 4136.80  57
   3  -2  -7 92185.5 3846.11  56
   3  -2  -7 91816.0 3455.53  14
   3  -2  -7 87383.1 3698.10  15
   3  -2  -7 76646.0 2841.73  11
   3  -2  -7 97596.6 4497.97  12
   3  -2  -7 155042. 6627.40  21
   3  -2  -6 26028.7 2046.96  58
   3  -2  -6 26197.2 1977.62  57
   3  -2  -6 24211.9 1805.74  56
   3  -2  -6 28328.4 2146.42  12
   3  -2  -6 22150.5 1112.84  11
  -3  -2   6 25215.7 1226.09   1
   3  -2  -6 25378.5 1723.78  49
   3  -2  -6 27367.5 2133.69  54
   3  -2  -5 14722.8 1541.86  58
   3  -2  -5 13085.6 1325.25  56
   3  -2  -5 13636.2 1466.75  57
   3  -2  -5 12876.4 1345.79  12
  -3  -2   5 12654.3 791.895   1
   3  -2  -5 18284.9 2122.86  42
   3  -2  -5 12914.3 1165.26  49
   3  -2  -5 14087.1 1478.51  54
   3  -2  -4 12570.8 1410.85  58
   3  -2  -4 10846.7 1286.12  57
   3  -2  -4 9190.30 1116.40  56
   3  -2  -4 10000.9 1123.64  12
  -3  -2   4 9631.66 656.775   1
  -3  -2   4 10617.5 863.532  45
   3  -2  -4 10839.9 1027.78  49
   3  -2  -4 11100.8 1332.60  54
  -3  -2   3 26189.9 1393.66  45
   3  -2  -3 22561.1 1428.79  50
   3  -2  -3 26925.4 1640.78  49
   3  -2  -3 24275.6 1965.15  54
   3  -2  -3 24218.3 2000.21  58
   3  -2  -3 24084.8 2001.07  57
   3  -2  -3 19673.3 1545.87  12
  -3  -2   2 228161. 5827.02  45
   3  -2  -2 225359. 5994.83  50
   3  -2  -2 212171. 7142.41  57
   3  -2  -1 128494. 3907.50  50
   3  -2  -1 131960. 4556.60  13
   3  -2   0 33870.1 2903.64  42
  -3  -2   0 26864.4 1617.51  44
   3  -2   0 23959.2 1412.97  50
   3  -2   0 24165.5 1981.78  54
   3  -2   0 15090.8 1128.19  12
   3  -2   0 24076.9 2004.49  58
   3  -2   0 24429.3 1974.39  57
  -3  -2  -1 19471.7 1352.18  44
   3  -2   1 21571.7 1353.87  50
  -3  -2  -1 23043.8 1521.03  43
   3  -2   1 21805.9 1858.97  54
   3  -2   1 17137.5 1055.66  12
   3  -2   1 24296.6 2004.97  58
   3  -2   1 20350.9 1838.22  57
   3  -2   1 20378.4 1194.40  63
   3  -2   1 23312.8 1680.74  13
  -3  -2  -1 22604.2 1190.22  13
   3  -2   2 36072.8 1809.50  51
  -3  -2  -2 36194.0 1836.36  44
  -3  -2  -2 37046.5 2036.47  43
   3  -2   2 41065.3 2604.39  54
   3  -2   2 36397.9 2549.92  58
   3  -2   2 39314.7 2548.44  57
   3  -2   2 37214.4 1792.88  63
   3  -2   2 40153.3 2252.55  13
  -3  -2  -3 2247.03 404.128  44
   3  -2   3 2331.39 433.605  51
   3  -2   3 2360.88 825.452  42
   3  -2   3 2100.17 541.017  56
  -3  -2  -3 3025.38 574.309  43
   3  -2   3 2788.90 659.601  54
  -3  -2  -3 2137.97 461.531  12
   3  -2   3 2724.38 679.549  58
   3  -2   3 2657.16 640.951  57
   3  -2   3 2160.32 423.242  63
   3  -2   3 2972.82 586.072  13
   3  -2   4 81169.2 4627.51  42
   3  -2   4 54924.4 2469.69  51
  -3  -2  -4 66775.1 2948.45  43
   3  -2   4 65425.3 3376.02  54
  -3  -2  -4 50096.3 2371.81  12
   3  -2   4 58584.8 3264.60  58
   3  -2   4 59094.5 2597.73  63
   3  -2   4 66285.2 3361.09  57
   3  -2   4 52630.8 2858.75  56
   3  -2   4 55426.8 2795.73  13
   3  -2   5 72700.9 3542.04  54
   3  -2   5 84019.9 4782.95  42
   3  -2   5 61818.1 2995.80  13
   3  -2   5 67328.6 3030.44  10
  -3  -2  -5 62257.9 2633.79  12
  -3  -2  -5 68839.8 2811.58  11
   3  -2   5 66235.1 3375.02  57
   3  -2   5 75571.0 3669.21  58
   3  -2   5 71763.9 3000.58  63
   3  -2   5 52632.7 2897.20  56
   3  -2   6 47905.2 2923.28  58
   3  -2   6 50297.7 2692.24  56
   3  -2   6 56295.3 2995.46  57
   3  -2   6 61062.7 2801.18  63
   3  -2   6 49006.8 2834.46  54
   3  -2   6 65976.0 4151.18  42
   3  -2   6 51665.5 2647.68  16
   3  -2   6 47817.9 2591.42  13
   3  -2   6 47825.7 2162.26  34
   3  -2   6 52286.1 2696.60  10
  -3  -2  -6 54927.4 2382.48  12
   3  -2   6 48219.3 2417.95   9
  -3  -2  -6 61330.6 2611.09  11
   3  -2   7 72838.2 3509.04  56
   3  -2   7 106057. 4408.60  58
   3  -2   7 119878. 4296.38  63
   3  -2   7 109311. 4261.40  57
  -3  -2  -7 109693. 4065.81  46
   3  -2   7 101469. 3912.32  52
   3  -2   7 123188. 5770.36  42
   3  -2   7 106610. 4252.98  54
   3  -2   7 95579.8 3962.42  16
   3  -2   7 83117.0 3712.52  13
   3  -2   7 88818.0 3287.35  34
   3  -2   7 94593.3 3996.88  10
   3  -2   7 90914.0 3677.11   9
  -3  -2  -7 100980. 3763.78  11
   3  -2   7 144163. 6473.15  21
   3  -2   8 40116.2 2384.74  63
  -3  -2  -8 30269.2 1715.79  47
   3  -2   8 38576.7 2979.27  42
  -3  -2  -8 35798.2 2155.88  46
   3  -2   8 27756.6 1928.56  13
   3  -2   8 30710.0 2104.85  16
   3  -2   8 28372.8 1611.18  34
   3  -2   8 31553.1 2190.38  10
   3  -2   8 29791.8 1946.85   9
  -3  -2  -8 33923.8 2023.93  11
   3  -2   8 43794.0 3316.07  21
  -3  -2  -9 8359.21 911.302  47
  -3  -2  -9 9029.53 1059.95  46
   3  -2   9 9430.68 1074.42  13
   3  -2   9 7648.30 1053.08  16
   3  -2   9 8437.17 851.104  34
   3  -2   9 7221.77 956.371   9
   3  -2   9 8475.44 1139.92  10
  -3  -2  -9 9473.48 1083.11  11
  -3  -2  -9 10534.8 1031.41  19
   3  -2  10 2538.96 534.506  13
   3  -2  10 2460.38 605.908  16
  -3  -2 -10 2977.01 555.666  19
   3  -2  10 1698.55 540.569  10
   3  -2  10 2301.00 553.682   9
  -3  -2 -10 2049.44 538.912  11
  -3  -2 -10 1623.58 441.996  46
   3  -2  11 20091.0 1736.58  52
   3  -2  11 16935.3 1471.68  53
   3  -2  11 19083.7 1802.17  63
   3  -2  11 14701.1 1561.23  16
   3  -2  11 14125.1 1414.15   9
  -3  -2 -11 16157.4 1499.14  11
  -3  -2 -11 16518.1 1415.23  19
  -3  -2 -12 22517.5 1733.85   5
   3  -2  12 25211.1 1984.04  52
   3  -2  12 24048.3 1752.22  53
   3  -2  12 29691.6 2261.90  63
   3  -2  12 20712.7 1889.67  16
   3  -2  12 22144.5 1793.30   9
  -3  -2 -12 22688.7 1790.80  11
  -3  -2 -12 23068.2 1727.42  19
  -3  -2 -13 44058.3 2443.63   5
   3  -2  13 52558.7 2668.38  53
   3  -2  13 47802.2 2963.66  16
   3  -2  13 46372.7 2688.01   9
  -3  -2 -13 48800.3 2704.85  11
  -3  -2 -13 51367.5 2668.20  19
  -3  -2 -14 19947.7 1683.20   4
   3  -2  14 18259.6 1458.28  53
   3  -2  14 21895.6 1891.67  63
   3  -2  14 18218.5 1711.03  16
   3  -2  14 17809.9 1542.91   9
  -3  -2 -14 18195.4 1561.46  11
  -3  -2 -14 18837.7 1524.08  19
  -3  -2 -15 31510.3 2028.06   4
   3  -2  15 25525.0 1634.76  53
   3  -2  15 28664.6 2085.13  16
   3  -2  15 31116.6 2201.21  63
   3  -2  15 28596.1 1864.21   9
  -3  -2 -15 24252.6 1768.25  11
  -3  -2 -15 26975.2 1772.39  19
  -3  -2 -16 9147.79 994.701   4
   3  -2  16 7560.17 958.846  16
   3  -2  16 7351.21 962.858  63
   3  -2  16 7946.01 994.523  10
   3  -2  16 7729.99 864.426   9
  -3  -2 -16 7545.85 837.473  19
  -3  -2 -17 1598.53 384.597   4
   3  -2  17 697.766 266.061  16
   3  -2  17 1022.13 308.446  63
  -3  -2 -17 1116.59 274.878  19
   3  -2  17 1402.13 381.812  10
   3  -2  17 1017.96 284.391   9
  -3  -2 -18 5345.51 489.285  19
  -3  -2 -18 7832.51 717.447   4
   3  -2  18 7149.62 724.371  10
   3  -2  18 5823.59 570.111   9
   3  -2  18 6138.97 665.932  16
  -3  -2 -19 1985.18 312.231  41
   3  -2  19 3526.86 376.537  10
   3  -1 -20 10968.2 776.072  41
  -3  -1  20 11243.3 886.675  10
   3  -1 -19 23568.1 1916.92  37
  -3  -1  19 21705.2 1506.87  10
   3  -1 -19 21459.3 1395.31  41
   3  -1 -18 12402.2 1198.03  41
  -3  -1  18 11278.0 981.155  16
   3  -1 -18 13540.7 1710.96  37
   3  -1 -18 12353.9 1256.44  23
  -3  -1  18 12009.8 910.955   9
   3  -1 -17 10326.3 1190.30  41
  -3  -1  17 9349.60 1006.16  16
   3  -1 -17 11851.1 1454.61  23
   3  -1 -17 8703.68 945.361  19
   3  -1 -17 11289.4 1532.95  20
  -3  -1  17 10188.9 951.360   9
   3  -1 -17 12773.7 1934.52  36
   3  -1 -17 11540.6 1780.49  37
   3  -1 -16 540.958 252.065  19
  -3  -1  16 845.929 309.827  16
   3  -1 -16 413.530 480.213  36
   3  -1 -16 774.758 366.751  41
   3  -1 -16 834.955 564.167  37
   3  -1 -16 554.504 368.043  20
   3  -1 -16 978.080 472.009  23
  -3  -1  16 453.768 206.012   9
   3  -1 -15 1889.80 758.332  20
   3  -1 -15 2711.18 834.238  23
   3  -1 -15 1181.83 400.860  49
  -3  -1  15 1868.40 555.489  13
   3  -1 -15 1689.42 452.689  19
   3  -1 -15 1760.58 509.438  14
   3  -1 -15 2398.27 1002.83  36
   3  -1 -15 1834.28 563.146  41
   3  -1 -15 1410.78 751.236  37
  -3  -1  15 1864.04 446.705   1
  -3  -1  15 2204.12 484.450   9
   3  -1 -14 6211.94 1281.34  23
   3  -1 -14 4780.26 769.593  19
   3  -1 -14 5703.06 968.588  41
   3  -1 -14 3360.27 695.420  49
   3  -1 -14 3344.97 711.753  47
   3  -1 -14 3368.66 709.203  14
  -3  -1  14 4300.45 886.422  13
   3  -1 -14 5489.48 1483.50  36
  -3  -1  14 4794.99 746.917   1
   3  -1 -14 3432.07 693.236  11
  -3  -1  14 4723.78 739.964   9
   3  -1 -13 33196.1 2105.30  19
   3  -1 -13 29028.5 2168.79  49
   3  -1 -13 27051.7 2144.88  47
   3  -1 -13 34701.7 2406.52  41
  -3  -1  13 25973.1 2128.87  44
   3  -1 -13 30943.4 2136.24  14
  -3  -1  13 33537.8 2585.69  13
   3  -1 -13 37921.8 3887.00  36
   3  -1 -13 30217.5 2084.53  11
  -3  -1  13 34606.4 2052.27   1
  -3  -1  12 85793.1 3380.96   1
   3  -1 -12 78560.4 3382.86  19
   3  -1 -12 82838.4 3836.68  41
   3  -1 -12 67941.5 3463.08  47
   3  -1 -12 79757.1 3550.69  14
   3  -1 -12 68519.4 3822.10  15
   3  -1 -12 97865.5 6224.42  36
   3  -1 -12 70088.9 3349.47  11
   3  -1 -11 54096.2 2633.06  19
   3  -1 -11 53595.3 2916.22  41
   3  -1 -11 51047.5 2797.94  47
   3  -1 -11 51582.6 2706.21  14
   3  -1 -11 57672.3 3190.63  15
   3  -1 -11 51356.5 2640.59  11
   3  -1 -10 18137.6 1410.06  11
   3  -1 -10 21826.7 1648.68  41
   3  -1 -10 18541.6 1544.90  47
   3  -1 -10 18892.7 1457.93  14
   3  -1 -10 22143.1 1471.32  19
   3  -1 -10 19321.0 1693.67  15
  -3  -1  10 21532.8 1427.15   1
   3  -1  -9 13537.6 1137.20  11
   3  -1  -9 16448.9 1368.57  41
   3  -1  -9 13732.8 1082.92  54
   3  -1  -9 15187.8 1292.80  49
   3  -1  -9 14918.1 1292.96  47
   3  -1  -9 14933.3 1186.43  14
   3  -1  -9 15385.3 1407.22  15
   3  -1  -9 18389.8 2086.49  27
  -3  -1   9 15541.4 1149.13   1
  -3  -1   8 12409.3 964.665   1
   3  -1  -8 16372.8 1728.91  42
   3  -1  -8 11177.4 1064.18  49
   3  -1  -8 13828.2 1152.34  54
   3  -1  -8 12269.3 1116.74  47
   3  -1  -8 10933.4 963.911  56
   3  -1  -8 9700.20 891.197  11
   3  -1  -8 19453.3 1941.77  21
  -3  -1   7 37364.5 1730.78   1
   3  -1  -7 46104.3 3007.32  42
   3  -1  -7 41886.7 2052.01  49
   3  -1  -7 43746.9 2224.60  54
   3  -1  -7 38223.3 1974.42  56
   3  -1  -7 44124.4 2156.81  57
   3  -1  -7 34135.2 2408.14  12
   3  -1  -7 30240.1 1593.76  11
  -3  -1   6 46315.5 1915.73   1
  -3  -1   6 52882.0 1681.74   2
   3  -1  -6 44224.0 2246.15  56
   3  -1  -6 60424.6 2631.47  57
   3  -1  -6 43018.7 1813.09  11
   3  -1  -6 47707.6 2691.37  12
   3  -1  -6 81600.2 4228.11  21
   3  -1  -6 54001.4 2293.15  49
   3  -1  -6 70274.5 3751.68  42
   3  -1  -6 58689.6 2680.92  54
  -3  -1   5 86802.3 2661.52   2
   3  -1  -5 92975.6 3502.95  56
   3  -1  -5 107156. 3958.86  58
   3  -1  -5 107272. 3818.96  57
   3  -1  -5 80665.7 2635.17  11
   3  -1  -5 82784.7 3627.60  12
   3  -1  -5 146981. 5891.31  21
   3  -1  -5 102584. 3298.73  49
   3  -1  -5 100310. 3809.10  54
   3  -1  -5 135253. 5396.84  42
   3  -1  -4 73719.8 3295.72  58
   3  -1  -4 70479.4 3115.18  57
   3  -1  -4 66583.7 2941.84  56
   3  -1  -4 60564.5 2897.38  12
  -3  -1   4 79002.8 2736.66  45
   3  -1  -4 78431.7 2730.23  49
   3  -1  -4 76374.6 3288.43  54
   3  -1  -3 123712. 4358.48  57
   3  -1  -3 122594. 4431.74  58
   3  -1  -3 100383. 3916.42  56
   3  -1  -3 85748.8 3677.24  12
   3  -1  -3 187929. 6781.12  21
  -3  -1   3 123982. 3685.66  45
   3  -1  -3 115161. 3396.30  50
   3  -1  -3 118868. 3603.16  49
   3  -1  -3 116503. 4278.98  54
   3  -1  -3 158714. 5949.87  42
   3  -1  -2 26655.2 1791.82  57
   3  -1  -2 24617.9 1635.76  56
  -3  -1   2 30373.6 1485.74  45
   3  -1  -2 29547.1 1344.82  50
   3  -1  -2 36038.5 2703.29  42
   3  -1  -2 22740.1 1442.05  12
   3  -1  -2 41816.9 3042.86  21
   3  -1  -1 19238.7 1184.86  12
   3  -1  -1 21156.0 1109.23  50
   3  -1   0 29696.4 1417.06  12
   3  -1   0 35581.8 1440.50  51
   3  -1   0 34656.2 1480.17  50
   3  -1   0 32739.8 2035.24  54
   3  -1   0 40675.9 2850.17  42
   3  -1   0 33990.7 2122.69  58
   3  -1   0 34839.2 2053.33  57
   3  -1   0 30537.4 1847.76  56
   3  -1   0 44810.4 3206.64  21
   3  -1   1 124835. 4660.66  58
   3  -1   1 132455. 4600.93  57
   3  -1   1 124019. 4091.58  13
   3  -1   1 130401. 3628.83  51
   3  -1   1 137397. 4685.05  54
   3  -1   2 108374. 3643.74  13
   3  -1   2 113987. 4202.24  54
   3  -1   2 111585. 3293.44  51
  -3  -1  -2 100431. 3408.88  43
   3  -1   2 123692. 5355.30  42
   3  -1   2 107723. 4196.33  58
   3  -1   2 103335. 3315.93  63
   3  -1   2 113452. 4154.33  57
   3  -1   2 90035.5 3681.31  56
   3  -1   3 147245. 4550.91  13
   3  -1   3 135198. 4201.73  51
   3  -1   3 167895. 5298.00  54
   3  -1   3 186591. 6676.36  42
  -3  -1  -3 165774. 4632.18  43
   3  -1   3 168264. 5397.37  58
   3  -1   3 131519. 4863.90  57
   3  -1   3 134268. 4307.84  63
   3  -1   3 142769. 4813.97  56
   3  -1   3 203340. 7300.99  21
   3  -1   4 32045.6 1857.20  56
   3  -1   4 37371.9 2180.45  58
   3  -1   4 31063.3 1677.84  63
   3  -1   4 34554.2 2022.61  57
   3  -1   4 23934.1 1498.64  13
  -3  -1  -4 28514.5 1171.95  44
   3  -1   4 28845.9 1508.29  51
  -3  -1  -4 35542.2 1787.94  43
   3  -1   4 35080.3 2060.35  54
   3  -1   4 36231.7 2729.06  42
  -3  -1  -4 30590.5 1471.12  11
   3  -1   4 39067.2 2961.76  21
   3  -1   5 65472.8 2782.16  56
   3  -1   5 69317.3 3154.52  58
   3  -1   5 60166.6 2644.88  63
   3  -1   5 71782.1 3032.06  57
   3  -1   5 51367.0 2492.32  13
  -3  -1  -5 67635.7 2789.13  46
   3  -1   5 57272.1 2480.46  52
   3  -1   5 71363.5 3069.21  54
   3  -1   5 90514.8 4376.38  42
  -3  -1  -5 62832.1 2384.46  11
   3  -1   5 100231. 4790.11  21
   3  -1   6 6176.50 757.894  56
   3  -1   6 6583.13 824.638  63
   3  -1   6 8214.37 928.004  57
   3  -1   6 4633.09 623.762  13
   3  -1   6 6933.31 779.481  52
   3  -1   6 8675.41 1315.15  42
   3  -1   6 7975.43 926.585  54
  -3  -1  -6 7324.36 850.639  46
  -3  -1  -6 6426.79 687.360  11
   3  -1   6 9126.65 1418.09  21
   3  -1   7 13748.4 1161.84  57
   3  -1   7 13939.8 1185.55  52
   3  -1   7 13367.3 1186.28  54
   3  -1   7 18025.5 1852.39  42
  -3  -1  -7 14637.3 1257.40  46
   3  -1   7 10276.5 937.198  13
   3  -1   7 14353.4 1262.78  10
   3  -1   7 13170.8 1156.79   9
  -3  -1  -7 12551.1 1030.34  11
   3  -1   7 17444.4 1913.85  21
   3  -1   8 84382.7 3297.84  52
   3  -1   8 86984.5 4167.94  42
  -3  -1  -8 78688.1 3280.06  46
   3  -1   8 61850.4 2671.68  13
   3  -1   8 66625.6 3062.60  16
   3  -1   8 65754.7 2772.66  17
   3  -1   8 60258.4 2616.12  34
   3  -1   8 66597.1 3167.44  10
   3  -1   8 71061.8 3089.16   9
  -3  -1  -8 71992.7 2897.40  11
   3  -1   8 98550.3 4559.18  21
   3  -1   9 29954.6 1934.48  52
  -3  -1  -9 28030.2 1901.46  46
   3  -1   9 28834.9 1809.56  53
   3  -1   9 23854.3 1778.06  16
   3  -1   9 24347.2 1579.48  17
   3  -1   9 25389.7 1558.21  34
   3  -1   9 26519.4 1958.08  10
   3  -1   9 24605.7 1787.83   9
  -3  -1  -9 26701.1 1684.35  11
  -3  -1  -9 27568.3 1672.69  19
   3  -1  10 43730.1 2622.04  63
  -3  -1 -10 33534.8 2161.97  46
   3  -1  10 40528.4 2210.63  53
   3  -1  10 30911.7 2143.24  16
   3  -1  10 33220.3 1926.52  17
   3  -1  10 33124.3 1855.97  34
   3  -1  10 33440.3 2295.25  10
   3  -1  10 32873.8 2161.93   9
  -3  -1 -10 35785.6 2048.09  11
  -3  -1 -10 35129.5 2018.44  19
  -3  -1 -11 53146.8 2730.55   5
   3  -1  11 57277.8 2767.84  53
   3  -1  11 47532.4 2806.14  16
   3  -1  11 45770.4 2401.80  17
   3  -1  11 49189.1 2372.84  34
   3  -1  11 48699.4 2905.59  10
   3  -1  11 45045.9 2715.26   9
  -3  -1 -11 56824.4 2726.69  11
  -3  -1 -11 50301.8 2610.90  19
  -3  -1 -12 11187.4 1195.96   5
   3  -1  12 11122.2 1375.05  63
   3  -1  12 11140.0 1175.09  53
   3  -1  12 9933.35 1238.36  16
   3  -1  12 8367.70 952.446  17
   3  -1  12 9212.91 926.948  34
   3  -1  12 8317.43 1182.17  10
   3  -1  12 8357.79 1125.35   9
  -3  -1 -12 10569.5 1137.88  11
  -3  -1 -12 9499.53 1094.82  19
  -3  -1 -13 35375.4 2310.88   4
  -3  -1 -13 26232.6 1869.15   5
   3  -1  13 32670.3 2427.57  63
   3  -1  13 30559.7 2028.31  53
   3  -1  13 29202.9 2211.12  16
   3  -1  13 28567.4 1820.28  17
   3  -1  13 28473.2 1724.90  34
   3  -1  13 31128.8 2310.33  10
   3  -1  13 29134.3 2164.24   9
  -3  -1 -13 32527.1 2082.27  11
  -3  -1 -13 30391.0 2048.39  19
  -3  -1 -14 23996.6 1853.85   4
  -3  -1 -14 16904.8 1444.68   5
   3  -1  14 25901.4 2090.95  63
   3  -1  14 22660.5 1684.98  53
   3  -1  14 22185.0 1904.16  16
   3  -1  14 21562.2 1517.47  17
   3  -1  14 20134.8 1375.20  34
   3  -1  14 20985.8 1900.77  10
   3  -1  14 21346.2 1804.51   9
  -3  -1 -14 21853.7 1684.06  11
  -3  -1 -14 22227.8 1723.88  19
   3  -1  15 23476.5 1639.06  53
   3  -1  15 21145.3 1817.60  16
   3  -1  15 20489.0 1426.12  17
   3  -1  15 24261.9 1975.07  63
   3  -1  15 24425.9 1941.79  10
   3  -1  15 19924.5 1706.47   9
  -3  -1 -15 21214.5 1625.28  11
  -3  -1 -15 24027.5 1761.41  19
  -3  -1 -16 27890.3 1843.14   4
  -3  -1 -16 17998.0 1654.78   3
   3  -1  16 24009.3 1819.88  16
   3  -1  16 22173.8 1797.45  63
   3  -1  16 23914.7 1824.89  10
   3  -1  16 25107.4 1820.88   9
  -3  -1 -16 20090.1 1506.02  11
  -3  -1 -16 23898.5 1671.84  19
  -3  -1 -17 14553.8 1226.49   4
   3  -1  17 12202.0 1164.31  16
   3  -1  17 11807.8 1167.13  63
  -3  -1 -17 12192.7 1074.45  19
   3  -1  17 12009.6 1152.80  10
   3  -1  17 11241.2 1096.68   9
  -3  -1 -18 12833.9 971.184  19
   3  -1  18 13267.9 1079.82  16
  -3  -1 -18 15032.0 1122.54   4
   3  -1  18 13266.3 1049.32  10
   3  -1  18 12586.3 1036.27   9
   3  -1  19 11959.2 815.227  16
  -3  -1 -19 13690.2 896.435   4
   3  -1  19 11382.8 758.186  10
   3  -1  19 13361.6 863.703   9
   3   0 -20 9418.79 901.439  37
   3   0 -20 9084.74 838.059  41
  -3   0  20 7718.46 607.116   9
   3   0 -19 100.441 176.295  37
   3   0 -19 158.613 167.041  41
  -3   0  19 21.3579 112.477   9
  -3   0  19 207.172 121.222  16
   3   0 -18 240.425 222.400  41
   3   0 -18 345.697 321.049  37
  -3   0  18 28.0422 120.571   9
   3   0 -17 29627.6 2466.18  20
   3   0 -17 33732.3 3123.70  37
   3   0 -17 30102.1 2229.68  41
   3   0 -17 24781.7 1702.87   4
  -3   0  17 30723.0 1926.57   9
   3   0 -16 4139.82 983.927  20
   3   0 -16 4453.89 708.334  19
   3   0 -16 3958.39 858.596  23
   3   0 -16 4574.83 903.217  41
   3   0 -16 3940.07 1135.07  37
   3   0 -16 6400.77 1582.16  36
   3   0 -16 4576.17 732.033   4
  -3   0  16 4278.50 712.015   1
  -3   0  16 4452.12 751.324   9
   3   0 -15 30302.8 2105.23  47
   3   0 -15 37933.2 2687.60  41
  -3   0  15 29289.4 2218.37  13
   3   0 -15 36782.7 3578.33  37
   3   0 -15 42566.4 4183.92  36
   3   0 -15 38401.2 2935.15  23
   3   0 -15 36619.6 3258.10  20
   3   0 -15 31618.4 2042.57  19
  -3   0  15 30914.2 2073.26   1
   3   0 -15 28350.9 1996.90   4
   3   0 -14 86699.3 5625.77  37
   3   0 -14 95411.7 6415.78  36
   3   0 -14 60274.4 3233.35  47
   3   0 -14 77806.3 3997.83  41
   3   0 -14 65228.1 3132.11  19
   3   0 -14 92507.3 4745.27  23
   3   0 -14 87724.3 5247.38  20
   3   0 -14 61685.0 3153.19   4
  -3   0  14 68016.0 3240.88   1
   3   0 -13 4587.75 1163.26  20
   3   0 -13 2939.32 573.636  19
   3   0 -13 4145.42 973.381  23
   3   0 -13 2703.39 601.073  47
   3   0 -13 4313.37 1352.47  36
   3   0 -13 2829.65 715.664  41
   3   0 -13 4515.96 1288.21  37
   3   0 -13 6032.08 1545.73  32
   3   0 -13 4168.94 1144.73  27
   3   0 -13 3121.48 608.862   4
  -3   0  13 3111.90 620.104   1
   3   0 -12 8567.56 986.082   4
  -3   0  12 10545.2 1107.76   1
   3   0 -12 9774.91 1160.43  60
   3   0 -12 10710.2 1343.58  41
   3   0 -12 8041.75 1032.72  47
   3   0 -12 8964.09 1035.16  14
   3   0 -12 10754.6 1875.15  37
   3   0 -12 13521.9 2297.79  36
   3   0 -12 10889.5 1850.37  27
   3   0 -12 15348.8 2498.80  32
   3   0 -12 9579.82 1001.71  19
   3   0 -12 10938.7 1792.06  20
   3   0 -12 13134.0 1732.15  23
   3   0 -11 16813.2 1361.92   4
  -3   0  11 22059.2 1559.01   1
   3   0 -11 22852.2 1714.27  60
   3   0 -11 20156.7 1783.44  41
   3   0 -11 18452.2 1496.92  47
   3   0 -11 16470.5 1399.66  14
   3   0 -11 26122.9 3116.70  36
   3   0 -11 25416.6 2813.21  27
   3   0 -11 30662.7 3586.16  32
   3   0 -11 28553.7 2826.43  20
   3   0 -11 28005.9 2481.10  23
   3   0 -11 18988.3 1396.52  19
   3   0 -10 4249.89 713.249  11
   3   0 -10 4608.55 672.733   4
  -3   0  10 6000.51 634.478   6
  -3   0  10 6446.94 785.547   1
   3   0 -10 6534.03 866.969  60
   3   0 -10 6279.38 922.373  41
   3   0 -10 5682.36 770.490  47
   3   0 -10 5920.28 737.668  14
   3   0 -10 7566.97 1538.35  36
   3   0 -10 10134.4 1980.04  32
   3   0 -10 8030.00 1498.85  27
   3   0 -10 8366.87 1297.37  23
   3   0  -9 18220.5 1520.19  11
  -3   0   9 29739.9 1657.04   1
  -3   0   9 28401.8 1432.31   6
   3   0  -9 28123.7 1767.60  60
   3   0  -9 30034.4 1976.70  41
   3   0  -9 23858.8 1547.56  47
   3   0  -9 24327.2 1361.12  54
   3   0  -9 26659.1 1877.42  15
   3   0  -9 35053.0 3269.28  36
   3   0  -9 44084.8 4165.96  32
   3   0  -9 35791.0 3083.66  27
   3   0  -9 38169.3 2742.07  23
   3   0  -8 78074.9 2977.83  47
   3   0  -8 88692.7 3089.76  54
  -3   0   8 77251.8 2572.50   2
  -3   0   8 82104.5 2865.08   6
  -3   0   8 88415.2 3106.99   1
  -3   0   7 47903.8 1998.24   1
  -3   0   7 38761.6 1629.85   2
  -3   0   7 32296.1 1643.68   6
   3   0  -7 52434.5 2209.79  57
   3   0  -7 47517.1 2007.37  56
   3   0  -7 43375.7 1843.83  49
   3   0  -7 51250.6 2217.67  54
   3   0  -7 45046.4 1933.90  47
  -3   0   6 63836.5 2198.44   2
   3   0  -6 63899.5 2619.55  57
   3   0  -6 68149.1 2565.77  56
   3   0  -6 61354.9 2269.62  47
   3   0  -6 66439.9 2264.62  49
   3   0  -6 65417.8 2705.13  54
   3   0  -6 66967.3 3640.68  42
  -3   0   6 59150.4 1795.54  46
  -3   0   5 37840.6 1602.52   2
   3   0  -5 39999.3 1992.90  57
   3   0  -5 39854.5 1888.10  56
   3   0  -5 37433.3 1514.10  49
   3   0  -5 45001.6 2940.41  42
   3   0  -5 39940.3 2029.86  54
  -3   0   5 37643.0 1385.65  46
  -3   0   4 15295.9 831.594  46
  -3   0   4 18729.3 1162.69  45
   3   0  -4 12834.1 668.118  50
   3   0  -4 16654.8 857.933  49
   3   0  -4 18385.0 1826.84  42
   3   0  -4 15084.4 1195.10  54
   3   0  -4 15068.9 1105.04  56
   3   0  -4 16049.7 1196.17  57
  -3   0   4 14723.3 936.846   2
   3   0  -4 15215.3 874.121  31
   3   0  -4 20681.2 2000.88  21
   3   0  -3 34502.9 1755.51  56
   3   0  -3 38217.7 1905.84  57
   3   0  -3 36945.7 1427.14  31
   3   0  -3 55762.9 3322.53  21
  -3   0   3 41420.8 1505.86  46
  -3   0   3 40769.8 1756.97  45
   3   0  -3 27183.7 894.699  51
   3   0  -3 33021.2 1129.33  50
   3   0  -3 47960.8 2937.36  42
   3   0  -3 35484.6 1901.94  54
   3   0  -2 78255.9 2939.47  56
   3   0  -2 78137.4 3205.06  59
   3   0  -2 84767.9 3130.82  57
  -3   0   2 92571.5 2665.92  46
   3   0  -2 104157. 4521.27  42
  -3   0   2 90625.2 2830.32  45
   3   0  -2 70474.6 1964.58  51
   3   0  -1 39934.4 2110.22  59
   3   0  -1 59834.7 3447.23  21
  -3   0   1 46595.1 1748.94  46
   3   0  -1 34090.2 1067.87  52
  -3   0   1 46125.5 1824.57  45
   3   0  -1 37325.7 1194.51  51
   3   0  -1 43211.9 2052.63  55
   3   0  -1 50469.0 3035.99  42
   3   0   0 97453.6 3333.40  56
   3   0   0 99595.6 3466.10  57
   3   0   0 96810.1 2796.48  31
   3   0   0 129844. 5355.64  21
  -3   0   0 116856. 3203.49  46
   3   0   0 73157.2 2324.46  52
   3   0   0 104384. 3545.05  55
   3   0   0 118031. 4877.40  42
   3   0   0 100327. 3583.30  54
   3   0   1 27990.7 1217.41  31
   3   0   1 26931.1 1612.17  57
   3   0   1 29159.5 1586.50  56
   3   0   1 25143.5 1674.66  59
   3   0   1 27705.6 1674.58  54
  -3   0  -1 30290.6 1474.30  46
  -3   0  -2 16236.8 743.209  11
   3   0   2 13456.0 968.520  63
   3   0   2 16976.4 1197.52  56
   3   0   2 17582.9 1270.32  57
   3   0   2 17504.3 929.129  31
   3   0   2 21587.6 2064.90  21
   3   0   2 13896.3 806.333  52
  -3   0  -2 16910.7 914.540  43
   3   0   2 20373.5 1920.59  42
   3   0   2 18666.7 1364.94  54
  -3   0  -2 18912.5 1181.16  46
   3   0   3 2023.28 386.576  63
   3   0   3 2892.02 486.585  56
   3   0   3 3177.10 530.637  57
  -3   0  -3 2589.80 291.062  11
   3   0   3 4037.22 897.876  21
   3   0   3 2252.37 336.974  52
   3   0   3 2945.72 737.242  42
  -3   0  -3 2712.50 366.620  43
  -3   0  -3 2379.92 273.162  48
   3   0   3 3058.25 542.796  54
  -3   0  -3 2105.64 412.971  46
   3   0   4 9332.65 874.977  63
   3   0   4 10604.9 917.965  56
   3   0   4 11517.1 1015.21  57
  -3   0  -4 9114.35 611.988  11
   3   0   4 12847.9 1620.89  21
   3   0   4 9399.77 754.481  52
   3   0   4 10290.6 1393.92  42
  -3   0  -4 8041.55 580.269  48
   3   0   4 9960.97 985.509  54
   3   0   4 9759.16 775.946  53
   3   0   5 54320.4 2361.43  57
   3   0   5 51662.4 2177.22  56
  -3   0  -5 40908.2 1658.81  11
   3   0   5 60003.9 3575.60  21
   3   0   5 47374.4 2002.70  52
  -3   0  -5 45167.4 1730.93  48
   3   0   5 56837.6 3347.50  42
   3   0   5 50708.3 2365.72  54
   3   0   6 100602. 3421.15  57
   3   0   6 89231.1 3129.21  56
  -3   0  -6 78455.3 2705.88  11
   3   0   6 86145.8 3111.91  52
   3   0   6 92817.6 4439.86  42
  -3   0  -6 83094.8 2804.28  48
   3   0   6 100092. 3476.69  54
  -3   0  -6 84549.4 3369.31  46
   3   0   7 58533.4 2526.31  52
  -3   0  -7 54431.6 2217.77  48
   3   0   7 63352.5 2595.66  54
  -3   0  -7 56364.7 2691.02  46
   3   0   7 60037.4 2484.54  53
  -3   0  -7 55872.9 2164.91  11
   3   0   8 74891.2 3350.55  63
  -3   0  -8 77898.4 3345.24  46
   3   0   8 81696.6 3113.70  53
  -3   0  -8 77282.9 3143.80   5
   3   0   8 66279.2 2853.95  17
   3   0   8 69631.8 3086.56   9
  -3   0  -8 77645.6 2768.41  11
   3   0   8 85099.1 4255.17  21
   3   0   9 13895.3 1361.01  63
   3   0   9 13083.5 1163.34  53
  -3   0  -9 13773.7 1219.92   5
   3   0   9 8690.97 967.985  16
   3   0   9 9763.64 990.059  17
   3   0   9 10154.9 1083.86  10
  -3   0  -9 11279.9 961.818  11
   3   0   9 11263.1 978.377   7
  -3   0  -9 10597.0 993.589  19
   3   0  10 12286.3 1357.38  63
   3   0  10 13149.7 1210.32  53
  -3   0 -10 13052.9 1254.78   5
   3   0  10 10481.3 1117.93  16
   3   0  10 10419.1 1060.14  17
   3   0  10 10174.6 1135.29  10
  -3   0 -10 13082.7 1099.75  11
   3   0  10 14103.7 1084.64   7
  -3   0 -10 12327.4 1155.82  19
   3   0  11 8129.95 1135.84  63
   3   0  11 8262.83 998.375  53
  -3   0 -11 10546.4 1125.01   4
  -3   0 -11 8511.39 1034.37   5
   3   0  11 7241.68 976.736  16
   3   0  11 8559.55 984.032  17
   3   0  11 7903.17 1048.13  10
  -3   0 -11 8541.70 936.740  11
   3   0  11 9828.12 909.506   7
  -3   0 -11 8463.24 998.812  19
   3   0  12 897.685 354.012  53
  -3   0 -12 1166.78 396.788   4
  -3   0 -12 887.261 358.750   5
   3   0  12 984.543 365.576  17
  -3   0 -12 842.362 356.085  19
   3   0  12 904.558 363.042  16
   3   0  12 998.054 438.314  63
   3   0  12 706.787 310.684  10
  -3   0 -12 963.190 343.271  11
   3   0  13 59670.9 3215.43  10
  -3   0 -13 63876.2 2950.01  11
  -3   0 -13 68815.5 3269.41   4
  -3   0 -13 64602.1 3145.54   5
   3   0  13 66152.1 3632.63  63
   3   0  13 66503.1 3171.51  53
   3   0  13 62804.4 3292.73  16
   3   0  13 62388.2 3007.89  17
   3   0  13 69758.1 3301.99  28
  -3   0 -13 65556.4 3228.55  19
   3   0  14 33539.5 2428.49  63
   3   0  14 31585.9 2230.70  16
   3   0  14 32068.2 2021.13  17
  -3   0 -14 36249.7 2265.86   4
  -3   0 -14 29792.4 2008.50   5
   3   0  14 30950.5 1904.41  34
   3   0  14 30601.3 2180.86  10
  -3   0 -14 32878.7 2006.08  11
  -3   0 -14 29657.2 2076.24  19
   3   0  15 12502.5 1397.51  63
   3   0  15 12008.7 1315.84  16
   3   0  15 11976.9 1159.66  17
  -3   0 -15 13147.3 1308.40   4
  -3   0 -15 10537.6 1069.44   5
  -3   0 -15 14638.5 1587.50   3
   3   0  15 10581.6 1031.69  34
   3   0  15 13564.0 1366.00  10
   3   0  15 10719.1 1262.66   9
  -3   0 -15 11626.7 1103.61  11
  -3   0 -15 13445.9 1348.95  19
   3   0  16 4043.93 752.522  63
   3   0  16 5311.80 822.227  16
   3   0  16 5280.00 723.302  17
  -3   0 -16 5536.61 815.270   4
  -3   0 -16 4048.30 815.401   3
   3   0  16 4706.25 622.179  34
   3   0  16 5423.56 795.915  10
   3   0  16 5122.82 839.620   9
   3   0  16 4474.24 652.845  26
  -3   0 -16 5618.89 826.741  19
   3   0  17 1431.10 384.137  63
   3   0  17 1304.52 330.913  17
  -3   0 -17 1557.05 414.827  19
   3   0  17 1561.65 426.985  16
   3   0  17 1183.61 301.867  26
   3   0  17 1246.21 263.047  34
   3   0  17 1398.59 348.361  10
   3   0  17 1942.75 479.436   9
  -3   0 -17 1654.98 453.773   3
  -3   0 -17 1577.10 416.755   4
   3   0  18 2993.42 531.494   9
   3   0  18 2340.88 443.847  16
  -3   0 -18 1714.95 430.977  41
   3   0  18 1896.03 296.243  26
  -3   0 -18 2530.52 465.947   4
  -3   0 -18 1885.64 419.430   3
  -3   0 -19 13691.3 902.115   4
   3   0  19 13048.5 921.699   9
   3   0  20 5902.30 469.353   9
  -3   1  20 9615.59 718.809  16
   3   1 -20 12634.6 964.490  41
  -3   1  20 8635.03 734.200  10
  -3   1  20 11776.9 795.544   9
   3   1 -19 23120.5 1607.03  41
   3   1 -19 19608.9 1233.08   4
  -3   1  19 22237.3 1360.65   9
   3   1 -19 25470.1 2061.98  37
   3   1 -18 14858.7 1424.18  41
   3   1 -18 12463.4 1138.65   4
  -3   1  18 15039.0 1246.78   9
   3   1 -18 16728.3 1956.23  37
   3   1 -17 12041.9 1395.13  41
   3   1 -17 11637.2 1806.72  37
   3   1 -17 8894.39 1057.19   4
  -3   1  17 12297.3 1219.15   9
  -3   1  16 546.315 208.780  17
   3   1 -16 928.970 435.902  20
   3   1 -16 700.464 331.603   4
   3   1 -16 265.210 308.980  41
   3   1 -16 952.335 602.747  37
  -3   1  15 1806.61 409.396  17
   3   1 -15 2981.65 1068.41  37
   3   1 -15 2682.33 728.635  41
   3   1 -15 2588.71 792.074  20
   3   1 -15 2332.04 491.104  19
   3   1 -15 1606.26 503.282   4
   3   1 -14 2378.91 505.925  19
   3   1 -14 3247.09 961.998  20
   3   1 -14 3242.91 819.344  41
  -3   1  14 2672.10 505.045  17
   3   1 -14 3172.98 1083.90  37
   3   1 -14 3648.02 1294.77  36
   3   1 -14 4579.36 1340.74  32
   3   1 -14 2443.29 617.802   4
   3   1 -13 28967.3 2179.86   4
  -3   1  13 36699.1 1966.32   6
   3   1 -13 31833.7 2369.45  60
   3   1 -13 40561.5 2807.74  41
   3   1 -13 31962.5 2040.14  47
  -3   1  13 37269.8 2012.54  17
   3   1 -13 40794.8 3767.99  37
   3   1 -13 49644.7 4579.90  36
   3   1 -13 58371.0 5012.61  32
   3   1 -13 52745.9 4597.39  27
   3   1 -13 40011.4 2926.65  23
   3   1 -13 29923.3 1951.96  19
   3   1 -13 43147.0 3550.95  20
   3   1 -12 71350.7 3544.14   4
  -3   1  12 79869.2 3181.83   6
   3   1 -12 97365.4 4166.64  60
   3   1 -12 70140.6 3190.37  47
   3   1 -12 83951.1 4159.49  41
  -3   1  12 81385.3 3230.30  17
   3   1 -12 118647. 7035.25  36
   3   1 -12 104755. 6034.13  37
   3   1 -12 74246.3 2989.71  29
   3   1 -12 105963. 6556.04  27
   3   1 -12 124621. 7638.00  32
   3   1 -12 65717.7 3097.33  19
   3   1 -12 99373.1 5521.39  20
   3   1 -12 98196.6 4757.31  23
   3   1 -11 37879.2 2525.24  60
   3   1 -11 45861.2 2323.11  47
   3   1 -11 50873.0 3010.60  41
   3   1 -11 46200.9 2628.33   4
  -3   1  11 46333.4 2096.04   2
  -3   1  11 55536.8 2466.77   6
   3   1 -11 78159.4 5463.52  36
   3   1 -11 61809.8 4439.67  37
   3   1 -11 66568.4 5038.05  27
   3   1 -11 42000.9 2130.48  29
   3   1 -11 77371.9 5912.30  32
   3   1 -11 58744.8 4094.69  20
   3   1 -11 60621.7 3580.30  23
   3   1 -10 15015.8 1467.39  60
   3   1 -10 18221.0 1316.33  47
   3   1 -10 22442.6 1858.77  41
   3   1 -10 19576.8 1582.68   4
  -3   1  10 23461.4 1397.94   2
  -3   1  10 24313.6 1523.27   6
   3   1 -10 28664.2 3187.47  36
   3   1 -10 26374.5 2759.62  37
   3   1 -10 24984.4 2917.97  27
   3   1 -10 36165.7 3874.02  32
   3   1 -10 19185.0 1315.63  29
   3   1 -10 26838.9 2655.89  20
   3   1 -10 26865.9 2285.08  23
   3   1  -9 16230.7 1423.02  60
   3   1  -9 13457.7 1363.33  41
   3   1  -9 10962.8 928.353  47
   3   1  -9 12354.0 1152.21   4
  -3   1   9 14123.1 1048.42   2
  -3   1   9 13264.2 1103.40   6
   3   1  -9 17227.5 2326.76  27
   3   1  -9 20362.2 2898.35  32
   3   1  -9 11639.1 965.692  29
   3   1  -9 13561.6 1541.69  23
   3   1  -9 15044.8 1877.60  20
   3   1  -8 12948.5 1278.26  41
   3   1  -8 10156.1 823.623  47
  -3   1   8 14656.2 1067.82   2
  -3   1   8 12788.7 1058.91   6
   3   1  -8 13117.2 1721.78  37
   3   1  -8 15119.4 2096.97  36
   3   1  -8 14172.9 1989.91  27
   3   1  -8 12181.6 785.451  31
   3   1  -8 14021.2 1746.84  20
   3   1  -7 39732.9 1870.95  56
   3   1  -7 34106.6 1481.94  47
   3   1  -7 42779.0 2072.21  54
   3   1  -7 28926.6 1822.30  55
   3   1  -7 26648.2 1874.48  59
  -3   1   7 37912.6 1870.96   6
  -3   1   7 38751.9 1779.74   2
   3   1  -7 39582.0 1553.58  31
   3   1  -7 51182.7 3495.11  21
   3   1  -6 55607.0 2302.13  56
   3   1  -6 40023.6 2143.49  55
   3   1  -6 44796.1 1642.87  47
   3   1  -6 56160.3 2468.31  54
   3   1  -6 44375.4 2374.41  59
  -3   1   6 55841.1 2183.31   2
  -3   1   6 51963.5 2226.11   6
   3   1  -6 52235.8 1872.42  31
   3   1  -6 70636.4 4131.68  21
   3   1  -5 97588.1 3395.74  56
   3   1  -5 88826.1 3492.56  55
   3   1  -5 107728. 3702.98  54
   3   1  -5 85261.4 3562.23  59
  -3   1   5 102032. 3276.18   2
   3   1  -5 100178. 2967.81  31
   3   1  -4 81227.5 3178.15  54
   3   1  -4 80961.4 3115.73  55
   3   1  -4 74365.7 3126.98  59
   3   1  -4 79539.4 2950.75  56
  -3   1   4 79068.9 2783.66   2
   3   1  -4 74163.8 2467.82  31
   3   1  -3 120051. 3999.64  55
   3   1  -3 125407. 4188.95  54
   3   1  -3 116569. 3871.47  56
  -3   1   3 124048. 3096.51   5
  -3   1   3 124175. 3736.71   2
   3   1  -3 115327. 3397.86  31
  -3   1   2 30289.1 1189.84   5
  -3   1   2 32043.9 1534.83   2
   3   1  -2 29545.4 1725.63  57
   3   1  -2 28965.1 1612.77  56
   3   1  -2 28898.5 1772.93  59
  -3   1   2 28959.3 1468.86  45
   3   1  -2 28861.3 1650.82  55
   3   1  -1 20428.5 1349.60  55
  -3   1   1 24765.4 1273.28  45
   3   1  -1 20312.8 1431.38  59
  -3   1   1 21551.0 1036.43   5
   3   1  -1 19044.8 1030.34  31
   3   1  -1 27321.8 2483.81  21
  -3   1   0 34607.6 1585.92  45
   3   1   0 35478.4 1960.41  54
   3   1   0 37982.9 1902.17  55
   3   1   0 35763.7 1923.15  57
   3   1   0 34165.1 1916.14  59
   3   1   0 35052.8 1801.44  56
  -3   1   0 39733.5 1550.72   5
   3   1   0 33555.9 1452.68  31
   3   1   0 42509.9 3128.51  21
  -3   1  -1 134884. 3787.76   5
   3   1   1 139307. 4414.15  57
   3   1   1 127864. 4132.37  56
   3   1   1 128562. 3632.03  31
  -3   1  -1 119576. 3749.60  45
   3   1   1 140533. 4530.60  54
   3   1   2 89337.2 2866.98  53
   3   1   2 99339.5 3486.74  55
   3   1   2 101783. 3680.90  54
   3   1   2 105173. 3462.81  56
   3   1   2 77433.1 3147.89  63
   3   1   2 94801.0 3621.96  59
  -3   1  -2 96943.5 3080.53   5
   3   1   2 98956.9 2896.54  31
   3   1   2 125585. 5633.78  21
   3   1   3 131084. 4285.47  55
   3   1   3 155790. 4719.07  54
   3   1   3 106161. 3603.83  53
   3   1   3 147902. 4313.27  56
   3   1   3 115104. 4322.23  59
  -3   1  -3 125852. 3895.21   5
   3   1   3 133192. 3632.11  31
   3   1   3 167471. 6706.51  21
   3   1   4 30482.7 1769.47  55
   3   1   4 32883.5 1719.48  56
   3   1   4 34074.2 1937.04  54
   3   1   4 24898.1 1381.96  53
   3   1   4 20703.5 1677.88  59
  -3   1  -4 30201.1 1587.04   5
   3   1   4 32327.5 1359.96  31
   3   1   4 43232.8 3193.15  21
   3   1   5 62490.1 2708.07  55
   3   1   5 73711.0 2888.18  54
   3   1   5 67341.7 2602.40  56
   3   1   5 50094.8 2209.20  53
   3   1   5 38587.6 2281.59  63
   3   1   5 45914.9 2527.59  59
  -3   1  -5 55133.4 2403.56   5
   3   1   5 64563.7 2090.07  31
   3   1   5 77821.5 4406.60  21
   3   1   6 8260.28 831.575  56
  -3   1  -6 6872.86 746.011  48
   3   1   6 7310.02 893.021  55
   3   1   6 9120.10 955.214  54
   3   1   6 5075.79 751.046  63
   3   1   6 5864.77 831.604  59
  -3   1  -6 7795.38 854.128   5
   3   1   6 8572.64 652.463  31
   3   1   6 8176.37 1393.65  21
   3   1   7 9399.30 1071.93  63
   3   1   7 13111.8 818.013  31
   3   1   7 11076.9 950.711   8
   3   1   7 11197.6 969.969   7
  -3   1  -7 11350.1 1011.55  48
   3   1   8 76465.7 3126.20  53
  -3   1  -8 74918.5 3049.50  48
   3   1   8 79886.8 2964.99   8
   3   1   8 79256.7 3010.37   7
   3   1   8 70811.9 3085.73   9
  -3   1  -8 75275.9 3041.71  19
  -3   1  -9 37026.9 1906.54   4
  -3   1  -9 33134.0 2027.22   5
   3   1   9 31453.6 1937.15  53
  -3   1  -9 29520.1 1867.46  48
   3   1   9 23624.4 1878.16  63
   3   1   9 29652.2 1827.40  17
   3   1   9 33571.0 1847.25   7
   3   1   9 26503.6 1842.42   9
   3   1   9 32547.7 1815.58   8
  -3   1  -9 29337.6 1831.21  19
   3   1   9 25923.0 1431.09  25
  -3   1 -10 43619.7 2195.11   4
  -3   1 -10 35779.4 2229.62   5
   3   1  10 36137.7 2167.57  53
  -3   1 -10 37740.6 2211.49  48
   3   1  10 30037.4 2258.06  63
   3   1  10 33882.3 2062.52  17
   3   1  10 38359.8 2049.97   7
   3   1  10 32070.2 2119.57   9
   3   1  10 38625.8 2061.91   8
  -3   1 -10 35376.0 2134.83  19
  -3   1 -11 58247.3 2746.30   4
  -3   1 -11 53639.6 2880.23   5
  -3   1 -11 53400.2 2802.56  48
   3   1  11 52099.2 2696.13  17
   3   1  11 44275.0 2837.83  63
   3   1  11 54542.2 2576.74   7
   3   1  11 49972.5 2780.05   9
   3   1  11 55546.7 2604.72   8
  -3   1 -11 52484.3 2780.45  19
  -3   1 -12 10686.1 1139.61   4
  -3   1 -12 10179.3 1197.41   5
  -3   1 -12 13204.4 1523.33   3
   3   1  12 9060.79 1075.20  17
   3   1  12 12688.8 1442.26  63
   3   1  12 10519.0 1060.79   7
   3   1  12 9334.88 1028.68  10
   3   1  12 10299.0 1224.79   9
   3   1  12 9842.05 1041.08   8
  -3   1 -12 9712.48 1147.40  19
  -3   1 -13 31281.9 2023.49   4
  -3   1 -13 27986.7 2016.67   5
   3   1  13 29876.3 2057.71  16
   3   1  13 30497.1 2020.47  17
   3   1  13 26442.7 2178.73  63
  -3   1 -13 25356.8 2165.21  61
   3   1  13 30511.0 1818.96   7
   3   1  13 26739.4 1834.15  10
   3   1  13 27854.2 2105.89   9
  -3   1 -13 26906.2 2010.01  19
  -3   1 -14 24733.8 1796.21   4
  -3   1 -14 24247.2 1820.54   5
   3   1  14 21673.6 1727.86  16
   3   1  14 20937.9 1671.87  17
   3   1  14 20747.4 1870.36  63
  -3   1 -14 22248.4 1798.90  19
   3   1  14 22245.2 1872.60   9
   3   1  14 24761.2 1565.65   7
  -3   1 -15 22508.1 1684.47   4
  -3   1 -15 22916.1 1674.71   5
   3   1  15 20359.7 1745.61   9
   3   1  15 20002.8 1620.90  16
   3   1  15 21962.7 1651.14  17
   3   1  16 19793.0 1498.67  26
   3   1  16 19091.9 1469.66  16
   3   1  16 21818.1 1543.01  17
   3   1  16 22074.0 1689.85   9
  -3   1 -16 22200.7 1592.20   4
  -3   1 -16 21950.8 1780.99   3
  -3   1 -17 11325.7 1034.01   4
  -3   1 -17 11304.8 1158.79   3
   3   1  17 11079.7 998.163  26
  -3   1 -17 12179.0 1074.19  41
   3   1  17 11466.2 1014.27  17
   3   1  17 11866.3 946.507  34
   3   1  17 10190.3 829.579  33
   3   1  17 11518.0 1114.64   9
   3   1  18 13870.4 1092.47   9
  -3   1 -18 11351.6 889.407  41
   3   1  18 12409.9 818.328  34
   3   1  18 12325.8 762.428  33
   3   1  18 14123.2 989.554  26
  -3   1 -18 14523.6 1035.60   4
  -3   1 -18 12027.6 1050.51   3
   3   1  18 14516.6 991.587  17
   3   1  19 13587.8 886.655   9
  -3   1 -19 11781.6 758.544   4
   3   1  19 11698.1 704.875  26
  -3   2  20 7348.03 536.657   9
  -3   2  19 595.199 202.464   9
   3   2 -19 524.150 194.660   4
   3   2 -19 416.868 219.145  41
  -3   2  18 484.466 172.604  17
   3   2 -18 586.989 280.632  41
  -3   2  18 756.291 263.194   9
   3   2 -18 582.517 248.518   4
   3   2 -17 11245.6 1258.03  41
  -3   2  17 12287.0 963.534  17
   3   2 -17 14850.2 1932.51  37
  -3   2  17 13135.3 1205.44   9
   3   2 -17 11077.7 1185.39   4
  -3   2  16 21611.9 1446.47  17
   3   2 -16 20537.7 1838.33  41
   3   2 -16 20450.9 1736.09   4
   3   2 -15 57167.9 3690.86  20
   3   2 -15 57524.7 3313.71  41
  -3   2  15 56273.2 2610.45  17
   3   2 -15 48809.8 2285.57  29
   3   2 -15 48699.0 2936.45   4
  -3   2  15 50533.5 2445.20   6
  -3   2  15 57502.3 2805.43   1
   3   2 -14 32370.4 2910.56  20
   3   2 -14 29174.9 2379.52  41
  -3   2  14 31250.5 1942.48  17
   3   2 -14 34587.8 3498.85  37
   3   2 -14 34389.2 4002.46  32
   3   2 -14 27675.6 1736.41  29
   3   2 -14 25395.7 2110.42   4
  -3   2  14 28938.8 1966.78   1
  -3   2  14 26656.6 1777.99   6
   3   2 -13 8630.92 1210.94   4
  -3   2  13 10151.1 1139.37   1
  -3   2  13 8021.46 983.783   6
   3   2 -13 10156.7 1058.05   3
   3   2 -13 11355.8 1758.40  20
   3   2 -13 8608.14 1278.80  41
   3   2 -13 12584.8 2103.00  37
  -3   2  13 9550.52 962.182   7
   3   2 -13 8947.05 1001.43  29
  -3   2  13 10172.6 1084.72  17
  -3   2  12 986.611 306.327   2
   3   2 -12 572.729 251.572   3
   3   2 -12 543.075 346.793   4
  -3   2  12 221.073 194.360   1
  -3   2  12 779.842 323.480   6
   3   2 -12 1139.18 554.634  20
  -3   2  12 408.047 253.472  17
   3   2 -12 741.412 587.947  37
   3   2 -12 926.026 438.259  41
   3   2 -12 648.090 293.516  29
   3   2 -12 1226.71 761.266  32
  -3   2  12 554.784 229.804   7
   3   2 -11 13004.1 1882.64  20
   3   2 -11 9585.42 1308.44  41
   3   2 -11 8520.38 1177.90   4
  -3   2  11 10938.0 1079.64   2
  -3   2  11 10950.5 1142.69   6
  -3   2  11 10293.3 1095.62   1
   3   2 -11 10500.0 1126.32   3
   3   2 -11 13112.5 2092.06  37
   3   2 -11 13494.5 2443.36  27
   3   2 -11 10727.6 1116.67  29
  -3   2  11 9968.83 1052.73   7
   3   2 -10 24655.5 2156.83  23
   3   2 -10 22330.9 2490.00  20
   3   2 -10 22014.6 1919.34  41
   3   2 -10 17908.0 1668.48   4
  -3   2  10 22198.7 1562.63   2
  -3   2  10 23958.6 1676.53   6
   3   2 -10 18033.3 1504.35   3
  -3   2  10 23336.9 1619.48   1
   3   2 -10 20067.7 1563.70  29
   3   2 -10 27047.1 3390.77  27
   3   2 -10 30953.3 3929.74  32
  -3   2  10 22234.5 1418.17   8
  -3   2  10 23106.5 1627.53   7
   3   2  -9 46988.1 3650.44  20
   3   2  -9 45270.8 3031.75  23
   3   2  -9 49719.0 2861.54  41
  -3   2   9 47257.4 2339.25   1
   3   2  -9 42362.6 2553.06   4
  -3   2   9 48051.1 2360.52   2
  -3   2   9 49087.0 2479.27   6
   3   2  -9 43473.9 2357.08   3
   3   2  -9 67893.3 4942.38  36
   3   2  -9 46373.5 1849.78  31
   3   2  -9 68461.3 5607.67  32
   3   2  -9 41226.3 2288.39  29
   3   2  -9 51560.2 4541.96  27
  -3   2   9 44171.1 2106.51   8
   3   2  -8 27004.5 2288.95  23
   3   2  -8 35270.1 3467.02  24
   3   2  -8 30338.2 2823.01  20
   3   2  -8 31874.9 2177.79  41
   3   2  -8 27102.1 1780.57  55
   3   2  -8 30927.1 2050.46   4
  -3   2   8 32329.8 1799.16   1
  -3   2   8 29979.9 1799.98   2
  -3   2   8 34890.7 2004.70   6
   3   2  -8 29184.4 1850.91   3
   3   2  -8 30431.8 2938.15  37
   3   2  -8 40437.6 3653.17  36
   3   2  -8 24105.8 1662.72  29
   3   2  -8 32459.4 1516.86  31
   3   2  -8 38426.1 3743.66  27
   3   2  -8 48628.3 4593.20  32
  -3   2   8 31514.7 1701.78   8
   3   2  -7 89306.4 3810.92  59
   3   2  -7 97327.5 3957.91  41
   3   2  -7 79531.5 3427.19  55
   3   2  -7 82766.5 3594.77   4
  -3   2   7 103850. 3603.28   2
  -3   2   7 93608.1 3317.28   1
  -3   2   7 99422.9 3638.60   6
   3   2  -7 95353.5 5140.70  37
   3   2  -7 117523. 6132.70  36
   3   2  -7 94176.8 3051.33  31
   3   2  -7 124878. 7467.92  32
   3   2  -7 79956.3 4035.21  28
   3   2  -7 93514.1 3295.73  26
   3   2  -7 78655.7 3297.90  29
   3   2  -7 91247.0 5007.99  20
   3   2  -7 84003.8 4252.59  23
   3   2  -7 115258. 6174.45  24
   3   2  -6 19175.0 1665.30  59
   3   2  -6 26550.5 1815.53  41
   3   2  -6 27231.7 1726.56  55
   3   2  -6 22368.5 1630.87   4
  -3   2   6 27867.6 1650.11   2
  -3   2   6 26154.2 1474.75   1
  -3   2   6 28726.7 1712.39   6
   3   2  -6 29104.0 2530.64  37
   3   2  -6 25364.7 1368.28  31
   3   2  -6 33284.9 3636.79  32
   3   2  -6 21827.6 1828.07  28
   3   2  -6 21095.9 1442.37  29
   3   2  -6 30050.8 2970.50  24
   3   2  -6 22240.1 2293.36  20
  -3   2   5 13869.9 1133.72   2
  -3   2   5 14462.2 1162.70   6
   3   2  -5 12786.7 1276.73  59
   3   2  -5 11782.3 1076.76  62
   3   2  -5 14723.2 1005.81  31
   3   2  -5 14251.0 1205.66  55
  -3   2   4 11849.1 1050.81   2
   3   2  -4 11239.1 1020.83  62
   3   2  -4 11231.7 1170.09  59
   3   2  -4 10270.5 836.662  31
   3   2  -4 10449.7 1059.31  55
  -3   2   3 25691.7 1510.91   2
  -3   2   3 23294.9 1100.79   5
   3   2  -3 21934.5 1670.81  59
   3   2  -3 21114.4 1434.27  62
   3   2  -3 21350.7 1258.03  31
   3   2  -3 25026.7 1616.02  55
  -3   2   2 197494. 5181.29   5
   3   2  -2 204008. 6338.09  59
   3   2  -2 186959. 5749.75  62
   3   2  -2 192940. 5943.43  55
  -3   2   1 134791. 3708.29   5
   3   2  -1 127327. 4458.71  59
   3   2  -1 111299. 3959.40  62
   3   2  -1 104950. 3565.95  31
   3   2  -1 123617. 4179.77  55
  -3   2   0 36750.4 1799.41   2
  -3   2   0 33335.7 1581.34   5
   3   2   0 32039.6 2002.36  59
   3   2   0 27579.0 1662.83  62
   3   2   0 27911.3 1752.29  55
   3   2   0 28384.2 1480.53  31
  -3   2  -1 24344.2 1383.39   5
  -3   2  -1 25697.7 1477.79   2
   3   2   1 21386.9 1263.00  31
  -3   2  -1 24044.1 1219.12  45
  -3   2  -2 38209.5 1841.51   5
   3   2   2 34318.4 2117.80  59
   3   2   2 32249.4 1845.78  62
   3   2   2 33915.2 1638.35  31
  -3   2  -2 34421.8 1505.47  45
   3   2   2 33675.2 1936.15  55
  -3   2  -3 2593.90 480.524   5
  -3   2  -3 3210.05 511.888   2
   3   2   3 3210.47 625.613  59
   3   2   3 2697.73 495.787  62
   3   2   3 2862.67 442.504  31
  -3   2  -3 2547.44 364.119  45
   3   2   3 2906.85 555.925  55
  -3   2  -4 51191.0 2406.80   5
  -3   2  -4 52851.9 2287.93   2
   3   2   4 48192.7 2668.15  59
   3   2   4 50488.1 2406.56  62
   3   2   4 57584.2 2154.05  31
  -3   2  -4 53867.5 1957.05  45
   3   2   4 57565.7 2626.20  55
   3   2   5 48648.4 2196.99   8
   3   2   5 48505.0 2408.43   6
  -3   2  -5 52655.3 2517.62   5
  -3   2  -5 53519.7 2328.76   2
   3   2   5 47856.2 2754.29  59
  -3   2  -5 50857.0 1952.07  45
   3   2   5 60710.4 2746.88  55
   3   2   5 61425.2 2220.93  31
   3   2   5 50238.0 2195.89  25
   3   2   5 57553.4 2496.18  26
   3   2   6 45842.8 2244.46   7
  -3   2  -6 47685.7 2433.72   5
  -3   2  -6 42546.0 2072.44   2
   3   2   6 46550.4 2655.34  59
   3   2   6 44756.2 2440.05  55
   3   2   6 42884.9 2122.50  17
   3   2   6 47499.0 2051.13  39
   3   2   6 48622.2 1954.34  31
   3   2   6 43043.3 2050.47  25
   3   2   7 92276.9 3463.09   7
  -3   2  -7 86473.3 3630.10   5
  -3   2  -7 110339. 4038.15   3
  -3   2  -7 72975.9 3017.44   2
   3   2   7 60947.8 3373.06  59
   3   2   7 99897.3 3714.69  55
   3   2   7 79220.5 3233.43  17
   3   2   7 81501.8 2975.28  39
   3   2   7 102084. 2974.53  31
   3   2   7 80148.1 3090.96  25
   3   2   8 32516.5 2104.09   6
  -3   2  -8 39097.9 2340.17   3
  -3   2  -8 23486.4 1477.82   2
   3   2   8 19230.1 1611.70  59
  -3   2  -8 31508.2 2015.93  48
   3   2   8 25353.0 1731.91  55
   3   2   8 26173.1 1731.41  17
   3   2   8 30112.8 1574.22  39
   3   2   8 32142.4 1861.43   8
   3   2   8 30454.7 1877.94   7
   3   2   8 28666.4 1764.02   9
   3   2   8 28131.0 1639.82  25
  -3   2  -9 10947.5 1205.70  48
   3   2   9 9058.15 916.359  25
   3   2   9 10378.8 1094.51  17
   3   2   9 12186.5 1155.08   8
   3   2   9 11664.5 1153.25   7
   3   2   9 9267.80 1017.29   9
   3   2   9 10234.7 1171.47   6
  -3   2  -9 13849.0 1434.76   3
  -3   2 -10 2237.70 572.246  48
   3   2  10 2603.46 499.728  25
   3   2  10 2608.96 565.332  17
   3   2  10 3409.65 612.212   8
   3   2  10 3096.59 614.235   7
   3   2  10 2743.18 559.072   9
  -3   2 -10 3299.45 696.679   5
  -3   2 -10 3590.08 781.327   3
   3   2  11 14207.4 1175.52  25
   3   2  11 14911.1 1344.48   8
   3   2  11 15498.9 1374.57   7
   3   2  11 12843.1 1306.60   9
  -3   2 -11 15545.1 1295.32   4
  -3   2 -11 15578.9 1536.49   5
  -3   2 -11 16095.1 1677.60   3
  -3   2 -11 14322.7 1464.92  48
  -3   2 -12 23369.8 1653.37   4
  -3   2 -12 26735.0 2035.39   5
  -3   2 -12 28797.7 2256.89   3
  -3   2 -12 22544.1 1866.71  60
  -3   2 -12 18630.5 1959.93  61
   3   2  12 24477.0 1767.96   7
   3   2  12 22686.3 1785.10   9
   3   2  12 25025.3 1764.81   8
   3   2  12 22173.4 1459.11  25
  -3   2 -12 23222.0 1910.86  48
  -3   2 -13 57192.0 3098.17  60
  -3   2 -13 47918.1 3183.61  61
  -3   2 -13 49451.9 2549.57   4
  -3   2 -13 51105.1 2882.74   5
  -3   2 -13 58283.4 3303.59   3
   3   2  13 53350.6 2655.05   7
   3   2  13 50772.9 2765.14   9
   3   2  13 52877.5 2657.26   8
   3   2  13 44562.9 2131.50  25
  -3   2 -14 16643.6 1689.61  18
   3   2  14 17788.5 1521.56  17
  -3   2 -14 15499.2 1322.11   4
  -3   2 -14 15096.6 1450.10   5
  -3   2 -14 20762.0 1848.67   3
   3   2  14 17301.6 1356.60   7
   3   2  14 16099.9 1449.38   9
   3   2  14 17558.9 1406.02   8
   3   2  14 18640.6 1582.58  26
  -3   2 -15 27525.3 2025.54  18
   3   2  15 29490.6 1907.84  17
  -3   2 -15 27130.7 1716.28   4
  -3   2 -15 28863.2 2114.94   3
   3   2  15 30468.4 1951.90   9
   3   2  15 30289.7 1703.38   7
   3   2  15 28067.4 1920.45  26
  -3   2 -16 4364.79 721.504  18
   3   2  16 6947.43 831.100  17
  -3   2 -16 6373.34 733.814   4
   3   2  16 5219.99 718.125   9
   3   2  16 6517.29 649.276   7
   3   2  16 6904.44 845.461  26
   3   2  17 1279.56 325.368  17
  -3   2 -17 618.013 228.052  18
   3   2  17 1109.74 306.641  26
   3   2  17 994.368 286.653   9
  -3   2 -17 919.496 238.261   4
   3   2  18 5429.51 531.462   9
   3   2  18 6340.22 613.968  17
   3   2  18 6382.94 625.209  26
  -3   2 -18 6478.12 691.314   3
   3   2  18 6250.70 555.850  34
   3   2  18 5260.78 499.143  33
   3   2  19 3124.48 332.319  26
  -3   2 -19 2574.79 334.951   3
  -3   3  18 24480.4 1221.02   9
   3   3 -18 22304.2 1285.81   4
  -3   3  18 23890.5 1058.27  17
   3   3 -17 6599.27 767.240  41
  -3   3  17 6997.14 670.991  17
  -3   3  17 7816.64 783.552   9
   3   3 -17 6668.38 813.879   4
  -3   3  16 1593.15 411.135   9
  -3   3  16 1785.17 384.751  17
   3   3 -16 1748.33 461.994  41
   3   3 -16 1459.10 318.282  29
   3   3 -16 1304.11 403.393   4
   3   3 -15 5082.65 847.919  41
  -3   3  15 5194.60 612.425   7
  -3   3  15 6623.90 799.731  17
   3   3 -15 5308.56 689.333  29
   3   3 -15 4871.02 838.326   4
  -3   3  15 3967.11 639.902   6
   3   3 -14 5091.56 910.220   4
  -3   3  14 5116.01 762.406   6
   3   3 -14 5304.78 775.650   3
   3   3 -14 5644.87 1050.25  20
   3   3 -14 5074.94 900.487  41
  -3   3  14 5525.86 781.862  17
   3   3 -14 5492.31 780.942  29
  -3   3  14 5831.13 739.003   7
  -3   3  13 29059.3 1826.14   1
  -3   3  13 23706.5 1775.37   6
   3   3 -13 28518.9 1968.38   3
   3   3 -13 29903.2 2780.43  20
   3   3 -13 26189.8 2114.78  41
  -3   3  13 29416.7 1918.41  17
   3   3 -13 34588.1 3492.60  37
   3   3 -13 28632.6 1936.92  29
  -3   3  13 26015.1 1551.99   8
  -3   3  13 25765.8 1727.41   7
  -3   3  12 46524.3 2454.85   1
  -3   3  12 51448.4 2647.92   2
  -3   3  12 47655.6 2652.63   6
   3   3 -12 48209.5 2770.14   3
   3   3 -12 57776.4 4064.02  20
   3   3 -12 42482.9 2847.12  41
  -3   3  12 49923.5 2643.96  17
   3   3 -12 64675.7 4867.87  37
   3   3 -12 48928.6 2679.05  29
  -3   3  12 44044.4 2244.70   8
  -3   3  12 51844.5 2650.96   7
   3   3 -11 5672.92 1277.04  20
   3   3 -11 3541.74 791.301  41
  -3   3  11 4350.96 751.621   2
  -3   3  11 5721.41 792.983   1
  -3   3  11 4170.23 757.613   6
   3   3 -11 3997.16 778.352   3
   3   3 -11 5540.02 1429.95  37
   3   3 -11 4554.08 777.960  29
   3   3 -11 7647.70 2153.02  32
  -3   3  11 4543.30 673.259   8
  -3   3  11 5907.47 882.014   7
   3   3 -10 24218.6 2694.39  20
  -3   3  10 18952.3 1598.87   2
  -3   3  10 20537.2 1504.51   1
  -3   3  10 17926.9 1597.13   6
   3   3 -10 18535.9 1692.29   3
   3   3 -10 18559.9 1793.34  41
   3   3 -10 16788.2 1552.74  29
  -3   3  10 19645.6 1688.12   7
  -3   3  10 20475.7 1509.19   8
   3   3  -9 19465.6 2454.89  20
   3   3  -9 18502.2 1747.95  41
  -3   3   9 18755.2 1589.22   2
  -3   3   9 20309.7 1660.69   6
   3   3  -9 17701.2 1659.09   3
  -3   3   9 21238.8 1506.62   1
   3   3  -9 20036.4 1260.57  31
   3   3  -9 18542.8 1619.56  29
  -3   3   9 20052.3 1499.35   8
  -3   3   9 19178.6 1613.33   7
  -3   3   8 10789.6 1173.81   7
  -3   3   8 10422.4 1071.13   8
  -3   3   8 9205.32 1069.76  59
   3   3  -8 7006.60 1061.77  59
  -3   3   8 10525.3 1013.40  62
   3   3  -8 8913.43 1098.23  55
   3   3  -8 8928.38 1182.12  41
  -3   3   8 8837.66 1070.10   2
  -3   3   8 10381.8 1173.32   6
   3   3  -8 8686.79 1135.60   3
  -3   3   8 9676.27 961.393   1
   3   3  -8 11656.9 1938.82  37
   3   3  -8 9227.63 917.587  38
   3   3  -8 9808.59 904.414  31
   3   3  -8 9039.92 864.570  30
   3   3  -8 14436.4 2845.29  32
   3   3  -8 10649.7 1787.81  20
  -3   3   7 27567.9 1770.85   8
  -3   3   7 26090.5 1570.87   1
  -3   3   7 27972.2 1904.62   2
   3   3  -7 25615.0 1935.78   3
  -3   3   7 25925.4 1839.56   6
   3   3  -7 26995.4 2149.86  59
   3   3  -7 24581.1 1750.47  62
   3   3  -7 25648.4 1894.98  55
   3   3  -7 25889.9 1990.82  41
   3   3  -7 24032.6 1580.70  38
   3   3  -7 29356.1 2984.78  37
   3   3  -7 21211.8 1677.25  29
   3   3  -7 23277.7 1498.18  30
   3   3  -7 26084.7 1569.43  31
   3   3  -7 30517.9 3560.76  27
   3   3  -7 23987.0 2646.66  20
   3   3  -7 25223.8 2249.18  23
  -3   3   6 11777.3 993.817   1
  -3   3   6 12738.7 1254.29   2
   3   3  -6 14462.2 1398.41   3
   3   3  -6 13074.4 1449.35  59
   3   3  -6 10692.0 1172.78  62
   3   3  -6 13599.0 1344.13  55
   3   3  -6 13648.9 1378.14  41
   3   3  -6 9774.42 976.427  18
   3   3  -6 14901.2 2050.00  37
   3   3  -6 13818.3 1005.55  39
   3   3  -6 14561.3 1208.79  38
   3   3  -6 20007.5 3195.26  32
   3   3  -6 13355.7 1106.85  31
   3   3  -6 18434.5 2648.43  27
   3   3  -6 13041.2 997.826  26
   3   3  -6 12005.0 1056.66  30
   3   3  -6 10672.4 1135.52  29
   3   3  -6 13537.0 1942.32  20
   3   3  -6 11574.7 1512.31  23
  -3   3   5 86434.7 3462.27   2
   3   3  -5 85031.1 3647.41   3
  -3   3   5 77151.8 2864.70   1
   3   3  -5 81037.5 3876.65  59
   3   3  -5 77233.6 3452.55  62
   3   3  -5 89702.8 3764.05  55
   3   3  -5 81746.5 3612.17  41
   3   3  -5 75884.6 3106.69  18
   3   3  -5 80766.7 3235.47  38
   3   3  -5 74081.2 2812.32  39
   3   3  -5 79038.3 3310.00  29
   3   3  -5 75711.7 3064.57  30
   3   3  -5 77949.8 3093.91  31
   3   3  -5 77242.7 2853.97  26
   3   3  -5 94731.3 5914.33  27
   3   3  -5 74742.7 4205.56  23
   3   3  -5 77032.0 2706.13  25
   3   3  -5 75942.6 4748.17  20
   3   3  -4 92169.8 3759.64   3
  -3   3   4 90585.4 2992.83   1
  -3   3   4 97874.9 3600.60   6
   3   3  -4 87181.5 4026.50  59
   3   3  -4 83454.8 3564.23  62
   3   3  -4 83159.0 3669.32  55
   3   3  -4 85064.2 3645.18  41
   3   3  -4 83125.3 3256.61  18
   3   3  -4 69195.2 3122.57  38
   3   3  -4 81527.3 2990.43  39
   3   3  -4 70620.6 3049.56  30
   3   3  -4 85995.1 3244.20  31
   3   3  -4 93525.4 5704.33  27
   3   3  -4 106829. 7197.82  32
   3   3  -4 65405.4 3722.20  28
   3   3  -4 86029.0 3369.69  29
   3   3  -4 83733.8 2959.11  26
   3   3  -4 80161.9 4345.56  23
   3   3  -4 88776.9 5047.36  20
   3   3  -4 87360.8 6020.98  24
   3   3  -4 81746.1 2853.21  25
   3   3  -3 24740.6 1786.15   3
  -3   3   3 25470.1 1659.16   6
  -3   3   3 22321.1 1287.44   5
   3   3  -3 25401.0 2011.97  59
   3   3  -3 21154.8 1654.33  62
   3   3  -3 22562.0 1754.60  55
   3   3  -3 22729.4 1682.33  41
   3   3  -3 24794.2 1572.09  18
   3   3  -3 21873.8 1534.33  38
   3   3  -3 23281.8 1396.85  39
   3   3  -3 20245.5 1447.90  29
   3   3  -3 27626.7 2819.65  27
   3   3  -3 30367.3 3680.98  32
   3   3  -3 18814.4 1386.31  30
   3   3  -3 21421.2 1467.19  31
   3   3  -3 19160.2 1738.71  28
   3   3  -3 24950.8 2520.86  20
   3   3  -3 24613.8 2233.79  23
   3   3  -3 28165.9 3285.64  22
   3   3  -3 21412.6 1268.89  25
  -3   3   2 10332.5 1033.88   2
  -3   3   2 10362.0 1015.24   6
  -3   3   2 9268.65 855.297   5
   3   3  -2 10553.7 1264.87  59
   3   3  -2 7652.87 980.510  62
   3   3  -2 10745.7 1147.85  41
   3   3  -2 9408.17 1120.12  55
   3   3  -2 10151.7 985.167  18
   3   3  -2 8453.26 935.485  38
   3   3  -2 8747.33 840.157  39
   3   3  -2 8647.49 1106.44  28
   3   3  -2 10285.9 969.590  29
   3   3  -2 12325.7 2204.81  32
   3   3  -2 7707.85 855.095  30
   3   3  -2 9244.12 1965.91  22
   3   3  -2 8698.29 1696.75  24
   3   3  -2 10162.5 1423.06  23
   3   3  -2 8851.05 784.598  25
  -3   3   1 2163.40 464.548   2
  -3   3   1 1997.01 457.984   6
  -3   3   1 2310.90 445.711   5
   3   3  -1 1927.41 547.783  59
   3   3  -1 2004.56 505.323  62
   3   3  -1 2013.94 478.354  41
   3   3  -1 1659.82 482.272  55
   3   3  -1 2010.78 436.316  18
   3   3  -1 1609.70 365.935  39
   3   3  -1 2056.18 517.148  28
   3   3  -1 1955.77 429.434  31
   3   3  -1 2201.96 418.730  29
   3   3  -1 3152.56 1085.86  32
   3   3  -1 1766.40 659.916  20
   3   3  -1 1939.69 622.872  23
   3   3  -1 1944.22 374.162  25
   3   3  -1 1740.38 741.943  24
   3   3  -1 1943.83 853.860  22
  -3   3   0 385.942 221.181   2
  -3   3   0 280.680 177.767   5
   3   3   0 249.147 242.045   3
   3   3   0 413.050 301.470  59
   3   3   0 328.054 239.477  62
   3   3   0 276.572 196.270  55
   3   3   0 701.795 282.665  41
   3   3   0 305.923 173.446  39
   3   3   0 275.720 178.479  38
   3   3   0 560.989 256.663  18
   3   3   0 223.558 183.657  30
   3   3   0 484.137 190.140  29
   3   3   0 1153.90 640.448  32
   3   3   0 250.465 162.160  31
   3   3   0 463.210 307.357  23
   3   3   0 435.625 312.211  20
   3   3   0 494.245 387.993  24
   3   3   0 438.940 181.476  25
   3   3   1 46125.9 3306.16  23
   3   3   1 52867.6 3612.79  20
   3   3   1 42657.9 2020.06  25
   3   3   1 44489.2 4312.27  22
   3   3   1 43386.9 3679.38  24
   3   3   1 46542.4 2506.78  18
  -3   3  -1 47726.7 2383.72  18
   3   3   1 41683.6 2207.66  38
   3   3   1 41199.1 2116.26  31
   3   3   1 38322.4 2045.26  30
   3   3   1 40637.5 1970.71  26
   3   3   1 42901.9 1980.55  29
  -3   3  -1 43488.5 2201.25   2
  -3   3  -1 44016.5 2252.01   5
   3   3   2 19781.6 1301.78   8
   3   3   2 24225.8 1507.79   7
  -3   3  -2 25610.3 1619.47   2
  -3   3  -2 26294.5 1733.86   5
   3   3   2 27399.8 2107.52  59
   3   3   2 23756.0 1772.23  62
   3   3   2 24690.9 1837.36  55
  -3   3  -2 26692.1 1787.55  18
   3   3   2 23772.6 1606.98  38
   3   3   2 24066.5 1532.04  39
   3   3   2 25128.3 1576.36  31
   3   3   2 26103.2 1414.44  29
   3   3   2 24299.9 1490.71  26
   3   3   2 22036.6 1502.21  30
   3   3   2 25049.4 1512.77  25
   3   3   2 28114.3 2589.74  20
   3   3   2 27163.7 3239.39  22
   3   3   2 26250.3 2831.01  24
   3   3   3 79797.5 3061.75   8
   3   3   3 86481.7 3279.92   7
  -3   3  -3 86498.5 3273.22   2
  -3   3  -3 89880.3 3610.56   5
   3   3   3 80122.1 3922.90  59
   3   3   3 86700.4 3666.33  62
   3   3   3 85341.3 3726.45  55
  -3   3  -3 89116.9 3735.12  18
   3   3   3 80458.7 3182.69  39
   3   3   3 81014.1 3310.59  38
   3   3   3 84194.0 3226.39  30
   3   3   3 80602.6 3165.92  26
   3   3   3 86306.9 3261.81  31
   3   3   4 25594.1 1733.30   6
  -3   3  -4 27530.7 1681.55   2
  -3   3  -4 32682.4 2076.88   5
  -3   3  -4 33143.6 1915.35   3
   3   3   4 36770.8 2466.36  59
   3   3   4 33228.3 2094.83  62
   3   3   4 33094.7 2167.45  55
  -3   3  -4 36416.8 2262.47  18
   3   3   4 32143.7 1674.93  17
   3   3   4 34560.6 1933.13  38
   3   3   4 31142.2 1805.86  39
   3   3   4 30294.0 1742.30  30
   3   3   4 35679.0 1872.24  31
   3   3   4 30592.9 1813.73  26
   3   3   4 31673.2 1785.25   8
   3   3   4 34705.7 1943.00   7
   3   3   5 26015.2 1660.58   8
   3   3   5 26400.4 1760.25   7
   3   3   5 19271.8 1571.20   6
  -3   3  -5 23140.7 1495.85   2
  -3   3  -5 25830.1 1901.51   5
  -3   3  -5 30142.5 1890.56   3
   3   3   5 29668.3 2194.02  59
   3   3   5 27686.6 1906.53  62
   3   3   5 31408.3 2105.08  55
  -3   3  -5 31054.3 2155.94  18
   3   3   5 26110.5 1569.01  17
   3   3   5 26184.6 1671.74  38
   3   3   5 26162.9 1652.69  39
   3   3   5 26891.1 1602.87  30
   3   3   5 30469.9 1829.81  26
   3   3   5 30551.0 1694.67  31
   3   3   5 27070.0 1693.14  25
   3   3   6 3804.57 632.725   8
   3   3   6 3566.77 643.965   7
   3   3   6 3360.32 670.372   6
  -3   3  -6 3870.25 568.628   2
  -3   3  -6 4870.93 831.705   5
  -3   3  -6 5895.03 833.397   3
   3   3   6 3849.37 815.158  59
   3   3   6 4772.84 764.365  62
   3   3   6 4683.59 803.804  55
  -3   3  -6 4214.29 813.876  18
   3   3   6 4306.59 636.132  17
   3   3   6 5543.24 702.679  38
   3   3   6 4804.32 686.756  39
   3   3   6 4122.29 685.255  26
   3   3   6 5052.81 639.531  31
   3   3   6 4752.10 631.226  30
   3   3   6 4688.15 688.870  25
   3   3   7 8513.47 961.406   8
   3   3   7 5149.34 905.429   6
  -3   3  -7 6393.68 997.641   5
  -3   3  -7 7854.83 1034.16   3
  -3   3  -7 8245.69 885.064  60
   3   3   7 5762.48 993.205  59
   3   3   7 7325.59 1017.55  55
  -3   3  -7 7063.65 1089.04  18
   3   3   7 6555.48 826.732  17
   3   3   7 7533.91 819.446  38
   3   3   7 7291.54 847.409  39
   3   3   7 7276.74 939.544  26
   3   3   7 8777.00 825.743  31
   3   3   7 6939.38 862.773  25
   3   3   8 16383.4 1635.19   6
  -3   3  -8 21498.8 1843.92   5
  -3   3  -8 20950.2 1779.43   3
  -3   3  -8 21688.4 1536.39  60
   3   3   8 12798.7 1451.22  59
   3   3   8 16773.9 1544.77  55
  -3   3  -8 22072.6 1956.12  18
   3   3   8 18903.4 1499.42  17
   3   3   8 20772.6 1458.99  39
   3   3   8 22142.4 1704.26   7
   3   3   8 19468.7 1493.65  25
   3   3   8 19729.8 1602.35  26
  -3   3  -9 44818.9 2748.49   3
  -3   3  -9 42218.5 2313.72  60
  -3   3  -9 48787.5 3283.50  61
  -3   3  -9 37178.5 2515.84  48
  -3   3  -9 39380.4 2739.83  18
   3   3   9 36263.9 2220.92  17
   3   3   9 39299.5 2065.60  39
   3   3   9 42779.0 2476.71   7
   3   3   9 34441.2 2097.26  25
   3   3   9 35436.1 2295.65  26
  -3   3 -10 35412.6 2470.20   5
  -3   3 -10 32973.1 2406.08   3
  -3   3 -10 34104.2 2127.83  60
  -3   3 -10 38346.5 2884.24  61
  -3   3 -10 33637.3 2368.14  48
   3   3  10 34620.4 2160.75  17
   3   3  10 33165.5 1830.20  39
   3   3  10 35450.0 2158.78   8
   3   3  10 38040.0 2312.04   7
   3   3  10 27728.9 2038.86  26
   3   3  10 32548.2 1999.73  25
  -3   3 -11 12196.6 1410.27   5
  -3   3 -11 11263.4 1376.56   3
  -3   3 -11 11610.3 1210.68  60
  -3   3 -11 12564.1 1379.32  48
   3   3  11 12319.3 1265.75  17
   3   3  11 11455.8 973.285  39
   3   3  11 13673.0 1321.12   8
   3   3  11 13453.0 1346.25   7
   3   3  11 9061.43 1133.48  26
   3   3  11 10903.9 1092.07  25
  -3   3 -12 17097.4 1805.31  61
  -3   3 -12 14987.9 1519.17  48
   3   3  12 12682.3 1344.71  26
   3   3  12 14508.6 1231.65  25
   3   3  12 15380.4 1365.26   8
   3   3  12 15818.7 1404.58   7
  -3   3 -12 16616.8 1608.83   5
  -3   3 -12 15832.2 1607.38   3
  -3   3 -12 15623.1 1643.26  18
   3   3  12 15762.7 1425.12  17
  -3   3 -13 7165.28 982.426   5
  -3   3 -13 7988.46 1106.77   3
   3   3  13 6056.83 740.073  25
   3   3  13 7545.50 974.363  26
  -3   3 -13 7673.68 1090.75  18
   3   3  13 7721.28 951.414  17
   3   3  13 8318.90 976.865   7
   3   3  13 8413.65 957.540   8
   3   3  14 680.223 284.783  17
  -3   3 -14 851.673 349.137  18
  -3   3 -14 957.513 387.017   3
   3   3  14 1089.68 335.433   7
   3   3  14 853.678 304.287   8
   3   3  14 764.973 246.242  25
   3   3  14 887.008 317.311  26
  -3   3 -15 10669.7 1114.81  18
   3   3  15 12275.8 1086.41  17
  -3   3 -15 13511.3 1275.87   3
   3   3  15 11113.5 966.848   7
   3   3  15 11309.7 802.970  25
   3   3  16 26178.6 1293.69   7
  -3   3 -16 29591.2 1729.76   3
   3   3  17 5325.96 536.673  34
  -3   3 -17 4913.96 592.811   3
   3   3  17 4539.64 485.583  33
   3   3  18 10067.2 564.035  33
  -3   4  17 6015.86 465.390  17
   3   4 -16 11212.0 744.619  29
  -3   4  16 14097.5 892.487  17
  -3   4  15 11310.0 800.135   7
  -3   4  15 12447.8 907.605   9
  -3   4  15 9044.59 662.282  39
  -3   4  15 12314.6 950.753  17
   3   4 -15 11318.7 888.231  29
   3   4 -15 11718.1 1121.58   4
  -3   4  14 10850.8 805.312   8
  -3   4  14 11391.4 962.327   9
  -3   4  14 10466.9 907.483   7
  -3   4  14 12685.2 1047.96  17
  -3   4  14 8832.44 792.537  39
   3   4 -14 10993.2 997.457  29
   3   4 -14 10463.6 1154.08   4
   3   4 -14 11825.4 1063.91   3
  -3   4  14 7955.55 876.117   6
  -3   4  13 15450.7 1240.62   7
  -3   4  13 16433.5 1140.21   8
   3   4 -13 12611.7 1128.85  41
   3   4 -13 12547.0 1353.29   4
  -3   4  13 12719.6 1199.25   6
   3   4 -13 15073.6 1355.75   3
   3   4 -13 16059.0 1332.12  29
  -3   4  13 16523.5 1298.83  17
   3   4 -12 1099.68 398.255   3
   3   4 -12 283.668 262.795   4
  -3   4  12 640.163 318.601   6
   3   4 -12 522.982 237.438  41
   3   4 -12 933.732 438.214  20
   3   4 -12 900.848 369.044  29
  -3   4  12 801.004 315.772   7
  -3   4  12 1119.80 328.941   8
   3   4 -11 1097.59 567.537  20
   3   4 -11 926.147 345.702  41
   3   4 -11 678.087 355.166   3
   3   4 -11 504.845 354.766   4
  -3   4  11 612.758 301.008   6
  -3   4  11 632.101 313.363   7
  -3   4  11 1209.49 357.264   8
   3   4 -10 6515.17 1367.56  20
   3   4 -10 5246.36 820.412  41
  -3   4  10 6275.11 855.469  17
  -3   4  10 5398.14 783.443   8
  -3   4  10 4878.43 806.844   7
   3   4 -10 3514.43 803.961   4
  -3   4  10 5227.53 814.390   2
   3   4 -10 4059.38 815.682   3
   3   4  -9 67991.7 3770.92   4
  -3   4   9 84160.3 3705.10   2
   3   4  -9 73315.5 3779.25   3
   3   4  -9 90288.9 5426.30  20
   3   4  -9 71750.3 3495.44  41
   3   4  -9 78374.0 3047.71  38
   3   4  -9 73187.6 2890.80  30
   3   4  -9 74829.8 3594.18  29
  -3   4   9 83624.4 3475.11   8
  -3   4   9 74890.5 3528.11   7
  -3   4   8 29614.9 2121.96   7
  -3   4   8 27466.8 1900.03   8
   3   4  -8 28050.7 2278.11   4
  -3   4   8 29215.8 2077.87   2
   3   4  -8 28454.7 2251.85   3
  -3   4   8 32161.1 2143.70   6
  -3   4   8 26618.3 1945.54  59
   3   4  -8 21874.7 2086.13  59
  -3   4   8 25444.9 1754.66  62
  -3   4   8 28640.4 1940.28  55
   3   4  -8 27294.4 2018.92  41
   3   4  -8 26681.8 1772.42  18
   3   4  -8 30425.2 1848.59  38
   3   4  -8 26993.8 2011.10  29
   3   4  -8 28013.9 1731.45  31
   3   4  -8 26446.5 1668.92  30
   3   4  -8 30547.2 3143.45  20
  -3   4   7 36232.4 2365.26   7
  -3   4   7 35739.1 2199.76   8
   3   4  -7 33529.3 2513.32   4
  -3   4   7 33693.4 2270.91   2
   3   4  -7 35010.5 2506.28   3
  -3   4   7 34604.0 2253.17   6
  -3   4   7 36459.3 2467.06  59
   3   4  -7 33149.4 2610.26  59
   3   4  -7 31364.4 2247.93  62
  -3   4   7 34602.6 2153.28  62
   3   4  -7 34376.6 2267.18  41
   3   4  -7 33773.6 2406.55  55
   3   4  -7 31646.3 2023.73  18
   3   4  -7 33886.6 2059.54  38
   3   4  -7 32684.8 2214.86  29
   3   4  -7 35486.9 2030.55  31
   3   4  -7 32093.0 1967.05  30
   3   4  -7 36392.8 3468.10  20
  -3   4   6 638.349 302.350   8
   3   4  -6 1163.15 444.015   3
   3   4  -6 984.391 445.696   4
  -3   4   6 802.187 345.163   6
  -3   4   6 480.277 304.262  59
  -3   4   6 744.397 300.072  62
   3   4  -6 533.146 375.136  59
   3   4  -6 1140.31 416.216  62
   3   4  -6 1297.88 455.460  55
   3   4  -6 968.399 346.203  18
   3   4  -6 1022.33 270.882  39
   3   4  -6 336.291 209.175  41
   3   4  -6 555.266 290.908  38
   3   4  -6 642.881 285.164  30
   3   4  -6 565.163 309.166  29
   3   4  -6 607.467 278.191  31
   3   4  -6 1090.79 717.711  20
  -3   4   5 16446.9 1462.78   8
  -3   4   5 14075.3 1430.31   2
  -3   4   5 16549.4 1470.72   6
  -3   4   5 19719.7 1859.39  59
   3   4  -5 16120.8 1804.29  59
  -3   4   5 16878.8 1523.32  62
   3   4  -5 15326.3 1576.97  62
   3   4  -5 17751.0 1540.05  41
   3   4  -5 15580.6 1646.82  55
   3   4  -5 15711.0 1469.81  18
   3   4  -5 14286.6 1377.90  38
   3   4  -5 15310.6 1177.27  39
   3   4  -5 13891.6 1308.73  30
   3   4  -5 14262.5 1314.77  31
   3   4  -5 14242.6 1368.94  29
   3   4  -5 18549.0 2464.63  20
  -3   4   4 2579.50 589.404   2
  -3   4   4 1951.41 499.399   6
  -3   4   4 2657.16 732.984  59
   3   4  -4 2933.60 782.256  59
  -3   4   4 1968.58 547.127  62
   3   4  -4 2214.71 611.083  62
   3   4  -4 2453.56 557.843  41
   3   4  -4 2835.35 696.498  55
   3   4  -4 2283.81 554.792  18
   3   4  -4 1622.97 493.427  38
   3   4  -4 2933.10 515.754  39
   3   4  -4 2024.82 501.811  31
   3   4  -4 1732.57 467.816  30
   3   4  -4 2562.29 565.620  29
   3   4  -4 2370.83 918.563  20
   3   4  -4 2101.11 373.497  25
  -3   4   3 17206.4 1511.30   2
  -3   4   3 15700.9 1423.90   6
   3   4  -3 18347.6 1928.05  59
   3   4  -3 15503.3 1590.09  62
   3   4  -3 14273.9 1373.19  41
   3   4  -3 14793.0 1614.76  55
   3   4  -3 16966.6 1509.42  18
   3   4  -3 14123.7 1402.66  38
   3   4  -3 16173.9 1265.32  39
   3   4  -3 14536.0 1346.45  30
   3   4  -3 15990.3 1431.84  31
   3   4  -3 17893.2 1444.95  29
   3   4  -3 17541.8 2424.09  20
   3   4  -3 15694.8 1122.28  25
  -3   4   2 43764.3 2451.56   2
   3   4  -2 43421.0 2781.66   3
  -3   4   2 40589.2 2296.66   6
  -3   4   2 41871.2 2180.01   5
   3   4  -2 42922.0 3036.74  59
   3   4  -2 37857.3 2581.66  62
   3   4  -2 44555.1 2878.67  55
   3   4  -2 48522.9 2679.19  18
   3   4  -2 40773.3 2183.75  39
   3   4  -2 40390.6 2240.53  29
   3   4  -2 38290.8 1941.64  25
   3   4  -2 52886.6 4147.51  20
  -3   4   1 50856.2 2656.91   2
   3   4  -1 48183.3 2974.29   3
  -3   4   1 48265.4 2464.44   6
  -3   4   1 52852.4 2562.31   5
   3   4  -1 50378.5 3308.31  59
   3   4  -1 45725.8 2889.36  62
   3   4  -1 49308.1 3011.31  55
   3   4  -1 58165.8 2948.05  18
  -3   4   1 44302.4 2420.91  18
   3   4  -1 51254.6 2505.19  39
   3   4  -1 40442.1 2418.85  30
   3   4  -1 52079.0 2466.64  29
   3   4  -1 45019.4 2551.88  31
   3   4  -1 50351.9 2291.54  25
  -3   4   0 16403.7 1395.01   2
  -3   4   0 13169.4 1189.00   6
  -3   4   0 15761.2 1386.37   5
   3   4   0 14943.6 1577.57  62
  -3   4   0 13186.9 1271.80  61
   3   4   0 17248.8 1859.85  59
   3   4   0 18048.5 1776.92  55
   3   4   0 19652.0 1671.41  18
  -3   4   0 14333.8 1340.41  18
   3   4   0 12935.6 1349.57  38
   3   4   0 15074.1 1295.67  39
   3   4   0 12942.0 1292.08  30
   3   4   0 14228.2 1188.90  29
   3   4   0 14983.9 1370.80  31
   3   4   0 15746.9 1224.51  25
   3   4   1 13347.5 1049.25   8
   3   4   1 11819.3 1068.97   7
  -3   4  -1 11282.7 1142.92   2
  -3   4  -1 11040.2 1039.41   6
  -3   4  -1 13358.3 1312.48   5
  -3   4  -1 12112.1 1253.26  61
   3   4   1 13937.6 1496.85  18
  -3   4  -1 13720.9 1360.63  18
   3   4   1 12501.0 1315.92  38
   3   4   1 14131.1 1265.08  39
   3   4   1 13948.7 1315.43  31
   3   4   1 15044.0 1161.67  29
   3   4   1 11518.6 1193.18  30
   3   4   1 12834.8 1031.16  26
   3   4   1 12029.2 1097.58  25
   3   4   2 23796.7 1533.71   8
   3   4   2 25221.8 1675.76   7
  -3   4  -2 23436.6 1641.51   2
  -3   4  -2 21209.8 1453.81   6
  -3   4  -2 30666.1 2083.41   5
   3   4   2 31958.6 2594.84  59
   3   4   2 31022.6 2279.78  62
  -3   4  -2 25622.9 2002.59  61
   3   4   2 26366.1 2191.54  55
  -3   4  -2 27030.3 2009.35  18
   3   4   2 29007.9 2014.98  38
   3   4   2 27649.8 1873.03  30
   3   4   2 29943.0 1954.14  31
   3   4   2 26397.5 1576.16  26
   3   4   2 27045.9 1721.99  25
   3   4   3 5435.59 728.878   8
   3   4   3 6457.23 839.797   7
  -3   4  -3 4793.67 706.773   2
  -3   4  -3 6289.07 950.176   5
   3   4   3 7125.89 1229.81  59
   3   4   3 6596.27 1032.15  62
  -3   4  -3 7062.69 1061.65  61
   3   4   3 6681.10 1051.59  55
  -3   4  -3 6611.85 1006.33  18
   3   4   3 6264.91 912.502  38
   3   4   3 6030.68 846.616  39
   3   4   3 5481.90 711.885  26
   3   4   3 5749.49 819.148  30
   3   4   3 6443.58 871.979  31
   3   4   3 6395.16 827.256  25
   3   4   4 35406.7 2067.32   8
   3   4   4 36558.9 2225.41   7
  -3   4  -4 33323.1 1931.95   2
  -3   4  -4 41028.1 2596.94   5
  -3   4  -4 60714.6 3292.71  59
   3   4   4 41904.6 2952.88  59
  -3   4  -4 45636.3 2642.40  62
   3   4   4 47328.7 2826.52  62
  -3   4  -4 42769.6 2815.17  61
   3   4   4 46549.8 2903.80  55
  -3   4  -4 42276.2 2680.76  18
   3   4   4 40702.4 2398.04  38
   3   4   4 38825.3 2281.34  39
   3   4   4 46782.7 2427.89  31
   3   4   4 44578.5 2375.36  30
   3   4   4 40660.3 2133.03  26
   3   4   4 39104.2 1971.67  33
   3   4   4 39939.5 2255.24  25
  -3   4  -5 68430.4 3186.21   3
  -3   4  -5 67847.7 3549.35   5
   3   4   5 80253.5 4140.49  59
  -3   4  -5 73479.1 3473.08  62
   3   4   5 68815.7 3552.05  62
  -3   4  -5 79654.1 4040.34  61
   3   4   5 75145.8 3756.34  55
  -3   4  -5 69611.0 3651.88  18
   3   4   5 74059.2 3295.05  38
   3   4   5 65020.9 3133.14  39
   3   4   5 71351.5 3110.64  30
   3   4   5 76451.1 3190.35  31
   3   4   5 67234.8 2992.11  26
   3   4   5 71138.0 3146.18   8
   3   4   5 67220.3 3205.10   7
  -3   4  -6 12623.1 1299.82   3
  -3   4  -6 11591.5 1385.62   5
  -3   4  -6 16052.5 1604.94  59
   3   4   6 13365.2 1600.66  59
  -3   4  -6 14512.8 1394.14  62
   3   4   6 13338.3 1411.53  62
  -3   4  -6 13812.7 1621.72  61
   3   4   6 14947.2 1572.88  55
  -3   4  -6 14048.7 1554.47  18
   3   4   6 12688.2 1077.41  17
   3   4   6 13385.5 1259.58  38
   3   4   6 14276.5 1321.24  39
   3   4   6 13178.0 1171.72  30
   3   4   6 13660.8 1225.59  26
   3   4   6 14514.9 1226.71  31
   3   4   6 13610.1 1288.22   8
   3   4   6 10696.3 1215.21   7
   3   4   7 19998.5 1574.29   8
   3   4   7 19616.6 1635.72   7
  -3   4  -7 16668.9 1549.57   3
  -3   4  -7 16722.9 1695.11   5
  -3   4  -7 19183.2 1714.13  59
   3   4   7 12430.3 1633.01  59
  -3   4  -7 16820.1 1439.28  62
  -3   4  -7 23354.3 2179.97  61
   3   4   7 19475.8 1752.19  55
  -3   4  -7 17565.0 1768.59  18
   3   4   7 16267.2 1281.68  17
   3   4   7 20030.2 1461.36  38
   3   4   7 17525.1 1474.11  39
   3   4   7 15608.2 1357.48  26
   3   4   7 17772.7 1328.06  30
   3   4   7 16450.3 1430.05  25
   3   4   8 19940.2 1591.01   8
   3   4   8 21086.3 1677.17   7
  -3   4  -8 18713.3 1644.67   3
  -3   4  -8 17275.6 1719.53   5
  -3   4  -8 13288.8 1342.27  59
   3   4   8 9652.95 1283.12  59
  -3   4  -8 22115.7 2067.67  61
  -3   4  -8 18060.1 1792.01  18
   3   4   8 15066.1 1279.42  17
   3   4   8 17658.5 1436.25  39
   3   4   8 16124.2 1383.65  26
   3   4   8 15999.3 1409.04  25
  -3   4  -9 605.155 339.693   3
  -3   4  -9 1327.02 496.832  61
  -3   4  -9 1359.07 451.087  48
   3   4   9 1106.32 351.269  17
  -3   4  -9 618.272 362.098  18
   3   4   9 849.658 307.973  39
   3   4   9 807.213 320.511  25
   3   4   9 557.903 260.192  26
   3   4   9 829.185 352.694   8
   3   4  10 1099.70 349.643  17
  -3   4 -10 1571.92 524.997  18
  -3   4 -10 810.387 367.561   3
   3   4  10 1699.00 404.506  39
   3   4  10 950.867 338.068  26
   3   4  10 998.850 361.071  25
   3   4  10 1999.33 505.579   7
   3   4  11 3576.38 615.821  25
   3   4  11 3847.91 626.479  17
  -3   4 -11 3394.06 695.775   3
  -3   4 -11 3529.12 696.153   5
   3   4  11 3165.71 515.290  39
   3   4  11 2789.35 561.592  26
   3   4  11 4376.14 726.793   7
   3   4  12 13043.6 1099.53  25
   3   4  12 13247.0 1132.76  17
  -3   4 -12 11983.8 1239.54   3
   3   4  12 12883.7 917.858  39
   3   4  12 11196.1 1071.92  26
   3   4  12 15782.6 1268.91   8
   3   4  12 16554.7 1345.64   7
   3   4  13 22898.9 1383.89  25
  -3   4 -13 20488.3 1574.16   3
  -3   4 -13 24755.3 1726.88  18
   3   4  13 24207.1 1480.53  17
   3   4  13 20587.5 1390.68  26
   3   4  13 27164.1 1630.25   7
   3   4  13 26977.9 1591.99   8
   3   4  14 15021.7 968.689  25
  -3   4 -14 14469.0 1189.60   3
  -3   4 -14 16289.0 1233.77  18
   3   4  14 14375.2 1028.56  17
   3   4  14 14823.8 1047.34  26
   3   4  14 16612.7 1136.91   7
   3   4  14 16276.8 1118.81   8
   3   4  15 12896.0 731.182  25
  -3   4 -15 12406.6 911.917  18
   3   4  15 13933.5 883.115  17
   3   4  15 15319.9 936.136   7
  -3   4 -15 12792.3 993.207   3
   3   4  15 14259.2 896.828  33
   3   4  15 13815.6 866.760  26
   3   4  16 1526.40 234.153  33
  -3   4 -16 1397.23 271.327   3
  -3   5  14 7194.35 530.684   7
   3   5 -14 7075.95 579.213  29
  -3   5  14 6910.79 550.762  17
  -3   5  13 16260.5 954.136  39
  -3   5  13 16795.1 918.597   8
  -3   5  13 17170.1 1039.59   7
   3   5 -13 15749.0 1093.61   3
  -3   5  13 17817.8 1037.38  17
  -3   5  12 31608.3 1562.18  17
  -3   5  12 27984.9 1542.29   7
  -3   5  12 29468.8 1461.59   8
  -3   5  12 29296.2 1519.33  39
   3   5 -12 28423.0 1597.88  29
   3   5 -12 31211.4 1786.41   3
  -3   5  11 6649.74 729.615  17
  -3   5  11 6409.42 775.250   7
  -3   5  11 7226.60 747.669   8
  -3   5  11 6973.61 762.617  39
   3   5 -11 6190.97 777.766  29
  -3   5  11 4853.17 696.170   6
   3   5 -11 6933.45 890.041   3
  -3   5  10 5690.63 716.291  17
   3   5 -10 6522.35 833.844  29
   3   5 -10 5800.87 900.712   3
  -3   5  10 6016.06 795.650   6
  -3   5  10 5756.90 779.381   7
  -3   5  10 5198.86 688.796   8
  -3   5   9 5430.36 709.419  17
  -3   5   9 5654.05 759.444   8
  -3   5   9 5712.33 816.765   7
   3   5  -9 5009.14 760.682  29
   3   5  -9 4534.64 832.635   3
  -3   5   9 4384.93 710.148   6
  -3   5   8 709.168 308.303   6
  -3   5   8 786.939 298.617  17
   3   5  -8 519.874 275.479  59
   3   5  -8 693.321 273.273  38
  -3   5   8 544.892 244.240  38
   3   5  -8 810.188 321.564  29
   3   5  -8 808.665 254.845  30
  -3   5   8 816.979 314.470   8
  -3   5   7 10382.9 1107.04   6
  -3   5   7 10898.6 1052.45  17
   3   5  -7 8870.27 1015.83  18
  -3   5   7 10477.4 1194.62  59
   3   5  -7 9467.00 1342.63  59
  -3   5   7 10425.7 1071.00  38
   3   5  -7 10093.7 1054.95  38
   3   5  -7 10259.2 1019.39  30
   3   5  -7 10420.2 1123.48  29
  -3   5   7 11063.5 1138.93   8
  -3   5   6 12748.7 1246.23   6
  -3   5   6 17082.8 1608.38  59
   3   5  -6 12115.4 1589.31  59
   3   5  -6 11065.4 1195.21  18
   3   5  -6 13803.5 1316.38  38
   3   5  -6 13204.4 1231.03  30
   3   5  -6 12408.7 1262.12  29
  -3   5   6 14020.4 1307.70   8
  -3   5   6 12678.9 1313.85   7
  -3   5   5 29611.3 2044.68   2
   3   5  -5 33853.1 2438.92   3
  -3   5   5 30729.3 1967.30   6
  -3   5   5 38830.0 2581.29  59
   3   5  -5 35586.5 2766.36  59
  -3   5   5 27236.7 2007.83  62
   3   5  -5 27577.3 2196.59  62
  -3   5   5 30708.8 2230.93  55
   3   5  -5 33856.8 2456.27  55
   3   5  -5 27718.1 1996.46  18
   3   5  -5 30863.0 2062.98  38
   3   5  -5 29973.5 1584.86  39
   3   5  -5 28581.2 1927.96  31
   3   5  -5 32930.7 2069.71  29
   3   5  -5 30165.8 1970.98  30
  -3   5   5 30506.5 2076.06   7
  -3   5   4 31486.0 2117.56   2
   3   5  -4 34152.3 2482.12   3
  -3   5   4 29381.1 1888.88   6
  -3   5   4 38884.3 2659.94  59
   3   5  -4 37504.8 2936.40  59
  -3   5   4 29172.4 2139.07  62
   3   5  -4 30798.7 2377.82  62
  -3   5   4 34783.8 2440.47  55
   3   5  -4 32766.0 2550.22  55
   3   5  -4 31113.1 2152.46  18
   3   5  -4 31104.6 2147.66  38
   3   5  -4 32853.4 1769.84  39
   3   5  -4 30430.6 2020.67  30
   3   5  -4 31549.8 2092.15  31
   3   5  -4 32279.6 2014.59  29
  -3   5   4 33547.8 2178.21   7
  -3   5   3 20915.4 1678.98   2
   3   5  -3 25711.2 2141.00   3
  -3   5   3 20873.0 1539.44   6
  -3   5   3 27524.5 2263.19  59
   3   5  -3 27099.1 2481.00  59
  -3   5   3 20705.9 1815.88  62
   3   5  -3 22155.8 2012.28  62
   3   5  -3 25737.6 2247.22  55
  -3   5   3 22906.0 1999.99  55
   3   5  -3 26122.4 1986.06  18
   3   5  -3 23235.9 1864.52  38
   3   5  -3 21820.7 1497.02  39
   3   5  -3 22007.8 1743.37  30
   3   5  -3 24210.6 1669.94  29
   3   5  -3 21824.2 1732.47  31
  -3   5   3 18879.6 1608.30   7
  -3   5   3 23088.6 1739.17   8
  -3   5   2 5973.23 874.632   7
  -3   5   2 7089.15 953.134   8
  -3   5   2 7734.55 959.420   2
  -3   5   2 5522.37 736.957   6
   3   5  -2 8060.60 1354.43  59
  -3   5   2 7297.42 1039.16  62
   3   5  -2 6563.24 1100.11  62
  -3   5   2 8048.62 1155.14  55
   3   5  -2 6967.45 1149.09  55
   3   5  -2 8013.59 1102.23  18
  -3   5   2 8119.30 904.226  18
   3   5  -2 7814.04 901.317  39
   3   5  -2 7380.19 973.923  31
   3   5  -2 7530.77 889.565  29
   3   5  -2 6741.79 692.882  25
  -3   5   1 4277.94 724.400   7
  -3   5   1 5576.15 821.003   8
  -3   5   1 4392.38 705.942   2
   3   5  -1 6052.63 1194.79  59
   3   5  -1 5083.04 936.105  62
   3   5  -1 5083.90 989.956  55
   3   5  -1 6599.56 1013.96  18
  -3   5   1 5513.14 790.976  18
   3   5  -1 5935.75 813.057  39
   3   5  -1 4576.45 789.029  30
   3   5  -1 4828.22 681.353  29
   3   5  -1 5195.66 647.751  25
  -3   5   0 5357.86 798.311   7
  -3   5   0 7535.97 957.349   8
  -3   5   0 6830.06 858.233   2
  -3   5   0 9656.80 1370.81  59
   3   5   0 9242.88 1462.06  59
  -3   5   0 7584.34 1070.80  62
   3   5   0 8229.49 1193.84  62
   3   5   0 8564.79 1283.73  55
   3   5   0 9577.71 1256.32  18
  -3   5   0 8363.54 1044.10  18
   3   5   0 6859.73 1010.28  38
   3   5   0 8462.89 993.786  39
   3   5   0 7792.00 1026.87  30
   3   5   0 7117.26 997.040  31
   3   5   0 8467.62 872.169  25
  -3   5  -1 16199.2 1361.14   7
  -3   5  -1 18393.7 1514.62   8
  -3   5  -1 24264.2 1806.18   5
  -3   5  -1 28870.8 2362.17  59
  -3   5  -1 19693.1 1806.14  62
  -3   5  -1 25578.9 1888.49  18
   3   5   1 23824.4 1890.61  38
   3   5   1 24547.2 1736.85  39
   3   5   1 21935.5 1726.08  30
   3   5   1 21300.9 1728.86  31
   3   5   1 23132.0 1516.61  25
   3   5   2 12359.5 1025.14   8
   3   5   2 14219.5 1169.41   7
  -3   5  -2 12300.7 1076.63   7
  -3   5  -2 12512.8 1195.57   8
  -3   5  -2 14598.6 1434.88   5
  -3   5  -2 17896.2 1838.28  59
   3   5   2 14962.4 1852.98  59
  -3   5  -2 14418.8 1498.37  62
   3   5   2 16098.0 1656.38  62
   3   5   2 17496.6 1833.61  55
  -3   5  -2 18677.6 1635.87  18
   3   5   2 16216.7 1519.05  38
   3   5   2 15133.4 1363.99  39
   3   5   2 15346.8 1430.82  31
   3   5   2 15987.9 1435.85  30
   3   5   2 15404.4 1253.63  25
   3   5   3 39451.5 2084.23   8
   3   5   3 51002.0 2435.61   7
  -3   5  -3 36401.5 2145.64   8
  -3   5  -3 47849.2 2762.24   5
  -3   5  -3 61842.2 3452.70  59
   3   5   3 55548.9 3597.00  59
  -3   5  -3 45972.0 2766.59  62
   3   5   3 43887.7 2929.52  62
  -3   5  -3 52793.9 3122.80  55
   3   5   3 55457.1 3322.75  55
  -3   5  -3 52310.3 2897.21  18
   3   5   3 52885.9 2816.49  38
   3   5   3 50888.9 2657.72  30
   3   5   3 47739.1 2605.21  31
   3   5   3 47954.2 2397.51  25
   3   5   4 5377.13 720.219   8
   3   5   4 5877.72 803.265   7
  -3   5  -4 4440.91 650.563   8
  -3   5  -4 6543.47 986.557   5
  -3   5  -4 6904.55 1100.21  59
   3   5   4 6497.84 1172.94  59
  -3   5  -4 6259.70 948.220  62
   3   5   4 7131.90 1050.28  62
  -3   5  -4 6955.16 1049.18  55
   3   5   4 6307.16 1030.71  55
  -3   5  -4 6317.42 983.521  18
   3   5   4 6523.71 912.181  38
   3   5   4 5516.64 815.023  39
   3   5   4 6067.55 852.484  30
   3   5   4 5321.11 769.845  31
   3   5   4 6325.54 821.748  25
   3   5   5 13236.0 1160.60   8
   3   5   5 11827.1 1158.55   7
  -3   5  -5 10124.1 933.669   8
  -3   5  -5 15496.1 1583.97  59
   3   5   5 14235.8 1717.45  59
  -3   5  -5 12835.6 1425.14  18
  -3   5  -5 13498.9 1419.51   5
   3   5   5 14641.1 1328.94  38
   3   5   5 13600.8 1278.52  39
   3   5   5 13958.1 1225.53  30
   3   5   5 11330.7 1122.37  25
   3   5   6 1126.74 379.765   7
   3   5   6 1177.99 352.472   8
  -3   5  -6 1257.64 444.461  59
   3   5   6 782.178 416.715  59
  -3   5  -6 891.229 407.101  18
  -3   5  -6 1472.98 450.669   5
   3   5   6 1159.89 374.690  39
   3   5   6 1586.93 421.244  38
  -3   5  -6 1343.01 408.971  38
   3   5   6 1154.54 332.416  30
   3   5   6 1058.98 361.438  25
   3   5   7 3899.12 626.706   8
   3   5   7 3445.27 619.971   7
  -3   5  -7 2681.99 581.549  59
   3   5   7 2308.54 619.534  59
  -3   5  -7 3764.80 758.855  18
  -3   5  -7 3312.78 570.226   3
  -3   5  -7 3301.73 676.965   5
   3   5   7 4518.02 694.533  39
   3   5   7 3971.00 594.116  38
  -3   5  -7 2710.99 507.778  38
   3   5   7 3623.94 535.044  30
   3   5   7 3459.61 598.256  25
   3   5   8 17032.5 1316.11  39
  -3   5  -8 13780.3 1187.31   3
   3   5   8 15179.3 1244.18   8
   3   5   8 14557.2 1275.84   7
  -3   5  -8 12903.8 1358.45  18
   3   5   9 46215.6 2167.36  39
  -3   5  -9 39164.7 2092.02   3
   3   5   9 46857.5 2233.39   8
   3   5   9 48973.3 2388.71   7
  -3   5  -9 43576.3 2490.95  18
  -3   5 -10 17365.5 1432.20  18
  -3   5 -10 16254.0 1217.73   3
   3   5  10 16731.2 1209.57  25
   3   5  10 19897.0 1326.04   8
   3   5  10 21066.9 1422.91   7
   3   5  10 18420.9 1186.53  39
   3   5  11 8056.38 759.699  25
   3   5  11 9133.75 829.083   8
   3   5  11 8533.88 686.234  39
   3   5  12 4107.13 365.527  39
  -3   5 -12 3338.88 465.892   3
   3   5  13 2066.07 284.397  25
  -3   5 -13 1985.42 343.699  18
  -3   5 -13 1260.60 240.541   3
  -3   5 -13 701.103 219.466  29
   3   5  13 2534.44 361.204   7
  -3   6  11 1167.19 191.658  39
   3   6 -10 2830.26 354.693  29
  -3   6  10 3843.30 405.655   8
  -3   6  10 4012.24 424.245  39
   3   6  -9 15085.4 929.593  29
  -3   6   9 17438.3 1033.83   7
   3   6  -8 6978.47 645.992  29
  -3   6   8 8591.70 751.346   7
  -3   6   8 8415.12 725.609   8
  -3   6   8 7573.02 685.318  39
   3   6  -7 8542.02 724.175  29
  -3   6   7 8369.09 773.947   7
  -3   6   7 7720.40 667.473  38
  -3   6   7 7616.86 720.073  39
  -3   6   6 3571.52 570.488  59
   3   6  -6 2250.94 549.714  59
   3   6  -6 3412.78 464.038  29
   3   6  -6 2895.45 441.589  30
  -3   6   6 2797.82 460.596   7
  -3   6   6 3610.75 521.577   8
   3   6  -6 2832.87 470.208  38
  -3   6   6 2963.29 468.477  38
  -3   6   6 2163.79 399.898  39
  -3   6   5 2003.39 455.046  59
   3   6  -5 686.794 426.411  59
   3   6  -5 1762.63 381.618  30
   3   6  -5 1606.08 315.158  29
  -3   6   5 1843.12 383.259   7
  -3   6   5 2155.30 421.511   8
  -3   6   5 1076.61 289.573  39
  -3   6   5 1459.60 374.680  38
   3   6  -5 1739.50 397.795  38
  -3   6   4 21938.6 1664.37  59
   3   6  -4 16697.6 1696.76  59
   3   6  -4 18962.1 1095.54  29
   3   6  -4 17685.4 1287.39  30
  -3   6   4 15375.0 1138.03   7
  -3   6   4 18387.1 1272.06   8
   3   6  -4 20283.3 1422.85  38
  -3   6   4 18874.8 1381.22  38
  -3   6   4 14984.2 1089.29  39
  -3   6   3 6846.58 957.413  59
   3   6  -3 4779.22 970.772  59
   3   6  -3 6121.76 769.397  30
  -3   6   3 6287.55 805.403  38
   3   6  -3 6443.32 823.451  38
  -3   6   3 4780.28 593.618  39
  -3   6   3 4400.09 588.880   7
  -3   6   3 6121.47 722.906   8
  -3   6   2 28256.2 1826.32  38
   3   6  -2 30286.7 1482.73  39
  -3   6   2 25716.3 1380.24  39
  -3   6   2 34124.6 2222.37  59
   3   6  -2 30580.5 2418.13  59
  -3   6   2 26231.8 1566.07   8
  -3   6   1 20320.3 1211.71  18
   3   6  -1 18529.5 1887.83  59
  -3   6   1 14352.5 1300.27  38
   3   6  -1 18130.9 1176.92  39
   3   6  -1 15748.5 1285.62  30
  -3   6   1 14793.9 1128.83   8
  -3   6   0 17856.3 1213.75  18
  -3   6   0 16991.0 1572.95  59
   3   6   0 17834.6 1841.53  59
   3   6   0 17072.3 1407.13  38
  -3   6   0 12328.9 1207.69  38
   3   6   0 17044.7 1183.45  39
   3   6   0 16130.0 1299.10  30
  -3   6   0 12617.6 1020.84   8
  -3   6  -1 4578.90 630.617  18
  -3   6  -1 4518.56 809.015  59
   3   6   1 3913.23 669.725  38
   3   6   1 4113.50 588.605  39
   3   6   1 3465.41 590.788  30
  -3   6  -1 3234.40 476.032   8
   3   6   2 5383.63 751.223  38
  -3   6  -2 4358.02 681.288  38
   3   6   2 4951.04 653.187  39
  -3   6  -2 5912.01 898.874  59
   3   6   2 3862.91 841.789  59
   3   6   2 4254.54 646.387  30
  -3   6  -2 5372.11 706.931  18
  -3   6  -3 1423.15 383.801  18
  -3   6  -3 1713.73 483.001  59
   3   6   3 1424.44 498.113  59
   3   6   3 1358.24 351.799  39
  -3   6  -3 1310.55 366.381  38
   3   6   3 2128.26 458.163  38
   3   6   3 1336.98 356.708  30
   3   6   3 1695.75 311.111  25
  -3   6  -4 7704.58 857.005  18
  -3   6  -4 8613.75 997.258  59
   3   6   4 5485.32 944.037  59
  -3   6  -4 6497.01 764.212  38
   3   6   4 7312.31 801.752  38
   3   6   4 8156.89 803.224  30
   3   6   4 7020.18 653.260  25
  -3   6  -5 9290.15 922.745  18
  -3   6  -5 10204.4 1021.22  59
   3   6   5 10234.1 874.991  38
  -3   6  -5 8816.80 814.395  38
   3   6   5 10989.5 848.482  30
   3   6   5 8730.83 730.436  25
   3   6   6 15598.2 975.256  38
   3   6   6 14207.1 1041.24  39
   3   6   6 15852.4 908.104  30
  -3   6  -6 14352.3 1120.86  18
  -3   6  -7 4135.98 571.647  18
   3   6   7 3672.75 443.502  25
   3   6   7 5400.99 583.367  39
   3   6   8 13418.3 868.553  39
   3   6   8 12480.7 794.238  25
  -3   6  -8 13330.4 973.176  18
   3   6   8 12196.0 774.071   7
   3   6   9 6598.68 517.726  39
   3   6   9 5382.42 468.583  25
   3   6   9 4912.21 452.664   7
  -3   6  -9 6821.22 622.567  18
  -3   6 -10 851.086 218.749  18
   3   6  10 1246.92 194.629  25
  -3   7   1 141.347 64.0952  30
  -3   7   1 84.5910 66.9522  38
  -3   7   0 764.855 161.657  30
   3   7   0 855.521 177.496  30
   3   7   0 603.081 159.416  38
   4  -6  -9 5774.86 523.874  15
   4  -6  -8 8930.93 736.895  15
   4  -6  -7 6126.13 554.946  14
   4  -6  -7 6813.44 690.974  15
   4  -6  -7 7806.28 913.801  36
   4  -6  -6 2095.20 575.607  22
   4  -6  -6 1722.90 314.766  14
   4  -6  -6 1753.29 372.653  15
   4  -6  -6 2815.62 679.897  40
   4  -6  -5 1985.71 363.922  14
   4  -6  -5 1960.51 406.548  15
   4  -6  -5 3863.47 947.083  40
   4  -6  -5 3454.32 889.697  22
   4  -6  -4 573.315 244.167  56
   4  -6  -4 821.116 539.267  40
   4  -6  -4 444.444 224.923  15
   4  -6  -4 572.148 206.167  14
   4  -6  -4 590.331 259.136  57
  -4  -6   4 31.4231 156.188  63
   4  -6  -4 638.995 465.003  22
   4  -6  -3 2278.28 905.608  40
   4  -6  -3 1509.95 342.987  14
   4  -6  -3 1965.73 432.352  15
   4  -6  -3 1949.45 516.244  57
   4  -6  -3 1832.69 474.986  56
   4  -6  -3 2631.39 597.427  24
   4  -6  -3 2385.15 891.499  22
   4  -6  -2 26093.8 2918.02  40
   4  -6  -2 16247.5 1148.63  14
   4  -6  -2 17271.4 1295.81  15
   4  -6  -2 15260.8 1520.94  57
   4  -6  -2 24828.4 2113.51  24
   4  -6  -2 22641.7 2694.75  22
   4  -6  -1 24446.4 2842.76  40
   4  -6  -1 16140.9 1150.63  14
   4  -6  -1 17204.0 1293.30  15
   4  -6  -1 24978.3 2246.00  24
   4  -6  -1 23689.6 2778.44  22
   4  -6   0 10328.9 1263.31  57
   4  -6   0 9501.77 1157.11  56
   4  -6   0 16826.7 2330.71  40
   4  -6   0 15733.2 1493.62  27
   4  -6   0 10743.8 912.903  14
   4  -6   0 11519.9 1033.13  15
   4  -6   0 13048.4 2092.14  22
   4  -6   0 19275.3 2039.29  24
   4  -6   1 8712.78 1141.61  57
   4  -6   1 6933.49 964.300  56
   4  -6   1 8176.88 781.399  14
   4  -6   1 8459.25 854.276  15
   4  -6   2 1083.77 359.721  56
   4  -6   2 1644.71 769.574  40
   4  -6   2 1813.17 480.530  57
   4  -6   2 1167.60 311.379  15
   4  -6   2 1351.81 308.795  14
   4  -6   2 2031.76 849.618  22
   4  -6   3 9312.95 1011.11  56
   4  -6   3 10006.9 1079.73  57
   4  -6   3 9194.14 825.980  15
   4  -6   3 7481.57 717.903  14
   4  -6   4 5743.99 616.377  15
   4  -6   4 6062.93 605.735  14
   4  -6   5 8045.71 1202.10  22
   4  -6   5 6544.00 597.829  15
   4  -6   5 6154.15 573.544  14
   4  -6   6 7289.27 1090.01  24
   4  -6   6 4350.78 439.134  14
   4  -6   7 20617.2 1634.78  24
   4  -5 -13 6228.13 648.890  23
   4  -5 -12 9520.60 954.652  23
   4  -5 -12 8534.07 651.467  14
   4  -5 -12 7902.01 790.570  15
   4  -5 -11 17013.9 1567.39  36
   4  -5 -11 13422.3 1267.45  23
   4  -5 -11 13281.8 965.115  14
   4  -5 -11 14083.1 1166.45  15
   4  -5 -10 5022.24 637.919  14
   4  -5 -10 5113.92 750.641  15
  -4  -5  10 3813.05 604.258  63
   4  -5 -10 7527.25 1214.56  36
   4  -5 -10 8429.25 1548.05  32
   4  -5 -10 5391.40 846.096  23
   4  -5  -9 4557.89 1090.96  36
   4  -5  -9 3456.38 557.349  14
   4  -5  -9 3764.75 667.796  15
  -4  -5   9 1574.50 474.194  63
   4  -5  -9 3361.28 669.455  23
   4  -5  -8 901.032 476.877  40
   4  -5  -8 342.851 267.577  15
   4  -5  -8 559.056 223.169  19
   4  -5  -8 381.899 218.920  14
  -4  -5   8 153.144 223.032  63
   4  -5  -7 10351.1 1901.34  40
   4  -5  -7 6347.12 768.316  19
   4  -5  -7 5745.75 781.492  14
   4  -5  -7 6728.50 952.426  15
   4  -5  -7 5947.00 923.563  56
  -4  -5   7 1937.12 605.921  63
   4  -5  -7 6996.76 1021.84  57
   4  -5  -7 11616.7 2026.33  22
   4  -5  -6 3276.22 756.111  57
   4  -5  -6 4140.18 827.632  56
   4  -5  -6 6576.36 1642.31  40
   4  -5  -6 2727.91 552.477  14
   4  -5  -6 3765.13 724.394  15
   4  -5  -6 3143.33 670.372  12
  -4  -5   6 377.872 330.984  12
   4  -5  -6 4175.30 1341.29  22
   4  -5  -5 30187.4 2532.51  57
   4  -5  -5 27183.3 2268.69  56
   4  -5  -5 46119.1 4546.94  40
   4  -5  -5 28240.9 1817.98  14
   4  -5  -5 31224.3 2124.04  15
   4  -5  -5 45433.6 4477.43  22
   4  -5  -5 42768.1 3221.35  24
   4  -5  -4 17946.1 2024.86  57
   4  -5  -4 17275.0 1866.79  56
   4  -5  -4 33402.3 4003.34  40
   4  -5  -4 16595.2 1420.76  14
   4  -5  -4 21323.6 1764.33  15
   4  -5  -4 28947.1 3735.61  22
   4  -5  -4 30112.0 2937.02  24
   4  -5  -3 24925.1 1753.92  14
   4  -5  -3 26955.2 2008.33  15
   4  -5  -3 24947.0 2488.81  57
   4  -5  -3 23994.2 2253.20  56
   4  -5  -2 2060.46 1077.80  40
  -4  -5   2 1091.43 515.027  12
   4  -5  -2 1651.42 506.908  15
   4  -5  -2 1659.25 453.188  14
   4  -5  -1 160.825 631.147  40
   4  -5  -1 42.9760 168.682  15
   4  -5  -1 469.753 276.451  14
  -4  -5   1 56.8301 199.502  12
   4  -5  -1 330.374 328.010  56
   4  -5   0 10443.5 2347.43  40
   4  -5   0 7033.55 1336.33  57
   4  -5   0 7701.99 1316.24  56
   4  -5   0 7800.05 1050.40  15
   4  -5   0 7529.02 956.742  14
  -4  -5   0 6429.04 1177.45  12
   4  -5   1 15021.9 1926.86  57
   4  -5   1 15566.8 1838.09  56
  -4  -5  -1 14780.5 1667.28  12
   4  -5   1 15984.7 1505.74  15
   4  -5   2 18989.0 2118.82  57
   4  -5   2 16962.8 1913.69  56
  -4  -5  -2 18811.1 1813.11  12
  -4  -5  -2 13728.4 1463.41  11
   4  -5   2 18297.8 1591.04  15
   4  -5   3 12052.3 1261.64  15
   4  -5   3 12197.4 1691.26  57
   4  -5   3 12648.7 1590.10  56
   4  -5   3 17281.7 2872.43  40
   4  -5   3 18494.2 2996.71  22
  -4  -5  -3 12780.1 1442.39  12
  -4  -5  -3 10416.1 1211.94  11
   4  -5   3 12541.9 1174.26  10
  -4  -5  -4 18716.3 1667.62  12
  -4  -5  -4 15018.2 1429.80  11
   4  -5   4 15411.0 1294.97  10
   4  -5   4 14184.4 1337.75  15
   4  -5   4 14798.0 1762.45  57
   4  -5   4 14537.1 1642.00  56
   4  -5   4 25226.3 3390.22  40
   4  -5   4 14809.6 1310.08  28
   4  -5   4 22554.6 3156.79  22
  -4  -5  -5 13152.1 1321.07  11
   4  -5   5 13071.9 1177.09  10
   4  -5   5 12697.5 1542.79  57
   4  -5   5 14707.0 1547.77  56
   4  -5   5 12356.0 1208.26  15
   4  -5   5 20727.9 2932.36  40
   4  -5   5 14226.2 1326.66  28
   4  -5   5 21969.3 2924.34  22
   4  -5   6 1280.65 365.819  10
  -4  -5  -6 1510.35 409.930  11
   4  -5   6 1114.20 400.094  57
   4  -5   6 1471.98 431.431  56
   4  -5   6 1796.90 870.537  40
   4  -5   6 1247.44 376.456  28
   4  -5   6 2146.49 860.756  22
   4  -5   6 1123.00 351.620  15
   4  -5   7 1045.27 374.602  28
   4  -5   7 569.397 247.814  10
   4  -5   7 962.992 298.124  15
   4  -5   8 3797.36 563.562  10
   4  -5   8 4447.99 715.431  28
   4  -5   9 19472.3 1233.40  10
   4  -5   9 21230.6 1529.36  28
   4  -5  10 26748.6 1339.59  10
   4  -5  10 28802.5 1696.11  28
   4  -5  11 5222.67 467.139  10
   4  -5  11 6866.29 716.186  28
   4  -5  12 1319.27 277.161  28
  -4  -5 -12 587.475 181.904   4
   4  -4 -16 11368.7 1013.39  37
   4  -4 -16 9730.22 957.042  20
   4  -4 -16 9629.46 905.383  23
   4  -4 -15 20137.1 1713.22  37
   4  -4 -15 19002.2 1681.58  20
   4  -4 -14 13464.5 971.128  14
   4  -4 -14 14630.7 1242.39  15
   4  -4 -13 510.764 316.964  36
   4  -4 -13 320.032 296.062  23
   4  -4 -13 242.119 170.035  14
   4  -4 -13 69.1231 182.030  15
   4  -4 -12 833.868 295.001  14
   4  -4 -12 790.498 367.657  15
   4  -4 -12 1269.35 520.124  23
   4  -4 -12 1541.25 637.025  36
   4  -4 -12 2277.10 816.031  32
   4  -4 -12 930.798 396.757  12
   4  -4 -11 358.521 256.905  12
   4  -4 -11 194.279 179.744  14
   4  -4 -11 43.5003 170.754  15
  -4  -4  11 226.055 149.999  63
   4  -4 -11 95.2791 409.618  36
   4  -4 -11 861.347 571.381  32
   4  -4 -11 65.9116 231.386  23
   4  -4 -10 22963.4 1690.72  14
   4  -4 -10 24408.2 1616.21  19
   4  -4 -10 27146.7 2460.47  12
   4  -4 -10 23316.0 1937.46  15
  -4  -4   9 20555.5 2000.15  13
   4  -4  -9 16626.3 1451.10  14
   4  -4  -9 18453.3 1434.85  19
   4  -4  -9 18822.4 1739.64  15
   4  -4  -9 20335.0 2128.73  12
   4  -4  -8 29946.6 2305.18  56
   4  -4  -8 37586.7 2644.69  57
   4  -4  -8 28096.4 2112.60  50
  -4  -4   8 35842.4 2699.42  13
   4  -4  -8 31478.0 1981.96  19
   4  -4  -8 31333.5 2082.34  14
   4  -4  -8 29353.6 2273.68  15
   4  -4  -8 51517.6 4560.94  40
   4  -4  -8 36504.1 2851.44  12
   4  -4  -8 52831.4 4621.23  22
   4  -4  -7 8874.77 1415.19  58
   4  -4  -7 7381.60 1240.25  57
   4  -4  -7 7696.40 1242.26  56
   4  -4  -7 6861.99 1014.72  50
   4  -4  -7 8243.84 1327.23  54
   4  -4  -7 9603.06 1880.50  42
  -4  -4   7 9052.31 1316.24  13
   4  -4  -7 9131.27 1083.80  14
   4  -4  -7 8000.10 1156.47  15
   4  -4  -7 13029.3 2365.23  40
   4  -4  -7 9311.03 1395.80  12
   4  -4  -7 13050.8 2330.56  21
   4  -4  -7 10999.4 2280.42  22
   4  -4  -6 8372.61 1419.61  58
   4  -4  -6 8908.55 1441.67  57
   4  -4  -6 6743.33 1189.67  56
   4  -4  -6 7086.99 1016.10  50
   4  -4  -6 9979.46 1546.58  54
   4  -4  -6 10183.4 2029.71  42
  -4  -4   6 9307.28 1303.48  13
   4  -4  -6 8302.12 1037.75  14
   4  -4  -6 9467.99 1255.47  15
   4  -4  -6 14884.6 2724.72  40
   4  -4  -6 15128.9 2724.06  22
   4  -4  -6 13270.8 2396.78  21
   4  -4  -6 12595.2 1883.34  24
   4  -4  -6 8408.84 1269.88  12
   4  -4  -5 7064.31 1134.60  12
   4  -4  -5 10031.7 1596.08  58
   4  -4  -5 8264.41 1353.35  56
   4  -4  -5 6178.78 1258.51  57
   4  -4  -5 6222.69 980.557  50
   4  -4  -5 6691.23 1342.57  54
   4  -4  -5 12103.5 2208.92  42
  -4  -4   5 8610.31 1195.12  13
   4  -4  -5 7300.48 967.914  14
   4  -4  -5 7534.03 1097.99  15
   4  -4  -5 10914.1 2445.09  40
   4  -4  -5 14951.8 2068.32  27
   4  -4  -5 12712.2 1971.28  24
   4  -4  -4 3138.60 907.168  58
   4  -4  -4 1883.20 768.633  57
   4  -4  -4 4469.61 1366.59  42
   4  -4  -4 2275.19 594.704  50
   4  -4  -4 2067.29 696.824  56
   4  -4  -4 3201.96 901.458  54
  -4  -4   4 2951.57 670.912  13
   4  -4  -4 2361.22 557.810  14
   4  -4  -4 2603.95 651.194  15
   4  -4  -4 3849.29 1527.18  40
   4  -4  -4 2432.33 638.631  12
   4  -4  -4 2883.48 697.209  23
   4  -4  -3 15545.8 2655.91  42
   4  -4  -3 11727.6 1320.03  50
  -4  -4   3 11794.0 1475.96  43
   4  -4  -3 11429.0 1804.41  54
   4  -4  -3 12838.9 1408.48  15
   4  -4  -3 11204.0 1203.22  14
   4  -4  -3 9083.45 1193.55  12
   4  -4  -3 12876.7 1928.44  58
   4  -4  -3 12002.4 1793.35  57
   4  -4  -3 11223.6 1628.49  56
   4  -4  -2 48582.3 2845.25  15
   4  -4  -2 46111.9 2546.27  14
   4  -4  -2 42195.8 2634.30  50
  -4  -4   2 46071.1 3067.40  43
   4  -4  -2 45040.7 3720.73  58
   4  -4  -1 29960.6 2159.87  15
   4  -4  -1 35725.0 4063.76  42
  -4  -4   1 32700.5 2519.55  43
   4  -4  -1 28435.2 2118.46  50
   4  -4   0 59573.3 3082.30  51
   4  -4   0 61233.0 4330.80  54
   4  -4   0 64657.8 3250.91  15
  -4  -4   0 47266.0 3208.89  12
   4  -4   0 56474.8 3066.23  10
   4  -4   0 58708.7 4283.33  58
   4  -4   0 55122.9 3784.89  56
   4  -4   0 61728.3 4236.45  57
   4  -4   1 8651.88 1109.89  51
   4  -4   1 10636.3 1739.30  54
   4  -4   1 11514.2 1361.64  16
   4  -4   1 10475.0 1227.16  15
   4  -4   1 10017.6 979.266  35
  -4  -4  -1 9781.89 1354.77  12
   4  -4   1 9468.78 1174.45  10
   4  -4   1 8997.00 1628.57  58
   4  -4   1 10038.1 1657.72  57
   4  -4   1 7518.66 1344.15  56
   4  -4   2 2332.00 993.532  42
   4  -4   2 1808.53 514.285  51
   4  -4   2 1948.44 713.369  56
   4  -4   2 2900.35 861.436  54
   4  -4   2 2051.43 547.682  15
   4  -4   2 2785.67 686.089  16
   4  -4   2 1678.55 398.079  35
   4  -4   2 3240.67 1436.22  40
   4  -4   2 2255.46 581.266  10
  -4  -4  -2 1492.29 547.030  12
   4  -4   2 2597.22 833.280  58
   4  -4   2 2005.85 759.477  57
   4  -4   3 6443.34 960.851  51
   4  -4   3 5607.48 1217.20  54
   4  -4   3 8370.56 1870.78  42
   4  -4   3 5723.81 1132.57  13
   4  -4   3 7058.16 1081.99  16
   4  -4   3 6749.56 969.419  15
   4  -4   3 6980.98 791.025  35
   4  -4   3 7232.03 1027.20  10
  -4  -4  -3 8226.69 1210.99  12
  -4  -4  -3 6205.81 967.808  11
   4  -4   3 5648.97 1263.10  58
   4  -4   3 5620.11 1233.00  57
   4  -4   3 5674.17 1139.25  56
   4  -4   4 11524.6 1289.75  51
   4  -4   4 11522.4 1705.91  54
   4  -4   4 17915.0 2687.04  42
   4  -4   4 10586.1 1496.18  13
   4  -4   4 11916.2 1393.92  16
   4  -4   4 10762.1 1223.68  15
   4  -4   4 17114.9 3006.73  40
   4  -4   4 11900.2 1332.90  10
  -4  -4  -4 11033.1 1348.17  12
  -4  -4  -4 13232.1 1402.06  11
   4  -4   4 13273.8 1867.32  58
   4  -4   4 9523.56 1030.95  63
   4  -4   4 10144.3 1597.90  57
   4  -4   4 12245.5 1629.09  56
   4  -4   5 28829.3 2771.28  58
   4  -4   5 30224.5 2001.64  63
   4  -4   5 35885.9 2908.82  57
   4  -4   5 31096.7 2584.16  56
   4  -4   5 34264.7 2907.94  54
   4  -4   5 49292.7 4398.28  42
   4  -4   5 31823.4 2591.22  13
   4  -4   5 33275.0 2406.42  16
   4  -4   5 32026.2 2148.91  15
   4  -4   5 55671.0 5257.27  40
   4  -4   5 35621.4 2379.13  10
  -4  -4  -5 34088.6 2351.80  12
  -4  -4  -5 30852.9 2229.31  11
   4  -4   5 54956.1 5186.94  22
   4  -4   5 50463.3 4782.82  21
   4  -4   6 11762.9 1643.53  58
   4  -4   6 11160.5 1201.95  63
   4  -4   6 12997.9 1659.81  57
   4  -4   6 11486.4 1471.74  56
   4  -4   6 12865.2 1667.62  54
   4  -4   6 13854.8 2262.89  42
   4  -4   6 12687.8 1532.07  13
   4  -4   6 13546.9 1475.37  16
   4  -4   6 11364.7 1228.74  15
   4  -4   6 17252.2 2828.91  40
   4  -4   6 13604.0 1431.20  10
  -4  -4  -6 15058.3 1474.88  11
   4  -4   6 22326.9 3206.37  22
   4  -4   6 19361.1 2787.49  21
   4  -4   7 23124.0 1984.85  56
   4  -4   7 26065.4 1881.73  63
   4  -4   7 25496.2 2168.25  57
   4  -4   7 24315.2 1923.68  52
   4  -4   7 39962.0 4033.97  40
   4  -4   7 19078.3 1901.04  13
   4  -4   7 23491.5 1949.45  16
   4  -4   7 19142.1 1595.97  15
   4  -4   7 24032.0 1922.66  10
  -4  -4  -7 25098.0 1911.74  11
   4  -4   7 39541.2 3980.83  22
   4  -4   8 13667.8 1336.30  63
   4  -4   8 17943.4 2470.71  40
   4  -4   8 12941.8 1370.11  10
  -4  -4  -8 11753.7 1274.29  11
   4  -4   8 17467.6 2370.68  22
   4  -4   8 10307.2 1273.16  16
   4  -4   9 13937.4 1430.31  16
   4  -4   9 12651.6 1361.29  10
  -4  -4  -9 13527.1 1334.35  11
   4  -4   9 14109.0 1376.03  63
   4  -4  10 3624.29 702.305  16
   4  -4  10 3557.73 666.236  63
   4  -4  10 3029.51 631.450  10
  -4  -4 -10 3075.21 602.536  11
   4  -4  11 14686.7 1342.01  16
   4  -4  11 18127.8 1442.37  63
   4  -4  11 15823.1 1249.16  53
   4  -4  11 15741.1 1368.04  10
   4  -4  12 14850.7 1255.44  16
   4  -4  12 12905.5 1153.33  63
   4  -4  12 15994.2 1137.82  53
   4  -4  12 13696.4 1186.23  10
   4  -4  13 17524.7 1424.47  28
   4  -4  13 18264.0 1271.91  16
   4  -4  13 16897.4 1204.82  10
   4  -4  14 9424.60 776.509  16
   4  -4  14 7624.92 689.724  10
   4  -4  15 1362.83 267.416  28
  -4  -4 -15 981.873 207.127   4
   4  -3 -17 3985.88 680.090  23
   4  -3 -17 4796.12 756.790  20
   4  -3 -17 4217.42 757.344  37
   4  -3 -16 2893.37 675.917  23
   4  -3 -16 1735.31 580.714  20
   4  -3 -16 2163.45 561.204  36
   4  -3 -16 2221.89 679.684  37
   4  -3 -15 10112.7 928.928  14
   4  -3 -15 15478.5 1742.24  23
   4  -3 -15 14480.0 1834.83  36
   4  -3 -14 9688.43 989.777  14
   4  -3 -14 9310.63 1201.50  15
   4  -3 -14 12010.8 1670.30  23
   4  -3 -14 11445.7 1852.02  36
   4  -3 -13 10532.5 1113.93  14
   4  -3 -13 11391.5 1382.93  15
   4  -3 -13 17036.3 2438.52  32
   4  -3 -13 15955.9 2027.20  23
   4  -3 -13 13713.5 2177.76  36
   4  -3 -12 29339.7 3329.31  36
   4  -3 -12 20664.3 1620.04  14
   4  -3 -12 23363.4 1581.59  19
   4  -3 -12 19964.3 1896.99  15
   4  -3 -12 16144.9 2024.49  12
  -4  -3  12 24963.4 2248.24  13
   4  -3 -11 40830.6 4048.01  36
   4  -3 -11 27661.4 2618.91  12
   4  -3 -11 29166.8 1979.78  14
   4  -3 -11 28955.8 1831.03  19
   4  -3 -11 30309.2 2341.51  15
  -4  -3  11 32933.1 2672.91  13
   4  -3 -11 20669.3 1754.23  50
   4  -3 -11 23619.3 2019.33  49
   4  -3 -10 14516.3 1380.55  14
   4  -3 -10 14582.5 1277.27  19
   4  -3 -10 15162.2 1623.08  15
  -4  -3  10 18987.7 1986.81  13
   4  -3 -10 16430.3 2009.38  12
  -4  -3  10 10173.3 1218.26  63
   4  -3 -10 11637.5 1312.44  50
   4  -3 -10 15021.1 1588.95  49
   4  -3  -9 6126.77 888.602  14
   4  -3  -9 7653.64 900.524  19
   4  -3  -9 7242.60 1105.88  15
   4  -3  -9 8431.67 1443.34  12
  -4  -3   9 7773.21 1308.09  13
  -4  -3   9 7447.51 1265.12  44
   4  -3  -9 6223.23 946.182  50
   4  -3  -9 7812.94 1157.19  49
   4  -3  -9 7276.19 1020.03  56
   4  -3  -9 8991.26 1145.97  57
   4  -3  -8 9148.38 1205.92  56
   4  -3  -8 11120.2 1467.61  58
   4  -3  -8 9861.60 1328.89  57
   4  -3  -8 7340.70 1028.35  50
   4  -3  -8 8771.04 1305.62  54
   4  -3  -8 13170.4 2060.29  42
  -4  -3   8 9770.74 1431.81  13
   4  -3  -8 8217.88 934.467  19
   4  -3  -8 9009.94 1058.73  14
   4  -3  -8 8443.21 1178.04  15
   4  -3  -8 12675.8 2266.14  40
   4  -3  -8 14393.8 2303.56  21
   4  -3  -8 15010.7 2383.34  22
   4  -3  -8 9854.79 1507.93  12
   4  -3  -7 34816.9 2830.93  12
   4  -3  -7 41764.5 3112.88  58
   4  -3  -7 38962.3 2852.92  57
   4  -3  -7 33495.5 2580.36  56
  -4  -3   7 32994.9 2707.06  44
   4  -3  -7 31201.2 2187.00  50
   4  -3  -7 33223.8 2759.07  54
   4  -3  -7 52095.9 4364.79  42
  -4  -3   7 39281.7 2868.56  13
   4  -3  -7 33512.0 2114.39  14
   4  -3  -7 37475.2 2512.02  15
   4  -3  -7 65635.2 5316.35  40
   4  -3  -7 59634.6 4137.16  27
   4  -3  -7 54197.4 4774.06  21
   4  -3  -7 63954.6 5358.11  22
   4  -3  -6 40269.2 2908.40  12
   4  -3  -6 44009.7 3303.04  58
   4  -3  -6 43466.1 3126.66  57
   4  -3  -6 40973.1 2905.59  56
  -4  -3   6 34594.9 2760.04  44
   4  -3  -6 34933.4 2310.42  50
   4  -3  -6 39756.5 3126.72  54
   4  -3  -6 55637.6 4622.24  42
  -4  -3   6 44541.3 2948.29  13
   4  -3  -6 41609.4 2310.97  14
   4  -3  -6 38294.5 2518.90  15
   4  -3  -6 72940.5 5880.51  40
   4  -3  -6 65047.9 4509.81  27
   4  -3  -6 64497.8 5519.73  22
   4  -3  -6 64866.2 4434.04  24
   4  -3  -6 62710.5 5248.24  21
   4  -3  -5 71735.1 4430.71  58
   4  -3  -5 79003.9 4431.54  57
   4  -3  -5 68122.1 3959.77  56
  -4  -3   5 64871.6 3834.34  44
   4  -3  -5 68383.9 3333.49  50
   4  -3  -5 71469.9 4344.42  54
   4  -3  -5 103874. 6491.10  42
  -4  -3   5 76035.3 3844.00  13
   4  -3  -5 69058.0 3113.16  14
   4  -3  -5 71906.2 3493.71  15
   4  -3  -5 113425. 7490.82  40
   4  -3  -5 72559.4 3931.15  12
   4  -3  -5 103031. 5876.36  24
   4  -3  -5 119526. 7614.07  22
   4  -3  -5 111310. 7065.12  21
  -4  -3   4 19384.6 1931.40  44
   4  -3  -4 20320.6 1651.81  50
   4  -3  -4 17216.0 2067.79  54
   4  -3  -4 27380.7 3333.84  42
  -4  -3   4 21047.5 1852.64  13
   4  -3  -4 21102.6 1523.10  14
   4  -3  -4 19688.4 1657.66  15
   4  -3  -4 17318.1 1729.81  12
   4  -3  -4 22634.8 2388.14  58
   4  -3  -4 22473.6 2321.81  57
   4  -3  -4 19679.0 2023.61  56
   4  -3  -3 44711.0 3445.92  58
   4  -3  -3 41568.1 3226.23  57
   4  -3  -3 39054.3 2935.90  56
   4  -3  -3 60368.0 4969.88  42
  -4  -3   3 42762.6 2849.83  44
   4  -3  -3 41097.4 2420.27  50
   4  -3  -3 42299.9 3316.51  54
   4  -3  -3 46305.2 2566.11  15
   4  -3  -3 42276.1 2229.31  14
  -4  -3   3 45135.7 2666.01  13
   4  -3  -3 70031.3 5997.56  40
   4  -3  -3 56594.0 3168.35  23
   4  -3  -3 36499.7 2474.56  12
   4  -3  -2 2146.56 1141.93  40
   4  -3  -2 1185.82 358.803  35
   4  -3  -2 1044.15 353.289  15
  -4  -3   2 1228.52 393.635  13
   4  -3  -2 1705.58 881.907  42
  -4  -3   2 1165.60 454.176  44
   4  -3  -2 1296.84 412.002  50
  -4  -3   2 1014.44 416.051  43
   4  -3  -2 1035.40 414.203  10
   4  -3  -2 1246.45 393.656  12
   4  -3  -1 3247.54 565.049  35
   4  -3  -1 5383.55 1708.75  40
   4  -3  -1 3959.03 722.098  16
  -4  -3   1 3479.68 611.392  13
   4  -3  -1 2930.65 575.717  15
   4  -3  -1 4766.25 1408.20  42
  -4  -3   1 3599.27 732.724  44
   4  -3  -1 3265.99 631.993  50
  -4  -3   1 2934.98 694.691  43
   4  -3  -1 3152.29 668.006  10
   4  -3   0 15282.7 1995.26  58
   4  -3   0 15188.9 1915.32  57
   4  -3   0 12792.4 1665.46  56
   4  -3   0 18208.3 2716.03  42
   4  -3   0 15581.0 1365.40  51
  -4  -3   0 17910.3 1647.76  44
   4  -3   0 15062.0 1403.43  50
  -4  -3   0 16892.3 1651.46  43
   4  -3   0 12388.8 1787.24  54
   4  -3   0 17395.2 1543.63  16
   4  -3   0 16041.1 1363.36  15
   4  -3   0 21990.4 3332.86  40
   4  -3   0 16048.5 1284.47  35
   4  -3   0 17793.6 1534.98  28
   4  -3   0 15522.8 1480.57  10
   4  -3   1 30244.2 1973.31  51
  -4  -3  -1 30354.8 2107.87  44
  -4  -3  -1 34885.3 2429.35  43
   4  -3   1 34918.3 2935.69  54
   4  -3   1 31763.0 2461.86  13
   4  -3   1 34900.1 2242.22  16
   4  -3   1 31620.0 1987.45  15
   4  -3   1 29785.2 1802.84  35
   4  -3   1 31625.0 2156.54  10
   4  -3   1 36390.6 3077.25  58
   4  -3   1 29926.2 2753.37  57
   4  -3   1 26703.0 2440.02  56
   4  -3   2 85561.0 5958.16  42
   4  -3   2 62072.7 3045.00  51
  -4  -3  -2 65749.7 3503.12  43
   4  -3   2 64477.4 4182.96  54
   4  -3   2 70323.7 3761.30  13
   4  -3   2 67922.1 3297.94  16
   4  -3   2 66729.2 3063.03  15
   4  -3   2 64051.9 2806.63  35
   4  -3   2 70507.4 3377.74  10
  -4  -3  -2 57074.2 3085.73  12
   4  -3   2 78012.0 4582.96  58
   4  -3   2 66592.3 2768.02  63
   4  -3   2 68199.1 4196.60  57
   4  -3   2 63437.1 3819.44  56
   4  -3   3 44772.4 2520.41  51
  -4  -3  -3 55488.1 3158.51  43
   4  -3   3 52198.5 3606.05  54
   4  -3   3 45749.4 2985.90  13
   4  -3   3 48709.5 2741.13  16
   4  -3   3 43309.7 2415.01  15
   4  -3   3 44463.8 2267.62  35
   4  -3   3 48759.4 2790.25  10
  -4  -3  -3 40844.8 2509.62  12
   4  -3   3 47943.4 3590.19  58
   4  -3   3 48773.6 2411.52  63
   4  -3   3 46313.9 3379.38  57
   4  -3   3 49923.7 3273.49  56
   4  -3   4 15453.6 1958.78  58
   4  -3   4 13070.7 1247.77  63
   4  -3   4 14551.0 1820.00  57
   4  -3   4 14072.0 1668.95  56
   4  -3   4 13414.4 1316.84  51
   4  -3   4 12646.2 1771.29  54
   4  -3   4 18943.9 2732.25  42
   4  -3   4 10198.2 1438.55  13
   4  -3   4 14771.6 1480.27  16
   4  -3   4 12939.2 1148.39  35
   4  -3   4 23192.1 3362.46  40
   4  -3   4 14864.7 1504.22  10
  -4  -3  -4 12786.9 1313.96  12
  -4  -3  -4 12589.4 1318.67  11
   4  -3   4 23542.1 3336.60  22
   4  -3   4 20505.3 3025.71  21
   4  -3   5 41953.3 3200.85  58
   4  -3   5 36191.9 2257.90  63
   4  -3   5 36524.6 2872.36  57
   4  -3   5 34701.4 2663.84  56
   4  -3   5 40342.4 2417.60  51
   4  -3   5 43110.8 3161.77  54
   4  -3   5 46585.0 4240.30  42
   4  -3   5 32595.8 2575.75  13
   4  -3   5 40136.5 2526.11  16
   4  -3   5 59882.4 5347.96  40
   4  -3   5 35364.9 2017.97  35
   4  -3   5 37638.4 2494.01  10
   4  -3   5 37733.0 2277.52   9
  -4  -3  -5 39090.7 2370.00  11
   4  -3   5 57691.2 5210.65  22
   4  -3   5 55316.3 4953.36  21
   4  -3   6 23706.6 2310.46  58
   4  -3   6 18355.8 1619.99  63
   4  -3   6 19544.8 2022.67  57
   4  -3   6 17258.4 1827.68  56
   4  -3   6 19190.2 1683.51  52
   4  -3   6 19028.3 1645.58  51
   4  -3   6 21256.3 2113.02  54
   4  -3   6 23501.8 2945.83  42
   4  -3   6 12971.8 1604.12  13
   4  -3   6 17303.6 1656.69  16
   4  -3   6 16101.0 1314.86  35
   4  -3   6 27481.0 3508.20  40
   4  -3   6 17051.9 1677.53  10
   4  -3   6 18352.0 1549.97   9
  -4  -3  -6 19373.3 1629.61  11
   4  -3   6 28391.5 3421.51  21
   4  -3   6 29774.4 3596.84  22
   4  -3   7 19626.3 1809.29  56
   4  -3   7 16363.0 1886.80  58
   4  -3   7 16356.0 1593.58  63
   4  -3   7 17912.5 1831.03  57
  -4  -3  -7 18023.0 1712.25  46
   4  -3   7 18349.4 1669.13  52
   4  -3   7 19381.6 1904.09  54
   4  -3   7 22908.5 2761.18  42
   4  -3   7 15969.5 1742.65  13
   4  -3   7 18438.3 1727.39  16
   4  -3   7 27333.6 3361.96  40
   4  -3   7 15332.4 1284.13  35
   4  -3   7 17653.3 1721.87  10
   4  -3   7 17442.0 1533.16   9
  -4  -3  -7 18322.4 1598.95  11
   4  -3   7 27483.2 3162.07  21
   4  -3   7 25099.9 3173.72  22
   4  -3   8 28876.0 2150.35  63
   4  -3   8 26615.2 2035.96  52
   4  -3   8 24736.9 2018.70  13
   4  -3   8 23836.5 1982.55  16
   4  -3   8 21756.8 1554.28  35
   4  -3   8 35707.0 3692.99  40
   4  -3   8 24365.8 2051.54  10
   4  -3   8 23034.3 1790.66   9
  -4  -3  -8 27284.4 1963.26  11
   4  -3   8 34729.6 3562.02  22
   4  -3   9 28100.1 2121.83  52
   4  -3   9 25169.4 2049.23  16
   4  -3   9 25407.2 1652.53  35
   4  -3   9 28239.9 2222.62  10
   4  -3   9 27205.5 1921.66   9
  -4  -3  -9 29544.2 2047.84  11
   4  -3   9 32575.9 2287.13  63
   4  -3  10 28178.9 2145.04  63
   4  -3  10 27983.8 2097.16  52
   4  -3  10 24474.4 2000.98  16
   4  -3  10 24773.1 1588.47  35
   4  -3  10 26155.6 2109.13  10
   4  -3  10 26412.0 1871.91   9
  -4  -3 -10 26103.9 1911.55  11
   4  -3  11 22507.7 1682.19  53
   4  -3  11 20336.8 1769.92  16
   4  -3  11 19457.5 1337.40  35
   4  -3  11 24616.7 1952.61  63
   4  -3  11 19190.9 1781.01  10
   4  -3  11 19421.3 1541.03   9
  -4  -3 -11 19951.6 1634.10  11
   4  -3  12 2750.36 559.679  53
   4  -3  12 2749.83 617.735  16
   4  -3  12 2070.57 390.243  35
   4  -3  12 3401.31 703.442  63
   4  -3  12 2654.51 627.410  10
   4  -3  12 2680.72 544.932   9
  -4  -3 -12 2612.01 545.876  11
   4  -3  13 1527.58 448.336  16
   4  -3  13 1903.51 512.762  63
   4  -3  13 1548.96 481.967  10
   4  -3  13 1734.79 410.878   9
   4  -3  13 2189.45 466.918  53
   4  -3  14 1593.41 407.316  16
   4  -3  14 1586.68 356.129  53
  -4  -3 -14 2097.87 458.183   4
   4  -3  14 1808.15 451.802  10
   4  -3  14 1167.03 318.994   9
   4  -3  15 10326.8 917.210  16
   4  -3  15 9122.48 966.437  28
  -4  -3 -15 9878.99 878.273   4
   4  -3  15 7942.47 846.331  10
   4  -3  16 12711.3 851.168  16
   4  -3  16 9495.88 806.100  10
   4  -3  16 10111.9 822.887  28
  -4  -3 -16 14063.8 886.482   4
   4  -2 -18 4421.74 673.171  23
   4  -2 -18 4743.56 714.779  20
  -4  -2  18 2745.17 437.913  10
   4  -2 -18 4827.36 846.544  37
   4  -2 -17 15119.6 1541.20  23
   4  -2 -17 16857.0 1750.40  20
  -4  -2  17 10826.9 1051.13  10
   4  -2 -17 14465.4 1751.46  37
   4  -2 -17 16146.3 1816.43  36
   4  -2 -16 25160.3 2244.66  23
   4  -2 -16 23537.8 2390.91  20
   4  -2 -16 25525.0 2665.28  36
   4  -2 -16 21968.2 2403.43  37
   4  -2 -15 35516.1 3302.34  37
   4  -2 -15 34920.0 3475.26  36
   4  -2 -15 39409.1 3430.67  20
   4  -2 -15 39059.1 3027.32  23
   4  -2 -14 3947.96 1238.34  36
   4  -2 -14 3010.73 600.051  14
   4  -2 -14 4462.50 1110.03  23
   4  -2 -13 4528.21 700.907  41
   4  -2 -13 3266.11 678.163  49
  -4  -2  13 6213.81 1116.92  13
   4  -2 -13 4900.48 762.398  14
   4  -2 -13 5220.70 959.078  15
   4  -2 -13 6103.64 1577.47  36
   4  -2 -13 6879.11 1710.27  32
   4  -2 -13 6558.86 1372.16  23
   4  -2 -12 10522.7 1107.77  41
   4  -2 -12 9634.58 1211.69  49
   4  -2 -12 12386.2 1265.71  14
   4  -2 -12 14705.0 1627.48  15
   4  -2 -12 21093.9 2970.02  36
   4  -2 -12 22209.4 3314.30  32
   4  -2 -12 20802.3 2475.94  23
  -4  -2  11 10756.6 1476.25  44
   4  -2 -11 8900.09 1185.15  49
   4  -2 -11 9966.89 1099.97  14
   4  -2 -11 10317.8 1349.66  15
   4  -2 -11 12322.6 2340.72  36
   4  -2 -11 16938.1 2979.64  32
   4  -2 -11 15269.4 2093.84  23
   4  -2 -10 42103.1 2343.80  14
   4  -2 -10 41129.5 2708.31  15
  -4  -2  10 39764.7 2933.61  44
   4  -2 -10 36104.8 2457.98  49
  -4  -2   9 50031.1 3324.53  44
   4  -2  -9 50999.0 2885.23  49
   4  -2  -9 50521.1 2876.51  54
   4  -2  -9 50671.6 2687.26  56
   4  -2  -9 58935.5 2954.47  57
   4  -2  -9 51803.4 3549.23  12
   4  -2  -9 50519.4 2564.91  14
   4  -2  -9 47716.7 2869.15  15
  -4  -2   9 50026.0 2261.42   1
  -4  -2   8 37415.6 1844.18   1
   4  -2  -8 38494.7 2427.12  56
   4  -2  -8 42171.6 2622.56  57
   4  -2  -8 37222.2 2365.52  49
   4  -2  -8 47645.4 3813.70  42
   4  -2  -8 43358.3 2757.14  54
   4  -2  -8 35602.0 2875.83  12
   4  -2  -8 36501.2 2036.04  14
   4  -2  -8 35366.8 2349.20  15
   4  -2  -8 57845.5 4203.01  27
   4  -2  -8 55907.5 4354.17  21
  -4  -2   7 41456.0 1935.17   1
   4  -2  -7 43706.8 2682.67  56
   4  -2  -7 50929.7 2975.95  57
   4  -2  -7 34479.9 2119.86  50
   4  -2  -7 45289.4 2567.18  49
   4  -2  -7 50237.5 3090.39  54
   4  -2  -7 56597.3 4246.10  42
   4  -2  -7 39472.3 2120.51  14
   4  -2  -7 42531.7 2516.92  15
   4  -2  -7 43234.4 3069.69  12
   4  -2  -7 74476.4 5428.38  40
   4  -2  -7 67585.3 4519.98  27
   4  -2  -7 66175.2 4827.78  21
   4  -2  -7 66757.3 4219.04  24
   4  -2  -7 75719.8 5238.91  22
   4  -2  -6 22214.9 2149.21  12
  -4  -2   6 22787.4 1326.49   1
   4  -2  -6 26515.0 2098.73  56
   4  -2  -6 28656.1 2404.21  58
   4  -2  -6 28859.6 2256.06  57
   4  -2  -6 23400.3 1619.90  50
   4  -2  -6 24508.4 1817.62  49
   4  -2  -6 25232.1 2229.08  54
   4  -2  -6 34719.4 3324.11  42
   4  -2  -6 22268.4 1723.06  15
   4  -2  -6 48171.3 4278.25  40
   4  -2  -6 40817.0 3488.20  27
   4  -2  -6 36272.5 3113.94  24
   4  -2  -6 43840.7 4110.78  22
   4  -2  -6 40353.2 3795.80  21
   4  -2  -5 1165.33 497.617  12
  -4  -2   5 1093.42 271.505   1
   4  -2  -5 963.427 473.369  58
   4  -2  -5 1361.09 515.255  57
   4  -2  -5 1791.20 781.503  42
   4  -2  -5 1147.14 336.153  50
   4  -2  -5 1033.59 415.136  56
   4  -2  -5 1329.96 518.165  54
   4  -2  -5 1451.49 389.404  15
   4  -2  -5 2359.38 950.345  40
   4  -2  -5 1217.62 328.966  33
   4  -2  -5 2936.97 897.686  27
   4  -2  -5 2191.10 754.636  24
   4  -2  -5 2327.63 953.367  21
   4  -2  -5 1322.95 700.571  22
   4  -2  -4 14841.4 1744.36  58
   4  -2  -4 14744.1 1661.19  57
   4  -2  -4 13596.9 1522.24  56
   4  -2  -4 15849.7 1232.50  35
   4  -2  -4 23079.4 2994.99  40
   4  -2  -4 15585.4 1155.16  33
  -4  -2   4 13971.3 1204.49  45
   4  -2  -4 12417.0 1131.96  50
   4  -2  -4 16091.8 1774.66  54
   4  -2  -4 18163.6 2440.87  42
   4  -2  -4 11065.2 1371.84  12
   4  -2  -4 25817.8 3106.28  21
   4  -2  -4 20932.2 1911.28  23
   4  -2  -4 25222.9 3093.23  22
   4  -2  -4 23775.6 2531.79  24
   4  -2  -3 17750.3 1925.55  58
   4  -2  -3 17851.5 1844.90  57
   4  -2  -3 17300.1 1722.75  56
  -4  -2   3 18260.9 1364.99  45
   4  -2  -3 15951.2 1272.57  50
   4  -2  -3 17485.7 1862.85  54
   4  -2  -3 28003.3 3088.02  42
   4  -2  -3 19592.4 1351.32  35
   4  -2  -3 31810.2 3529.66  40
   4  -2  -3 18119.5 1215.67  33
   4  -2  -3 13433.4 1369.40  12
   4  -2  -3 16090.2 1485.67  10
   4  -2  -3 30302.4 3340.30  21
   4  -2  -3 30256.2 3479.89  22
   4  -2  -2 26477.8 2260.55  57
  -4  -2   2 27466.8 1703.57  45
   4  -2  -2 23576.8 1561.96  50
   4  -2  -2 33842.1 3388.02  42
   4  -2  -2 22053.8 1632.86  12
   4  -2  -2 41539.0 4163.49  40
   4  -2  -2 25220.4 1569.52  35
   4  -2  -2 25936.7 1447.87  33
   4  -2  -2 38741.1 3794.64  21
   4  -2  -2 43640.9 4101.36  22
   4  -2  -2 25582.9 1807.55  10
  -4  -2   1 52472.2 2513.69  45
   4  -2  -1 50950.1 2372.51  50
   4  -2  -1 63195.2 4662.42  42
   4  -2  -1 42595.5 2222.54  12
   4  -2  -1 51200.7 2319.00  35
   4  -2  -1 78184.9 5735.96  40
   4  -2  -1 67445.8 5059.81  21
   4  -2  -1 74111.4 5408.79  22
   4  -2  -1 51343.3 2664.99  10
   4  -2   0 52787.8 2635.91  10
   4  -2   0 45308.2 2209.51  51
  -4  -2   0 48849.8 2570.78  44
  -4  -2   0 45940.2 2526.10  43
   4  -2   0 49558.0 3241.72  54
   4  -2   0 64755.8 4694.72  42
   4  -2   0 48449.4 3269.94  58
   4  -2   0 50142.8 3240.85  57
   4  -2   0 42654.5 2867.57  56
   4  -2   0 47179.9 2233.78  35
   4  -2   0 71395.5 5504.40  40
   4  -2   0 51066.6 2326.22  34
   4  -2   0 54129.2 2782.81  28
   4  -2   0 66445.3 5049.67  21
   4  -2   0 79407.7 5688.37  22
   4  -2   1 44429.4 2169.99  51
  -4  -2  -1 46517.3 2383.73  44
  -4  -2  -1 48482.9 2568.07  43
   4  -2   1 41645.3 2973.50  54
   4  -2   1 45000.3 2137.33  35
   4  -2   1 45025.2 2164.31  34
   4  -2   1 45625.5 2456.45  10
   4  -2   1 39690.1 2978.54  58
   4  -2   1 45899.6 2022.39  63
   4  -2   1 47406.5 3087.86  57
   4  -2   1 40006.7 2723.43  56
   4  -2   2 30450.4 2538.99  58
   4  -2   2 30414.6 1697.51  63
   4  -2   2 31287.6 2476.73  57
   4  -2   2 26510.8 2198.95  56
   4  -2   2 26957.3 1670.63  51
  -4  -2  -2 30170.3 1792.50  44
  -4  -2  -2 30300.3 2018.23  43
   4  -2   2 31108.2 2495.73  54
   4  -2   2 36068.5 3492.24  42
   4  -2   2 27280.2 2114.09  13
   4  -2   2 30887.0 1873.46  16
   4  -2   2 28404.5 1679.38  34
   4  -2   2 44794.1 4304.20  40
   4  -2   2 26290.3 1622.80  35
   4  -2   2 30113.0 1968.17  10
   4  -2   2 29317.6 1859.06   9
   4  -2   2 47438.2 4276.91  22
   4  -2   2 45865.0 4179.54  21
   4  -2   3 28379.9 2421.12  58
   4  -2   3 24441.1 1570.58  63
   4  -2   3 21891.3 2059.12  57
   4  -2   3 24849.1 2056.29  56
   4  -2   3 24724.9 1604.07  51
  -4  -2  -3 25109.5 1851.26  43
   4  -2   3 24316.1 2231.71  54
   4  -2   3 29495.3 3117.40  42
   4  -2   3 20084.9 1840.26  13
   4  -2   3 23501.4 1615.63  16
   4  -2   3 20031.7 1408.78  35
   4  -2   3 23380.8 1504.40  34
   4  -2   3 39402.9 3932.47  40
   4  -2   3 23550.3 1749.61  10
   4  -2   3 23272.7 1652.87   9
  -4  -2  -3 18120.6 1348.58  12
   4  -2   3 32427.6 3473.66  21
   4  -2   3 39425.4 3880.32  22
   4  -2   4 33086.1 2644.62  58
   4  -2   4 32259.5 1944.24  63
   4  -2   4 36732.0 2621.56  57
   4  -2   4 31392.4 2304.57  56
   4  -2   4 31523.7 1900.06  51
  -4  -2  -4 31236.5 2126.53  43
   4  -2   4 31687.4 2538.68  54
   4  -2   4 39428.2 3649.19  42
   4  -2   4 27174.7 2044.55  13
   4  -2   4 29797.8 1931.94  16
   4  -2   4 40480.5 4094.88  40
   4  -2   4 29608.1 1752.44  34
   4  -2   4 27344.4 1693.68  35
   4  -2   4 30980.7 2094.64  10
   4  -2   4 29279.8 1902.13   9
  -4  -2  -4 28867.5 1779.33  11
   4  -2   4 46356.8 4148.12  21
   4  -2   4 53469.6 4504.93  22
   4  -2   5 63607.1 3338.29  56
   4  -2   5 60827.6 3673.98  58
   4  -2   5 56032.9 2823.31  63
   4  -2   5 72402.0 3710.59  57
   4  -2   5 61672.9 2866.11  52
   4  -2   5 58246.8 2796.26  51
   4  -2   5 55814.8 3449.38  54
   4  -2   5 80794.5 5214.80  42
   4  -2   5 49866.5 2941.08  13
   4  -2   5 58539.5 2885.68  16
   4  -2   5 83949.8 5983.14  40
   4  -2   5 49759.5 2489.63  35
   4  -2   5 52511.7 2530.19  34
   4  -2   5 61729.9 3127.30  10
   4  -2   5 57758.3 2860.92   9
  -4  -2  -5 58117.9 2715.67  11
   4  -2   5 92460.0 5841.61  21
   4  -2   5 103922. 6282.98  22
   4  -2   6 31281.9 2285.76  56
   4  -2   6 41117.8 2406.77  63
   4  -2   6 44108.6 2785.29  57
  -4  -2  -6 39230.6 2449.84  46
   4  -2   6 34938.6 2176.05  52
   4  -2   6 45341.9 3867.79  42
   4  -2   6 39314.5 2712.41  54
   4  -2   6 27721.4 2073.60  13
   4  -2   6 35409.2 2230.59  16
   4  -2   6 48452.9 4304.30  40
   4  -2   6 32408.3 1908.36  34
   4  -2   6 37468.7 2257.69   9
  -4  -2  -6 38126.8 2111.15  11
   4  -2   6 49102.9 4240.49  21
   4  -2   6 56313.9 4645.44  22
   4  -2   7 47974.5 2741.23  56
   4  -2   7 54251.7 2928.02  63
   4  -2   7 51442.4 2981.92  57
   4  -2   7 45508.9 2637.97  52
   4  -2   7 59215.4 4357.74  42
   4  -2   7 54844.7 3159.09  54
  -4  -2  -7 51618.1 2917.33  46
   4  -2   7 35986.8 2471.60  13
   4  -2   7 47797.7 2708.22  16
   4  -2   7 68396.5 5120.17  40
   4  -2   7 47759.6 2377.29  34
   4  -2   7 45082.8 2619.88   9
  -4  -2  -7 52306.8 2584.63  11
   4  -2   7 73090.0 5038.56  21
   4  -2   7 70631.1 5123.04  22
   4  -2   8 12814.3 1405.39  63
   4  -2   8 11626.9 1288.02  52
   4  -2   8 14693.1 1995.49  42
  -4  -2  -8 10873.0 1281.92  46
   4  -2   8 7946.30 1021.13  13
   4  -2   8 9461.31 1167.80  16
   4  -2   8 9382.39 999.750  34
   4  -2   8 10975.0 1230.56   9
  -4  -2  -8 10432.0 1104.74  11
   4  -2   8 15297.5 2133.60  21
   4  -2   9 6633.26 1026.83  63
   4  -2   9 5438.84 891.615  52
  -4  -2  -9 4655.54 841.162  46
   4  -2   9 5413.13 913.153  16
   4  -2   9 5320.79 744.487  34
   4  -2   9 4868.86 835.108   9
  -4  -2  -9 5513.18 823.006  11
   4  -2   9 7780.45 1428.11  24
  -4  -2 -10 463.356 257.476  46
   4  -2  10 954.453 376.080  53
   4  -2  10 585.140 335.394  52
   4  -2  10 599.656 313.799  16
   4  -2  10 598.403 252.158  34
   4  -2  10 509.535 310.042  63
   4  -2  10 861.839 370.721   9
  -4  -2 -10 628.587 318.170  11
   4  -2  11 5050.70 931.589  63
   4  -2  11 4937.49 868.045  52
   4  -2  11 4756.29 800.436  53
   4  -2  11 3273.39 737.957  16
   4  -2  11 4274.96 638.482  34
   4  -2  11 3861.01 739.087   9
  -4  -2 -11 4486.96 749.561  11
  -4  -2 -11 3842.57 749.692   5
   4  -2  12 32518.4 2089.28  53
   4  -2  12 27726.5 2110.66  16
   4  -2  12 29530.9 1673.32  34
   4  -2  12 30588.1 2286.68  10
   4  -2  12 27379.0 2000.41   9
  -4  -2 -12 30732.8 1976.14  11
  -4  -2 -12 27669.9 1988.40   5
   4  -2  13 12558.5 1335.64  16
   4  -2  13 15360.2 1558.85  10
   4  -2  13 14194.3 1373.45   9
  -4  -2 -13 14377.1 1268.57  11
  -4  -2 -13 14086.7 1285.68   5
   4  -2  13 14111.7 1312.98  53
  -4  -2 -14 17082.8 1439.13   4
   4  -2  14 16832.8 1562.69  63
   4  -2  14 14428.4 1256.64  53
   4  -2  14 12462.7 1270.11  16
   4  -2  14 14824.9 1536.82  28
   4  -2  14 13869.4 1397.77  10
   4  -2  14 14215.5 1293.19   9
  -4  -2 -15 29017.5 1736.37   4
   4  -2  15 25711.9 1835.02  63
   4  -2  15 25373.1 1532.63  53
   4  -2  15 21120.5 1304.55  35
   4  -2  15 21829.3 1646.83  10
   4  -2  15 24339.8 1594.91   9
   4  -2  15 24096.8 1762.68  28
   4  -2  15 23893.6 1641.95  16
   4  -2  16 4152.99 641.111  63
   4  -2  16 3557.69 538.262  16
  -4  -2 -16 3737.84 548.371   4
   4  -2  16 3418.18 556.330  10
   4  -2  16 3937.52 550.586   9
   4  -2  16 3307.58 407.182  35
   4  -2  17 342.060 130.949  16
   4  -2  17 114.417 129.703  10
   4  -2  17 262.808 130.202   9
  -4  -2 -17 173.562 132.857   4
  -4  -1  19 5741.31 652.444  10
   4  -1 -19 7232.52 981.705  37
   4  -1 -18 14225.1 1419.43  20
   4  -1 -18 14162.9 1273.53  23
   4  -1 -18 11713.0 992.302  41
   4  -1 -18 15324.7 1731.03  37
   4  -1 -17 7157.62 1238.16  20
   4  -1 -17 7304.15 1118.30  23
   4  -1 -17 6207.74 817.973  41
   4  -1 -17 7659.59 1473.87  36
   4  -1 -17 7050.01 1348.45  37
   4  -1 -16 3752.48 907.564  23
   4  -1 -16 3371.06 975.174  20
   4  -1 -16 2928.05 618.877  41
   4  -1 -16 3233.67 1095.28  36
   4  -1 -16 3104.21 998.910  37
   4  -1 -15 5243.56 876.167  41
   4  -1 -15 5990.46 1440.05  37
   4  -1 -15 8087.16 1772.32  36
   4  -1 -15 6181.30 1230.93  23
   4  -1 -15 7237.98 1488.06  20
  -4  -1  15 6432.66 761.398   9
  -4  -1  14 2183.83 478.268   1
   4  -1 -14 2647.83 858.175  23
   4  -1 -14 3329.31 1078.31  20
  -4  -1  14 2639.59 715.158  13
   4  -1 -14 1865.23 561.351  41
   4  -1 -14 3010.38 1166.05  36
   4  -1 -14 4171.30 1246.25  37
   4  -1 -14 2473.53 997.304  32
  -4  -1  14 2900.18 538.035   9
   4  -1 -13 70367.0 4478.63  23
   4  -1 -13 64513.8 4839.70  20
   4  -1 -13 43715.6 2771.37  41
   4  -1 -13 40879.2 2399.31  14
   4  -1 -13 60054.1 5108.05  36
   4  -1 -13 71100.1 5920.52  32
  -4  -1  13 49886.9 2557.95   1
   4  -1 -12 50300.1 3790.73  23
   4  -1 -12 27039.7 1960.54  49
   4  -1 -12 29009.3 2196.42  41
   4  -1 -12 30484.3 1982.41  14
   4  -1 -12 45709.6 4452.41  36
   4  -1 -12 42277.0 3730.04  27
   4  -1 -12 61558.8 5612.47  32
  -4  -1  12 38749.0 2194.14   1
   4  -1 -11 42986.2 3447.37  23
   4  -1 -11 21304.2 1714.25  49
   4  -1 -11 27159.3 2049.28  41
   4  -1 -11 25704.4 1758.65  14
   4  -1 -11 26339.1 2153.94  15
   4  -1 -11 41186.3 4143.48  36
   4  -1 -11 46253.4 4967.40  32
   4  -1 -11 35838.3 3472.81  27
  -4  -1  11 32387.4 1927.20   1
   4  -1 -10 47242.6 3639.90  23
   4  -1 -10 32718.3 2221.39  41
   4  -1 -10 33924.0 2118.31  49
   4  -1 -10 36614.6 2463.97  15
   4  -1 -10 52720.5 4607.59  36
   4  -1 -10 60764.3 5713.44  32
   4  -1 -10 45170.7 3881.73  27
  -4  -1  10 40056.8 2139.53   1
   4  -1  -9 4303.81 1037.59  23
   4  -1  -9 3222.68 617.868  41
   4  -1  -9 3487.42 624.742  49
   4  -1  -9 3509.41 632.908  54
   4  -1  -9 3457.20 662.216  15
   4  -1  -9 5180.28 1387.04  36
   4  -1  -9 3853.63 1071.90  27
   4  -1  -9 5521.04 1685.60  32
  -4  -1   9 3221.24 550.703   1
  -4  -1   8 1002.93 311.732   1
   4  -1  -8 1232.96 377.513  57
   4  -1  -8 1701.99 423.172  56
   4  -1  -8 1519.05 612.133  42
   4  -1  -8 820.490 294.129  49
   4  -1  -8 1343.26 423.374  54
   4  -1  -8 1179.53 366.801  15
   4  -1  -8 1014.54 331.583  41
   4  -1  -8 1851.25 726.934  27
   4  -1  -8 2133.61 1001.09  32
   4  -1  -8 1341.77 594.922  23
   4  -1  -8 1928.09 721.877  21
  -4  -1   7 31358.9 1715.04   1
   4  -1  -7 31929.2 2046.14  56
   4  -1  -7 37685.3 2296.49  57
   4  -1  -7 30514.7 1892.34  41
   4  -1  -7 28114.5 1565.49  50
   4  -1  -7 35044.2 1938.05  49
   4  -1  -7 41557.5 3422.48  42
   4  -1  -7 31466.7 2202.51  54
   4  -1  -7 28359.2 1864.29  15
   4  -1  -7 50010.4 3759.66  27
   4  -1  -7 63790.5 5405.89  32
   4  -1  -7 56051.1 4086.04  21
   4  -1  -7 44059.4 3357.89  24
   4  -1  -6 31897.6 2057.95  56
   4  -1  -6 33463.0 2204.18  57
   4  -1  -6 25017.2 1448.88  50
   4  -1  -6 31930.4 1800.23  49
   4  -1  -6 41613.4 3401.47  42
   4  -1  -6 32448.5 2250.03  54
  -4  -1   6 27724.3 1390.84   2
   4  -1  -6 31541.9 1708.99  33
   4  -1  -6 46930.0 3565.09  27
   4  -1  -6 47435.5 3809.19  21
   4  -1  -6 36394.1 2763.40  23
   4  -1  -6 40007.6 3209.50  24
   4  -1  -5 81556.1 3585.38  56
   4  -1  -5 87693.1 3822.41  57
   4  -1  -5 75914.7 2742.77  50
   4  -1  -5 108071. 5687.12  42
   4  -1  -5 83614.9 3864.60  54
  -4  -1   5 56643.9 2482.99   2
   4  -1  -5 81259.7 3002.16  35
   4  -1  -5 80142.1 2932.95  33
   4  -1  -5 123862. 6031.92  27
   4  -1  -5 106147. 4624.83  23
   4  -1  -5 123961. 6334.75  21
  -4  -1   4 31696.1 1839.71  45
   4  -1  -4 26684.5 1434.68  50
   4  -1  -4 31093.9 2281.52  54
   4  -1  -4 41497.2 3433.15  42
   4  -1  -4 43504.0 3707.84  21
   4  -1  -4 29497.3 2044.09  56
   4  -1  -4 31166.5 2186.07  57
  -4  -1   3 34580.8 1898.24  45
   4  -1  -3 32293.2 1429.93  51
   4  -1  -3 28558.6 1475.00  50
   4  -1  -3 34796.6 2400.16  54
   4  -1  -3 32037.5 2152.43  56
   4  -1  -3 36784.3 2371.85  57
  -4  -1   2 15416.0 1218.01  45
   4  -1  -2 12294.5 833.166  51
   4  -1  -2 14919.1 2048.18  42
   4  -1  -2 13537.0 948.039  50
   4  -1  -2 17295.0 2314.00  21
   4  -1  -2 12433.1 1305.38  56
   4  -1  -2 13991.9 1437.06  57
  -4  -1   1 70173.2 2929.56  45
   4  -1  -1 66515.5 2386.04  51
   4  -1  -1 84925.7 5072.29  42
   4  -1  -1 93811.4 5552.54  21
   4  -1   0 62432.7 2244.42  51
   4  -1   0 60344.6 3269.20  54
   4  -1   0 68728.3 4536.08  42
   4  -1   0 80893.1 5090.24  21
   4  -1   0 54819.1 2950.71  56
   4  -1   0 64620.4 3498.20  58
   4  -1   0 50405.0 2122.22  63
   4  -1   0 65983.5 3319.53  57
   4  -1   1 183589. 5107.57  51
  -4  -1  -1 192514. 5605.43  43
   4  -1   1 188767. 6626.45  54
   4  -1   1 176226. 6138.04  56
   4  -1   1 187355. 5281.56  63
   4  -1   1 192932. 6510.01  57
   4  -1   2 81612.0 2995.65  52
   4  -1   2 93304.0 3150.75  51
  -4  -1  -2 103605. 3574.26  43
   4  -1   2 92828.9 4227.64  54
   4  -1   2 110293. 5812.25  42
   4  -1   2 93099.8 3966.93  56
   4  -1   2 87402.6 3249.21  63
   4  -1   2 98366.5 4230.88  57
   4  -1   2 124267. 6427.84  21
   4  -1   3 22873.0 1777.56  56
   4  -1   3 22430.3 1512.98  63
   4  -1   3 32218.5 2199.47  57
   4  -1   3 21947.9 1383.28  34
  -4  -1  -3 24411.4 1694.37  46
   4  -1   3 21270.4 1341.01  52
  -4  -1  -3 23739.4 1549.80  43
   4  -1   3 25549.9 2031.47  54
   4  -1   3 29450.4 2928.07  42
   4  -1   3 23198.7 1557.88   9
  -4  -1  -3 19676.6 1208.21  11
   4  -1   4 22274.0 1746.13  56
   4  -1   4 22114.0 1561.90  63
   4  -1   4 26645.3 1992.31  57
   4  -1   4 19915.1 1351.14  34
   4  -1   4 21256.3 1406.02  52
   4  -1   4 28454.2 2846.37  42
   4  -1   4 26282.7 2049.70  54
   4  -1   4 23957.7 1694.51  10
   4  -1   4 20890.9 1516.98   9
  -4  -1  -4 23158.0 1340.98  11
   4  -1   5 33600.5 2135.27  56
   4  -1   5 28899.4 1906.61  63
   4  -1   5 34419.6 2270.80  57
   4  -1   5 28845.7 1744.08  52
   4  -1   5 41687.5 3493.52  42
   4  -1   5 34440.2 2341.50  54
   4  -1   5 26906.5 1646.57  34
   4  -1   5 41970.5 3779.51  40
   4  -1   5 25393.8 1435.54  33
   4  -1   5 41786.5 3618.59  21
   4  -1   5 40312.3 3594.68  22
   4  -1   5 38029.3 3167.80  24
   4  -1   5 32308.2 2033.12  10
   4  -1   5 30507.2 1913.33   9
  -4  -1  -5 30652.0 1605.84  11
   4  -1   6 888.539 352.684  10
   4  -1   6 633.178 296.528   9
  -4  -1  -6 822.235 270.859  11
   4  -1   6 881.705 361.362  57
   4  -1   6 655.775 310.675  63
  -4  -1  -6 961.627 379.041  46
   4  -1   6 772.244 452.070  42
   4  -1   6 1125.16 351.611  52
   4  -1   6 1070.40 366.811  56
   4  -1   6 671.226 342.718  54
   4  -1   6 553.719 251.103  17
   4  -1   6 590.061 238.141  16
   4  -1   6 1061.72 589.476  40
   4  -1   6 754.080 268.971  34
   4  -1   6 772.440 226.535  33
   4  -1   6 1382.66 648.749  22
   4  -1   6 931.732 566.696  21
   4  -1   6 1412.19 584.407  24
   4  -1   7 6678.04 855.134  56
   4  -1   7 6117.77 921.545  63
   4  -1   7 5942.71 897.034  57
   4  -1   7 6191.21 845.854  52
   4  -1   7 7573.11 1421.64  42
   4  -1   7 7299.47 1001.64  54
  -4  -1  -7 6243.76 930.604  46
   4  -1   7 5394.41 775.120  16
   4  -1   7 5515.42 765.546  17
   4  -1   7 5244.71 612.230  33
   4  -1   7 5855.44 757.082  34
   4  -1   7 9366.20 1727.76  40
   4  -1   7 6801.26 954.323  10
   4  -1   7 4741.72 786.003   9
  -4  -1  -7 5449.34 688.086  11
   4  -1   7 9595.04 1678.47  21
   4  -1   7 8444.72 1576.03  22
   4  -1   7 8162.91 1390.67  24
   4  -1   8 51232.9 2878.89  63
   4  -1   8 51244.7 2633.58  52
   4  -1   8 51276.9 3705.69  42
  -4  -1  -8 41305.3 2585.46  46
   4  -1   8 48520.2 2513.50  53
   4  -1   8 38568.5 2318.47  16
   4  -1   8 40582.1 2262.90  17
   4  -1   8 38421.7 1906.27  33
   4  -1   8 40535.8 2195.31  34
   4  -1   8 44669.6 2679.81  10
   4  -1   8 40163.8 2454.33   9
  -4  -1  -8 44090.7 2189.39  11
   4  -1   9 14179.6 1087.65  33
   4  -1   9 17123.1 1371.61  34
   4  -1   9 16627.9 1488.26  16
   4  -1   9 15846.6 1376.22  17
   4  -1   9 19905.5 1646.44  52
  -4  -1  -9 16762.3 1630.19  46
   4  -1   9 20699.2 1610.43  53
   4  -1   9 15530.5 1573.71  10
   4  -1   9 17021.5 1572.84   9
  -4  -1  -9 17739.4 1353.68  11
   4  -1  10 68412.9 3187.42  53
   4  -1  10 53915.0 2947.40  16
   4  -1  10 55722.6 2787.27  17
   4  -1  10 57368.9 2757.17  34
  -4  -1 -10 64613.6 3197.03   5
   4  -1  10 57056.2 3205.33  10
   4  -1  10 55396.3 3080.04   9
  -4  -1 -10 57951.2 2693.52  11
   4  -1  11 29702.6 2061.57  53
   4  -1  11 25917.0 1981.40  16
   4  -1  11 26416.8 1826.00  17
   4  -1  11 26279.9 1756.74  34
  -4  -1 -11 30902.3 2119.75   5
   4  -1  11 25027.0 2086.28  10
   4  -1  11 25737.6 2048.96   9
  -4  -1 -11 28536.6 1806.10  11
   4  -1  12 16662.3 1751.46  63
   4  -1  12 14756.0 1413.53  53
   4  -1  12 10602.7 1244.61  16
   4  -1  12 11983.3 1197.09  17
   4  -1  12 12248.8 1168.87  34
   4  -1  12 13101.7 1460.54  10
   4  -1  12 11208.4 1332.01   9
  -4  -1 -12 13871.7 1231.96  11
  -4  -1 -12 15655.8 1460.05   4
  -4  -1 -12 13767.3 1396.01   5
  -4  -1 -13 7266.48 973.980   4
  -4  -1 -13 6350.36 926.351   5
   4  -1  13 7262.77 1112.63  63
   4  -1  13 6845.35 939.955  53
   4  -1  13 5885.50 904.221  16
   4  -1  13 5941.20 775.692  34
   4  -1  13 7655.49 1140.70  28
   4  -1  13 6210.38 982.205  10
   4  -1  13 6889.03 1013.79   9
  -4  -1 -14 7634.25 979.378   4
  -4  -1 -14 7914.60 943.218   5
   4  -1  14 8163.01 1141.00  63
   4  -1  14 8204.84 980.052  53
   4  -1  14 6775.35 763.474  34
   4  -1  14 6981.27 995.909  10
   4  -1  14 6157.86 922.992   9
   4  -1  14 6499.39 1002.21  28
   4  -1  14 5917.21 883.168  16
   4  -1  15 21492.5 1769.79  63
   4  -1  15 15921.8 1079.49  34
   4  -1  15 16168.5 1445.73  10
   4  -1  15 15211.8 1398.70   9
  -4  -1 -15 21403.7 1530.51   4
   4  -1  15 15626.9 1337.39  16
   4  -1  16 14760.2 1340.94  63
   4  -1  16 12985.4 1140.21  10
   4  -1  16 12844.7 1156.72   9
  -4  -1 -16 16253.9 1223.58   4
   4  -1  16 11937.6 1040.16  16
  -4  -1 -17 6060.66 664.472   4
   4  -1  17 4602.72 561.433  10
   4  -1  17 6234.39 703.620   9
   4  -1  17 5226.22 675.706  63
   4  -1  18 14309.8 722.181  35
  -4  -1 -18 18925.4 935.611   4
   4  -1  18 17423.8 974.423   9
  -4  -1 -18 8234.53 717.826  41
  -4   0  20 42.9104 86.9646  10
  -4   0  19 2543.26 320.938   9
   4   0 -19 3354.55 512.382  41
   4   0 -19 3331.37 706.598  37
   4   0 -18 2855.01 572.510  41
   4   0 -18 2933.26 613.360  20
  -4   0  18 3021.76 457.387   9
   4   0 -18 2429.54 767.644  37
   4   0 -17 30796.0 2112.76  41
   4   0 -17 29668.3 2152.45  23
   4   0 -17 31587.5 2581.47  20
  -4   0  17 32110.5 1804.96   9
   4   0 -16 22876.6 1940.81  41
   4   0 -16 32836.7 3494.68  36
   4   0 -16 26683.0 2924.55  37
   4   0 -16 24483.8 2543.96  20
   4   0 -16 25978.6 2272.10  23
  -4   0  16 25414.5 1717.26   9
   4   0 -15 44871.3 2924.50  41
  -4   0  15 45898.7 2533.59   1
   4   0 -15 52037.3 4556.24  32
   4   0 -15 51501.0 4019.22  20
   4   0 -15 49044.1 3463.73  23
   4   0 -15 54939.7 4416.07  37
   4   0 -15 56906.4 4919.20  36
  -4   0  14 263.697 229.106   1
   4   0 -14 108.532 425.967  37
   4   0 -14 320.156 264.945  41
   4   0 -14 784.356 648.953  36
   4   0 -14 634.459 454.625  27
   4   0 -14 693.631 544.450  32
   4   0 -14 303.568 326.312  23
   4   0 -14 98.6379 346.280  20
   4   0 -13 18753.8 1867.71  41
  -4   0  13 19989.2 1654.21   1
   4   0 -13 19933.2 2819.43  27
   4   0 -13 29331.3 3826.91  32
   4   0 -13 21809.8 2744.32  20
   4   0 -13 23457.5 2504.11  23
   4   0 -13 24355.0 2997.89  37
   4   0 -13 24244.8 3252.98  36
  -4   0  12 223.408 172.968   1
   4   0 -12 525.411 609.945  36
   4   0 -12 210.728 261.562  41
   4   0 -12 159.529 559.984  32
   4   0 -12 466.180 457.396  27
   4   0 -12 321.350 373.073  23
   4   0 -12 103.352 362.809  20
   4   0 -11 9743.25 1281.68  41
  -4   0  11 10578.0 1138.09   1
   4   0 -11 13255.2 2367.42  36
   4   0 -11 17519.7 3034.61  32
   4   0 -11 12887.7 2206.88  27
   4   0 -11 12452.9 1792.49  23
   4   0 -11 14044.0 2177.79  20
   4   0 -10 44615.5 2788.75  41
   4   0 -10 69527.7 6032.32  32
   4   0 -10 52467.3 4410.99  27
   4   0 -10 61291.5 4466.76  20
   4   0 -10 59720.0 3909.39  23
  -4   0  10 46984.5 2454.54   1
  -4   0  10 44057.5 2075.77   6
   4   0  -9 82385.1 3795.65  41
   4   0  -9 84986.0 3439.11  54
  -4   0   9 85102.4 3342.70   1
  -4   0   9 71936.7 2902.79   6
   4   0  -9 130550. 8190.12  32
   4   0  -9 70924.0 3631.56  28
   4   0  -9 103320. 6140.27  27
   4   0  -9 101962. 5134.80  23
   4   0  -9 101967. 5722.39  20
   4   0  -8 6332.45 777.805  56
   4   0  -8 5849.36 880.853  41
   4   0  -8 6257.20 868.513  54
  -4   0   8 5176.31 701.497   1
  -4   0   8 5059.13 580.920   2
  -4   0   8 3947.85 569.711   6
   4   0  -8 6298.31 732.108  33
   4   0  -8 6973.82 1488.95  36
   4   0  -8 8466.90 1954.77  32
   4   0  -8 7936.27 1552.13  27
   4   0  -8 5734.04 874.172  28
   4   0  -8 5705.06 1129.91  23
   4   0  -8 7735.85 1428.14  20
   4   0  -8 8578.82 1532.99  21
   4   0  -8 8264.45 1462.55  24
   4   0  -7 33320.5 2051.87  57
   4   0  -7 30386.9 1867.55  56
   4   0  -7 30231.4 1988.63  41
   4   0  -7 25261.7 1352.39  49
   4   0  -7 31301.7 2055.63  54
  -4   0   7 28551.1 1521.96   2
  -4   0   7 27624.3 1653.74   1
   4   0  -7 30748.1 1656.38  33
   4   0  -7 34129.5 3309.88  36
   4   0  -7 28464.2 1726.35  26
   4   0  -7 26954.0 1969.22  28
   4   0  -7 38913.2 3374.50  27
   4   0  -7 46209.4 4572.14  32
   4   0  -7 32871.3 2630.52  23
   4   0  -7 40361.9 3467.91  21
   4   0  -7 35669.1 3058.53  24
   4   0  -7 32634.1 1687.28  25
   4   0  -6 50564.0 2648.88  57
   4   0  -6 49811.1 2492.55  56
   4   0  -6 51164.5 3767.80  42
   4   0  -6 47871.1 2654.25  54
  -4   0   6 42430.9 2014.30   2
   4   0  -6 57475.8 4035.41  36
   4   0  -6 43184.3 2028.08  33
   4   0  -6 60301.1 4118.35  27
   4   0  -6 46023.8 2186.24  26
   4   0  -6 67506.1 5417.19  32
   4   0  -6 51291.2 3231.44  23
   4   0  -6 60254.4 4253.66  21
   4   0  -6 43309.1 3265.09  20
   4   0  -5 14796.5 1999.72  42
   4   0  -5 12941.3 1309.13  54
  -4   0   5 9370.74 749.598  46
   4   0  -5 11579.1 1205.40  57
   4   0  -5 10994.5 1114.56  56
   4   0  -5 15758.9 2148.94  21
  -4   0   5 10823.4 937.362   2
  -4   0   4 27817.4 1700.43  45
   4   0  -4 31195.4 2885.61  42
   4   0  -4 24887.8 1895.95  54
  -4   0   4 24640.4 1346.84  46
   4   0  -4 26811.5 1888.39  57
   4   0  -4 26036.2 1770.22  56
  -4   0   4 25321.4 1477.51   2
   4   0  -3 113900. 4393.07  57
   4   0  -3 108651. 4173.63  56
  -4   0   3 107424. 3863.06  45
   4   0  -3 115638. 4538.02  54
  -4   0   3 108698. 3598.44  46
   4   0  -2 22918.8 1682.12  56
   4   0  -2 25804.4 1863.68  57
   4   0  -2 32255.5 3093.83  21
  -4   0   2 26652.5 1601.94  45
   4   0  -2 28016.8 2785.52  42
  -4   0   2 26047.3 1484.46  46
   4   0  -1 164323. 7263.08  42
  -4   0   1 147421. 4697.55  46
   4   0   0 25697.7 1776.77  56
   4   0   0 26523.5 1882.85  57
   4   0   0 30925.0 3023.30  21
   4   0   0 25587.9 2617.45  42
   4   0   0 26788.2 1979.68  54
   4   0   0 22182.6 1158.59  53
  -4   0   0 26517.7 1587.26  46
   4   0   1 9588.33 912.313  63
   4   0   1 13474.0 1271.02  56
   4   0   1 15346.5 1409.80  57
  -4   0  -1 14040.2 931.690  43
   4   0   1 14951.2 1438.13  54
   4   0   1 8921.70 745.646  53
  -4   0  -1 12708.1 1112.95  46
   4   0   2 8676.86 1058.66  57
   4   0   2 5899.46 750.645  63
   4   0   2 8505.55 981.105  56
   4   0   2 11458.0 1830.13  21
   4   0   2 5034.38 508.545  52
  -4   0  -2 8921.80 737.411  43
   4   0   2 9445.25 1623.01  42
   4   0   2 9236.21 1128.34  54
   4   0   2 5749.46 621.755  53
  -4   0  -2 7740.40 876.806  46
   4   0   3 67942.8 3120.24  57
   4   0   3 66125.8 2944.17  56
   4   0   3 50834.3 2531.20  63
   4   0   3 87447.2 5195.27  21
   4   0   3 46430.5 1999.75  52
   4   0   3 62376.1 3137.43  54
   4   0   3 50966.7 2213.26  53
  -4   0  -3 64078.3 2841.36  46
   4   0   3 75081.2 4607.49  42
   4   0   4 15074.2 1402.94  57
   4   0   4 15350.8 1320.21  56
   4   0   4 11823.3 1154.86  63
   4   0   4 17553.4 2301.39  21
   4   0   4 17205.9 2165.63  42
   4   0   4 14101.8 1410.18  54
  -4   0  -4 11510.5 1172.86  46
   4   0   4 11956.4 999.114  53
   4   0   5 39237.7 2153.55   9
   4   0   5 49683.4 2639.01  57
   4   0   5 31491.4 2173.32  63
   4   0   5 48569.9 2429.22  56
   4   0   5 45463.7 3585.49  42
   4   0   5 48660.2 2660.71  54
   4   0   5 39811.7 2015.64  53
   4   0   5 36382.2 1926.51  34
   4   0   5 36107.0 1819.62  33
   4   0   5 41894.3 2534.05  28
   4   0   5 50328.3 3940.51  21
   4   0   6 29209.0 1816.18  10
   4   0   6 29117.5 1862.64   9
  -4   0  -6 27898.1 1795.73   5
   4   0   6 34148.1 1995.73  56
   4   0   6 37785.9 2220.47  57
   4   0   6 24930.5 1862.96  63
   4   0   6 30640.8 2101.92  54
   4   0   6 30497.0 1797.66  53
   4   0   6 26874.3 1707.10  17
   4   0   6 27593.5 1675.13  34
   4   0   6 28862.2 2130.57  28
   4   0   6 25373.1 1516.64  33
   4   0   6 27409.8 1621.22  26
   4   0   6 41267.8 3514.19  21
   4   0   7 87394.6 3559.09  10
   4   0   7 82136.3 3498.50   9
  -4   0  -7 79925.1 3462.55   5
   4   0   7 99201.7 3798.46  57
   4   0   7 82246.2 3311.53  56
   4   0   7 96479.4 3834.59  54
  -4   0  -7 84198.0 3799.38  46
   4   0   7 70656.7 3080.14  34
   4   0   7 74406.5 3189.62  17
   4   0   7 74483.6 3061.08  26
   4   0   7 69890.1 3647.29  28
   4   0   7 72666.2 2942.05  33
   4   0   7 118737. 6031.83  21
   4   0   8 32168.7 1998.63  17
   4   0   8 33496.7 1974.42  34
   4   0   8 35487.7 1966.63  26
   4   0   8 30336.0 1773.67  33
   4   0   8 35487.5 2455.99  28
   4   0   8 36646.6 2216.41  10
   4   0   8 34106.2 2208.32   9
   4   0   9 2688.42 696.382  63
   4   0   9 3546.95 664.283  53
   4   0   9 3089.90 565.851  16
   4   0   9 2808.21 574.784  17
   4   0   9 3067.47 594.343  34
   4   0   9 3941.92 780.910  28
   4   0   9 3051.83 569.731  26
   4   0   9 3059.89 534.642  33
   4   0   9 3077.06 618.649  10
   4   0   9 2491.07 595.309   9
  -4   0 -10 15160.3 1313.72   4
  -4   0 -10 12976.6 1362.18   5
   4   0  10 13908.4 1583.09  63
   4   0  10 15479.9 1418.30  53
   4   0  10 9950.83 1093.25  16
   4   0  10 10855.3 1174.95  17
   4   0  10 13238.1 1247.97  34
   4   0  10 14370.4 1547.74  28
   4   0  10 10286.5 1016.46  33
   4   0  10 11054.4 1118.30  26
   4   0  10 10953.2 1235.65  10
   4   0  10 11683.5 1313.94   9
  -4   0 -11 21348.5 1586.52   4
  -4   0 -11 21006.9 1745.01   5
   4   0  11 18531.0 1836.74  63
   4   0  11 18977.8 1646.56  53
   4   0  11 15304.7 1404.94  16
   4   0  11 16351.3 1473.17  17
   4   0  11 17819.7 1473.95  34
   4   0  11 18795.6 1750.62  28
   4   0  11 14779.8 1244.13  33
   4   0  11 15344.7 1338.66  26
   4   0  11 17026.6 1577.69  10
   4   0  11 15920.8 1596.89   9
   4   0  12 71501.8 3486.15  10
  -4   0 -12 86020.1 3540.23   4
  -4   0 -12 76885.3 3600.90   5
   4   0  12 82203.4 4113.63  63
   4   0  12 82497.1 3671.30  53
   4   0  12 68133.8 3278.18  16
   4   0  12 74560.9 3404.57  17
   4   0  12 77156.9 3359.13  34
   4   0  12 82889.1 3844.33  28
   4   0  12 69256.5 2959.11  33
   4   0  12 66562.5 3103.43  26
  -4   0 -12 73532.1 3219.28  19
   4   0  13 16361.9 1508.56  10
  -4   0 -13 16789.3 1431.20   4
  -4   0 -13 16090.7 1505.36   5
   4   0  13 16114.4 1709.62  63
   4   0  13 15793.8 1463.20  53
   4   0  13 14391.8 1352.18  16
   4   0  13 13694.9 1326.57  17
   4   0  13 16562.1 1392.43  34
   4   0  13 14031.7 1147.59  33
   4   0  13 16695.2 1502.75  28
   4   0  13 13254.7 1213.53  26
  -4   0 -13 14959.2 1318.16  19
   4   0  14 2294.11 521.214  10
   4   0  14 2292.62 620.203  63
   4   0  14 2234.32 488.531  16
   4   0  14 2418.66 523.217  17
  -4   0 -14 2070.92 492.598   4
  -4   0 -14 2419.15 528.603   5
   4   0  14 2384.93 443.357  33
   4   0  14 1998.72 450.614  34
   4   0  14 2040.85 459.949  26
  -4   0 -14 2094.02 448.017  19
  -4   0 -15 19952.2 1459.05   4
   4   0  15 18183.3 1391.16  17
   4   0  15 19165.2 1705.57  63
   4   0  15 18960.7 1330.91  34
   4   0  15 16708.8 1090.29  33
   4   0  15 18138.9 1260.02  26
   4   0  15 17590.7 1372.81  10
   4   0  16 3118.23 513.062  17
   4   0  16 2775.79 442.714  34
  -4   0 -16 2250.75 561.825   3
  -4   0 -16 3335.35 535.840   4
   4   0  16 2481.24 394.507  26
  -4   0 -17 162.551 196.300   3
  -4   0 -17 774.839 244.287   4
   4   0  17 569.852 158.067  34
  -4   0 -18 4302.07 528.256   3
  -4   0 -18 3957.23 474.559  41
  -4   1  19 8334.44 683.680   9
   4   1 -19 9165.09 1136.03  37
  -4   1  18 14471.5 1093.14   9
   4   1 -18 16391.5 1819.83  37
   4   1 -17 6552.81 1026.97  20
  -4   1  17 6928.82 836.202   9
   4   1 -17 8609.55 1496.18  37
   4   1 -16 4608.60 1198.76  37
   4   1 -16 3277.65 901.259  20
   4   1 -16 2362.05 493.898   4
   4   1 -15 5536.87 1243.55  20
   4   1 -15 6268.04 1486.95  37
  -4   1  15 4577.72 587.725  17
   4   1 -15 7347.45 1680.07  32
   4   1 -15 4515.80 738.905   4
   4   1 -14 1404.35 657.786  20
   4   1 -14 1409.94 540.628  23
   4   1 -14 2106.83 1007.68  36
   4   1 -14 1075.90 731.798  37
  -4   1  14 1036.97 296.046  17
   4   1 -14 2151.92 975.503  32
   4   1 -14 2183.71 999.018  27
  -4   1  14 1311.37 418.117   1
   4   1 -14 1219.98 385.465   4
   4   1 -13 53571.9 3680.60  23
   4   1 -13 59810.4 4519.05  20
   4   1 -13 58487.7 4682.18  37
   4   1 -13 65042.2 5443.54  36
   4   1 -13 62267.8 5229.71  27
   4   1 -13 74255.6 6236.08  32
   4   1 -13 41517.5 2583.87   4
  -4   1  13 52490.5 2786.33   1
  -4   1  13 48866.1 2380.88  17
   4   1 -12 36586.8 3065.37  23
   4   1 -12 38467.2 3589.69  20
   4   1 -12 24876.9 1932.47   4
  -4   1  12 32863.5 1887.68   6
  -4   1  12 30768.7 2102.38   1
   4   1 -12 29641.0 1690.34  29
   4   1 -12 38293.2 4128.38  27
   4   1 -12 46044.8 5033.35  32
   4   1 -11 33712.4 3359.05  20
   4   1 -11 32330.5 2865.07  23
   4   1 -11 27164.2 1637.68  29
   4   1 -11 34715.1 3851.31  27
   4   1 -11 24079.3 1858.66   4
  -4   1  11 32790.7 1895.72   6
  -4   1  11 29392.6 1978.42   1
   4   1 -10 38676.4 3144.32  23
   4   1 -10 42707.9 3837.66  24
   4   1 -10 37426.8 3517.96  20
   4   1 -10 34149.3 1904.20  29
   4   1 -10 59144.1 5637.72  32
   4   1 -10 43729.6 4310.11  27
   4   1 -10 32542.8 2134.23   4
  -4   1  10 36796.3 2199.54   1
  -4   1  10 39389.4 1994.75   2
  -4   1  10 39344.7 2166.73   6
   4   1 -10 49580.8 4541.92  36
   4   1 -10 44919.7 3869.78  37
   4   1  -9 4280.57 1005.43  23
   4   1  -9 4604.74 1146.19  20
   4   1  -9 4554.14 1207.77  24
   4   1  -9 5606.12 1422.78  27
   4   1  -9 3577.26 811.813  28
   4   1  -9 3766.85 579.067  29
   4   1  -9 6333.76 1759.74  32
   4   1  -9 4043.44 667.409   4
  -4   1   9 3429.00 566.941   2
  -4   1   9 5133.48 723.413   6
   4   1  -9 4785.34 1243.61  37
   4   1  -9 5856.76 1455.16  36
   4   1  -8 1186.13 309.687  25
   4   1  -8 692.243 459.813  24
   4   1  -8 885.078 447.720  23
   4   1  -8 1821.47 746.136  20
   4   1  -8 1083.62 348.744  26
   4   1  -8 1764.28 751.362  36
   4   1  -8 1199.45 300.814  33
   4   1  -8 1098.42 535.201  37
   4   1  -8 1667.26 882.578  32
   4   1  -8 1287.73 461.571  28
   4   1  -8 1337.44 329.546  29
   4   1  -8 1431.97 749.105  27
   4   1  -8 1246.73 283.482  30
  -4   1   8 1130.03 328.020   2
   4   1  -8 1081.57 331.293   4
  -4   1   8 849.228 320.266   6
   4   1  -7 33327.0 1999.21  56
   4   1  -7 37539.0 2310.08  54
   4   1  -7 31900.7 2664.73  23
   4   1  -7 32943.0 3011.86  20
   4   1  -7 45222.7 3740.40  22
   4   1  -7 44109.2 3666.67  24
   4   1  -7 35627.9 1758.79  25
   4   1  -7 45146.7 3862.39  21
   4   1  -7 33650.0 1758.85  38
   4   1  -7 42831.7 3940.44  40
   4   1  -7 27452.4 2712.51  37
   4   1  -7 33466.5 1671.69  33
   4   1  -7 35602.4 3361.30  36
   4   1  -7 47734.6 4756.61  32
   4   1  -7 32577.5 1634.36  30
   4   1  -7 33887.2 1646.33  31
   4   1  -7 27768.4 1652.65  29
   4   1  -7 38443.7 3628.03  27
   4   1  -7 31702.6 2330.27  28
   4   1  -7 28313.9 1763.03   4
  -4   1   7 38328.8 1936.37   2
  -4   1   7 26811.6 1730.59   6
  -4   1   6 32136.0 1761.54   2
   4   1  -6 30617.6 1917.39  56
   4   1  -6 28475.7 2018.36  55
   4   1  -6 30947.6 2084.53  54
   4   1  -6 19326.5 1838.36  59
   4   1  -6 27864.5 1546.27  39
   4   1  -6 22160.6 2279.07  37
   4   1  -6 29320.1 2892.04  36
   4   1  -6 29180.1 1516.14  33
   4   1  -6 33494.2 3240.33  27
   4   1  -6 25645.9 1511.62  29
   4   1  -6 42665.2 4253.41  32
   4   1  -6 28697.6 1509.31  31
   4   1  -6 28235.1 2075.77  28
   4   1  -6 29517.4 1554.42  25
   4   1  -6 38101.9 3560.34  21
   4   1  -6 29330.8 2422.55  23
   4   1  -6 32152.7 3098.58  24
  -4   1   5 97235.0 3363.71   2
   4   1  -5 86730.5 3508.67  56
   4   1  -5 82166.6 3744.64  55
   4   1  -5 85851.9 3791.59  54
   4   1  -5 63858.3 3611.05  59
   4   1  -5 84396.9 2980.25  39
   4   1  -5 73758.9 2901.05  29
   4   1  -5 82602.2 2914.13  31
   4   1  -5 76390.8 3684.08  28
   4   1  -5 115329. 6320.80  21
   4   1  -5 86102.8 2958.80  25
   4   1  -5 86171.4 4371.15  23
   4   1  -5 80833.2 4588.86  20
   4   1  -5 108347. 5737.53  24
   4   1  -4 29807.1 1900.18  56
   4   1  -4 22754.2 1933.82  59
  -4   1   4 32944.8 1805.61   2
   4   1  -4 30137.2 2073.43  55
   4   1  -4 28943.2 2054.23  54
   4   1  -4 27214.1 1471.30  31
   4   1  -4 38086.4 3541.79  21
   4   1  -3 36789.1 2133.06  56
   4   1  -3 35075.7 2387.15  59
  -4   1   3 41703.8 2048.80   2
   4   1  -3 35517.2 2316.31  55
   4   1  -3 34997.4 2272.78  54
   4   1  -3 32196.4 1656.97  31
  -4   1   2 12459.1 823.201   5
  -4   1   2 14260.1 1154.72   2
  -4   1   2 13357.5 1107.72  45
   4   1  -2 12448.3 1276.95  55
   4   1  -2 13262.9 1329.19  57
   4   1  -2 12567.8 1384.36  59
   4   1  -2 12874.4 1229.06  56
   4   1  -1 62590.2 3340.47  59
  -4   1   1 69952.2 2431.37   5
  -4   1   1 79359.2 2933.49  45
   4   1  -1 67589.6 3223.86  55
   4   1  -1 60341.0 2444.18  31
   4   1  -1 79345.5 5232.99  21
   4   1   0 57605.5 2965.10  57
   4   1   0 53195.9 2725.68  56
   4   1   0 59619.7 3142.45  59
  -4   1   0 59137.7 2263.00   5
  -4   1   0 56510.2 2443.42  45
   4   1   0 57267.8 2910.66  55
   4   1   0 53954.5 2910.46  54
   4   1   0 52937.3 2182.49  31
   4   1   0 61684.2 4569.72  21
  -4   1  -1 184139. 5174.82   5
   4   1   1 166255. 4833.59  53
  -4   1  -1 181465. 5363.27  45
   4   1   1 194222. 6305.03  54
   4   1   1 174620. 5039.93  31
   4   1   1 182786. 5817.65  56
   4   1   1 197387. 6253.27  57
   4   1   2 91429.0 3667.21  56
   4   1   2 81074.9 3927.79  59
  -4   1  -2 87261.0 3141.40   5
   4   1   2 74590.8 2821.82  53
  -4   1  -2 85617.8 3197.00  45
   4   1   2 86454.2 3818.51  55
   4   1   2 97657.4 4033.87  54
   4   1   2 88255.9 2997.19  31
   4   1   2 103617. 6027.73  21
   4   1   3 22772.2 1643.17  56
   4   1   3 16090.2 1676.99  59
   4   1   3 16601.2 1175.79  53
   4   1   3 20823.8 1749.75  55
   4   1   3 21742.9 1763.09  54
  -4   1  -3 18250.5 1323.65   5
   4   1   3 20717.6 1234.83  31
   4   1   3 24774.1 2861.75  21
   4   1   4 20426.9 1344.31   8
  -4   1  -4 24591.2 1611.79   5
   4   1   4 19444.9 1668.48  63
   4   1   4 23900.8 2027.29  59
   4   1   4 18754.2 1335.15  53
   4   1   4 30627.9 1924.08  56
   4   1   4 25223.8 1947.15  55
   4   1   4 30017.6 2079.68  54
   4   1   4 24876.0 1497.44  17
   4   1   4 23335.6 1432.66  33
   4   1   4 23349.6 1517.68  26
   4   1   4 29883.7 1563.81  29
   4   1   4 27721.1 1446.33  31
   4   1   4 29991.0 3160.52  21
   4   1   5 26734.8 1673.28   7
   4   1   5 31212.7 1805.36   9
   4   1   5 25451.3 1580.94   8
  -4   1  -5 30217.5 1863.96   5
   4   1   5 21505.9 2041.97  59
   4   1   5 26369.3 1662.63  53
   4   1   5 35309.8 2114.33  56
  -4   1  -5 30460.5 1612.53  48
   4   1   5 29373.2 2139.76  55
   4   1   5 36929.1 2342.63  54
   4   1   5 28526.9 1698.31  17
   4   1   5 33845.0 1727.27  38
   4   1   5 33546.4 3517.33  40
   4   1   5 29871.7 1782.56  26
   4   1   5 34294.2 1621.93  30
   4   1   5 26820.5 1907.81  28
   4   1   5 30227.3 1550.08  31
   4   1   5 33415.3 1728.44  29
   4   1   5 28193.2 1500.38  25
   4   1   5 39773.5 3549.40  22
   4   1   5 38781.5 3648.99  21
  -4   1  -6 642.281 278.619   5
   4   1   6 498.118 244.746  26
   4   1   6 1119.90 592.775  21
   4   1   6 580.579 196.587  25
   4   1   6 2164.95 810.194  22
   4   1   6 457.153 251.266  53
   4   1   6 785.855 334.163  56
  -4   1  -6 699.080 252.101  48
   4   1   6 459.856 293.807  54
   4   1   6 533.895 238.955  17
   4   1   6 846.232 226.913  39
   4   1   6 861.855 252.481  38
   4   1   6 1233.22 652.725  40
   4   1   6 796.976 236.099  30
   4   1   6 485.393 246.310  28
   4   1   6 770.622 294.588   7
   4   1   6 692.945 259.656   9
   4   1   7 6356.71 824.129   7
   4   1   7 5488.28 769.137   9
   4   1   7 5154.18 722.175   8
   4   1   7 3548.40 751.512  63
   4   1   7 4879.79 744.840  53
  -4   1  -7 5198.34 689.309  48
  -4   1  -7 6304.36 879.270   5
   4   1   7 4747.37 715.856  17
   4   1   7 5342.09 767.177  26
   4   1   7 4337.33 750.712  28
   4   1   7 5936.56 1393.40  21
   4   1   7 6150.67 654.116  25
   4   1   8 42199.8 2402.83   7
   4   1   8 44310.6 2454.66   9
  -4   1  -8 44525.3 2227.51  48
   4   1   8 29944.6 2390.73  63
  -4   1  -8 48866.3 2627.75   5
   4   1   8 43808.3 2377.23  26
   4   1   8 34398.2 2297.96  28
   4   1   8 40271.0 1889.91  25
   4   1   9 18389.2 1470.02   7
   4   1   9 14894.3 1434.79   9
  -4   1  -9 18438.4 1413.68  48
   4   1   9 12262.9 1478.93  63
   4   1   9 16378.0 1499.11  28
   4   1   9 15894.1 1423.68  26
   4   1   9 16949.0 1125.78  25
   4   1  10 45342.9 3135.74  63
  -4   1 -10 64514.7 3209.19   5
   4   1  10 49583.0 2838.39   9
   4   1  10 62403.0 2992.44   7
   4   1  10 52998.3 2807.68  26
   4   1  11 26527.4 1928.24  17
   4   1  11 19729.9 1930.82  63
  -4   1 -11 27205.4 1724.86   4
  -4   1 -11 28383.3 2098.67   5
   4   1  11 23451.7 1818.76  26
   4   1  11 20951.8 1808.33   9
   4   1  11 30369.4 1913.78   7
  -4   1 -12 14897.5 1263.25   4
  -4   1 -12 14066.1 1459.24   5
  -4   1 -12 17498.5 1746.92   3
   4   1  12 15042.1 1640.19  63
   4   1  12 12333.8 1282.49  26
   4   1  12 11852.3 1341.99   9
   4   1  12 15189.0 1316.51   7
   4   1  12 13870.8 1358.87  17
   4   1  13 6136.11 952.552   9
   4   1  13 5705.36 873.641  17
   4   1  13 6559.28 914.662  26
  -4   1 -13 6379.59 820.327   4
  -4   1 -13 7230.71 1001.68   5
  -4   1 -13 7478.39 1124.57   3
   4   1  14 7308.91 989.028   9
   4   1  14 7985.61 954.489  34
   4   1  14 7967.91 978.294  17
   4   1  14 6634.69 882.653  26
   4   1  14 6930.21 821.813  33
  -4   1 -14 8510.86 918.389   4
  -4   1 -14 8630.21 1037.75   5
  -4   1 -14 8694.47 1197.31   3
   4   1  15 17592.4 1464.93   9
   4   1  15 17213.5 1367.62  17
   4   1  15 16731.7 1298.61  34
   4   1  15 15158.6 1154.77  33
   4   1  15 15028.6 1253.44  26
  -4   1 -15 16201.4 1207.18   4
  -4   1 -15 17496.1 1571.87   3
   4   1  16 12390.3 1110.99   9
  -4   1 -16 9531.59 862.563  41
   4   1  16 11632.1 876.769  33
   4   1  16 13374.8 1033.35  34
   4   1  16 12460.9 1053.37  17
   4   1  16 11766.2 988.818  26
  -4   1 -16 11470.7 908.273   4
   4   1  17 6357.37 688.258   9
   4   1  17 5629.83 487.323  33
   4   1  17 6259.50 592.676  34
   4   1  17 4924.14 540.122  26
  -4   1 -17 5477.70 497.351   4
   4   1  17 5702.87 626.232  17
   4   1  18 14860.6 873.997   9
   4   1  18 12519.5 672.474  26
  -4   2  19 112.356 84.8741   9
   4   2 -19 63.4322 68.1946  41
   4   2 -18 3779.06 589.251  41
  -4   2  18 4705.95 563.610   9
   4   2 -17 12464.2 1228.58  41
  -4   2  17 13357.5 849.733  17
   4   2 -17 13088.8 1059.87   4
  -4   2  17 15697.8 1199.62   9
   4   2 -16 17449.0 1634.33  41
  -4   2  16 19220.0 1206.51  17
   4   2 -16 22996.4 2512.17  37
   4   2 -16 18267.2 1831.43  20
   4   2 -16 18936.8 1460.22   4
   4   2 -15 30035.8 2708.29  20
   4   2 -15 28429.2 2238.88  41
   4   2 -15 37126.1 3393.43  37
  -4   2  15 29606.1 1685.91  17
   4   2 -15 36305.0 3810.84  32
   4   2 -15 25042.3 1870.17   4
   4   2 -14 2180.84 807.437  20
  -4   2  14 2250.44 483.833  17
   4   2 -14 2507.03 684.424  41
   4   2 -14 2565.47 987.378  37
   4   2 -14 1998.03 401.776  29
   4   2 -14 1831.08 925.934  32
   4   2 -14 1905.61 533.787   4
  -4   2  14 1869.23 425.199   6
   4   2 -13 5350.42 1011.79  41
   4   2 -13 5035.63 1273.39  20
   4   2 -13 6088.96 1075.37  23
  -4   2  13 6120.48 824.159  17
   4   2 -13 5313.72 728.335  29
   4   2 -13 5120.87 905.963   4
  -4   2  13 7511.48 962.481   1
  -4   2  13 5327.80 780.184   6
   4   2 -12 16670.8 1905.19  23
   4   2 -12 14877.6 2198.51  20
   4   2 -12 13466.1 1622.35  41
   4   2 -12 11110.9 1347.34   4
  -4   2  12 14231.0 1346.72   1
  -4   2  12 11739.6 1241.79   6
   4   2 -12 15111.5 1291.00  29
   4   2 -12 20415.2 3389.75  32
   4   2 -12 17357.3 2880.71  27
  -4   2  12 12570.8 1174.68   7
   4   2 -11 10517.1 1577.47  23
   4   2 -11 15132.7 2252.74  20
   4   2 -11 11397.9 1470.25  41
   4   2 -11 10046.3 1279.09   4
  -4   2  11 11170.5 1113.10   2
  -4   2  11 12328.8 1253.20   6
  -4   2  11 12748.5 1258.18   1
   4   2 -11 16043.3 2411.20  37
   4   2 -11 16699.6 2831.46  27
   4   2 -11 18066.2 3295.74  32
   4   2 -11 10381.7 1116.07  29
  -4   2  11 11292.8 1161.29   7
   4   2 -10 44684.1 3394.69  23
   4   2 -10 49245.2 4114.15  20
   4   2 -10 48363.7 3109.62  41
  -4   2  10 45197.7 2474.67   1
   4   2 -10 35860.2 2511.16   4
  -4   2  10 53426.3 2583.11   2
  -4   2  10 49479.0 2697.50   6
   4   2 -10 53600.2 4404.44  37
   4   2 -10 43185.6 2403.95  29
   4   2 -10 61934.3 5387.60  27
   4   2 -10 70851.8 6395.96  32
  -4   2  10 46022.6 2462.51   7
   4   2  -9 61806.6 5101.32  24
   4   2  -9 52226.2 3682.98  23
   4   2  -9 58434.6 2374.94  25
   4   2  -9 55586.2 4324.28  20
   4   2  -9 55417.9 3303.77  41
   4   2  -9 50521.0 2913.14   4
  -4   2   9 53480.9 2659.65   1
  -4   2   9 57055.6 2741.80   2
   4   2  -9 43910.5 2436.41   3
  -4   2   9 60463.3 2932.11   6
   4   2  -9 75085.5 5485.89  36
   4   2  -9 55697.0 4350.99  37
   4   2  -9 64972.2 5397.80  27
   4   2  -9 44433.7 2485.64  29
   4   2  -9 76258.2 6601.99  32
   4   2  -9 52639.3 2214.75  31
  -4   2   9 53451.9 2412.18   8
   4   2  -8 24051.2 2153.74  59
   4   2  -8 38608.5 2625.31  41
   4   2  -8 24806.3 2020.61  55
   4   2  -8 32963.8 2252.83   4
  -4   2   8 36293.7 2120.62   2
   4   2  -8 35585.0 2027.58   3
  -4   2   8 37038.7 2204.77   6
  -4   2   8 37541.7 2099.69   1
   4   2  -8 36207.3 1922.05  38
   4   2  -8 34287.7 3271.26  37
   4   2  -8 43186.6 3999.10  36
   4   2  -8 52294.5 5349.65  32
   4   2  -8 38916.5 2150.60  26
   4   2  -8 41389.4 4176.18  27
   4   2  -8 36096.6 1799.89  31
   4   2  -8 29823.0 1932.71  29
   4   2  -8 32769.6 2651.24  28
   4   2  -8 34545.5 1789.85  30
   4   2  -8 33564.2 2873.10  23
   4   2  -8 35069.4 3374.49  20
   4   2  -8 43393.3 4192.87  24
   4   2  -8 39659.6 1879.75  25
   4   2  -7 32535.1 2487.92  59
   4   2  -7 33984.3 2394.34  55
   4   2  -7 45410.0 2804.14  41
   4   2  -7 40093.0 2435.53   4
  -4   2   7 40670.5 2167.36   1
   4   2  -7 37396.3 2185.48   3
  -4   2   7 43505.9 2339.89   2
  -4   2   7 47016.3 2464.74   6
   4   2  -7 42491.0 2128.30  38
   4   2  -7 39061.3 3372.88  37
   4   2  -7 51803.4 4784.87  40
   4   2  -7 41692.3 2004.07  39
   4   2  -7 54537.8 4203.22  36
   4   2  -7 44287.5 2034.35  31
   4   2  -7 45249.1 2286.83  26
   4   2  -7 56612.2 5458.99  32
   4   2  -7 34367.4 2080.50  29
   4   2  -7 37809.8 2825.15  28
   4   2  -7 41490.2 2016.80  30
   4   2  -7 38834.5 3095.66  23
   4   2  -7 44780.6 2029.39  25
   4   2  -7 45862.1 4271.23  24
   4   2  -7 50846.9 4385.35  22
   4   2  -7 36030.9 3336.06  20
   4   2  -6 15208.2 1708.20  59
   4   2  -6 27717.6 2118.30  55
   4   2  -6 25696.8 2003.09  41
   4   2  -6 23864.4 1796.85   4
   4   2  -6 23382.8 1624.50   3
  -4   2   6 27028.7 1763.84   2
  -4   2   6 28453.9 1846.65   6
   4   2  -6 35980.0 3891.15  40
   4   2  -6 23852.6 1581.09  38
   4   2  -6 23567.9 1469.68  39
   4   2  -6 28551.3 2675.91  37
   4   2  -6 26923.9 2844.21  36
   4   2  -6 23384.3 1486.04  30
   4   2  -6 23745.7 2171.80  28
   4   2  -6 27753.5 3200.95  27
   4   2  -6 21722.2 1563.91  29
   4   2  -6 26797.1 1542.00  31
   4   2  -6 25715.5 1646.92  26
   4   2  -6 23644.1 2345.96  23
   4   2  -6 29211.9 3347.55  24
   4   2  -6 27205.4 1513.16  25
   4   2  -6 30242.1 3393.25  22
   4   2  -6 22706.2 2567.94  20
   4   2  -5 1360.79 503.964  59
   4   2  -5 1429.12 484.052  55
   4   2  -5 1388.32 368.486   3
  -4   2   5 1344.12 395.530   2
   4   2  -5 1155.14 365.112   4
  -4   2   5 1600.59 435.001   6
   4   2  -5 1303.76 332.234  39
   4   2  -5 2306.98 765.720  36
   4   2  -5 1231.64 330.932  38
   4   2  -5 1676.76 502.729  41
   4   2  -5 2696.51 1058.62  40
   4   2  -5 2360.08 721.629  37
   4   2  -5 2180.02 835.418  27
   4   2  -5 1465.00 503.802  28
   4   2  -5 1023.91 301.899  31
   4   2  -5 1337.54 342.075  30
   4   2  -5 1074.40 472.310  23
   4   2  -5 1696.66 369.348  25
   4   2  -5 1384.27 368.002  26
   4   2  -5 2226.66 897.005  22
   4   2  -5 2092.48 886.219  24
   4   2  -4 13038.8 1492.75  59
   4   2  -4 14587.3 1453.05  55
   4   2  -4 14905.2 1448.05  41
   4   2  -4 16951.9 1311.20   3
  -4   2   4 15035.5 1287.87   2
   4   2  -4 14346.8 1306.10   4
   4   2  -4 12423.0 1113.34  38
   4   2  -4 18750.3 2806.57  40
   4   2  -4 12877.5 1047.75  39
   4   2  -4 16105.7 1815.19  37
   4   2  -4 12032.0 1046.33  30
   4   2  -4 13777.9 1085.32  31
   4   2  -4 16175.9 2618.96  32
   4   2  -4 14637.6 2104.27  27
   4   2  -4 15086.6 1175.61  26
   4   2  -4 15950.0 2418.26  22
   4   2  -4 14370.9 1778.99  23
   4   2  -4 14484.6 1877.11  20
   4   2  -4 13951.9 1056.40  25
   4   2  -4 15721.4 2279.37  24
   4   2  -3 21108.6 1913.03  59
   4   2  -3 19368.6 1700.04  55
   4   2  -3 18138.1 1596.62  41
   4   2  -3 20387.2 1524.05   3
  -4   2   3 22307.9 1587.56   2
   4   2  -3 18973.1 1384.24  38
   4   2  -3 25652.9 3283.30  40
   4   2  -3 18351.3 1261.26  39
   4   2  -3 19401.7 1338.34  26
   4   2  -3 17896.0 1267.15  31
   4   2  -3 20655.4 2425.14  27
   4   2  -3 20425.3 1389.37  29
   4   2  -3 25653.5 3209.82  32
   4   2  -3 20952.8 1838.10  28
   4   2  -3 16818.1 1251.21  30
   4   2  -3 20630.1 2107.96  23
   4   2  -3 21831.9 1316.29  25
   4   2  -3 22012.0 2267.68  20
   4   2  -3 21079.1 2862.42  22
   4   2  -2 29002.4 2260.79  59
   4   2  -2 29123.5 2027.70  41
   4   2  -2 28659.0 2096.65  55
  -4   2   2 31409.4 1871.72   2
  -4   2   2 27221.7 1412.88   5
   4   2  -2 26005.6 1655.89  38
   4   2  -2 34055.9 3898.31  40
   4   2  -2 28004.2 1584.97  39
   4   2  -2 29069.0 1665.63  29
   4   2  -2 30743.3 1709.27  26
   4   2  -2 35617.9 3676.14  32
   4   2  -2 29099.0 2163.98  28
   4   2  -2 27620.3 2466.99  23
   4   2  -2 37125.4 3903.96  21
   4   2  -2 27201.6 1530.61  25
   4   2  -2 34650.9 3631.67  22
   4   2  -2 29114.9 2572.63  20
   4   2  -1 43810.2 2816.38  59
   4   2  -1 44386.0 2569.17  41
   4   2  -1 47011.1 2735.92  55
  -4   2   1 48155.5 2045.88   5
   4   2  -1 50779.0 4776.56  40
   4   2  -1 44899.2 2157.64  26
   4   2  -1 47683.5 2186.36  29
   4   2  -1 40657.8 2058.30  31
   4   2  -1 47624.1 2755.72  28
   4   2  -1 48672.7 3289.65  23
   4   2  -1 51872.9 4639.24  21
   4   2  -1 46683.0 4212.30  22
   4   2  -1 46277.4 2066.89  25
   4   2  -1 44593.0 3738.92  24
   4   2  -1 56824.0 3548.69  20
   4   2   0 43808.8 2830.81  59
   4   2   0 45812.3 2651.34  41
   4   2   0 49443.6 2795.17  55
  -4   2   0 48971.0 2165.66   5
   4   2   0 42864.2 2207.05  38
   4   2   0 45519.9 2125.23  39
   4   2   0 45898.0 2150.96  31
   4   2   0 42927.8 2115.98  30
   4   2   0 50942.6 2788.74  28
   4   2   0 47136.7 2219.03  26
   4   2   0 54273.2 2295.68  29
   4   2   0 44920.2 3707.32  24
   4   2   0 59269.5 3555.36  20
   4   2   1 47023.3 3263.58  23
   4   2   1 52121.9 4535.50  22
   4   2   1 42405.3 3604.18  24
   4   2   1 44996.6 2054.32  25
  -4   2  -1 49288.1 2151.67  45
   4   2   1 39438.2 2491.13  41
  -4   2  -1 49304.4 2251.03   5
  -4   2  -1 50992.3 2454.09   2
   4   2   1 42130.5 1986.15  33
   4   2   1 60068.6 5069.15  40
   4   2   1 41782.2 2160.05  38
   4   2   1 43103.4 2050.65  39
   4   2   1 45250.1 2183.68  26
   4   2   1 48723.3 2145.24  29
   4   2   1 46265.8 2648.51  28
   4   2   1 47089.9 2143.05  31
   4   2   1 42583.2 2078.49  30
   4   2   1 30853.8 1836.08   7
   4   2   2 25698.2 1578.82   7
   4   2   2 20615.7 1362.51   8
  -4   2  -2 26701.8 1663.96   5
  -4   2  -2 33206.0 1926.18   2
   4   2   2 23801.0 2067.25  59
  -4   2  -2 29168.7 1574.89  45
   4   2   2 28573.8 2085.63  55
   4   2   2 24811.5 1489.72  33
   4   2   2 31136.7 3637.13  40
   4   2   2 26267.0 1645.17  38
   4   2   2 26920.4 1561.44  39
   4   2   2 28713.6 1583.48  29
   4   2   2 28577.4 1601.84  31
   4   2   2 27722.2 1929.29  28
   4   2   2 24499.1 1591.16  26
   4   2   2 24789.6 1534.73  30
   4   2   2 30687.3 2596.09  23
   4   2   2 26615.9 1542.21  25
   4   2   2 26663.5 2730.88  24
   4   2   2 30937.2 3442.64  22
   4   2   3 20313.2 1457.58   7
   4   2   3 22199.8 1415.12   8
  -4   2  -3 23743.0 1624.22   5
  -4   2  -3 24478.8 1662.72   2
   4   2   3 26354.4 2157.72  59
  -4   2  -3 22957.2 1400.12  45
   4   2   3 25985.1 2005.08  55
   4   2   3 26026.2 1466.42  17
   4   2   3 24080.4 1555.74  38
   4   2   3 34014.4 3873.43  40
   4   2   3 19666.9 1363.07  39
   4   2   3 21021.5 1407.35  33
   4   2   3 26697.4 1517.34  29
   4   2   3 23446.1 1787.90  28
   4   2   3 23830.4 1479.50  30
   4   2   3 24279.3 1477.39  31
   4   2   3 27405.1 2436.73  23
   4   2   3 23199.7 1455.49  25
   4   2   3 26625.3 2686.26  24
   4   2   3 29252.6 3392.73  22
   4   2   4 23836.1 1639.52   7
   4   2   4 24187.0 1546.39   8
  -4   2  -4 26453.4 1799.71   5
  -4   2  -4 25090.3 1726.86   2
   4   2   4 27699.1 2241.98  59
  -4   2  -4 23371.6 1432.94  45
   4   2   4 32767.7 2241.57  55
   4   2   4 27048.3 1612.29  17
   4   2   4 43634.7 4304.75  40
   4   2   4 30443.5 1754.12  38
   4   2   4 26627.7 1573.80  39
   4   2   4 29245.6 1603.28  29
   4   2   4 27014.0 1641.39  33
   4   2   4 28357.4 1592.30  31
   4   2   4 28168.3 1927.94  28
   4   2   4 28470.3 1614.19  30
   4   2   4 37045.7 3712.16  22
   4   2   4 27246.4 1606.00  25
   4   2   4 29445.2 2770.33  24
   4   2   5 50401.0 2432.27   8
  -4   2  -5 53883.6 2768.23   5
  -4   2  -5 49929.8 2551.06   2
  -4   2  -5 60086.8 2766.49   3
   4   2   5 40158.4 2953.43  59
   4   2   5 57070.5 3127.53  55
   4   2   5 52557.1 2468.78  17
   4   2   5 57769.0 2534.55  38
   4   2   5 66496.9 5538.42  40
   4   2   5 54161.8 2375.87  39
   4   2   5 67079.8 2563.64  29
   4   2   5 58069.2 2388.82  31
   4   2   5 56112.1 2396.17  30
   4   2   5 41416.1 2517.95  28
   4   2   5 51466.1 2383.18  25
   4   2   5 68978.0 5112.31  22
   4   2   6 31163.1 1902.30   8
  -4   2  -6 34906.2 2226.17   5
  -4   2  -6 43887.3 2397.78   3
  -4   2  -6 25553.4 1870.62   2
   4   2   6 22923.4 2170.66  59
   4   2   6 36504.9 2561.26  55
   4   2   6 33294.2 1963.33  17
   4   2   6 38107.9 1981.38  38
   4   2   6 50357.2 4592.20  40
   4   2   6 35757.1 1859.96  39
   4   2   6 41395.0 1972.50  29
   4   2   6 39174.8 1860.92  31
   4   2   6 39848.2 1900.89  30
   4   2   6 32610.1 1857.79  25
   4   2   6 48143.7 4240.16  22
   4   2   7 45376.2 2432.75   7
   4   2   7 39932.3 2139.90   9
  -4   2  -7 42344.1 2518.22   5
  -4   2  -7 34452.5 2112.07   2
  -4   2  -7 50371.6 2708.10   3
  -4   2  -7 45111.5 2422.42  48
   4   2   7 37998.5 2582.56  55
   4   2   7 38185.9 2200.62  17
   4   2   7 41736.4 2011.59  39
   4   2   7 49137.3 2072.68  31
   4   2   7 39566.4 2355.69  26
   4   2   7 40730.5 2092.98  25
   4   2   7 48439.3 4257.57  22
  -4   2  -8 13039.6 1382.85   5
  -4   2  -8 8728.07 989.957   2
  -4   2  -8 13745.0 1439.68   3
   4   2   8 10911.9 1026.06  25
  -4   2  -8 11052.8 1187.05  48
   4   2   8 8405.99 1021.57  17
   4   2   8 11607.7 979.804  39
   4   2   8 10484.1 1185.62  26
   4   2   8 13005.9 1283.97   7
   4   2   8 9854.75 1052.34   9
   4   2   9 5282.15 706.268  25
  -4   2  -9 4618.75 780.331  48
  -4   2  -9 5363.22 911.523   5
  -4   2  -9 5395.26 727.950   2
  -4   2  -9 6390.65 1012.99   3
   4   2   9 4863.02 800.145  17
   4   2   9 5544.23 873.843  26
   4   2   9 5001.55 798.433   7
   4   2   9 5215.73 793.302   8
  -4   2 -10 1008.63 354.248  48
  -4   2 -10 338.141 305.920   3
   4   2  10 472.980 259.119  17
   4   2  10 425.292 279.548  26
   4   2  10 642.415 255.011  25
   4   2  10 845.303 344.064   7
   4   2  10 614.448 297.785   8
   4   2  10 589.782 274.743   9
   4   2  11 4849.99 653.482  25
  -4   2 -11 4958.89 791.073  48
  -4   2 -11 4640.44 872.456   5
  -4   2 -11 6749.62 1049.06   3
   4   2  11 4782.19 788.309   7
   4   2  11 5035.30 767.126   9
   4   2  11 4522.44 767.681   8
   4   2  11 4027.60 761.733  26
   4   2  11 4728.58 801.400  17
   4   2  12 35449.4 2132.83   7
   4   2  12 24934.9 1819.23   9
  -4   2 -12 34925.7 2358.56   5
  -4   2 -12 37903.9 2519.55   3
  -4   2 -12 34807.4 2217.23  60
  -4   2 -12 23078.4 2195.09  61
   4   2  12 30194.8 2081.65  26
   4   2  12 30154.2 1625.60  25
   4   2  13 15176.8 1395.09  26
  -4   2 -13 16263.3 1526.92   5
  -4   2 -13 16234.0 1592.45   3
   4   2  13 13459.2 1255.65   9
   4   2  13 14800.0 1283.27   7
  -4   2 -14 14261.5 1477.52  18
   4   2  14 13630.0 1193.89   9
   4   2  14 16110.1 1251.99   7
   4   2  14 14230.8 1197.41  33
   4   2  14 12401.5 1217.08  26
  -4   2 -14 15250.7 1483.59   3
  -4   2 -15 16521.6 1476.44  18
   4   2  15 24026.7 1563.25  17
   4   2  15 20503.6 1365.07   9
   4   2  15 24966.4 1551.72  34
   4   2  15 21797.5 1501.47  26
   4   2  15 22263.4 1408.43  33
  -4   2 -15 27233.9 1825.07   3
   4   2  16 3851.15 534.587  34
   4   2  16 3572.07 482.214  33
  -4   2 -16 2551.06 496.229  18
   4   2  16 4505.49 590.698  17
   4   2  16 3671.72 534.651  26
  -4   2 -16 3717.44 610.925   3
   4   2  17 403.138 162.696  26
   4   2  17 335.282 153.007  17
  -4   2 -17 178.463 94.6419  18
   4   2  17 489.527 162.705  34
   4   2  17 270.561 121.927  33
  -4   2 -17 458.062 210.009   3
  -4   3  17 4052.53 406.904  17
  -4   3  17 4456.73 517.686   9
   4   3 -17 3279.44 487.261  41
  -4   3  16 1888.97 342.369  17
   4   3 -16 1388.72 388.475  41
  -4   3  16 2310.28 447.151   9
   4   3 -16 1657.93 418.778   4
   4   3 -15 12359.2 1250.83  41
   4   3 -15 14123.2 1466.47  20
  -4   3  15 12870.3 1022.81  17
   4   3 -15 12566.4 931.521  29
   4   3 -15 11432.4 1164.12   4
   4   3 -14 10149.5 1197.94   4
  -4   3  14 9311.36 955.783   6
   4   3 -14 9926.39 1209.94  41
   4   3 -14 11231.0 1581.72  20
  -4   3  14 11458.0 1041.50  17
   4   3 -14 11813.3 1016.94  29
  -4   3  14 9529.29 869.392   7
   4   3 -13 11788.6 1344.22   4
  -4   3  13 10783.1 1126.96   6
   4   3 -13 11191.8 1371.98  41
   4   3 -13 15600.8 2029.84  20
  -4   3  13 12553.8 1163.22  17
   4   3 -13 12746.0 1169.60  29
  -4   3  13 13126.5 1128.44   7
   4   3 -12 14915.2 1592.79   4
   4   3 -12 17119.4 1433.73   3
  -4   3  12 18032.9 1506.95   6
   4   3 -12 20976.4 2500.97  20
   4   3 -12 17195.7 1760.28  41
  -4   3  12 19311.9 1531.78  17
   4   3 -12 20303.4 1566.24  29
  -4   3  12 19016.2 1272.78   8
  -4   3  12 17546.2 1424.64   7
   4   3 -11 33899.7 3318.82  20
   4   3 -11 30601.2 2407.57  41
   4   3 -11 24990.1 2136.55   4
  -4   3  11 31017.8 2026.18   2
  -4   3  11 32308.4 1963.67   1
   4   3 -11 28856.2 1982.85   3
  -4   3  11 31714.6 2104.51   6
   4   3 -11 38415.0 3751.01  37
   4   3 -11 33092.0 2102.87  29
  -4   3  11 31307.6 2042.91   7
  -4   3  11 30413.6 1778.39   8
   4   3 -10 13677.9 1707.40  23
   4   3 -10 14941.9 2230.29  20
   4   3 -10 10708.6 1424.75  41
   4   3 -10 12217.9 1465.83   4
  -4   3  10 15030.1 1369.13   2
   4   3 -10 12814.1 1329.52   3
  -4   3  10 13996.7 1404.80   6
  -4   3  10 13209.7 1225.96   1
   4   3 -10 16574.6 2463.87  37
   4   3 -10 18376.0 3409.05  32
   4   3 -10 12425.5 1289.54  29
  -4   3  10 13589.9 1350.28   7
  -4   3  10 13471.7 1186.31   8
  -4   3   9 8280.92 1061.30   7
  -4   3   9 6744.19 860.128   8
  -4   3   9 5534.43 831.936  59
   4   3  -9 6627.79 1106.39  41
   4   3  -9 6297.70 1047.18   4
  -4   3   9 7823.38 1030.41   2
   4   3  -9 6841.19 1021.31   3
  -4   3   9 6863.19 976.377   6
  -4   3   9 7075.03 874.749   1
   4   3  -9 7566.33 832.666  38
   4   3  -9 6443.33 1535.68  37
   4   3  -9 6703.60 953.441  29
   4   3  -9 10810.6 2661.58  32
   4   3  -9 7661.48 792.195  30
   4   3  -9 7562.13 1303.43  23
   4   3  -9 8322.74 1668.98  20
  -4   3   8 9165.09 1014.80   8
   4   3  -8 4495.82 987.457  59
   4   3  -8 6844.58 1080.53  55
   4   3  -8 9054.59 1273.20  41
   4   3  -8 7222.84 1120.11   4
  -4   3   8 7166.18 888.694   1
  -4   3   8 8395.17 1073.01   2
   4   3  -8 7499.79 1058.47   3
  -4   3   8 9235.36 1145.05   6
   4   3  -8 7515.08 905.460  38
   4   3  -8 9782.59 1796.06  37
   4   3  -8 7567.73 789.402  39
   4   3  -8 11461.6 2641.00  32
   4   3  -8 8765.95 909.110  30
   4   3  -8 8536.98 884.248  31
   4   3  -8 11655.3 2330.90  27
   4   3  -8 8920.91 812.742  25
   4   3  -8 8729.31 1727.32  20
   4   3  -8 7809.63 1392.10  23
   4   3  -7 24268.3 2282.43  59
   4   3  -7 36847.3 2653.63  55
   4   3  -7 36344.0 2581.75  41
   4   3  -7 35486.9 2497.70   4
  -4   3   7 33123.3 1940.05   1
  -4   3   7 36813.5 2310.50   2
   4   3  -7 34535.7 2311.63   3
  -4   3   7 36771.9 2343.23   6
   4   3  -7 37135.6 2118.16  38
   4   3  -7 33841.4 1823.13  39
   4   3  -7 43363.2 3742.31  37
   4   3  -7 46188.3 4579.12  27
   4   3  -7 30948.9 1874.39  30
   4   3  -7 32659.3 1930.08  26
   4   3  -7 37843.0 2028.74  31
   4   3  -7 48658.4 5361.45  32
   4   3  -7 32099.5 2899.87  23
   4   3  -7 38818.1 1838.46  25
   4   3  -7 38416.4 3622.34  20
   4   3  -6 36632.3 2960.66  59
   4   3  -6 38291.7 2738.49  55
   4   3  -6 43993.9 2820.11  41
   4   3  -6 43279.7 2746.39   4
  -4   3   6 42811.2 2508.48   2
   4   3  -6 44816.1 2664.79   3
  -4   3   6 39874.3 2121.74   1
   4   3  -6 43509.8 2361.95  38
   4   3  -6 43108.8 2117.98  39
   4   3  -6 48961.9 4582.98  27
   4   3  -6 43914.7 2234.43  26
   4   3  -6 41720.6 2426.46  29
   4   3  -6 44207.1 2260.87  31
   4   3  -6 41096.6 2218.47  30
   4   3  -6 41906.5 3328.94  23
   4   3  -6 40800.4 1982.93  25
   4   3  -6 46619.5 4699.54  24
   4   3  -6 45548.5 3922.73  20
   4   3  -5 60673.9 3868.53  59
   4   3  -5 70312.3 3703.72  41
   4   3  -5 80364.8 3937.41  55
  -4   3   5 67559.9 2910.53   1
   4   3  -5 78415.8 3653.22   3
  -4   3   5 77005.7 3459.41   2
   4   3  -5 72159.9 3244.30  38
   4   3  -5 71562.9 2943.96  39
   4   3  -5 81401.6 5878.03  27
   4   3  -5 75001.0 3342.33  29
   4   3  -5 96195.1 7453.49  32
   4   3  -5 68187.1 3073.09  30
   4   3  -5 61587.5 3887.46  28
   4   3  -5 78376.5 3106.44  26
   4   3  -5 76087.1 3144.47  31
   4   3  -5 73012.4 4516.07  23
   4   3  -5 87532.4 6478.46  24
   4   3  -5 93356.8 6788.44  22
   4   3  -5 73244.9 5015.99  20
   4   3  -5 73974.6 2865.29  25
   4   3  -4 17267.4 1892.50  59
   4   3  -4 16238.8 1651.30  41
   4   3  -4 19248.9 1832.80  55
   4   3  -4 18817.3 1659.08   3
  -4   3   4 16073.2 1452.70   2
  -4   3   4 19792.1 1592.23   6
   4   3  -4 17242.3 1468.01  38
   4   3  -4 16510.9 1276.28  39
   4   3  -4 14854.3 1304.80  30
   4   3  -4 17573.9 2494.52  27
   4   3  -4 17420.1 1438.12  29
   4   3  -4 20537.4 3304.25  32
   4   3  -4 16750.4 1846.50  28
   4   3  -4 15499.8 1317.57  31
   4   3  -4 17115.8 1320.82  26
   4   3  -4 15611.1 2007.36  23
   4   3  -4 19548.7 2993.33  24
   4   3  -4 17171.8 1244.66  25
   4   3  -4 19864.0 3094.96  22
   4   3  -3 45424.3 3134.57  59
   4   3  -3 38988.4 2565.86  62
   4   3  -3 44809.5 2801.05  41
   4   3  -3 46049.3 2911.76  55
   4   3  -3 48608.2 2727.95   3
  -4   3   3 49447.0 2612.05   6
   4   3  -3 39001.6 2323.10  38
   4   3  -3 44729.2 2239.38  39
   4   3  -3 40043.7 2233.78  31
   4   3  -3 44249.5 2355.34  29
   4   3  -3 43439.0 3900.33  27
   4   3  -3 38209.7 2826.06  28
   4   3  -3 57285.4 5439.65  32
   4   3  -3 43478.4 2193.31  26
   4   3  -3 39349.5 2214.52  30
   4   3  -3 46435.3 3518.89  23
   4   3  -3 48708.9 4984.39  22
   4   3  -3 42568.2 2087.44  25
   4   3  -2 605.288 352.922  59
   4   3  -2 949.234 420.278  62
   4   3  -2 1209.05 470.872  55
  -4   3   2 935.316 352.119   6
   4   3  -2 1031.21 335.739  39
   4   3  -2 952.614 410.036  41
   4   3  -2 1253.72 610.605  27
   4   3  -2 760.212 357.169  28
   4   3  -2 2498.15 1063.56  32
   4   3  -2 988.957 341.184  29
   4   3  -2 633.468 417.414  23
   4   3  -2 1040.41 314.744  25
   4   3  -2 1172.39 321.995  26
   4   3  -2 1945.46 760.590  20
   4   3  -2 1022.96 769.705  22
   4   3  -2 1132.16 698.455  24
   4   3  -1 2632.52 452.315   7
   4   3  -1 3635.92 872.534  59
   4   3  -1 2083.02 592.336  62
   4   3  -1 2563.07 658.565  41
   4   3  -1 3403.41 779.436  55
  -4   3   1 3613.61 675.115   2
  -4   3   1 2659.07 503.956   5
   4   3  -1 2683.98 428.597  33
   4   3  -1 2869.46 545.831  39
   4   3  -1 3217.95 596.249  30
   4   3  -1 2720.55 859.582  27
   4   3  -1 2467.83 519.015  29
   4   3  -1 2912.11 541.683  26
   4   3  -1 3321.28 731.006  28
   4   3  -1 2632.82 540.770  31
   4   3  -1 4023.76 1421.14  32
   4   3  -1 3357.24 1026.37  20
   4   3  -1 3439.38 964.188  23
   4   3  -1 2855.03 515.541  25
   4   3  -1 3218.07 1259.05  22
   4   3  -1 3047.76 1133.69  24
   4   3   0 14511.8 1159.63   7
  -4   3   0 16488.4 1420.28   2
  -4   3   0 15039.3 1265.72   5
   4   3   0 15144.6 1782.71  59
   4   3   0 13680.5 1482.23  62
   4   3   0 14983.3 1610.96  55
   4   3   0 14303.9 1064.17  33
   4   3   0 13907.3 1318.91  38
   4   3   0 20742.4 2902.93  32
   4   3   0 15662.1 1259.37  29
   4   3   0 15640.0 1571.30  28
   4   3   0 15709.4 1258.58  26
   4   3   0 12508.8 1201.91  31
   4   3   0 14238.8 1270.27  30
   4   3   0 14558.2 1985.08  23
   4   3   0 16128.6 2122.37  20
   4   3   0 11319.8 2050.24  24
   4   3   0 14309.2 1179.20  25
  -4   3  -1 34466.6 2099.59   2
  -4   3  -1 33957.6 2049.21   5
   4   3   1 33798.2 4067.05  22
   4   3   1 39795.1 3318.01  20
   4   3   1 33896.8 1916.33  25
   4   3   1 31707.0 3398.65  24
   4   3   1 35292.3 3135.69  23
  -4   3  -1 34116.7 2051.63  18
   4   3   1 31485.3 2025.91  38
   4   3   1 31892.4 1715.64  33
   4   3   1 30483.7 1865.85  39
   4   3   1 31575.9 1825.04  29
   4   3   1 44078.7 4224.53  32
   4   3   1 27839.2 2162.34  28
   4   3   1 32564.7 1951.19  31
   4   3   1 32549.5 1910.78  26
   4   3   1 28509.1 1854.19  30
   4   3   1 32237.4 1844.32   7
   4   3   1 33463.5 1729.99   8
   4   3   2 53913.3 2649.21   7
   4   3   2 61167.9 2589.83   8
  -4   3  -2 64038.2 2974.27   2
  -4   3  -2 63819.1 2978.96   5
   4   3   2 65509.2 3858.55  59
   4   3   2 56590.2 3180.56  62
   4   3   2 66311.2 3580.50  55
  -4   3  -2 64518.1 3052.66  18
   4   3   2 58996.7 2896.15  38
   4   3   2 58207.3 2732.59  39
   4   3   2 60854.8 2584.48  33
   4   3   2 61843.6 2814.75  26
   4   3   2 65534.0 2685.57  29
   4   3   2 64549.7 2858.02  31
   4   3   2 49061.6 2939.39  28
   4   3   2 54469.4 2704.67  30
   4   3   2 74208.6 6082.79  22
   4   3   2 56589.3 4640.41  24
   4   3   2 72947.4 4536.97  20
   4   3   3 41528.4 2133.44   8
   4   3   3 42501.7 2285.06   7
  -4   3  -3 43744.8 2365.92   2
  -4   3  -3 41866.9 2442.71   5
   4   3   3 44207.7 3122.97  59
   4   3   3 45893.9 2937.03  55
  -4   3  -3 44864.2 2594.17  18
   4   3   3 44325.7 2421.91  38
   4   3   3 40042.3 2218.44  39
   4   3   3 40410.9 2104.99  33
   4   3   3 43725.2 2343.19  26
   4   3   3 51834.6 2259.32  29
   4   3   3 29804.1 2156.66  28
   4   3   3 41844.8 2235.22  31
   4   3   3 43066.6 2264.02  30
   4   3   3 44346.7 3922.26  24
   4   3   3 51264.9 5013.12  22
   4   3   4 11628.9 1093.17   8
   4   3   4 10324.0 1129.92   7
  -4   3  -4 12313.1 1196.59   2
  -4   3  -4 12731.9 1317.67   5
   4   3   4 14740.3 1722.71  59
   4   3   4 13837.9 1586.89  55
  -4   3  -4 12737.5 1370.20  18
   4   3   4 12181.9 1040.46  17
   4   3   4 12103.0 1190.30  38
   4   3   4 11253.9 1113.64  39
   4   3   4 11661.4 1097.24  33
   4   3   4 13139.3 1072.37  29
   4   3   4 12289.4 1161.23  30
   4   3   4 13942.1 1195.38  31
   4   3   4 12236.3 1203.36  26
   4   3   4 13652.9 2471.59  22
   4   3   4 12370.7 1160.59  25
   4   3   5 32469.2 1985.70   8
   4   3   5 28047.9 2002.78   7
  -4   3  -5 31778.2 1974.52   2
  -4   3  -5 35387.5 2338.50   5
   4   3   5 24666.2 2383.42  59
   4   3   5 35034.9 2637.80  55
  -4   3  -5 42778.0 2638.32  18
   4   3   5 34272.6 1938.97  17
   4   3   5 36952.9 2136.09  38
   4   3   5 35004.6 2040.58  39
   4   3   5 43165.2 1983.98  29
   4   3   5 35052.2 2038.02  33
   4   3   5 38687.5 2073.00  30
   4   3   5 36370.7 2206.45  26
   4   3   5 39967.5 2060.61  31
   4   3   5 34587.7 2046.72  25
   4   3   6 17187.3 1410.55   8
   4   3   6 13176.7 1329.43   7
  -4   3  -6 15613.1 1315.28   2
  -4   3  -6 15594.3 1541.10   5
  -4   3  -6 17125.2 1472.85   3
   4   3   6 11680.5 1611.92  59
   4   3   6 15584.5 1753.04  55
  -4   3  -6 18302.4 1747.55  18
   4   3   6 15877.8 1319.53  17
   4   3   6 18910.7 1446.10  38
   4   3   6 17760.8 1402.82  39
   4   3   6 19401.0 1357.60  31
   4   3   6 16678.6 1283.86  30
   4   3   6 16539.1 1480.24  26
   4   3   6 17039.4 1405.52  25
   4   3   7 17172.5 1459.22   8
  -4   3  -7 18984.3 1727.80   5
  -4   3  -7 19492.7 1625.86   3
   4   3   7 14632.6 1627.29  55
  -4   3  -7 19419.0 1823.91  18
   4   3   7 16795.1 1388.06  17
   4   3   7 17102.7 1339.90  38
   4   3   7 18943.3 1427.92  39
   4   3   7 16687.5 1507.74  26
   4   3   7 16320.0 1226.90  30
   4   3   7 18215.8 1454.87  25
   4   3   8 32090.0 2004.96   8
  -4   3  -8 27123.3 2133.62   5
  -4   3  -8 28234.7 2040.88   3
  -4   3  -8 28417.3 2032.67  48
  -4   3  -8 29335.2 2294.66  18
   4   3   8 21082.5 1618.96  17
   4   3   8 27746.5 1723.68  39
   4   3   8 26573.3 1945.63  26
   4   3   8 25824.0 1744.40  25
  -4   3  -9 29787.8 2226.96   5
  -4   3  -9 27839.2 2072.28   3
   4   3   9 25858.4 1744.01  25
  -4   3  -9 23766.1 1897.23  48
  -4   3  -9 27254.3 2251.42  18
   4   3   9 21753.8 1681.67  17
   4   3   9 24202.1 1566.17  39
   4   3   9 25556.5 1909.84  26
   4   3   9 29042.8 2047.64   7
   4   3  10 28803.9 1984.67   7
  -4   3 -10 25736.4 1988.04   3
  -4   3 -10 25361.1 2364.80  61
  -4   3 -10 24077.9 1894.61  48
   4   3  10 26363.1 1537.58  39
   4   3  10 21228.5 1757.10  26
   4   3  10 25829.0 1708.10  25
  -4   3 -10 30473.2 2320.76  18
   4   3  10 24483.3 1787.21  17
  -4   3 -11 21556.2 1779.45   3
   4   3  11 19196.6 1409.63  25
   4   3  11 17511.3 1543.54  26
   4   3  11 24637.8 1786.01   7
   4   3  11 23437.6 1698.18   8
  -4   3 -11 23071.5 1974.60  18
   4   3  11 19097.0 1542.91  17
   4   3  12 3010.06 502.109  25
  -4   3 -12 4025.15 727.956   5
  -4   3 -12 2790.18 630.452   3
   4   3  12 2961.48 589.271   7
   4   3  12 3481.38 625.376   8
   4   3  12 3807.09 647.939  17
   4   3  13 1470.26 317.769  25
   4   3  13 2188.21 476.981   7
  -4   3 -13 1967.13 500.607   3
   4   3  13 1642.54 410.911  17
  -4   3 -14 2442.63 520.612   3
  -4   3 -14 2306.68 516.169  18
   4   3  14 2615.73 482.828  17
   4   3  14 1904.61 298.648  25
   4   3  14 2488.14 459.503  33
   4   3  14 2436.55 450.523   7
   4   3  15 8877.07 777.124  33
   4   3  15 10110.5 846.755  34
  -4   3 -15 7410.03 813.845  18
   4   3  15 9611.07 826.444  17
  -4   3 -15 9042.23 888.188   3
   4   3  16 14257.3 866.551  34
   4   3  16 13388.0 805.305  33
  -4   3 -16 13945.8 930.089   3
   4   3  16 13218.7 830.096  17
  -4   4  16 11030.8 636.061  17
   4   4 -15 16156.1 881.041  29
  -4   4  15 13633.7 841.248   9
  -4   4  15 16770.1 965.771  17
  -4   4  14 16643.8 1072.95   9
  -4   4  14 16024.6 978.248   7
   4   4 -14 16473.1 1071.04  29
  -4   4  14 18431.0 1150.23  17
  -4   4  13 195.185 165.974  17
   4   4 -13 560.603 296.726  20
   4   4 -13 356.602 173.707  41
   4   4 -13 452.614 211.749  29
  -4   4  13 454.329 211.068   7
  -4   4  13 232.781 130.789   8
  -4   4  12 763.277 284.265   6
   4   4 -12 884.975 302.566   3
  -4   4  12 1007.18 326.334  17
   4   4 -12 858.741 492.281  20
   4   4 -12 1210.59 369.127  41
   4   4 -12 1086.65 351.986  29
  -4   4  12 1011.91 327.862   7
  -4   4  12 1083.98 282.363   8
   4   4 -11 178.282 187.773   3
  -4   4  11 68.0897 179.290   6
   4   4 -11 347.825 203.518  41
   4   4 -11 470.269 435.010  20
  -4   4  11 163.613 172.330   7
  -4   4  11 155.265 143.668   8
   4   4 -10 22266.5 1817.93  41
   4   4 -10 25785.9 1918.13   3
  -4   4  10 20342.7 1689.20   6
  -4   4  10 25170.0 1634.44   8
  -4   4  10 25519.1 1820.45   7
   4   4  -9 19933.7 2537.50  20
   4   4  -9 18373.6 1697.47  41
   4   4  -9 17842.5 1673.63   3
   4   4  -9 18390.6 1315.91  38
   4   4  -9 21387.8 1700.41  29
   4   4  -9 19392.3 1285.70  30
  -4   4   9 20567.7 1689.61   7
  -4   4   9 20814.0 1548.94   8
  -4   4   8 32031.1 2215.86   7
  -4   4   8 34268.8 2091.15   8
  -4   4   8 27816.1 1972.65  59
   4   4  -8 31353.3 2279.35  41
  -4   4   8 32345.2 2176.39   2
   4   4  -8 30624.4 2257.72   3
   4   4  -8 32186.5 1904.30  38
   4   4  -8 32581.2 1841.90  30
   4   4  -8 33620.7 2185.97  29
   4   4  -8 35704.5 3492.40  20
  -4   4   7 7392.31 966.252   8
  -4   4   7 7666.57 1043.67   7
  -4   4   7 7714.22 1092.25  59
  -4   4   7 7302.14 922.760  62
   4   4  -7 4001.70 995.661  59
   4   4  -7 8354.15 1159.14  41
   4   4  -7 4669.90 959.761  55
  -4   4   7 7269.67 1022.89   2
   4   4  -7 8148.28 1148.88   3
  -4   4   7 7022.65 994.116   6
   4   4  -7 7528.82 933.721  38
   4   4  -7 7627.58 786.774  39
   4   4  -7 7376.66 1003.97  29
   4   4  -7 7855.16 889.642  31
   4   4  -7 7319.90 894.058  30
   4   4  -7 7568.72 1328.58  23
   4   4  -7 8108.15 1688.52  20
  -4   4   6 9098.09 1149.51   7
  -4   4   6 9132.72 1080.92   8
  -4   4   6 9687.63 1304.35  59
  -4   4   6 9135.74 1074.91  62
   4   4  -6 7437.48 1330.96  59
   4   4  -6 9239.60 1226.83  41
   4   4  -6 6837.90 1218.49  55
   4   4  -6 8886.96 1240.04   3
  -4   4   6 9175.32 1119.14   6
   4   4  -6 9183.83 1085.05  38
   4   4  -6 9434.26 924.080  39
   4   4  -6 9102.73 1114.17  29
   4   4  -6 8819.81 1015.35  31
   4   4  -6 8144.16 972.513  30
   4   4  -6 8777.92 778.077  25
   4   4  -6 7727.14 1681.75  20
   4   4  -6 7313.78 1356.54  23
  -4   4   5 7073.43 961.782   8
   4   4  -5 8494.38 1229.93   3
  -4   4   5 8150.09 1050.57   6
   4   4  -5 7507.44 1120.50  41
   4   4  -5 7916.31 1253.98  55
   4   4  -5 6634.31 1265.59  59
   4   4  -5 7266.47 988.740  38
   4   4  -5 8590.28 914.046  39
   4   4  -5 7317.22 947.628  30
   4   4  -5 7534.32 1008.25  29
   4   4  -5 6878.73 927.048  31
   4   4  -5 7421.22 756.668  25
   4   4  -5 8317.08 1752.50  20
   4   4  -5 7157.57 1407.35  23
  -4   4   4 3108.01 707.737   2
   4   4  -4 3760.37 848.418   3
  -4   4   4 3219.27 650.347   6
   4   4  -4 2601.83 670.342  41
   4   4  -4 3663.15 872.769  55
   4   4  -4 2828.72 678.521  62
   4   4  -4 3145.05 878.234  59
   4   4  -4 2945.76 642.061  38
   4   4  -4 3221.46 578.362  39
   4   4  -4 3080.18 638.875  30
   4   4  -4 3107.20 637.526  29
   4   4  -4 3445.57 518.611  26
   4   4  -4 2784.22 593.971  31
   4   4  -4 2587.59 472.912  25
   4   4  -4 2771.57 1026.65  20
  -4   4   3 11898.7 1297.08   2
  -4   4   3 13246.8 1311.50   6
   4   4  -3 12876.5 1620.09  55
   4   4  -3 10066.0 1588.84  59
   4   4  -3 10547.2 1402.45  62
   4   4  -3 11308.6 1284.96  38
   4   4  -3 12734.0 1189.26  39
   4   4  -3 11319.9 1222.39  30
   4   4  -3 11019.8 1178.87  29
   4   4  -3 12396.1 1040.66  26
   4   4  -3 11407.4 1224.58  31
   4   4  -3 12077.5 1058.95  25
  -4   4   2 42806.0 2572.03   2
  -4   4   2 43648.6 2506.94   6
   4   4  -2 46950.3 3185.09  55
   4   4  -2 42052.1 3307.06  59
   4   4  -2 40668.0 2840.78  62
   4   4  -2 47080.7 2439.88  39
   4   4  -2 47585.8 2488.69  29
   4   4  -2 45527.8 2187.84  26
   4   4  -2 46492.1 2274.92  25
  -4   4   1 29335.1 2036.20   2
  -4   4   1 28965.2 1915.36   6
   4   4  -1 32086.4 2793.34  59
   4   4  -1 25407.4 2204.38  62
   4   4  -1 30105.2 2509.66  55
   4   4  -1 22865.7 1891.23  38
   4   4  -1 30436.6 1949.53  39
   4   4  -1 27994.2 1677.96  26
   4   4  -1 23550.3 1847.75  30
   4   4  -1 30870.2 1915.33  29
   4   4  -1 25524.9 1876.03  31
   4   4  -1 33023.5 3380.42  20
   4   4  -1 30274.6 1806.38  25
  -4   4   0 55657.1 2914.76   2
  -4   4   0 53429.7 2706.98   6
  -4   4   0 57040.0 2793.75   5
   4   4   0 62823.6 4022.77  59
   4   4   0 54531.8 3334.04  62
   4   4   0 57985.1 3589.13  55
   4   4   0 54977.1 3015.32  38
   4   4   0 60588.1 2895.03  39
   4   4   0 59551.7 2727.42  25
   4   4   0 51738.3 2833.33  30
   4   4   0 62128.8 2680.64  26
   4   4   0 61078.5 2745.29  29
   4   4   0 54629.4 2877.24  31
  -4   4   0 59499.0 2818.55  18
  -4   4  -1 10014.6 1134.11   2
  -4   4  -1 8037.08 983.225   6
  -4   4  -1 11463.9 1213.32   5
   4   4   1 9801.18 1040.43  25
  -4   4  -1 10853.8 1188.20  18
   4   4   1 10451.4 1228.44  38
   4   4   1 9597.04 1122.24  30
   4   4   1 13064.6 1137.13  29
   4   4   1 10930.7 1047.06  26
   4   4   1 10740.0 1177.79  31
   4   4   1 11023.7 1065.00   7
   4   4   2 2109.03 488.332   7
   4   4   2 1766.16 408.111   8
  -4   4  -2 1789.97 446.235   2
  -4   4  -2 1540.82 406.882   6
  -4   4  -2 1800.11 504.347   5
   4   4   2 2404.91 776.373  59
   4   4   2 2346.99 669.852  62
   4   4   2 2724.29 777.145  55
  -4   4  -2 1917.09 527.711  18
   4   4   2 2234.97 531.900  39
   4   4   2 1921.43 525.195  38
   4   4   2 2025.18 515.767  30
   4   4   2 2535.53 463.330  29
   4   4   2 2206.14 489.549  26
   4   4   2 2094.86 526.885  31
   4   4   2 2032.57 481.154  25
   4   4   3 5111.48 771.124   7
   4   4   3 4719.75 687.166   8
  -4   4  -3 5260.03 745.806   2
  -4   4  -3 2979.36 542.806   6
  -4   4  -3 5212.96 864.543   5
   4   4   3 4203.75 1073.04  59
   4   4   3 6109.19 1102.61  55
  -4   4  -3 5354.68 892.655  18
   4   4   3 6142.62 919.710  38
   4   4   3 4309.73 603.558  33
   4   4   3 4766.56 779.165  39
   4   4   3 5775.96 788.703  26
   4   4   3 6045.22 846.536  31
   4   4   3 5069.56 800.562  30
   4   4   3 4750.96 747.100  25
  -4   4  -4 11623.2 1331.81   5
   4   4   4 13103.6 1735.51  59
  -4   4  -4 11092.1 1386.13  61
   4   4   4 13610.4 1582.20  55
  -4   4  -4 11979.2 1364.90  18
   4   4   4 11937.2 1265.16  38
   4   4   4 11723.9 1212.05  39
   4   4   4 11535.9 1040.86  33
   4   4   4 12499.3 1225.01  30
   4   4   4 12732.9 1223.06  31
   4   4   4 10633.1 1095.74  26
   4   4   4 9414.96 1008.99   8
   4   4   4 8656.08 1061.96   7
  -4   4  -5 32362.6 2314.32   5
   4   4   5 27932.2 2591.47  59
  -4   4  -5 34332.9 2586.29  61
   4   4   5 32496.9 2578.76  55
  -4   4  -5 34632.4 2385.95  18
   4   4   5 33069.2 2110.53  38
   4   4   5 30364.7 1795.49  33
   4   4   5 31684.9 2036.73  39
   4   4   5 38000.0 2111.74  31
   4   4   5 31454.5 1950.26  30
   4   4   5 33560.2 2037.34  26
   4   4   5 28628.7 1865.78   8
   4   4   5 30458.4 2041.94   7
   4   4   6 10791.3 1128.18   8
   4   4   6 11855.1 1258.44   7
  -4   4  -6 11114.5 1341.82   5
  -4   4  -6 12703.7 1427.13  59
  -4   4  -6 11761.8 1243.62  62
   4   4   6 5838.77 1429.09  59
  -4   4  -6 14057.4 1626.22  61
   4   4   6 10621.0 1410.95  55
  -4   4  -6 13647.9 1478.14  18
   4   4   6 12311.2 1201.82  38
   4   4   6 10841.2 1051.09  33
   4   4   6 12869.0 1244.57  39
   4   4   6 11941.6 1191.23  26
   4   4   6 12435.3 1093.98  31
   4   4   6 11509.2 1086.13  30
   4   4   6 11084.5 1161.05  25
   4   4   7 24422.6 1694.73   8
   4   4   7 23606.1 1796.17   7
  -4   4  -7 19957.2 1702.69  59
  -4   4  -7 28129.8 2288.66  61
  -4   4  -7 22694.6 1930.92  18
  -4   4  -7 23280.9 1629.25   3
  -4   4  -7 22938.6 1922.37   5
   4   4   7 25453.3 1626.05  38
   4   4   7 19653.2 1463.64  33
   4   4   7 23960.6 1659.95  39
   4   4   7 23020.1 1668.33  26
   4   4   7 22448.0 1437.04  30
   4   4   7 21729.2 1626.21  25
   4   4   8 10569.4 1098.74  25
  -4   4  -8 11181.0 1333.55  18
   4   4   8 8855.44 894.581  17
  -4   4  -8 10537.2 1103.14   3
  -4   4  -8 9873.11 1245.75   5
   4   4   8 11419.8 1088.85  39
   4   4   8 8782.21 953.021  33
   4   4   8 9060.46 1021.58  26
   4   4   8 9935.84 1139.30   7
   4   4   8 11686.2 1158.92   8
   4   4   9 14465.4 1244.39  25
  -4   4  -9 15017.7 1525.30  18
   4   4   9 10587.8 983.172  17
  -4   4  -9 14606.1 1293.47   3
  -4   4  -9 14681.1 1467.67   5
   4   4   9 15535.4 1199.97  39
   4   4   9 11932.3 1157.31  26
   4   4   9 10982.9 1062.38  33
   4   4   9 16032.8 1341.42   8
   4   4  10 3449.50 578.103  25
  -4   4 -10 2935.81 649.551  18
   4   4  10 3201.21 517.768  17
  -4   4 -10 3692.17 631.215   3
   4   4  10 3460.62 520.617  39
   4   4  10 3093.62 572.487  26
   4   4  10 2905.94 532.627  33
   4   4  10 4031.52 644.669   8
   4   4  11 16468.0 1192.99  25
  -4   4 -11 16315.6 1440.04  18
   4   4  11 13560.7 1051.28  17
  -4   4 -11 15536.6 1263.01   3
   4   4  11 14183.3 1124.78  33
   4   4  11 16065.1 1001.93  39
   4   4  11 14250.4 1165.80  26
   4   4  11 18405.5 1427.73   7
   4   4  12 13987.5 990.337  25
  -4   4 -12 14241.6 1258.38  18
   4   4  12 12306.8 931.123  17
  -4   4 -12 13023.9 1083.03   3
   4   4  12 12062.5 967.412  33
   4   4  12 13020.4 1030.09  26
   4   4  12 14708.2 1158.93   7
   4   4  13 19884.2 1054.46  25
   4   4  13 16981.8 1006.50  17
  -4   4 -13 18375.8 1178.28   3
   4   4  13 17842.3 1086.47  33
   4   4  13 17585.5 1104.02  26
   4   4  13 20180.6 1254.49   7
   4   4  14 8728.13 534.935  25
  -4   4 -14 9906.09 803.406  18
  -4   4 -14 9435.22 717.482   3
   4   4  14 8865.41 658.938  26
   4   4  14 9612.84 748.949   7
   4   4  14 11036.4 749.470  34
   4   4  14 10191.3 699.126  33
  -4   5  13 6427.08 497.270  17
  -4   5  13 5611.79 454.243   7
  -4   5  12 9958.27 722.952  17
  -4   5  12 9703.44 741.472   7
  -4   5  12 8446.44 595.409   8
  -4   5  12 8985.15 694.200  39
  -4   5  11 15863.7 1024.54  17
  -4   5  11 13773.9 1017.03   7
  -4   5  11 15289.2 963.391   8
   4   5 -11 15690.4 1089.10  29
  -4   5  10 6411.08 688.976  17
   4   5 -10 7109.18 782.808  29
  -4   5  10 6576.87 682.742   8
  -4   5  10 5923.32 711.630   7
  -4   5   9 3297.48 512.261  17
  -4   5   9 3212.11 521.006   6
   4   5  -9 2986.50 536.223  29
  -4   5   9 3072.27 512.442   8
  -4   5   9 3467.31 585.447   7
  -4   5   8 228.361 178.414  17
  -4   5   8 555.010 195.076  38
  -4   5   8 740.712 272.551   8
   4   5  -8 510.563 247.436  29
  -4   5   8 637.639 238.804   6
  -4   5   7 5660.34 780.466   6
  -4   5   7 6421.42 861.799  59
   4   5  -7 3460.09 811.904  59
   4   5  -7 6315.61 774.049  38
   4   5  -7 7174.38 786.720  30
   4   5  -7 7020.05 859.779  29
  -4   5   7 6590.97 827.540   8
  -4   5   6 3401.21 589.390   6
  -4   5   6 3900.45 723.494  59
   4   5  -6 2173.62 732.796  59
   4   5  -6 4314.68 681.800  38
   4   5  -6 3792.90 612.524  30
   4   5  -6 4227.54 674.224  29
  -4   5   6 2956.69 606.647   7
  -4   5   6 3836.90 653.799   8
  -4   5   5 27791.3 1833.35   6
  -4   5   5 35659.3 2356.03  59
   4   5  -5 27823.6 2513.87  59
   4   5  -5 32254.5 2029.18  38
   4   5  -5 31657.7 1622.27  39
   4   5  -5 31958.1 1942.04  30
   4   5  -5 33732.7 1989.64  29
  -4   5   5 31589.3 2026.92   7
  -4   5   5 31740.2 1981.57   8
  -4   5   4 16764.0 1330.05   6
  -4   5   4 22158.3 1903.72  59
   4   5  -4 16032.8 1905.09  59
   4   5  -4 16270.1 1471.55  38
   4   5  -4 18743.8 1292.33  39
   4   5  -4 18969.7 1453.46  29
   4   5  -4 18360.2 1495.11  30
  -4   5   4 16422.4 1436.80   7
  -4   5   3 19348.5 1445.62   6
  -4   5   3 30059.9 2288.18  59
   4   5  -3 19420.0 2164.16  59
   4   5  -3 24667.0 1856.54  38
   4   5  -3 26647.3 1635.73  39
   4   5  -3 25745.6 1661.64  29
   4   5  -3 21844.1 1659.59  30
  -4   5   3 21935.1 1683.00   7
  -4   5   2 1923.05 492.387   8
  -4   5   2 1524.58 437.240   7
  -4   5   2 1606.12 378.598   6
   4   5  -2 647.926 522.338  59
   4   5  -2 2317.31 485.579  39
   4   5  -2 2396.92 484.982  29
   4   5  -2 2317.02 411.625  25
  -4   5   1 138.729 210.899   8
  -4   5   1 102.124 133.659   7
   4   5  -1 285.277 200.623  39
   4   5  -1 124.349 205.800  38
   4   5  -1 218.360 383.254  59
   4   5  -1 112.139 173.621  30
   4   5  -1 427.319 209.664  29
   4   5  -1 414.594 205.314  25
  -4   5   0 8042.78 971.550   8
  -4   5   0 6440.97 864.118   7
  -4   5   0 9355.43 1300.95  59
   4   5   0 8414.49 1427.74  59
   4   5   0 8425.41 1090.81  38
   4   5   0 8601.78 980.885  39
   4   5   0 7252.30 967.574  30
   4   5   0 9258.62 868.288  29
   4   5   0 8652.99 881.241  25
  -4   5  -1 13684.6 1209.50  18
  -4   5  -1 17619.3 1751.74  59
   4   5   1 15329.4 1446.82  38
   4   5   1 12903.0 1235.85  39
   4   5   1 14768.5 1352.82  30
   4   5   1 14633.3 1176.86  25
  -4   5  -2 12710.3 1101.99   7
  -4   5  -2 21456.5 1939.83  59
   4   5   2 16122.0 1954.29  59
  -4   5  -2 18420.1 1473.05  18
   4   5   2 18577.5 1582.64  38
   4   5   2 16923.9 1446.20  30
   4   5   2 18370.3 1357.66  25
   4   5   3 13504.2 1110.23   7
  -4   5  -3 16255.7 1665.05  59
   4   5   3 15637.2 1849.83  59
  -4   5  -3 13470.1 1293.35  18
  -4   5  -3 13289.1 1276.65   5
   4   5   3 15266.5 1387.50  38
   4   5   3 13432.1 1248.48  30
   4   5   3 14513.7 1217.27  25
   4   5   4 12480.8 1107.21   7
  -4   5  -4 18438.0 1679.58  59
   4   5   4 12025.1 1607.70  59
  -4   5  -4 14753.5 1366.70  18
  -4   5  -4 15464.4 1391.20   5
   4   5   4 15762.6 1375.95  38
   4   5   4 15585.5 1325.27  39
   4   5   4 17516.8 1356.39  30
   4   5   4 14365.7 1209.18  25
   4   5   5 11278.4 1060.47   7
   4   5   5 10375.4 927.727   8
  -4   5  -5 12719.0 1269.63  18
  -4   5  -5 13835.8 1409.56  59
   4   5   5 9025.53 1367.18  59
   4   5   5 14478.6 1227.98  38
   4   5   5 12411.8 1169.60  39
   4   5   5 16020.9 1209.75  30
   4   5   5 12207.5 1103.05  25
   4   5   6 1084.73 344.492   7
   4   5   6 1333.31 343.068   8
  -4   5  -6 1465.74 430.965  18
  -4   5  -6 1241.77 379.693  59
   4   5   6 1193.34 428.339  59
   4   5   6 1221.37 375.990  39
   4   5   6 1384.26 367.674  38
   4   5   6 1371.80 336.775  30
   4   5   6 1306.11 362.682  25
   4   5   7 1336.51 354.014  39
   4   5   7 1166.02 285.879  38
   4   5   7 886.429 312.134   7
   4   5   7 888.424 285.196   8
   4   5   7 1107.19 249.720  30
  -4   5  -7 1502.15 424.290  18
  -4   5  -8 5074.14 732.822  18
   4   5   8 4773.88 671.252   7
   4   5   8 4413.46 586.264   8
   4   5   8 5593.91 657.801  39
   4   5   9 19977.7 1170.81  39
   4   5   9 18477.0 1197.15  25
  -4   5  -9 17723.5 1348.04  18
   4   5   9 19361.3 1289.30   7
   4   5  10 27927.2 1247.42  39
  -4   5 -10 26361.0 1556.64  18
   4   5  10 27738.7 1484.74   7
   4   5  10 27334.3 1379.76  25
  -4   5 -11 7950.66 744.792  18
   4   5  11 7828.42 681.268   7
   4   5  11 8357.41 644.854  25
   4   5  12 2656.54 289.715  25
  -4   5 -12 2529.07 358.280  18
  -4   6   9 9935.16 573.933   8
  -4   6   9 9682.16 590.530   7
   4   6  -8 7247.87 526.597  29
  -4   6   8 8893.47 641.050   7
  -4   6   8 7800.09 568.944  39
   4   6  -7 6431.97 521.704  29
  -4   6   7 6673.42 587.707   7
  -4   6   7 7274.95 614.779   8
  -4   6   7 5577.12 513.262  39
   4   6  -6 1241.25 240.080  29
   4   6  -6 1094.15 238.131  30
  -4   6   6 1209.17 265.793   7
  -4   6   6 991.022 227.970  38
   4   6  -6 930.740 241.495  38
  -4   6   6 1068.45 231.599  39
   4   6  -5 2370.02 315.837  29
   4   6  -5 1917.82 341.740  30
  -4   6   5 2114.72 357.371   7
  -4   6   5 2358.92 393.172   8
   4   6  -5 2499.20 410.963  38
  -4   6   5 2162.95 375.590  38
  -4   6   5 1557.61 277.332  39
  -4   6   4 813.535 265.499  59
   4   6  -4 725.451 309.109  59
   4   6  -4 442.401 200.128  30
   4   6  -4 974.576 188.258  29
  -4   6   4 660.582 224.031   8
  -4   6   4 766.965 227.304   7
   4   6  -4 664.043 239.876  38
  -4   6   4 697.729 233.184  38
  -4   6   4 493.056 153.041  39
  -4   6   3 2583.53 505.783  59
   4   6  -3 1866.60 539.208  59
   4   6  -3 2727.90 456.114  30
  -4   6   3 1728.89 326.290   7
  -4   6   3 2639.71 419.324   8
   4   6  -3 2613.08 475.858  38
  -4   6   3 2642.50 466.269  38
  -4   6   2 16859.1 1372.21  59
   4   6  -2 13713.6 1510.63  59
  -4   6   2 15717.7 1052.99   8
  -4   6   2 14710.3 1153.16  38
   4   6  -1 15301.2 1609.22  59
   4   6  -1 16589.1 1190.47  30
  -4   6   1 14316.6 1001.94   8
   4   6  -1 18243.8 1066.79  39
  -4   6   1 14659.2 1165.95  38
  -4   6   0 9048.83 1019.79  59
   4   6   0 8392.83 1224.38  59
   4   6   0 9401.28 882.732  30
  -4   6   0 8550.43 733.815   8
   4   6   0 11153.0 1005.73  38
   4   6   0 11190.7 852.972  39
  -4   6  -1 9877.29 1043.42  59
   4   6   1 9351.02 860.353  30
  -4   6  -1 6392.13 602.461   8
   4   6   1 8831.93 880.934  38
   4   6   1 8260.16 747.048  39
   4   6   2 1034.52 273.676  39
   4   6   2 1049.79 302.832  38
  -4   6  -2 1063.17 299.893  38
   4   6   2 1251.33 310.055  30
  -4   6  -2 1356.11 379.345  59
   4   6   2 1000.16 374.947  59
   4   6   3 10224.5 868.407  38
  -4   6  -3 8771.14 794.594  38
   4   6   3 8370.47 760.587  39
  -4   6  -3 10674.5 1012.40  59
   4   6   3 6726.22 1020.06  59
   4   6   3 9660.45 795.954  30
  -4   6  -3 9096.88 705.419  18
  -4   6  -4 6172.42 618.706  38
   4   6   4 7234.04 680.023  38
   4   6   4 6452.08 541.428  25
   4   6   4 7455.21 636.511  30
  -4   6  -4 7043.83 625.344  18
   4   6   5 6767.03 586.591  38
  -4   6  -5 5913.44 534.621  38
   4   6   5 8579.01 703.552  39
   4   6   5 6231.20 528.470  25
   4   6   5 7682.64 561.537  30
  -4   6  -5 7487.86 630.086  18
   4   6   6 5964.36 549.201  39
   4   6   6 4880.38 442.241  25
  -4   6  -6 4759.20 487.517  18
   4   6   7 19425.7 923.414  39
   4   6   7 17111.8 809.239  25
   5  -6  -5 781.939 280.781  36
   5  -6  -5 1320.27 463.820  32
   5  -6  -4 2141.86 549.774  40
   5  -6  -4 1769.91 486.766  22
   5  -6  -3 11054.3 1453.78  40
   5  -6  -3 10758.7 1406.62  22
   5  -6  -2 20233.7 2102.61  40
   5  -6  -2 18913.2 1983.41  22
   5  -6  -1 23457.0 2277.23  40
   5  -6  -1 25262.9 2347.26  22
   5  -6  -1 25514.1 1771.25  24
   5  -6   0 5981.45 1149.62  40
   5  -6   0 5474.41 1119.94  22
   5  -6   0 4895.35 805.635  24
   5  -6   1 1415.46 432.730  24
   5  -6   2 597.812 316.516  40
   5  -6   2 869.513 370.267  22
   5  -6   2 280.152 253.471  24
   5  -6   3 3354.58 678.631  40
   5  -6   3 3625.73 649.541  24
   5  -6   3 2792.10 597.987  22
   5  -6   4 8917.50 1011.61  24
   5  -5 -11 2275.07 437.938  20
   5  -5 -10 4909.98 841.482  36
   5  -5 -10 2569.03 379.675  15
   5  -5 -10 5317.19 974.709  32
   5  -5  -9 5904.36 1069.73  36
   5  -5  -9 4479.54 568.858  15
   5  -5  -9 6723.68 1408.61  32
   5  -5  -8 7283.64 1319.38  36
   5  -5  -8 8017.89 1660.28  32
   5  -5  -8 4029.38 581.607  15
   5  -5  -7 16366.9 2033.58  40
   5  -5  -7 11370.1 1000.28  15
   5  -5  -7 16599.3 2022.49  22
   5  -5  -6 21407.8 2605.65  40
   5  -5  -6 11604.2 1237.65  56
   5  -5  -6 14956.2 1435.55  57
   5  -5  -6 12577.6 1121.41  15
   5  -5  -6 19570.5 2478.91  22
   5  -5  -5 9298.53 1896.07  40
   5  -5  -5 5230.81 869.292  56
   5  -5  -5 6679.76 1036.70  57
   5  -5  -5 9810.03 1890.93  22
   5  -5  -5 9076.48 1290.35  24
   5  -5  -5 6239.44 796.550  15
   5  -5  -4 13428.9 1201.09  15
   5  -5  -4 14367.4 1545.11  56
   5  -5  -4 14412.5 1609.42  57
   5  -5  -4 24048.0 3096.88  40
   5  -5  -4 21799.4 2047.34  27
   5  -5  -4 22887.2 2978.45  22
   5  -5  -4 18008.5 2057.69  24
   5  -5  -3 8120.35 925.609  15
   5  -5  -3 8931.78 1244.34  56
   5  -5  -3 7998.55 1234.98  57
   5  -5  -3 14080.2 2479.44  40
   5  -5  -3 15394.9 1851.98  27
   5  -5  -3 14507.1 2459.03  22
   5  -5  -3 12017.2 1782.27  24
   5  -5  -2 2988.51 562.688  15
   5  -5  -2 5038.68 1199.71  24
   5  -5  -2 4094.26 1402.86  22
   5  -5  -2 5537.25 1569.81  40
   5  -5  -2 5422.09 1191.91  27
  -5  -5   2 772.014 330.944  12
   5  -5  -1 4238.85 653.672  15
   5  -5  -1 5635.32 1617.63  40
   5  -5  -1 7677.88 1872.26  22
   5  -5  -1 9322.70 1676.74  24
   5  -5  -1 4269.37 889.521  56
   5  -5   0 28336.6 3544.19  40
   5  -5   0 29004.0 3016.71  24
   5  -5   0 25137.2 3306.96  22
   5  -5   0 16430.7 1744.60  56
   5  -5   0 18300.8 1934.40  57
   5  -5   1 2576.99 703.901  56
   5  -5   1 3671.16 832.904  57
   5  -5   1 4523.58 1261.44  24
   5  -5   2 22427.5 1961.30  56
   5  -5   2 22791.5 2090.93  57
   5  -5   2 31395.2 3572.90  22
   5  -5   2 33460.6 3229.23  24
   5  -5   2 33274.9 3752.19  40
   5  -5   3 8136.95 1135.97  56
   5  -5   3 9130.22 1242.32  57
   5  -5   3 13938.1 2299.40  22
   5  -5   3 11088.1 1835.69  24
   5  -5   3 11993.6 2162.49  40
   5  -5   4 15405.1 1463.30  56
   5  -5   4 18309.5 1675.18  57
   5  -5   4 22944.3 2805.33  22
   5  -5   4 22915.5 2865.59  40
   5  -5   5 2565.90 523.613  56
   5  -5   5 2903.51 595.258  57
   5  -5   5 4109.04 1115.99  22
   5  -5   5 3896.22 1043.44  24
   5  -5   5 3599.34 1013.17  40
   5  -5   6 7098.30 1277.72  24
   5  -5   6 4064.65 553.288  28
   5  -5   7 14768.1 1678.33  24
   5  -5   7 8563.63 811.019  28
   5  -5   8 16660.9 1557.95  24
   5  -5   8 9235.09 797.597  28
   5  -5   9 6621.50 606.326  28
   5  -4 -14 19050.9 1579.93  37
   5  -4 -14 17770.3 1309.07  23
   5  -4 -13 5928.02 1004.59  36
   5  -4 -13 7123.79 924.561  23
   5  -4 -12 598.640 421.144  36
   5  -4 -12 487.466 234.403  15
   5  -4 -12 893.972 373.833  23
   5  -4 -11 10490.6 1701.38  36
   5  -4 -11 8977.01 977.283  15
   5  -4 -11 10064.1 1293.27  23
   5  -4 -10 14101.5 2097.88  36
   5  -4 -10 8597.61 1006.50  15
   5  -4 -10 10786.6 1392.37  23
   5  -4 -10 14236.1 2473.23  32
   5  -4  -9 22807.7 1743.73  15
   5  -4  -9 24414.3 2166.62  23
   5  -4  -8 17791.2 2475.95  40
   5  -4  -8 10378.7 1153.78  15
   5  -4  -8 10764.4 1411.17  23
   5  -4  -8 15272.4 2297.38  22
   5  -4  -7 13878.5 2404.40  40
   5  -4  -7 9444.18 1130.45  15
   5  -4  -7 8188.65 1174.34  56
   5  -4  -7 10298.2 1339.28  57
   5  -4  -7 8010.53 1222.46  23
   5  -4  -7 14223.4 2421.84  22
   5  -4  -6 7433.04 1184.43  56
   5  -4  -6 6756.55 1186.60  57
   5  -4  -6 6348.01 937.854  15
   5  -4  -6 12663.8 2465.00  40
   5  -4  -6 10040.5 1698.61  27
   5  -4  -6 8281.26 1192.68  23
   5  -4  -6 10027.7 2189.30  22
   5  -4  -6 10689.0 1724.92  24
   5  -4  -5-134.609 312.534  57
   5  -4  -5 183.990 240.696  56
   5  -4  -5 163.826 143.783  15
   5  -4  -5 439.163 199.023  14
   5  -4  -5 775.319 769.743  40
   5  -4  -5 1046.55 553.803  27
   5  -4  -5 297.961 584.664  22
   5  -4  -5 576.953 413.391  24
   5  -4  -4 81.7193 143.460  58
   5  -4  -4 427.987 395.897  57
   5  -4  -4 674.289 529.246  42
   5  -4  -4 64.8225 197.078  56
   5  -4  -4 233.429 236.552  54
   5  -4  -4 121.509 174.153  15
   5  -4  -4 148.514 147.483  14
   5  -4  -4 325.484 571.249  40
   5  -4  -4 616.117 569.912  27
   5  -4  -4 151.517 265.940  21
   5  -4  -4 315.963 554.538  22
   5  -4  -4 525.539 488.070  24
   5  -4  -3 30012.8 1990.24  51
   5  -4  -3 31107.8 2910.10  54
   5  -4  -3 41853.7 4406.53  42
   5  -4  -3 28024.2 1777.94  14
   5  -4  -3 29542.7 2082.64  15
   5  -4  -3 57555.6 5716.97  40
   5  -4  -3 34212.5 3068.04  58
   5  -4  -3 34064.6 2953.92  57
   5  -4  -3 32805.5 2788.28  56
   5  -4  -3 49393.9 4999.55  21
   5  -4  -3 56691.2 5551.03  22
   5  -4  -3 51234.3 4360.93  24
   5  -4  -2 15534.2 1432.00  51
   5  -4  -2 15572.8 2058.42  54
   5  -4  -2 23044.3 3208.83  42
   5  -4  -2 15660.9 1282.47  14
   5  -4  -2 17640.1 1536.30  15
   5  -4  -2 28772.4 4063.97  40
   5  -4  -2 17794.4 2212.37  58
   5  -4  -2 26275.1 3608.99  21
   5  -4  -2 27327.5 3921.03  22
   5  -4  -2 29026.3 3333.94  24
   5  -4  -1 25723.4 2508.15  56
   5  -4  -1 27727.4 1966.67  51
   5  -4  -1 40309.1 4277.77  42
   5  -4  -1 28289.8 1751.56  14
   5  -4  -1 30144.7 2014.11  15
   5  -4  -1 52518.1 5494.55  40
  -5  -4   1 18968.5 1952.42  12
   5  -4  -1 40489.4 4663.80  21
   5  -4  -1 52632.6 4580.97  24
   5  -4  -1 49585.1 5272.20  22
   5  -4   0 10573.7 1746.40  58
   5  -4   0 11748.2 1738.52  57
   5  -4   0 9183.25 1458.20  56
   5  -4   0 9308.80 1113.04  51
   5  -4   0 10220.0 1687.08  54
   5  -4   0 10552.8 1130.81  15
   5  -4   0 10309.0 1015.51  14
   5  -4   0 15713.6 2993.21  40
  -5  -4   0 5756.18 1027.73  12
   5  -4   0 15182.8 2952.53  22
   5  -4   1 8009.98 1467.76  58
   5  -4   1 10344.3 1622.82  57
   5  -4   1 8728.53 1420.46  56
   5  -4   1 8011.51 1025.88  51
   5  -4   1 9495.10 1550.11  54
   5  -4   1 11078.1 2208.09  42
   5  -4   1 8151.56 966.385  15
   5  -4   1 8676.21 917.482  14
   5  -4   1 13575.2 2574.82  21
  -5  -4  -1 5490.99 953.615  12
   5  -4   1 8659.34 1175.18  10
  -5  -4  -2 3486.79 737.262  11
   5  -4   2 3773.99 769.399  10
   5  -4   2 4329.44 1000.79  56
   5  -4   2 4106.35 1033.19  58
   5  -4   2 4456.69 1045.31  57
   5  -4   2 4974.23 1457.58  42
   5  -4   2 3900.58 700.468  51
   5  -4   2 4727.77 1074.70  54
   5  -4   2 3793.40 626.854  15
   5  -4   2 3817.42 624.492  35
   5  -4   2 7015.10 1968.34  40
   5  -4   2 5556.84 869.731  28
   5  -4   2 5066.71 1550.38  21
   5  -4   2 6126.77 1857.56  22
  -5  -4  -3 4852.48 823.095  11
   5  -4   3 5419.38 916.315  10
   5  -4   3 4880.46 1029.95  56
   5  -4   3 7945.84 1405.71  58
   5  -4   3 4959.58 1108.64  57
   5  -4   3 5428.77 1491.90  42
   5  -4   3 4182.98 727.938  51
   5  -4   3 6028.05 1187.75  54
   5  -4   3 4980.81 698.066  35
   5  -4   3 7661.07 2022.82  40
   5  -4   3 6232.43 1691.25  21
   5  -4   3 6021.60 1800.71  22
   5  -4   3 5357.46 920.483  28
   5  -4   3 5137.17 868.743  16
  -5  -4  -4 38241.4 2381.79  11
   5  -4   4 41707.8 2585.73  10
   5  -4   4 39160.7 2492.26  16
   5  -4   4 37297.5 2801.18  56
   5  -4   4 44057.8 3140.77  57
   5  -4   4 35424.6 1939.31  35
   5  -4   4 66041.4 5809.74  40
   5  -4   4 41960.9 2681.53  28
   5  -4   4 61722.2 5492.36  22
   5  -4   5 16176.7 1537.50  10
  -5  -4  -5 14634.8 1379.31  11
   5  -4   5 16082.5 1520.02  16
   5  -4   5 14278.4 1605.34  56
   5  -4   5 15815.9 1785.09  57
   5  -4   5 12971.6 1077.93  35
   5  -4   5 16232.1 1645.57  28
   5  -4   5 19966.0 3024.21  22
   5  -4   6 10978.1 1243.33  10
  -5  -4  -6 11616.3 1190.90  11
   5  -4   6 11164.0 1240.97  16
   5  -4   6 9361.76 1189.18  56
   5  -4   6 10299.1 1326.20  57
   5  -4   6 10153.8 897.814  35
   5  -4   6 14448.5 2413.68  40
   5  -4   6 12549.5 1432.70  28
   5  -4   6 15717.1 2504.80  22
   5  -4   6 16710.0 2442.58  24
   5  -4   7 15694.9 1465.69  10
  -5  -4  -7 16109.1 1378.46  11
   5  -4   7 16585.5 1467.62  16
   5  -4   7 16320.0 1506.90  57
   5  -4   7 23754.1 2812.77  40
   5  -4   7 17102.7 1665.39  28
   5  -4   7 23370.3 2709.86  24
   5  -4   7 24563.3 2816.40  22
   5  -4   8 7047.44 1389.29  24
   5  -4   8 5391.21 814.891  16
   5  -4   8 5138.05 882.087  28
   5  -4   8 6045.10 869.071  10
   5  -4   9 3251.85 552.303  53
   5  -4   9 3539.01 603.649  16
   5  -4   9 2598.66 619.154  28
   5  -4   9 2993.91 582.394  10
   5  -4  10 2266.24 459.475  16
   5  -4  10 2244.14 433.132  53
   5  -4  10 2569.34 575.337  28
   5  -4  10 2007.23 454.007  10
   5  -4  11 6998.73 736.928  16
   5  -4  11 7897.84 739.461  53
   5  -4  11 6587.24 748.851  10
   5  -4  12 11707.6 830.550  16
   5  -4  12 11899.3 894.706  10
  -5  -4 -12 9189.56 764.256   4
   5  -4  13 4721.26 458.130  10
   5  -4  13 4261.27 511.579  28
  -5  -4 -13 3518.48 385.773   4
   5  -3 -16 1313.70 425.771  20
   5  -3 -16 1161.31 372.685  23
   5  -3 -16 1862.44 514.906  37
   5  -3 -15 883.906 391.080  23
   5  -3 -15 781.830 429.236  20
   5  -3 -15 325.050 285.500  36
   5  -3 -15 647.313 412.846  37
   5  -3 -14 11663.9 1596.09  20
   5  -3 -14 9212.12 1534.56  36
   5  -3 -13 46648.8 4020.32  32
   5  -3 -13 37908.0 3476.46  36
   5  -3 -12 8063.97 1034.47  15
   5  -3 -12 13279.1 2444.74  32
   5  -3 -12 10269.3 1540.08  23
   5  -3 -12 10437.9 1904.92  36
   5  -3 -11 8339.56 1098.78  15
   5  -3 -11 14406.1 2696.05  32
   5  -3 -11 11703.2 1691.05  23
   5  -3 -11 11918.0 2130.50  36
   5  -3 -10 13312.2 1423.65  15
  -5  -3  10 14680.2 1716.39  13
   5  -3 -10 15901.3 2009.60  23
   5  -3 -10 18389.6 2759.32  36
   5  -3  -9 14327.6 1489.73  15
  -5  -3   9 16695.9 1871.15  13
   5  -3  -9 20448.5 2417.82  27
   5  -3  -9 19866.0 2261.31  23
   5  -3  -8 9626.30 1237.08  56
   5  -3  -8 7556.97 1172.29  57
   5  -3  -8 4663.34 746.978  50
   5  -3  -8 8067.66 1227.66  54
   5  -3  -8 6003.82 954.211  15
  -5  -3   8 7704.03 1218.45  13
   5  -3  -8 11345.2 2189.28  40
   5  -3  -8 8930.77 1684.51  27
   5  -3  -8 8872.20 1518.86  23
   5  -3  -8 12659.3 2258.98  22
   5  -3  -7 10840.4 1435.64  56
   5  -3  -7 12214.5 1575.89  57
   5  -3  -7 8862.97 1085.38  50
   5  -3  -7 15322.8 2408.65  42
   5  -3  -7 11877.9 1612.58  54
  -5  -3   7 11552.7 1517.37  13
   5  -3  -7 9651.69 1203.20  15
   5  -3  -7 19613.1 3081.90  40
   5  -3  -7 17230.9 2394.77  27
   5  -3  -7 19469.4 3010.99  22
   5  -3  -7 13355.3 1820.13  23
   5  -3  -7 18669.9 2800.36  21
   5  -3  -7 17203.9 2287.38  24
   5  -3  -6 36458.6 2768.20  56
   5  -3  -6 42545.8 3115.18  57
  -5  -3   6 30644.1 2727.59  44
   5  -3  -6 32221.8 2141.45  50
   5  -3  -6 38828.5 3135.93  54
   5  -3  -6 50859.8 4699.78  42
  -5  -3   6 38487.2 2791.55  13
   5  -3  -6 25314.8 2286.27  12
   5  -3  -6 33359.2 2281.12  15
   5  -3  -6 62368.6 5725.83  40
   5  -3  -6 55585.8 4511.11  27
   5  -3  -6 55287.4 5119.03  21
   5  -3  -6 57544.8 4433.23  24
   5  -3  -6 58486.9 5431.92  22
   5  -3  -6 40461.6 3126.12  23
   5  -3  -5 28037.1 2484.88  56
   5  -3  -5 30896.3 2908.72  58
   5  -3  -5 35653.0 2927.58  57
  -5  -3   5 26168.8 2429.82  44
   5  -3  -5 25471.0 1884.46  50
   5  -3  -5 31233.6 2847.24  54
   5  -3  -5 44474.7 4469.58  42
  -5  -3   5 27809.1 2265.58  13
   5  -3  -5 19734.8 1895.98  12
   5  -3  -5 26227.9 1957.39  15
   5  -3  -5 52429.3 5371.24  40
   5  -3  -5 52731.9 4452.27  27
   5  -3  -5 36777.0 2819.71  23
   5  -3  -5 46312.9 4731.40  21
   5  -3  -5 51597.4 5189.03  22
   5  -3  -5 45081.3 4020.44  24
   5  -3  -4 29411.0 2650.97  56
   5  -3  -4 34166.4 3116.63  58
   5  -3  -4 36050.0 2997.57  57
   5  -3  -4 25113.3 1780.02  51
  -5  -3   4 29219.2 2516.22  44
   5  -3  -4 28367.0 2016.46  50
   5  -3  -4 32129.4 2951.16  54
   5  -3  -4 44625.0 4563.97  42
   5  -3  -4 30414.7 2072.26  15
  -5  -3   4 30404.9 2260.45  13
   5  -3  -4 52112.7 5439.10  40
   5  -3  -4 52730.8 4535.54  27
   5  -3  -4 35849.5 2689.46  23
   5  -3  -4 49440.7 5023.48  21
   5  -3  -4 51472.4 5284.74  22
   5  -3  -4 51498.6 4391.84  24
   5  -3  -3 10787.8 1100.48  51
  -5  -3   3 11975.9 1503.32  44
  -5  -3   3 11580.4 1471.87  43
   5  -3  -3 10310.2 1686.21  54
   5  -3  -3 14817.9 2667.71  42
   5  -3  -3 10380.5 1141.46  15
   5  -3  -3 18502.6 3264.04  40
   5  -3  -3 10988.5 1604.09  56
   5  -3  -3 12303.3 1853.35  58
   5  -3  -3 12872.6 1789.97  57
   5  -3  -3 12925.8 1482.40  23
   5  -3  -3 15517.9 2885.44  21
   5  -3  -3 20284.8 3363.87  22
   5  -3  -3 18103.0 2680.25  24
   5  -3  -2 6303.40 887.705  51
  -5  -3   2 7344.93 1142.50  44
  -5  -3   2 8335.14 1229.66  43
   5  -3  -2 10291.7 2221.70  42
   5  -3  -2 7712.62 935.592  15
   5  -3  -2 8244.04 1009.77  35
   5  -3  -2 10864.3 2541.36  40
   5  -3  -2 6411.66 1386.80  58
   5  -3  -2 10647.6 2388.69  21
   5  -3  -2 13551.9 2745.93  22
   5  -3  -2 13951.6 2378.09  24
   5  -3  -1 8147.51 1190.95  10
   5  -3  -1 7734.20 977.611  51
  -5  -3   1 7251.92 1121.92  44
  -5  -3   1 9879.84 1316.24  43
   5  -3  -1 8986.39 1589.10  54
   5  -3  -1 11640.3 2359.66  42
   5  -3  -1 7972.01 1372.62  56
   5  -3  -1 8365.15 1004.25  35
   5  -3  -1 11630.2 2630.65  40
   5  -3  -1 9525.10 1152.23  28
   5  -3  -1 12296.5 2544.63  21
   5  -3  -1 13109.5 2695.51  22
   5  -3  -1 15394.7 2511.28  24
   5  -3   0 33179.9 2466.50  10
   5  -3   0 32730.6 3117.04  58
   5  -3   0 33812.8 3035.09  57
   5  -3   0 30484.2 2730.96  56
   5  -3   0 31466.4 2060.40  51
  -5  -3   0 37573.6 2691.33  43
   5  -3   0 30014.0 2907.34  54
   5  -3   0 40186.0 4390.52  42
   5  -3   0 33904.1 2082.11  35
   5  -3   0 51912.0 5535.10  40
   5  -3   0 34227.6 2376.54  28
   5  -3   0 48939.6 5247.39  22
   5  -3   1 9720.55 1501.46  56
   5  -3   1 8120.86 1526.60  58
   5  -3   1 9807.63 1599.93  57
   5  -3   1 7809.78 1006.82  51
  -5  -3  -1 8611.92 1268.85  43
   5  -3   1 9206.29 1576.38  54
   5  -3   1 10481.1 1225.29  16
   5  -3   1 9441.04 1050.72  35
   5  -3   1 10176.0 1306.17  28
  -5  -3  -1 5916.52 983.021  12
   5  -3   1 7986.30 1178.21  10
   5  -3   2 39914.6 2628.18  10
   5  -3   2 35374.0 2870.15  56
   5  -3   2 34949.0 3196.83  58
   5  -3   2 36668.4 3078.38  57
   5  -3   2 31687.7 2130.92  51
  -5  -3  -2 36807.8 2689.61  43
   5  -3   2 35009.0 3144.32  54
   5  -3   2 45279.4 4612.72  42
   5  -3   2 35914.0 2347.05  16
   5  -3   2 33573.8 2081.34  35
   5  -3   2 57845.7 5758.12  40
   5  -3   2 36673.4 2625.26  28
   5  -3   2 47714.2 5016.06  21
   5  -3   2 58103.8 5655.49  22
   5  -3   3 40680.2 2661.12  10
  -5  -3  -3 29480.1 2087.42  11
   5  -3   3 38533.9 2986.76  56
   5  -3   3 36437.4 3250.73  58
   5  -3   3 43108.8 3270.15  57
   5  -3   3 36856.0 2299.62  51
   5  -3   3 41436.4 3320.38  54
   5  -3   3 43367.4 4520.19  42
   5  -3   3 36915.0 2414.56  16
   5  -3   3 35391.5 2135.89  35
   5  -3   3 53419.7 5526.62  40
   5  -3   3 38032.3 2751.83  28
   5  -3   3 56625.8 5375.47  21
   5  -3   3 54148.9 5394.77  22
   5  -3   4 65118.5 3523.92  10
  -5  -3  -4 67209.5 3199.84  11
   5  -3   4 64672.7 3853.29  56
   5  -3   4 55950.5 2784.80  63
   5  -3   4 78433.2 4376.38  57
   5  -3   4 58002.6 3043.39  52
   5  -3   4 60052.7 3107.85  51
   5  -3   4 66427.5 4215.33  54
   5  -3   4 74456.2 5821.49  42
   5  -3   4 67118.7 3363.15  16
   5  -3   4 59374.8 2895.47  35
   5  -3   4 86130.9 6881.24  40
   5  -3   4 71570.2 3901.78  28
   5  -3   4 97707.5 7162.20  22
   5  -3   4 81951.4 6424.83  21
   5  -3   5 1465.06 510.472  10
  -5  -3  -5 1663.97 479.822  11
   5  -3   5 1370.91 638.820  57
   5  -3   5 1921.11 482.066  63
   5  -3   5 1774.91 476.261  52
   5  -3   5 2580.34 1013.20  42
   5  -3   5 2073.50 655.997  56
   5  -3   5 2235.41 694.374  54
   5  -3   5 1886.81 540.146  16
   5  -3   5 880.733 332.759  35
   5  -3   5 4195.19 1542.97  40
   5  -3   5 1887.54 624.038  28
   5  -3   5 2114.26 958.685  21
   5  -3   5 1913.07 1065.43  22
   5  -3   6 6061.98 998.452  10
  -5  -3  -6 4686.57 779.451  11
   5  -3   6 6079.24 1048.29  56
   5  -3   6 5116.99 814.733  63
   5  -3   6 6288.81 1108.44  57
   5  -3   6 6548.93 948.252  52
   5  -3   6 7396.76 1653.02  42
   5  -3   6 6572.94 1148.48  54
   5  -3   6 4674.70 834.473  16
   5  -3   6 5311.60 769.053  35
   5  -3   6 7432.18 1897.61  40
   5  -3   6 6435.70 1155.60  28
   5  -3   6 6060.79 1572.90  21
   5  -3   6 7881.33 1896.70  22
   5  -3   6 7914.49 1819.53  24
   5  -3   7 5379.09 861.546  63
   5  -3   7 4635.60 864.700  56
   5  -3   7 6237.74 1006.60  57
   5  -3   7 6489.80 925.691  52
   5  -3   7 5010.95 736.253  35
   5  -3   7 7942.82 1774.47  40
   5  -3   7 9765.86 1965.98  22
   5  -3   7 7665.57 1677.81  24
   5  -3   7 6739.10 1047.26  10
  -5  -3  -7 5378.42 813.886  11
   5  -3   7 5787.72 904.971  16
   5  -3   8 22826.6 1950.29  10
  -5  -3  -8 21379.7 1661.98  11
   5  -3   8 23835.0 1853.29  63
   5  -3   8 23045.0 1825.59  16
   5  -3   8 22282.4 1575.02  35
   5  -3   8 34709.7 3515.36  40
   5  -3   8 23757.2 2206.06  28
   5  -3   8 36534.2 3491.91  22
   5  -3   8 35220.6 3386.57  24
   5  -3   9 18661.3 1726.98  10
  -5  -3  -9 15932.6 1353.22  11
   5  -3   9 16609.1 1534.51  63
   5  -3   9 20648.2 1619.97  53
   5  -3   9 16287.4 1496.69  16
   5  -3   9 16462.8 1287.05  35
   5  -3   9 20224.6 1982.94  28
   5  -3  10 15979.7 1466.10  63
   5  -3  10 16275.0 1381.51  53
   5  -3  10 12485.8 1264.94  16
   5  -3  10 14233.9 1125.56  35
   5  -3  10 19051.2 1858.09  28
   5  -3  10 12828.3 1386.19  10
  -5  -3 -10 13406.7 1185.86  11
   5  -3  11 11512.8 1099.56  53
   5  -3  11 8919.20 995.047  16
   5  -3  11 9005.96 825.546  35
   5  -3  11 10013.5 1114.91  63
   5  -3  11 10164.9 1161.13  10
   5  -3  12 6971.40 644.306  35
   5  -3  12 7242.49 819.661  16
   5  -3  12 8574.94 881.519  53
   5  -3  12 8686.20 970.597  63
   5  -3  13 1429.86 365.616  63
   5  -3  13 1597.86 344.942  53
  -5  -3 -13 1168.78 319.486   4
   5  -3  13 1370.86 318.218  16
   5  -3  13 2251.42 497.864  28
  -5  -3 -14 7223.68 654.102   4
   5  -3  14 5629.04 538.840  16
   5  -3  14 8206.54 830.935  28
  -5  -3 -15 4056.21 405.118   4
   5  -2 -17 11850.3 1272.59  20
   5  -2 -17 11355.5 1130.14  23
   5  -2 -17 12903.1 1416.37  37
   5  -2 -16 17962.4 1679.25  23
   5  -2 -16 19145.4 1899.50  20
   5  -2 -16 19125.9 1985.71  37
   5  -2 -16 20933.6 2160.72  36
   5  -2 -15 21139.3 2077.97  23
   5  -2 -15 21275.0 2275.11  20
   5  -2 -15 20050.3 2275.54  37
   5  -2 -15 23538.3 2613.44  36
   5  -2 -14 5822.80 1439.19  36
   5  -2 -14 4380.12 1026.09  23
   5  -2 -14 7073.79 1439.58  20
   5  -2 -14 7135.20 1545.99  32
   5  -2 -13 3929.02 1285.16  36
   5  -2 -13 5862.99 1693.96  32
   5  -2 -13 3933.84 1157.17  20
   5  -2 -13 3122.27 929.377  23
   5  -2 -12 1255.49 824.889  36
  -5  -2  12 1441.12 528.068  13
   5  -2 -12 1108.17 833.956  32
   5  -2 -12 1230.90 611.614  23
   5  -2 -11 26884.1 3989.60  32
   5  -2 -11 16791.8 2296.82  27
   5  -2 -11 22444.8 3174.87  36
  -5  -2  11 20788.7 2124.13  13
   5  -2 -11 15884.4 1584.49  15
   5  -2 -10 31704.9 4412.96  32
   5  -2 -10 25918.3 2978.27  27
   5  -2 -10 26375.9 3469.48  36
   5  -2 -10 18497.0 1718.88  15
  -5  -2  10 20958.6 2147.66  13
   5  -2  -9 14243.8 1476.62  57
   5  -2  -9 14402.4 1417.31  56
   5  -2  -9 16037.3 1549.16  15
   5  -2  -9 23081.4 3223.58  36
   5  -2  -9 27210.4 4119.02  32
   5  -2  -9 20997.9 2714.26  27
   5  -2  -9 17534.6 2255.45  23
   5  -2  -8 27948.4 2175.20  56
   5  -2  -8 28404.9 2280.16  57
   5  -2  -8 34152.3 3568.52  42
   5  -2  -8 27163.8 2321.71  54
   5  -2  -8 22889.9 1876.51  15
   5  -2  -8 42036.2 4359.61  40
   5  -2  -8 51375.0 5696.25  32
   5  -2  -8 36131.6 3676.12  27
   5  -2  -8 35260.2 3778.48  21
   5  -2  -8 28312.0 2827.11  23
   5  -2  -8 33353.4 3192.64  24
   5  -2  -8 40500.8 4068.75  22
   5  -2  -7 34252.1 2527.96  56
   5  -2  -7 42737.3 2915.76  57
   5  -2  -7 29702.8 1889.29  50
   5  -2  -7 50126.4 4454.82  42
   5  -2  -7 37246.9 2859.56  54
   5  -2  -7 33177.5 2212.86  15
   5  -2  -7 61127.0 5282.16  40
   5  -2  -7 52296.4 4403.91  27
   5  -2  -7 52707.5 4786.45  21
   5  -2  -7 37806.9 3225.57  23
   5  -2  -7 57295.2 5032.27  22
   5  -2  -7 54082.3 4255.13  24
   5  -2  -6 14019.7 1621.27  56
   5  -2  -6 16174.7 1808.36  57
   5  -2  -6 11128.5 1089.08  50
   5  -2  -6 17827.2 2678.21  42
   5  -2  -6 14447.2 1782.75  54
   5  -2  -6 12593.3 1265.87  15
   5  -2  -6 22779.1 3320.63  40
   5  -2  -6 20298.9 2744.03  27
   5  -2  -6 16660.7 2047.63  23
   5  -2  -6 20310.5 3049.03  21
   5  -2  -6 18911.5 3050.98  22
   5  -2  -6 20340.5 2567.78  24
   5  -2  -5 6460.58 1113.82  56
   5  -2  -5 6382.34 1166.88  57
   5  -2  -5 5841.85 780.708  50
   5  -2  -5 6357.14 1215.30  54
   5  -2  -5 8451.06 1896.94  42
  -5  -2   5 5773.55 677.493   1
   5  -2  -5 7697.20 901.509  33
   5  -2  -5 11096.1 2393.14  40
   5  -2  -5 11928.3 2104.41  27
   5  -2  -5 10109.2 2201.70  22
   5  -2  -5 9202.52 1407.92  23
   5  -2  -5 9545.11 2093.52  21
   5  -2  -5 8960.61 1781.99  24
   5  -2  -4 6416.62 729.502  51
   5  -2  -4 8956.47 1458.93  54
   5  -2  -4 11212.0 2187.46  42
   5  -2  -4 6942.77 846.919  50
   5  -2  -4 7769.61 1243.27  56
   5  -2  -4 8193.44 1336.98  57
   5  -2  -4 9142.32 1035.21  35
   5  -2  -4 9925.41 2335.70  40
   5  -2  -4 7032.64 854.310  33
   5  -2  -4 14574.9 2326.83  27
   5  -2  -4 9001.56 1340.70  23
   5  -2  -4 9745.38 2138.74  21
   5  -2  -4 10930.0 2370.76  22
   5  -2  -4 11636.3 2053.44  24
   5  -2  -3 42941.4 2142.76  51
   5  -2  -3 49590.6 3525.14  54
   5  -2  -3 61875.4 5149.00  42
   5  -2  -3 44295.7 3108.86  56
   5  -2  -3 48671.3 3397.04  57
   5  -2  -3 46123.4 2473.26  35
   5  -2  -3 73818.9 6276.81  40
   5  -2  -3 49633.0 2377.11  33
   5  -2  -3 50472.0 2821.22  28
   5  -2  -3 58562.7 3465.24  23
   5  -2  -3 68803.0 5742.07  21
   5  -2  -3 72524.5 6056.15  22
   5  -2  -3 72296.8 5209.77  24
   5  -2  -2 68112.9 2921.71  51
   5  -2  -2 87952.9 6259.82  42
   5  -2  -2 83392.0 4093.01  23
   5  -2  -2 99542.7 6994.04  21
   5  -2  -2 111881. 7622.87  22
   5  -2  -2 113811. 6597.24  24
   5  -2  -2 74773.1 3286.34  35
   5  -2  -2 112388. 7904.43  40
   5  -2  -2 75877.5 3074.43  33
   5  -2  -2 87580.2 3915.06  28
   5  -2  -2 73375.0 3685.07  10
   5  -2  -1 56149.4 3069.99  10
   5  -2  -1 46530.6 3270.22  56
   5  -2  -1 52993.0 2473.81  51
  -5  -2   1 52297.7 3047.68  44
  -5  -2   1 61605.3 3244.48  43
   5  -2  -1 50208.0 3623.18  54
   5  -2  -1 69557.3 5504.12  42
   5  -2  -1 52335.4 2637.18  35
   5  -2  -1 79751.0 6564.41  40
   5  -2  -1 57032.9 2502.35  33
   5  -2  -1 64861.3 3321.12  28
   5  -2  -1 76390.6 6063.39  21
   5  -2  -1 85065.1 6584.64  22
   5  -2  -1 81667.9 5583.08  24
   5  -2   0 265.304 257.508  10
   5  -2   0 1077.37 515.184  57
   5  -2   0 778.470 683.172  42
   5  -2   0 203.877 135.482  51
  -5  -2   0 520.741 263.951  44
   5  -2   0 243.962 321.225  56
  -5  -2   0 542.091 317.234  43
   5  -2   0 435.600 360.478  54
   5  -2   0 499.155 226.337  16
   5  -2   0 297.879 209.595  35
   5  -2   0 1116.09 884.925  40
   5  -2   0 886.458 366.788  28
   5  -2   0 464.279 217.250  33
   5  -2   0 458.488 569.042  24
   5  -2   1 25005.5 1648.01  51
  -5  -2  -1 22840.6 1777.77  44
  -5  -2  -1 25599.0 2002.34  43
   5  -2   1 25732.3 2514.29  54
   5  -2   1 27950.1 1809.32  16
   5  -2   1 24489.0 1505.68  33
   5  -2   1 25598.4 1747.92  35
   5  -2   1 27240.7 1797.79  34
   5  -2   1 26897.3 2187.80  28
   5  -2   1 25975.2 2307.38  56
   5  -2   1 32011.7 2687.58  57
   5  -2   2 3729.21 900.500  57
   5  -2   2 2973.10 542.362  52
   5  -2   2 4103.03 1333.18  42
   5  -2   2 3873.73 642.056  51
  -5  -2  -2 4126.08 782.882  43
   5  -2   2 3126.29 813.550  56
   5  -2   2 4371.21 1016.41  54
   5  -2   2 3939.57 662.608  16
   5  -2   2 2795.87 574.484  34
   5  -2   2 2839.41 475.872  33
   5  -2   2 3038.49 584.834  35
   5  -2   2 5036.81 1681.81  40
   5  -2   2 3421.61 794.922  28
   5  -2   2 5132.93 1564.32  21
   5  -2   2 5288.02 1636.10  22
   5  -2   2 3944.33 1240.48  24
  -5  -2  -3 7115.85 860.965  11
   5  -2   3 7815.36 1225.85  56
   5  -2   3 6857.61 865.329  63
   5  -2   3 8472.90 1363.49  57
  -5  -2  -3 7705.00 1134.25  46
   5  -2   3 6950.40 877.418  52
   5  -2   3 7117.16 900.207  51
  -5  -2  -3 8270.93 1114.23  43
   5  -2   3 7779.09 1378.86  54
   5  -2   3 9133.21 1974.59  42
   5  -2   3 8158.91 959.552  16
   5  -2   3 7255.00 766.108  33
   5  -2   3 6786.83 894.324  35
   5  -2   3 7396.85 930.811  34
   5  -2   3 10364.3 2327.73  40
   5  -2   3 10261.3 1395.46  28
   5  -2   3 11458.1 2297.20  22
   5  -2   3 11245.1 2293.30  21
   5  -2   3 11360.3 2080.86  24
   5  -2   4 58172.2 3048.11   9
  -5  -2  -4 56731.2 2635.73  11
   5  -2   4 54238.5 3391.44  56
   5  -2   4 53697.4 2774.41  63
   5  -2   4 61743.9 3716.35  57
   5  -2   4 51550.5 2659.42  52
   5  -2   4 68689.7 5378.44  42
   5  -2   4 65133.5 3941.84  54
   5  -2   4 55129.3 2796.65  16
   5  -2   4 47888.0 2221.02  33
   5  -2   4 84483.1 6566.35  40
   5  -2   4 50894.2 2665.86  34
   5  -2   4 50764.3 2659.65  35
   5  -2   4 60552.8 3583.90  28
   5  -2   4 80594.5 6147.61  21
   5  -2   4 87224.7 6523.40  22
   5  -2   4 76008.6 5448.14  24
   5  -2   5 20348.2 1736.33   9
  -5  -2  -5 20641.6 1509.77  11
   5  -2   5 22943.8 2059.55  56
   5  -2   5 17818.9 1589.95  63
   5  -2   5 25377.2 2286.12  57
   5  -2   5 19349.9 1591.91  52
   5  -2   5 27861.6 3359.74  42
   5  -2   5 20636.2 2140.56  54
  -5  -2  -5 22108.4 1990.12  46
   5  -2   5 21002.2 1664.44  16
   5  -2   5 30389.1 3886.25  40
   5  -2   5 19113.4 1553.67  35
   5  -2   5 20147.5 1573.54  34
   5  -2   5 21097.6 2100.98  28
   5  -2   5 30053.1 3551.43  21
   5  -2   5 24736.1 3410.53  22
   5  -2   5 29791.8 3331.31  24
   5  -2   6 43840.5 2654.75   9
  -5  -2  -6 43892.3 2296.30  11
   5  -2   6 34633.7 2383.32  63
   5  -2   6 43324.0 2792.35  56
   5  -2   6 50509.7 3181.38  57
   5  -2   6 46525.3 2582.13  52
   5  -2   6 51960.3 4541.88  42
   5  -2   6 39624.6 2959.68  54
  -5  -2  -6 41142.2 2821.82  46
   5  -2   6 40684.4 2434.21  16
   5  -2   6 41183.6 2369.83  35
   5  -2   6 56480.8 5174.01  40
   5  -2   6 40434.6 2346.73  34
   5  -2   6 46019.9 3241.04  28
   5  -2   6 56316.1 4877.15  21
   5  -2   6 57864.6 5121.01  22
   5  -2   6 68219.9 4993.26  24
   5  -2   7 50027.8 3076.75  10
   5  -2   7 47916.0 2835.16   9
  -5  -2  -7 52919.6 2561.90  11
   5  -2   7 41730.1 2708.22  63
   5  -2   7 58314.8 3086.84  56
   5  -2   7 54489.6 3214.20  57
   5  -2   7 52422.8 2817.78  52
   5  -2   7 60742.4 4767.58  42
   5  -2   7 51755.6 3229.74  54
  -5  -2  -7 45770.3 2991.97  46
   5  -2   7 43421.6 2582.93  16
   5  -2   7 44935.9 2504.80  34
   5  -2   7 72333.3 5668.51  40
   5  -2   7 44700.7 2536.24  35
   5  -2   7 47629.1 3313.94  28
   5  -2   7 66953.2 5208.27  21
   5  -2   7 69478.5 5374.75  22
   5  -2   7 75414.6 5115.22  24
   5  -2   8 7612.42 1109.64  63
   5  -2   8 7427.81 988.284  52
   5  -2   8 6452.25 934.947  16
   5  -2   8 10453.0 1950.26  40
   5  -2   8 7012.48 929.672  35
   5  -2   8 6763.70 897.518  34
   5  -2   8 5940.20 1011.71  10
   5  -2   8 6438.18 994.308   9
  -5  -2  -8 6723.98 852.592  11
   5  -2   8 11482.7 1953.86  22
   5  -2   8 11719.0 1852.95  24
   5  -2   9 550.245 340.249  63
   5  -2   9 672.808 295.472  52
   5  -2   9 601.576 272.897  16
   5  -2   9 459.178 264.088  34
   5  -2   9 573.382 281.557  35
   5  -2   9 1064.44 518.280  24
   5  -2   9 353.551 280.597  10
   5  -2   9 662.526 319.863   9
  -5  -2  -9 919.460 299.922  11
  -5  -2 -10 7257.96 1027.58   5
   5  -2  10 6568.25 1042.68  63
   5  -2  10 7805.96 1005.47  53
   5  -2  10 6298.12 887.919  16
   5  -2  10 6187.48 850.229  35
   5  -2  10 6542.29 827.910  34
   5  -2  10 8107.57 1291.77  28
   5  -2  10 7499.62 1090.51  10
   5  -2  10 7089.15 1007.35   9
  -5  -2 -11 6479.93 923.411   5
   5  -2  11 6188.67 989.436  63
   5  -2  11 6827.00 925.293  53
   5  -2  11 5040.34 792.103  16
   5  -2  11 6531.41 843.333  35
   5  -2  11 5378.20 714.255  34
   5  -2  11 7268.21 1164.55  28
   5  -2  11 6890.18 1017.99  10
   5  -2  11 6909.83 954.662   9
   5  -2  12 25503.3 1953.87  63
   5  -2  12 21472.8 1618.80  53
   5  -2  12 18206.2 1448.34  16
   5  -2  12 19963.3 1439.52  35
   5  -2  12 21233.6 1331.60  34
   5  -2  12 25799.3 2097.85  28
   5  -2  12 20463.9 1715.13  10
   5  -2  12 19763.7 1605.42   9
  -5  -2 -13 13115.6 1141.56   4
   5  -2  13 12235.2 1255.44  63
   5  -2  13 12015.3 1097.89  53
   5  -2  13 9735.84 956.861  16
   5  -2  13 11954.2 1010.43  35
   5  -2  13 11083.4 828.678  34
   5  -2  13 12122.2 1311.60  28
   5  -2  13 10921.6 1157.14  10
   5  -2  13 10841.1 1100.66   9
   5  -2  14 22028.1 1591.25  63
   5  -2  14 20216.0 1332.98  53
   5  -2  14 19177.1 1188.95  35
  -5  -2 -14 21406.2 1349.81   4
   5  -2  14 21783.4 1571.34  28
   5  -2  14 20925.0 1466.16  10
   5  -2  14 20133.7 1393.93   9
   5  -2  15 8614.35 631.799  35
  -5  -2 -15 8615.56 719.677   4
   5  -2  15 8190.80 771.647  10
   5  -2  15 7595.28 753.290   9
   5  -2  15 9174.90 815.497  28
  -5  -2 -16 13.1895 73.2581   3
  -5  -2 -16 235.197 119.599   4
   5  -1 -18 6061.23 743.366  20
  -5  -1  18 3483.68 496.238  10
   5  -1 -18 6208.21 943.390  37
   5  -1 -17 4797.11 912.311  20
   5  -1 -17 5057.48 814.298  23
   5  -1 -17 5604.62 1063.97  37
   5  -1 -16 3232.32 770.198  23
   5  -1 -16 3076.57 873.446  20
   5  -1 -16 3871.25 1091.09  36
   5  -1 -16 3954.06 997.995  37
   5  -1 -15 499.739 392.306  32
   5  -1 -15 390.075 342.380  23
   5  -1 -15 163.921 249.258  20
   5  -1 -15 517.459 544.948  36
   5  -1 -15 421.447 205.280  41
   5  -1 -14 4402.89 751.555  41
   5  -1 -14 8796.48 1931.79  32
   5  -1 -14 6781.83 1308.33  23
   5  -1 -14 8678.62 1676.60  20
   5  -1 -14 8118.03 1816.10  36
   5  -1 -13 63178.0 5229.01  36
   5  -1 -13 68464.7 5956.11  32
   5  -1 -13 51408.7 4141.06  27
   5  -1 -13 57105.3 4020.25  23
   5  -1 -13 61002.6 4671.42  20
   5  -1 -12 25804.8 2009.89  41
  -5  -1  12 31842.3 1984.08   1
   5  -1 -12 39759.4 3846.58  37
   5  -1 -12 40052.4 4235.57  36
   5  -1 -12 35762.1 3659.86  27
   5  -1 -12 43153.6 4995.28  32
   5  -1 -12 40061.7 3449.05  23
   5  -1 -12 40883.4 3859.96  20
   5  -1 -11 28991.8 2156.62  41
  -5  -1  11 37299.4 2178.83   1
   5  -1 -11 50811.9 4786.03  36
   5  -1 -11 40812.2 3990.07  27
   5  -1 -11 61436.0 6052.92  32
   5  -1 -11 45103.3 3677.15  23
   5  -1 -11 43804.0 4088.82  20
  -5  -1  10 2792.51 572.214   1
   5  -1 -10 2147.01 535.854  41
   5  -1 -10 4014.25 1209.55  27
   5  -1 -10 4676.58 1738.13  32
   5  -1 -10 2983.57 975.660  23
   5  -1  -9 7451.37 965.287  56
   5  -1  -9 8338.09 1074.08  57
   5  -1  -9 7375.43 1052.25  54
   5  -1  -9 7002.02 959.627  41
  -5  -1   9 7384.57 905.455   1
   5  -1  -9 8995.08 1876.77  27
   5  -1  -9 11534.4 1847.72  24
   5  -1  -9 9880.92 1882.75  20
   5  -1  -8 4974.38 908.308  57
   5  -1  -8 7083.90 992.912  56
   5  -1  -8 4521.01 1229.97  42
   5  -1  -8 5433.33 973.565  54
   5  -1  -8 5127.79 798.535  41
  -5  -1   8 5160.96 744.689   1
   5  -1  -8 7882.47 1843.95  36
   5  -1  -8 8469.86 1847.74  40
   5  -1  -8 7127.34 1657.69  27
   5  -1  -8 8543.77 2308.14  32
   5  -1  -8 7059.74 1604.13  21
   5  -1  -8 8418.81 1782.15  22
   5  -1  -8 5685.98 1350.20  24
   5  -1  -7 21798.7 1967.43  57
   5  -1  -7 20798.8 1815.13  56
   5  -1  -7 24533.0 3009.17  42
   5  -1  -7 23044.1 2095.50  54
   5  -1  -7 16832.4 1468.02  41
  -5  -1   7 19562.5 1448.76   1
   5  -1  -7 27551.3 3351.57  36
   5  -1  -7 21120.6 1560.08  33
   5  -1  -7 30000.7 3650.80  40
   5  -1  -7 33949.0 4495.13  32
   5  -1  -7 27897.6 3236.47  27
   5  -1  -7 26813.8 3298.23  21
   5  -1  -7 22314.6 2422.78  23
   5  -1  -7 31542.7 3523.72  22
   5  -1  -7 27416.8 2968.87  24
   5  -1  -6 32034.3 2328.02  56
   5  -1  -6 30862.9 2405.10  57
   5  -1  -6 38345.2 3845.65  42
   5  -1  -6 26392.7 1853.59  41
   5  -1  -6 30727.4 2483.07  54
   5  -1  -6 43315.7 4547.93  40
   5  -1  -6 31872.0 1899.18  33
   5  -1  -6 44684.1 5099.56  32
   5  -1  -6 31123.3 2162.90  28
   5  -1  -6 39125.7 3808.40  27
   5  -1  -6 40668.9 4088.46  21
   5  -1  -6 31645.2 2830.77  23
   5  -1  -6 49300.5 4495.70  22
   5  -1  -6 40153.4 3698.50  24
   5  -1  -5 37905.6 2561.76  56
   5  -1  -5 43364.8 2857.96  57
  -5  -1   5 35609.2 1999.13  46
   5  -1  -5 33422.2 2010.77  41
   5  -1  -5 49224.6 4333.46  42
   5  -1  -5 36762.0 2779.70  54
  -5  -1   5 29046.1 1730.69   2
   5  -1  -5 34748.2 2014.05  35
   5  -1  -5 55020.5 5076.27  40
   5  -1  -5 34970.0 1986.13  33
   5  -1  -5 29142.8 1590.99  29
   5  -1  -5 38110.9 2431.17  28
   5  -1  -5 37079.4 2024.83  26
   5  -1  -5 54621.5 4413.31  27
   5  -1  -5 42211.3 3166.12  23
   5  -1  -5 53426.1 4786.16  21
   5  -1  -5 56468.2 5073.39  22
   5  -1  -5 52993.0 4161.38  24
  -5  -1   4 56594.6 2696.89  46
   5  -1  -4 51316.2 2593.31  41
   5  -1  -4 68773.3 5239.25  42
   5  -1  -4 51583.0 3408.48  54
   5  -1  -4 59407.6 3348.10  56
   5  -1  -4 61673.5 3569.66  57
   5  -1  -4 78053.9 6202.72  40
   5  -1  -4 55531.8 2629.39  35
   5  -1  -4 54881.1 2570.36  33
   5  -1  -4 52597.6 2276.45  29
   5  -1  -4 56945.7 2556.09  26
   5  -1  -4 79733.0 6637.10  32
   5  -1  -4 63086.4 3204.61  28
   5  -1  -4 88093.6 5605.63  27
   5  -1  -4 61202.9 3771.84  23
   5  -1  -4 83689.5 5952.24  21
   5  -1  -4 80065.4 5990.91  22
   5  -1  -4 66081.1 4137.42  20
   5  -1  -4 76054.0 5140.59  24
  -5  -1   3 57725.9 2777.88  46
  -5  -1   3 53725.1 2874.66  45
   5  -1  -3 71017.6 5385.71  42
   5  -1  -3 47607.2 3319.80  54
   5  -1  -3 53170.4 3205.56  56
   5  -1  -3 58484.7 3493.89  57
   5  -1  -3 58469.1 2664.07  35
   5  -1  -3 84699.2 6438.45  40
   5  -1  -3 56030.6 2531.48  33
   5  -1  -3 53364.9 2329.84  29
   5  -1  -3 56948.0 2496.79  26
   5  -1  -3 88530.1 5633.89  27
   5  -1  -3 59080.6 3149.61  28
   5  -1  -3 62086.9 3688.02  23
   5  -1  -3 82941.2 5997.04  21
   5  -1  -3 58966.5 3811.48  20
   5  -1  -3 79927.4 6038.22  22
   5  -1  -3 57616.9 2486.16  25
   5  -1  -3 85027.3 5461.40  24
  -5  -1   2 11142.3 1157.22  46
  -5  -1   2 10470.5 1171.05  45
   5  -1  -2 14224.5 2327.84  42
   5  -1  -2 12708.3 1508.69  23
   5  -1  -2 15595.6 2591.26  21
   5  -1  -2 17857.9 2748.40  22
   5  -1  -2 12037.3 1538.77  20
   5  -1  -2 10942.3 958.341  25
   5  -1  -2 15662.3 2263.40  24
   5  -1  -2 10604.2 987.881  33
   5  -1  -2 10153.0 1006.70  35
   5  -1  -2 14871.6 2668.09  40
   5  -1  -2 11578.0 998.029  26
   5  -1  -2 12808.2 1359.12  28
   5  -1  -2 9042.92 1132.01  10
  -5  -1   1 1149.66 397.909  46
  -5  -1   1 2001.00 502.886  45
   5  -1  -1 2474.43 1013.87  42
   5  -1  -1 1822.85 644.482  54
   5  -1  -1 2120.62 589.811  23
   5  -1  -1 2734.73 1096.82  21
   5  -1  -1 1948.26 383.125  25
   5  -1  -1 2458.73 1045.73  22
   5  -1  -1 2773.96 971.825  24
   5  -1  -1 1881.32 404.371  33
   5  -1  -1 1687.45 420.782  35
   5  -1  -1 1871.07 439.328  34
   5  -1  -1 3907.18 1320.28  40
   5  -1  -1 2145.83 398.968  26
   5  -1  -1 2887.09 644.738  28
   5  -1  -1 1584.06 471.467  10
   5  -1   0 20465.2 1700.34  10
  -5  -1   0 22808.6 1736.81  46
  -5  -1   0 21049.2 1709.22  45
  -5  -1   0 21513.8 1595.62  43
   5  -1   0 21700.7 2134.05  54
   5  -1   0 20655.6 1934.20  56
   5  -1   0 21998.5 2093.86  57
   5  -1   0 21911.7 1431.81  33
   5  -1   0 21577.2 1491.89  34
   5  -1   0 27923.5 2138.60  28
   5  -1   0 20777.2 1316.21  26
   5  -1   0 21533.9 1881.38  23
   5  -1   0 22071.9 1317.58  25
   5  -1   1 60647.2 2998.02  10
   5  -1   1 39448.1 1907.55  52
  -5  -1  -1 56050.6 2921.82  45
  -5  -1  -1 65906.5 2896.41  43
   5  -1   1 53906.6 3505.59  54
  -5  -1  -1 62021.8 3045.13  46
   5  -1   1 62572.0 3429.19  56
   5  -1   1 43932.5 2277.68  63
   5  -1   1 62084.3 3588.09  57
   5  -1   1 74702.7 6026.73  40
   5  -1   1 53814.2 2395.95  33
   5  -1   1 63535.2 3396.99  28
   5  -1   1 57740.1 2332.06  26
   5  -1   1 77300.7 5963.75  22
   5  -1   1 56941.7 2238.66  25
   5  -1   1 78546.5 5219.66  24
   5  -1   2 43656.3 2505.33  10
   5  -1   2 32600.1 1723.89  52
  -5  -1  -2 40449.9 2258.15  43
   5  -1   2 45117.2 4289.70  42
   5  -1   2 43259.3 3067.21  54
  -5  -1  -2 42790.9 2554.64  46
   5  -1   2 32898.9 1991.04  63
   5  -1   2 39841.5 2766.35  56
   5  -1   2 45569.2 3025.77  57
   5  -1   2 54052.9 5129.32  40
   5  -1   2 37329.8 1934.42  33
   5  -1   2 45089.6 2863.62  28
   5  -1   2 57074.2 4581.55  32
   5  -1   2 50251.2 4686.80  21
   5  -1   2 50886.5 4798.59  22
   5  -1   2 44650.5 3937.92  24
   5  -1   3 32774.3 2181.71  10
   5  -1   3 24260.6 1534.95  52
  -5  -1  -3 30543.8 1953.97  43
   5  -1   3 38157.5 3866.15  42
   5  -1   3 29386.9 2519.68  54
  -5  -1  -3 27464.6 2066.24  46
   5  -1   3 25862.1 1821.76  63
   5  -1   3 33900.0 2418.34  56
   5  -1   3 32931.3 2552.94  57
   5  -1   3 41893.2 4441.02  40
   5  -1   3 26879.5 1615.33  33
   5  -1   3 27518.6 1794.10  34
   5  -1   3 32443.6 2483.07  28
   5  -1   3 44386.7 3784.88  24
   5  -1   3 40860.4 4184.81  21
   5  -1   3 41028.5 4168.30  22
   5  -1   4 31850.9 2189.19  10
   5  -1   4 26593.5 1694.90  52
   5  -1   4 40780.2 3959.52  42
   5  -1   4 40292.4 2866.90  54
   5  -1   4 30902.1 1914.28  53
  -5  -1  -4 30496.0 2241.34  46
   5  -1   4 27848.7 1982.96  63
   5  -1   4 33337.4 2416.57  56
   5  -1   4 40744.1 2781.72  57
   5  -1   4 42550.7 4500.22  40
   5  -1   4 29430.3 1891.55  35
   5  -1   4 28240.3 1842.85  34
   5  -1   4 26364.6 1626.24  33
   5  -1   4 34648.8 2586.69  28
   5  -1   4 39200.7 4117.24  21
   5  -1   4 43380.7 4391.67  22
   5  -1   4 39406.1 3622.09  24
   5  -1   5 1276.84 438.014  10
   5  -1   5 1633.14 449.008  53
   5  -1   5 2304.15 904.673  42
   5  -1   5 1094.79 325.978  52
   5  -1   5 1249.25 470.343  56
   5  -1   5 1938.69 627.790  54
   5  -1   5 1409.42 513.099  57
   5  -1   5 1278.70 443.439  63
   5  -1   5 1546.30 818.724  40
   5  -1   5 1348.25 393.392  34
   5  -1   5 1425.60 410.318  35
   5  -1   5 977.772 305.412  33
   5  -1   5 2259.01 934.899  21
   5  -1   5 1556.36 789.005  22
   5  -1   5 2297.26 841.150  24
   5  -1   6 1458.26 467.354  10
   5  -1   6 1472.42 429.627  53
   5  -1   6 1453.17 708.009  42
   5  -1   6 1466.52 393.694  52
   5  -1   6 1045.78 430.823  56
   5  -1   6 1454.19 510.973  54
   5  -1   6 1981.09 614.546  57
   5  -1   6 1756.37 538.949  63
   5  -1   6 1181.20 382.000  34
   5  -1   6 2184.52 958.970  40
   5  -1   6 1311.30 349.661  33
   5  -1   6 2331.50 939.243  21
   5  -1   6 2873.21 1051.90  22
   5  -1   6 1927.66 757.111  24
   5  -1   7 17413.7 1666.51  10
   5  -1   7 19712.2 1823.48  57
   5  -1   7 14973.9 1595.22  63
   5  -1   7 19031.1 1635.95  56
   5  -1   7 23017.0 2797.67  42
   5  -1   7 18548.6 1781.16  54
  -5  -1  -7 14984.6 1640.45  46
   5  -1   7 18382.8 1575.15  53
   5  -1   7 16364.6 1437.77  34
   5  -1   7 15798.2 1224.80  33
   5  -1   7 21185.7 2970.58  40
   5  -1   7 18018.5 1945.93  28
   5  -1   7 26996.3 3185.89  21
   5  -1   7 22033.4 2888.82  22
   5  -1   7 24183.4 2638.37  24
   5  -1   8 13262.8 1448.19  10
   5  -1   8 15223.9 1537.46   9
  -5  -1  -8 13363.4 1419.40   5
   5  -1   8 12945.1 1499.77  63
  -5  -1  -8 14368.6 1587.17  46
   5  -1   8 14563.4 1426.46  53
   5  -1   8 12656.6 1259.62  34
   5  -1   8 12777.7 1081.25  33
   5  -1   8 19959.3 2694.55  40
   5  -1   8 22577.4 2428.98  24
   5  -1   8 17850.3 2420.34  22
   5  -1   8 15080.3 1777.69  28
   5  -1   8 12906.4 1200.89  16
   5  -1   9 33929.3 2091.12  16
   5  -1   9 40707.8 2775.37  63
   5  -1   9 36666.5 2219.47  34
   5  -1   9 35462.8 1874.35  33
   5  -1   9 41633.5 3009.58  28
   5  -1   9 38873.6 2583.56  10
   5  -1   9 35381.9 2448.89   9
  -5  -1 -10 35166.1 2331.41   5
   5  -1  10 38630.4 2674.48  63
   5  -1  10 25227.9 1790.26  16
   5  -1  10 30186.4 1657.49  33
   5  -1  10 34244.8 2086.27  34
   5  -1  10 36280.2 2747.65  28
   5  -1  10 31793.6 2301.10  10
   5  -1  10 30691.9 2230.30   9
  -5  -1 -11 6928.13 911.724   4
  -5  -1 -11 7018.52 1005.28   5
   5  -1  11 7773.55 1171.24  63
   5  -1  11 7179.04 983.074  53
   5  -1  11 5374.12 767.428  16
   5  -1  11 7748.33 935.122  34
   5  -1  11 7003.50 1146.79  28
   5  -1  11 6057.40 952.342  10
   5  -1  11 6854.87 1016.60   9
   5  -1  12 9008.22 1081.32  53
  -5  -1 -12 8697.05 988.717   4
  -5  -1 -12 7704.52 1050.09   5
   5  -1  12 7875.80 908.547  34
   5  -1  12 7878.10 1172.65  28
   5  -1  12 6491.95 962.866  10
   5  -1  12 6703.29 1002.79   9
   5  -1  13 549.163 276.189  53
   5  -1  13 313.653 183.709  34
  -5  -1 -13 485.350 245.633   4
   5  -1  13 592.574 306.416  28
   5  -1  13 438.334 256.587  10
   5  -1  13 382.112 251.083   9
   5  -1  14 10984.0 1221.26  63
   5  -1  14 10500.5 878.587  34
  -5  -1 -14 11717.4 1011.16   4
   5  -1  14 11251.5 1122.06  28
   5  -1  14 10639.0 1052.75  10
   5  -1  14 10530.1 1098.25   9
  -5  -1 -15 18004.3 1138.12   4
   5  -1  15 14558.5 1080.19  10
   5  -1  15 18089.3 1315.19   9
   5  -1  15 17002.4 1385.25  63
   5  -1  15 16499.9 1138.31  35
   5  -1  15 15985.1 930.320  34
   5  -1  16 7552.02 635.615  35
   5  -1  16 7959.05 732.275   9
  -5  -1 -16 6810.95 568.520   4
   5  -1  17 6620.80 537.865   9
  -5  -1 -17 480.293 169.917   3
  -5   0  19 52.2080 45.8264  10
   5   0 -18 9335.99 945.052  20
   5   0 -18 11255.7 1332.54  37
   5   0 -18 8665.22 779.489  41
   5   0 -17 6869.37 1211.78  37
   5   0 -17 5726.31 743.888  41
   5   0 -17 5909.14 825.028  23
   5   0 -17 6163.69 1026.02  20
  -5   0  17 5714.46 567.450   9
   5   0 -16 20483.6 2348.98  37
   5   0 -16 22520.5 2672.35  36
   5   0 -16 17447.4 1487.64  41
   5   0 -16 18467.7 2081.74  20
   5   0 -16 17039.2 1736.92  23
  -5   0  16 17436.8 1209.02   9
   5   0 -15 15683.6 1527.41  41
   5   0 -15 17614.6 2221.17  27
   5   0 -15 22080.5 2791.54  32
   5   0 -15 18381.3 2276.79  20
   5   0 -15 15899.4 1863.16  23
   5   0 -15 20880.1 2765.78  36
   5   0 -14 14417.2 1554.05  41
   5   0 -14 19523.3 2847.11  36
   5   0 -14 17860.0 2500.37  27
   5   0 -14 18896.8 2989.85  32
   5   0 -14 17015.3 2349.99  20
   5   0 -14 16850.1 2026.22  23
   5   0 -13 6042.66 1058.50  41
  -5   0  13 8553.99 1013.20   1
   5   0 -13 8167.08 1793.48  27
   5   0 -13 12949.6 2670.61  32
   5   0 -13 8500.66 1528.00  23
   5   0 -13 10204.0 1880.50  20
   5   0 -13 9268.18 1840.05  37
   5   0 -13 10631.3 2155.52  36
  -5   0  12 304.183 200.344   1
   5   0 -12 475.036 320.987  41
   5   0 -12 109.099 469.075  37
   5   0 -12 626.868 582.212  27
   5   0 -12 879.892 817.176  32
   5   0 -12 432.887 402.088  23
   5   0 -12 544.840 506.041  20
   5   0 -11 7870.49 1181.50  41
  -5   0  11 9067.27 1072.56   1
   5   0 -11 10096.1 1924.69  37
   5   0 -11 11402.4 2649.18  32
   5   0 -11 10799.0 2077.09  27
   5   0 -11 9907.11 1703.79  23
   5   0 -11 11596.8 2078.79  20
   5   0 -10 29713.8 2339.63  41
  -5   0  10 34497.7 2170.84   1
   5   0 -10 34732.8 3534.37  37
   5   0 -10 43779.9 4386.17  36
   5   0 -10 27189.9 2256.36  28
   5   0 -10 49287.9 5497.29  32
   5   0 -10 32923.9 3766.41  27
   5   0 -10 33834.7 3161.15  23
   5   0 -10 40183.4 3847.63  20
   5   0 -10 36840.1 3570.50  24
   5   0  -9 22232.5 1956.94  41
   5   0  -9 24700.2 1783.37  56
   5   0  -9 23388.7 1883.35  54
  -5   0   9 21936.1 1489.64   6
  -5   0   9 23723.1 1734.35   1
   5   0  -9 26316.5 2954.57  37
   5   0  -9 29668.4 3575.38  36
   5   0  -9 36787.7 4761.23  32
   5   0  -9 27869.3 3443.43  27
   5   0  -9 20631.7 1966.59  28
   5   0  -9 27950.2 2818.61  23
   5   0  -9 29889.1 3228.65  24
   5   0  -8 49096.9 2693.17  56
   5   0  -8 45850.9 2858.22  54
   5   0  -8 42986.7 2723.50  41
  -5   0   8 44631.0 2403.06   1
  -5   0   8 37565.4 2137.20   6
   5   0  -8 46977.4 2349.00  33
   5   0  -8 59997.4 4991.97  40
   5   0  -8 43136.4 3716.65  37
   5   0  -8 54343.2 4745.52  36
   5   0  -8 38737.1 1938.60  29
   5   0  -8 71628.6 6579.91  32
   5   0  -8 60507.1 4961.09  27
   5   0  -8 41519.3 2820.04  28
   5   0  -8 58281.8 4832.08  21
   5   0  -8 45964.8 3633.15  23
   5   0  -8 49657.2 4103.57  20
   5   0  -8 55776.1 4680.14  22
   5   0  -8 49378.1 4232.07  24
   5   0  -7 22527.2 1934.41  57
   5   0  -7 26368.7 1948.66  56
   5   0  -7 21151.6 1942.85  54
   5   0  -7 21586.0 1823.12  41
  -5   0   7 21744.5 1573.61   1
  -5   0   7 21969.5 1462.59   2
   5   0  -7 31819.6 3679.02  40
   5   0  -7 22373.4 1535.59  33
   5   0  -7 20631.8 2419.57  37
   5   0  -7 26085.2 3052.89  36
   5   0  -7 30038.3 4148.68  32
   5   0  -7 17768.9 1246.99  29
   5   0  -7 20939.8 1617.12  26
   5   0  -7 26462.1 3222.55  27
   5   0  -7 19863.9 1906.20  28
   5   0  -7 22388.8 1466.87  30
   5   0  -7 21145.6 2389.19  23
   5   0  -7 29554.0 3467.65  21
   5   0  -7 19138.6 2514.64  20
   5   0  -7 30418.6 3505.99  22
   5   0  -7 26430.9 3068.71  24
   5   0  -6 23556.7 1873.92  56
   5   0  -6 24203.1 2028.78  57
   5   0  -6 19808.8 1918.52  54
   5   0  -6 17192.9 1606.24  41
  -5   0   6 21852.3 1502.93   2
   5   0  -6 16835.3 2085.76  37
   5   0  -6 21390.3 1496.23  33
   5   0  -6 31797.0 3714.00  40
   5   0  -6 25374.4 2984.22  36
   5   0  -6 18038.9 1263.33  29
   5   0  -6 22266.7 1612.75  26
   5   0  -6 27051.7 3221.12  27
   5   0  -6 20404.5 1885.89  28
   5   0  -6 20835.3 1422.22  30
   5   0  -6 30404.2 3547.86  21
   5   0  -6 22619.8 2582.25  20
   5   0  -6 28904.8 3451.65  22
   5   0  -6 27247.0 3060.94  24
   5   0  -5 613.179 369.985  57
   5   0  -5 499.635 319.127  56
   5   0  -5 495.653 320.828  54
  -5   0   5 333.556 206.520   2
   5   0  -5 784.655 487.051  36
   5   0  -5 702.595 299.346  41
   5   0  -5 536.001 230.787  35
   5   0  -5 1537.91 813.910  40
   5   0  -5 920.280 448.143  37
   5   0  -5 576.698 250.770  30
   5   0  -5 929.020 374.279  28
   5   0  -5 973.491 657.736  27
   5   0  -5 612.689 254.302  33
   5   0  -5 562.974 206.426  29
   5   0  -5 1120.66 843.014  32
   5   0  -5 783.648 414.881  23
   5   0  -5 509.002 499.549  21
   5   0  -5 693.147 260.828  25
   5   0  -5 798.034 305.001  26
   5   0  -5 661.753 410.822  20
   5   0  -5 1273.32 706.805  22
   5   0  -5 738.927 555.943  24
   5   0  -4 23292.1 2038.42  57
   5   0  -4 24049.6 1951.64  56
   5   0  -4 23568.7 2959.60  42
   5   0  -4 20715.9 1681.42  41
   5   0  -4 24148.9 2140.04  54
  -5   0   4 19128.2 1375.57  46
  -5   0   4 22012.9 1563.90   2
   5   0  -4 22105.0 2526.91  36
   5   0  -4 21172.8 1418.13  35
   5   0  -4 30927.2 3771.29  40
   5   0  -4 21529.2 1386.34  29
   5   0  -4 28758.7 3795.91  32
   5   0  -4 20211.1 1416.14  30
   5   0  -4 22437.3 1542.32  26
   5   0  -4 25201.7 2023.08  28
   5   0  -4 30460.0 3606.95  21
   5   0  -4 23610.0 2299.97  23
   5   0  -4 23753.0 2435.29  20
   5   0  -4 30772.8 3623.53  22
   5   0  -4 23074.1 1466.27  25
   5   0  -4 30064.5 3226.29  24
   5   0  -3 18270.3 1793.32  57
   5   0  -3 17322.2 1649.79  56
  -5   0   3 17994.6 1538.94  45
   5   0  -3 16975.6 1488.51  41
   5   0  -3 21023.7 2810.72  42
   5   0  -3 16940.9 1794.01  54
  -5   0   3 14852.5 1256.45  46
  -5   0   3 20268.0 1497.97   2
   5   0  -3 18653.6 2219.92  36
   5   0  -3 17943.3 1259.18  34
   5   0  -3 17307.3 1258.97  35
   5   0  -3 23003.0 3269.14  40
   5   0  -3 25262.2 3372.82  32
   5   0  -3 18632.5 1273.54  29
   5   0  -3 24469.0 2834.83  27
   5   0  -3 17476.2 1300.78  30
   5   0  -3 18931.3 1744.25  28
   5   0  -3 17380.0 1317.89  26
   5   0  -3 23119.9 3120.34  21
   5   0  -3 20822.1 2065.20  23
   5   0  -3 22137.6 2218.16  20
   5   0  -3 20814.1 2639.50  24
   5   0  -3 26040.8 3300.48  22
   5   0  -3 17232.8 1243.09  25
   5   0  -2 53245.1 2780.14  41
   5   0  -2 61320.6 4871.59  42
  -5   0   2 49238.0 2528.17  46
  -5   0   2 51910.3 2163.60   5
   5   0  -2 53550.2 2402.75  35
   5   0  -2 72582.4 5851.01  40
   5   0  -2 54494.6 2372.13  34
   5   0  -2 58017.6 3183.16  28
   5   0  -2 80368.9 5173.35  27
   5   0  -2 55774.0 2421.13  29
   5   0  -2 64197.7 5317.53  32
   5   0  -2 51945.7 2427.30  26
   5   0  -2 55816.9 3498.94  23
   5   0  -2 71077.9 5546.24  21
   5   0  -2 58200.5 3614.58  20
   5   0  -2 54883.3 2352.18  25
   5   0  -2 70201.8 5514.75  22
   5   0  -2 71572.7 4922.16  24
   5   0  -1 61219.8 3035.66  41
   5   0  -1 66674.9 5144.19  42
   5   0  -1 52692.3 3383.37  54
  -5   0   1 56423.1 2828.88  46
  -5   0   1 61627.8 2509.39   5
   5   0  -1 63218.3 2660.06  35
   5   0  -1 77055.4 6096.02  40
   5   0  -1 62124.7 2636.53  33
   5   0  -1 63235.9 2665.02  39
   5   0  -1 64867.0 2657.82  34
   5   0  -1 63475.0 2682.90  26
   5   0  -1 72789.5 2760.96  29
   5   0  -1 81458.4 5891.98  32
   5   0  -1 70722.6 3535.36  28
   5   0  -1 57605.6 2604.83  30
   5   0  -1 103631. 5735.58  27
   5   0  -1 68298.5 3816.51  23
   5   0  -1 75859.4 5720.23  21
   5   0  -1 65117.8 2566.22  25
   5   0  -1 76100.4 5782.73  22
   5   0   0 16480.0 1402.76  10
   5   0   0 18486.6 1799.80  57
   5   0   0 15732.8 1599.64  56
  -5   0   0 19555.2 1573.82  45
   5   0   0 15792.1 1433.47  41
  -5   0   0 15607.7 1131.59  43
   5   0   0 15253.3 1718.95  54
  -5   0   0 16234.3 1420.32  46
   5   0   0 14703.1 1019.64  53
  -5   0   0 17363.0 1228.71   5
   5   0   0 16428.8 1235.93  35
   5   0   0 15574.7 1174.19  39
   5   0   0 17185.2 1261.11  33
   5   0   0 16856.2 1245.75  34
   5   0   0 17628.4 1257.66  29
   5   0   0 16154.7 1243.63  30
   5   0   0 16893.4 1252.86  26
   5   0   0 19446.8 2695.61  32
   5   0   0 18643.2 1738.00  28
   5   0   0 19235.2 1868.60  23
   5   0   0 20379.7 2556.14  24
   5   0   0 16150.8 1136.65  25
   5   0   1 60300.4 2788.40  10
   5   0   1 61171.9 3408.77  57
   5   0   1 57857.6 3164.13  56
  -5   0  -1 56176.0 2849.71  45
   5   0   1 58669.5 3487.62  54
  -5   0  -1 53043.3 2795.99  46
   5   0   1 43818.3 2118.21  53
  -5   0  -1 55364.8 2484.69   5
   5   0   1 51819.0 2380.82  33
   5   0   1 52013.3 2432.87  35
   5   0   1 64942.6 5557.12  40
   5   0   1 53289.7 2345.78  39
   5   0   1 57460.9 2518.63  34
   5   0   1 52408.1 2397.73  26
   5   0   1 80013.2 4948.61  27
   5   0   1 55582.8 2479.76  30
   5   0   1 66894.5 3444.98  28
   5   0   1 54516.6 2261.00  25
   5   0   1 55505.4 3271.23  23
   5   0   1 61758.3 5241.57  22
   5   0   1 64064.2 4629.34  24
   5   0   2 1751.52 427.586  10
   5   0   2 1878.50 472.156   9
   5   0   2 2483.66 676.001  57
   5   0   2 1104.42 303.838  53
  -5   0  -2 1221.07 435.791  46
   5   0   2 1940.02 918.420  42
  -5   0  -2 1737.96 455.914  45
   5   0   2 1734.87 534.347  56
   5   0   2 1771.86 594.391  54
  -5   0  -2 1300.66 371.991   5
   5   0   2 1491.59 381.533  34
   5   0   2 1835.09 393.781  39
   5   0   2 1416.49 377.731  35
   5   0   2 2670.73 1157.59  40
   5   0   2 3423.15 962.590  27
   5   0   2 1562.58 376.770  33
   5   0   2 1911.68 421.898  30
   5   0   2 1706.04 530.348  23
   5   0   2 1911.69 895.314  21
   5   0   2 1709.54 339.201  25
   5   0   2 1197.41 335.987  26
   5   0   2 2583.90 1039.60  22
   5   0   2 3068.04 952.445  24
   5   0   3 1001.59 326.660  10
   5   0   3 350.073 230.222   9
   5   0   3 526.692 333.517  57
   5   0   3 900.104 378.322  63
  -5   0  -3 645.646 329.517  46
   5   0   3 583.044 239.037  53
   5   0   3 683.564 565.673  42
   5   0   3 1014.96 405.031  56
   5   0   3 394.621 297.080  54
  -5   0  -3 861.100 316.875   5
   5   0   3 511.099 191.646  39
   5   0   3 661.533 264.161  34
   5   0   3 514.145 243.558  35
   5   0   3 990.926 657.442  40
   5   0   3 546.475 240.095  30
   5   0   3 257.278 260.990  27
   5   0   3 415.013 206.388  33
   5   0   3 1156.74 676.825  22
   5   0   3 934.124 386.617  23
   5   0   3 698.844 273.438  26
   5   0   3 679.255 211.107  25
   5   0   3 888.158 629.955  21
   5   0   3 1230.12 598.904  24
   5   0   4 45206.5 2444.16  10
   5   0   4 44916.3 2464.04   9
   5   0   4 54376.1 3140.60  57
   5   0   4 32266.7 2335.26  63
   5   0   4 45056.4 2740.16  56
   5   0   4 54538.9 3252.08  54
  -5   0  -4 42372.5 2647.25  46
   5   0   4 36986.2 2108.85  53
  -5   0  -4 42076.2 2356.13   5
   5   0   4 41489.2 2232.47  34
   5   0   4 59256.3 5237.44  40
   5   0   4 42411.4 1975.41  39
   5   0   4 37268.7 2035.82  33
   5   0   4 43538.0 2854.20  28
   5   0   4 41539.2 2142.81  26
   5   0   4 41987.4 2128.57  30
   5   0   4 50709.0 3789.24  27
   5   0   4 59266.6 5034.67  21
   5   0   4 39316.3 1842.48  25
   5   0   4 50650.8 4699.26  22
   5   0   4 56006.7 4095.19  24
   5   0   5 57792.9 2831.96  10
   5   0   5 50894.4 2733.25   9
   5   0   5 59141.7 3316.81  57
   5   0   5 51115.9 2906.74  56
   5   0   5 52479.3 2923.92  63
   5   0   5 53962.9 3263.08  54
  -5   0  -5 51603.3 3033.17  46
   5   0   5 45710.8 2474.89  53
  -5   0  -5 51326.3 2721.08   5
   5   0   5 43760.7 2300.15  33
   5   0   5 65160.6 5503.91  40
   5   0   5 52848.6 3245.78  28
   5   0   5 46805.8 2374.06  26
   5   0   5 50992.8 2363.58  30
   5   0   5 61216.5 4033.32  27
   5   0   5 74767.4 5586.87  21
   5   0   5 69942.2 5419.24  22
   5   0   5 63595.7 4446.52  24
   5   0   6 39547.4 2338.25  10
   5   0   6 36314.8 2330.05   9
  -5   0  -6 37771.8 2340.47   5
   5   0   6 44061.9 2565.92  56
   5   0   6 47587.2 2874.57  57
   5   0   6 29409.3 2298.86  63
   5   0   6 42688.4 2799.82  54
   5   0   6 38050.9 2236.64  53
   5   0   6 32925.9 2076.13  34
   5   0   6 33044.4 1951.63  33
   5   0   6 46376.8 4562.91  40
   5   0   6 32764.8 2563.59  28
   5   0   6 35455.5 2026.43  26
   5   0   6 48378.6 4453.12  21
   5   0   6 49443.4 4432.09  22
   5   0   6 40070.8 3409.71  24
   5   0   7 40458.9 2405.20  10
   5   0   7 37593.5 2443.51   9
  -5   0  -7 43532.5 2564.23   5
   5   0   7 34118.1 2562.28  63
   5   0   7 44549.9 2541.69  56
   5   0   7 39713.9 2636.01  54
   5   0   7 40339.6 2377.81  53
   5   0   7 34556.8 2226.42  17
   5   0   7 39037.0 2289.92  34
   5   0   7 35471.5 2042.01  33
   5   0   7 58796.3 4902.36  40
   5   0   7 40496.3 2845.54  28
   5   0   7 39906.4 2182.67  26
   5   0   7 56020.7 4683.19  21
   5   0   7 53896.2 4436.02  22
  -5   0  -8 19649.7 1702.29   5
   5   0   8 15111.2 1674.94  63
   5   0   8 20151.2 1663.69  53
   5   0   8 15389.9 1437.64  17
   5   0   8 16696.5 1450.03  34
   5   0   8 14776.7 1261.56  33
   5   0   8 15557.5 1760.91  28
   5   0   8 17044.1 1374.36  26
   5   0   8 16294.3 1496.15  10
   5   0   8 16995.2 1610.16   9
   5   0   9 122.200 123.846  10
   5   0   9 182.144 211.456   9
  -5   0  -9 311.068 270.180   5
   5   0   9 111.011 194.844  63
   5   0   9 248.049 217.682  53
   5   0   9 197.745 219.508  17
   5   0   9 113.052 162.021  34
   5   0   9 224.823 220.587  28
   5   0   9-31.3543 145.611  33
   5   0   9 66.2078 129.936  26
   5   0  10 16741.2 1516.80  17
  -5   0 -10 19425.1 1417.42   4
   5   0  10 17068.3 1490.37  34
   5   0  10 16124.4 1305.82  33
   5   0  10 17012.1 1763.15  28
   5   0  10 15218.1 1308.83  26
   5   0  10 13259.2 1343.59  10
   5   0  10 14214.7 1516.34   9
   5   0  11 466.857 232.016  26
   5   0  11 501.877 295.548  17
   5   0  11 567.415 257.366  10
   5   0  11 405.300 274.014   9
   5   0  11 545.390 278.374  34
   5   0  11 494.139 287.845  28
   5   0  11 610.505 250.204  33
  -5   0 -11 748.707 267.660   4
  -5   0 -11 481.234 307.325   5
  -5   0 -12 11739.5 1055.63   4
  -5   0 -12 11192.7 1274.92   5
   5   0  12 10063.1 1124.36  17
   5   0  12 9444.32 930.084  33
   5   0  12 10407.0 1111.06  34
   5   0  12 10149.2 1345.82  63
   5   0  12 10496.0 1011.03  26
   5   0  12 12177.5 1315.10  28
   5   0  12 10041.6 1081.27  10
   5   0  12 11144.2 1262.11   9
  -5   0 -13 34786.8 1830.88   4
  -5   0 -13 37751.9 2304.57   5
   5   0  13 36378.4 2020.61  34
   5   0  13 30499.9 1645.98  33
   5   0  13 32835.8 2434.98  63
   5   0  13 31049.5 1716.00  26
   5   0  13 34370.4 2200.56   9
   5   0  14 36627.1 2122.62   9
   5   0  14 32642.9 1591.20  26
  -5   0 -14 37095.8 1768.68   4
   5   0  14 37557.1 1909.68  34
   5   0  14 32980.2 1533.62  33
  -5   0 -15 1194.60 432.613   3
  -5   0 -15 1964.17 324.942   4
   5   0  15 2126.90 384.803  34
   5   0  15 1939.53 432.318   9
   5   0  16 1379.84 258.372  34
   5   0  16 1354.41 322.023   9
   5   0  17 1485.47 259.899  35
   5   0  17 1161.92 251.800   9
  -5   1  18 6701.54 565.315   9
   5   1 -18 6074.20 680.924  41
   5   1 -17 3789.72 756.996  20
  -5   1  17 5632.94 628.583   9
   5   1 -17 5291.44 1026.62  37
   5   1 -16 3613.84 937.086  32
   5   1 -16 2576.12 551.583  23
   5   1 -16 3134.09 830.621  20
   5   1 -15 340.652 345.199  32
   5   1 -15 216.093 189.671  23
   5   1 -15 77.5462 272.225  20
   5   1 -14 7617.80 1721.00  27
   5   1 -14 7919.21 1958.14  32
   5   1 -14 5107.85 1080.45  23
   5   1 -14 5426.37 1305.09  20
   5   1 -13 58680.4 4473.87  20
   5   1 -13 50840.8 3656.17  23
  -5   1  13 43591.9 2128.24  17
   5   1 -13 60395.3 4621.11  37
   5   1 -13 66593.7 5399.65  27
   5   1 -13 66202.2 6000.07  32
  -5   1  13 46634.4 2608.34   1
   5   1 -12 28051.1 2398.06  41
  -5   1  12 31565.4 1857.13   6
  -5   1  12 30952.9 2084.14   1
   5   1 -12 36564.0 3670.27  37
   5   1 -12 46546.6 4522.87  36
   5   1 -12 31650.1 1677.77  29
   5   1 -12 42142.9 4367.68  27
   5   1 -12 51164.1 5504.51  32
   5   1 -12 37729.6 3691.14  20
   5   1 -12 35326.8 3120.77  23
   5   1 -11 30500.4 2512.18  41
  -5   1  11 35841.8 2240.93   1
   5   1 -11 24366.1 1771.71   4
  -5   1  11 36772.2 2080.24   6
   5   1 -11 44866.2 4577.26  27
   5   1 -11 35015.7 1848.05  29
   5   1 -11 54800.9 5781.68  32
   5   1 -11 39471.8 3802.12  20
   5   1 -11 38523.9 3340.18  23
   5   1 -11 34663.9 3625.51  24
   5   1 -11 40628.8 3805.83  37
   5   1 -11 47124.0 4596.12  36
   5   1 -10 1686.60 420.614   4
  -5   1  10 2269.35 549.941   1
  -5   1  10 1636.37 453.569   6
   5   1 -10 2080.39 1021.36  36
   5   1 -10 2605.15 719.610  41
   5   1 -10 2093.81 901.054  37
   5   1 -10 2645.88 1147.08  27
   5   1 -10 1778.93 404.681  29
   5   1 -10 3389.18 1514.88  32
   5   1 -10 1918.89 735.281  23
   5   1 -10 2185.05 920.477  20
   5   1 -10 3072.75 1058.41  24
   5   1  -9 7092.97 1149.04  41
  -5   1   9 7555.95 873.145   2
  -5   1   9 7171.84 925.107   6
  -5   1   9 7062.22 936.981   1
   5   1  -9 8086.69 1641.05  37
   5   1  -9 9737.04 2060.60  36
   5   1  -9 6207.47 781.663  29
   5   1  -9 12210.4 2801.45  32
   5   1  -9 10222.2 2157.98  27
   5   1  -9 5545.27 1135.61  28
   5   1  -9 7859.94 808.356  30
   5   1  -9 6265.10 1355.40  23
   5   1  -9 5883.21 1473.76  20
   5   1  -9 8412.55 1783.63  24
   5   1  -8 5957.45 1034.04  41
  -5   1   8 5786.86 837.024   1
  -5   1   8 5013.23 730.169   2
  -5   1   8 4873.75 759.881   6
   5   1  -8 7577.99 1796.73  40
   5   1  -8 5454.14 724.239  33
   5   1  -8 5059.26 1213.34  37
   5   1  -8 8352.67 1815.12  36
   5   1  -8 5430.48 1580.46  27
   5   1  -8 4870.61 709.874  29
   5   1  -8 6232.27 1986.18  32
   5   1  -8 3789.73 897.917  28
   5   1  -8 5259.20 690.561  30
   5   1  -8 4708.74 1148.41  23
   5   1  -8 5494.86 747.996  25
   5   1  -8 6979.02 1612.09  22
   5   1  -8 7476.02 1683.56  24
   5   1  -7 19642.7 1698.90  56
   5   1  -7 17028.2 1746.11  41
   5   1  -7 17374.6 1776.29  54
  -5   1   7 19277.3 1475.10   2
  -5   1   7 15891.6 1483.55   6
  -5   1   7 17706.4 1454.30   1
   5   1  -7 26668.5 3461.57  40
   5   1  -7 14016.0 1968.84  37
   5   1  -7 18644.4 1355.05  33
   5   1  -7 21020.0 2743.13  36
   5   1  -7 15691.7 1287.05  29
   5   1  -7 25291.9 3882.77  32
   5   1  -7 19478.5 2867.50  27
   5   1  -7 16554.8 1833.96  28
   5   1  -7 17829.3 1321.16  30
   5   1  -7 18002.1 2415.44  20
   5   1  -7 17890.8 2226.36  23
   5   1  -7 23523.2 3130.05  22
   5   1  -7 20352.4 2853.51  24
   5   1  -7 19367.0 1398.71  25
   5   1  -7 26810.7 3396.46  21
   5   1  -6 29508.3 2152.34  56
   5   1  -6 27001.1 2181.52  41
   5   1  -6 32296.8 2454.31  54
  -5   1   6 34262.9 2040.72   2
   5   1  -6 37902.5 4273.85  40
   5   1  -6 23536.6 2508.93  37
   5   1  -6 29918.7 1724.91  33
   5   1  -6 32125.9 3220.98  36
   5   1  -6 26067.4 1697.81  29
   5   1  -6 29087.5 1904.24  26
   5   1  -6 26831.1 2343.89  28
   5   1  -6 30242.7 1770.64  30
   5   1  -6 35308.4 4029.22  21
   5   1  -6 25506.4 2844.61  20
   5   1  -6 28530.2 2759.47  23
   5   1  -6 41110.7 4186.85  22
   5   1  -6 31986.9 1814.98  25
   5   1  -6 31164.9 3509.31  24
   5   1  -5 43440.2 2619.18  56
   5   1  -5 34131.5 2406.59  41
   5   1  -5 38891.3 2745.08  54
  -5   1   5 42818.9 2300.55   2
   5   1  -5 37268.7 1948.95  33
   5   1  -5 48836.9 4908.20  40
   5   1  -5 33945.2 2852.39  37
   5   1  -5 33130.1 1931.00  39
   5   1  -5 36005.0 3329.79  36
   5   1  -5 33807.0 1926.67  29
   5   1  -5 43580.8 4852.66  32
   5   1  -5 35190.3 1941.04  31
   5   1  -5 34739.4 1938.28  30
   5   1  -5 40729.1 3971.42  27
   5   1  -5 37148.8 2147.25  26
   5   1  -5 39127.3 2746.59  28
   5   1  -5 52754.4 4882.26  21
   5   1  -5 34959.8 3165.88  20
   5   1  -5 34301.7 2997.17  23
   5   1  -5 50613.0 4667.02  22
   5   1  -5 43818.0 4137.09  24
   5   1  -5 35473.2 1933.53  25
   5   1  -4 60998.2 3244.14  56
   5   1  -4 56330.9 3127.51  41
   5   1  -4 62931.6 3569.27  54
  -5   1   4 60683.0 2884.71   2
   5   1  -4 56478.8 2716.21  38
   5   1  -4 53319.3 2456.89  33
   5   1  -4 79198.2 6287.19  40
   5   1  -4 61955.6 2681.74  39
   5   1  -4 49138.8 3787.22  36
   5   1  -4 55514.0 2557.70  29
   5   1  -4 70793.4 6028.97  32
   5   1  -4 74712.7 5235.64  27
   5   1  -4 55720.1 2554.74  31
   5   1  -4 60078.5 3495.02  28
   5   1  -4 57468.6 2706.57  26
   5   1  -4 56896.7 2575.03  30
   5   1  -4 72617.9 5266.10  24
   5   1  -4 78399.6 6000.98  21
   5   1  -4 57928.5 4112.59  20
   5   1  -4 72985.9 5726.26  22
   5   1  -3 61834.2 3254.97  56
   5   1  -3 52893.7 3499.97  59
   5   1  -3 55618.2 3086.03  41
   5   1  -3 59766.7 3525.07  54
  -5   1   3 65209.0 2990.60   2
   5   1  -3 56052.1 2695.99  38
   5   1  -3 54510.4 2458.28  33
   5   1  -3 77122.7 6215.52  40
   5   1  -3 55004.1 2538.69  29
   5   1  -3 57147.5 2563.35  31
   5   1  -3 70614.1 5743.70  32
   5   1  -3 71162.4 4970.01  27
   5   1  -3 59684.9 3390.17  28
   5   1  -3 53189.9 2510.86  30
   5   1  -3 54939.7 2618.68  26
   5   1  -3 54393.5 3862.95  20
   5   1  -3 74049.8 5899.76  21
   5   1  -3 68481.0 5591.35  22
   5   1  -3 60301.9 2555.22  25
   5   1  -3 68780.9 5057.90  24
   5   1  -2 7989.85 1311.82  59
  -5   1   2 11098.2 1162.61  45
   5   1  -2 10073.6 1228.87  41
  -5   1   2 10988.3 1143.68   2
   5   1  -2 8721.95 806.467  35
   5   1  -2 15245.2 2669.95  40
   5   1  -2 9642.30 934.101  33
   5   1  -2 9179.39 940.631  39
   5   1  -2 9397.82 815.232  34
   5   1  -2 9011.53 960.502  26
   5   1  -2 10754.6 1005.94  29
   5   1  -2 10768.7 2175.72  32
   5   1  -2 14452.3 2094.67  27
   5   1  -2 10379.9 1349.75  28
   5   1  -2 12342.1 2391.09  21
   5   1  -2 10460.0 1541.83  23
   5   1  -2 9649.64 2100.34  22
   5   1  -2 8654.83 876.336  25
   5   1  -2 9564.71 1464.08  20
   5   1  -1 1874.58 668.080  59
  -5   1   1 1985.15 471.217  45
   5   1  -1 1545.73 521.214  56
   5   1  -1 1332.85 535.107  55
   5   1  -1 1421.06 556.656  54
  -5   1   1 1532.93 458.923   2
  -5   1   1 1872.24 379.016   5
   5   1  -1 1673.49 392.357  39
   5   1  -1 1834.83 453.446  38
   5   1  -1 1552.92 332.541  35
   5   1  -1 1558.00 501.584  41
   5   1  -1 1049.20 696.947  40
   5   1  -1 1876.32 409.056  33
   5   1  -1 1775.29 356.960  34
   5   1  -1 2492.24 842.574  27
   5   1  -1 3567.91 1183.94  32
   5   1  -1 3286.28 551.701  31
   5   1  -1 2616.08 497.912  30
   5   1  -1 1776.61 646.854  23
   5   1  -1 1617.41 372.899  25
   5   1  -1 1510.04 902.208  21
   5   1  -1 1985.83 637.367  20
   5   1  -1 1325.68 364.365  26
   5   1  -1 2280.74 971.512  22
   5   1  -1 1694.17 744.242  24
   5   1   0 22225.5 2186.98  59
   5   1   0 23972.7 1965.92  56
  -5   1   0 22130.4 1669.15  45
   5   1   0 23437.8 1915.69  41
   5   1   0 22810.1 2069.57  55
   5   1   0 24786.1 2188.93  54
  -5   1   0 23803.0 1473.58   5
   5   1   0 22989.7 1630.28  38
   5   1   0 20620.9 1432.96  33
   5   1   0 24245.5 1436.05  35
   5   1   0 22543.3 1487.65  39
   5   1   0 21385.5 1389.49  34
   5   1   0 26700.1 1622.56  29
   5   1   0 22933.8 1578.90  26
   5   1   0 28755.2 3259.86  32
   5   1   0 22487.9 1526.31  30
   5   1   0 21453.2 1475.65  31
   5   1   0 28461.5 2820.66  27
   5   1   0 24898.4 2384.32  23
   5   1   0 27358.2 3076.32  24
   5   1   0 25770.3 2253.58  20
   5   1   0 22518.4 1432.64  25
   5   1   1 60248.8 3298.01  56
  -5   1  -1 60335.7 2882.37  45
   5   1   1 66680.9 3694.17  54
  -5   1  -1 59017.0 2603.14   5
   5   1   1 56633.7 2508.79  39
   5   1   1 53687.1 2454.16  34
   5   1   1 60166.6 2773.65  38
   5   1   1 54447.3 2410.52  35
   5   1   1 64077.2 5731.02  40
   5   1   1 66570.9 2735.37  29
   5   1   1 53586.7 2590.46  26
   5   1   1 58011.7 2586.70  31
   5   1   1 61568.2 4168.53  27
   5   1   1 63561.5 3434.85  28
   5   1   1 58873.6 2613.03  30
   5   1   1 56976.0 2474.77  25
   5   1   1 60576.0 3781.45  23
   5   1   1 61595.3 5316.08  22
   5   1   1 55534.6 4424.24  24
   5   1   2 35672.7 2013.73   9
   5   1   2 45031.0 2718.26  56
  -5   1  -2 32716.6 2104.21  45
   5   1   2 40506.6 2841.68  54
   5   1   2 39398.2 2981.99  23
   5   1   2 49682.1 4755.69  21
   5   1   2 43540.5 4438.57  22
   5   1   2 33268.9 3379.24  24
   5   1   2 37739.8 1913.07  25
   5   1   2 41056.8 2220.88  38
   5   1   2 37524.8 2002.91  34
   5   1   2 34312.3 1882.27  35
   5   1   2 45414.1 4809.95  40
   5   1   2 34201.5 1881.57  39
   5   1   2 47232.5 2228.06  29
   5   1   2 41238.2 2071.40  31
   5   1   2 34750.2 3019.95  27
   5   1   2 39762.2 2164.20  26
   5   1   2 37775.2 2617.88  28
   5   1   2 36177.6 1985.42  30
  -5   1  -2 40965.3 2152.73   5
  -5   1  -3 28820.0 1870.57   5
   5   1   3 28681.5 2513.55  23
   5   1   3 36563.2 4095.26  21
   5   1   3 29762.0 3661.17  22
   5   1   3 25915.5 1570.86  25
   5   1   3 30434.9 3076.00  24
   5   1   3 21708.7 1526.72  53
  -5   1  -3 32751.5 2005.39  45
   5   1   3 33684.6 2339.59  56
   5   1   3 31521.7 2503.64  54
   5   1   3 28950.7 1856.33  38
   5   1   3 27388.2 1725.58  34
   5   1   3 36045.8 4233.79  40
   5   1   3 26359.6 1601.23  39
   5   1   3 27286.0 1794.83  26
   5   1   3 33913.6 1881.40  29
   5   1   3 30109.9 1745.19  31
   5   1   3 28180.2 1707.19  30
   5   1   3 27499.3 2217.09  28
   5   1   3 28178.5 1780.89   9
  -5   1  -4 29863.2 1953.24   5
   5   1   4 29827.7 2553.41  23
   5   1   4 35837.2 4066.95  21
   5   1   4 36084.9 3952.41  22
   5   1   4 24911.7 1542.11  25
   5   1   4 28013.4 2934.56  24
   5   1   4 19032.7 1497.86  53
   5   1   4 31708.5 2291.91  56
   5   1   4 36285.2 2615.60  54
   5   1   4 27093.4 1788.30  17
   5   1   4 27681.9 1775.61  34
   5   1   4 24038.6 1650.37  33
   5   1   4 39699.4 4319.38  40
   5   1   4 27298.5 1602.27  39
   5   1   4 33437.1 1880.83  29
   5   1   4 28491.4 1857.52  26
   5   1   4 32675.5 1807.84  30
   5   1   4 28956.3 2284.69  28
   5   1   4 30749.7 1886.10   9
  -5   1  -5 1447.10 449.156   5
   5   1   5 1362.63 828.874  21
   5   1   5 1304.94 397.261  26
   5   1   5 1192.50 328.338  25
   5   1   5 1297.08 720.379  22
   5   1   5 1890.11 724.383  24
   5   1   5 1143.86 369.726  53
   5   1   5 1357.22 477.164  56
   5   1   5 1668.75 594.441  54
   5   1   5 1090.01 359.707  17
   5   1   5 1005.03 353.808  34
   5   1   5 2645.45 1094.67  40
   5   1   5 1667.73 369.092  39
   5   1   5 1507.22 376.606  30
   5   1   5 936.204 326.596  33
   5   1   5 1351.80 474.911  28
   5   1   5 1311.48 408.822   7
   5   1   5 1475.79 400.571   9
  -5   1  -6 849.121 376.124   5
   5   1   6 1065.74 382.179  26
   5   1   6 791.825 567.747  21
   5   1   6 1133.43 307.018  25
   5   1   6 1755.51 823.713  22
   5   1   6 797.001 324.914  53
   5   1   6 876.134 407.395  56
   5   1   6 1942.33 568.555  54
   5   1   6 953.075 356.536  34
   5   1   6 1857.32 904.329  40
   5   1   6 1414.65 323.947  39
   5   1   6 623.865 353.427   7
   5   1   6 1229.28 392.853   9
   5   1   6 1245.75 339.341  30
   5   1   6 781.761 354.910  28
   5   1   6 936.060 322.084  33
   5   1   6 1008.40 363.733  17
  -5   1  -7 15135.1 1500.42   5
   5   1   7 14854.0 1390.24  17
   5   1   7 14647.8 1129.98  25
   5   1   7 21487.8 2813.64  22
   5   1   7 15415.9 1391.99  34
   5   1   7 23904.1 3204.78  40
   5   1   7 14408.0 1304.54  33
   5   1   7 16402.7 1452.23  26
   5   1   7 14611.8 1578.52  28
   5   1   7 17019.7 1508.81   9
   5   1   7 14098.7 1410.25   7
  -5   1  -8 16511.8 1587.82   5
   5   1   8 14984.8 1423.93  17
   5   1   8 14099.3 1082.34  25
   5   1   8 12820.6 1254.02  33
   5   1   8 16213.6 1657.74  28
   5   1   8 15476.1 1416.79  26
   5   1   8 15317.0 1459.02   9
   5   1   9 33226.7 2233.98  17
   5   1   9 33402.7 2271.29   9
   5   1   9 39768.0 2560.46  28
   5   1   9 36372.9 2265.27  26
   5   1   9 35008.3 2134.40  33
   5   1  10 33287.4 2137.15  26
   5   1  10 36804.8 2354.71  28
   5   1  10 28073.8 2068.94   9
   5   1  10 33813.9 2161.42  34
   5   1  10 34062.5 2071.89  33
   5   1  11 5112.26 826.718   9
   5   1  11 6255.84 884.908  34
   5   1  11 4832.12 739.450  33
   5   1  11 6628.74 903.177  26
  -5   1 -11 6003.63 1028.21   3
   5   1  12 6046.38 876.779  17
   5   1  12 6158.19 901.807   9
   5   1  12 6777.66 908.080  34
   5   1  12 6593.07 820.739  33
   5   1  12 6685.86 870.420  26
  -5   1 -12 7258.38 1013.40   5
  -5   1 -12 8163.71 1132.28   3
  -5   1 -13 529.070 357.227   3
   5   1  13 502.159 256.238  17
   5   1  13 362.982 231.552  26
   5   1  13 441.775 235.108  34
   5   1  13 376.698 211.351  33
   5   1  13 312.400 211.195   9
   5   1  14 10218.9 1025.91   9
   5   1  14 12590.0 1078.16  34
   5   1  14 10448.1 903.809  33
   5   1  14 10727.0 1039.19  17
   5   1  14 10533.9 957.116  26
  -5   1 -14 10127.7 1146.13   3
   5   1  15 14805.5 1105.13   9
   5   1  15 18527.6 1185.92  34
   5   1  15 15685.6 969.896  33
   5   1  15 15692.7 1041.22  26
  -5   1 -15 14423.4 1256.55   3
   5   1  16 6591.08 611.743   9
   5   1  16 5566.73 448.020  33
   5   1  16 7492.61 622.735  34
  -5   1 -16 2554.83 454.730  18
   5   1  16 5697.21 504.240  26
  -5   1 -16 3832.23 560.940   3
   5   1  17 7154.86 512.779  35
  -5   1 -17 3004.26 390.854   3
  -5   2  18 3178.01 339.167   9
   5   2 -18 1214.66 279.136  41
   5   2 -17 9503.99 914.608  41
  -5   2  17 13188.7 903.493   9
   5   2 -16 14544.5 1307.90  41
   5   2 -16 16404.8 1615.60  20
   5   2 -15 17706.3 1599.08  41
  -5   2  15 17673.2 1084.97  17
   5   2 -15 20635.9 2730.36  32
   5   2 -15 20088.0 2081.82  20
   5   2 -14 4325.99 842.533  41
   5   2 -14 6029.23 1350.31  37
   5   2 -14 5039.47 874.422  23
   5   2 -14 6732.97 1336.84  20
   5   2 -14 6501.64 1741.60  32
  -5   2  14 5609.39 670.557  17
  -5   2  13 3780.78 591.450  17
   5   2 -13 2937.50 735.728  41
   5   2 -13 4227.15 1170.44  37
   5   2 -13 3577.12 643.791   4
  -5   2  13 3154.98 553.950   6
   5   2 -13 3425.82 528.526  29
   5   2 -13 5363.99 1744.67  32
   5   2 -13 4205.60 911.076  23
   5   2 -13 3429.54 1029.11  20
   5   2 -12 1576.87 590.321  23
   5   2 -12 1195.07 677.188  20
   5   2 -12 1089.05 361.686   4
  -5   2  12 2005.05 474.860   1
  -5   2  12 918.945 350.858   6
   5   2 -12 686.534 426.401  41
   5   2 -12 1528.14 819.559  37
   5   2 -12 957.956 866.178  27
   5   2 -12 424.716 223.011  29
   5   2 -12 3247.88 1438.91  32
  -5   2  12 850.301 280.427   7
   5   2 -11 19374.9 2258.07  23
   5   2 -11 17290.8 2470.14  20
   5   2 -11 14329.4 1727.58  41
   5   2 -11 12746.7 1373.93   4
  -5   2  11 16947.8 1466.18   6
  -5   2  11 16544.8 1463.92   1
   5   2 -11 17736.4 2485.63  37
   5   2 -11 17769.1 1396.37  29
   5   2 -11 22501.9 3277.12  27
   5   2 -11 24173.6 3844.31  32
  -5   2  11 13654.5 1257.11   7
   5   2 -10 16705.7 1858.45  41
   5   2 -10 17150.0 1599.81   4
  -5   2  10 19338.4 1601.13   1
  -5   2  10 18443.2 1452.97   2
  -5   2  10 22798.2 1748.01   6
   5   2 -10 21198.1 2734.41  37
   5   2 -10 17964.8 1456.33  29
   5   2 -10 20053.6 2348.67  23
   5   2 -10 20432.8 3092.89  24
   5   2 -10 18209.7 2555.21  20
   5   2  -9 16813.8 1876.90  41
   5   2  -9 15700.6 1539.26   4
  -5   2   9 18181.2 1542.86   1
  -5   2   9 19318.9 1554.96   2
  -5   2   9 20085.8 1669.34   6
   5   2  -9 14962.9 2274.32  37
   5   2  -9 15132.2 1373.15  29
   5   2  -9 24259.9 3411.80  27
   5   2  -9 27818.2 4234.88  32
   5   2  -9 18086.7 1287.97  30
   5   2  -9 17169.2 2219.19  23
   5   2  -9 20365.0 3093.83  24
   5   2  -9 17643.6 2540.84  20
   5   2  -8 22483.4 2145.06  41
  -5   2   8 27278.9 1890.93   2
  -5   2   8 25794.5 1902.86   6
  -5   2   8 22234.0 1711.69   1
   5   2  -8 32582.2 3914.83  40
   5   2  -8 22377.8 2687.17  37
   5   2  -8 32116.9 3506.84  36
   5   2  -8 21620.7 1671.16  29
   5   2  -8 24917.0 1844.14  26
   5   2  -8 34559.2 4657.45  32
   5   2  -8 24145.9 1567.22  31
   5   2  -8 21430.5 2326.58  28
   5   2  -8 26059.7 1626.62  30
   5   2  -8 21098.7 2485.64  23
   5   2  -8 28017.9 3482.10  22
   5   2  -8 26223.5 1652.21  25
   5   2  -8 26119.6 3486.48  24
   5   2  -8 19035.6 2657.37  20
   5   2  -7 16243.3 2045.65  59
   5   2  -7 35793.6 2695.50  41
  -5   2   7 36471.1 2183.88   1
  -5   2   7 39226.6 2338.50   2
  -5   2   7 39546.9 2391.44   6
   5   2  -7 37595.3 2158.08  38
   5   2  -7 54169.5 5350.57  40
   5   2  -7 36772.9 1843.94  33
   5   2  -7 36563.2 3347.62  37
   5   2  -7 44552.4 4017.97  36
   5   2  -7 36087.1 2165.77  29
   5   2  -7 33526.1 2809.94  28
   5   2  -7 37405.8 2234.15  26
   5   2  -7 37667.9 2028.80  31
   5   2  -7 41358.0 4463.67  27
   5   2  -7 38037.1 2045.08  30
   5   2  -7 34760.6 3207.34  23
   5   2  -7 38463.6 2045.49  25
   5   2  -7 40871.3 4381.73  24
   5   2  -7 44264.6 4472.72  22
   5   2  -6 9061.03 1518.85  59
   5   2  -6 10655.1 1532.75  55
   5   2  -6 14961.2 1677.83  41
  -5   2   6 13269.3 1354.21   2
  -5   2   6 15262.8 1457.95   6
   5   2  -6 14840.8 1340.03  38
   5   2  -6 22953.0 3429.48  40
   5   2  -6 16731.3 2097.15  37
   5   2  -6 16242.0 2238.61  36
   5   2  -6 14306.3 1113.04  33
   5   2  -6 15548.1 1285.58  39
   5   2  -6 12695.8 1240.25  29
   5   2  -6 16526.4 2690.80  27
   5   2  -6 14923.2 1372.34  26
   5   2  -6 15289.5 1255.24  31
   5   2  -6 14012.8 1768.63  28
   5   2  -6 14703.1 1257.01  30
   5   2  -6 12868.3 1939.75  23
   5   2  -6 16174.7 2790.35  22
   5   2  -6 14030.4 1185.46  25
   5   2  -6 15945.3 2691.72  24
   5   2  -5 3888.73 1018.27  59
   5   2  -5 7303.71 1144.61  41
   5   2  -5 5908.94 1114.45  55
  -5   2   5 6821.52 965.747   2
  -5   2   5 6863.56 970.091   6
   5   2  -5 7008.42 921.594  38
   5   2  -5 6918.87 1280.36  37
   5   2  -5 8083.61 2094.49  40
   5   2  -5 6780.44 848.902  39
   5   2  -5 7209.63 778.178  33
   5   2  -5 5874.39 1602.88  27
   5   2  -5 5961.24 836.520  29
   5   2  -5 6465.13 828.980  30
   5   2  -5 8761.58 2240.29  32
   5   2  -5 7006.75 855.865  31
   5   2  -5 5374.30 1079.98  28
   5   2  -5 7202.38 920.222  26
   5   2  -5 7144.44 841.853  25
   5   2  -5 6629.16 1357.71  23
   5   2  -5 8677.26 1981.38  24
   5   2  -5 9079.04 2092.43  22
   5   2  -5 5936.05 1455.71  20
   5   2  -4 6834.55 1271.39  59
   5   2  -4 8860.54 1255.60  41
   5   2  -4 9120.06 1391.94  55
  -5   2   4 8921.41 1103.38   2
   5   2  -4 8205.41 1002.21  38
   5   2  -4 7943.28 832.971  33
   5   2  -4 10909.6 2491.32  40
   5   2  -4 10743.3 1510.32  37
   5   2  -4 8446.25 947.039  39
   5   2  -4 10716.7 1979.49  27
   5   2  -4 9334.57 2288.06  32
   5   2  -4 8287.08 940.142  31
   5   2  -4 7863.58 968.673  26
   5   2  -4 7672.68 916.552  30
   5   2  -4 9267.31 1628.00  23
   5   2  -4 8827.90 1956.44  24
   5   2  -4 10080.2 2289.71  22
   5   2  -4 9643.97 1731.32  20
   5   2  -4 8603.29 913.247  25
   5   2  -3 44807.8 3275.88  59
   5   2  -3 46853.0 2966.32  41
   5   2  -3 43461.6 3144.88  55
  -5   2   3 50687.9 2730.85   2
   5   2  -3 42816.4 2435.12  38
   5   2  -3 43266.9 2145.94  33
   5   2  -3 62116.5 5940.64  40
   5   2  -3 47232.6 2367.93  39
   5   2  -3 47142.1 2432.39  29
   5   2  -3 58539.5 5507.88  32
   5   2  -3 50154.2 4255.23  27
   5   2  -3 39953.0 2270.76  30
   5   2  -3 47414.7 2381.56  31
   5   2  -3 48910.2 2515.72  26
   5   2  -3 48630.2 3709.19  23
   5   2  -3 48902.8 2335.81  25
   5   2  -3 52827.1 5155.71  22
   5   2  -3 47293.5 3799.05  20
   5   2  -2 69597.9 4217.03  59
   5   2  -2 69609.0 3761.86  41
   5   2  -2 74401.6 4096.87  55
  -5   2   2 73675.2 3436.70   2
   5   2  -2 87906.8 7199.97  40
   5   2  -2 72376.2 2925.65  33
   5   2  -2 75171.2 3227.47  26
   5   2  -2 76170.0 3200.99  29
   5   2  -2 94870.6 6854.57  32
   5   2  -2 66489.1 4874.87  27
   5   2  -2 75892.9 4078.51  28
   5   2  -2 74459.6 4713.61  23
   5   2  -2 70735.8 5659.50  24
   5   2  -2 72235.3 4690.54  20
   5   2  -2 83954.2 6556.77  22
   5   2  -1 61774.9 3923.33  59
   5   2  -1 52246.9 3276.45  41
   5   2  -1 63307.8 3729.04  55
  -5   2   1 65091.2 3130.24   2
   5   2  -1 55599.9 2853.31  38
   5   2  -1 69113.5 6387.18  40
   5   2  -1 62337.0 2783.69  39
   5   2  -1 57728.5 2574.74  33
   5   2  -1 64848.1 2864.81  29
   5   2  -1 62975.6 2897.08  26
   5   2  -1 77811.8 6000.71  32
   5   2  -1 47965.4 4060.64  27
   5   2  -1 57780.2 2732.53  31
   5   2  -1 62117.2 3611.73  28
   5   2  -1 54946.9 2702.36  30
   5   2  -1 68162.6 5894.45  22
   5   2  -1 60666.0 5059.09  24
   5   2  -1 72759.3 4408.62  20
   5   2   0 206.919 270.686  59
   5   2   0 52.0943 223.962  41
   5   2   0 120.531 236.515  55
  -5   2   0 140.303 139.312   5
   5   2   0-32.1970 149.521  30
   5   2   0 180.877 224.480  27
   5   2   0 276.468 217.005  28
   5   2   0 171.302 150.338  33
   5   2   0 125.472 165.171  29
   5   2   0 630.005 494.483  32
   5   2   0 156.467 164.779  31
   5   2   0 323.616 375.677  23
   5   2   0 378.397 297.004  20
   5   2   0 29.1195 153.334  25
   5   2   0 236.802 359.924  24
   5   2   0 91.7841 151.889  39
   5   2   0 72.0989 200.085  38
  -5   2  -1 25312.0 1676.69   5
  -5   2  -1 26001.0 1922.00   2
   5   2   1 24320.9 1772.04  38
   5   2   1 25761.9 1533.52  34
   5   2   1 27337.3 1733.65  39
   5   2   1 25382.3 1644.14  33
   5   2   1 26082.7 3859.03  40
   5   2   1 29207.9 1776.62  29
   5   2   1 34283.2 3509.60  32
   5   2   1 25807.3 1711.45  31
   5   2   1 25390.0 2166.49  28
   5   2   1 25686.8 1721.44  30
   5   2   1 26953.7 2707.91  23
   5   2   1 24684.4 2436.17  20
   5   2   1 24834.6 1628.15  25
   5   2   1 24134.6 3033.08  24
   5   2   1 26380.9 3618.37  22
   5   2   2 1811.87 471.563   7
  -5   2  -2 3421.39 626.667   5
  -5   2  -2 3355.96 688.035   2
   5   2   2 3229.85 871.951  59
   5   2   2 3541.41 867.738  55
   5   2   2 3286.54 636.275  38
   5   2   2 3426.48 541.495  34
   5   2   2 4100.67 1470.38  40
   5   2   2 2712.24 533.144  39
   5   2   2 3065.23 565.557  33
   5   2   2 3166.93 569.400  29
   5   2   2 2757.63 533.696  31
   5   2   2 2866.86 712.349  28
   5   2   2 3035.08 571.992  30
   5   2   2 3327.02 978.356  23
   5   2   2 3179.61 565.557  25
   5   2   2 3557.97 860.007  20
   5   2   2 3876.43 1335.70  22
   5   2   2 2806.40 987.051  24
   5   2   3 6344.35 895.953   7
  -5   2  -3 8142.10 1005.05   5
  -5   2  -3 7202.01 992.614   2
   5   2   3 6497.70 1247.63  59
   5   2   3 7165.54 1213.09  55
   5   2   3 8441.54 907.549  17
   5   2   3 6829.78 922.709  38
   5   2   3 7765.55 882.337  34
   5   2   3 8212.02 947.644  33
   5   2   3 11212.0 2569.80  40
   5   2   3 7371.46 873.445  39
   5   2   3 9123.19 967.125  29
   5   2   3 8122.52 914.258  31
   5   2   3 8458.57 1177.42  28
   5   2   3 7479.60 896.807  30
   5   2   3 8145.62 908.427  25
   5   2   3 8689.83 1733.15  24
   5   2   3 10053.4 2207.59  22
   5   2   3 7570.11 1451.77  23
   5   2   4 45732.5 2569.56   7
  -5   2  -4 48186.6 2687.22   5
  -5   2  -4 49183.6 2770.41   2
   5   2   4 46536.8 3406.52  59
   5   2   4 53405.4 3509.01  55
   5   2   4 47259.4 2424.93  17
   5   2   4 59668.0 2807.13  38
   5   2   4 49425.5 2489.46  34
   5   2   4 65562.1 6092.73  40
   5   2   4 51063.3 2555.22  33
   5   2   4 47155.9 2379.84  39
   5   2   4 47226.8 2647.78  26
   5   2   4 66007.9 2762.78  29
   5   2   4 52750.3 2509.75  31
   5   2   4 43278.8 2868.07  28
   5   2   4 52163.6 2503.29  30
   5   2   4 61927.2 5477.82  22
   5   2   4 49552.1 2439.85  25
   5   2   4 56652.2 4323.95  24
   5   2   5 10687.5 1230.29   7
  -5   2  -5 18591.1 1625.06   5
  -5   2  -5 15875.0 1502.30   2
   5   2   5 13058.5 1821.16  59
   5   2   5 17079.0 1909.47  55
   5   2   5 18158.6 1469.73  33
   5   2   5 21545.5 1584.65  38
   5   2   5 17923.0 1453.85  34
   5   2   5 23964.3 3488.98  40
   5   2   5 20259.2 1438.21  39
   5   2   5 22785.5 3173.69  22
   5   2   5 19039.8 1420.83  25
   5   2   5 18774.1 2381.97  24
   5   2   5 22170.0 1533.27  29
   5   2   5 19174.2 1612.51  26
   5   2   5 21258.8 1468.41  31
   5   2   5 14460.4 1562.73  28
   5   2   5 20232.9 1440.65  30
   5   2   5 18411.8 1474.83  17
   5   2   6 37769.2 2225.81  17
   5   2   6 52403.3 4848.46  22
   5   2   6 35329.1 2033.34  25
   5   2   6 45109.7 2350.57  38
   5   2   6 36293.1 2194.43  34
   5   2   6 52967.6 5104.54  40
   5   2   6 39910.1 2085.32  39
   5   2   6 39658.3 2067.32  31
   5   2   6 38413.1 2374.36  26
   5   2   6 31113.3 2306.68  28
   5   2   6 42216.0 2126.05  30
  -5   2  -6 41279.2 2521.82   5
  -5   2  -6 35215.7 2273.31   2
  -5   2  -6 36688.3 2285.48   3
  -5   2  -7 51780.4 2914.09   5
  -5   2  -7 44696.7 2559.16   2
  -5   2  -7 52298.0 2800.29   3
   5   2   7 42456.8 2478.52  17
   5   2   7 58879.4 4964.65  22
   5   2   7 49529.3 2405.72  25
   5   2   7 45711.8 2545.87  34
   5   2   7 54098.1 2383.42  39
   5   2   7 48490.4 2718.55  26
   5   2   7 43434.9 2672.25  28
   5   2   7 49277.8 2253.08  30
   5   2   7 38021.5 2471.24   7
  -5   2  -8 10498.1 1279.87   5
  -5   2  -8 6920.38 941.799   2
  -5   2  -8 8391.21 1113.45   3
   5   2   8 8569.18 1050.19  17
   5   2   8 12387.7 2052.69  22
   5   2   8 8748.56 927.738  25
   5   2   8 9752.94 914.966  39
   5   2   8 8971.18 1117.41  26
   5   2   8 6663.26 855.793   9
   5   2   8 8171.46 1090.85   7
  -5   2  -9 386.347 310.789   3
  -5   2  -9 416.086 292.716   5
   5   2   9 614.988 286.371  17
   5   2   9 622.077 308.958  26
   5   2   9 464.880 230.379  25
   5   2   9 383.935 252.315  34
   5   2   9 368.988 233.701  33
   5   2   9 597.347 304.809   7
   5   2   9 517.190 227.138   9
  -5   2 -10 7083.12 1036.16   5
  -5   2 -10 7728.82 1071.27   3
   5   2  10 6736.13 923.291  17
   5   2  10 7524.83 792.666  25
   5   2  10 6131.22 879.031  34
   5   2  10 5893.12 838.105  33
   5   2  10 6658.38 962.092  26
   5   2  10 5086.88 731.660   9
   5   2  10 8213.64 1023.82   7
  -5   2 -11 7141.72 992.566   3
   5   2  11 5682.96 841.575  17
   5   2  11 5644.50 628.640  25
   5   2  11 5473.05 795.126  33
   5   2  11 5656.04 845.462  26
   5   2  11 5073.69 702.891   9
   5   2  11 6381.94 909.514   7
   5   2  12 18614.1 1428.17  33
  -5   2 -12 19008.3 1639.07   5
  -5   2 -12 22547.2 1759.92   3
   5   2  12 19379.1 1532.32  26
  -5   2 -12 23461.3 1917.99  18
   5   2  12 22380.1 1619.13  17
   5   2  13 13152.5 1139.42  34
   5   2  13 11365.0 1025.84  33
  -5   2 -13 12750.6 1244.43   3
   5   2  13 11296.1 1074.55  26
  -5   2 -13 12111.1 1281.74  18
   5   2  13 12363.0 1119.74  17
   5   2  14 21457.6 1362.93  34
   5   2  14 20337.1 1264.65  33
   5   2  14 19498.7 1310.44  26
  -5   2 -14 19762.2 1458.07   3
   5   2  15 7768.05 659.598  33
   5   2  15 7489.89 700.097  34
  -5   2 -15 6870.69 736.818   3
   5   2  15 7954.33 707.038  26
  -5   2 -16 60.6074 92.1654  18
   5   2  16 261.433 108.410  26
   5   2  16 226.307 108.139  34
   5   2  16 180.402 82.5557  33
  -5   2 -16 30.5056 92.7787   3
  -5   3  16 1058.09 246.575   9
   5   3 -16 617.522 235.479  41
  -5   3  16 1096.63 179.641  17
   5   3 -15 422.232 209.888  41
  -5   3  15 573.112 182.696  17
   5   3 -15 652.171 293.688  20
  -5   3  14 7187.19 717.180  17
   5   3 -14 9783.49 1380.29  20
   5   3 -14 8033.41 691.596  29
   5   3 -14 7282.28 938.861  41
  -5   3  13 24106.7 1582.71   6
   5   3 -13 29267.8 2087.91  41
   5   3 -13 37285.2 3016.91  20
  -5   3  13 33478.7 1772.64  17
   5   3 -13 32311.4 1685.68  29
  -5   3  13 28236.5 1510.45   7
  -5   3  12 8227.51 934.608   6
   5   3 -12 6804.74 1060.03  41
   5   3 -12 8731.30 1553.31  20
  -5   3  12 7722.38 873.987  17
   5   3 -12 9093.35 940.027  29
  -5   3  12 7132.37 806.996   7
   5   3 -11 9610.61 1415.80  23
   5   3 -11 10708.0 1838.12  20
  -5   3  11 8705.77 1035.09   6
   5   3 -11 8469.91 1220.13  41
   5   3 -11 10673.9 1081.10  29
  -5   3  11 10407.3 1059.61   7
  -5   3  11 9238.62 825.848   8
   5   3 -10 13950.9 1840.91  23
   5   3 -10 12434.7 2064.51  20
  -5   3  10 14513.1 1373.01   6
   5   3 -10 13300.7 1566.90  41
   5   3 -10 13498.9 1308.24  29
  -5   3  10 13269.3 1104.27   8
  -5   3  10 13617.6 1299.78   7
   5   3  -9 16652.4 2088.21  23
   5   3  -9 18487.2 2541.44  20
   5   3  -9 15904.4 1760.44  41
  -5   3   9 14824.7 1396.11   2
  -5   3   9 15446.4 1460.56   6
  -5   3   9 15446.0 1323.26   1
   5   3  -9 20598.4 3199.31  27
   5   3  -9 15529.9 1406.95  29
   5   3  -9 21709.3 3744.40  32
   5   3  -9 14367.3 1127.35  30
  -5   3   9 16438.6 1489.05   7
  -5   3   9 14625.3 1243.64   8
  -5   3   8 7103.32 877.222   8
   5   3  -8 1816.94 758.401  59
   5   3  -8 7949.66 1255.62  41
  -5   3   8 6878.50 875.918   1
  -5   3   8 7170.54 1002.37   2
  -5   3   8 7786.49 1042.63   6
   5   3  -8 7235.19 889.200  38
   5   3  -8 8536.19 2093.59  27
   5   3  -8 7632.12 993.107  29
   5   3  -8 12436.2 2792.64  32
   5   3  -8 7646.70 840.479  31
   5   3  -8 6279.49 792.278  30
   5   3  -8 6793.60 1387.70  23
   5   3  -8 7105.99 1631.32  20
   5   3  -8 7538.17 807.101  25
   5   3  -7 6510.47 1295.64  59
   5   3  -7 12977.3 1608.68  41
   5   3  -7 9844.79 1416.31  55
  -5   3   7 12956.0 1350.25   2
  -5   3   7 9470.69 1046.38   1
  -5   3   7 13462.0 1391.68   6
   5   3  -7 13485.2 1269.06  38
   5   3  -7 10935.1 1059.98  39
   5   3  -7 17083.0 2876.09  27
   5   3  -7 12151.6 1188.54  26
   5   3  -7 13399.1 1187.05  31
   5   3  -7 11964.9 1134.63  30
   5   3  -7 10416.6 1727.72  23
   5   3  -7 12799.5 1092.39  25
   5   3  -7 14759.6 2306.26  20
   5   3  -6 26482.4 2683.49  59
   5   3  -6 45637.1 3061.07  41
   5   3  -6 38935.7 3014.69  55
  -5   3   6 42905.7 2583.00   2
  -5   3   6 42727.6 2599.37   6
  -5   3   6 38107.4 2186.14   1
   5   3  -6 43260.6 2472.87  38
   5   3  -6 40272.4 2186.96  39
   5   3  -6 50395.2 4821.52  27
   5   3  -6 50778.6 5716.66  32
   5   3  -6 45311.5 2414.28  26
   5   3  -6 46138.8 2395.59  31
   5   3  -6 43903.0 2353.46  30
   5   3  -6 33990.6 3271.61  23
   5   3  -6 50147.2 5170.94  22
   5   3  -6 42264.5 4742.85  24
   5   3  -6 42312.5 2151.69  25
   5   3  -5 22319.7 2479.45  59
   5   3  -5 29684.2 2446.04  41
   5   3  -5 28517.9 2545.75  55
  -5   3   5 26830.8 1788.42   1
  -5   3   5 31957.6 2216.48   2
   5   3  -5 30375.9 2074.20  38
   5   3  -5 29230.0 1893.06  39
   5   3  -5 25920.1 2543.81  28
   5   3  -5 29748.9 1932.26  31
   5   3  -5 30174.1 2050.38  29
   5   3  -5 29155.4 3634.98  27
   5   3  -5 39388.0 4937.21  32
   5   3  -5 30604.4 1949.28  26
   5   3  -5 30722.3 1972.44  30
   5   3  -5 32489.9 1856.17  25
   5   3  -5 28880.7 2977.73  23
   5   3  -5 38166.6 4564.94  22
   5   3  -5 30355.6 3983.65  24
   5   3  -4 25093.1 2570.19  59
   5   3  -4 29944.7 2477.21  41
   5   3  -4 28641.7 2610.45  55
  -5   3   4 27313.4 2074.08   2
   5   3  -4 30713.7 2098.52  38
   5   3  -4 29716.8 1902.10  39
   5   3  -4 24867.6 2443.70  28
   5   3  -4 30997.5 2051.71  29
   5   3  -4 31315.5 3621.36  27
   5   3  -4 33238.1 4540.94  32
   5   3  -4 28454.3 1913.41  31
   5   3  -4 32805.5 2019.43  26
   5   3  -4 28047.7 1920.04  30
   5   3  -4 28439.4 3003.80  23
   5   3  -4 37822.7 4580.06  22
   5   3  -4 33502.8 3403.40  20
   5   3  -4 33002.4 1904.75  25
   5   3  -3 9416.12 1570.58  59
   5   3  -3 10265.1 1423.00  41
   5   3  -3 11526.2 1595.79  55
  -5   3   3 9061.98 1213.95   6
   5   3  -3 9468.29 1149.28  38
   5   3  -3 11237.7 1132.69  39
   5   3  -3 11355.7 1199.66  29
   5   3  -3 9463.07 1901.77  27
   5   3  -3 15653.2 2994.09  32
   5   3  -3 11013.2 1573.11  28
   5   3  -3 10030.6 1111.21  31
   5   3  -3 11643.1 1165.13  26
   5   3  -3 11220.0 1179.19  30
   5   3  -3 10711.9 1818.86  23
   5   3  -3 12629.2 2685.07  22
   5   3  -3 9850.70 1022.78  25
   5   3  -3 10857.6 1914.02  20
   5   3  -2 6795.43 1350.44  59
   5   3  -2 7175.17 1193.42  41
   5   3  -2 8038.95 1343.41  55
  -5   3   2 6452.33 1020.15   6
   5   3  -2 7406.31 774.251  33
   5   3  -2 7452.41 946.359  39
   5   3  -2 8031.55 977.627  26
   5   3  -2 7867.87 971.203  29
   5   3  -2 6176.01 1431.56  27
   5   3  -2 11092.4 2431.94  32
   5   3  -2 6778.21 1223.65  28
   5   3  -2 7571.91 1564.03  23
   5   3  -2 10018.5 2425.98  22
   5   3  -2 7349.48 885.288  25
   5   3  -2 8258.93 1616.85  20
   5   3  -2 6816.95 1911.12  24
   5   3  -1 8211.03 1480.21  59
   5   3  -1 7532.46 1297.94  55
  -5   3   1 8883.18 1119.26   2
   5   3  -1 6853.50 989.851  38
   5   3  -1 11627.9 2793.76  40
   5   3  -1 8002.69 839.141  33
   5   3  -1 9057.31 1043.76  26
   5   3  -1 9163.50 1035.90  29
   5   3  -1 9339.32 1672.81  27
   5   3  -1 11609.2 2372.74  32
   5   3  -1 7533.09 1270.42  28
   5   3  -1 7290.18 942.114  31
   5   3  -1 7024.11 949.063  30
   5   3  -1 9309.29 1715.46  23
   5   3  -1 8200.63 947.988  25
   5   3  -1 10099.1 1793.30  20
   5   3  -1 8859.22 2263.76  22
   5   3  -1 6767.21 1875.70  24
   5   3   0 33407.9 2993.93  59
   5   3   0 32088.6 2715.62  55
   5   3   0 30302.0 2141.53  38
   5   3   0 32928.0 2053.72  39
   5   3   0 30099.4 1767.18  33
   5   3   0 35336.1 3334.92  23
   5   3   0 40448.2 3517.47  20
   5   3   0 28464.9 3687.05  24
   5   3   0 31243.0 1951.81  25
   5   3   0 39098.4 2171.67  29
   5   3   0 33547.4 2098.95  26
   5   3   0 45567.4 4466.78  32
   5   3   0 31151.7 2518.01  28
   5   3   0 31015.3 2019.72  31
   5   3   0 30197.7 2023.28  30
  -5   3   0 31760.7 2178.76   2
  -5   3  -1 4996.28 849.568   2
  -5   3  -1 6062.28 843.415   5
   5   3   1 7300.45 1477.97  20
   5   3   1 6394.10 1672.04  24
   5   3   1 6414.96 948.892  38
   5   3   1 6001.35 773.868  33
   5   3   1 5860.75 838.548  39
   5   3   1 6618.18 1600.45  32
   5   3   1 6415.32 836.461  29
   5   3   1 5685.36 831.743  26
   5   3   1 6188.66 856.320  31
   5   3   1 6058.32 1035.60  28
   5   3   1 6342.74 888.905  30
   5   3   1 6452.53 852.620   7
   5   3   2 26543.3 1896.09   7
  -5   3  -2 32842.3 2210.62   2
  -5   3  -2 35260.7 2208.34   5
   5   3   2 30419.9 2890.82  59
   5   3   2 38209.2 2986.44  55
  -5   3  -2 34484.1 2148.94  18
   5   3   2 36079.6 2288.90  38
   5   3   2 33245.5 1949.87  33
   5   3   2 35621.5 2137.64  39
   5   3   2 39176.8 2154.98  29
   5   3   2 36760.6 2238.71  26
   5   3   2 38834.4 2220.37  31
   5   3   2 27232.4 2299.22  28
   5   3   2 37940.2 2233.37  30
   5   3   2 39133.6 4731.37  22
   5   3   2 34988.3 2108.34  25
   5   3   2 31126.9 3742.29  24
   5   3   3 32304.6 2135.58   7
  -5   3  -3 38520.4 2373.33   2
  -5   3  -3 39879.2 2406.24   5
   5   3   3 34332.7 3066.56  59
   5   3   3 42559.5 3166.24  55
  -5   3  -3 39282.5 2406.34  18
   5   3   3 43438.1 2492.80  38
   5   3   3 38783.1 2009.61  34
   5   3   3 38702.0 2252.34  39
   5   3   3 38116.8 2145.55  33
   5   3   3 47153.1 2328.36  29
   5   3   3 46057.8 2403.59  31
   5   3   3 27635.1 2271.67  28
   5   3   3 40569.3 2409.94  26
   5   3   3 43154.8 2369.97  30
   5   3   3 54611.0 5513.95  22
   5   3   3 39873.6 2260.90  25
   5   3   3 39623.1 3988.27  24
   5   3   4 51341.1 2787.11   7
  -5   3  -4 49534.6 2765.05   2
  -5   3  -4 57052.8 3042.62   5
   5   3   4 58299.0 3913.26  59
   5   3   4 58230.3 3743.08  55
  -5   3  -4 60808.8 3132.41  18
   5   3   4 65712.3 3111.21  38
   5   3   4 56170.0 2599.26  34
   5   3   4 55045.7 2710.06  33
   5   3   4 55706.5 2777.12  39
   5   3   4 73062.4 2894.66  29
   5   3   4 61229.1 2826.42  31
   5   3   4 38838.7 2695.97  28
   5   3   4 61045.5 3032.14  26
   5   3   4 62096.9 2858.66  30
   5   3   4 69871.1 6118.65  22
   5   3   4 56369.5 2772.99  25
   5   3   5 1191.27 430.612   7
  -5   3  -5 1332.34 390.830   2
  -5   3  -5 1505.66 498.525   5
   5   3   5 779.547 498.375  59
   5   3   5 2306.30 675.252  55
   5   3   5 1079.49 308.745  17
  -5   3  -5 1505.26 487.843  18
   5   3   5 1477.22 425.916  39
   5   3   5 1621.98 457.115  38
   5   3   5 1461.87 379.428  34
   5   3   5 1524.28 410.609  30
   5   3   5 1855.54 436.767  29
   5   3   5 1452.32 425.832  33
   5   3   5 1538.50 402.247  31
   5   3   5 1373.17 449.260  26
   5   3   5 1489.04 435.019  25
   5   3   6 4883.03 820.681   7
  -5   3  -6 5225.92 770.895   2
  -5   3  -6 4960.21 870.435   5
   5   3   6 3114.64 957.946  59
   5   3   6 3247.38 831.176  55
   5   3   6 6103.20 826.354  38
   5   3   6 5666.62 798.533  34
   5   3   6 5496.44 770.540  39
   5   3   6 4683.00 736.322  33
   5   3   6 4905.37 747.153  25
   5   3   6 6374.54 918.761  26
   5   3   6 5605.31 734.194  31
   5   3   6 5891.25 766.646  30
  -5   3  -6 6130.40 991.973  18
   5   3   6 4877.28 705.376  17
  -5   3  -7 5470.17 925.876   5
  -5   3  -7 5170.06 918.724  18
   5   3   7 5138.54 745.664  17
   5   3   7 5507.75 777.271  25
   5   3   7 6296.40 800.924  38
   5   3   7 4629.29 743.969  33
   5   3   7 4381.58 711.059  34
   5   3   7 4848.23 714.472  39
   5   3   7 5158.11 846.992  26
   5   3   7 6027.59 726.780  30
   5   3   7 3873.46 722.924   7
  -5   3  -8 26312.8 2078.99  18
   5   3   8 19367.3 1505.54  17
   5   3   8 24130.4 1626.11  25
   5   3   8 22043.1 1647.14  33
   5   3   8 20406.4 1594.05  34
   5   3   8 26516.3 1601.46  39
   5   3   8 20642.6 1704.69  26
  -5   3  -8 24984.6 1988.38   5
  -5   3  -8 22841.0 1675.69   3
  -5   3  -9 16748.7 1624.40  18
   5   3   9 12185.4 1166.94  17
   5   3   9 15868.6 1259.53  25
   5   3   9 14917.0 1313.41  34
   5   3   9 12191.0 1189.50  33
   5   3   9 15397.6 1121.89  39
  -5   3  -9 16103.0 1508.87   5
  -5   3  -9 16555.3 1384.91   3
   5   3   9 15982.7 1426.20   7
  -5   3 -10 15384.8 1520.43  18
   5   3  10 12827.1 1162.21  17
   5   3  10 13471.6 1092.65  25
   5   3  10 12269.6 1150.91  33
   5   3  10 12823.6 1178.07  34
  -5   3 -10 12604.2 1348.43   5
  -5   3 -10 13705.1 1247.15   3
   5   3  10 16228.3 1425.48   7
  -5   3 -11 11510.4 1240.23  18
   5   3  11 10356.7 996.807  17
   5   3  11 10751.9 894.214  25
   5   3  11 10976.9 1047.07  34
  -5   3 -11 11456.3 1099.59   3
   5   3  11 13006.7 1185.16   7
   5   3  12 6488.96 753.382  34
   5   3  12 6682.96 614.707  25
  -5   3 -12 6839.57 901.911  18
   5   3  12 7098.32 769.276  17
  -5   3 -12 7436.72 827.289   3
   5   3  13 1487.26 330.980  34
  -5   3 -13 960.897 326.463  18
   5   3  13 1473.04 319.964  17
  -5   3 -13 1519.71 347.544   3
  -5   3 -14 7120.76 641.268   3
   5   3  14 7139.04 626.039  33
   5   3  14 6909.95 639.028  34
   5   3  15 7302.62 540.258  26
   5   3  15 6529.13 493.897  33
  -5   4  14 14890.7 820.750  17
   5   4 -14 13362.1 705.014  29
   5   4 -13 5725.58 609.849  41
  -5   4  13 6687.65 623.754  17
   5   4 -13 6571.73 617.794  29
  -5   4  13 5679.42 525.081   7
   5   4 -12 1205.41 499.966  20
  -5   4  12 674.673 243.253  17
   5   4 -12 881.981 270.008  41
   5   4 -12 929.605 271.506  29
  -5   4  12 776.584 255.002   7
  -5   4  11 9115.03 928.959   6
   5   4 -11 8481.82 982.434  41
   5   4 -11 10859.2 1608.32  20
  -5   4  11 10205.1 930.033  17
   5   4 -11 9000.87 900.643  29
  -5   4  11 9031.61 746.203   8
  -5   4  11 8976.17 892.964   7
   5   4 -10 8245.20 1021.57  41
   5   4 -10 10403.3 1656.36  20
  -5   4  10 8895.90 823.136   8
  -5   4  10 8386.78 925.764   7
  -5   4  10 7087.88 889.239   6
   5   4  -9 26947.2 2829.44  20
  -5   4   9 23525.5 1691.43   7
  -5   4   9 24617.4 1547.32   8
   5   4  -9 24086.6 1883.98  41
  -5   4   8 12024.5 1110.72   8
  -5   4   8 13355.9 1288.99   7
   5   4  -8 10283.0 1254.22  41
   5   4  -8 10572.4 1009.48  38
   5   4  -8 11521.4 1174.42  29
   5   4  -8 12293.4 1026.04  30
   5   4  -8 14249.4 2110.68  20
  -5   4   7 9262.45 1004.99   8
  -5   4   7 9970.84 1148.40   7
  -5   4   7 9343.20 1124.91  59
   5   4  -7 9032.15 1211.46  41
  -5   4   7 8911.72 1082.41   6
   5   4  -7 9865.09 1040.19  38
   5   4  -7 9008.33 848.581  39
   5   4  -7 8953.30 1062.57  29
   5   4  -7 10100.2 990.390  30
   5   4  -7 10469.6 1867.38  20
  -5   4   6 6474.77 873.358   8
  -5   4   6 7199.73 1054.40  59
   5   4  -6 3934.15 985.819  59
   5   4  -6 6538.14 1056.06  41
  -5   4   6 7271.66 981.197   6
   5   4  -6 7649.62 965.308  38
   5   4  -6 6572.60 777.151  39
   5   4  -6 6408.00 889.888  29
   5   4  -6 6039.09 822.575  30
   5   4  -6 5209.95 1383.68  20
   5   4  -6 7124.36 729.849  25
  -5   4   5 214.886 188.607   8
  -5   4   5 78.0924 167.903   6
   5   4  -5 256.195 254.381  41
   5   4  -5-145.459 337.736  59
   5   4  -5 116.889 162.229  39
   5   4  -5 348.303 254.166  38
   5   4  -5 207.783 192.237  30
   5   4  -5 296.111 234.253  29
   5   4  -5 286.223 151.509  26
   5   4  -5 242.224 153.327  25
  -5   4   4 540.747 263.368   2
  -5   4   4 314.568 229.057   6
   5   4  -4 794.591 402.669  55
   5   4  -4 534.703 424.033  59
   5   4  -4 377.335 246.965  39
   5   4  -4 243.705 225.603  38
   5   4  -4 476.272 272.942  30
   5   4  -4 627.055 323.803  29
   5   4  -4 473.346 230.581  31
   5   4  -4 439.286 220.996  26
   5   4  -4 397.455 208.163  25
  -5   4   3 31476.9 2202.62   2
  -5   4   3 34570.0 2207.12   6
   5   4  -3 33818.6 2834.18  55
   5   4  -3 36590.7 3128.74  59
   5   4  -3 33731.6 2256.72  38
   5   4  -3 35088.4 2081.01  39
   5   4  -3 36827.3 2200.68  29
   5   4  -3 34957.8 1935.48  26
   5   4  -3 33839.5 2143.35  31
   5   4  -3 29684.0 2042.44  30
   5   4  -3 39939.3 3745.77  20
   5   4  -3 34272.5 1932.02  25
  -5   4   2 14939.3 1458.93   2
  -5   4   2 16320.8 1467.90   6
   5   4  -2 18574.8 2074.57  55
   5   4  -2 15740.0 2097.77  59
   5   4  -2 17865.1 1461.88  39
   5   4  -2 18571.7 1498.12  29
   5   4  -2 18402.2 1375.08  26
   5   4  -2 19046.9 2561.60  20
   5   4  -2 17867.4 1376.06  25
  -5   4   1 29386.3 2091.49   2
  -5   4   1 26153.8 1899.22   6
   5   4  -1 33206.2 2806.01  55
   5   4  -1 29404.9 2161.92  38
   5   4  -1 33519.7 2052.15  39
   5   4  -1 30879.6 2908.97  59
   5   4  -1 32944.0 2004.47  29
   5   4  -1 31432.2 2071.09  31
   5   4  -1 30720.7 1860.70  26
   5   4  -1 26543.7 1942.81  30
   5   4  -1 30513.6 1872.25  25
  -5   4   0 10225.3 1167.56   2
  -5   4   0 7995.33 1037.66   6
   5   4   0 12556.9 1856.12  59
   5   4   0 11409.6 1291.36  38
   5   4   0 13842.9 1215.99  29
   5   4   0 10716.2 1176.21  31
   5   4   0 12307.4 1256.35  30
   5   4   0 10901.4 1082.24  26
   5   4   0 11979.9 1152.20  25
   5   4   1 9490.64 1023.15  25
   5   4   1 11155.1 1547.66  55
   5   4   1 10000.6 1183.38  38
   5   4   1 8705.73 971.980  26
   5   4   1 10405.5 1029.58  29
   5   4   1 9407.43 1080.57  31
   5   4   1 8213.58 1025.89  30
  -5   4  -1 7830.10 984.007   2
   5   4   2 2811.21 563.126   7
  -5   4  -2 3323.98 628.922   2
  -5   4  -2 2382.19 488.405   6
   5   4   2 4703.55 1101.91  59
   5   4   2 4162.10 930.665  55
  -5   4  -2 4089.65 672.009  18
   5   4   2 3795.35 737.676  38
   5   4   2 3246.57 656.033  39
   5   4   2 3599.67 526.826  33
   5   4   2 4135.31 618.922  29
   5   4   2 4380.57 701.926  26
   5   4   2 4162.14 685.210  31
   5   4   2 4351.21 735.445  30
   5   4   2 3757.63 665.113  25
  -5   4  -3 2639.78 550.902   6
  -5   4  -3 5531.83 823.792   5
   5   4   3 4804.28 1113.11  59
   5   4   3 5435.22 1064.91  55
  -5   4  -3 5192.08 776.723  18
   5   4   3 4922.58 634.432  33
   5   4   3 6171.51 910.140  38
   5   4   3 5530.77 801.084  39
   5   4   3 5833.87 711.627  29
   5   4   3 4869.62 749.409  26
   5   4   3 6000.16 832.110  31
   5   4   3 6063.10 835.678  30
   5   4   3 5036.79 751.518   7
   5   4   4 37012.3 3029.91  59
  -5   4  -4 37318.0 2254.14  18
  -5   4  -4 35063.2 2252.08   5
   5   4   4 41125.0 2323.04  38
   5   4   4 32561.5 1804.66  33
   5   4   4 35420.1 2118.60  39
   5   4   4 37477.1 2150.15  26
   5   4   4 39026.6 2163.03  30
   5   4   4 32529.9 2032.33   7
   5   4   5 12231.2 1209.28   7
   5   4   5 9149.56 1467.30  59
  -5   4  -5 13963.9 1359.07  18
  -5   4  -5 12762.0 1307.08   5
   5   4   5 15608.3 1320.30  38
   5   4   5 11615.6 1034.12  33
   5   4   5 13607.6 1247.95  39
   5   4   5 13595.1 1243.48  26
   5   4   5 13777.6 1180.99  30
   5   4   5 12383.3 1191.30  25
   5   4   6 6417.95 879.464   7
  -5   4  -6 7156.93 1003.60  59
   5   4   6 6046.59 1112.13  59
  -5   4  -6 11212.1 1215.72  18
  -5   4  -6 9808.71 1135.27   5
   5   4   6 12145.0 1110.09  38
   5   4   6 12030.5 1119.73  39
   5   4   6 10654.6 975.988  33
   5   4   6 11446.1 1120.42  26
   5   4   6 11189.2 988.024  30
   5   4   6 9592.78 1020.50  25
   5   4   7 14101.9 1259.76   7
  -5   4  -7 12990.5 1304.30  18
   5   4   7 14142.8 1098.39  38
   5   4   7 14389.6 1165.27  39
   5   4   7 12320.4 1047.46  33
   5   4   7 12632.1 1158.89  26
   5   4   7 14709.2 1028.60  30
   5   4   7 14578.6 1219.71  25
  -5   4  -8 4803.74 767.453  18
   5   4   8 5175.13 681.167  25
   5   4   8 4266.23 597.080  33
   5   4   8 6013.52 689.991  39
   5   4   8 4326.38 651.786  26
   5   4   8 4219.12 678.023   7
  -5   4  -9 2959.09 592.713  18
   5   4   9 2767.23 475.022  25
   5   4   9 2746.62 461.310  33
   5   4   9 2113.01 396.306  34
   5   4   9 3021.40 448.913  39
   5   4   9 2593.87 481.033  26
   5   4   9 2732.97 533.845   7
   5   4  10 2392.97 396.660  34
   5   4  10 2787.33 356.439  39
   5   4  10 2296.86 396.100  33
   5   4  10 2884.66 441.229  25
   5   4  10 2547.03 444.442  26
  -5   4 -10 2822.89 539.627  18
   5   4  11 6469.51 600.435  34
   5   4  11 6232.49 605.685  33
   5   4  11 7161.25 625.293  25
   5   4  11 6282.89 640.268  26
  -5   4 -11 7980.84 818.302  18
   5   4  12 11460.3 722.062  34
   5   4  12 11575.8 750.040  33
   5   4  12 12366.1 698.932  25
   5   4  12 11679.6 777.460  26
  -5   4 -12 12344.1 940.770  18
  -5   4 -13 3377.89 407.570  18
  -5   5  11 1657.46 265.669  39
  -5   5  11 2144.89 288.532  17
  -5   5  11 2028.97 294.585   7
   5   5 -11 2428.96 329.360  29
  -5   5  10 4071.97 444.971  17
  -5   5  10 3581.36 387.528   8
  -5   5  10 3622.46 454.056   7
   5   5 -10 3196.44 435.883  29
  -5   5   9 4877.52 535.439  17
  -5   5   9 4645.58 513.698   8
  -5   5   9 4870.79 584.146   7
   5   5  -9 5343.33 598.838  29
  -5   5   8 4483.17 541.228  17
   5   5  -8 4496.11 585.782  29
  -5   5   8 4495.37 547.990   8
  -5   5   8 5665.82 680.647   7
   5   5  -7 10870.2 895.169  38
  -5   5   7 14286.8 1012.18  17
   5   5  -7 14932.2 1108.10  29
   5   5  -7 15062.3 971.879  30
  -5   5   7 14473.1 1061.01   8
   5   5  -6 15078.7 1155.84  29
   5   5  -6 16192.4 1121.41  30
  -5   5   6 14080.6 1116.94   8
   5   5  -6 14624.2 1137.27  38
  -5   5   5 6380.97 890.048  59
   5   5  -5 7448.04 842.534  38
   5   5  -5 6180.97 748.695  29
   5   5  -5 6706.13 768.465  30
  -5   5   5 5617.61 760.741   7
  -5   5   5 5869.18 737.151   8
  -5   5   4 11234.2 971.775   6
  -5   5   4 13651.5 1343.66  59
   5   5  -4 10990.5 1523.60  59
   5   5  -4 14525.3 1249.34  38
   5   5  -4 14052.7 1026.57  39
   5   5  -4 14577.8 1134.62  29
   5   5  -4 13847.6 1153.82  30
  -5   5   4 11372.7 1106.72   7
  -5   5   4 13172.4 1133.38   8
  -5   5   3 7946.96 808.150   6
   5   5  -3 9990.94 1067.89  38
   5   5  -3 8957.51 866.675  39
  -5   5   3 10953.4 1234.52  59
   5   5  -3 7442.69 1285.14  59
   5   5  -3 8662.41 949.480  30
   5   5  -3 10011.5 928.505  29
  -5   5   3 8174.60 931.732   7
  -5   5   2 3322.82 597.945   7
   5   5  -2 4318.86 620.503  39
  -5   5   2 3629.37 719.539  59
   5   5  -2 3195.51 897.252  59
   5   5  -2 4055.21 579.205  29
   5   5  -2 3612.72 497.101  25
  -5   5   1 4813.43 694.219   8
  -5   5   1 4067.46 644.668   7
   5   5  -1 5249.75 801.887  38
   5   5  -1 5343.72 703.911  39
   5   5  -1 3235.29 888.214  59
   5   5  -1 5521.38 644.793  29
   5   5  -1 5158.65 745.022  30
   5   5  -1 4948.10 605.896  25
  -5   5   0 17582.6 1362.92   8
   5   5   0 19705.2 1554.49  38
   5   5   0 20823.2 1441.95  39
  -5   5   0 19302.2 1711.14  59
   5   5   0 21581.8 1243.08  29
   5   5   0 19958.1 1476.33  30
   5   5   0 21006.2 1306.46  25
  -5   5  -1 2752.70 512.152   8
  -5   5  -1 2124.53 426.917   7
  -5   5  -1 2579.63 615.636  59
   5   5   1 3013.41 559.521  30
   5   5   1 2996.37 487.983  25
   5   5   1 2986.87 591.733  38
   5   5   1 3150.46 562.026  39
  -5   5  -2 23016.6 1816.41  59
   5   5   2 20988.7 2148.03  59
   5   5   2 21572.1 1584.25  38
   5   5   2 20648.0 1458.77  30
   5   5   2 21534.4 1370.57  25
  -5   5  -3 6580.68 683.142  18
  -5   5  -3 8769.48 1059.21  59
   5   5   3 6546.01 1168.28  59
   5   5   3 8220.00 919.301  38
   5   5   3 7317.97 826.491  39
   5   5   3 8294.19 860.949  30
   5   5   3 7643.59 789.942  25
  -5   5  -4 15061.9 1103.70  18
  -5   5  -4 16470.6 1416.47  59
   5   5   4 18747.8 1316.17  38
   5   5   4 16156.4 1211.41  39
   5   5   4 18516.5 1227.41  30
   5   5   4 17154.7 1194.46  25
  -5   5  -5 2227.22 383.491   8
  -5   5  -5 2309.33 430.594  18
  -5   5  -5 1929.48 445.108  59
   5   5   5 2186.19 550.583  59
   5   5   5 3027.39 486.030  38
   5   5   5 2779.34 480.002  39
   5   5   5 2974.66 443.763  30
   5   5   5 2835.30 468.506  25
   5   5   6 4844.58 588.512  39
  -5   5  -6 3934.46 542.720  18
   5   5   6 4188.82 459.881  30
  -5   5  -7 7763.81 746.057  18
   5   5   7 9587.28 771.173  39
  -5   5  -8 10105.8 801.152  18
   5   5   8 9825.90 752.895  25
   5   5   8 11379.9 750.483  39
  -5   5  -9 8994.46 697.434  18
   5   5   9 9147.44 549.498  39
   5   5  10 6120.85 443.974  25
  -5   6   6 2597.71 285.139   8
   5   6  -4 717.087 178.050  30
   5   6  -4 742.920 195.626  38
  -5   6   4 513.395 157.367  38
  -5   6   4 643.001 169.716   8
   5   6  -3 9707.72 680.491  30
   5   6  -3 7883.94 649.181  38
  -5   6   3 8049.04 637.924  38
  -5   6   3 8436.85 613.331   8
  -5   6   2 13702.7 884.668  38
  -5   6   2 13661.7 787.545   8
   5   6  -1 17479.6 987.255  30
   5   6  -1 16493.7 1020.55  38
  -5   6   1 14782.5 944.652  38
   5   6  -1 15145.7 781.159  39
  -5   6   1 15346.7 830.569   8
   5   6   0 4619.21 483.806  30
   5   6   0 4704.27 532.760  38
   5   6   0 4785.71 439.872  39
  -5   6   0 3117.78 347.349   8
   5   6   1 1109.31 241.907  30
  -5   6  -1 1122.95 246.517  38
   5   6   1 901.605 246.150  38
   5   6   1 1086.53 225.780  39
   5   6   2 265.581 130.738  30
   5   6   2 340.637 133.470  39
   5   6   2 263.744 135.773  38
  -5   6  -2 278.593 118.869  38
  -5   6  -3 1142.14 206.512  38
   5   6   3 796.764 206.675  38
   6  -5  -8 7067.00 1115.83  32
   6  -5  -8 6348.39 910.914  36
   6  -5  -7 6430.98 1240.99  32
   6  -5  -7 4636.80 906.236  36
   6  -5  -6 14924.3 1999.54  32
   6  -5  -6 11443.5 1336.45  22
   6  -5  -6 11705.6 1494.43  36
   6  -5  -6 9463.92 1278.19  40
   6  -5  -5 17731.1 1992.10  22
   6  -5  -5 17825.7 2060.06  40
   6  -5  -4 7322.99 1396.76  22
   6  -5  -4 8163.80 1047.25  24
   6  -5  -4 10076.8 1632.20  40
   6  -5  -3 4701.57 694.375  56
   6  -5  -3 4597.91 745.996  57
   6  -5  -3 6142.71 946.642  27
   6  -5  -3 6804.45 1406.86  22
   6  -5  -3 5885.65 1005.84  24
   6  -5  -3 7957.37 1523.39  40
   6  -5  -2 1432.62 420.143  57
   6  -5  -2 2306.49 611.255  27
   6  -5  -2 1563.61 716.061  22
   6  -5  -2 2293.50 690.897  24
   6  -5  -2 2015.46 866.649  40
   6  -5  -1 2052.41 483.983  56
   6  -5  -1 3086.40 789.884  27
   6  -5  -1 3819.48 1103.75  22
   6  -5  -1 2882.75 793.014  24
   6  -5  -1 4407.48 1254.66  40
   6  -5   0 2403.00 521.105  56
   6  -5   0 2517.35 546.524  57
   6  -5   0 2673.10 775.782  24
   6  -5   0 3363.01 830.158  27
   6  -5   1 21610.1 1605.50  56
   6  -5   1 22748.2 1720.76  57
   6  -5   1 36675.5 2717.30  27
   6  -5   1 34022.3 2703.15  24
   6  -5   2 13157.6 1623.44  27
   6  -5   2 11585.9 1549.18  24
   6  -5   2 11187.1 1730.94  22
   6  -5   2 10741.9 1758.32  40
   6  -5   3 10345.3 1424.06  27
   6  -5   3 8410.59 1412.17  22
   6  -5   3 8547.62 1468.43  40
   6  -5   4 12559.5 1510.58  27
   6  -5   4 10735.3 1443.79  22
   6  -5   4 11939.6 1551.75  40
   6  -5   5 140.985 218.224  27
   6  -5   5 44.2338 190.168  24
   6  -5   6 1052.64 327.310  24
   6  -4 -12 972.191 281.302  20
   6  -4 -12 1077.49 358.002  36
   6  -4 -12 1044.65 314.654  37
   6  -4 -11 3797.77 914.155  32
   6  -4 -11 2463.59 555.795  20
   6  -4 -11 3241.25 778.420  36
   6  -4 -10 12719.9 1965.19  32
   6  -4 -10 7313.41 1020.64  20
   6  -4 -10 11433.4 1620.02  36
   6  -4  -9 18401.7 2577.21  32
   6  -4  -9 10795.4 1303.89  20
   6  -4  -9 15644.2 2025.81  36
   6  -4  -8 8392.64 1161.60  20
   6  -4  -8 9416.56 1421.80  22
   6  -4  -8 12627.1 1926.45  36
   6  -4  -8 10531.9 1533.76  40
   6  -4  -7 11405.7 1195.02  56
   6  -4  -7 20720.0 3125.90  32
   6  -4  -7 14326.6 1674.89  27
   6  -4  -7 18198.3 2366.65  22
   6  -4  -7 17585.0 2378.29  40
   6  -4  -6 5645.02 897.247  56
   6  -4  -6 6407.76 1012.30  57
   6  -4  -6 8735.94 1873.13  40
   6  -4  -6 10154.7 2285.44  32
   6  -4  -6 8625.62 1428.56  27
   6  -4  -6 6411.92 1210.33  24
   6  -4  -6 6603.49 1592.30  22
   6  -4  -5 803.279 415.598  56
   6  -4  -5 1521.69 862.403  40
   6  -4  -5 1397.37 506.510  57
   6  -4  -5 1621.71 697.736  27
   6  -4  -5 1925.55 944.998  22
   6  -4  -5 2393.75 780.207  24
   6  -4  -4 13802.9 2495.27  40
   6  -4  -4 9103.57 1236.38  56
   6  -4  -4 8821.77 1300.81  57
   6  -4  -4 14678.7 2078.62  27
   6  -4  -4 13096.3 1973.09  24
   6  -4  -4 12511.2 2345.00  22
   6  -4  -3 27005.3 3589.50  40
   6  -4  -3 18584.1 1830.69  56
   6  -4  -3 20676.7 2014.86  57
   6  -4  -3 31848.0 3152.37  27
   6  -4  -3 28367.6 3595.66  22
   6  -4  -3 26113.9 2863.00  24
   6  -4  -2 36102.8 3522.47  27
   6  -4  -2 30970.5 3924.96  40
   6  -4  -2 31707.6 3867.77  22
   6  -4  -2 30710.9 3252.61  24
   6  -4  -1 29851.7 3866.32  40
   6  -4  -1 38345.7 3611.22  27
   6  -4  -1 36692.8 4123.84  22
   6  -4  -1 32708.2 3367.46  24
   6  -4   0 11158.8 1464.59  56
   6  -4   0 12349.6 1606.84  57
   6  -4   0 13779.6 2675.60  40
  -6  -4   0 7228.97 929.875  11
   6  -4   0 16778.6 2402.70  24
   6  -4   1 425.510 353.985  57
   6  -4   1 847.495 670.439  24
   6  -4   1 493.231 319.173  56
   6  -4   2 2982.46 736.613  56
   6  -4   2 3307.78 811.509  57
   6  -4   2 3527.14 1358.09  40
   6  -4   2 3711.42 625.115  28
   6  -4   2 4513.13 1456.59  22
   6  -4   2 3110.95 1109.31  24
   6  -4   3 1815.07 582.186  56
   6  -4   3 2889.55 1176.08  40
   6  -4   3 2296.47 677.099  57
   6  -4   3 1571.82 449.548  28
   6  -4   3 3099.69 1172.53  22
   6  -4   4 10877.8 1183.43  10
   6  -4   4 13922.7 2385.96  40
   6  -4   4 11691.8 1301.44  56
   6  -4   4 10859.3 1339.39  57
   6  -4   4 10804.4 1156.54  28
   6  -4   4 14086.9 2317.48  22
   6  -4   4 14426.3 2118.23  24
   6  -4   5 11089.1 1154.91  10
   6  -4   5 10676.6 1147.94  56
   6  -4   5 11299.5 1256.59  57
   6  -4   5 10039.8 828.670  35
   6  -4   5 14295.6 2238.77  40
   6  -4   5 11710.7 1190.86  28
   6  -4   5 15010.6 2234.68  22
   6  -4   5 13700.6 1966.04  24
   6  -4   6 28004.4 1800.90  10
   6  -4   6 24709.8 1529.33  53
   6  -4   6 22105.9 1619.08  57
   6  -4   6 34467.2 3109.80  40
   6  -4   6 28070.2 1874.24  28
   6  -4   6 31966.2 2888.13  22
   6  -4   6 36481.8 3022.90  24
   6  -4   7 4996.11 630.448  53
   6  -4   7 4827.32 692.957  10
   6  -4   7 4896.33 734.321  28
   6  -4   8 5177.69 594.268  53
   6  -4   8 4971.35 656.792  10
   6  -4   8 4976.28 706.564  28
   6  -4   9 106.739 118.527  10
   6  -4   9 125.147 152.208  28
   6  -4  10 4504.33 502.584  10
   6  -4  10 4568.23 568.431  28
   6  -3 -14 6997.09 869.815  23
   6  -3 -14 7239.43 985.519  37
   6  -3 -14 8173.75 1151.88  36
   6  -3 -13 16160.3 1910.52  32
   6  -3 -13 12685.3 1329.22  23
   6  -3 -13 14355.3 1575.83  20
   6  -3 -13 13646.6 1524.41  37
   6  -3 -13 14559.1 1764.19  36
   6  -3 -12 14611.0 2174.97  32
   6  -3 -12 9709.21 1265.77  23
   6  -3 -12 12121.5 1580.04  20
   6  -3 -12 10752.5 1479.34  37
   6  -3 -12 11859.2 1786.83  36
   6  -3 -11 12409.3 2256.52  32
   6  -3 -11 7281.40 1179.46  23
   6  -3 -11 7808.13 1350.25  20
   6  -3 -11 10497.4 1808.31  36
   6  -3 -10 9674.96 2167.92  32
   6  -3 -10 6913.68 1190.21  23
   6  -3 -10 6120.30 1272.48  20
   6  -3 -10 9488.65 1798.44  36
   6  -3  -9 2836.97 832.262  27
   6  -3  -9 5574.06 1768.89  32
   6  -3  -9 2498.22 728.069  23
   6  -3  -9 3615.55 977.480  20
   6  -3  -9 3139.08 1165.77  36
   6  -3  -8 11085.9 1247.23  56
   6  -3  -8 22272.5 3571.72  32
   6  -3  -8 15919.3 2221.08  27
   6  -3  -8 14293.8 1969.71  20
   6  -3  -8 12648.7 1647.69  23
   6  -3  -8 17985.1 2573.65  22
   6  -3  -8 17661.8 2085.35  24
   6  -3  -8 15751.5 2491.63  40
   6  -3  -7 26215.1 2107.54  56
   6  -3  -7 24298.7 2131.80  57
   6  -3  -7 40108.5 4914.83  32
   6  -3  -7 32426.7 3353.38  27
   6  -3  -7 21659.0 2167.13  23
   6  -3  -7 21767.1 2445.47  20
   6  -3  -7 34099.2 3789.21  22
   6  -3  -7 29804.5 3004.99  24
   6  -3  -7 34923.5 4015.33  40
   6  -3  -6 16168.0 1729.83  56
   6  -3  -6 16567.8 1833.56  57
   6  -3  -6 23714.4 3477.22  40
   6  -3  -6 28887.3 3229.46  27
   6  -3  -6 19371.2 1959.62  23
   6  -3  -6 27150.4 3556.35  22
   6  -3  -6 13387.5 1870.66  20
   6  -3  -6 20850.3 2654.52  24
   6  -3  -5 19305.1 2884.61  42
   6  -3  -5 13642.5 1679.75  56
   6  -3  -5 16013.8 1882.24  57
   6  -3  -5 24717.4 3706.65  40
   6  -3  -5 26312.7 3175.64  27
   6  -3  -5 12728.0 1551.11  23
   6  -3  -5 20633.6 3146.91  21
   6  -3  -5 16550.7 1946.75  20
   6  -3  -5 22350.6 3373.76  22
   6  -3  -5 21361.8 2802.15  24
   6  -3  -4 19751.1 2971.38  42
   6  -3  -4 14544.6 1931.80  54
   6  -3  -4 15501.3 1803.28  56
   6  -3  -4 15878.7 1909.26  57
   6  -3  -4 22039.3 3501.33  40
   6  -3  -4 25583.3 3173.43  27
   6  -3  -4 19869.4 3221.10  21
   6  -3  -4 13203.7 1682.74  20
   6  -3  -4 21262.3 3422.00  22
   6  -3  -4 20277.5 2803.70  24
   6  -3  -3 888.876 637.037  42
   6  -3  -3 395.340 306.295  56
   6  -3  -3 718.740 420.722  54
   6  -3  -3 1014.75 554.681  57
   6  -3  -3 531.631 622.191  40
   6  -3  -3 862.797 717.600  27
   6  -3  -3 1456.66 852.287  21
   6  -3  -3 667.850 775.410  22
   6  -3  -3 969.739 638.389  24
   6  -3  -2 2533.94 1348.26  40
   6  -3  -2 1650.50 916.834  21
   6  -3  -2 1534.05 1037.00  22
   6  -3  -2 2383.07 1056.40  24
   6  -3  -2 2145.58 966.296  27
   6  -3  -2 1511.46 839.743  42
   6  -3  -1 1370.51 802.190  42
   6  -3  -1 608.247 428.455  56
   6  -3  -1 1392.52 593.314  54
   6  -3  -1 1343.03 642.045  57
   6  -3  -1 1393.53 437.295  35
   6  -3  -1 1641.84 1154.67  40
   6  -3  -1 1346.19 439.263  28
   6  -3  -1 2053.70 1032.65  27
   6  -3  -1 1163.55 772.274  21
   6  -3  -1 1030.31 999.884  22
   6  -3  -1 2541.34 1115.35  24
   6  -3   0 2418.31 747.544  56
   6  -3   0 2851.60 847.628  54
   6  -3   0 2823.03 846.660  57
   6  -3   0 2037.95 513.734  35
   6  -3   0 3268.64 1426.27  40
   6  -3   0 3223.08 718.377  28
   6  -3   0 2565.66 1126.97  24
  -6  -3  -1 40140.1 2428.92  11
   6  -3   1 55981.2 3303.65  10
   6  -3   1 62350.1 5596.58  42
   6  -3   1 58930.7 4065.65  54
   6  -3   1 55517.3 3650.95  56
   6  -3   1 62386.8 4004.10  57
   6  -3   1 56070.0 2791.79  35
   6  -3   1 65230.9 3461.25  28
   6  -3   1 78761.4 6500.06  21
   6  -3   1 73473.5 5629.03  24
   6  -3   2 21305.5 1915.48  10
   6  -3   2 23751.6 3285.21  42
   6  -3   2 20010.2 2259.42  54
   6  -3   2 20564.5 2094.70  56
   6  -3   2 22531.9 2318.96  57
   6  -3   2 19550.5 1569.95  35
   6  -3   2 30098.7 4153.07  40
   6  -3   2 18564.6 1851.91  28
   6  -3   2 30647.0 3887.12  21
   6  -3   2 33996.8 4248.03  22
   6  -3   3 11702.2 1388.60  10
   6  -3   3 13154.6 2418.03  42
   6  -3   3 11391.4 1649.54  54
   6  -3   3 10358.1 1122.44  35
   6  -3   3 16985.7 3113.23  40
   6  -3   3 11313.8 1512.85  56
   6  -3   3 12219.3 1646.09  57
   6  -3   3 10660.9 1401.32  28
   6  -3   3 14539.2 2629.24  21
   6  -3   3 15094.7 2809.11  22
   6  -3   3 12983.1 2277.77  24
   6  -3   4 21383.3 1874.01  10
   6  -3   4 18366.4 1848.04  56
   6  -3   4 21098.3 2104.91  57
   6  -3   4 14650.3 1327.69  35
   6  -3   4 23392.3 3483.06  40
   6  -3   4 18923.1 1876.45  28
   6  -3   4 21495.7 3236.86  22
   6  -3   4 18816.6 2740.23  24
   6  -3   5 234.728 260.664  10
   6  -3   5 337.459 279.303  57
   6  -3   5 647.892 338.852  56
   6  -3   5 435.819 212.286  16
   6  -3   5 256.843 203.312  35
   6  -3   5 1132.81 785.918  40
   6  -3   5 385.324 305.604  28
   6  -3   5 529.608 519.657  22
   6  -3   5 436.272 506.508  24
   6  -3   6 11082.2 1311.06  10
   6  -3   6 9418.84 1255.71  57
   6  -3   6 9617.59 1176.02  56
   6  -3   6 11283.1 1143.65  53
   6  -3   6 9220.12 999.534  16
   6  -3   6 8721.44 960.239  35
   6  -3   6 13509.5 2363.48  40
   6  -3   6 10043.3 1339.36  28
   6  -3   6 11465.0 2102.96  22
   6  -3   6 13652.2 2137.87  24
   6  -3   7 15884.0 1517.15  10
   6  -3   7 13764.0 1358.40  57
   6  -3   7 15410.8 1324.30  53
   6  -3   7 13441.6 1166.54  16
   6  -3   7 13052.9 1138.75  35
   6  -3   7 17144.5 2416.65  40
   6  -3   7 12967.1 1519.49  28
   6  -3   7 20943.2 2578.04  22
   6  -3   7 17755.9 2279.75  24
   6  -3   8 2804.80 495.378  35
   6  -3   8 3841.02 944.346  24
   6  -3   8 3173.15 572.705  53
   6  -3   8 2162.66 605.248  28
   6  -3   9 18080.7 1207.13  35
   6  -3   9 20072.7 1409.55  53
   6  -3   9 21936.0 1807.88  28
   6  -3  10 17954.7 1533.32  28
   6  -3  10 15981.4 1023.25  35
   6  -3  11 3669.94 403.970  35
  -6  -3 -11 3317.67 465.415   4
   6  -3  12 1648.03 332.653  10
  -6  -3 -12 1056.93 224.678   4
   6  -3  13 1306.50 258.624  28
   6  -3  13 1199.88 223.948  10
   6  -2 -16 11777.3 1148.15  20
   6  -2 -16 9829.01 959.528  23
   6  -2 -16 10980.0 1125.74  37
   6  -2 -16 13479.2 1352.78  36
   6  -2 -15 12000.6 1405.50  20
   6  -2 -15 11771.4 1250.92  23
   6  -2 -15 11777.0 1383.43  37
   6  -2 -15 12536.6 1605.40  36
   6  -2 -14 763.572 536.260  36
   6  -2 -14 538.538 393.238  37
   6  -2 -14 897.808 410.878  23
   6  -2 -14 797.977 443.137  32
   6  -2 -13 5949.33 1211.85  37
   6  -2 -13 5876.84 1363.89  36
   6  -2 -13 6868.50 1620.04  32
   6  -2 -12 3255.99 1107.72  36
   6  -2 -12 2952.90 920.527  37
   6  -2 -12 2557.82 906.413  20
   6  -2 -12 2883.58 801.632  27
   6  -2 -12 3682.37 1334.11  32
   6  -2 -11 9605.94 1689.05  37
   6  -2 -11 8669.01 1476.48  23
   6  -2 -11 10888.4 1825.09  20
   6  -2 -11 13242.7 2689.74  32
   6  -2 -11 8119.14 1529.47  27
   6  -2 -10 33923.0 3058.01  23
   6  -2 -10 38332.9 3552.32  20
   6  -2 -10 38098.2 3630.25  27
  -6  -2   9 37160.5 2839.40  13
   6  -2  -9 44600.9 4100.07  27
   6  -2  -9 36893.4 3184.91  23
   6  -2  -9 43848.1 3825.09  20
   6  -2  -9 44561.6 3641.47  24
   6  -2  -8 11886.0 1469.47  57
   6  -2  -8 14597.1 1520.77  56
   6  -2  -8 18383.8 2831.04  36
   6  -2  -8 19268.5 2945.68  40
   6  -2  -8 17804.8 3447.61  32
   6  -2  -8 15887.1 2488.90  27
   6  -2  -8 15131.5 2023.93  23
   6  -2  -8 12725.1 2054.67  20
   6  -2  -8 16696.3 2672.38  22
   6  -2  -8 16869.2 2357.40  24
   6  -2  -7 44810.2 4380.07  42
   6  -2  -7 36411.8 2912.74  54
   6  -2  -7 40672.7 2910.43  57
   6  -2  -7 39945.2 2771.96  56
   6  -2  -7 50227.2 4778.36  36
   6  -2  -7 58356.7 5472.16  40
   6  -2  -7 74203.3 6954.95  32
   6  -2  -7 51415.2 4615.14  27
   6  -2  -7 48771.7 4805.67  21
   6  -2  -7 37279.6 3205.85  23
   6  -2  -7 35285.3 3419.16  20
   6  -2  -7 57455.5 5233.90  22
   6  -2  -7 48019.4 4244.39  24
   6  -2  -6 3860.67 1282.67  42
   6  -2  -6 3335.80 810.988  56
   6  -2  -6 3939.83 927.037  54
   6  -2  -6 2928.54 809.199  57
   6  -2  -6 4465.88 1669.27  40
   6  -2  -6 5168.41 1502.39  27
   6  -2  -6 3228.83 934.870  23
   6  -2  -6 4526.50 1452.34  21
   6  -2  -6 3830.81 1399.41  22
   6  -2  -6 2992.65 917.365  20
   6  -2  -6 4782.42 1344.50  24
  -6  -2   5 4473.87 962.737  44
   6  -2  -5 9746.48 2094.60  42
   6  -2  -5 6524.25 1249.75  54
   6  -2  -5 5724.32 1131.61  56
   6  -2  -5 7741.07 1329.34  57
   6  -2  -5 10847.7 2498.68  40
   6  -2  -5 11658.4 2825.78  32
   6  -2  -5 8968.98 1965.53  27
   6  -2  -5 6558.13 1234.50  23
   6  -2  -5 9543.86 2237.84  21
   6  -2  -5 6532.86 1331.09  20
   6  -2  -5 9879.74 2331.04  22
   6  -2  -5 7538.37 1791.00  24
  -6  -2   4 16252.3 1874.29  44
   6  -2  -4 23993.5 3480.64  42
   6  -2  -4 17723.4 2175.90  54
   6  -2  -4 20485.7 2098.04  56
   6  -2  -4 21588.2 2262.22  57
   6  -2  -4 28168.1 4082.97  40
   6  -2  -4 21026.6 1589.62  33
   6  -2  -4 33628.8 4680.54  32
   6  -2  -4 34578.1 3851.18  27
   6  -2  -4 22789.0 1915.12  28
   6  -2  -4 23701.0 2294.97  23
   6  -2  -4 26004.0 3769.06  21
   6  -2  -4 23631.3 2418.96  20
   6  -2  -4 30649.4 4119.89  22
   6  -2  -4 28958.1 3504.15  24
  -6  -2   3 3113.54 676.430  46
   6  -2  -3 3967.37 1367.42  42
  -6  -2   3 2704.47 711.183  44
   6  -2  -3 2915.19 833.490  56
  -6  -2   3 3576.13 764.477  43
   6  -2  -3 3129.21 915.417  54
   6  -2  -3 3505.78 935.938  57
   6  -2  -3 3409.11 676.074  35
   6  -2  -3 5333.35 1827.26  40
   6  -2  -3 3928.09 672.443  33
   6  -2  -3 3915.42 1376.21  27
   6  -2  -3 5397.61 1944.84  32
   6  -2  -3 3811.99 770.760  28
   6  -2  -3 3126.46 794.597  23
   6  -2  -3 3220.62 827.588  20
   6  -2  -3 3432.02 1446.12  22
   6  -2  -3 4499.35 1410.79  24
   6  -2  -3 5156.19 1678.45  21
   6  -2  -2 21158.3 1695.71  35
   6  -2  -2 30403.6 4352.21  40
   6  -2  -2 19456.5 1490.26  33
   6  -2  -2 22177.3 2018.04  23
   6  -2  -2 26121.5 3812.45  21
   6  -2  -2 28183.9 4039.38  22
   6  -2  -2 25427.5 3280.78  24
   6  -2  -2 21020.6 1970.09  28
   6  -2  -2 36564.0 3968.23  27
  -6  -2   2 18779.7 1762.65  46
  -6  -2   2 17539.1 1811.90  44
  -6  -2   2 18499.8 1788.42  43
   6  -2  -2 25056.6 3596.65  42
  -6  -2   1 43600.3 2789.92  43
   6  -2  -1 52077.0 5220.10  42
   6  -2  -1 38059.0 3278.50  54
  -6  -2   1 43573.9 2817.91  46
   6  -2  -1 35576.1 2965.77  56
   6  -2  -1 37189.6 3156.11  57
   6  -2  -1 40650.7 2410.70  35
   6  -2  -1 54749.2 5882.99  40
   6  -2  -1 41008.3 2219.22  33
   6  -2  -1 50947.0 3119.07  28
   6  -2  -1 75302.6 5737.03  27
   6  -2  -1 57517.4 5779.11  22
   6  -2  -1 51304.3 5417.41  21
   6  -2  -1 61150.6 5157.76  24
  -6  -2   0 33343.9 2380.19  43
   6  -2   0 31100.1 2939.25  54
  -6  -2   0 29395.6 2329.44  46
   6  -2   0 27718.1 2545.78  56
   6  -2   0 33237.3 2898.60  57
   6  -2   0 31212.5 2070.15  35
   6  -2   0 31159.8 1863.00  33
   6  -2   0 33677.7 2591.22  28
  -6  -2  -1 25921.9 2082.02  43
   6  -2   1 33280.9 4095.43  42
   6  -2   1 28339.3 2780.85  54
  -6  -2  -1 26209.7 2204.93  46
   6  -2   1 27644.5 2514.56  56
   6  -2   1 30459.5 2759.04  57
   6  -2   1 26383.3 1918.81  35
   6  -2   1 25839.5 1658.25  33
   6  -2   1 40282.7 4421.53  32
   6  -2   1 26568.8 2327.15  28
   6  -2   1 37565.5 4575.20  21
   6  -2   2 21801.7 1968.45  10
   6  -2   2 23606.4 3422.01  42
   6  -2   2 23154.0 2473.73  54
   6  -2   2 21610.2 2191.65  56
   6  -2   2 24808.1 2466.44  57
   6  -2   2 19617.0 1641.40  35
   6  -2   2 29681.6 4216.12  40
   6  -2   2 20138.4 1431.11  33
   6  -2   2 25759.1 2295.63  28
   6  -2   2 31120.8 3744.01  32
   6  -2   2 29293.1 3965.90  21
   6  -2   2 25798.7 3830.19  22
   6  -2   2 25449.5 3319.90  24
   6  -2   3 24573.2 2103.81  10
   6  -2   3 27114.6 3613.55  42
   6  -2   3 22283.8 2390.35  54
   6  -2   3 20401.8 1611.21  53
   6  -2   3 24668.8 2271.90  56
   6  -2   3 25330.7 2439.83  57
   6  -2   3 22290.0 1747.37  35
   6  -2   3 37837.0 4656.52  40
   6  -2   3 22928.2 1753.24  34
   6  -2   3 19828.8 1399.48  33
   6  -2   3 22710.3 2181.84  28
   6  -2   3 29932.2 3982.80  21
   6  -2   3 32115.6 4154.99  22
   6  -2   3 29456.1 3520.42  24
   6  -2   4 37308.3 2595.28  10
   6  -2   4 44284.4 4572.61  42
   6  -2   4 42761.1 3248.64  54
   6  -2   4 35852.0 2203.70  53
   6  -2   4 42032.7 2931.31  56
   6  -2   4 43066.3 3136.11  57
   6  -2   4 33556.0 1841.49  33
   6  -2   4 35872.2 2267.97  35
   6  -2   4 55651.9 5626.09  40
   6  -2   4 33778.4 2183.26  34
   6  -2   4 38656.4 2915.12  28
   6  -2   4 54895.3 5285.92  21
   6  -2   4 53237.7 5266.16  22
   6  -2   4 51424.5 4646.90  24
   6  -2   5 11076.8 1373.64  10
   6  -2   5 14539.1 2441.74  42
   6  -2   5 9459.67 1428.08  54
   6  -2   5 9852.26 1121.70  53
   6  -2   5 12371.7 1578.74  57
   6  -2   5 8769.70 1266.72  56
   6  -2   5 7077.43 922.380  63
   6  -2   5 9385.06 875.933  33
   6  -2   5 9667.36 1106.80  35
   6  -2   5 17202.9 2964.70  40
   6  -2   5 9821.56 1117.52  34
   6  -2   5 11112.6 1542.65  28
   6  -2   5 14949.9 2606.19  21
   6  -2   5 16231.7 2783.75  22
   6  -2   5 17267.7 2565.01  24
   6  -2   6 38310.3 2602.82  10
   6  -2   6 37699.2 3832.92  42
   6  -2   6 36298.6 2246.43  53
   6  -2   6 39201.5 2752.24  57
   6  -2   6 36577.1 2514.53  56
   6  -2   6 28649.8 2045.12  63
   6  -2   6 34430.2 2165.99  35
   6  -2   6 49775.7 4877.13  40
   6  -2   6 32186.4 2084.90  34
   6  -2   6 37622.4 2862.14  28
   6  -2   6 53330.6 4746.16  21
   6  -2   6 54153.2 4849.64  22
   6  -2   6 48578.8 4176.24  24
   6  -2   7 13488.9 1468.16  10
   6  -2   7 12877.1 1444.49  57
   6  -2   7 10217.8 1187.94  63
   6  -2   7 12074.2 1265.45  56
   6  -2   7 13705.9 1316.29  53
   6  -2   7 11633.4 1201.13  35
   6  -2   7 11628.9 1176.85  34
   6  -2   7 17590.1 2668.80  40
   6  -2   7 13410.1 1672.16  28
   6  -2   7 15959.0 2432.19  22
   6  -2   7 18503.0 2352.16  24
   6  -2   8 4449.68 764.157  63
   6  -2   8 5034.71 790.376  53
  -6  -2  -8 3975.28 771.550   5
   6  -2   8 4500.73 729.274  35
   6  -2   8 4374.73 695.637  34
   6  -2   8 4831.04 870.400  10
   6  -2   8 5838.75 1211.38  24
   6  -2   9 1489.86 404.529  34
   6  -2   9 1044.19 343.306  35
   6  -2   9 1121.50 380.049  53
   6  -2   9 1394.92 414.620  63
   6  -2   9 1309.44 445.549  10
   6  -2  10 3623.74 667.525  63
   6  -2  10 6054.45 804.442  53
   6  -2  10 4762.52 674.392  35
   6  -2  10 5609.82 707.166  34
   6  -2  10 6321.03 1023.13  28
   6  -2  10 5922.79 867.689  10
   6  -2  11 5921.25 823.339  63
  -6  -2 -11 5802.46 694.812   4
   6  -2  11 6780.99 754.865  35
   6  -2  11 8089.31 1059.91  28
   6  -2  11 7871.87 933.044  10
   6  -2  12 24005.0 1593.62  63
   6  -2  12 26720.5 1549.36  53
   6  -2  12 24699.1 1385.61  35
  -6  -2 -12 22219.4 1257.62   4
   6  -2  12 29793.1 1884.13  28
   6  -2  12 26722.8 1600.71  10
   6  -2  13 9119.45 702.997  35
  -6  -2 -13 7330.90 585.330   4
   6  -2  13 10552.0 949.749  28
   6  -2  13 9621.79 809.935  10
   6  -2  14 8744.72 549.948  35
   6  -1 -17 7113.93 771.458  20
   6  -1 -17 8080.46 928.778  37
   6  -1 -16 1141.57 396.942  23
   6  -1 -16 1255.53 446.033  20
   6  -1 -16 2028.82 651.996  36
   6  -1 -16 1334.15 504.983  37
   6  -1 -15 3304.32 885.520  32
   6  -1 -15 2840.30 711.245  23
   6  -1 -15 2958.23 773.682  20
   6  -1 -15 2216.78 850.587  36
   6  -1 -15 3119.02 803.936  37
   6  -1 -14 18153.2 2012.34  27
   6  -1 -14 26127.6 3097.23  32
   6  -1 -14 19531.8 2234.48  20
   6  -1 -14 23731.3 2197.94  23
   6  -1 -14 22569.8 2397.10  37
   6  -1 -14 25615.2 2833.96  36
   6  -1 -13 13714.9 1978.67  27
   6  -1 -13 17700.6 2831.54  32
   6  -1 -13 13353.1 1764.32  23
   6  -1 -13 14108.8 2024.15  20
   6  -1 -13 14957.1 2041.04  37
   6  -1 -12 16113.6 2919.72  32
   6  -1 -12 12891.6 2062.18  27
   6  -1 -12 11398.1 1719.86  23
   6  -1 -12 12645.7 1964.61  37
   6  -1 -11 14198.5 1318.91  41
   6  -1 -11 20812.7 2573.64  37
   6  -1 -11 22803.4 3118.95  36
   6  -1 -11 28868.1 4116.14  32
   6  -1 -11 20238.7 2783.00  27
   6  -1 -11 20996.2 2432.84  23
   6  -1 -11 22922.2 2783.19  20
   6  -1 -10 13628.6 1315.69  41
  -6  -1  10 16554.1 1373.22   1
   6  -1 -10 19815.2 2551.41  37
   6  -1 -10 21201.1 3058.26  36
   6  -1 -10 25452.6 4053.99  32
   6  -1 -10 16018.3 2580.80  27
   6  -1 -10 19763.0 2612.09  20
   6  -1 -10 18737.8 2390.24  24
   6  -1  -9 1616.78 455.419  56
  -6  -1   9 1549.85 402.400   1
   6  -1  -9 1062.09 807.815  36
   6  -1  -9 1340.59 399.056  41
   6  -1  -9 2404.69 861.412  37
   6  -1  -9 2179.23 981.213  27
   6  -1  -9 1773.39 1339.76  32
   6  -1  -9 1147.21 620.381  23
   6  -1  -9 2213.94 925.718  20
   6  -1  -9 2552.06 914.861  24
   6  -1  -8 18171.4 1816.70  57
   6  -1  -8 16140.2 1605.43  56
   6  -1  -8 13937.7 1368.99  41
   6  -1  -8 17472.7 1823.18  54
  -6  -1   8 16818.9 1401.26   1
   6  -1  -8 19699.1 3084.62  40
   6  -1  -8 16164.4 2235.20  37
   6  -1  -8 22758.9 3144.85  36
   6  -1  -8 21021.5 3019.03  27
   6  -1  -8 16513.4 2204.11  23
   6  -1  -8 17047.4 2453.52  20
   6  -1  -8 23339.6 3168.12  22
   6  -1  -8 20716.6 2819.76  24
   6  -1  -7 4080.82 908.403  57
   6  -1  -7 5262.21 967.865  56
   6  -1  -7 3688.30 667.190  41
   6  -1  -7 4458.95 946.592  54
  -6  -1   7 3860.28 673.560   1
   6  -1  -7 5455.67 1582.20  36
   6  -1  -7 8640.97 2065.83  40
   6  -1  -7 4450.09 736.148  33
   6  -1  -7 6494.89 1696.12  27
   6  -1  -7 4647.68 850.939  28
   6  -1  -7 4814.80 1191.80  23
   6  -1  -7 6331.47 1697.12  21
   6  -1  -7 4766.23 1502.51  22
   6  -1  -7 4222.61 1238.65  20
   6  -1  -7 4669.58 1458.84  24
   6  -1  -6 34751.1 2733.86  57
   6  -1  -6 32788.5 2525.56  56
   6  -1  -6 26874.8 1923.47  41
   6  -1  -6 36469.1 4089.32  42
   6  -1  -6 31076.9 2708.75  54
  -6  -1   6 28830.5 1892.28   1
   6  -1  -6 48204.0 5141.45  40
   6  -1  -6 31800.3 2037.76  33
   6  -1  -6 40709.9 4150.87  36
   6  -1  -6 42075.6 4321.25  27
   6  -1  -6 30600.0 2365.78  28
   6  -1  -6 44272.7 4743.60  21
   6  -1  -6 29313.7 2933.13  23
   6  -1  -6 30781.3 3160.52  20
   6  -1  -6 49503.9 4961.09  22
   6  -1  -6 38106.5 3988.17  24
   6  -1  -5 23035.9 2257.86  57
   6  -1  -5 22250.7 2106.27  56
   6  -1  -5 15880.3 1440.56  41
   6  -1  -5 26878.9 3575.58  42
   6  -1  -5 21180.4 2257.29  54
   6  -1  -5 25192.4 3190.28  36
   6  -1  -5 27790.9 4010.32  40
   6  -1  -5 19838.4 1562.65  33
   6  -1  -5 29558.7 4394.66  32
   6  -1  -5 25460.0 3366.42  27
   6  -1  -5 19642.3 1915.68  28
   6  -1  -5 28797.4 3895.05  21
   6  -1  -5 21980.0 2403.69  23
   6  -1  -5 19677.1 2420.65  20
   6  -1  -5 27331.0 3799.24  22
   6  -1  -5 25285.9 3276.45  24
   6  -1  -4 60362.6 3821.31  57
   6  -1  -4 61122.8 3668.19  56
   6  -1  -4 63747.3 5624.09  42
   6  -1  -4 54456.7 3785.98  54
  -6  -1   4 47704.5 2595.46   2
   6  -1  -4 71296.4 5281.11  36
   6  -1  -4 59642.9 2933.66  35
   6  -1  -4 88252.2 7255.69  40
   6  -1  -4 56318.1 2787.11  33
   6  -1  -4 57877.2 2749.77  26
   6  -1  -4 89041.7 7456.24  32
   6  -1  -4 85950.0 6145.13  27
   6  -1  -4 59065.7 3434.27  28
   6  -1  -4 53656.8 3856.24  23
   6  -1  -4 78280.9 6522.21  21
   6  -1  -4 60533.2 4186.72  20
   6  -1  -4 78583.3 6580.32  22
   6  -1  -4 78057.1 5770.46  24
   6  -1  -3 4066.86 963.438  57
   6  -1  -3 4268.23 949.718  56
   6  -1  -3 4034.34 1438.50  42
   6  -1  -3 3014.87 870.998  54
  -6  -1   3 2477.06 592.831   2
   6  -1  -3 3634.00 663.968  35
   6  -1  -3 4545.89 1690.51  40
   6  -1  -3 3565.49 640.152  33
   6  -1  -3 5113.71 1842.98  32
   6  -1  -3 4116.64 656.234  26
   6  -1  -3 3606.05 842.780  28
   6  -1  -3 4768.14 1063.74  23
   6  -1  -3 4525.84 1020.05  20
   6  -1  -3 5756.23 1781.05  21
   6  -1  -3 7502.60 1803.67  24
   6  -1  -3 5997.82 1850.98  22
   6  -1  -2 3965.48 692.719  35
   6  -1  -2 4353.04 1686.64  40
   6  -1  -2 3502.18 635.203  33
   6  -1  -2 3910.67 920.702  23
   6  -1  -2 4316.38 1571.43  21
   6  -1  -2 4710.99 1672.63  22
   6  -1  -2 6685.74 1720.68  24
   6  -1  -2 4188.44 654.822  26
   6  -1  -2 6625.67 1888.35  32
   6  -1  -2 4770.80 955.628  28
   6  -1  -2 4336.61 1463.81  42
  -6  -1   2 4156.72 757.419  46
   6  -1  -1 3152.02 1265.84  42
   6  -1  -1 3508.10 883.135  56
   6  -1  -1 3286.22 932.652  54
  -6  -1   1 3817.90 744.210  46
   6  -1  -1 3429.85 914.522  57
   6  -1  -1 4169.96 668.772  33
   6  -1  -1 3881.29 696.098  35
   6  -1  -1 3823.06 1631.11  40
   6  -1  -1 4442.94 1502.74  32
   6  -1  -1 3658.26 592.740  26
   6  -1  -1 4104.30 912.284  28
   6  -1  -1 7521.34 1775.51  27
   6  -1  -1 4728.42 992.850  23
   6  -1  -1 3291.45 553.841  25
   6  -1  -1 5497.46 1756.03  21
   6  -1  -1 4389.95 1625.00  22
   6  -1  -1 3994.94 1340.40  24
   6  -1   0 53282.9 3137.85  10
   6  -1   0 51890.8 3746.84  54
  -6  -1   0 49173.8 2990.47  46
   6  -1   0 57827.7 3777.38  57
   6  -1   0 54121.7 3484.82  56
   6  -1   0 51213.7 2565.06  33
   6  -1   0 52933.8 2737.03  35
   6  -1   0 53695.9 2720.77  34
   6  -1   0 51580.6 2414.69  26
   6  -1   0 55592.7 3477.37  28
   6  -1   0 51327.9 3237.43  23
   6  -1   0 47826.8 2289.03  25
   6  -1   1 24825.4 2036.62  10
   6  -1   1 30495.2 3861.89  42
   6  -1   1 25459.3 2567.25  54
  -6  -1  -1 22341.8 1981.90  46
   6  -1   1 17839.2 1360.51  53
   6  -1   1 30141.0 2643.80  57
   6  -1   1 26964.0 2383.31  56
   6  -1   1 24605.8 1666.59  33
   6  -1   1 24460.6 1781.89  35
   6  -1   1 25014.5 1787.47  34
   6  -1   1 37733.2 4069.75  32
   6  -1   1 25317.8 1573.81  26
   6  -1   1 26637.9 2346.39  28
   6  -1   1 36847.1 3894.72  27
   6  -1   1 31355.9 4117.49  21
   6  -1   1 24036.1 1467.95  25
   6  -1   1 33057.2 3753.34  24
   6  -1   2 31548.1 2263.42  10
   6  -1   2 38338.0 4336.72  42
   6  -1   2 33336.1 2898.56  54
  -6  -1  -2 27874.6 2273.73  46
   6  -1   2 23001.8 1631.06  53
   6  -1   2 35966.3 2891.77  57
   6  -1   2 32178.6 2608.09  56
   6  -1   2 29524.7 1830.56  33
   6  -1   2 42081.0 5018.60  40
   6  -1   2 29004.1 1701.19  26
   6  -1   2 31241.3 2588.09  28
   6  -1   2 49975.4 4450.69  27
   6  -1   2 37752.4 4530.84  21
   6  -1   2 42641.7 4805.46  22
   6  -1   2 35584.7 3826.23  24
   6  -1   2 26942.9 1543.17  25
   6  -1   3 21162.4 1850.11  10
   6  -1   3 26489.3 3547.19  42
   6  -1   3 20398.6 2231.14  54
  -6  -1  -3 17956.3 1821.70  46
   6  -1   3 15977.4 1388.67  53
   6  -1   3 25200.3 2377.40  57
   6  -1   3 23935.0 2182.02  56
   6  -1   3 19955.9 1487.30  33
   6  -1   3 33183.7 4368.83  40
   6  -1   3 25516.6 2336.26  28
   6  -1   3 26972.8 3264.14  27
   6  -1   3 25614.9 3688.03  21
   6  -1   3 28291.5 3903.06  22
   6  -1   3 22011.7 3012.36  24
   6  -1   4 8530.01 1159.05  10
   6  -1   4 7967.96 1328.08  57
   6  -1   4 8224.90 1248.02  56
   6  -1   4 5320.51 858.961  63
   6  -1   4 7153.86 1781.27  42
   6  -1   4 7834.13 1341.53  54
  -6  -1  -4 6733.09 1084.18  46
   6  -1   4 6061.23 851.902  53
   6  -1   4 6734.56 834.754  33
   6  -1   4 7543.18 2111.22  40
   6  -1   4 6118.59 901.812  34
   6  -1   4 8340.11 1326.88  28
   6  -1   4 8949.12 1817.16  27
   6  -1   4 10776.5 2281.58  21
   6  -1   4 8558.91 2120.58  22
   6  -1   4 9025.31 1881.46  24
   6  -1   5 5857.52 969.359  10
   6  -1   5 6193.44 1122.41  57
   6  -1   5 5688.36 1014.45  56
   6  -1   5 7375.20 1227.40  54
   6  -1   5 5614.84 824.162  53
  -6  -1  -5 5319.76 892.862   5
   6  -1   5 4972.95 710.921  33
   6  -1   5 7150.25 1978.63  40
   6  -1   5 5784.36 861.874  34
   6  -1   5 7968.21 1661.49  27
   6  -1   5 8761.79 2004.60  21
   6  -1   5 6980.76 1632.74  24
   6  -1   5 7376.60 1887.81  22
   6  -1   6 3920.20 794.018  10
   6  -1   6 3885.92 859.000  57
   6  -1   6 3502.50 747.758  56
   6  -1   6 2738.57 680.499  63
   6  -1   6 2540.11 691.640  54
   6  -1   6 5032.93 801.425  53
  -6  -1  -6 3218.61 694.981   5
   6  -1   6 2639.63 526.598  33
   6  -1   6 3030.96 637.243  35
   6  -1   6 4707.91 1485.75  40
   6  -1   6 3629.64 694.110  34
   6  -1   6 5793.16 1336.96  27
   6  -1   6 5326.47 1518.18  21
   6  -1   6 4785.76 1421.55  22
   6  -1   6 4951.39 1269.59  24
   6  -1   7 5641.96 927.487  10
   6  -1   7 4711.54 819.517  56
   6  -1   7 5867.23 985.365  57
   6  -1   7 3172.46 737.706  63
   6  -1   7 4873.94 805.063  53
  -6  -1  -7 4874.37 871.127   5
   6  -1   7 8992.67 1945.38  40
   6  -1   7 5112.32 825.394  35
   6  -1   7 4438.87 650.356  33
   6  -1   7 4552.54 782.413  34
   6  -1   7 4345.73 963.742  28
   6  -1   7 8483.01 1530.90  27
   6  -1   7 6451.58 1601.99  22
   6  -1   7 6913.11 1414.11  24
   6  -1   8 20009.5 1773.76  10
   6  -1   8 17254.4 1709.50  63
   6  -1   8 23701.8 1790.74  53
  -6  -1  -8 21358.1 1820.75   5
   6  -1   8 26517.4 3156.08  40
   6  -1   8 21645.8 1700.82  35
   6  -1   8 19963.9 1358.79  33
   6  -1   8 19117.7 1584.45  34
   6  -1   8 21183.4 2089.74  28
   6  -1   8 27890.3 3035.38  22
   6  -1   9 21532.9 1878.19  63
   6  -1   9 24186.5 1813.69  53
  -6  -1  -9 21849.9 1439.52   4
  -6  -1  -9 22952.5 1840.36   5
   6  -1   9 22033.6 1699.84  35
   6  -1   9 21684.9 1360.22  33
   6  -1   9 22222.4 1662.80  34
   6  -1   9 25448.0 2233.84  28
   6  -1   9 20729.8 1733.40  10
   6  -1  10 23539.8 1927.86  63
   6  -1  10 27722.4 1892.10  53
   6  -1  10 23367.9 1316.08  33
   6  -1  10 23089.0 1681.02  35
   6  -1  10 24474.5 1674.63  34
   6  -1  10 23246.0 1776.11  10
   6  -1  10 28275.2 2233.87  28
  -6  -1 -10 24053.3 1453.47   4
  -6  -1 -11 14064.3 1023.19   4
   6  -1  11 14281.1 1436.67  63
   6  -1  11 12946.1 1182.42  35
   6  -1  11 15303.4 1229.79  34
   6  -1  11 14332.5 1275.82  10
   6  -1  11 17678.3 1634.29  28
   6  -1  12 3625.35 584.839  35
   6  -1  12 3953.65 567.636  34
   6  -1  12 4038.41 601.104  10
   6  -1  12 4192.55 729.067  28
   6  -1  13 1713.94 386.266  28
   6  -1  13 1577.41 352.624  35
   6  -1  13 1716.55 333.317  34
   6  -1  14 8991.83 604.289  34
   6  -1  14 9955.46 749.106  35
   6  -1  15 2563.43 308.110  35
  -6  -1 -15 14.7147 112.757   3
   6   0 -17 16868.2 1445.53  37
   6   0 -17 14289.2 1221.74  20
   6   0 -16 14428.7 1572.77  37
   6   0 -16 9803.17 843.403  41
   6   0 -16 10207.9 1111.89  23
   6   0 -16 13843.9 1500.19  20
   6   0 -15 2368.17 644.490  23
   6   0 -15 2810.58 810.267  20
   6   0 -15 3199.06 871.518  37
   6   0 -15 2394.00 482.882  41
   6   0 -15 2969.91 934.117  32
  -6   0  15 2703.36 377.746   9
   6   0 -14 3621.99 667.444  41
   6   0 -14 4241.45 1066.92  37
   6   0 -14 5218.48 1155.06  20
   6   0 -14 3918.74 910.920  23
   6   0 -14 4493.09 1198.42  27
   6   0 -14 5319.97 1527.14  32
   6   0 -13 3631.34 1207.23  36
   6   0 -13 1998.11 528.567  41
   6   0 -13 2300.78 860.756  37
   6   0 -13 2965.98 862.722  23
   6   0 -13 3136.84 1020.76  20
   6   0 -13 2556.31 1000.58  27
   6   0 -13 3605.83 1387.49  32
   6   0 -12 2514.58 1113.20  36
   6   0 -12 2300.68 605.129  41
   6   0 -12 2388.01 913.290  37
   6   0 -12 2926.53 1126.44  27
   6   0 -12 3311.57 1453.89  32
   6   0 -12 2589.42 865.370  23
   6   0 -12 2169.02 900.560  20
   6   0 -11 10926.0 1344.78  41
  -6   0  11 15004.9 1359.70   1
   6   0 -11 15791.0 2248.09  37
   6   0 -11 17777.3 2806.04  36
   6   0 -11 16351.5 2660.00  27
   6   0 -11 15511.7 2138.24  23
   6   0 -11 13133.1 2024.92  24
   6   0 -10 10781.6 1364.84  41
  -6   0  10 12705.6 1259.14   1
   6   0 -10 12071.8 2007.85  37
   6   0 -10 16389.4 2673.20  36
   6   0 -10 15437.1 3133.00  32
   6   0 -10 14134.3 2524.68  27
   6   0 -10 10542.2 1363.49  28
   6   0 -10 14308.3 2069.42  23
   6   0 -10 15220.2 2319.95  24
   6   0  -9 24255.1 1893.75  56
   6   0  -9 27700.2 2197.81  41
  -6   0   9 31387.6 2047.09   1
   6   0  -9 26557.0 2934.78  37
   6   0  -9 39406.1 4126.92  36
   6   0  -9 38904.6 5151.81  32
   6   0  -9 33820.9 3963.15  27
   6   0  -9 22202.8 2127.57  28
   6   0  -9 27568.0 3199.00  20
   6   0  -9 23837.2 2747.99  23
   6   0  -9 34881.9 3746.45  24
   6   0  -8 8706.72 1170.41  56
   6   0  -8 8030.86 1158.34  41
   6   0  -8 8255.23 1223.12  54
  -6   0   8 4303.45 696.932   6
  -6   0   8 10500.0 1154.89   1
   6   0  -8 13099.9 2470.71  40
   6   0  -8 9627.13 1042.23  33
   6   0  -8 8557.31 1558.28  37
   6   0  -8 11611.6 2221.57  36
   6   0  -8 8143.64 824.997  29
   6   0  -8 14465.6 3118.75  32
   6   0  -8 10410.2 2225.80  27
   6   0  -8 9131.18 1330.41  28
   6   0  -8 9575.16 2118.27  21
   6   0  -8 8229.86 1707.06  20
   6   0  -8 14376.3 2433.76  22
   6   0  -8 10540.9 2072.94  24
   6   0  -7 18303.2 1746.30  56
   6   0  -7 15962.3 1640.15  41
   6   0  -7 18088.4 1894.12  54
  -6   0   7 17760.7 1521.41   1
  -6   0   7 10728.4 1166.39   6
   6   0  -7 23215.0 3540.32  40
   6   0  -7 17065.8 1418.97  33
   6   0  -7 14579.2 1985.49  37
   6   0  -7 21886.6 2960.73  36
   6   0  -7 15749.2 1202.21  29
   6   0  -7 20494.3 3043.42  27
   6   0  -7 17171.2 1890.37  28
   6   0  -7 20580.6 3170.73  21
   6   0  -7 15519.4 2328.51  20
   6   0  -7 21081.2 3193.09  22
   6   0  -7 19604.8 2883.05  24
   6   0  -6 9292.60 1289.45  56
   6   0  -6 7418.38 1100.65  41
   6   0  -6 7993.81 1340.88  54
  -6   0   6 7344.83 923.355   2
   6   0  -6 10203.7 2412.24  40
   6   0  -6 6627.74 1287.59  37
   6   0  -6 7980.93 970.037  33
   6   0  -6 10065.2 1901.42  36
   6   0  -6 7265.31 838.108  29
   6   0  -6 8615.09 1077.44  26
   6   0  -6 11512.9 2744.96  32
   6   0  -6 8868.05 2052.79  27
   6   0  -6 8381.41 1302.80  28
   6   0  -6 12807.0 2503.15  21
   6   0  -6 9279.54 1688.27  20
   6   0  -6 7186.17 1478.62  23
   6   0  -6 10819.5 2322.32  22
   6   0  -6 10040.4 2091.76  24
   6   0  -5 1837.28 639.249  57
   6   0  -5 1229.77 510.404  56
   6   0  -5 1498.63 598.311  54
  -6   0   5 1016.06 366.743   2
   6   0  -5 1412.21 687.885  36
   6   0  -5 1017.17 417.237  41
   6   0  -5 2467.89 1237.76  40
   6   0  -5 1380.52 414.450  30
   6   0  -5 1211.51 521.451  28
   6   0  -5 1042.83 369.583  33
   6   0  -5 1079.37 332.785  29
   6   0  -5 1328.05 1053.25  32
   6   0  -5 1627.46 705.571  23
   6   0  -5 1240.88 410.933  26
   6   0  -5 2259.93 1097.54  21
   6   0  -5 1023.91 364.829  25
   6   0  -5 1767.15 711.974  20
   6   0  -5 1577.13 998.318  22
   6   0  -5 1190.33 804.494  24
   6   0  -4 57065.5 3626.31  57
   6   0  -4 48865.3 3163.46  56
   6   0  -4 44067.4 2807.81  41
   6   0  -4 54256.7 3662.87  54
  -6   0   4 45819.1 2600.75   2
   6   0  -4 49166.8 2481.95  35
   6   0  -4 72009.1 6534.64  40
   6   0  -4 50689.4 4160.05  36
   6   0  -4 49133.5 2406.50  29
   6   0  -4 57619.1 5959.18  32
   6   0  -4 47657.2 2584.18  26
   6   0  -4 53937.8 3422.81  28
   6   0  -4 48778.5 2543.47  30
   6   0  -4 52520.4 3956.44  20
   6   0  -4 73260.7 6325.62  21
   6   0  -4 51897.2 3851.42  23
   6   0  -4 50177.5 2512.48  25
   6   0  -4 68104.3 6026.67  22
   6   0  -4 68735.9 5553.02  24
   6   0  -3 18170.3 1891.41  56
   6   0  -3 21830.9 2181.52  57
   6   0  -3 17376.2 1670.73  41
   6   0  -3 15857.5 1966.48  54
  -6   0   3 18403.2 1639.72   2
   6   0  -3 19856.8 1490.50  35
   6   0  -3 24474.4 3826.08  40
   6   0  -3 19096.2 2364.01  36
   6   0  -3 18843.7 1430.09  29
   6   0  -3 20858.7 3447.97  32
   6   0  -3 19795.4 1555.96  26
   6   0  -3 27060.6 3389.73  27
   6   0  -3 23752.4 2196.06  28
   6   0  -3 17897.1 1471.68  30
   6   0  -3 19165.3 2234.54  20
   6   0  -3 26079.2 3787.38  21
   6   0  -3 19635.1 2289.67  23
   6   0  -3 18639.2 1436.70  25
   6   0  -3 23849.5 3603.36  22
   6   0  -3 24157.3 3250.93  24
   6   0  -2 16739.4 1634.29  41
  -6   0   2 13854.2 1408.20  46
  -6   0   2 16158.9 1523.14   2
   6   0  -2 18624.1 1450.58  35
   6   0  -2 17394.0 1431.80  33
   6   0  -2 16992.7 1354.56  34
   6   0  -2 24123.7 3826.99  40
   6   0  -2 18783.1 1432.37  29
   6   0  -2 19712.3 3244.96  32
   6   0  -2 29858.1 3443.19  27
   6   0  -2 18729.9 1483.69  26
   6   0  -2 20876.7 2069.38  28
   6   0  -2 18816.0 2074.25  20
   6   0  -2 17994.2 2144.98  23
   6   0  -2 20954.6 3411.89  21
   6   0  -2 18795.8 1405.33  25
   6   0  -2 22886.5 3547.16  22
   6   0  -2 21926.0 3068.29  24
   6   0  -1 17019.1 1840.95  56
   6   0  -1 16358.4 1958.61  57
   6   0  -1 16542.4 2011.81  54
  -6   0   1 15950.4 1543.88  46
   6   0  -1 17287.9 1410.41  35
   6   0  -1 17434.6 1419.04  33
   6   0  -1 24744.5 3851.51  40
   6   0  -1 18614.8 1434.25  34
   6   0  -1 20650.2 1512.37  29
   6   0  -1 22573.9 3288.95  32
   6   0  -1 25427.8 3150.98  27
   6   0  -1 17027.9 1435.94  30
   6   0  -1 18175.5 1958.19  28
   6   0  -1 19395.4 1500.63  26
   6   0  -1 16628.6 2010.39  23
   6   0  -1 22847.9 3544.26  21
   6   0  -1 22291.3 3485.53  22
   6   0  -1 16734.4 1315.63  25
   6   0   0 35117.3 2701.39  56
   6   0   0 35119.8 2880.24  57
   6   0   0 33798.3 2889.74  54
  -6   0   0 29926.1 2212.82  46
  -6   0   0 34895.2 1978.46   5
   6   0   0 31838.7 1983.50  35
   6   0   0 33055.8 2010.80  33
   6   0   0 32430.0 2004.96  34
   6   0   0 33171.2 2022.96  26
   6   0   0 39594.5 2174.63  29
   6   0   0 37786.8 4177.76  32
   6   0   0 44209.8 4151.07  27
   6   0   0 31383.2 2021.53  30
   6   0   0 38729.4 2874.31  28
   6   0   0 31867.7 2775.54  23
   6   0   0 32818.3 1874.84  25
   6   0   0 37266.3 4010.16  24
   6   0   1 15733.1 1756.08  56
   6   0   1 17873.4 2019.73  57
   6   0   1 12604.8 1054.03  53
   6   0   1 15192.8 1910.48  54
  -6   0  -1 12777.6 1448.36  46
  -6   0  -1 13581.4 1251.89   5
   6   0   1 14546.8 1314.45  35
   6   0   1 14144.7 1268.95  33
   6   0   1 15465.9 1341.96  34
   6   0   1 13655.1 1258.48  26
   6   0   1 16990.9 2622.43  32
   6   0   1 19872.1 2703.70  27
   6   0   1 14284.9 1297.47  30
   6   0   1 16925.2 1868.59  28
   6   0   1 15865.5 1879.10  23
   6   0   1 20032.1 3339.46  21
   6   0   1 19982.0 3304.09  22
   6   0   1 15214.6 1201.08  25
   6   0   1 15481.8 2507.30  24
   6   0   2 14983.0 1445.91  10
   6   0   2 20654.3 2138.44  57
   6   0   2 18602.3 1900.69  56
   6   0   2 13107.5 1142.73  53
   6   0   2 17438.7 2028.70  54
  -6   0  -2 12578.0 1490.83  46
  -6   0  -2 15691.0 1407.75   5
   6   0   2 17061.8 1431.42  35
   6   0   2 20657.1 3539.98  40
   6   0   2 16352.6 1370.57  33
   6   0   2 15440.7 1362.85  34
   6   0   2 16911.6 1382.96  26
   6   0   2 16699.7 1410.55  30
   6   0   2 16245.0 2403.47  27
   6   0   2 16396.9 1821.57  23
   6   0   2 22096.9 3462.88  21
   6   0   2 21356.6 3411.50  22
   6   0   2 15520.4 2540.97  24
   6   0   2 14880.9 1177.09  25
   6   0   3 24241.6 1840.54  10
   6   0   3 29393.2 2578.99  57
   6   0   3 25989.4 2245.24  56
   6   0   3 19414.3 1501.35  53
   6   0   3 28512.2 2604.80  54
  -6   0  -3 21633.9 1985.16  46
  -6   0  -3 24815.4 1840.18   5
   6   0   3 24394.9 1767.58  35
   6   0   3 32398.5 4345.64  40
   6   0   3 23810.0 1696.83  33
   6   0   3 23962.5 1771.24  34
   6   0   3 24825.9 1708.42  26
   6   0   3 26932.7 1789.87  30
   6   0   3 29450.1 3093.69  27
   6   0   3 22726.3 2129.70  23
   6   0   3 34187.4 4316.28  21
   6   0   3 31470.0 4074.66  22
   6   0   3 28093.7 3393.48  24
   6   0   3 25734.1 1538.24  25
   6   0   4 9516.79 1198.53   9
   6   0   4 10627.6 1189.87  10
   6   0   4 11943.5 1475.58  56
   6   0   4 12540.0 1685.13  54
   6   0   4 8367.92 985.414  53
  -6   0  -4 9957.44 1175.96   5
   6   0   4 9590.80 1049.45  33
   6   0   4 12413.2 2697.54  40
   6   0   4 9959.30 1124.90  35
   6   0   4 9771.91 1117.15  34
   6   0   4 9026.34 1010.20  26
   6   0   4 14342.6 2072.81  27
   6   0   4 9452.09 1441.97  28
   6   0   4 11544.8 2380.71  21
   6   0   4 10153.2 916.825  25
   6   0   4 12944.8 2602.62  22
   6   0   4 13953.6 2262.30  24
   6   0   5 4987.12 856.257   9
   6   0   5 5517.39 841.428  10
   6   0   5 5809.88 1008.42  56
   6   0   5 5389.58 814.546  53
   6   0   5 7032.10 1182.67  54
   6   0   5 7359.89 1868.15  21
   6   0   5 9277.97 2087.16  22
   6   0   5 8204.71 1655.99  24
   6   0   5 5058.62 762.578  33
   6   0   5 4994.12 800.465  35
   6   0   5 7630.10 2082.32  40
   6   0   5 5638.09 843.416  34
   6   0   5 6028.94 812.154  26
   6   0   5 7204.28 1401.29  27
   6   0   5 6002.83 1149.08  28
  -6   0  -5 4994.20 856.889   5
  -6   0  -6 44931.2 2703.65   5
   6   0   6 42898.6 2476.63  53
   6   0   6 48371.2 2931.50  56
   6   0   6 42739.9 2982.83  54
   6   0   6 53494.8 5107.31  21
   6   0   6 55619.5 5057.45  22
   6   0   6 51862.9 4126.11  24
   6   0   6 39681.4 2268.44  33
   6   0   6 57964.3 5461.31  40
   6   0   6 41524.9 2459.34  35
   6   0   6 41958.6 2293.16  26
   6   0   6 41862.3 3092.15  28
   6   0   6 44212.5 2673.60   9
   6   0   6 43764.5 2514.76  10
  -6   0  -7 17575.5 1650.98   5
   6   0   7 18538.2 1577.51  53
   6   0   7 16620.1 1552.95  56
   6   0   7 23051.2 3018.84  22
   6   0   7 22753.9 2506.01  24
   6   0   7 15165.6 1330.59  33
   6   0   7 21091.6 3082.53  40
   6   0   7 16106.0 1466.38  35
   6   0   7 15807.7 1329.34  26
   6   0   7 16772.9 1870.54  28
   6   0   7 16879.2 1476.11  10
   6   0   7 18551.6 1692.43   9
  -6   0  -8 11188.8 1290.36   5
   6   0   8 11150.1 1240.91  53
   6   0   8 14076.0 2129.21  22
   6   0   8 10490.6 1165.70  34
   6   0   8 9970.92 1028.78  33
   6   0   8 14325.5 2295.69  40
   6   0   8 9122.28 1087.38  35
   6   0   8 10567.5 1048.30  26
   6   0   8 11053.8 1463.82  28
   6   0   8 9208.11 1032.62  10
   6   0   8 9495.68 1197.13   9
   6   0   9 5662.66 872.738  53
   6   0   9 5539.20 759.800  10
   6   0   9 5832.77 907.916   9
   6   0   9 5750.15 744.858  26
   6   0   9 5890.85 1037.47  28
  -6   0  -9 6677.33 996.112   5
   6   0   9 5917.92 767.797  33
   6   0   9 5638.20 842.877  35
   6   0   9 6226.74 882.743  34
   6   0  10 3577.16 700.635   9
   6   0  10 4745.84 643.848  26
   6   0  10 4586.81 856.416  28
  -6   0 -10 4077.17 770.287   5
   6   0  10 4572.42 648.723  33
   6   0  10 4134.35 712.894  35
   6   0  10 4949.63 756.499  34
   6   0  11 19617.2 1255.39  26
   6   0  11 23413.5 1795.58  28
   6   0  11 18752.1 1561.57   9
   6   0  11 19635.6 1299.69  33
   6   0  11 21803.7 1544.70  34
   6   0  12 13850.0 1265.13   9
   6   0  12 14518.2 945.052  26
   6   0  12 16174.1 1230.20  34
   6   0  12 15079.7 1011.64  33
   6   0  13 3240.51 383.743  33
   6   0  13 3716.61 537.476  34
   6   0  13 2872.42 513.173   9
   6   0  14 11345.1 807.670  34
   6   0  14 10025.9 853.861   9
   6   0  15 2774.18 317.322  34
  -6   0 -15 921.109 258.889   3
   6   1 -17 3782.12 446.944  41
   6   1 -16 1248.98 426.601  20
  -6   1  16 1203.05 251.316   9
   6   1 -16 856.162 285.596  41
   6   1 -16 820.514 408.506  37
   6   1 -15 1720.91 454.569  41
   6   1 -15 2197.21 715.935  37
   6   1 -15 2562.15 849.106  32
   6   1 -15 2281.03 541.365  23
   6   1 -15 2982.55 769.398  20
   6   1 -14 22650.8 2343.51  37
   6   1 -14 19861.9 1959.06  23
   6   1 -14 21656.9 2332.08  20
   6   1 -14 25964.7 2862.80  27
   6   1 -14 25922.1 3213.43  32
   6   1 -14 16588.7 1538.12  41
   6   1 -13 13395.2 1916.92  37
   6   1 -13 13017.4 1708.09  23
   6   1 -13 13632.4 2001.04  20
   6   1 -13 14850.3 2382.02  27
   6   1 -13 14399.1 2634.25  32
   6   1 -13 9721.54 1240.60  41
   6   1 -12 11930.8 1884.07  37
   6   1 -12 19489.5 2728.75  36
   6   1 -12 13541.1 1858.56  23
   6   1 -12 13286.7 2056.78  20
   6   1 -12 12770.9 2305.12  27
   6   1 -12 19462.2 3255.43  32
   6   1 -12 8951.35 1258.60  41
   6   1 -11 20558.1 2547.58  37
   6   1 -11 29421.7 3408.64  36
   6   1 -11 21376.7 2433.11  23
   6   1 -11 20074.6 2734.07  24
   6   1 -11 21674.5 2732.42  20
   6   1 -11 22420.7 3206.22  27
   6   1 -11 29089.0 4187.08  32
   6   1 -11 16537.0 1757.93  41
   6   1 -10 15900.5 1746.81  41
   6   1 -10 19117.5 2379.61  23
   6   1 -10 17897.6 2708.12  24
   6   1 -10 17564.1 1264.82  29
   6   1 -10 20916.5 3128.17  27
   6   1 -10 25348.4 4014.54  32
  -6   1  10 18087.8 1537.22   1
  -6   1  10 15944.4 1343.21   6
   6   1 -10 17482.8 2325.60  37
   6   1 -10 22733.2 3044.61  36
   6   1  -9 1290.89 667.841  23
   6   1  -9 2591.20 969.991  22
   6   1  -9 1691.65 884.968  24
   6   1  -9 2271.23 1006.55  36
   6   1  -9 1492.09 543.144  41
   6   1  -9 2304.46 981.337  40
   6   1  -9 91.7404 702.404  37
   6   1  -9 2300.50 1070.98  27
   6   1  -9 967.180 494.097  28
   6   1  -9 1278.71 364.195  29
   6   1  -9 3142.80 1580.03  32
  -6   1   9 1555.97 469.445   6
  -6   1   9 1241.27 409.470   1
   6   1  -8 15837.2 1755.85  41
   6   1  -8 12512.3 2187.61  20
   6   1  -8 16485.6 2262.28  23
   6   1  -8 19479.0 3005.70  24
   6   1  -8 20307.7 3023.83  22
   6   1  -8 20383.8 3190.80  40
   6   1  -8 17294.2 1371.49  33
   6   1  -8 14170.3 2007.86  37
   6   1  -8 19806.3 2787.41  36
   6   1  -8 16935.2 1339.00  29
   6   1  -8 17454.4 2895.93  27
   6   1  -8 14776.8 1878.84  28
   6   1  -8 16728.2 1298.47  30
  -6   1   8 15125.4 1439.40   6
  -6   1   8 18422.0 1556.21   1
   6   1  -7 5595.98 1047.49  41
   6   1  -7 6183.08 1389.22  23
   6   1  -7 4995.60 760.707  25
   6   1  -7 7360.56 1887.11  21
   6   1  -7 4583.19 1300.09  20
   6   1  -7 7172.48 1801.23  22
   6   1  -7 5071.31 1567.02  24
   6   1  -7 5342.33 1167.49  37
   6   1  -7 5527.24 1814.99  40
   6   1  -7 4799.42 716.371  33
   6   1  -7 6212.25 1499.00  36
   6   1  -7 4460.68 699.294  29
   6   1  -7 4139.49 775.271  26
   6   1  -7 4792.36 1077.64  28
   6   1  -7 4966.54 733.262  30
  -6   1   7 5804.88 807.018   2
  -6   1   7 4001.63 745.505   6
  -6   1   7 4923.55 800.117   1
   6   1  -6 32806.7 2451.23  56
   6   1  -6 31693.4 2506.94  41
   6   1  -6 29941.1 2604.52  54
   6   1  -6 30948.4 3121.13  23
   6   1  -6 41316.1 4595.94  22
   6   1  -6 34723.6 4090.44  24
   6   1  -6 26577.2 3036.88  20
   6   1  -6 38482.5 4588.81  21
   6   1  -6 40190.5 4814.18  40
   6   1  -6 30990.0 2790.07  37
   6   1  -6 31381.5 1908.35  33
   6   1  -6 26419.1 3048.16  36
   6   1  -6 28110.1 1833.09  29
   6   1  -6 35451.4 4789.43  32
   6   1  -6 31492.9 2111.80  26
   6   1  -6 32082.8 3938.51  27
   6   1  -6 27138.0 2569.98  28
   6   1  -6 28159.7 1856.69  30
  -6   1   6 29758.0 2012.62   2
   6   1  -5 18783.2 1895.84  56
   6   1  -5 17523.5 1853.72  41
   6   1  -5 19743.7 2111.32  54
   6   1  -5 23649.0 3654.59  21
   6   1  -5 20856.6 3367.36  22
   6   1  -5 22112.3 3247.67  24
   6   1  -5 19631.9 2469.00  20
   6   1  -5 23764.8 3803.70  40
   6   1  -5 15926.4 2193.36  36
   6   1  -5 18332.8 1466.87  33
   6   1  -5 19687.3 1506.58  29
   6   1  -5 19315.1 3536.71  32
   6   1  -5 17614.7 2832.12  27
   6   1  -5 20884.9 1679.28  26
   6   1  -5 20957.2 2172.24  28
   6   1  -5 19223.0 1510.91  30
  -6   1   5 19200.1 1621.41   2
   6   1  -4 61712.6 3600.57  56
   6   1  -4 58511.0 3488.62  41
   6   1  -4 60825.9 3907.26  54
   6   1  -4 78886.0 6775.10  21
   6   1  -4 60090.9 4344.59  23
   6   1  -4 71111.1 6268.96  22
   6   1  -4 61743.7 2845.12  25
   6   1  -4 71918.8 5850.22  24
   6   1  -4 64488.4 4544.54  20
   6   1  -4 56548.7 2745.22  33
   6   1  -4 84679.2 7258.50  40
   6   1  -4 56710.6 2797.48  29
   6   1  -4 58428.7 6019.00  32
   6   1  -4 67333.7 5499.44  27
   6   1  -4 62638.4 3051.76  26
   6   1  -4 63786.9 3912.09  28
   6   1  -4 54179.6 2770.86  30
  -6   1   4 61850.1 3141.63   2
   6   1  -3 4294.53 905.261  41
   6   1  -3 3363.55 824.919  56
   6   1  -3 4746.87 1065.75  54
   6   1  -3 3692.25 1061.12  23
   6   1  -3 4714.23 1594.51  21
   6   1  -3 4612.91 702.475  25
   6   1  -3 4256.23 1070.47  20
   6   1  -3 5498.42 1780.75  22
   6   1  -3 5100.65 1588.77  24
   6   1  -3 3988.47 584.288  35
   6   1  -3 3928.28 660.502  33
   6   1  -3 6986.33 2097.58  40
   6   1  -3 3016.80 1170.41  27
   6   1  -3 4059.33 687.328  29
   6   1  -3 4610.73 1559.61  32
   6   1  -3 4857.78 1033.95  28
   6   1  -3 4309.35 740.628  26
   6   1  -3 3476.67 649.011  30
  -6   1   3 3662.30 740.934   2
   6   1  -2 3768.26 861.741  41
   6   1  -2 4134.25 1114.25  23
   6   1  -2 4925.68 1721.23  21
   6   1  -2 3585.53 633.028  25
   6   1  -2 4198.55 1589.66  22
   6   1  -2 5302.23 1148.78  20
   6   1  -2 4579.98 617.360  35
   6   1  -2 4361.27 698.920  33
   6   1  -2 5139.09 1861.97  40
   6   1  -2 3918.02 575.340  34
   6   1  -2 4975.56 782.447  39
   6   1  -2 3868.20 1240.14  27
   6   1  -2 4026.88 683.240  29
   6   1  -2 5137.21 1596.22  32
   6   1  -2 3827.56 942.956  28
   6   1  -2 4459.20 746.290  26
  -6   1   2 4120.06 796.806   2
   6   1  -1 2407.36 708.794  56
   6   1  -1 2656.18 808.777  54
   6   1  -1 2176.20 793.142  23
   6   1  -1 3175.09 1419.82  21
   6   1  -1 3253.49 583.455  25
   6   1  -1 4033.20 956.177  20
   6   1  -1 3705.09 1449.14  22
   6   1  -1 2685.79 1156.03  24
   6   1  -1 3084.82 523.777  35
   6   1  -1 2540.14 546.991  33
   6   1  -1 2672.28 1422.43  40
   6   1  -1 2755.55 565.517  39
   6   1  -1 2390.08 455.945  34
   6   1  -1 2723.20 584.731  26
   6   1  -1 3585.93 1149.86  27
   6   1  -1 3996.41 1351.04  32
   6   1  -1 2332.69 529.454  30
  -6   1   1 2918.65 675.751   2
   6   1   0 56843.6 3464.61  56
   6   1   0 52115.9 3653.79  54
   6   1   0 55983.4 3980.20  23
   6   1   0 54240.3 2569.91  25
   6   1   0 51880.1 4832.71  24
   6   1   0 51458.1 2441.00  35
   6   1   0 51078.1 2607.08  33
   6   1   0 49277.7 2589.66  39
   6   1   0 49205.8 2428.19  34
   6   1   0 55883.6 2827.52  26
   6   1   0 64454.2 5403.15  32
   6   1   0 51455.6 4381.68  27
   6   1   0 52193.9 2680.01  30
  -6   1   0 56108.3 3073.83   2
   6   1   1 30387.8 2483.60  56
   6   1   1 29223.7 2651.55  54
   6   1   1 29578.2 4123.15  21
   6   1   1 23481.4 2531.98  23
   6   1   1 25856.0 1697.92  25
   6   1   1 29888.2 4107.82  22
   6   1   1 25161.6 3310.64  24
   6   1   1 24897.2 1642.23  35
   6   1   1 30847.2 4415.31  40
   6   1   1 25282.2 1729.94  39
   6   1   1 26407.1 1734.91  34
   6   1   1 30336.8 1934.85  29
   6   1   1 25915.3 1851.24  26
   6   1   1 23555.7 2832.30  27
   6   1   1 29642.2 2571.54  28
   6   1   1 27336.5 1843.16  30
  -6   1  -1 25117.4 1712.11   5
  -6   1  -1 24414.8 2000.17   2
   6   1   2 33157.0 2574.80  56
   6   1   2 33040.9 2814.05  54
   6   1   2 34072.2 4453.76  21
   6   1   2 27716.4 2708.91  23
   6   1   2 29551.8 1807.13  25
   6   1   2 32804.2 4278.61  22
   6   1   2 29922.9 3535.97  24
   6   1   2 30464.7 1870.11  35
   6   1   2 36429.6 4770.21  40
   6   1   2 28824.5 1850.07  39
   6   1   2 28689.8 1855.85  34
   6   1   2 33314.3 2037.51  29
   6   1   2 30002.8 3028.02  27
   6   1   2 30835.4 2050.01  26
   6   1   2 31016.8 2621.84  28
   6   1   2 30828.2 1966.31  30
  -6   1  -2 28340.0 1904.58   5
  -6   1  -2 29293.8 2199.21   2
   6   1   3 25020.0 2181.51  56
   6   1   3 24604.0 2411.56  54
   6   1   3 19115.7 2197.75  23
   6   1   3 27917.3 3989.09  21
   6   1   3 20305.7 1460.14  25
   6   1   3 28897.8 3950.28  22
   6   1   3 23266.1 2949.24  24
   6   1   3 18963.7 1552.37  33
   6   1   3 28356.4 4147.41  40
   6   1   3 18929.1 1472.77  35
   6   1   3 20082.7 1493.24  39
   6   1   3 21424.7 1607.18  34
   6   1   3 21282.4 1675.71  26
   6   1   3 21387.1 1599.27  30
   6   1   3 23416.7 2238.81  28
  -6   1  -3 20078.0 1633.15   5
   6   1   4 8791.69 1270.37  56
   6   1   4 9847.06 1510.20  54
   6   1   4 9803.59 2245.54  21
   6   1   4 12817.6 2489.20  22
   6   1   4 6574.04 797.538  25
   6   1   4 8253.41 1702.67  24
   6   1   4 6639.09 909.336  34
   6   1   4 6580.59 899.725  33
   6   1   4 13537.6 2800.59  40
   6   1   4 7260.98 908.764  35
   6   1   4 7636.26 881.360  39
   6   1   4 8891.84 1075.19  26
   6   1   4 8019.02 936.062  30
   6   1   4 6658.41 1201.76  28
  -6   1  -4 7334.74 1001.45   5
  -6   1  -5 4812.64 844.351   5
   6   1   5 6668.79 1072.45  56
   6   1   5 6003.96 1155.58  54
   6   1   5 5250.64 808.568  34
   6   1   5 4797.46 763.346  33
   6   1   5 5427.95 792.704  35
   6   1   5 7970.09 2086.43  40
   6   1   5 5803.24 734.835  39
   6   1   5 7637.48 1938.09  21
   6   1   5 5228.39 700.608  25
   6   1   5 8464.21 1644.45  24
   6   1   5 6545.59 1831.18  22
   6   1   5 4788.82 807.247  26
   6   1   5 5998.11 817.565  30
   6   1   5 5010.80 1017.19  28
   6   1   5 5470.51 837.504   9
  -6   1  -6 3081.66 675.181   5
   6   1   6 3225.53 655.946  34
   6   1   6 2808.37 582.421  35
   6   1   6 2464.67 547.585  33
   6   1   6 5215.76 1618.83  40
   6   1   6 3887.84 576.457  39
   6   1   6 3157.36 526.097  25
   6   1   6 4415.79 1371.63  22
   6   1   6 4002.95 1061.22  24
   6   1   6 2855.61 754.562  28
   6   1   6 3454.42 673.570  26
   6   1   6 3425.59 584.741  30
   6   1   6 3105.65 641.859   9
  -6   1  -7 4684.10 832.492   5
   6   1   7 4727.83 779.953  34
   6   1   7 3187.02 631.931  35
   6   1   7 4946.79 1470.33  40
   6   1   7 4213.00 717.509  33
   6   1   7 4764.42 618.370  25
   6   1   7 5163.19 1401.21  22
   6   1   7 4242.77 901.423  28
   6   1   7 4562.46 768.609  26
   6   1   7 4920.34 800.600   9
   6   1   8 20322.0 1642.57   9
   6   1   8 19036.9 1822.07  28
   6   1   8 21285.8 1630.89  26
  -6   1  -8 22915.0 1866.42   5
   6   1   8 19266.5 1591.98  34
   6   1   8 19566.8 1564.17  35
   6   1   8 19537.0 1537.04  33
   6   1   9 17604.3 1509.21   9
   6   1   9 22268.1 1855.22  28
   6   1   9 21224.2 1599.31  26
  -6   1  -9 24224.9 1898.15   5
  -6   1  -9 21927.4 1756.56   3
   6   1   9 19047.1 1512.40  35
   6   1   9 20700.2 1540.78  33
   6   1  10 21023.0 1603.13   9
   6   1  10 23752.7 1624.23  26
  -6   1 -10 23212.3 1811.96   5
  -6   1 -10 23515.8 1799.36   3
   6   1  10 20627.7 1540.21  35
   6   1  10 22798.7 1567.14  33
   6   1  11 12164.2 1139.84   9
   6   1  11 12554.3 1114.38  26
  -6   1 -11 12647.9 1275.15   3
   6   1  11 14559.8 1248.50  34
   6   1  11 11963.3 1101.59  35
   6   1  11 13927.4 1135.35  33
   6   1  12 3938.39 600.671   9
   6   1  12 4023.21 578.413  26
  -6   1 -12 3634.38 654.186   3
   6   1  12 4876.53 667.670  34
   6   1  12 4243.07 570.705  33
   6   1  12 3944.67 590.867  35
   6   1  13 1063.09 283.837   9
   6   1  13 1585.64 316.216  26
  -6   1 -13 853.012 302.158   3
   6   1  13 1389.73 296.257  33
   6   1  13 1518.51 336.838  35
   6   1  13 1776.86 387.730  34
  -6   1 -14 3905.96 590.365  18
   6   1  14 10060.5 750.772  35
   6   1  14 9736.32 642.231  33
   6   1  14 10300.4 787.786  34
  -6   1 -14 4810.38 601.467   3
   6   1  14 10189.4 649.122  26
   6   1  15 2251.70 284.891  35
   6   1  15 2407.97 303.332  34
   6   2 -16 5825.35 667.610  41
  -6   2  16 10197.1 674.694   9
   6   2 -15 9996.71 986.080  41
   6   2 -15 12412.7 1375.42  20
  -6   2  14 1019.11 205.852  17
   6   2 -14 888.362 330.590  41
   6   2 -14 493.160 519.684  32
   6   2 -14 1082.30 341.725  23
   6   2 -14 832.093 466.910  20
   6   2 -13 3537.53 744.734  41
   6   2 -13 5043.88 1100.18  37
  -6   2  13 4321.90 523.624  17
   6   2 -13 5849.60 1622.51  32
   6   2 -13 4652.44 878.871  23
   6   2 -13 5120.39 1151.88  20
   6   2 -12 3861.98 918.271  23
   6   2 -12 3633.25 1018.44  20
  -6   2  12 2422.97 456.836  17
   6   2 -12 2728.68 664.320  41
   6   2 -12 3043.59 887.882  37
   6   2 -12 4028.76 1279.12  27
   6   2 -12 4391.45 1584.83  32
  -6   2  12 2871.78 477.994   6
  -6   2  11 10002.4 1023.57   6
   6   2 -11 9564.42 1294.05  41
   6   2 -11 8647.02 1460.63  23
   6   2 -11 11282.9 1882.96  20
   6   2 -11 8642.08 1551.71  37
   6   2 -11 10137.6 933.517  29
   6   2 -11 12177.4 2299.20  27
   6   2 -11 15281.0 2918.07  32
  -6   2  11 6063.51 731.254   7
  -6   2  10 33688.4 2029.93   6
   6   2 -10 28891.1 2396.46  41
   6   2 -10 28677.2 2842.55  23
   6   2 -10 30423.7 3274.10  20
   6   2 -10 31885.0 3044.79  37
   6   2 -10 33166.0 1858.41  29
   6   2 -10 41827.7 4410.15  27
   6   2 -10 46044.9 5208.82  32
  -6   2  10 21258.5 1610.15   7
   6   2  -9 31446.8 3076.72  23
   6   2  -9 36310.9 3766.16  22
   6   2  -9 31764.3 3841.30  24
   6   2  -9 27068.2 2800.84  37
   6   2  -9 32792.0 2576.87  41
   6   2  -9 34510.4 2006.00  29
   6   2  -9 32563.0 1759.80  30
  -6   2   9 31459.9 2066.52   1
  -6   2   9 33513.1 2142.65   6
   6   2  -8 10010.7 1752.64  23
   6   2  -8 12135.2 1122.92  25
   6   2  -8 12052.1 2440.27  24
   6   2  -8 15551.3 2608.78  22
   6   2  -8 10217.4 1660.03  37
   6   2  -8 12419.8 1584.27  41
   6   2  -8 10794.5 1119.83  29
   6   2  -8 13587.9 2583.48  27
   6   2  -8 8637.76 1513.58  28
   6   2  -8 12198.9 1088.53  30
  -6   2   8 11666.5 1206.46   2
  -6   2   8 12967.0 1331.96   6
  -6   2   8 11680.7 1215.24   1
   6   2  -7 33255.7 3277.51  23
   6   2  -7 44316.8 4683.58  22
   6   2  -7 39867.8 2162.66  25
   6   2  -7 41109.0 4566.61  24
   6   2  -7 31677.6 3459.85  20
   6   2  -7 47936.5 5205.08  40
   6   2  -7 36583.4 3098.86  37
   6   2  -7 35562.0 1873.38  33
   6   2  -7 36619.7 2790.44  41
   6   2  -7 35663.3 2146.27  29
   6   2  -7 37920.8 2355.55  26
   6   2  -7 41083.1 4465.11  27
   6   2  -7 46763.2 5444.79  32
   6   2  -7 28411.8 2700.02  28
   6   2  -7 39502.0 2146.23  30
  -6   2   7 36704.2 2239.36   1
  -6   2   7 33874.5 2229.17   2
  -6   2   7 33557.2 2313.77   6
   6   2  -6 3066.13 1039.54  23
   6   2  -6 3829.53 652.995  25
   6   2  -6 2544.60 1022.16  20
   6   2  -6 4724.23 1613.40  22
   6   2  -6 3946.41 1485.23  24
   6   2  -6 3937.01 1441.02  27
   6   2  -6 3177.45 917.242  28
   6   2  -6 3811.98 678.782  29
   6   2  -6 4624.48 799.991  26
   6   2  -6 3430.64 1534.83  32
   6   2  -6 3922.97 675.999  30
  -6   2   6 3861.27 735.082   2
  -6   2   6 2569.81 685.115   6
  -6   2   6 3590.02 667.399   1
   6   2  -6 5654.58 1119.25  37
   6   2  -6 4726.48 1778.07  40
   6   2  -6 4087.93 609.451  33
   6   2  -5 5001.34 1269.13  23
   6   2  -5 5862.25 819.602  25
   6   2  -5 6600.35 1924.89  22
   6   2  -5 7001.28 1559.27  20
   6   2  -5 5014.67 1670.03  24
   6   2  -5 7087.86 1810.25  27
   6   2  -5 5748.07 844.653  29
   6   2  -5 6503.91 2066.29  32
   6   2  -5 7083.74 994.097  26
   6   2  -5 5464.56 1183.42  28
   6   2  -5 5694.67 823.332  30
  -6   2   5 5914.71 915.923   2
  -6   2   5 4615.16 886.459   6
   6   2  -5 10081.9 2545.50  40
   6   2  -5 5909.38 845.901  39
   6   2  -5 6361.42 789.744  33
   6   2  -4 21222.9 2653.28  23
   6   2  -4 25334.5 3803.38  22
   6   2  -4 24620.2 1701.49  25
   6   2  -4 26273.1 3625.91  24
   6   2  -4 22083.2 2705.43  20
   6   2  -4 24341.2 3759.02  32
   6   2  -4 23518.3 3237.29  27
   6   2  -4 21830.1 1665.05  31
   6   2  -4 21815.6 1679.09  30
  -6   2   4 20582.7 1791.07   2
   6   2  -4 22660.1 1549.58  33
   6   2  -4 21350.8 1799.23  38
   6   2  -4 28772.2 4329.44  40
   6   2  -4 22507.3 1706.43  39
   6   2  -3 3792.96 1080.93  20
   6   2  -3 4338.73 1697.40  22
   6   2  -3 3511.14 1207.58  27
   6   2  -3 4232.36 1487.34  32
   6   2  -3 3731.70 683.337  31
   6   2  -3 3096.00 621.263  30
  -6   2   3 3429.61 728.498   2
   6   2  -3 3057.29 685.435  38
   6   2  -3 3520.84 614.528  33
   6   2  -3 4986.82 1853.87  40
   6   2  -2 26132.1 3895.25  22
   6   2  -2 21430.1 2534.11  20
   6   2  -2 21280.3 3268.89  24
   6   2  -2 23303.2 1723.69  29
   6   2  -2 27340.8 3686.46  32
   6   2  -2 20958.6 2801.35  27
   6   2  -2 22042.1 2277.49  28
  -6   2   2 21916.5 1854.14   2
   6   2  -2 19634.9 1495.12  33
   6   2  -2 25197.3 4150.32  40
   6   2  -2 21085.0 1637.77  39
   6   2  -1 41204.5 3635.60  23
   6   2  -1 37666.6 4761.29  22
   6   2  -1 38236.6 2205.60  25
   6   2  -1 37131.7 3293.78  20
   6   2  -1 36897.4 4267.71  24
   6   2  -1 43506.8 2384.26  29
   6   2  -1 37223.5 4268.11  32
   6   2  -1 26642.1 3167.21  27
   6   2  -1 37348.4 2243.02  31
   6   2  -1 37520.0 3001.73  28
   6   2  -1 35780.7 2236.59  30
  -6   2   1 41383.8 2612.30   2
   6   2  -1 38548.7 2460.25  38
   6   2  -1 42482.0 5395.76  40
   6   2  -1 38763.3 2169.77  33
   6   2  -1 39324.7 2281.25  39
   6   2   0 41070.7 2295.74  29
   6   2   0 41519.2 4158.57  32
   6   2   0 24725.7 2859.52  27
   6   2   0 32540.1 2075.65  31
   6   2   0 33504.5 2772.58  28
   6   2   0 32713.9 2106.78  30
   6   2   0 36014.2 3360.28  23
   6   2   0 35940.6 2106.26  25
   6   2   0 34510.1 3005.69  20
   6   2   0 29280.5 3752.84  24
   6   2   0 33576.1 2268.82  38
   6   2   0 32737.6 2016.31  33
   6   2   0 32961.6 2084.21  39
   6   2   1 30264.1 1959.97  29
   6   2   1 27317.7 1965.90  26
   6   2   1 28923.8 1933.15  31
   6   2   1 26680.7 2444.74  28
   6   2   1 26751.8 1876.81  30
   6   2   1 29732.3 3027.88  23
   6   2   1 30771.9 4266.21  22
   6   2   1 27637.9 1828.46  25
   6   2   1 27895.8 2583.00  20
   6   2   1 26166.8 3444.17  24
   6   2   1 26388.7 2001.96  38
   6   2   1 31165.9 4620.41  40
   6   2   1 27402.5 1861.22  39
   6   2   1 25600.2 1601.51  34
   6   2   1 27670.0 1837.17  33
   6   2   2 18757.5 2396.46  23
   6   2   2 23745.0 3697.08  22
   6   2   2 20589.5 1568.72  25
   6   2   2 23081.6 3154.85  24
   6   2   2 21128.0 1791.72  38
   6   2   2 19862.1 1563.90  33
   6   2   2 29834.6 4405.62  40
   6   2   2 20320.5 1577.97  39
   6   2   2 19502.6 1424.64  34
   6   2   2 25640.0 1764.25  29
   6   2   2 21764.5 1743.32  26
   6   2   2 19900.5 1582.51  31
   6   2   2 20128.7 2077.01  28
   6   2   2 22627.5 1681.49  30
  -6   2  -2 21884.3 1874.90   2
  -6   2  -2 17470.9 1485.64   5
   6   2   3 24714.1 3695.72  22
   6   2   3 19085.6 1490.30  25
   6   2   3 20928.3 2880.02  24
   6   2   3 20895.1 1519.97  34
   6   2   3 19946.8 1600.82  33
   6   2   3 27099.5 4178.58  40
   6   2   3 19296.9 1529.93  39
  -6   2  -3 19296.2 1604.79  18
   6   2   3 27275.4 1797.36  29
   6   2   3 23046.0 1827.06  26
   6   2   3 18558.1 1957.40  28
   6   2   3 23479.6 1705.22  30
  -6   2  -3 18763.7 1731.05   2
  -6   2  -3 18804.1 1586.91   5
   6   2   4 39279.3 4579.13  22
   6   2   4 34245.2 2010.70  25
   6   2   4 33614.9 3485.57  24
   6   2   4 32062.7 1983.85  34
   6   2   4 34909.7 2132.05  33
   6   2   4 33585.1 2011.75  39
  -6   2  -4 33824.2 2228.02  18
   6   2   4 34809.1 2251.47  26
   6   2   4 29641.3 2469.16  28
   6   2   4 36667.3 2097.55  30
  -6   2  -4 29331.2 2204.60   2
  -6   2  -4 32026.9 2157.20   5
   6   2   5 8121.64 918.043  25
   6   2   5 11189.6 2348.08  22
   6   2   5 7035.00 1473.81  24
   6   2   5 8579.48 991.278  34
   6   2   5 7125.07 804.447  35
   6   2   5 8214.28 1010.97  33
   6   2   5 8606.18 2326.50  40
   6   2   5 8201.89 920.209  39
  -6   2  -5 9029.46 1138.49  18
   6   2   5 9629.22 1142.78  26
   6   2   5 7650.38 1170.73  28
   6   2   5 9542.54 996.388  30
  -6   2  -5 7234.89 1028.40   2
  -6   2  -5 7374.99 1013.54   5
   6   2   6 37887.0 4198.28  22
   6   2   6 32473.3 1896.02  25
   6   2   6 33846.5 2070.45  34
   6   2   6 45164.5 4909.80  40
   6   2   6 29973.4 1767.57  35
   6   2   6 37619.9 1955.89  39
  -6   2  -6 34066.3 2315.74  18
   6   2   6 32543.2 2373.66  28
   6   2   6 33443.7 2189.35  26
   6   2   6 35560.3 1921.22  30
  -6   2  -6 27289.6 2091.45   2
  -6   2  -6 32561.5 2207.10   5
   6   2   7 17894.4 2603.06  22
   6   2   7 12278.1 1089.53  25
   6   2   7 12042.1 1206.26  34
   6   2   7 12088.3 1071.40  35
   6   2   7 14477.5 1113.94  39
  -6   2  -7 13960.3 1465.84  18
   6   2   7 11740.4 1305.48  28
   6   2   7 13518.8 1077.61  30
   6   2   7 13321.1 1336.12  26
  -6   2  -7 13965.9 1428.31   5
   6   2   8 4111.46 585.579  25
   6   2   8 3971.53 682.196  34
   6   2   8 3692.25 575.546  35
   6   2   8 4342.60 704.346  33
  -6   2  -8 4326.32 830.174  18
   6   2   8 4110.54 720.202  26
  -6   2  -8 4099.53 731.486   5
  -6   2  -8 3635.82 630.237   3
   6   2   9 1288.70 397.034  26
   6   2   9 1310.09 309.184  25
   6   2   9 1044.49 358.722  34
   6   2   9 1381.11 354.432  35
  -6   2  -9 1508.64 499.527  18
   6   2   9 1048.35 349.189  33
  -6   2  -9 1200.31 379.031   3
  -6   2  -9 1717.61 471.016   5
   6   2  10 5875.23 581.414  25
  -6   2 -10 5643.84 881.786  18
   6   2  10 5141.59 742.724  26
  -6   2 -10 4771.91 726.290   3
   6   2  10 5186.97 734.078  34
   6   2  10 4836.54 623.623  35
   6   2  10 5981.39 772.038  33
  -6   2 -11 5350.42 819.155  18
   6   2  11 6668.11 782.051  26
  -6   2 -11 4866.73 679.319   3
   6   2  11 6408.12 771.838  34
   6   2  11 4895.26 580.513  35
   6   2  11 5476.26 682.876  33
  -6   2 -12 18355.3 1436.91  18
   6   2  12 26018.7 1457.36  26
  -6   2 -12 19822.6 1305.18   3
   6   2  12 23470.4 1358.29  33
  -6   2 -13 4978.56 660.329  18
   6   2  13 9884.41 768.050  26
  -6   2 -13 6492.34 629.496   3
   6   2  13 8795.08 708.780  33
   6   2  14 10110.6 623.905  33
   6   2  14 10382.8 642.134  26
  -6   3  14 5703.61 453.785  17
   6   3 -14 5337.32 649.578  41
  -6   3  13 10117.4 740.392  17
   6   3 -13 11335.1 1414.55  20
   6   3 -13 8241.81 922.325  41
   6   3 -12 7626.37 977.064  41
   6   3 -12 10268.1 1493.65  20
   6   3 -12 7063.72 914.053  23
  -6   3  12 7946.71 737.888  17
   6   3 -12 8721.97 745.458  29
  -6   3  12 5599.47 590.319   7
   6   3 -11 7439.05 1141.90  23
   6   3 -11 7596.76 1057.28  41
   6   3 -11 8740.48 836.048  29
  -6   3  11 6231.79 732.288   7
   6   3 -10 5656.65 1108.55  23
   6   3 -10 6758.14 1380.32  20
   6   3 -10 6022.20 984.600  41
  -6   3  10 5114.16 754.083   6
   6   3 -10 7204.07 812.040  29
   6   3 -10 9471.16 2242.13  32
  -6   3  10 5065.98 712.433   7
   6   3  -9 2653.16 797.743  23
   6   3  -9 2473.89 911.240  20
  -6   3   9 3279.97 616.209   6
   6   3  -9 2499.04 659.933  41
   6   3  -9 2808.89 547.062  29
  -6   3   9 2216.49 412.018   8
  -6   3   9 2565.26 527.093   7
   6   3  -8 11272.9 1742.99  23
  -6   3   8 12094.3 1237.97   6
   6   3  -8 12007.0 1499.50  41
   6   3  -8 12656.2 1197.94  29
   6   3  -8 15877.6 2609.23  27
   6   3  -8 13754.5 1096.85  30
  -6   3   8 12062.3 1049.12   8
   6   3  -7 19553.9 2389.78  23
   6   3  -7 26510.9 1602.43  25
   6   3  -7 24674.2 2191.61  41
  -6   3   7 25692.7 1887.41   6
   6   3  -7 31536.0 3729.96  27
   6   3  -7 28909.0 4204.03  32
   6   3  -7 26564.3 1677.29  30
  -6   3   7 24254.0 1599.91   8
   6   3  -6 18123.0 1922.82  41
   6   3  -6 16003.3 2192.98  23
   6   3  -6 18886.9 1371.89  25
   6   3  -6 20142.9 3209.69  24
   6   3  -6 18824.6 2549.48  20
   6   3  -6 18012.4 1528.82  38
   6   3  -6 22007.8 3059.45  27
   6   3  -6 19462.3 1554.24  26
   6   3  -6 23981.2 3759.79  32
   6   3  -6 19372.9 1489.48  30
  -6   3   6 18868.0 1622.71   6
  -6   3   5 13948.7 1254.48   1
  -6   3   5 11951.8 1313.24   2
   6   3  -5 15151.7 1739.65  41
   6   3  -5 7723.19 1458.32  59
   6   3  -5 15869.0 1462.35  38
   6   3  -5 15940.3 1348.11  39
   6   3  -5 15790.6 1424.25  29
   6   3  -5 15318.6 2553.72  27
   6   3  -5 15343.5 3059.70  32
   6   3  -5 14642.4 1367.73  26
   6   3  -5 14614.6 1865.54  28
   6   3  -5 16141.7 1375.49  31
   6   3  -5 16384.6 1387.34  30
   6   3  -5 12389.3 1985.04  23
   6   3  -5 18349.3 3160.18  22
   6   3  -5 16561.7 1310.28  25
   6   3  -5 15688.4 2330.21  20
   6   3  -5 15212.3 2854.15  24
  -6   3   4 13384.4 1404.76   2
  -6   3   4 13942.3 1247.88   1
   6   3  -4 14070.7 1693.00  41
   6   3  -4 14336.5 1831.89  55
   6   3  -4 12236.0 1855.69  59
   6   3  -4 17898.4 1568.62  38
   6   3  -4 16134.8 1381.52  39
   6   3  -4 16254.1 1441.04  29
   6   3  -4 11483.8 2159.27  27
   6   3  -4 20515.3 3445.43  32
   6   3  -4 12816.6 1785.53  28
   6   3  -4 14215.3 1359.27  26
   6   3  -4 15011.2 1365.20  31
   6   3  -4 14571.8 1354.35  30
   6   3  -4 14726.2 2145.00  23
   6   3  -4 19694.5 3330.36  22
   6   3  -4 16741.0 1349.42  25
   6   3  -4 13954.3 2186.80  20
  -6   3   3 1411.56 444.612   2
  -6   3   3 1016.74 427.618   6
   6   3  -3 1556.02 596.291  55
   6   3  -3 1152.31 578.187  59
   6   3  -3 950.664 366.173  39
   6   3  -3 1218.38 442.899  38
   6   3  -3 1165.02 289.904  33
   6   3  -3 1206.69 638.874  27
   6   3  -3 965.628 369.308  30
   6   3  -3 617.248 450.849  28
   6   3  -3 933.417 353.488  29
   6   3  -3 1782.70 1025.73  32
   6   3  -3 782.394 314.276  31
   6   3  -3 921.848 355.070  26
   6   3  -3 872.542 613.836  23
   6   3  -3 981.120 571.470  20
   6   3  -3 772.217 315.097  25
   6   3  -3 1214.45 913.700  22
   6   3  -3 1065.86 925.958  24
  -6   3   2 507.427 356.551   6
   6   3  -2 1053.93 494.811  55
   6   3  -2 499.384 438.738  59
   6   3  -2 1421.52 334.067  33
   6   3  -2 1199.28 607.973  27
   6   3  -2 1007.01 527.350  28
   6   3  -2 1322.22 423.229  29
   6   3  -2 1516.17 882.790  32
   6   3  -2 1756.01 784.897  23
   6   3  -2 1086.46 400.517  26
   6   3  -2 1512.66 723.561  20
   6   3  -2 986.013 346.755  25
   6   3  -2 1587.22 1026.77  22
   6   3  -2 298.229 585.573  24
  -6   3   1 2016.50 517.455   2
  -6   3   1 875.152 415.277   6
   6   3  -1 1665.08 624.055  55
   6   3  -1 1734.13 405.087  33
   6   3  -1 1241.09 458.264  38
   6   3  -1 1840.25 763.660  59
   6   3  -1 1812.95 497.334  30
   6   3  -1 1881.37 684.080  28
   6   3  -1 2104.48 514.647  29
   6   3  -1 2353.51 1002.43  32
   6   3  -1 2003.84 484.391  31
   6   3  -1 2315.69 570.364  26
   6   3  -1 1661.44 767.907  23
   6   3  -1 2704.00 867.166  20
   6   3  -1 1063.96 984.796  22
   6   3  -1 1449.27 917.776  24
   6   3   0 1841.86 496.290  26
   6   3   0 2205.00 759.863  20
   6   3   0 1116.74 849.494  24
   6   3   0 1482.83 450.382  39
   6   3   0 2210.37 583.857  38
   6   3   0 1972.05 452.985  33
   6   3   0 1986.69 519.356  30
   6   3   0 998.407 526.546  28
   6   3   0 2325.86 533.349  29
   6   3   0 2063.87 511.499  31
  -6   3   0 1594.47 485.719   2
   6   3   1 60302.7 3980.72  55
   6   3   1 57682.2 5811.98  22
   6   3   1 57162.4 2738.93  25
   6   3   1 47177.3 4706.52  24
   6   3   1 58598.2 3035.75  38
   6   3   1 51064.9 2492.15  33
   6   3   1 52252.5 2716.63  39
   6   3   1 52601.1 2803.21  26
   6   3   1 62921.6 2847.95  29
   6   3   1 56115.6 2809.65  31
   6   3   1 44442.2 3150.08  28
   6   3   1 51043.3 2749.68  30
  -6   3  -1 48987.1 2819.45   2
  -6   3  -2 18129.7 1618.96   2
   6   3   2 20553.7 2181.02  55
   6   3   2 19044.1 2294.17  59
   6   3   2 19701.6 1676.97  38
   6   3   2 20639.2 1603.01  39
   6   3   2 19648.9 1457.47  33
   6   3   2 23775.5 1649.84  29
   6   3   2 21251.9 1694.26  26
   6   3   2 20807.1 1607.35  31
   6   3   2 16281.1 1778.02  28
   6   3   2 20661.4 1602.38  30
   6   3   2 26157.4 3804.40  22
   6   3   2 20960.0 1576.04  25
   6   3   2 17642.9 2799.30  24
   6   3   3 9353.69 1581.93  59
  -6   3  -3 10355.4 1156.90   2
   6   3   3 11937.8 1127.57  33
   6   3   3 12977.1 1299.92  38
   6   3   3 11450.3 1152.24  39
   6   3   3 15741.7 1285.98  29
   6   3   3 11194.6 1213.44  26
   6   3   3 13037.2 1195.29  31
   6   3   3 8654.25 1189.63  28
   6   3   3 11975.7 1198.85  30
   6   3   3 14062.5 2789.95  22
   6   3   3 11030.6 1125.24  25
  -6   3  -4 17370.0 1443.46  18
  -6   3  -4 15022.5 1377.62   5
   6   3   4 17649.4 1524.02  38
   6   3   4 17871.9 1410.91  33
   6   3   4 16610.0 1376.12  39
   6   3   4 15954.5 1469.33  26
   6   3   4 16227.3 1570.93  28
   6   3   4 17751.3 1404.33  30
   6   3   4 16798.0 1380.61  25
  -6   3  -5 718.800 315.607  18
  -6   3  -5 694.032 287.347   5
   6   3   5 483.656 243.409  39
   6   3   5 520.071 209.477  34
   6   3   5 719.056 290.225  30
   6   3   5 602.792 273.038  33
   6   3   5 489.163 288.103  26
   6   3   5 497.918 273.345  25
  -6   3  -6 10507.1 1137.43  18
  -6   3  -6 8703.60 1059.41   5
   6   3   6 8586.66 886.644  34
   6   3   6 9060.12 977.511  33
   6   3   6 9686.98 955.877  39
   6   3   6 10595.0 947.111  30
   6   3   6 10148.7 1013.54  25
   6   3   7 12254.7 1078.55  34
   6   3   7 13637.8 1194.84  33
   6   3   7 16463.2 1173.01  39
  -6   3  -7 14976.3 1367.16  18
   6   3   7 14161.5 1001.75  30
   6   3   7 15501.4 1205.56  25
   6   3   8 3232.02 528.413  34
   6   3   8 2717.85 510.147  33
   6   3   8 3135.05 461.503  39
  -6   3  -8 3068.96 605.405  18
   6   3   8 2975.00 498.186  25
   6   3   9 14200.2 1108.16  34
   6   3   9 17403.7 1251.73  33
  -6   3  -9 17477.2 1392.17  18
   6   3   9 18591.0 1153.04  25
   6   3  10 14396.4 1045.92  34
   6   3  10 15057.6 1092.05  33
  -6   3 -10 16131.2 1272.89  18
   6   3  10 15814.8 952.884  25
   6   3  11 3261.52 445.062  34
  -6   3 -11 2899.28 496.785  18
   6   3  11 3646.59 511.433  26
   6   3  11 3227.98 334.836  25
   6   3  12 1486.50 291.974  26
   6   3  12 1727.59 286.150  34
  -6   3 -12 969.185 271.246  18
   6   3  13 1393.66 226.913  26
  -6   3 -13 292.012 145.380  18
   6   4 -12 741.729 175.584  29
  -6   4  12 751.891 188.902  17
   6   4 -11 3462.36 743.215  20
   6   4 -11 2565.04 376.542  29
  -6   4  11 1922.17 316.885   7
  -6   4  11 2891.45 391.854  17
   6   4 -10 8523.20 1305.39  20
   6   4 -10 9621.66 804.593  29
  -6   4  10 9295.06 777.698  17
  -6   4  10 6725.53 520.257   8
  -6   4  10 7053.95 696.543   7
  -6   4   9 10693.3 783.498   8
  -6   4   9 9667.18 893.632   7
   6   4  -9 9951.59 1495.49  20
  -6   4   8 7589.95 838.323   7
  -6   4   8 8103.67 753.499   8
   6   4  -8 8376.87 1438.74  20
  -6   4   7 13065.7 1053.41   8
  -6   4   7 12336.8 1142.43   7
   6   4  -7 12503.0 1106.19  29
   6   4  -7 13343.2 1017.91  30
  -6   4   7 13484.9 1179.64   6
  -6   4   6 6855.87 851.861   6
  -6   4   6 5149.27 796.595  59
   6   4  -6 6570.34 815.722  38
   6   4  -6 6547.29 806.211  29
   6   4  -6 7233.18 803.681  30
  -6   4   6 6420.07 855.003   7
  -6   4   6 6306.03 762.381   8
  -6   4   5 1567.10 410.120   8
  -6   4   5 1154.91 414.293  59
   6   4  -5 700.053 487.536  59
   6   4  -5 1425.21 365.421  39
   6   4  -5 869.460 330.543  38
  -6   4   5 1191.39 375.737   6
   6   4  -5 1258.10 366.235  30
   6   4  -5 1557.42 405.447  29
   6   4  -5 2133.43 820.728  20
   6   4  -5 1227.28 310.838  25
   6   4  -4 6359.88 1253.40  59
   6   4  -4 10458.9 1110.71  38
   6   4  -4 10859.8 1024.43  39
  -6   4   4 10407.3 1081.25   6
   6   4  -4 11222.0 1079.38  29
   6   4  -4 10273.0 940.262  26
   6   4  -4 9572.31 1017.69  30
   6   4  -4 10581.3 928.316  25
   6   4  -4 10707.5 1799.04  20
   6   4  -3 16049.2 2002.34  59
   6   4  -3 17815.8 1514.09  38
   6   4  -3 21048.1 1474.97  39
  -6   4   3 15841.3 1370.95   6
   6   4  -3 18895.0 1326.98  26
   6   4  -3 20978.8 1494.17  29
   6   4  -3 18905.8 1456.71  30
   6   4  -3 19748.4 1339.53  25
   6   4  -2 18443.5 2165.22  59
   6   4  -2 21866.1 1548.67  39
  -6   4   2 17963.8 1452.24   6
   6   4  -2 23898.8 1585.57  29
   6   4  -2 19955.1 1400.28  26
   6   4  -2 21661.1 1437.55  25
   6   4  -1 20069.0 2248.66  59
   6   4  -1 20109.4 1624.65  38
   6   4  -1 20739.4 1531.81  39
  -6   4   1 16112.3 1362.91   6
   6   4  -1 25075.4 1601.97  29
   6   4  -1 20194.2 1429.56  26
   6   4  -1 20230.7 1542.84  30
   6   4  -1 21489.1 1463.36  25
   6   4   0 11146.0 1206.53  38
   6   4   0 14721.8 1182.17  29
   6   4   0 12611.0 1122.50  26
   6   4   0 12153.6 1174.34  30
   6   4   0 13055.1 1125.87  25
   6   4   1 624.728 279.922  39
   6   4   1 614.428 317.503  38
  -6   4  -1 626.380 234.839   6
   6   4   1 795.754 321.248  30
   6   4   1 1327.25 348.155  29
   6   4   1 603.671 262.564  26
   6   4   1 656.966 279.504  25
   6   4   2 2792.07 597.614  38
   6   4   2 2101.67 474.380  39
  -6   4  -2 1217.75 315.160   6
   6   4   2 3407.14 529.305  29
   6   4   2 3607.32 615.294  30
   6   4   2 2604.04 514.253  26
   6   4   2 2802.22 849.446  59
   6   4   3 956.737 513.457  59
   6   4   3 1049.47 332.313  39
   6   4   3 1026.61 361.206  38
   6   4   3 1015.57 317.795  26
   6   4   3 1268.05 360.720  30
   6   4   4 10306.9 1043.41  38
   6   4   4 10070.6 991.955  39
   6   4   4 9589.14 963.548  26
   6   4   4 11686.8 1006.56  30
   6   4   4 10022.2 971.223  25
  -6   4  -5 9211.19 845.398  18
   6   4   5 10834.7 963.545  39
   6   4   5 10169.2 959.109  26
   6   4   5 11820.3 930.031  30
   6   4   5 9817.89 922.371  25
  -6   4  -6 22633.2 1360.23  18
   6   4   6 29221.3 1514.95  39
   6   4   6 22596.5 1232.11  33
   6   4   6 23815.7 1441.69  26
   6   4   6 27601.4 1305.53  30
   6   4   6 25080.6 1442.68  25
   6   4   7 5781.37 602.625  39
   6   4   7 4251.01 503.529  33
   6   4   7 4728.28 601.284  26
  -6   4  -7 5124.08 613.794  18
   6   4   8 4875.03 473.588  39
   6   4   8 4168.34 465.626  33
   6   4   8 5331.81 560.174  25
  -6   4  -8 4225.73 534.684  18
   6   4   8 4513.43 547.655  26
   6   4   9 47.6592 92.4755  26
   6   4   9 13.7014 79.7577  25
   6   4   9 86.5350 71.9626  33
  -6   4  -9 16.5908 65.1143  18
   6   4  10 3413.56 334.654  33
   6   4  10 3260.74 366.629  26
  -6   4 -10 3921.64 420.676  18
   6   4  10 4236.91 369.284  25
  -6   5   8 4195.65 432.924   7
  -6   5   8 4391.65 396.978  17
  -6   5   7 3819.64 405.613   8
   6   5  -7 3069.29 391.957  29
  -6   5   7 3480.98 384.184  17
  -6   5   6 7011.08 580.262  38
  -6   5   6 8911.06 681.677   8
  -6   5   6 7584.69 610.750  17
   6   5  -6 7200.99 581.683  30
   6   5  -5 15775.3 954.680  29
   6   5  -5 13295.9 888.307  30
  -6   5   5 13912.5 929.820   8
  -6   5   5 12458.6 928.894   7
   6   5  -4 6075.18 624.697  30
   6   5  -4 4303.81 575.887  38
  -6   5   4 4785.21 573.012   7
  -6   5   4 5380.23 586.049   8
   6   5  -3 4299.48 596.901  38
   6   5  -3 4887.84 532.216  39
  -6   5   3 4447.30 639.902  59
   6   5  -3 5751.89 566.904  29
   6   5  -3 4788.22 592.155  30
  -6   5   3 4121.72 542.652   7
  -6   5   3 5357.88 596.673   8
   6   5  -2 1225.63 280.530  39
  -6   5   2 1581.78 392.346  59
   6   5  -2 962.978 378.767  59
   6   5  -2 1346.88 271.155  29
  -6   5   2 1053.48 293.642   7
  -6   5   1 1739.60 347.130   7
   6   5  -1 1907.07 551.652  59
   6   5  -1 2636.18 477.573  38
   6   5  -1 2612.62 415.758  39
   6   5  -1 2662.09 353.985  29
   6   5  -1 2631.19 452.064  30
   6   5  -1 2288.72 349.975  25
  -6   5   0 1099.48 288.157   8
  -6   5   0 1184.65 288.840   7
   6   5   0 1851.53 406.150  38
   6   5   0 2016.18 373.507  39
  -6   5   0 1727.74 435.548  59
   6   5   0 1971.85 386.358  30
   6   5   0 2032.27 333.700  25
  -6   5  -1 18305.0 1167.14   8
   6   5   1 20206.1 1326.08  38
  -6   5  -1 22345.2 1512.01  59
   6   5   1 24319.6 1331.19  30
   6   5   1 23137.1 1190.99  25
   6   5   2 7810.05 774.364  38
   6   5   2 9671.38 733.776  25
   6   5   2 10028.9 795.062  30
  -6   5  -2 6821.85 652.733   8
   6   5   3 7577.01 689.264  39
   6   5   3 7610.18 644.118  25
   6   5   3 7838.11 652.265  30
  -6   5  -3 5862.61 565.384   8
   6   5   4 10776.2 774.035  39
   6   5   4 9407.23 705.485  25
   6   5   4 9557.16 652.263  30
   6   5   5 149.521 106.732  39
   6   5   6 615.391 156.410  39
   6   5   7 2368.82 268.762  25
   7  -4  -9 3505.41 744.181  32
   7  -4  -8 18429.4 2075.95  32
   7  -4  -7 3345.97 788.464  36
   7  -4  -6 627.645 275.733  27
   7  -4  -6 682.839 346.228  22
   7  -4  -6 644.804 398.685  36
   7  -4  -6 746.434 378.424  40
   7  -4  -5 355.870 236.187  27
   7  -4  -5 656.147 520.280  32
   7  -4  -5 144.210 283.070  22
   7  -4  -5 416.298 243.660  24
   7  -4  -5 374.374 346.376  36
   7  -4  -5 550.601 414.211  40
   7  -4  -4 7264.56 910.529  57
   7  -4  -4 7179.90 872.564  56
   7  -4  -4 10014.4 1828.09  32
   7  -4  -4 9436.93 1368.20  27
   7  -4  -4 8861.42 1601.27  22
   7  -4  -4 9316.72 1344.75  24
   7  -4  -4 8376.17 1362.92  36
   7  -4  -4 9790.74 1756.62  40
   7  -4  -3 3929.39 710.211  57
   7  -4  -3 4768.67 730.293  56
   7  -4  -3 5832.10 1407.90  32
   7  -4  -3 7315.29 1274.71  27
   7  -4  -3 6597.42 1422.65  22
   7  -4  -3 5556.85 1120.41  24
   7  -4  -3 5988.26 1445.39  40
   7  -4  -2 23235.4 2700.32  32
   7  -4  -2 27805.3 2550.36  27
   7  -4  -2 27121.7 2958.90  22
   7  -4  -2 28722.7 2624.34  24
   7  -4  -2 26606.2 3052.01  40
   7  -4  -1 13429.5 1314.09  56
   7  -4  -1 16623.3 2138.49  32
   7  -4  -1 22798.8 2345.23  27
   7  -4  -1 18111.0 2422.74  22
   7  -4  -1 20547.0 2221.97  24
   7  -4  -1 19360.4 2606.37  40
   7  -4   0 8842.27 1459.59  27
   7  -4   0 6643.64 1286.22  24
   7  -4   0 6089.99 895.634  57
   7  -4   0 5138.37 794.815  56
   7  -4   1 272.098 198.003  56
   7  -4   1 191.622 150.431  57
   7  -4   1 492.384 445.118  27
   7  -4   1-70.9786 305.149  24
   7  -4   2 30.8457 54.1381  56
   7  -4   2 35.3928 62.1183  57
   7  -4   2 270.479 335.666  27
   7  -4   2-83.5245 387.839  22
   7  -4   2-91.0457 391.402  40
   7  -4   3 6103.81 1267.15  22
   7  -4   3 8023.29 1318.69  24
   7  -4   3 8231.74 1498.76  40
   7  -4   4 3336.24 416.860  28
   7  -4   4 5019.27 992.702  22
   7  -4   4 5179.33 979.198  24
   7  -4   4 5508.32 1076.57  40
   7  -4   5 14819.2 1545.45  27
   7  -4   5 12382.1 1374.05  24
   7  -4   6 17248.4 1484.82  27
   7  -4   6 11307.9 1143.49  24
   7  -3 -11 6451.07 754.335  20
   7  -3 -11 5971.81 693.617  23
   7  -3 -10 6923.82 1467.74  32
   7  -3 -10 3543.04 582.730  23
   7  -3  -9 552.300 292.513  27
   7  -3  -9 973.969 684.906  32
   7  -3  -9 515.007 447.461  36
   7  -3  -8 11004.9 2155.06  32
   7  -3  -8 9796.01 1445.42  27
   7  -3  -8 9017.66 1375.46  22
   7  -3  -8 10060.3 1494.75  40
   7  -3  -8 8535.23 1535.95  36
   7  -3  -7 4682.90 704.560  56
   7  -3  -7 8145.94 1447.03  27
   7  -3  -7 7524.40 1518.13  22
   7  -3  -7 8650.75 1313.40  24
   7  -3  -7 7889.06 1598.42  40
   7  -3  -7 7411.63 1528.41  36
   7  -3  -6 19019.0 1712.38  57
   7  -3  -6 19497.9 1644.27  56
   7  -3  -6 29087.5 2909.27  27
   7  -3  -6 29340.0 3251.02  22
   7  -3  -6 23614.8 2509.55  24
   7  -3  -6 29809.4 3417.36  40
   7  -3  -6 26203.4 2846.51  36
   7  -3  -5 16527.5 1682.88  57
   7  -3  -5 16727.6 1601.38  56
   7  -3  -5 26856.8 3599.05  32
   7  -3  -5 22644.9 2694.96  27
   7  -3  -5 23689.7 3068.06  22
   7  -3  -5 22216.7 2583.21  24
   7  -3  -5 19650.0 2523.46  36
   7  -3  -5 25773.5 3355.01  40
   7  -3  -4 5207.03 992.555  57
   7  -3  -4 5217.53 942.094  56
   7  -3  -4 8194.66 1993.77  32
   7  -3  -4 7247.47 1592.98  27
   7  -3  -4 9362.58 2017.67  22
   7  -3  -4 7329.94 1546.04  24
   7  -3  -4 7151.99 1510.53  36
   7  -3  -4 8231.47 1978.58  40
   7  -3  -3 11727.9 1515.80  57
   7  -3  -3 11239.4 1406.77  56
   7  -3  -3 13556.0 2584.77  32
   7  -3  -3 16155.9 2372.29  27
   7  -3  -3 19496.1 2972.26  22
   7  -3  -3 21638.7 2683.97  24
   7  -3  -3 16654.8 2894.80  40
   7  -3  -2 7220.08 1880.48  32
   7  -3  -2 11113.8 2000.29  27
   7  -3  -2 8514.22 2013.25  22
   7  -3  -2 8152.41 1690.89  24
   7  -3  -2 9157.71 2196.06  40
   7  -3  -1 7549.45 1231.09  57
   7  -3  -1 7063.92 1134.30  56
   7  -3  -1 13231.7 2373.80  32
   7  -3  -1 9161.21 1031.50  28
   7  -3  -1 12776.3 2147.30  27
   7  -3  -1 13103.0 2480.18  22
   7  -3  -1 12379.8 2102.90  24
   7  -3  -1 10765.1 2342.93  40
   7  -3   0 9926.29 1415.13  57
   7  -3   0 10363.6 1359.25  56
   7  -3   0 15536.4 2438.08  32
   7  -3   0 11234.4 1226.57  28
   7  -3   0 16996.4 2457.26  27
   7  -3   0 15608.9 2363.71  24
   7  -3   1 4247.77 765.750  28
   7  -3   1 4361.81 931.990  57
   7  -3   1 4184.05 858.282  56
   7  -3   1 5049.92 719.007  35
   7  -3   2 25150.9 2176.99  57
   7  -3   2 25471.1 2058.80  56
   7  -3   2 24936.1 1905.85  28
   7  -3   2 37889.7 4012.15  22
   7  -3   2 25951.2 1655.94  35
   7  -3   2 34212.4 3997.10  40
   7  -3   3 39868.1 2638.57  57
   7  -3   3 38958.8 2465.32  56
   7  -3   3 34110.3 2298.65  28
   7  -3   3 52692.8 4098.14  27
   7  -3   3 49684.2 4439.67  22
   7  -3   3 47720.2 3908.48  24
   7  -3   3 35374.6 1965.24  35
   7  -3   3 47514.2 4536.62  40
   7  -3   4 9238.74 1173.73  57
   7  -3   4 8240.95 1033.72  56
   7  -3   4 8283.19 867.007  35
   7  -3   4 12526.4 2181.75  40
   7  -3   4 9181.16 1127.62  28
   7  -3   4 11660.8 1843.49  27
   7  -3   4 10115.8 1904.55  22
   7  -3   4 10760.3 1773.22  24
   7  -3   5 439.918 172.835  53
   7  -3   5 480.891 218.069  56
   7  -3   5 334.218 195.693  57
   7  -3   5 401.964 203.462  35
   7  -3   5 783.011 515.397  40
   7  -3   5 273.936 247.769  28
   7  -3   5 392.078 412.949  27
   7  -3   5 356.519 349.876  22
   7  -3   5 228.463 378.119  24
   7  -3   6 6835.57 709.991  35
   7  -3   6 10518.6 1492.36  24
   7  -3   6 7173.20 712.578  53
   7  -3   6 10517.7 1540.79  27
   7  -3   6 6920.94 928.357  28
   7  -3   7 4066.31 674.715  28
   7  -3   7 3813.72 489.178  35
   7  -3   8 11420.5 1068.58  28
   7  -3   8 11506.6 782.935  35
   7  -3   8 10936.4 960.831  10
   7  -3   9 8499.93 828.791  28
   7  -3   9 7017.06 524.454  35
   7  -3  10 5644.25 586.342  28
   7  -2 -13 616.963 342.463  32
   7  -2 -13 234.110 211.716  23
   7  -2 -13 225.870 198.295  20
   7  -2 -12 3565.84 1085.51  32
   7  -2 -12 2543.39 619.330  23
   7  -2 -12 2615.52 670.214  20
   7  -2 -12 3179.49 879.614  36
   7  -2 -11 6734.21 1157.37  27
   7  -2 -11 7926.71 1758.02  32
   7  -2 -11 6542.40 1122.33  20
   7  -2 -11 5655.23 970.393  23
   7  -2 -11 8603.51 1522.51  36
   7  -2 -10 13999.2 2513.28  32
   7  -2 -10 9744.57 1616.49  27
   7  -2 -10 9075.94 1376.86  20
   7  -2 -10 8686.96 1270.11  23
   7  -2 -10 12614.5 1956.90  36
   7  -2  -9 2967.81 987.329  27
   7  -2  -9 5265.25 1722.85  32
   7  -2  -9 2155.22 680.489  23
   7  -2  -9 2473.71 759.968  20
   7  -2  -9 2601.95 724.262  24
   7  -2  -9 4041.03 1171.28  36
   7  -2  -8 26361.6 2970.98  27
   7  -2  -8 17260.1 1905.52  23
   7  -2  -8 16859.2 1954.79  20
   7  -2  -8 26345.2 2945.48  22
   7  -2  -8 25792.8 2707.23  24
   7  -2  -8 23323.8 2871.22  40
   7  -2  -8 25307.5 2959.85  36
   7  -2  -7 11228.2 1361.98  57
   7  -2  -7 10603.1 1250.62  56
   7  -2  -7 15155.0 2339.83  27
   7  -2  -7 9184.68 1385.64  23
   7  -2  -7 11523.2 1548.50  20
   7  -2  -7 14310.2 2406.37  22
   7  -2  -7 15263.1 2235.95  24
   7  -2  -7 18757.9 2847.75  40
   7  -2  -7 13445.4 2196.59  36
   7  -2  -6 7221.08 1175.03  57
   7  -2  -6 7279.81 1113.03  56
   7  -2  -6 9692.72 2397.25  32
   7  -2  -6 8916.67 1869.56  27
   7  -2  -6 5486.37 1038.31  23
   7  -2  -6 11662.6 2262.29  22
   7  -2  -6 9136.19 1833.81  24
   7  -2  -6 12446.9 2485.95  40
   7  -2  -6 8609.72 1758.91  36
   7  -2  -5 7217.33 1208.77  57
   7  -2  -5 6336.39 1072.55  56
   7  -2  -5 9799.54 2403.62  32
   7  -2  -5 11670.5 2148.55  27
   7  -2  -5 5373.35 1021.27  23
   7  -2  -5 9782.08 1931.31  24
   7  -2  -5 9200.42 2149.93  22
   7  -2  -5 11062.6 2473.92  40
   7  -2  -5 8380.38 1755.45  36
   7  -2  -4 12408.8 1645.59  57
   7  -2  -4 13202.3 1587.16  56
   7  -2  -4 16173.7 3064.34  32
   7  -2  -4 17132.5 2636.82  27
   7  -2  -4 13364.6 1384.60  28
   7  -2  -4 9983.99 1354.74  23
   7  -2  -4 13508.5 2697.66  22
   7  -2  -4 16048.6 2511.60  24
   7  -2  -4 12964.5 2142.71  36
   7  -2  -4 20126.7 3357.89  40
   7  -2  -3 9856.28 1475.52  57
   7  -2  -3 9859.30 1395.54  56
   7  -2  -3 13015.0 2076.85  36
   7  -2  -3 12807.4 2762.39  40
   7  -2  -3 9318.03 994.458  33
   7  -2  -3 12604.3 2592.65  22
   7  -2  -3 12876.5 2319.84  24
   7  -2  -3 13220.7 2750.95  32
   7  -2  -3 15470.2 2553.11  27
   7  -2  -3 8601.08 1189.00  28
   7  -2  -2 41761.0 3738.23  36
   7  -2  -2 56355.0 5868.03  40
   7  -2  -2 43660.8 2291.11  33
   7  -2  -2 49244.3 5190.62  32
   7  -2  -2 61887.7 5128.12  27
   7  -2  -2 47857.3 2960.56  28
   7  -2  -2 60744.0 5799.55  22
   7  -2  -2 58856.2 4998.47  24
   7  -2  -1 3180.78 859.606  57
   7  -2  -1 2699.59 528.643  33
   7  -2  -1 3433.78 1454.38  40
   7  -2  -1 1524.86 588.494  56
   7  -2  -1 2155.51 634.575  28
   7  -2  -1 3025.27 1188.31  32
   7  -2  -1 2319.99 1200.21  22
   7  -2  -1 3330.73 1211.80  24
   7  -2   0 6292.80 1632.35  32
   7  -2   0 7674.23 1781.79  27
   7  -2   0 5372.11 991.686  28
   7  -2   0 6062.01 1188.86  57
   7  -2   0 5317.94 1045.39  56
   7  -2   0 5317.24 828.903  35
   7  -2   0 5108.10 705.159  33
   7  -2   1 825.513 426.905  56
   7  -2   1 723.274 317.639  35
   7  -2   1 781.007 415.610  28
   7  -2   1 846.967 637.202  27
   7  -2   1 423.576 218.356  33
   7  -2   1 1464.75 584.411  57
   7  -2   2 2431.89 747.032  57
   7  -2   2 3280.86 814.450  56
   7  -2   2 2776.95 578.650  35
   7  -2   2 1849.04 1105.19  40
   7  -2   2 2613.00 475.575  33
   7  -2   2 4174.85 1511.92  22
   7  -2   2 2508.25 1049.54  24
   7  -2   2 3199.17 764.956  28
   7  -2   2 4763.09 1428.26  27
  -7  -2  -2 2047.18 474.926   5
   7  -2   3 10290.8 1282.87  10
   7  -2   3 9648.86 1393.61  57
   7  -2   3 10720.9 1366.33  56
  -7  -2  -3 7251.53 967.878   5
   7  -2   3 8640.85 1034.35  35
   7  -2   3 13286.4 2672.34  40
   7  -2   3 8861.70 846.590  33
   7  -2   3 13436.1 2203.92  27
   7  -2   3 10112.5 1380.01  28
   7  -2   3 12798.2 2495.40  22
   7  -2   3 10525.4 2005.67  24
   7  -2   4 15905.5 1574.45  10
   7  -2   4 17578.1 1816.72  57
   7  -2   4 15503.3 1589.75  56
   7  -2   4 11288.2 1043.96  53
  -7  -2  -4 14033.4 1336.92   5
   7  -2   4 15179.9 1328.14  35
   7  -2   4 22598.4 3292.03  40
   7  -2   4 13768.0 1013.37  33
   7  -2   4 19307.6 2572.52  27
   7  -2   4 15395.7 1690.64  28
   7  -2   4 19655.6 2956.09  22
   7  -2   4 18455.7 2556.93  24
   7  -2   5 15357.9 1484.73  10
   7  -2   5 14085.3 1186.22  53
   7  -2   5 18051.6 1745.73  57
   7  -2   5 15803.4 1515.78  56
   7  -2   5 15531.4 1322.28  35
   7  -2   5 20999.5 3039.89  40
   7  -2   5 22633.4 2645.45  27
   7  -2   5 16506.3 1736.15  28
   7  -2   5 20575.2 2843.01  22
   7  -2   5 19379.0 2523.68  24
   7  -2   6 21748.2 1739.73  10
   7  -2   6 19861.9 1409.05  53
   7  -2   6 20016.5 1569.71  56
   7  -2   6 22176.9 1567.10  35
   7  -2   6 27961.9 3221.17  40
   7  -2   6 28534.2 2776.14  27
   7  -2   6 20606.5 1911.52  28
   7  -2   6 29458.8 3118.93  22
   7  -2   6 29468.4 2849.95  24
   7  -2   7 6513.52 783.836  35
   7  -2   7 6546.96 895.839  10
   7  -2   7 7384.26 1074.75  28
   7  -2   7 6045.31 736.289  53
   7  -2   8 3223.67 526.688  35
   7  -2   8 3337.95 599.960  10
   7  -2   8 3146.23 666.118  28
   7  -2   8 3428.75 536.343  53
   7  -2   9 5547.51 637.305  35
   7  -2   9 5099.61 683.773  10
   7  -2   9 5149.58 613.093  53
   7  -2  10 2257.45 465.094  28
   7  -2  10 1726.14 343.899  10
   7  -2  10 1998.31 347.669  35
   7  -2  11 6735.88 557.848  35
   7  -2  11 6825.34 718.936  28
   7  -1 -15 1019.18 267.480  23
   7  -1 -14 8528.34 1004.63  37
   7  -1 -14 10976.2 1181.80  23
   7  -1 -14 11363.3 1619.30  32
   7  -1 -13 13696.4 1407.15  37
   7  -1 -13 17457.3 2001.83  36
   7  -1 -13 15761.8 1687.03  20
   7  -1 -13 14886.1 1531.67  23
   7  -1 -13 12796.1 1536.01  27
   7  -1 -13 16921.1 2292.13  32
   7  -1 -12 18110.6 1787.06  37
   7  -1 -12 21843.5 2453.49  36
   7  -1 -12 20466.1 2090.70  20
   7  -1 -12 17058.7 2075.03  27
   7  -1 -11 3165.99 1005.33  36
   7  -1 -11 2302.12 633.007  37
   7  -1 -11 2860.43 852.708  20
   7  -1 -11 2376.92 861.718  27
   7  -1 -11 1628.72 954.160  32
   7  -1 -10 791.129 601.375  36
   7  -1 -10 826.413 498.526  23
   7  -1 -10 464.721 430.074  20
   7  -1 -10 725.322 402.776  24
   7  -1 -10 611.235 536.542  27
   7  -1 -10 460.741 713.264  32
   7  -1  -9 1466.02 757.821  36
   7  -1  -9 225.462 395.838  27
   7  -1  -9 501.150 718.220  32
   7  -1  -9 659.120 445.374  23
   7  -1  -9 324.622 349.047  20
   7  -1  -9 729.007 452.476  24
   7  -1  -8 2597.96 1024.34  36
   7  -1  -8 3238.83 1138.00  40
   7  -1  -8 2680.40 598.507  56
   7  -1  -8 2418.40 1040.91  27
   7  -1  -8 2352.41 778.235  23
   7  -1  -8 1568.67 696.774  20
   7  -1  -8 3448.12 1106.04  22
   7  -1  -8 2320.11 980.704  24
   7  -1  -7 12688.6 1424.54  56
   7  -1  -7 16719.9 2652.65  27
   7  -1  -7 11378.9 1309.13  28
   7  -1  -7 10540.4 1710.79  20
   7  -1  -7 9688.78 1601.11  23
   7  -1  -7 15489.0 2653.84  22
   7  -1  -7 16018.0 2500.35  24
   7  -1  -7 15574.1 2793.69  40
   7  -1  -7 17180.8 2510.41  36
   7  -1  -6 10216.6 1345.76  56
   7  -1  -6 12365.7 2676.03  40
   7  -1  -6 10284.4 1105.04  33
   7  -1  -6 9964.69 1921.87  36
   7  -1  -6 13998.6 2991.70  32
   7  -1  -6 13031.6 2386.06  27
   7  -1  -6 8921.60 1249.23  28
   7  -1  -6 9048.67 1527.20  20
   7  -1  -6 8492.54 1499.04  23
   7  -1  -6 11384.8 2401.55  22
   7  -1  -6 12127.1 2256.27  24
   7  -1  -5 32276.9 2684.91  57
   7  -1  -5 30381.7 2456.99  56
  -7  -1   5 25644.6 1814.29   1
   7  -1  -5 45123.4 5143.13  40
   7  -1  -5 34529.9 2068.34  33
   7  -1  -5 28924.1 3222.45  36
   7  -1  -5 42390.9 5066.48  32
   7  -1  -5 42227.8 4330.24  27
   7  -1  -5 30028.1 2377.70  28
   7  -1  -5 28395.8 2683.66  20
   7  -1  -5 48592.2 5025.60  21
   7  -1  -5 29257.3 2737.25  23
   7  -1  -5 42578.5 4728.55  22
   7  -1  -5 43304.8 4376.15  24
   7  -1  -4 32784.5 2601.77  56
   7  -1  -4 32692.4 2777.18  57
   7  -1  -4 40974.6 5020.64  40
   7  -1  -4 31267.6 1993.61  33
   7  -1  -4 33176.0 3311.22  36
   7  -1  -4 29893.3 2684.45  54
   7  -1  -4 34796.3 4626.06  32
   7  -1  -4 33072.2 2580.66  28
   7  -1  -4 27140.1 2483.16  20
   7  -1  -4 28371.7 2679.46  23
   7  -1  -4 41137.6 4821.67  21
   7  -1  -4 42639.8 4875.65  22
   7  -1  -4 37373.1 4132.74  24
   7  -1  -3 5186.72 1131.01  57
   7  -1  -3 4348.36 960.891  56
   7  -1  -3 3833.21 955.653  54
   7  -1  -3 4389.94 1603.89  32
   7  -1  -3 4255.04 943.521  28
   7  -1  -3 3939.93 920.294  23
   7  -1  -3 4946.04 1642.93  21
   7  -1  -3 6019.57 1887.17  22
   7  -1  -3 4665.74 1506.74  24
   7  -1  -3 4014.31 1114.88  36
   7  -1  -3 4025.60 717.295  35
   7  -1  -3 5719.83 1953.22  40
   7  -1  -3 4461.23 737.523  33
  -7  -1   2 924.511 339.039   2
   7  -1  -2 992.035 371.083  35
   7  -1  -2 1552.96 1130.15  40
   7  -1  -2 1156.29 512.700  28
   7  -1  -2 1326.50 806.766  27
   7  -1  -2 1051.46 352.854  33
   7  -1  -2 1496.06 875.492  32
   7  -1  -2 1617.20 568.077  23
   7  -1  -2 1213.93 359.360  26
   7  -1  -2 2155.46 1092.26  21
   7  -1  -2 1225.39 971.798  22
   7  -1  -2 136.896 481.018  24
   7  -1  -1 10488.8 1590.01  57
   7  -1  -1 9269.07 1416.42  56
   7  -1  -1 8235.07 1461.29  54
  -7  -1   1 6721.94 958.525   2
   7  -1  -1 9585.32 1103.85  35
   7  -1  -1 11002.4 2673.50  40
   7  -1  -1 8339.65 998.559  33
   7  -1  -1 8616.53 912.492  26
   7  -1  -1 8465.98 2047.48  32
   7  -1  -1 12044.6 2304.71  27
   7  -1  -1 9444.65 1399.58  28
   7  -1  -1 7383.01 1204.45  23
   7  -1  -1 11551.7 2540.58  21
   7  -1  -1 10909.2 2552.84  22
   7  -1   0 16770.1 1484.08  35
   7  -1   0 14841.6 1324.17  33
   7  -1   0 18943.3 2194.58  54
   7  -1   0 21773.4 3059.40  32
   7  -1   0 15166.3 1201.27  26
   7  -1   0 21441.2 3039.80  27
   7  -1   0 16009.0 1863.91  28
   7  -1   0 18927.5 2151.17  57
   7  -1   0 16828.5 1901.93  56
   7  -1   1 20024.5 2030.81  56
   7  -1   1 21183.3 2225.20  57
   7  -1   1 19450.6 2241.49  54
   7  -1   1 17353.5 1415.77  33
   7  -1   1 17938.9 1551.91  35
   7  -1   1 16433.4 1235.47  26
   7  -1   1 28484.5 3408.25  27
   7  -1   1 18706.0 2031.56  28
   7  -1   1 20426.5 3448.93  21
   7  -1   1 21232.1 3051.90  24
   7  -1   2 12230.2 1685.89  57
   7  -1   2 10530.8 1472.48  56
   7  -1   2 13572.7 1767.00  54
   7  -1   2 10770.6 1078.91  33
   7  -1   2 10616.1 1182.71  35
   7  -1   2 13058.8 2842.27  40
   7  -1   2 10741.9 1164.57  34
  -7  -1  -2 10228.6 1106.61   5
   7  -1   2 14304.2 2348.91  27
   7  -1   2 10658.7 1534.15  28
   7  -1   2 16383.6 2944.06  21
   7  -1   2 16907.4 3032.37  22
   7  -1   2 11903.8 2258.65  24
   7  -1   3 17230.4 1979.53  57
   7  -1   3 15754.4 1729.76  56
  -7  -1  -3 13100.7 1316.62   5
   7  -1   3 14236.8 1227.54  33
   7  -1   3 13458.2 1317.38  35
   7  -1   3 16442.9 3131.06  40
   7  -1   3 17381.6 2528.98  27
   7  -1   3 15910.7 1830.57  28
   7  -1   3 19966.5 3200.66  21
   7  -1   3 16587.7 2950.52  22
   7  -1   3 16137.6 2600.37  24
   7  -1   4 10148.4 1242.84  10
   7  -1   4 15837.3 1786.68  57
   7  -1   4 11669.8 1437.75  56
   7  -1   4 8056.72 896.926  53
  -7  -1  -4 10579.0 1179.73   5
   7  -1   4 10990.4 1049.90  33
   7  -1   4 11692.1 1215.35  35
   7  -1   4 19729.3 3285.45  40
   7  -1   4 16618.9 2376.31  27
   7  -1   4 13030.2 1668.34  28
   7  -1   4 14702.0 2716.10  22
   7  -1   4 14503.2 2329.48  24
   7  -1   5 2527.64 1044.65  22
   7  -1   5 1331.13 648.747  24
   7  -1   5 1124.00 325.911  53
   7  -1   5 1829.21 534.450  56
  -7  -1  -5 1723.62 461.988   5
   7  -1   5 1731.21 409.664  33
   7  -1   5 2080.13 976.230  40
   7  -1   5 1570.39 591.088  28
   7  -1   5 2845.50 883.410  27
   7  -1   5 1342.64 441.361  10
   7  -1   6 2302.63 904.158  22
   7  -1   6 1838.14 704.636  24
   7  -1   6 1163.03 357.612  53
   7  -1   6 1574.59 486.740  56
  -7  -1  -6 1634.92 448.675   5
   7  -1   6 1533.34 367.007  33
   7  -1   6 1554.92 462.152  10
   7  -1   6 1281.92 393.914  34
   7  -1   6 1424.95 754.650  40
   7  -1   7 5378.00 744.116  53
   7  -1   7 4752.40 764.878  10
   7  -1   7 5012.51 622.771  33
   7  -1   7 5729.29 802.614  34
   7  -1   8 19139.6 1391.76  53
   7  -1   8 19215.4 1145.24  33
   7  -1   8 19472.6 1432.89  34
   7  -1   8 17359.3 1383.59  10
   7  -1   8 22048.3 1904.36  28
   7  -1   9 23658.0 1840.84  28
   7  -1   9 22028.4 1102.81  33
   7  -1   9 21466.0 1450.24  35
   7  -1   9 24403.6 1524.70  34
   7  -1  10 13369.0 1243.23  28
   7  -1  10 10654.4 935.378  35
   7  -1  10 12255.3 973.724  34
   7  -1  11 4889.64 642.601  28
   7  -1  11 5542.69 592.859  35
   7  -1  11 5259.19 560.956  34
  -7  -1 -12 399.986 187.329   3
   7  -1  12 4586.25 469.410  35
   7  -1  13 1377.35 212.901  35
   7   0 -15 7417.56 799.219  23
   7   0 -15 8938.39 1013.11  20
   7   0 -14 866.746 299.139  37
   7   0 -14 1392.36 440.457  23
   7   0 -14 1298.20 645.796  32
   7   0 -13 13429.6 1470.34  37
   7   0 -13 16160.8 1675.66  23
   7   0 -13 19616.0 2187.47  27
   7   0 -13 20524.3 2661.47  32
   7   0 -12 3932.11 1065.86  36
   7   0 -12 3497.64 1098.43  27
   7   0 -12 4310.24 1435.57  32
   7   0 -12 3688.65 871.822  23
   7   0 -12 3001.65 852.001  20
   7   0 -11 32081.7 3145.87  36
   7   0 -11 24324.8 2389.86  23
   7   0 -11 24944.6 2596.44  20
   7   0 -11 28428.9 3165.91  27
   7   0 -11 37471.0 4242.78  32
   7   0 -11 17519.9 1451.64  41
   7   0 -10 26347.2 2967.60  36
   7   0 -10 18780.4 2223.39  23
   7   0 -10 20239.5 2532.36  24
   7   0 -10 21853.2 2495.24  20
   7   0 -10 23880.6 3083.74  27
   7   0 -10 30654.9 4093.15  32
   7   0 -10 16301.9 1460.16  41
   7   0  -9 20105.0 2687.58  40
   7   0  -9 16169.4 2354.47  36
   7   0  -9 11265.2 1836.19  20
   7   0  -9 15439.9 2206.82  22
   7   0  -9 14097.0 2282.95  24
   7   0  -9 15261.1 2507.45  27
   7   0  -9 11256.9 1375.37  28
   7   0  -9 12141.2 1293.70  41
   7   0  -8 14908.1 2574.58  40
   7   0  -8 12133.1 2038.05  36
   7   0  -8 11303.5 1838.43  20
   7   0  -8 11730.5 1792.29  23
   7   0  -8 13191.1 2319.09  22
   7   0  -8 11161.7 2138.15  24
   7   0  -8 13698.2 2498.21  27
   7   0  -8 10860.7 1444.56  28
   7   0  -8 10613.4 1237.93  41
   7   0  -8 10154.5 1226.90  56
   7   0  -7 9782.31 2287.45  40
   7   0  -7 6376.85 870.261  33
   7   0  -7 9356.56 1708.15  36
   7   0  -7 6041.75 1344.64  23
   7   0  -7 10968.0 2302.68  22
   7   0  -7 7494.80 1847.39  24
   7   0  -7 6388.66 1365.19  20
   7   0  -7 9356.94 2092.79  27
   7   0  -7 10229.7 2510.98  32
   7   0  -7 5987.68 1110.53  28
   7   0  -7 5096.67 886.916  41
   7   0  -7 5527.10 968.401  56
   7   0  -6 499.781 319.031  41
   7   0  -6 744.829 396.202  56
   7   0  -6 346.401 372.353  23
   7   0  -6 785.361 459.498  20
   7   0  -6 609.772 598.285  22
   7   0  -6 1352.83 856.086  24
   7   0  -6 968.123 537.345  36
   7   0  -6 344.822 676.643  40
   7   0  -6 671.262 428.451  28
   7   0  -6 201.069 195.183  33
   7   0  -6 563.363 872.001  32
  -7   0   6 444.094 234.280   1
  -7   0   6 68.6411 147.699   6
   7   0  -5 726.965 451.294  36
   7   0  -5-182.747 641.607  40
   7   0  -5 342.680 368.550  23
   7   0  -5 692.270 326.351  26
   7   0  -5 1040.61 745.721  21
   7   0  -5 829.853 460.770  20
   7   0  -5 1138.70 856.597  22
   7   0  -5 1249.48 844.160  24
   7   0  -5 633.519 416.246  28
   7   0  -5 741.562 860.954  32
   7   0  -5 875.841 388.238  41
   7   0  -5 740.188 412.244  56
   7   0  -5 911.918 444.101  54
   7   0  -4 3094.58 804.923  56
   7   0  -4 2563.92 763.418  54
   7   0  -4 3461.74 985.114  23
   7   0  -4 6247.89 1854.63  21
   7   0  -4 3569.16 1522.38  22
   7   0  -4 3835.74 954.283  20
   7   0  -4 3275.15 1300.24  24
   7   0  -4 5351.38 1868.72  40
   7   0  -4 2730.06 784.832  28
   7   0  -4 4249.21 1424.71  27
   7   0  -4 3158.78 630.993  26
   7   0  -4 2340.92 1342.41  32
  -7   0   4 2811.24 592.836   2
  -7   0   3 18578.3 1636.89   2
   7   0  -3 17104.4 2032.48  54
   7   0  -3 18411.3 1459.52  35
   7   0  -3 23804.5 3939.81  40
   7   0  -3 19466.5 2006.09  56
   7   0  -3 19612.6 3383.53  32
   7   0  -3 17484.9 1500.90  26
   7   0  -3 19583.8 2983.27  27
   7   0  -3 20492.8 2169.49  28
   7   0  -3 22555.8 3589.45  21
   7   0  -3 17387.4 2214.83  23
   7   0  -3 16821.7 1406.22  25
   7   0  -3 23785.7 3728.18  22
   7   0  -3 19056.6 3008.63  24
   7   0  -3 16005.1 1882.72  20
   7   0  -2 80590.3 7105.35  21
   7   0  -2 61412.2 4152.04  23
   7   0  -2 75507.1 6787.31  22
   7   0  -2 61322.5 2865.68  25
   7   0  -2 64741.1 2971.36  35
   7   0  -2 75762.2 7094.07  40
   7   0  -2 64445.7 3051.24  33
   7   0  -2 66285.2 6016.72  32
   7   0  -2 65292.0 3089.26  26
   7   0  -2 79567.4 6020.57  27
   7   0  -2 71808.4 4150.16  28
  -7   0   2 60856.8 3244.52   2
  -7   0   1 5216.16 886.317   2
   7   0  -1 6416.54 1243.42  54
   7   0  -1 6538.16 1190.85  56
   7   0  -1 6629.18 903.092  33
   7   0  -1 6716.02 879.203  35
   7   0  -1 8434.65 2420.08  40
   7   0  -1 8806.01 1999.77  32
   7   0  -1 6276.80 867.717  26
   7   0  -1 8177.41 1894.33  27
   7   0  -1 8257.30 1355.24  28
   7   0  -1 5249.84 1147.84  23
   7   0  -1 6270.19 827.250  25
   7   0  -1 7289.18 2052.92  21
   7   0  -1 9101.19 2347.61  22
  -7   0   0 19559.8 1855.77   2
   7   0   0 25999.1 2629.02  54
   7   0   0 28492.4 2481.70  56
   7   0   0 27966.9 1889.07  33
   7   0   0 29068.6 1901.39  35
   7   0   0 37450.5 3906.76  32
   7   0   0 35369.0 3791.40  27
   7   0   0 27023.4 1841.90  26
   7   0   0 31411.3 2689.10  28
   7   0   0 21818.2 2293.01  23
   7   0   0 28059.9 1730.94  25
   7   0   0 31569.1 3845.86  24
   7   0   1 1423.27 533.262  23
   7   0   1 1148.41 380.570  26
   7   0   1 3106.58 1322.64  21
   7   0   1 1271.70 360.877  25
   7   0   1 540.276 581.307  24
   7   0   1 1188.59 407.903  34
   7   0   1 1615.62 453.801  35
   7   0   1 1658.21 610.349  56
   7   0   1 1893.13 665.075  54
   7   0   1 2084.77 708.700  28
   7   0   1 2075.80 859.129  27
   7   0   1 1192.69 404.646  33
  -7   0  -1 958.981 454.009   2
   7   0   2 1442.35 507.216  23
   7   0   2 1254.12 394.055  26
   7   0   2 2486.45 1166.69  21
   7   0   2 1376.90 351.576  25
   7   0   2 2028.21 1110.33  22
   7   0   2 1681.63 936.561  24
   7   0   2 1285.48 412.103  34
   7   0   2 1811.73 479.884  35
   7   0   2 2853.96 1417.04  40
   7   0   2 1599.77 579.799  56
   7   0   2 2053.71 681.856  54
   7   0   2 1539.21 611.073  28
   7   0   2 1504.79 706.502  27
   7   0   2 1353.96 414.396  33
  -7   0  -2 1352.18 502.364   2
   7   0   3 9822.27 2289.87  21
   7   0   3 8210.83 824.370  25
   7   0   3 10015.3 2378.29  22
   7   0   3 9487.40 1975.73  24
   7   0   3 7427.72 957.989  35
   7   0   3 8093.03 979.600  33
   7   0   3 12356.8 2730.38  40
   7   0   3 7906.28 980.513  34
   7   0   3 9683.73 1370.12  56
   7   0   3 8298.66 1385.32  54
   7   0   3 7906.76 1579.69  27
   7   0   3 9040.92 991.237  26
  -7   0  -3 7923.45 978.248   5
   7   0   4 22108.6 1346.50  25
   7   0   4 32961.8 4055.88  22
   7   0   4 26546.6 3196.48  24
   7   0   4 24789.7 1768.90  35
   7   0   4 24158.7 1688.77  33
   7   0   4 29809.1 4142.35  40
   7   0   4 23210.5 1743.56  34
   7   0   4 31152.8 2371.11  56
   7   0   4 23042.4 1611.65  26
   7   0   4 26394.4 2733.39  27
  -7   0  -4 23455.1 1770.12   5
   7   0   5 23956.0 3292.21  22
   7   0   5 22791.5 2712.27  24
   7   0   5 17686.7 1469.82  35
   7   0   5 18082.6 1433.47  33
   7   0   5 19094.7 1560.06  34
   7   0   5 20547.3 1840.09  56
   7   0   5 18074.7 1379.12  26
   7   0   5 19822.3 2038.31  28
  -7   0  -5 17136.8 1539.40   5
   7   0   6 17193.1 2626.53  22
   7   0   6 12288.2 1331.31  56
   7   0   6 14338.8 1309.54  35
   7   0   6 13284.5 1182.84  33
   7   0   6 13042.4 1277.35  34
  -7   0  -6 16354.6 1418.13   5
   7   0   6 13885.1 1143.01  26
   7   0   6 15036.0 1696.16  28
   7   0   7 7578.34 924.281  35
   7   0   7 8476.43 888.350  33
   7   0   7 8739.33 844.483  26
   7   0   7 9257.02 1288.18  28
   7   0   8 3291.91 588.977  35
   7   0   8 2835.65 498.078  33
   7   0   8 3146.20 468.782  26
   7   0   8 3318.47 728.179  28
   7   0   9 1089.21 329.428  34
   7   0   9 959.363 312.418  35
  -7   0  -9 365.098 261.596   3
   7   0   9 1251.81 261.417  26
   7   0   9 1244.69 423.284  28
   7   0   9 1202.74 304.569  33
   7   0  10 2470.05 378.521  33
   7   0  10 2476.10 454.229  35
   7   0  10 2539.75 471.218  34
  -7   0 -10 942.551 307.363   3
   7   0  10 2382.35 503.343  28
   7   0  11 2757.82 347.450  33
   7   0  11 2798.43 437.944  35
   7   0  11 3051.62 467.707  34
   7   0  12 12035.3 796.178  35
   7   0  12 13686.5 852.063  34
   7   0  13 18068.5 790.948  35
   7   0  13 18691.4 798.441  34
   7   1 -15 730.710 256.228  20
   7   1 -14 9226.65 811.671  41
   7   1 -14 11576.4 1125.58  23
   7   1 -14 13218.8 1394.08  20
   7   1 -14 10158.7 1648.53  32
   7   1 -13 13305.5 1137.34  41
   7   1 -13 16543.2 1590.30  23
   7   1 -13 18608.5 2138.22  27
   7   1 -13 18598.8 2451.33  32
   7   1 -12 13478.4 1259.01  41
   7   1 -12 19365.9 2417.08  27
   7   1 -12 20268.5 2883.42  32
   7   1 -12 15489.3 1713.37  23
   7   1 -11 2177.82 946.508  27
   7   1 -11 3299.19 1277.19  32
   7   1 -11 1855.03 679.058  23
   7   1 -11 1827.99 708.369  20
   7   1 -11 1565.99 467.569  41
   7   1 -10 1500.99 835.553  27
   7   1 -10 922.693 809.737  32
   7   1 -10 517.444 410.360  23
   7   1 -10 167.225 328.262  20
   7   1 -10 583.052 417.857  24
   7   1 -10 392.723 276.281  41
   7   1  -9 321.568 373.386  23
   7   1  -9 177.203 311.112  20
   7   1  -9 567.748 406.873  22
   7   1  -9 339.352 443.995  24
   7   1  -9 373.198 534.852  27
   7   1  -9 364.922 168.689  29
  -7   1   9 589.886 226.070   6
   7   1  -9 283.464 248.886  41
   7   1  -9 980.526 573.682  40
   7   1  -8 1532.90 686.114  23
   7   1  -8 1828.77 770.691  20
   7   1  -8 2491.53 1020.90  22
   7   1  -8 3378.17 1203.41  24
   7   1  -8 1452.57 521.642  41
   7   1  -8 3818.47 1289.53  40
   7   1  -8 1785.53 645.180  28
   7   1  -8 2391.06 452.291  29
   7   1  -8 2620.17 1336.91  32
  -7   1   8 1604.61 445.332   6
   7   1  -7 17798.9 2852.96  22
   7   1  -7 16340.0 2722.88  24
   7   1  -7 10418.9 1802.90  20
   7   1  -7 16488.3 2977.66  40
   7   1  -7 12404.3 1126.36  33
   7   1  -7 11985.9 1453.81  41
   7   1  -7 12382.9 1084.13  29
   7   1  -7 15556.7 3051.78  32
   7   1  -7 10656.9 1540.62  28
  -7   1   7 7888.31 994.236   6
   7   1  -6 9500.17 2235.56  22
   7   1  -6 10140.5 2202.63  24
   7   1  -6 8702.85 1606.70  20
   7   1  -6 7747.46 906.629  33
   7   1  -6 8973.96 2292.10  40
   7   1  -6 7169.62 1141.65  41
   7   1  -6 7802.07 905.339  29
   7   1  -6 7603.55 1021.90  26
   7   1  -6 8145.19 1970.98  27
   7   1  -6 8432.01 2319.11  32
   7   1  -6 8274.70 1373.85  28
   7   1  -6 8403.95 966.913  30
  -7   1   6 5553.50 858.977   6
  -7   1   6 7317.85 960.582   1
   7   1  -5 29552.9 3013.84  23
   7   1  -5 31725.5 1955.47  25
   7   1  -5 36810.5 4473.84  22
   7   1  -5 38028.7 4341.69  24
   7   1  -5 30980.6 3047.79  20
   7   1  -5 38135.3 4570.87  21
   7   1  -5 48370.1 5434.20  40
   7   1  -5 35100.8 2010.45  33
   7   1  -5 30633.0 2400.27  41
   7   1  -5 29104.3 1837.68  29
   7   1  -5 31228.0 2118.49  26
   7   1  -5 33753.6 4457.82  32
   7   1  -5 36653.1 4092.60  27
   7   1  -5 36677.1 2888.91  28
   7   1  -5 31435.1 1957.98  30
   7   1  -4 28187.4 3014.24  23
   7   1  -4 32496.2 2002.29  25
   7   1  -4 39766.9 4457.08  24
   7   1  -4 38367.1 4670.56  22
   7   1  -4 31661.4 3021.38  20
   7   1  -4 45265.9 5177.30  21
   7   1  -4 37506.2 4937.48  40
   7   1  -4 31148.6 1967.41  33
   7   1  -4 31157.4 2518.16  56
   7   1  -4 29859.6 2706.74  54
   7   1  -4 30359.9 1928.12  29
   7   1  -4 32662.8 4347.19  32
   7   1  -4 33748.7 3936.35  27
   7   1  -4 32740.8 2165.20  26
   7   1  -4 32332.6 2778.92  28
   7   1  -4 32342.7 2055.11  30
  -7   1   4 28212.6 2064.11   2
   7   1  -3 4309.02 1159.84  23
   7   1  -3 5815.94 1834.58  21
   7   1  -3 3047.88 596.226  25
   7   1  -3 2691.16 823.764  20
   7   1  -3 2785.35 1401.81  22
   7   1  -3 4761.15 1843.63  40
   7   1  -3 4205.74 695.097  33
   7   1  -3 3459.15 841.506  56
   7   1  -3 3750.31 933.406  54
   7   1  -3 3239.59 1226.68  27
   7   1  -3 2413.82 555.700  29
   7   1  -3 3047.32 879.243  28
   7   1  -3 4060.26 1426.87  32
   7   1  -3 3809.12 718.806  26
   7   1  -3 3107.86 639.020  30
  -7   1   3 3669.45 701.952   2
   7   1  -2 788.299 533.019  23
   7   1  -2 776.231 354.708  26
   7   1  -2 2279.59 1155.16  21
   7   1  -2 1723.42 605.386  20
   7   1  -2 1237.23 379.754  25
   7   1  -2 885.211 932.441  22
   7   1  -2 1209.85 936.597  40
   7   1  -2 748.972 537.140  27
   7   1  -2 1046.11 534.032  28
   7   1  -2 1071.88 374.805  33
   7   1  -2 1302.33 415.050  29
   7   1  -2 2262.45 1025.50  32
  -7   1   2 1239.89 419.165   2
   7   1  -1 8093.22 1533.96  23
   7   1  -1 8911.78 995.179  25
   7   1  -1 10136.2 2482.86  22
   7   1  -1 7714.84 1965.50  24
   7   1  -1 9728.06 2442.91  21
   7   1  -1 7648.21 828.752  35
   7   1  -1 7469.37 968.090  33
   7   1  -1 8304.89 2442.94  40
   7   1  -1 8806.26 1347.93  56
   7   1  -1 7517.11 1389.61  54
   7   1  -1 6107.78 1565.35  27
   7   1  -1 8765.96 1915.58  32
   7   1  -1 9058.83 1460.96  28
   7   1  -1 8197.50 1047.18  26
   7   1  -1 8606.69 1049.10  30
  -7   1   1 7593.07 1092.98   2
   7   1   0 14595.3 1995.36  23
   7   1   0 16929.0 1372.37  25
   7   1   0 16827.2 2834.03  24
   7   1   0 15069.9 1211.32  35
   7   1   0 15179.9 1244.80  34
   7   1   0 15964.4 1833.63  56
   7   1   0 20225.2 2205.34  54
   7   1   0 12609.8 2133.77  27
   7   1   0 18100.4 1525.37  30
   7   1   0 15985.9 1454.22  26
  -7   1   0 15220.6 1585.95   2
   7   1   1 16133.9 2103.01  23
   7   1   1 18631.9 1412.87  25
   7   1   1 24083.4 3680.39  22
   7   1   1 18163.2 2856.37  24
   7   1   1 19607.0 3378.62  21
   7   1   1 17630.4 1322.11  35
   7   1   1 18763.1 3554.38  40
   7   1   1 16607.0 1337.12  34
   7   1   1 20892.0 2058.61  56
   7   1   1 20503.7 2255.98  54
   7   1   1 14985.1 2214.16  27
   7   1   1 17502.2 2007.96  28
   7   1   1 18586.8 1535.05  30
   7   1   1 19205.5 1602.93  26
  -7   1  -1 15396.1 1621.71   2
   7   1   2 11302.0 1072.18  25
   7   1   2 11076.4 2578.24  22
   7   1   2 11759.6 2232.93  24
   7   1   2 14136.3 2854.43  21
   7   1   2 10273.6 1578.17  23
   7   1   2 10448.0 1026.13  35
   7   1   2 11668.4 2757.77  40
   7   1   2 11642.1 1126.74  34
   7   1   2 11449.4 1504.25  56
   7   1   2 11387.1 1661.94  54
   7   1   2 10407.3 1161.53  26
   7   1   2 11322.1 1771.67  27
   7   1   2 13186.1 1712.53  28
   7   1   2 11817.6 1188.85  30
  -7   1  -2 10589.3 1332.88   2
   7   1   3 12512.3 1271.17  26
   7   1   3 12519.9 1642.11  28
   7   1   3 11896.4 1186.24  30
   7   1   3 13598.4 1150.64  25
   7   1   3 14553.0 2776.90  22
   7   1   3 12269.6 2197.39  24
   7   1   3 16807.5 3006.69  21
   7   1   3 12061.0 1109.02  35
   7   1   3 20310.2 3513.05  40
   7   1   3 12230.5 1221.30  33
   7   1   3 12742.6 1204.73  34
  -7   1  -4 10762.5 1128.64   5
   7   1   4 12018.4 1204.85  26
   7   1   4 11673.3 1559.21  28
   7   1   4 15945.4 2802.06  22
   7   1   4 11283.7 1008.18  25
   7   1   4 12107.5 2037.31  24
   7   1   4 10028.9 1014.97  35
   7   1   4 15531.0 2974.26  40
   7   1   4 10917.0 1128.42  33
   7   1   4 10604.3 1103.48  34
  -7   1  -5 1562.61 419.224   5
   7   1   5 964.188 478.262  28
   7   1   5 1393.67 412.818  33
   7   1   5 1327.73 401.860  26
   7   1   5 1625.59 365.695  25
   7   1   5 2700.04 1060.00  22
   7   1   5 1325.47 408.129  34
   7   1   5 1704.95 981.227  40
   7   1   5 1237.22 363.058  35
  -7   1  -6 1561.98 418.948   5
   7   1   6 1504.21 539.254  28
   7   1   6 1389.46 400.591  33
   7   1   6 1026.71 343.617  26
   7   1   6 1229.70 299.373  25
   7   1   6 2335.92 917.117  22
   7   1   6 1297.36 387.044  34
   7   1   6 2016.37 944.081  40
   7   1   6 1234.88 360.982  35
   7   1   7 5084.73 696.804  35
   7   1   7 4685.22 686.554  33
   7   1   7 5781.77 784.555  34
   7   1   7 5064.33 724.331  26
   7   1   7 5314.07 905.720  28
   7   1   8 18039.8 1282.32  35
   7   1   8 19095.9 1351.47  33
   7   1   8 17904.4 1368.97  34
   7   1   8 20612.2 1389.80  26
   7   1   8 18368.0 1568.12  28
   7   1   9 21339.3 1305.33  35
   7   1   9 24749.6 1441.01  33
   7   1   9 23642.7 1484.23  34
   7   1   9 23419.0 1377.51  26
   7   1  10 10629.9 842.450  35
   7   1  10 12499.6 923.032  33
  -7   1 -10 4911.76 563.840   3
   7   1  10 11381.0 851.184  26
  -7   1 -10 5805.51 758.221  18
   7   1  11 3799.03 448.715  35
   7   1  11 4233.88 469.990  33
  -7   1 -11 1606.22 267.149   3
   7   1  11 4327.00 448.035  26
  -7   1 -11 1484.21 376.159  18
   7   1  12 3155.70 347.536  35
   7   1  12 4161.73 388.039  33
   7   1  13 1243.74 202.478  34
   7   2 -14 879.116 277.708  20
   7   2 -13 223.367 369.666  32
   7   2 -13 368.097 172.804  23
   7   2 -13 345.205 283.449  20
   7   2 -12 4098.73 1259.67  32
   7   2 -12 1945.44 550.924  23
   7   2 -12 3080.84 792.039  20
   7   2 -11 7596.71 1197.77  23
  -7   2  11 5904.15 570.601  17
   7   2 -10 8708.41 1362.13  23
   7   2 -10 10426.9 1624.67  20
   7   2 -10 11729.5 859.489  29
   7   2  -9 3499.59 922.556  23
   7   2  -9 2473.71 841.883  20
   7   2  -9 3530.33 1225.67  27
   7   2  -9 3200.64 497.651  29
  -7   2   9 1602.50 371.251   7
  -7   2   9 3064.60 529.396   6
  -7   2   8 15325.1 1324.11   6
   7   2  -8 17267.8 2136.74  23
   7   2  -8 24363.5 2951.68  22
   7   2  -8 21576.2 3023.55  24
   7   2  -8 16766.6 2211.64  20
   7   2  -8 20079.6 1369.99  29
   7   2  -8 20907.9 2931.43  27
   7   2  -8 23508.7 3528.59  32
  -7   2   7 11357.6 1162.36   6
   7   2  -7 12464.7 1113.07  29
   7   2  -7 13874.7 2388.90  27
   7   2  -7 13423.3 2744.07  32
   7   2  -7 10151.3 1509.83  28
   7   2  -7 12451.7 1083.34  30
   7   2  -7 9913.04 1671.36  23
   7   2  -7 13410.0 2441.28  22
   7   2  -7 12644.3 2443.71  24
   7   2  -7 8419.86 1601.25  20
  -7   2   6 6118.04 886.960   6
   7   2  -6 7780.36 907.759  29
   7   2  -6 8797.53 1936.13  27
   7   2  -6 6939.43 1988.59  32
   7   2  -6 6697.39 1243.94  28
   7   2  -6 7482.96 889.638  30
   7   2  -6 6526.20 1391.45  23
   7   2  -6 8662.03 945.967  25
   7   2  -6 9930.11 2156.90  24
   7   2  -6 6650.75 1432.56  20
   7   2  -6 8574.24 2040.08  22
   7   2  -6 11851.6 2537.20  40
   7   2  -6 7108.93 767.642  33
  -7   2   5 3610.93 772.299   6
   7   2  -5 7064.26 887.967  29
   7   2  -5 7266.26 1718.69  27
   7   2  -5 5902.07 1797.48  32
   7   2  -5 6365.40 1206.54  28
   7   2  -5 6317.57 834.556  30
   7   2  -5 6615.86 1409.66  23
   7   2  -5 11735.7 2469.69  22
   7   2  -5 6814.32 852.459  25
   7   2  -5 8667.54 2030.26  24
   7   2  -5 7783.08 1500.66  20
   7   2  -5 8263.41 2312.90  40
   7   2  -5 6937.17 791.897  33
  -7   2   4 5407.04 922.044   6
   7   2  -4 12219.4 1184.46  29
   7   2  -4 8860.23 1899.65  27
   7   2  -4 12035.0 2460.44  32
   7   2  -4 10654.0 1565.88  28
   7   2  -4 11619.6 1157.13  30
   7   2  -4 11264.9 2518.43  22
   7   2  -4 10609.3 1709.11  20
   7   2  -4 13735.9 2938.89  40
   7   2  -4 10334.7 995.049  33
  -7   2   3 5297.07 908.093   6
   7   2  -3 13460.0 2966.91  40
   7   2  -3 9785.45 1001.03  33
   7   2  -3 10118.1 1747.40  23
   7   2  -3 13187.4 2723.01  22
   7   2  -3 9803.91 1604.67  20
   7   2  -3 9042.21 1869.81  27
   7   2  -3 11948.1 2364.74  32
   7   2  -3 9863.69 1084.56  30
   7   2  -2 43382.9 2277.65  33
   7   2  -2 56655.7 6168.44  40
   7   2  -2 49811.3 3915.15  23
   7   2  -2 52413.9 5546.30  22
   7   2  -2 49883.2 2469.80  25
   7   2  -2 39330.5 3185.70  20
   7   2  -2 36412.2 4318.91  24
   7   2  -2 33090.5 3537.72  27
   7   2  -2 49696.1 4694.15  32
   7   2  -2 43604.8 3336.36  28
   7   2  -2 51028.6 2717.44  26
   7   2  -1 2283.84 508.684  33
   7   2  -1 2955.88 1468.15  40
   7   2  -1 2315.56 843.207  23
   7   2  -1 2303.66 520.114  25
   7   2  -1 2736.84 1309.52  22
   7   2  -1 2091.29 1039.32  24
   7   2  -1 2111.21 791.545  27
   7   2  -1 2117.56 521.830  30
   7   2  -1 3040.76 606.204  29
   7   2  -1 2186.61 699.533  28
   7   2  -1 2923.61 631.709  26
   7   2   0 5218.41 755.422  33
   7   2   0 4965.67 767.521  39
   7   2   0 4772.74 1194.46  23
   7   2   0 5044.11 750.769  25
   7   2   0 4691.30 1528.42  24
   7   2   0 5973.37 840.579  29
   7   2   0 6092.71 1148.40  28
   7   2   0 4723.20 768.552  30
   7   2   0 5919.89 894.031  26
   7   2   1 561.464 278.134  39
   7   2   1 191.017 670.546  40
   7   2   1 584.414 463.439  23
   7   2   1 876.066 360.107  26
   7   2   1 434.579 255.689  25
   7   2   1 663.283 770.026  22
   7   2   1 758.943 587.416  24
   7   2   1 623.862 310.295  30
   7   2   1 62.7071 269.727  28
   7   2   1 323.558 241.091  33
   7   2   1 581.485 281.716  29
   7   2   2 2388.67 1290.68  40
   7   2   2 2148.89 498.065  39
   7   2   2 1993.04 513.156  26
   7   2   2 2384.43 507.283  25
   7   2   2 2230.07 1119.14  22
   7   2   2 2701.42 1010.84  24
   7   2   2 2095.09 665.931  28
   7   2   2 1724.06 455.332  33
   7   2   2 2493.30 533.412  30
   7   2   3 10575.6 2535.24  40
   7   2   3 9541.72 1032.84  33
   7   2   3 9409.80 1001.41  39
   7   2   3 9579.87 904.360  34
   7   2   3 12924.1 2551.22  22
   7   2   3 9244.97 968.844  25
   7   2   3 9289.78 1805.82  24
   7   2   3 10204.7 1138.81  26
   7   2   3 8682.07 1288.88  28
   7   2   3 9617.61 1027.15  30
   7   2   4 17533.4 3092.01  40
   7   2   4 15126.7 1210.86  39
   7   2   4 14067.8 1245.36  33
   7   2   4 13429.3 1107.32  34
   7   2   4 16145.7 2767.33  22
   7   2   4 15635.1 1230.11  25
   7   2   4 13195.7 1292.12  26
   7   2   4 13623.6 1533.90  28
   7   2   4 16299.9 1280.27  30
   7   2   5 12195.3 1066.82  34
   7   2   5 14847.6 1324.15  26
   7   2   5 13882.7 1475.41  28
   7   2   5 13688.8 1122.16  30
   7   2   5 15913.9 2558.28  22
   7   2   5 15017.0 1148.67  25
   7   2   6 20079.8 1374.53  34
  -7   2  -6 16516.5 1317.63  18
   7   2   6 21854.7 1573.10  26
   7   2   6 27323.6 3056.97  22
   7   2   6 23965.6 1375.89  25
   7   2   7 5853.20 711.128  34
  -7   2  -7 5043.40 706.822  18
   7   2   7 7313.46 851.998  26
   7   2   7 7378.21 680.167  25
   7   2   8 3927.55 574.301  33
   7   2   8 3725.93 539.088  34
  -7   2  -8 2507.71 509.779  18
   7   2   8 4056.77 598.142  26
   7   2   8 4120.20 446.320  25
   7   2   9 4944.97 616.892  26
   7   2   9 4377.28 562.187  33
   7   2   9 5129.44 596.681  34
  -7   2  -9 3890.83 572.072  18
   7   2  10 1860.70 342.931  26
   7   2  10 1511.57 306.600  33
   7   2  10 1669.40 316.536  34
  -7   2 -10 677.743 255.791  18
   7   2  11 7243.22 572.029  26
   7   2  11 7484.46 586.423  33
   7   2  11 7279.96 574.875  34
   7   3 -12 9265.08 1045.18  20
   7   3 -11 9363.25 602.005  29
   7   3 -11 10300.9 1264.90  20
  -7   3  11 7970.71 595.297  17
   7   3 -10 3437.13 706.642  23
  -7   3  10 2223.51 348.999   7
   7   3  -9 301.557 292.656  23
   7   3  -9 307.187 373.600  20
  -7   3   9 273.045 167.869   7
   7   3  -9 604.412 213.837  29
   7   3  -9 437.914 576.472  32
   7   3  -8 6317.31 1136.86  23
   7   3  -8 5860.78 1176.71  20
   7   3  -8 7959.21 789.830  29
   7   3  -8 7868.04 1828.02  32
  -7   3   8 4341.08 605.510   7
   7   3  -7 5959.70 1181.11  23
   7   3  -7 6658.26 1294.26  20
   7   3  -7 6981.60 775.437  29
   7   3  -7 6396.94 1766.01  32
   7   3  -7 6484.19 688.805  30
  -7   3   7 5651.25 593.526   8
  -7   3   7 6962.04 816.791   6
   7   3  -6 15538.6 1965.90  23
   7   3  -6 23005.6 1373.68  25
   7   3  -6 20530.4 2300.55  20
   7   3  -6 18579.8 2911.46  32
   7   3  -6 23921.6 1455.08  30
  -7   3   6 19063.8 1240.98   8
  -7   3   6 20070.3 1487.59   6
  -7   3   5 13367.2 1243.76   6
   7   3  -5 12739.7 1814.47  23
   7   3  -5 17238.1 1217.61  25
   7   3  -5 13714.2 1914.46  20
   7   3  -5 15883.3 1302.90  26
   7   3  -5 18447.2 2833.45  32
   7   3  -5 16433.9 1255.35  30
   7   3  -4 5679.24 712.753  25
   7   3  -4 5175.37 1166.31  20
   7   3  -4 5791.83 1258.52  23
   7   3  -4 5734.46 768.334  29
   7   3  -4 5274.74 751.865  26
   7   3  -4 4406.63 1329.32  32
   7   3  -4 6113.09 780.574  30
   7   3  -3 13591.5 1142.40  25
   7   3  -3 11350.5 1679.28  20
   7   3  -3 10471.6 1713.16  23
   7   3  -3 14248.2 1213.26  29
   7   3  -3 13857.8 2374.22  32
   7   3  -3 13580.0 1226.01  26
   7   3  -3 12015.6 1557.17  28
   7   3  -3 13273.0 1196.22  30
  -7   3   2 3445.27 684.232   6
   7   3  -2 7892.01 891.135  29
   7   3  -2 4980.06 1004.68  28
   7   3  -2 6599.77 856.679  26
   7   3  -2 5965.38 1158.24  20
   7   3  -2 6849.98 1959.09  22
   7   3  -2 5469.25 1577.28  24
  -7   3   1 3919.07 727.876   6
   7   3  -1 9956.54 1004.59  29
   7   3  -1 6997.89 1168.91  28
   7   3  -1 8793.22 997.542  26
   7   3  -1 8232.58 941.759  30
   7   3  -1 11993.1 2430.29  22
   7   3  -1 6111.02 1608.49  24
   7   3  -1 7506.32 889.559  39
   7   3  -1 7376.00 743.990  33
   7   3   0 12819.8 1138.81  29
   7   3   0 8576.52 1253.31  28
   7   3   0 12669.0 1185.40  26
   7   3   0 11520.6 1119.16  30
   7   3   0 11351.5 1060.47  25
   7   3   0 10844.3 925.325  33
   7   3   0 10403.3 1048.47  39
   7   3   1 5813.25 742.626  29
   7   3   1 3043.50 717.278  28
   7   3   1 3764.74 639.710  30
   7   3   1 4390.57 712.819  26
   7   3   1 3873.39 608.316  25
   7   3   1 4226.65 579.269  33
   7   3   1 4044.03 650.220  39
   7   3   2 33635.3 1809.12  30
   7   3   2 30092.7 1794.90  26
   7   3   2 30284.8 1691.46  25
   7   3   2 28531.9 1550.35  33
   7   3   2 29422.2 1699.88  39
   7   3   3 34800.9 1673.97  33
   7   3   3 37739.0 1837.29  39
   7   3   3 37839.5 1812.50  25
   7   3   3 40648.3 1894.29  30
   7   3   4 6559.18 732.600  33
   7   3   4 7732.78 805.564  39
   7   3   4 7230.45 780.448  25
   7   3   4 7632.13 788.212  30
   7   3   5 228.493 163.152  39
   7   3   5 196.530 171.503  25
   7   3   5 427.924 193.209  30
   7   3   5 404.578 205.067  33
   7   3   6 7567.80 711.032  25
   7   3   6 6328.57 678.324  33
   7   3   7 3949.79 465.681  25
   7   3   7 3462.18 473.682  33
   7   3   8 12400.4 730.431  25
   7   3   8 10145.9 782.172  33
   7   3   9 6796.70 607.921  26
   7   3   9 6280.87 551.775  33
   7   3  10 5100.20 449.935  26
   7   3  10 5347.24 429.681  33
  -7   4   9 1372.47 231.625  17
   7   4  -9 1956.76 272.796  29
  -7   4   8 10305.5 727.626   7
  -7   4   7 1965.74 347.841   7
  -7   4   7 2050.30 279.142   8
   7   4  -6 247.349 135.227  30
   7   4  -6 345.694 183.512  29
  -7   4   6 249.012 126.270   8
  -7   4   6 216.009 150.319   7
   7   4  -5 106.836 125.033  30
   7   4  -5 156.432 145.625  29
  -7   4   5 149.137 119.942   8
  -7   4   5 129.037 125.214   7
  -7   4   4 6358.93 717.789   7
  -7   4   4 7302.62 701.363   8
   7   4  -4 9476.99 806.824  29
   7   4  -4 8821.75 787.635  30
   7   4  -4 8118.19 667.374  25
  -7   4   4 6653.92 782.572  59
  -7   4   3 3373.78 496.913   8
  -7   4   3 3698.89 611.966  59
   7   4  -3 4073.41 500.558  25
   7   4  -3 4968.11 588.074  29
   7   4  -3 4010.04 550.899  30
  -7   4   2 17863.9 1420.74  59
   7   4  -2 22591.1 1296.38  29
   7   4  -2 19796.4 1160.21  26
   7   4  -2 20149.9 1184.28  25
   7   4  -1 17777.3 1110.08  29
   7   4  -1 14995.9 1017.55  26
   7   4  -1 14776.3 1092.26  30
   7   4  -1 14691.3 1012.19  25
   7   4   0 6684.68 667.399  26
   7   4   0 6469.86 712.324  30
   7   4   0 6615.56 672.489  25
  -7   4  -1 183.492 169.776  59
   7   4   1 232.298 161.604  30
   7   4   1 284.139 152.402  26
   7   4   1 21.1946 189.713  39
  -7   4  -2 227.635 141.295  59
   7   4   2 270.544 143.938  30
   7   4   2 92.2269 107.429  26
   7   4   2 180.366 126.868  39
   7   4   3 5751.34 592.572  26
   7   4   3 7283.86 643.621  30
   7   4   3 5859.93 599.631  25
   7   4   3 6441.95 637.110  39
   7   4   4 3164.48 424.209  26
   7   4   4 3273.02 398.496  30
   7   4   4 4383.73 493.474  25
   7   4   4 4475.66 495.770  39
   7   4   5 10301.6 724.910  26
   7   4   5 11455.4 760.386  25
   7   4   6 8900.14 625.398  26
   7   4   6 12930.0 732.410  25
   8  -3  -8 6342.06 1030.76  32
   8  -3  -7 7290.22 1281.05  32
   8  -3  -6 8550.24 1402.60  32
   8  -3  -6 9218.95 1183.62  27
   8  -3  -6 6378.67 939.331  22
   8  -3  -6 7660.50 1071.14  40
   8  -3  -5 3887.61 844.231  27
   8  -3  -5 2929.03 906.512  32
   8  -3  -5 5308.46 1012.49  22
   8  -3  -5 4168.49 795.074  24
   8  -3  -5 4395.11 1000.61  40
   8  -3  -4 4457.04 968.621  32
   8  -3  -4 5996.46 1092.14  27
   8  -3  -4 5196.50 1154.38  22
   8  -3  -4 4631.04 955.634  24
   8  -3  -4 5685.39 1264.59  40
   8  -3  -3 1558.02 619.381  27
   8  -3  -3 1623.75 559.610  32
   8  -3  -3 1708.82 695.688  22
   8  -3  -3 1450.11 571.765  24
   8  -3  -3 776.954 525.620  40
   8  -3  -2 447.389 372.427  27
   8  -3  -2 900.233 574.787  22
   8  -3  -2 1333.30 568.441  24
   8  -3  -2 1274.97 639.558  40
   8  -3  -1 257.313 319.347  27
   8  -3  -1 130.240 228.605  24
   8  -3  -1 182.927 393.214  40
   8  -3   0 19349.0 2048.58  24
   8  -3   1 15967.5 1784.55  27
   8  -3   1 14618.4 1966.90  22
   8  -3   1 15362.7 2146.10  40
   8  -3   2 10801.2 1402.86  27
   8  -3   2 8059.52 714.054  28
   8  -3   2 11096.5 1610.30  22
   8  -3   2 10893.9 1441.91  24
   8  -3   2 11843.8 1753.26  40
   8  -3   3 2148.59 580.570  27
   8  -3   3 1387.97 277.739  28
   8  -3   3 1636.45 543.421  22
   8  -3   3 1900.21 568.158  24
   8  -3   3 1457.65 534.424  40
   8  -3   4 5145.75 762.810  27
   8  -3   4 3827.22 486.463  28
   8  -3   4 4138.42 726.380  24
   8  -2 -10 19835.5 2082.53  32
   8  -2  -9 7187.47 1067.45  27
   8  -2  -9 5983.10 866.371  36
   8  -2  -8 19767.0 2480.03  32
   8  -2  -8 16488.7 1852.45  27
   8  -2  -7 1694.39 679.797  27
   8  -2  -7 2076.73 919.234  32
   8  -2  -7 1500.70 539.057  22
   8  -2  -7 1814.11 564.200  24
   8  -2  -7 3233.08 846.571  40
   8  -2  -6 940.411 550.855  27
   8  -2  -6 1562.38 817.990  32
   8  -2  -6 2037.38 729.830  22
   8  -2  -6 975.241 547.453  24
   8  -2  -6 1923.23 804.137  40
   8  -2  -5 7917.03 949.500  56
   8  -2  -5 8760.11 1796.82  40
   8  -2  -5 8904.86 1821.56  32
   8  -2  -5 8732.97 1603.33  27
   8  -2  -5 8879.96 1709.41  22
   8  -2  -5 7815.25 1469.78  24
   8  -2  -4 1176.03 772.568  40
   8  -2  -4 1096.66 381.851  56
   8  -2  -4 1313.90 652.567  27
   8  -2  -4 1251.11 684.975  32
   8  -2  -4 740.605 643.584  22
   8  -2  -4 682.794 540.501  24
   8  -2  -3 8043.14 1045.32  56
   8  -2  -3 7001.60 1517.61  32
   8  -2  -3 7285.46 844.995  28
   8  -2  -3 9917.11 1964.75  22
   8  -2  -3 8692.97 1674.76  24
   8  -2  -3 9039.04 1952.75  40
   8  -2  -2 15208.0 1339.68  28
   8  -2  -2 19242.7 2753.70  22
   8  -2  -2 19531.8 2472.48  24
   8  -2  -2 21841.5 3090.17  40
   8  -2  -1 15898.4 1615.92  57
   8  -2  -1 12918.3 1367.31  56
   8  -2  -1 20996.8 2494.92  27
   8  -2  -1 14160.5 1327.74  28
   8  -2  -1 17162.2 2612.77  22
   8  -2  -1 16614.4 2267.98  24
   8  -2  -1 20583.6 2981.72  40
   8  -2   0 11861.6 1867.74  27
   8  -2   0 9622.03 1116.64  28
   8  -2   0 11092.7 1336.20  57
   8  -2   0 10792.2 1229.09  56
   8  -2   1 2511.53 583.062  56
   8  -2   1 2416.49 557.281  28
   8  -2   1 2948.09 910.728  27
   8  -2   1 3206.12 1132.79  22
   8  -2   1 2976.52 985.421  24
   8  -2   1 4071.91 1370.78  40
   8  -2   2 3386.62 655.804  56
   8  -2   2 4467.87 1320.44  40
   8  -2   2 4359.78 1082.29  27
   8  -2   2 3247.99 660.188  28
   8  -2   2 3185.29 1084.44  22
   8  -2   2 3423.31 993.735  24
   8  -2   3 25639.0 1516.07  35
   8  -2   3 30823.4 3279.21  40
   8  -2   3 26431.6 1754.12  56
   8  -2   3 32093.5 3170.02  22
   8  -2   3 30397.0 2750.22  24
   8  -2   3 29995.7 2598.67  27
   8  -2   3 23990.0 1784.60  28
   8  -2   4 4905.67 606.443  35
   8  -2   4 6027.53 1323.76  40
   8  -2   4 5945.02 1261.76  22
   8  -2   4 5783.56 1125.51  24
   8  -2   4 6442.21 1081.56  27
   8  -2   4 5518.78 802.382  28
   8  -2   5 9892.78 821.306  35
   8  -2   5 10819.6 1338.47  24
   8  -2   5 9692.43 1025.41  28
   8  -2   6 8365.11 704.286  35
   8  -2   6 7882.26 871.297  28
   8  -2   7 4563.76 477.094  35
   8  -2   7 4098.27 583.814  28
   8  -2   8 285.500 106.771  35
   8  -1 -11 7392.50 897.452  23
   8  -1 -11 9576.36 1223.09  27
   8  -1 -10 1934.08 494.763  23
   8  -1 -10 2487.06 721.347  27
   8  -1  -9 1530.75 480.248  23
   8  -1  -9 3036.52 673.135  24
   8  -1  -9 4279.65 1035.34  27
   8  -1  -8 5551.11 1101.73  40
   8  -1  -8 6652.31 1381.26  27
   8  -1  -8 6079.89 1572.34  32
   8  -1  -8 3981.34 799.676  23
   8  -1  -8 6071.07 1098.30  22
   8  -1  -8 6000.99 1158.75  24
   8  -1  -7 4362.47 1154.69  40
   8  -1  -7 1037.18 314.896  56
   8  -1  -7 3654.00 1099.90  27
   8  -1  -7 3142.44 1200.64  32
   8  -1  -7 2766.05 687.880  23
   8  -1  -7 5398.26 1222.42  22
   8  -1  -7 5540.54 1239.09  24
   8  -1  -6 16506.5 2585.87  40
   8  -1  -6 11002.0 1192.21  56
   8  -1  -6 13120.4 2404.68  32
   8  -1  -6 12362.3 2035.98  27
   8  -1  -6 10226.4 1090.90  28
   8  -1  -6 10479.8 1326.37  23
   8  -1  -6 15804.6 2390.06  22
   8  -1  -6 16085.5 2231.08  24
   8  -1  -5 42948.0 4352.16  40
   8  -1  -5 29162.4 2068.79  56
   8  -1  -5 36016.7 3934.08  32
   8  -1  -5 28839.9 2002.85  28
   8  -1  -5 24688.1 2060.70  23
   8  -1  -5 37476.6 3856.86  22
   8  -1  -5 36498.8 3545.60  24
   8  -1  -4 16482.8 2819.86  40
   8  -1  -4 9888.22 1230.82  56
   8  -1  -4 10763.5 2115.95  32
   8  -1  -4 10586.4 1253.94  28
   8  -1  -4 12419.3 2333.55  22
   8  -1  -4 13332.5 2178.01  24
   8  -1  -3 299.621 587.987  40
   8  -1  -3 376.593 274.162  56
   8  -1  -3 363.990 288.056  28
   8  -1  -3 105.390 370.041  27
   8  -1  -3 554.821 258.329  33
   8  -1  -3 460.714 404.390  32
   8  -1  -3 1467.87 876.335  22
   8  -1  -3 1209.52 722.118  24
   8  -1  -2 953.645 435.515  28
   8  -1  -2 1553.44 813.203  27
   8  -1  -2 1083.69 341.749  33
   8  -1  -2 1920.86 993.138  22
   8  -1  -2 1678.05 833.338  24
   8  -1  -2 1078.74 897.348  40
   8  -1  -1 4617.46 881.696  56
   8  -1  -1 4497.47 1565.50  40
   8  -1  -1 3739.37 596.397  33
   8  -1  -1 3164.43 740.428  28
   8  -1  -1 3131.06 1066.42  27
   8  -1  -1 4416.76 1514.77  22
   8  -1   0 7904.86 877.791  35
   8  -1   0 7333.83 815.690  33
   8  -1   0 8058.73 1714.73  24
   8  -1   0 7720.99 1587.54  27
   8  -1   0 6590.29 1066.53  28
   8  -1   0 7895.38 1131.19  56
   8  -1   1 11313.0 1057.57  35
   8  -1   1 16047.7 2792.50  40
   8  -1   1 10096.3 939.144  33
   8  -1   1 11918.0 2310.09  22
   8  -1   1 10987.4 1954.70  24
   8  -1   1 12236.9 1915.50  27
   8  -1   1 11458.3 1399.32  28
   8  -1   1 11015.9 1312.22  56
   8  -1   2 25569.4 1621.42  35
   8  -1   2 34864.7 4021.21  40
   8  -1   2 25415.1 1499.08  33
   8  -1   2 32385.8 3690.73  22
   8  -1   2 29439.1 3084.16  24
   8  -1   2 27038.3 2745.83  27
   8  -1   2 27259.5 2162.58  28
   8  -1   2 27072.1 2036.56  56
   8  -1   3 6120.67 759.888  35
   8  -1   3 7870.49 1855.32  40
   8  -1   3 6331.69 681.119  33
   8  -1   3 7179.42 1652.46  22
   8  -1   3 7588.50 1505.67  24
   8  -1   3 6909.52 1250.10  27
   8  -1   3 5810.21 989.735  28
   8  -1   3 5904.03 894.394  56
   8  -1   4 302.126 187.636  35
   8  -1   4 334.334 479.161  40
   8  -1   4 587.597 454.811  22
   8  -1   4 746.359 434.514  24
   8  -1   4 402.477 293.770  28
   8  -1   4 344.056 161.076  33
   8  -1   4 413.008 209.394  56
   8  -1   5 444.669 209.544  35
   8  -1   5 725.699 450.346  40
   8  -1   5 159.375 197.896  22
   8  -1   5 247.693 261.313  28
   8  -1   5 328.603 147.183  33
   8  -1   6 869.710 266.758  35
   8  -1   6 1181.69 227.996  33
   8  -1   7 7232.85 682.239  35
   8  -1   7 8214.92 926.230  28
   8  -1   8 8488.65 682.223  35
   8  -1   8 8167.56 843.303  28
   8  -1   9 11380.0 838.805  28
   8   0 -12 4360.64 664.832  23
   8   0 -12 5904.70 924.151  27
   8   0 -12 6178.73 1171.41  32
   8   0 -11 408.237 206.889  20
   8   0 -11 169.893 263.008  27
   8   0 -11 78.3238 363.724  32
   8   0 -10 9704.98 1244.67  24
   8   0 -10 10653.1 1236.90  20
   8   0  -9 6645.81 1078.32  23
   8   0  -9 6916.07 1294.34  24
   8   0  -9 4765.05 861.058  20
   8   0  -9 9038.84 1639.23  27
   8   0  -8 10192.5 1653.37  40
   8   0  -8 6644.12 1144.38  23
   8   0  -8 7284.39 1331.95  22
   8   0  -8 10578.5 1743.21  24
   8   0  -8 8854.07 1675.61  27
   8   0  -8 10502.5 2080.83  32
   8   0  -7 753.595 499.965  40
   8   0  -7 536.823 347.298  23
   8   0  -7 565.311 405.130  22
   8   0  -7-95.3966 334.958  24
   8   0  -7 393.476 267.590  28
   8   0  -7 1384.49 855.562  32
   8   0  -6 127.128 386.455  40
   8   0  -6 44.6014 191.759  28
   8   0  -6 515.305 678.292  32
   8   0  -6 61.9274 188.268  23
   8   0  -6 891.131 648.394  22
   8   0  -6 839.031 637.632  24
   8   0  -5 4553.69 1543.25  40
   8   0  -5 4492.19 985.212  23
   8   0  -5 5362.79 1520.22  22
   8   0  -5 6240.78 1580.49  24
   8   0  -5 5891.60 1496.03  27
   8   0  -5 5253.59 1545.43  32
   8   0  -5 5215.35 939.274  28
   8   0  -5 5171.28 886.785  56
   8   0  -4 6797.45 1025.04  56
   8   0  -4 5560.40 1068.20  23
   8   0  -4 7479.36 1728.40  24
   8   0  -4 8209.24 1933.45  22
   8   0  -4 9176.02 2180.67  40
   8   0  -4 7918.19 1734.49  27
   8   0  -4 5934.27 1534.45  32
   8   0  -4 6260.12 1060.12  28
   8   0  -3 14609.7 2842.52  40
   8   0  -3 10578.4 1462.61  23
   8   0  -3 14685.4 2669.13  22
   8   0  -3 11127.5 2081.97  24
   8   0  -3 12538.7 2169.79  32
   8   0  -3 12920.6 2167.35  27
   8   0  -3 12033.4 1500.50  28
   8   0  -3 11581.7 1398.33  56
   8   0  -2 9719.86 2335.62  40
   8   0  -2 6176.24 804.567  33
   8   0  -2 7136.36 826.757  26
   8   0  -2 7601.29 1681.26  27
   8   0  -2 8254.13 1242.24  28
   8   0  -2 6480.02 1097.08  23
   8   0  -2 8111.27 1990.78  22
   8   0  -1 14410.0 2797.43  40
   8   0  -1 11544.2 1076.93  33
   8   0  -1 12957.3 2552.41  22
   8   0  -1 11661.1 2179.97  24
   8   0  -1 10235.9 982.799  26
   8   0  -1 9742.58 1793.71  27
   8   0  -1 10375.4 1416.56  28
   8   0  -1 11024.4 1383.10  56
   8   0   0 9169.76 903.593  35
   8   0   0 10936.1 1045.63  33
   8   0   0 9584.78 1973.73  24
   8   0   0 10768.2 983.496  26
   8   0   0 10083.3 1739.03  27
   8   0   0 10676.5 1437.63  28
   8   0   0 11318.5 1387.15  56
   8   0   1 586.291 257.366  35
   8   0   1 157.629 677.780  40
   8   0   1 784.265 272.386  26
   8   0   1 1385.09 876.579  22
   8   0   1 216.166 464.848  24
   8   0   1 665.102 412.926  27
   8   0   1 1104.28 494.302  28
   8   0   1 894.467 306.670  33
   8   0   1 485.469 307.507  56
   8   0   2 6837.03 784.164  35
   8   0   2 6689.90 1869.29  40
   8   0   2 7405.77 839.161  33
   8   0   2 8876.55 1989.69  22
   8   0   2 7766.64 1618.08  24
   8   0   2 7176.17 756.890  26
   8   0   2 6331.01 1087.16  28
   8   0   2 8201.44 1132.83  56
   8   0   3 9909.55 850.928  26
   8   0   3 10610.7 981.822  33
   8   0   3 9628.25 915.389  35
   8   0   3 14083.9 2559.89  40
   8   0   3 12201.3 2231.98  22
   8   0   3 10562.1 1796.91  24
   8   0   4 262.289 177.651  33
   8   0   4 189.729 150.197  35
   8   0   4 602.279 472.755  40
   8   0   4 314.795 159.327  26
   8   0   4 526.409 452.643  22
   8   0   4 598.141 371.197  24
   8   0   5 13235.1 863.359  26
   8   0   5 12983.2 1382.41  28
   8   0   5 13121.8 1003.27  33
   8   0   5 13207.8 1016.31  35
   8   0   5 15896.1 2291.00  40
   8   0   5 14647.8 2094.03  22
   8   0   6 8141.28 1029.07  28
   8   0   6 9990.94 817.547  33
   8   0   6 8258.63 768.518  35
   8   0   7 3427.32 612.254  28
   8   0   7 3647.25 456.164  33
   8   0   7 3795.84 482.532  35
   8   0   8 145.692 104.463  28
   8   0   8 256.149 111.307  33
   8   0   8 179.307 117.346  35
   8   0   9 2391.38 310.667  35
   8   1 -12 5657.82 1070.97  32
   8   1 -11 7771.49 970.228  23
   8   1 -11 6885.82 930.132  20
   8   1 -10 1267.82 461.529  23
   8   1 -10 1502.68 446.337  20
   8   1  -9 4100.39 1204.27  32
   8   1  -9 1571.72 546.349  20
   8   1  -9 3420.77 923.537  24
   8   1  -8 7493.74 1519.01  27
   8   1  -8 6665.34 1631.96  32
   8   1  -8 6630.93 1198.35  22
   8   1  -8 7570.96 1488.94  24
   8   1  -8 4469.28 876.029  20
   8   1  -7 4288.26 1215.18  27
   8   1  -7 3702.62 1237.01  32
   8   1  -7 3513.98 738.372  28
   8   1  -7 5339.22 1325.88  40
   8   1  -7 2097.67 679.446  23
   8   1  -7 2694.50 652.946  20
   8   1  -7 4194.41 1098.38  22
   8   1  -7 3094.68 1062.02  24
   8   1  -6 11189.0 1960.87  27
   8   1  -6 13562.7 2353.33  32
   8   1  -6 9384.53 1263.66  28
   8   1  -6 13638.3 2422.17  40
   8   1  -6 9466.16 1453.68  23
   8   1  -6 16452.6 2484.26  22
   8   1  -6 13227.4 2178.33  24
   8   1  -5 37470.1 4153.88  40
   8   1  -5 31024.6 1625.38  33
   8   1  -5 26972.4 2465.73  23
   8   1  -5 35609.4 3765.04  22
   8   1  -5 34273.8 3627.90  24
   8   1  -5 27522.0 3077.27  27
   8   1  -5 28048.4 3357.96  32
   8   1  -5 32094.6 2382.75  28
   8   1  -4 14641.4 2742.28  40
   8   1  -4 13588.4 1090.41  33
   8   1  -4 12448.9 1657.07  23
   8   1  -4 16654.8 2687.48  22
   8   1  -4 13525.0 2311.72  24
   8   1  -4 14931.4 1241.83  26
   8   1  -4 12891.6 2210.78  32
   8   1  -4 10898.8 1894.62  27
   8   1  -4 12004.5 1503.94  28
   8   1  -3 471.231 675.288  40
   8   1  -3 597.639 420.233  23
   8   1  -3 690.163 302.577  26
   8   1  -3 1095.68 760.140  22
   8   1  -3 190.830 290.093  27
   8   1  -3 669.149 403.544  28
   8   1  -3 290.159 196.483  33
  -8   1   3 33.2388 142.990   6
   8   1  -2 1443.45 633.663  27
   8   1  -2 1235.23 521.832  28
   8   1  -2 924.748 317.302  33
   8   1  -2 1612.80 1020.77  40
   8   1  -2 1030.68 493.226  23
   8   1  -2 1113.97 370.447  26
   8   1  -2 733.977 274.591  25
   8   1  -2 1124.71 854.974  22
   8   1  -2 1173.46 770.858  24
   8   1  -1 1893.95 696.628  27
   8   1  -1 3945.65 646.319  26
   8   1  -1 4047.72 885.271  28
   8   1  -1 2756.03 1274.37  40
   8   1  -1 3901.97 629.672  33
   8   1  -1 3295.58 818.724  23
   8   1  -1 3488.14 560.412  25
   8   1  -1 4521.45 1489.52  22
   8   1  -1 2639.77 1049.01  24
   8   1   0 8116.89 911.222  26
   8   1   0 6912.70 769.435  25
   8   1   0 7572.53 1697.13  24
   8   1   1 13159.3 1153.35  26
   8   1   1 14613.2 2766.93  40
   8   1   1 13004.5 1032.75  25
   8   1   1 15549.8 2655.22  22
   8   1   1 13213.7 2161.41  24
   8   1   2 26134.8 1634.10  26
   8   1   2 28050.7 2239.69  28
   8   1   2 35280.8 4131.08  40
   8   1   2 27150.8 1469.22  25
   8   1   2 29694.2 3619.16  22
   8   1   2 26619.6 2926.29  24
   8   1   3 5228.12 925.657  28
   8   1   3 6370.83 750.335  26
   8   1   3 5479.02 708.542  33
   8   1   3 8314.36 1927.86  40
   8   1   3 5915.02 608.850  25
   8   1   3 6537.53 1602.37  22
   8   1   3 5680.29 1228.94  24
   8   1   4-43.1680 200.467  28
   8   1   4 217.923 164.611  33
   8   1   4 806.444 534.957  40
   8   1   4 117.440 130.388  26
   8   1   4 225.869 126.773  25
   8   1   4 299.961 464.288  22
   8   1   5 75.4868 187.429  28
   8   1   5 200.643 166.079  33
   8   1   5 356.782 163.247  34
   8   1   5 273.010 160.739  26
   8   1   5 405.585 318.376  22
   8   1   6 1025.81 345.274  28
   8   1   6 778.233 242.967  33
   8   1   6 498.745 192.216  34
   8   1   6 505.012 187.700  26
   8   1   7 7880.34 628.053  26
   8   1   7 7181.64 659.700  33
   8   1   7 6243.64 608.488  34
   8   1   8 7178.05 509.627  26
   8   1   8 7860.81 626.378  34
   8   1   9 16704.1 814.803  33
   8   2 -10 10378.7 1095.94  23
   8   2 -10 11474.4 1109.18  20
   8   2  -9 5396.86 868.571  23
   8   2  -9 4139.22 739.679  20
   8   2  -8 9811.47 1262.10  23
   8   2  -8 10074.9 1177.25  20
   8   2  -8 12748.1 1941.96  32
   8   2  -7 2243.53 759.553  27
   8   2  -7 1699.55 770.111  32
   8   2  -7 1864.13 585.106  23
   8   2  -7 1915.15 508.275  20
   8   2  -6 1524.28 598.130  27
   8   2  -6 1001.93 554.431  32
   8   2  -6 1578.36 764.770  24
   8   2  -5 6589.29 1252.91  27
   8   2  -5 6202.55 1362.85  32
   8   2  -5 5921.77 985.070  28
   8   2  -5 7983.72 1681.33  22
   8   2  -5 9139.47 1766.35  24
   8   2  -4 1215.20 483.381  28
   8   2  -4 1728.41 413.098  26
   8   2  -4 1249.24 292.642  33
   8   2  -4 1127.33 516.308  23
   8   2  -4 1464.49 815.654  22
   8   2  -3 9626.99 958.065  26
   8   2  -3 8356.79 753.904  33
   8   2  -3 8719.92 846.824  25
   8   2  -3 7527.76 1811.87  22
   8   2  -3 6148.03 1528.51  24
   8   2  -3 5864.48 1157.20  23
   8   2  -2 13942.6 1005.73  33
   8   2  -2 14487.7 1084.85  25
   8   2  -2 13389.0 2201.97  24
   8   2  -2 14424.7 1180.86  26
   8   2  -2 12811.8 1491.88  28
   8   2  -1 14784.3 1056.22  33
   8   2  -1 14620.3 2460.49  22
   8   2  -1 15173.9 1098.01  25
   8   2  -1 11303.2 1996.34  24
   8   2  -1 16556.8 1261.55  26
   8   2  -1 12208.9 1435.33  28
   8   2  -1 14517.5 1146.30  30
   8   2   0 10554.8 1008.31  26
   8   2   0 9947.23 1274.52  28
   8   2   0 10112.1 906.744  25
   8   2   0 8050.40 1661.59  24
   8   2   0 10656.4 913.141  33
   8   2   1 2034.79 572.149  28
   8   2   1 2217.87 461.555  26
   8   2   1 1995.36 394.914  25
   8   2   1 1512.48 843.025  22
   8   2   1 1912.56 731.002  24
   8   2   1 2387.45 427.606  33
   8   2   2 3890.47 739.894  28
   8   2   2 3712.09 577.232  26
   8   2   2 3815.46 515.931  25
   8   2   2 4859.08 1328.88  22
   8   2   2 3616.87 524.910  33
   8   2   3 19908.0 1594.06  28
   8   2   3 23447.4 1449.02  26
   8   2   3 25391.4 2894.96  22
   8   2   3 23667.1 1270.75  25
   8   2   3 24576.9 1391.11  33
   8   2   4 3650.45 602.977  28
   8   2   4 4711.93 600.027  26
   8   2   4 4559.97 494.929  25
   8   2   4 4865.96 583.537  33
   8   2   5 10159.8 839.516  26
   8   2   5 10662.0 682.917  25
   8   2   5 9662.75 796.068  33
   8   2   6 8319.41 699.938  26
   8   2   7 5262.66 505.519  26
   8   2   8 186.403 101.266  33
  -8   3   7 906.027 201.076   7
  -8   3   6 2660.48 373.678   7
  -8   3   4 2870.00 351.483   8
   8   3  -3 1088.17 261.993  25
  -8   3   3 729.718 199.543   8
   8   3  -3 1296.91 299.670  30
   8   3  -2 896.049 258.773  26
   8   3  -1 98.7827 115.008  26
   8   3  -1 34.2182 116.304  25
   8   3  -1 76.6029 130.180  30
   8   3   0 18378.9 1077.88  25
   8   3   0 16651.0 1102.30  26
   8   3   0 16896.4 1071.52  30
   8   3   1 12639.8 867.999  25
   8   3   1 14234.1 993.316  26
   8   3   2 11259.3 783.309  25
   8   3   3 1841.12 293.777  25
   8   3   3 1259.95 221.945  33
   8   3   4 3852.72 386.444  25
   8   3   4 2607.53 302.566  33
   9  -2  -2 5758.63 929.410  22
   9  -2  -2 4970.67 789.852  24
   9  -2  -2 6363.46 1014.25  40
   9  -2  -1 2815.27 616.025  22
   9  -2  -1 3285.73 707.269  40
   9  -1  -5 6438.00 1015.06  24
   9  -1  -5 6580.94 1018.94  27
   9  -1  -4 3584.03 864.235  40
   9  -1  -4 2930.14 741.689  22
   9  -1  -4 2788.86 704.978  24
   9  -1  -4 3160.24 730.553  27
   9  -1  -3 1007.25 472.655  40
   9  -1  -3 378.501 313.446  22
   9  -1  -3 665.465 364.420  24
   9  -1  -3 815.838 347.539  27
   9  -1  -2 335.457 311.629  22
   9  -1  -2 505.392 267.548  27
   9  -1  -2 301.620 136.899  28
   9  -1  -1 5787.89 1237.20  40
   9  -1  -1 5755.84 1191.84  22
   9  -1  -1 4234.26 737.742  27
   9  -1  -1 3830.86 557.351  28
   9  -1   0 5224.76 1004.40  24
   9  -1   0 6772.16 746.410  28
   9  -1   1 4989.96 1047.46  40
   9  -1   1 4543.69 940.324  22
   9  -1   1 3177.20 684.073  24
   9  -1   1 2752.71 472.802  28
   9  -1   2 3461.48 792.211  40
   9  -1   2 3418.25 768.849  22
   9  -1   2 2523.53 432.676  28
   9  -1   3 3758.14 512.831  28
   9   0  -7 188.152 147.728  27
   9   0  -6 45.9385 161.273  24
   9   0  -6 263.252 188.640  27
   9   0  -5 600.279 333.183  40
   9   0  -5 368.186 244.277  22
   9   0  -5-55.0207 236.576  24
   9   0  -5 283.194 202.959  27
   9   0  -4 1994.63 698.817  40
   9   0  -4 2128.34 650.891  22
   9   0  -4 854.366 503.204  24
   9   0  -4 1440.45 462.476  27
   9   0  -4 1298.55 349.240  28
   9   0  -3 41834.3 3452.30  40
   9   0  -3 42418.8 3234.79  22
   9   0  -3 25542.6 2088.68  27
   9   0  -3 32032.8 1821.22  28
   9   0  -2 10349.0 1766.32  40
   9   0  -2 12057.6 1773.33  22
   9   0  -2 9643.31 984.871  28
   9   0  -1 2785.79 392.739  33
   9   0  -1 2277.51 924.381  40
   9   0  -1 3588.22 986.457  22
   9   0  -1 3157.68 815.399  24
   9   0  -1 3069.18 564.048  28
   9   0   0 2872.44 393.637  33
   9   0   0 3238.99 768.001  24
   9   0   0 2109.37 472.474  28
   9   0   1 1008.03 509.242  40
   9   0   1 202.746 265.313  22
   9   0   1 536.391 283.927  24
   9   0   1 315.000 207.340  28
   9   0   1 293.187 140.935  33
   9   0   2 6955.10 1256.61  40
   9   0   2 5069.83 479.156  33
   9   0   2 6459.83 1150.19  22
   9   0   2 4421.22 645.519  28
   9   0   3 2636.71 589.813  22
   9   0   3 2351.66 300.195  33
   9   0   4 3480.72 489.871  28
   9   1  -5 5433.28 1051.27  24
   9   1  -4 3998.54 896.286  22
   9   1  -3 197.505 258.442  22
   9   1  -3 388.122 212.181  28
   9   1  -2 279.091 324.051  22
   9   1  -2 460.340 335.011  24
   9   1  -2 287.043 201.619  28
   9   1  -1 4846.46 485.811  33
   9   1  -1 3438.59 833.163  24
   9   1  -1 4680.94 686.896  28
   9   1   0 5490.08 938.654  24
   9   1   0 7597.20 603.532  33
   9   1   1 2312.19 701.958  22
   9   1   1 2370.56 469.591  28
   9   1   2 3009.64 705.929  22
   9   1   2 2109.60 406.025  28
   9   1   3 4872.41 430.320  33
   0   0   0    0.00    0.00   0

TITL FASDN04 in P2(1)
REM P2(1) (#4 in standard setting)
CELL 1.54184   7.385387   5.853921  17.070777  90.0000  93.6738  90.0000
ZERR    2.00   0.000084   0.000065   0.000199   0.0000   0.0011   0.0000
LATT -1
SYMM -x, y+1/2,-z
SFAC C H O Br
UNIT 36.00 42.00 2.00 2.00
TREF
HKLF 4
END
;
_shelx_hkl_checksum              33380
_olex2_submission_original_sample_id fasdn04
_olex2_submission_special_instructions 'No special instructions were received'
_oxdiff_exptl_absorpt_empirical_details
;
Empirical correction (ABSPACK) includes:
- Absorption correction using spherical harmonics
- Frame scaling
;
_oxdiff_exptl_absorpt_empirical_full_max 3.183
_oxdiff_exptl_absorpt_empirical_full_min 0.475
loop_
_space_group_symop_operation_xyz
'x, y, z'
'-x, y+1/2, -z'
loop_
_atom_site_label
_atom_site_type_symbol
_atom_site_fract_x
_atom_site_fract_y
_atom_site_fract_z
_atom_site_U_iso_or_equiv
_atom_site_adp_type
_atom_site_occupancy
_atom_site_site_symmetry_order
_atom_site_calc_flag
_atom_site_refinement_flags_posn
_atom_site_refinement_flags_adp
_atom_site_refinement_flags_occupancy
_atom_site_disorder_assembly
_atom_site_disorder_group
Br1 Br 0.97930(5) -0.07748(9) 0.93019(2) 0.02364(15) Uani 1 1 d . . . . .
O1 O 0.7165(4) 0.9142(8) 0.53351(18) 0.0317(6) Uani 1 1 d . . . . .
C1 C 0.6997(6) 0.5484(7) 0.5910(2) 0.0191(8) Uani 1 1 d . . . . .
H1 H 0.607922 0.432846 0.605615 0.023 Uiso 1 1 calc R U . . .
C2 C 0.8846(6) 0.5407(7) 0.6376(2) 0.0205(8) Uani 1 1 d . . . . .
H2 H 0.946054 0.692139 0.644683 0.025 Uiso 1 1 calc R U . . .
C3 C 0.8660(6) 0.4573(8) 0.5549(2) 0.0220(10) Uani 1 1 d . . . . .
H3A H 0.873070 0.290416 0.546189 0.026 Uiso 1 1 calc R U . . .
H3B H 0.919802 0.551734 0.514314 0.026 Uiso 1 1 calc R U . . .
C4 C 0.6300(6) 0.7803(7) 0.5709(2) 0.0219(8) Uani 1 1 d . . . . .
C5 C 0.4461(6) 0.8422(8) 0.5993(3) 0.0254(9) Uani 1 1 d . . . . .
H5A H 0.351024 0.755517 0.568449 0.031 Uiso 1 1 calc R U . . .
H5B H 0.423430 1.006956 0.589918 0.031 Uiso 1 1 calc R U . . .
C6 C 0.4328(6) 0.7911(7) 0.6858(2) 0.0197(8) Uani 1 1 d . . . . .
C7 C 0.3561(6) 0.5868(7) 0.7099(3) 0.0202(8) Uani 1 1 d . . . . .
H7 H 0.305645 0.483129 0.671630 0.024 Uiso 1 1 calc R U . . .
C8 C 0.3527(6) 0.5334(7) 0.7891(3) 0.0215(8) Uani 1 1 d . . . . .
H8 H 0.301002 0.392649 0.804127 0.026 Uiso 1 1 calc R U . . .
C9 C 0.4238(6) 0.6826(8) 0.8470(3) 0.0218(8) Uani 1 1 d . . . . .
C10 C 0.4973(5) 0.8883(8) 0.8227(3) 0.0215(10) Uani 1 1 d . . . . .
H10 H 0.544521 0.994262 0.860877 0.026 Uiso 1 1 calc R U . . .
C11 C 0.5025(5) 0.9408(10) 0.7436(2) 0.0226(8) Uani 1 1 d . . . . .
H11 H 0.554606 1.081262 0.728614 0.027 Uiso 1 1 calc R U . . .
C12 C 0.4271(7) 0.6176(10) 0.9328(3) 0.0303(10) Uani 1 1 d . . . . .
H12A H 0.553159 0.607788 0.954323 0.045 Uiso 1 1 calc R U . . .
H12B H 0.367727 0.469222 0.938177 0.045 Uiso 1 1 calc R U . . .
H12C H 0.362656 0.733702 0.961660 0.045 Uiso 1 1 calc R U . . .
C13 C 0.9079(5) 0.3853(6) 0.7063(2) 0.0172(9) Uani 1 1 d . . . . .
C14 C 0.9945(6) 0.1752(7) 0.7038(2) 0.0193(8) Uani 1 1 d . . . . .
H14 H 1.038637 0.125100 0.655656 0.023 Uiso 1 1 calc R U . . .
C15 C 1.0184(6) 0.0362(7) 0.7695(2) 0.0187(8) Uani 1 1 d . . . . .
H15 H 1.078897 -0.106510 0.766830 0.022 Uiso 1 1 calc R U . . .
C16 C 0.9519(6) 0.1109(7) 0.8392(2) 0.0186(8) Uani 1 1 d . . . . .
C17 C 0.8655(6) 0.3206(7) 0.8445(2) 0.0196(8) Uani 1 1 d . . . . .
H17 H 0.822250 0.370547 0.892820 0.024 Uiso 1 1 calc R U . . .
C18 C 0.8434(6) 0.4557(8) 0.7778(2) 0.0206(9) Uani 1 1 d . . . . .
H18 H 0.783367 0.598734 0.780723 0.025 Uiso 1 1 calc R U . . .
loop_
_atom_site_aniso_label
_atom_site_aniso_U_11
_atom_site_aniso_U_22
_atom_site_aniso_U_33
_atom_site_aniso_U_23
_atom_site_aniso_U_13
_atom_site_aniso_U_12
Br1 0.0292(2) 0.0236(2) 0.0181(2) 0.0027(2) 0.00109(14) 0.0045(2)
O1 0.0378(15) 0.0236(14) 0.0341(15) 0.008(2) 0.0064(12) -0.001(2)
C1 0.021(2) 0.0178(19) 0.0183(18) 0.0006(16) 0.0022(15) -0.0018(16)
C2 0.023(2) 0.020(2) 0.0194(19) -0.0007(16) 0.0012(16) -0.0036(17)
C3 0.0247(18) 0.025(3) 0.0165(16) 0.0010(17) 0.0056(14) 0.0011(18)
C4 0.027(2) 0.020(2) 0.0179(19) 0.0003(16) -0.0016(16) -0.0033(17)
C5 0.031(2) 0.0226(18) 0.023(2) 0.0007(16) -0.0002(18) 0.0039(18)
C6 0.0180(19) 0.022(2) 0.0194(19) -0.0009(16) 0.0005(15) 0.0047(16)
C7 0.0150(18) 0.0194(19) 0.026(2) -0.0047(16) 0.0004(16) 0.0001(15)
C8 0.0181(19) 0.0176(19) 0.029(2) -0.0003(17) 0.0054(16) -0.0019(17)
C9 0.0156(19) 0.027(2) 0.023(2) -0.0015(17) 0.0044(16) 0.0044(16)
C10 0.0174(16) 0.022(3) 0.0254(18) -0.0050(16) 0.0002(14) 0.0017(16)
C11 0.0210(16) 0.018(2) 0.0296(18) -0.004(2) 0.0044(14) 0.001(2)
C12 0.028(2) 0.037(3) 0.027(2) 0.0026(19) 0.0058(18) 0.006(2)
C13 0.0146(15) 0.015(3) 0.0216(17) 0.0009(14) 0.0014(13) -0.0035(14)
C14 0.0178(19) 0.0201(19) 0.0205(19) -0.0052(15) 0.0043(15) -0.0021(15)
C15 0.0178(19) 0.0178(18) 0.0205(19) -0.0027(16) 0.0006(15) 0.0010(16)
C16 0.0164(18) 0.0203(19) 0.0189(18) 0.0017(15) 0.0004(15) -0.0024(15)
C17 0.0202(19) 0.0183(18) 0.0204(19) -0.0036(15) 0.0011(15) 0.0018(17)
C18 0.0178(16) 0.019(3) 0.0249(18) -0.0022(17) 0.0017(14) -0.0004(17)
loop_
_atom_type_symbol
_atom_type_description
_atom_type_scat_dispersion_real
_atom_type_scat_dispersion_imag
_atom_type_scat_source
C C 0.0181 0.0091 'International Tables Vol C Tables 4.2.6.8 and 6.1.1.4'
H H 0.0000 0.0000 'International Tables Vol C Tables 4.2.6.8 and 6.1.1.4'
Br Br -0.6763 1.2805 'International Tables Vol C Tables 4.2.6.8 and 6.1.1.4'
O O 0.0492 0.0322 'International Tables Vol C Tables 4.2.6.8 and 6.1.1.4'
loop_
_geom_angle_atom_site_label_1
_geom_angle_atom_site_label_2
_geom_angle_atom_site_label_3
_geom_angle
_geom_angle_site_symmetry_1
_geom_angle_site_symmetry_3
_geom_angle_publ_flag
C2 C1 H1 116.5 . . ?
C3 C1 H1 116.5 . . ?
C3 C1 C2 58.7(3) . . ?
C4 C1 H1 116.5 . . ?
C4 C1 C2 115.5(4) . . ?
C4 C1 C3 120.6(4) . . ?
C1 C2 H2 114.7 . . ?
C3 C2 C1 59.7(3) . . ?
C3 C2 H2 114.7 . . ?
C13 C2 C1 118.7(3) . . ?
C13 C2 H2 114.7 . . ?
C13 C2 C3 123.1(4) . . ?
C1 C3 H3A 117.6 . . ?
C1 C3 H3B 117.6 . . ?
C2 C3 C1 61.6(3) . . ?
C2 C3 H3A 117.6 . . ?
C2 C3 H3B 117.6 . . ?
H3A C3 H3B 114.7 . . ?
O1 C4 C1 121.6(4) . . ?
O1 C4 C5 121.6(4) . . ?
C1 C4 C5 116.7(4) . . ?
C4 C5 H5A 109.1 . . ?
C4 C5 H5B 109.1 . . ?
C4 C5 C6 112.3(3) . . ?
H5A C5 H5B 107.9 . . ?
C6 C5 H5A 109.1 . . ?
C6 C5 H5B 109.1 . . ?
C7 C6 C5 120.6(4) . . ?
C11 C6 C5 121.4(4) . . ?
C11 C6 C7 118.0(4) . . ?
C6 C7 H7 119.6 . . ?
C8 C7 C6 120.8(4) . . ?
C8 C7 H7 119.6 . . ?
C7 C8 H8 119.4 . . ?
C7 C8 C9 121.2(4) . . ?
C9 C8 H8 119.4 . . ?
C8 C9 C12 120.7(4) . . ?
C10 C9 C8 117.7(4) . . ?
C10 C9 C12 121.6(4) . . ?
C9 C10 H10 119.4 . . ?
C11 C10 C9 121.1(4) . . ?
C11 C10 H10 119.4 . . ?
C6 C11 H11 119.4 . . ?
C10 C11 C6 121.2(5) . . ?
C10 C11 H11 119.4 . . ?
C9 C12 H12A 109.5 . . ?
C9 C12 H12B 109.5 . . ?
C9 C12 H12C 109.5 . . ?
H12A C12 H12B 109.5 . . ?
H12A C12 H12C 109.5 . . ?
H12B C12 H12C 109.5 . . ?
C14 C13 C2 123.2(4) . . ?
C14 C13 C18 118.1(4) . . ?
C18 C13 C2 118.6(4) . . ?
C13 C14 H14 119.0 . . ?
C13 C14 C15 122.0(4) . . ?
C15 C14 H14 119.0 . . ?
C14 C15 H15 120.8 . . ?
C16 C15 C14 118.4(4) . . ?
C16 C15 H15 120.8 . . ?
C15 C16 Br1 119.5(3) . . ?
C15 C16 C17 121.6(4) . . ?
C17 C16 Br1 118.9(3) . . ?
C16 C17 H17 120.6 . . ?
C18 C17 C16 118.8(4) . . ?
C18 C17 H17 120.6 . . ?
C13 C18 H18 119.4 . . ?
C17 C18 C13 121.2(4) . . ?
C17 C18 H18 119.4 . . ?
loop_
_geom_bond_atom_site_label_1
_geom_bond_atom_site_label_2
_geom_bond_distance
_geom_bond_site_symmetry_2
_geom_bond_publ_flag
Br1 C16 1.905(4) . ?
O1 C4 1.218(6) . ?
C1 H1 1.0000 . ?
C1 C2 1.536(6) . ?
C1 C3 1.507(6) . ?
C1 C4 1.484(6) . ?
C2 H2 1.0000 . ?
C2 C3 1.491(6) . ?
C2 C13 1.486(6) . ?
C3 H3A 0.9900 . ?
C3 H3B 0.9900 . ?
C4 C5 1.515(7) . ?
C5 H5A 0.9900 . ?
C5 H5B 0.9900 . ?
C5 C6 1.517(6) . ?
C6 C7 1.396(6) . ?
C6 C11 1.394(6) . ?
C7 H7 0.9500 . ?
C7 C8 1.390(6) . ?
C8 H8 0.9500 . ?
C8 C9 1.397(6) . ?
C9 C10 1.395(6) . ?
C9 C12 1.513(6) . ?
C10 H10 0.9500 . ?
C10 C11 1.387(6) . ?
C11 H11 0.9500 . ?
C12 H12A 0.9800 . ?
C12 H12B 0.9800 . ?
C12 H12C 0.9800 . ?
C13 C14 1.388(6) . ?
C13 C18 1.400(6) . ?
C14 H14 0.9500 . ?
C14 C15 1.388(6) . ?
C15 H15 0.9500 . ?
C15 C16 1.386(6) . ?
C16 C17 1.390(6) . ?
C17 H17 0.9500 . ?
C17 C18 1.386(6) . ?
C18 H18 0.9500 . ?
loop_
_geom_torsion_atom_site_label_1
_geom_torsion_atom_site_label_2
_geom_torsion_atom_site_label_3
_geom_torsion_atom_site_label_4
_geom_torsion
_geom_torsion_site_symmetry_1
_geom_torsion_site_symmetry_2
_geom_torsion_site_symmetry_3
_geom_torsion_site_symmetry_4
_geom_torsion_publ_flag
Br1 C16 C17 C18 -179.1(3) . . . . ?
O1 C4 C5 C6 -130.2(4) . . . . ?
C1 C2 C13 C14 101.2(5) . . . . ?
C1 C2 C13 C18 -80.3(5) . . . . ?
C1 C4 C5 C6 49.8(5) . . . . ?
C2 C1 C4 O1 57.4(5) . . . . ?
C2 C1 C4 C5 -122.6(4) . . . . ?
C2 C13 C14 C15 178.3(4) . . . . ?
C2 C13 C18 C17 -178.3(4) . . . . ?
C3 C1 C2 C13 -113.6(5) . . . . ?
C3 C1 C4 O1 -9.8(6) . . . . ?
C3 C1 C4 C5 170.2(4) . . . . ?
C3 C2 C13 C14 30.5(6) . . . . ?
C3 C2 C13 C18 -151.1(4) . . . . ?
C4 C1 C2 C3 -111.7(4) . . . . ?
C4 C1 C2 C13 134.7(4) . . . . ?
C4 C1 C3 C2 103.0(4) . . . . ?
C4 C5 C6 C7 -96.1(5) . . . . ?
C4 C5 C6 C11 81.3(5) . . . . ?
C5 C6 C7 C8 176.4(4) . . . . ?
C5 C6 C11 C10 -177.0(4) . . . . ?
C6 C7 C8 C9 0.7(6) . . . . ?
C7 C6 C11 C10 0.4(6) . . . . ?
C7 C8 C9 C10 0.5(6) . . . . ?
C7 C8 C9 C12 -177.1(4) . . . . ?
C8 C9 C10 C11 -1.2(6) . . . . ?
C9 C10 C11 C6 0.7(6) . . . . ?
C11 C6 C7 C8 -1.1(6) . . . . ?
C12 C9 C10 C11 176.4(4) . . . . ?
C13 C2 C3 C1 106.5(4) . . . . ?
C13 C14 C15 C16 0.5(6) . . . . ?
C14 C13 C18 C17 0.2(6) . . . . ?
C14 C15 C16 Br1 179.1(3) . . . . ?
C14 C15 C16 C17 -0.9(6) . . . . ?
C15 C16 C17 C18 1.0(6) . . . . ?
C16 C17 C18 C13 -0.6(6) . . . . ?
C18 C13 C14 C15 -0.2(6) . . . . ?
