#------------------------------------------------------------------------------
#$Date: 2020-12-04 04:20:23 +0200 (Fri, 04 Dec 2020) $
#$Revision: 259518 $
#$URL: file:///home/coder/svn-repositories/cod/cif/4/13/53/4135350.cif $
#------------------------------------------------------------------------------
#
# This file is available in the Crystallography Open Database (COD),
# http://www.crystallography.net/
#
# All data on this site have been placed in the public domain by the
# contributors.
#
data_4135350
loop_
_publ_author_name
'Yan, Xingchen'
'Ge, Luo'
'Casti\~neira Reis, Marta'
'Harutyunyan, Syuzanna R.'
_publ_section_title
;
 Nucleophilic Dearomatization of N-Heteroaromatics Enabled by Lewis Acids
 and Copper Catalysis.
;
_journal_issue                   47
_journal_name_full               'Journal of the American Chemical Society'
_journal_page_first              20247
_journal_page_last               20256
_journal_paper_doi               10.1021/jacs.0c09974
_journal_volume                  142
_journal_year                    2020
_chemical_absolute_configuration ad
_chemical_formula_sum            'C11 H14 Br N'
_chemical_formula_weight         240.14
_space_group_crystal_system      monoclinic
_space_group_IT_number           4
_space_group_name_Hall           'P 2yb'
_space_group_name_H-M_alt        'P 1 21 1'
_atom_sites_solution_hydrogens   mixed
_audit_creation_method           SHELXL-2014/7
_cell_angle_alpha                90
_cell_angle_beta                 94.8830(10)
_cell_angle_gamma                90
_cell_formula_units_Z            2
_cell_length_a                   8.8938(3)
_cell_length_b                   5.9958(2)
_cell_length_c                   9.5190(3)
_cell_measurement_reflns_used    7072
_cell_measurement_temperature    100(2)
_cell_measurement_theta_max      65.12
_cell_measurement_theta_min      4.66
_cell_volume                     505.76(3)
_computing_structure_refinement  'SHELXL-2014/7 (Sheldrick, 2014)'
_diffrn_ambient_temperature      100(2)
_diffrn_measured_fraction_theta_full 0.999
_diffrn_measured_fraction_theta_max 0.999
_diffrn_measurement_device_type  'Bruker APEX-II CCD'
_diffrn_radiation_type           CuK\a
_diffrn_radiation_wavelength     1.54178
_diffrn_reflns_av_R_equivalents  0.0295
_diffrn_reflns_av_unetI/netI     0.0279
_diffrn_reflns_Laue_measured_fraction_full 0.999
_diffrn_reflns_Laue_measured_fraction_max 0.999
_diffrn_reflns_limit_h_max       10
_diffrn_reflns_limit_h_min       -10
_diffrn_reflns_limit_k_max       7
_diffrn_reflns_limit_k_min       -6
_diffrn_reflns_limit_l_max       10
_diffrn_reflns_limit_l_min       -11
_diffrn_reflns_number            6932
_diffrn_reflns_point_group_measured_fraction_full 0.984
_diffrn_reflns_point_group_measured_fraction_max 0.984
_diffrn_reflns_theta_full        65.118
_diffrn_reflns_theta_max         65.118
_diffrn_reflns_theta_min         4.662
_exptl_absorpt_coefficient_mu    5.129
_exptl_absorpt_correction_type   multi-scan
_exptl_crystal_colour            orange
_exptl_crystal_density_diffrn    1.577
_exptl_crystal_description       platelet
_exptl_crystal_F_000             244
_exptl_crystal_size_max          0.420
_exptl_crystal_size_mid          0.100
_exptl_crystal_size_min          0.030
_exptl_transmission_factor_max   0.7526
_exptl_transmission_factor_min   0.4121
_refine_diff_density_max         0.193
_refine_diff_density_min         -0.552
_refine_diff_density_rms         0.066
_refine_ls_abs_structure_details
;
 Flack x determined using 732 quotients [(I+)-(I-)]/[(I+)+(I-)]
 (Parsons, Flack and Wagner, Acta Cryst. B69 (2013) 249-259).
;
_refine_ls_abs_structure_Flack   0.040(12)
_refine_ls_extinction_method     none
_refine_ls_goodness_of_fit_ref   1.076
_refine_ls_hydrogen_treatment    mixed
_refine_ls_matrix_type           full
_refine_ls_number_parameters     123
_refine_ls_number_reflns         1702
_refine_ls_number_restraints     1
_refine_ls_restrained_S_all      1.075
_refine_ls_R_factor_all          0.0176
_refine_ls_R_factor_gt           0.0174
_refine_ls_shift/su_max          0.002
_refine_ls_shift/su_mean         0.000
_refine_ls_structure_factor_coef Fsqd
_refine_ls_weighting_details
'w=1/[\s^2^(Fo^2^)+(0.0238P)^2^+0.0615P] where P=(Fo^2^+2Fc^2^)/3'
_refine_ls_weighting_scheme      calc
_refine_ls_wR_factor_gt          0.0420
_refine_ls_wR_factor_ref         0.0421
_reflns_Friedel_coverage         0.782
_reflns_Friedel_fraction_full    0.966
_reflns_Friedel_fraction_max     0.966
_reflns_number_gt                1689
_reflns_number_total             1702
_reflns_threshold_expression     'I > 2\s(I)'
_cod_data_source_file            ja0c09974_si_001.cif
_cod_data_source_block           cu_hv022_0m_b
_cod_depositor_comments          'Adding full bibliography for 4135350.cif.'
_cod_original_sg_symbol_H-M      'P 21'
_cod_database_code               4135350
_shelx_shelxl_version_number     2014/7
_shelx_space_group_comment
;
The symmetry employed for this shelxl refinement is uniquely defined
by the following loop, which should always be used as a source of
symmetry information in preference to the above space-group names.
They are only intended as comments.
;
_shelx_estimated_absorpt_t_min   0.222
_shelx_estimated_absorpt_t_max   0.861
_shelx_res_file
;

    cu_hv022_0m_b.res created by SHELXL-2014/7


TITL cu_hv022_0m_b.res in P2(1)
REM Old TITL cu_hv022_0m in P2(1)
REM SHELXT solution in P2(1)
REM R1 0.068,  Rweak 0.037,  Alpha 0.036,  Orientation as input
REM Flack x =  0.065 ( 0.011 ) from Parsons' quotients
REM Formula found by SHELXT:  C10 N2 Br
CELL  1.54178   8.8938   5.9958   9.5190   90.000   94.883   90.000
ZERR    2.000   0.0003   0.0002   0.0003    0.000    0.001    0.000
LATT -1
SYMM -X, 1/2+Y, -Z
SFAC C H N BR
UNIT 22 28 2 2
SIZE 0.030 0.100 0.420
L.S. 10
acta
BOND $H
LIST 6
FMAP 2
PLAN 20
WGHT    0.023800    0.061500
FVAR       0.95000
BR1   4    0.913407    0.815577    0.813781    11.00000    0.01229    0.02435 =
         0.02103   -0.00085    0.00096   -0.00478
H1    2    0.394039    0.091124    0.897539    11.00000    0.01671
N1    3    0.384228    0.182255    0.836677    11.00000    0.01935    0.01416 =
         0.01674    0.00830   -0.00068   -0.00280
C1    1    0.501269    0.335936    0.833296    11.00000    0.01782    0.01089 =
         0.00740   -0.00450    0.00236   -0.00239
C2    1    0.645293    0.275919    0.895944    11.00000    0.02213    0.01530 =
         0.00962   -0.00041    0.00097    0.00162
AFIX  43
H2    2    0.658010    0.139094    0.941425    11.00000   -1.20000
AFIX   0
C3    1    0.767153    0.416404    0.890858    11.00000    0.01453    0.02112 =
         0.01115   -0.00055   -0.00018    0.00516
AFIX  43
H3    2    0.862075    0.374638    0.930727    11.00000   -1.20000
AFIX   0
C5    1    0.605124    0.684459    0.762340    11.00000    0.01535    0.01211 =
         0.01082   -0.00048    0.00179    0.00085
AFIX  43
H5    2    0.593699    0.822554    0.718234    11.00000   -1.20000
AFIX   0
C4    1    0.745319    0.621164    0.825114    11.00000    0.01345    0.02133 =
         0.01140   -0.00394    0.00103   -0.00108
C6    1    0.480911    0.541589    0.765073    11.00000    0.01356    0.01476 =
         0.00628   -0.00105    0.00130    0.00103
C9    1    0.230471    0.254790    0.797278    11.00000    0.01669    0.01953 =
         0.02279    0.00321   -0.00054   -0.00473
AFIX  23
H9A   2    0.192613    0.338624    0.873975    11.00000   -1.20000
H9B   2    0.165795    0.126131    0.778300    11.00000   -1.20000
AFIX   0
C8    1    0.228977    0.399716    0.666914    11.00000    0.01666    0.01699 =
         0.01757    0.00194   -0.00385   -0.00462
AFIX  23
H8A   2    0.126092    0.443974    0.637920    11.00000   -1.20000
H8B   2    0.266780    0.314756    0.590664    11.00000   -1.20000
AFIX   0
C7    1    0.326498    0.608386    0.695073    11.00000    0.01210    0.01695 =
         0.01075   -0.00192    0.00028   -0.00016
AFIX  13
H7    2    0.277209    0.700424    0.762797    11.00000   -1.20000
AFIX   0
C10   1    0.335398    0.748265    0.561148    11.00000    0.01643    0.01826 =
         0.01308    0.00302    0.00097    0.00089
AFIX  23
H10A  2    0.391982    0.883254    0.585136    11.00000   -1.20000
H10B  2    0.390356    0.664714    0.494830    11.00000   -1.20000
AFIX   0
C11   1    0.180768    0.812554    0.489452    11.00000    0.02000    0.02476 =
         0.01415    0.00306   -0.00252   -0.00251
AFIX 137
H11A  2    0.193709    0.917591    0.415324    11.00000   -1.50000
H11B  2    0.120713    0.878745    0.557525    11.00000   -1.50000
H11C  2    0.130962    0.681621    0.450569    11.00000   -1.50000
REM #####
REM #####
REM #####
AFIX   0
HKLF 4

REM  cu_hv022_0m_b.res in P2(1)
REM R1 =  0.0174 for    1689 Fo > 4sig(Fo)  and  0.0176 for all    1702 data
REM    123 parameters refined using      1 restraints

END

WGHT      0.0238      0.0615

REM Highest difference peak  0.193,  deepest hole -0.552,  1-sigma level  0.066
Q1    1   0.1885  0.3054  1.0353  11.00000  0.05    0.19
Q2    1   0.0264  0.8212  0.6768  11.00000  0.05    0.19
Q3    1   0.4066  0.5889  0.7363  11.00000  0.05    0.18
Q4    1   0.7338  0.3256  0.7954  11.00000  0.05    0.18
Q5    1   0.4060  0.0430  0.7217  11.00000  0.05    0.17
Q6    1   0.1763  0.3346  0.9334  11.00000  0.05    0.16
Q7    1   0.4680  0.7975  0.3558  11.00000  0.05    0.15
Q8    1   0.6123  0.3019  0.6965  11.00000  0.05    0.15
Q9    1   0.3534  0.8061  0.3550  11.00000  0.05    0.15
Q10   1   0.7620  0.4954  0.8119  11.00000  0.05    0.14
Q11   1   0.0790  0.4254  0.3712  11.00000  0.05    0.14
Q12   1  -0.0014  0.8018  0.5695  11.00000  0.05    0.14
Q13   1   0.0754  0.7592  0.6021  11.00000  0.05    0.14
Q14   1   0.0818  0.3239  0.8760  11.00000  0.05    0.13
Q15   1   0.1010  0.3298  0.8431  11.00000  0.05    0.13
Q16   1   0.3312  0.6607  0.6293  11.00000  0.05    0.13
Q17   1   0.7750  0.1623  0.7953  11.00000  0.05    0.13
Q18   1   0.4083  0.7456  0.8327  11.00000  0.05    0.13
Q19   1   0.9233  0.3298  0.8858  11.00000  0.05    0.13
Q20   1   0.9211  0.7127  0.6338  11.00000  0.05    0.13
;
_shelx_res_checksum              36810
_shelx_hkl_file
;
   1   0   0   34.80    1.90
  -1   0   0   40.10    1.80
  -1   0   0   37.90    2.30
  -2   0   0  100.09    5.40
   2   0   0   93.59    4.90
  -2   0   0  103.39    4.70
  -3   0   0   23.40    2.50
   3   0   0   22.50    2.50
  -3   0   0   23.50    1.70
  -3   0   0   24.20    1.90
   4   0   0  556.04   23.90
  -4   0   0  525.75   23.10
  -4   0   0  586.04   25.10
  -4   0   0  532.75   22.80
  -5   0   0  856.91   37.30
  -5   0   0  865.71   36.50
  -5   0   0  834.92   36.10
   5   0   0  899.41   36.60
  -5   0   0  931.51   39.20
  -5   0   0  839.92   37.00
   5   0   0  891.91   36.10
  -6   0   0 1203.18   50.79
  -6   0   0 1151.48   50.89
  -6   0   0 1289.67   54.09
   6   0   0 1182.68   50.39
   6   0   0 1204.68   49.80
   7   0   0 1886.31   78.59
  -7   0   0 1839.22   78.19
  -7   0   0 1898.31   78.19
   7   0   0 1844.52   76.89
   7   0   0 1872.31   77.69
  -8   0   0    6.10    2.10
   8   0   0    7.00    2.40
   8   0   0    5.30    1.20
   8   0   0    3.30    2.70
  -8   0   0    3.60    2.40
   9   0   0   31.30    4.10
   9   0   0   28.60    3.70
  -9   0   0   30.00    4.50
  -9   0   0   33.50    5.10
 -10   0   0  218.78   10.50
  10   0   0  215.08   11.50
 -10   0   0  217.88   10.30
   0   1   0    0.20    0.70
  -1  -1   0  674.23   27.20
   1  -1   0  638.74   27.90
   1   1   0  674.73   28.10
  -1   1   0  632.94   27.60
   2  -1   0 2273.37   93.99
  -2  -1   0 2406.76   94.89
  -2  -1   0 2300.97   95.29
  -2   1   0 2254.77   98.29
   2   1   0 2218.98   95.39
  -3  -1   0 2023.50   94.09
   3  -1   0 2344.37   92.19
  -3  -1   0 2322.57   93.59
  -3  -1   0 2303.57   92.29
   3   1   0 2134.59   93.49
  -4  -1   0  833.22   35.60
   4  -1   0  856.51   35.30
  -4  -1   0  815.52   38.60
  -4  -1   0  829.02   36.20
   4   1   0  914.81   37.50
   4   1   0  885.61   35.70
  -5  -1   0 1088.79   44.70
   5  -1   0 1054.49   44.40
  -5  -1   0 1063.09   44.40
  -5  -1   0 1058.89   48.00
   5   1   0 1082.69   46.30
  -5   1   0 1067.99   44.90
  -5   1   0 1039.90   45.10
   5   1   0 1119.29   46.00
   5   1   0 1016.10   44.50
   5   1   0 1044.80   43.90
   5   1   0 1081.69   45.30
   6  -1   0   87.39    4.10
  -6  -1   0   83.69    4.10
  -6  -1   0   81.89    5.40
   6  -1   0   85.29    4.70
  -6  -1   0   83.49    4.60
  -6  -1   0   80.29    6.10
  -6  -1   0   88.79    8.00
  -6   1   0   88.29    6.10
   6   1   0   89.49    4.40
   6   1   0   87.79    5.90
  -6   1   0   93.19    5.50
   6   1   0   91.99    7.20
  -7  -1   0 1218.78   53.89
  -7  -1   0 1382.76   59.29
  -7  -1   0 1281.37   53.29
  -7  -1   0 1317.97   54.89
  -7  -1   0 1281.47   54.49
   7  -1   0 1353.06   53.39
   7  -1   0 1306.57   54.09
  -7   1   0 1242.38   54.49
   7   1   0 1249.38   54.99
   7   1   0 1275.57   54.89
  -7   1   0 1297.57   54.89
  -8  -1   0  576.24   27.10
  -8  -1   0  567.54   26.90
   8  -1   0  586.04   26.40
   8  -1   0  553.34   25.70
  -8   1   0  663.13   27.10
  -8   1   0  659.33   27.50
   8   1   0  641.44   29.20
   8   1   0  652.83   27.40
   8   1   0  617.04   27.40
   9  -1   0  574.24   24.10
  -9  -1   0  569.84   25.40
  -9  -1   0  573.64   25.40
   9   1   0  582.14   25.60
  -9   1   0  582.94   25.40
   9   1   0  566.84   27.10
  -9   1   0  598.34   25.70
 -10  -1   0  296.07   13.10
  10  -1   0  283.57   13.90
 -10  -1   0  283.47   13.10
 -10   1   0  277.37   12.90
 -10   1   0  286.97   13.30
   0  -2   0 5274.77  253.87
  -1  -2   0 2427.26  101.49
  -1   2   0 2369.26  100.09
   1   2   0 2434.16  100.79
  -2  -2   0  158.08    7.00
  -2  -2   0  161.08    7.40
  -2   2   0  163.48    7.70
   2   2   0  168.98    9.10
  -3  -2   0  747.33   31.50
  -3  -2   0  653.53   34.50
   3  -2   0  771.42   31.00
  -3  -2   0  775.32   31.10
  -3  -2   0  776.52   30.90
   3   2   0  757.52   33.50
  -4  -2   0  955.40   37.20
  -4  -2   0  869.81   41.70
   4  -2   0  905.01   37.00
  -4  -2   0  903.61   37.70
  -4  -2   0  916.61   36.80
   4  -2   0  954.30   36.70
   4   2   0  864.01   39.80
   4   2   0  822.72   37.80
   4   2   0  816.82   38.30
  -5  -2   0  754.62   37.40
  -5  -2   0  761.92   32.40
  -5  -2   0  749.42   33.10
   5  -2   0  756.62   31.80
   5  -2   0  755.32   32.20
  -5  -2   0  754.12   32.50
  -5  -2   0  736.33   31.80
  -5   2   0  832.12   33.80
   5   2   0  800.72   33.70
   5   2   0  760.82   33.00
  -5   2   0  781.92   32.70
   5   2   0  785.72   35.20
  -6  -2   0  872.41   39.70
   6  -2   0  891.91   38.50
  -6  -2   0  919.11   37.90
  -6  -2   0  938.31   38.80
  -6  -2   0  937.41   44.20
   6  -2   0  941.91   37.90
  -6   2   0  937.71   38.90
  -6   2   0  952.20   39.80
   6   2   0  954.50   39.80
   6   2   0  883.81   39.20
   6   2   0  831.52   63.49
   7  -2   0  938.91   39.40
  -7  -2   0  918.61   41.10
  -7  -2   0  926.01   40.10
   7  -2   0  967.10   40.20
  -7  -2   0  954.10   40.50
  -7  -2   0  987.50   46.40
  -7  -2   0  935.61   39.40
  -7   2   0 1009.10   41.60
   7   2   0  863.21   65.19
   7   2   0  983.40   41.30
  -7   2   0  978.00   40.50
   7   2   0  924.11   40.90
   7   2   0  968.20   46.70
  -8  -2   0   71.89    5.20
   8  -2   0   74.19    3.70
   8  -2   0   71.79    4.50
  -8  -2   0   78.59    5.40
  -8  -2   0   73.59    6.30
  -8  -2   0   73.19   17.00
  -8  -2   0   71.19    3.70
   8   2   0   74.19    5.50
   8   2   0   77.69    6.20
  -8   2   0   77.39    6.70
  -8   2   0   74.49    5.00
   9  -2   0   55.49    2.90
   9  -2   0   54.19    4.20
  -9  -2   0   57.29    4.20
  -9  -2   0   53.89    4.90
  -9   2   0   57.79    3.90
  -9   2   0   64.39    5.20
  10  -2   0  182.28    8.30
  10  -2   0  189.08    9.70
 -10  -2   0  196.08    9.60
 -10   2   0  196.68    8.70
   0   3   0    0.30    1.50
  -1  -3   0  131.09    6.30
   1   3   0  116.49    7.80
  -1   3   0  119.09    7.20
  -2  -3   0 1751.42   71.09
  -2  -3   0 1775.82   70.49
  -2   3   0 1725.13   71.89
   2   3   0 1768.02   73.99
   2   3   0 1537.05   93.19
  -3  -3   0  821.12   41.60
  -3  -3   0  912.31   36.00
  -3  -3   0  955.20   36.90
  -3  -3   0  942.81   36.40
   3  -3   0  921.21   36.10
   3   3   0  763.52   58.49
  -3   3   0  735.13   54.79
   3   3   0  851.11   36.80
   3   3   0  919.91   40.00
   3   3   0  860.31   37.60
   3   3   0  904.21   43.50
  -4  -3   0 1220.48   50.29
   4  -3   0 1206.48   49.20
  -4  -3   0 1213.28   49.80
  -4  -3   0 1161.38   55.99
   4  -3   0 1213.98   49.50
  -4  -3   0 1175.18   49.30
   4   3   0 1220.38   53.49
   4   3   0 1224.48   50.29
  -4   3   0 1202.78   49.90
  -4   3   0 1159.78   52.09
  -4   3   0 1052.09   71.39
   4   3   0 1272.67   56.49
   4   3   0 1128.29   75.19
   4   3   0 1278.67   51.09
   5  -3   0  311.37   13.00
  -5  -3   0  317.97   13.00
  -5  -3   0  311.07   13.80
  -5  -3   0  329.87   13.60
  -5  -3   0  317.17   19.90
   5  -3   0  317.57   13.40
   5   3   0  284.17   20.10
   5   3   0  307.77   17.30
   5   3   0  297.47   15.00
   5   3   0  307.17   14.20
   5   3   0  284.27   35.20
  -5   3   0  284.37   17.20
  -5   3   0  301.67   13.90
  -6  -3   0   59.79    3.80
   6  -3   0   68.49    3.30
  -6  -3   0   68.99   10.30
  -6  -3   0   65.09    3.40
  -6  -3   0   60.19    4.70
   6  -3   0   66.99    3.80
  -6   3   0   60.69    9.20
   6   3   0   60.59   21.80
   6   3   0   66.99    6.00
  -6   3   0   63.09    4.60
   6   3   0   61.09    7.80
   6   3   0   62.09    4.80
  -7  -3   0  196.08    9.30
   7  -3   0  202.38    9.30
  -7  -3   0  204.38    8.60
  -7  -3   0  198.28   17.50
   7  -3   0  195.38    8.50
  -7  -3   0  201.78    9.80
   7   3   0  173.98   29.10
  -7   3   0  196.68    9.50
   7   3   0  189.68   14.40
   7   3   0  183.48   10.60
   7   3   0  197.88   10.10
  -7   3   0  196.48   12.90
   8  -3   0  671.83   26.70
   8  -3   0  681.53   27.50
  -8  -3   0  651.93   27.60
  -8  -3   0  664.03   26.70
  -8  -3   0  597.04   27.90
   8   3   0  604.04   46.90
  -8   3   0  576.64   46.40
  -8   3   0  633.14   28.90
  -8   3   0  675.73   27.30
   9  -3   0  529.35   23.40
  -9  -3   0  542.95   23.40
   9  -3   0  556.84   22.60
  -9   3   0  561.44   24.20
  -9   3   0  525.45   37.60
   0  -4   0 1261.17   50.19
   0   4   0 1093.49   71.29
   0   4   0 1108.69   60.99
   0   4   0 1214.48   51.69
  -1  -4   0  743.23   29.20
   1   4   0  691.93   31.70
   1   4   0  692.43   38.90
  -1   4   0  676.83   30.60
  -1   4   0  621.54   48.70
   1   4   0  642.74   50.79
  -1   4   0  621.84   43.00
  -2  -4   0  475.25   18.30
  -2  -4   0  421.36   24.60
   2   4   0  473.95   27.90
  -2   4   0  392.56   36.80
  -2   4   0  388.16   34.70
   2   4   0  409.66   40.40
   2   4   0  444.56   22.40
  -2   4   0  429.96   20.20
  -3  -4   0  117.49    5.40
  -3  -4   0  100.99   10.90
  -3  -4   0  120.29    5.10
   3   4   0  105.89    9.00
   3   4   0   98.89   22.90
   3   4   0  119.89    7.40
   3   4   0  116.39   12.40
  -3   4   0   90.19   22.90
  -4  -4   0  121.69    5.10
   4  -4   0  120.49    5.40
  -4  -4   0  116.39    5.50
  -4  -4   0  113.09   12.20
   4   4   0  109.79   12.20
   4   4   0   91.79   22.80
   4   4   0  101.09    9.40
   4   4   0  101.99    7.40
  -5  -4   0 1211.48   50.09
  -5  -4   0 1218.78   58.59
   5  -4   0 1174.78   49.70
   5  -4   0 1172.58   49.30
  -5  -4   0 1220.38   49.40
  -5  -4   0 1234.28   49.99
   5   4   0 1087.99   77.39
   5   4   0 1213.38   51.39
   5   4   0 1210.98   54.59
  -6  -4   0  192.08   18.00
   6  -4   0  186.68    8.60
   6  -4   0  189.18    9.20
  -6  -4   0  190.38    9.30
  -6  -4   0  186.78    8.60
  -6  -4   0  180.98    9.80
   6   4   0  227.98   14.20
   6   4   0  229.78   11.20
   6   4   0  202.28   29.50
   7  -4   0  400.46   16.60
  -7  -4   0  400.06   17.60
   7  -4   0  415.06   17.40
  -7  -4   0  390.86   16.70
  -7  -4   0  411.66   17.40
   7   4   0  392.76   22.40
   7   4   0  355.16   34.60
   8  -4   0  116.69    5.40
  -8  -4   0  134.29    5.50
  -8  -4   0  107.79    6.60
   8  -4   0  122.89    6.30
  -8   4   0  108.49   18.40
   8   4   0  144.29   20.70
   0  -5   0    2.40    6.00
   0   5   0   -0.50    6.20
   0   5   0    1.90   11.10
   0   5   0    0.70    3.40
  -1  -5   0  146.29   15.20
  -1   5   0  173.38   25.60
   1   5   0  193.88   18.20
   1   5   0  176.98   12.00
   1   5   0  161.58   26.20
  -1   5   0  177.98   11.70
  -1   5   0  177.88   20.60
  -2  -5   0  753.02   39.90
  -2  -5   0  807.82   31.20
  -2   5   0  712.63   46.60
   2   5   0  656.53   55.89
   2   5   0  735.73   35.80
  -2   5   0  702.93   50.79
   2   5   0  828.92   40.40
  -3  -5   0  456.75   29.10
  -3  -5   0  464.45   20.40
  -3  -5   0  459.25   20.00
   3   5   0  487.55   45.80
   3   5   0  507.85   25.50
  -3   5   0  484.25   38.20
  -4  -5   0  414.86   17.10
  -4  -5   0  415.26   17.60
   4  -5   0  402.56   17.40
  -4  -5   0  394.76   27.10
   4   5   0  404.36   22.30
   4   5   0  423.86   24.70
  -4   5   0  398.16   36.80
   4   5   0  377.16   40.40
  -5  -5   0  292.17   11.90
  -5  -5   0  284.47   12.40
   5  -5   0  271.47   11.80
   5  -5   0  268.77   12.20
   5   5   0  284.87   17.20
  -5   5   0  272.07   28.40
   5   5   0  260.87   31.80
  -6  -5   0   52.89    2.70
   6  -5   0   53.79    3.50
   6  -5   0   53.89    2.90
  -6  -5   0   54.79    3.50
  -6   5   0   53.49   17.00
   6   5   0   54.89    9.30
   6   5   0   42.80   13.60
   7  -5   0  177.38    7.50
   7  -5   0  169.18    8.30
  -7  -5   0  170.48    8.30
   7   5   0  173.38   19.80
   0   6   0  335.27   19.70
   0   6   0  314.87   33.10
  -1   6   0  295.37   30.90
   1   6   0  306.57   18.20
   1   6   0  281.57   32.40
  -2  -6   0  251.97   12.60
   2   6   0  291.77   32.30
  -2   6   0  287.57   26.40
   2   6   0  313.67   18.00
  -3  -6   0   37.70    3.00
  -3  -6   0   39.20    2.60
   3   6   0   38.70    8.40
   3   6   0   40.90   13.90
  -4  -6   0  188.08    9.00
  -4  -6   0  205.88    8.50
   4   6   0  194.38   24.40
   4   6   0  193.38   14.10
  -5  -6   0  237.28   11.20
  -5  -6   0  249.78   10.60
   5   6   0  258.77   25.50
   0   7   0   -0.70   10.20
   1   7   0   83.49   14.30
  10   0  -1  170.38   10.00
 -10   0   1  180.48    9.00
 -10   0   1  182.08    8.70
   9   0  -1  556.24   26.20
  -9   0   1  578.94   26.50
  -9   0   1  643.44   26.60
   8   0  -1  143.89    8.10
  -8   0   1  141.69    8.10
   8   0  -1  147.99    6.60
  -8   0   1  151.58    8.50
   8   0  -1  139.19    8.70
   7   0  -1 1561.54   65.59
   7   0  -1 1530.65   64.79
   7   0  -1 1560.04   66.39
  -7   0   1 1662.63   71.69
   7   0  -1 1627.64   67.19
  -7   0   1 1567.24   65.99
  -7   0   1 1489.35   65.99
   6   0  -1  645.94   27.30
  -6   0   1  608.44   27.30
  -6   0   1  700.63   28.40
   6   0  -1  659.53   28.00
  -6   0   1  634.44   28.60
  -6   0   1  706.13   32.00
   6   0  -1  661.43   29.00
   6   0  -1  644.54   29.10
  -5   0   1    9.30    1.20
  -5   0   1   10.00    3.00
   5   0  -1   10.70    1.60
  -5   0   1    8.30    2.30
  -5   0   1   13.00    2.50
   5   0  -1   11.80    1.20
  -4   0   1  941.91   40.10
  -4   0   1  979.90   40.40
   4   0  -1  940.81   40.70
  -4   0   1 1023.70   42.50
  -3   0   1 2661.63  107.09
   3   0  -1 2397.46  106.99
  -3   0   1 2708.33  114.69
   3   0  -1 2620.54  107.39
   2   0  -1 3922.11  167.88
   2   0  -1 4071.49  166.98
  -2   0   1 4183.48  173.58
  -1   0   1  408.36   17.40
   1   0  -1  400.06   17.10
   0   0   1  747.93   31.20
   0   0  -1  753.92   31.60
   0   0  -1  734.13   31.20
  -1   0  -1   70.49    3.50
   2   0   1  986.70   42.00
  -2   0  -1 1046.00   42.40
  -3   0  -1 2257.67   94.79
   3   0   1 2359.86   95.79
  -3   0  -1 2301.97   96.19
   3   0   1 2470.45   95.69
  -3   0  -1 2135.59   96.39
  -4   0  -1 1399.76   59.49
   4   0   1 1458.55   58.69
  -4   0  -1 1322.37   57.09
  -4   0  -1 1401.76   58.19
  -4   0  -1 1355.16   57.29
  -5   0  -1  852.41   36.70
  -5   0  -1  942.71   39.50
   5   0   1  876.01   36.90
  -5   0  -1  869.11   36.30
   5   0   1  809.82   36.40
  -5   0  -1  917.61   37.40
  -5   0  -1  893.61   37.50
  -6   0  -1  325.67   17.50
   6   0   1  304.27   15.30
   6   0   1  311.67   14.10
   6   0   1  321.17   13.40
  -6   0  -1  321.47   14.80
  -6   0  -1  318.47   14.80
   7   0   1  126.99    5.80
  -7   0  -1  124.99    7.30
   7   0   1  127.19    6.80
   7   0   1  126.19    8.10
  -7   0  -1  123.29    7.50
  -8   0  -1  569.44   24.80
   8   0   1  552.44   24.30
   8   0   1  546.75   23.40
   8   0   1  528.35   25.00
  -8   0  -1  566.64   24.70
   9   0   1  514.55   23.70
  -9   0  -1  498.15   22.20
  -9   0  -1  490.65   22.30
 -10   0  -1  536.25   23.80
 -10   0  -1  579.14   24.00
  10   0   1  537.85   25.00
 -10  -1   1  500.65   22.00
 -10  -1   1  500.05   22.00
  10  -1  -1  497.35   22.70
 -10   1   1  514.15   21.90
 -10   1   1  502.25   22.10
  -9  -1   1  256.87   12.00
   9  -1  -1  251.87   10.60
  -9  -1   1  264.27   12.80
  -9   1   1  244.38   12.20
   9   1  -1  241.08   12.40
   9   1  -1  260.07   12.10
   9   1  -1  207.28   14.60
   8  -1  -1   66.89    4.60
  -8  -1   1   73.99    5.40
  -8  -1   1   70.59   15.60
  -8  -1   1   69.49    5.40
   8   1  -1   74.79    6.70
   8   1  -1   70.89    5.60
   8   1  -1   69.69    8.50
  -8   1   1   71.99    6.10
  -8   1   1   73.49    5.10
   7  -1  -1  108.89    5.10
  -7  -1   1  112.69   10.80
  -7  -1   1  110.79    6.20
   7  -1  -1  105.59    5.70
  -7  -1   1  112.89    6.50
  -7  -1   1  103.69    5.10
  -7  -1   1  107.39    6.90
   7   1  -1  114.99    7.70
   7   1  -1  105.79    6.80
  -7   1   1  106.79    6.50
  -7   1   1  112.89    7.40
  -6  -1   1 1061.49   45.00
  -6  -1   1 1103.79   49.10
  -6  -1   1 1054.49   44.40
  -6  -1   1 1087.49   45.20
  -6  -1   1 1056.19   45.80
   6  -1  -1 1067.19   44.40
   6  -1  -1 1033.00   45.00
  -6   1   1 1098.89   45.80
  -6   1   1 1100.89   45.60
   6   1  -1 1102.69   46.20
  -6   1   1 1056.09   51.49
   5  -1  -1 1413.56   59.69
  -5  -1   1 1447.86   59.79
  -5  -1   1 1469.05   63.39
   5  -1  -1 1492.15   59.79
   5   1  -1 1437.46   61.19
  -5   1   1 1436.96   60.39
   5   1  -1 1386.96   60.79
   5   1  -1 1420.36   59.29
   5   1  -1 1407.86   59.89
  -5   1   1 1421.96   60.29
   5   1  -1 1385.06   60.49
  -5   1   1 1571.34   65.29
   4  -1  -1 2288.77   97.39
  -4  -1   1 2354.56  100.99
  -4  -1   1 2279.37   97.79
   4   1  -1 2434.06   97.89
   4   1  -1 2322.57   99.19
  -4   1   1 2573.54  102.09
   3  -1  -1  162.98    7.10
  -3  -1   1  146.59    9.10
  -3   1   1  173.28    9.80
   3   1  -1  158.68    8.40
   2  -1  -1  131.59    5.80
  -2  -1   1  131.09    7.70
  -2  -1   1  132.19    5.90
   2   1  -1  123.69    6.80
  -2   1   1  145.29    8.10
  -1  -1   1 1768.22   78.69
  -1   1   1 1819.62   73.99
   1   1  -1 1774.02   74.29
   0  -1   1 1658.73   65.29
   0  -1   1 1667.53   61.19
   0   1   1 1297.77   61.39
   0   1  -1 1284.87   61.19
  -1  -1  -1 4364.36  188.78
  -1   1  -1 4384.16  188.58
   1   1   1 4864.41  192.98
   2  -1   1 2621.84  106.69
  -2  -1  -1 2501.85  108.19
  -2  -1  -1 2542.35  106.79
   2   1   1 2672.53  109.99
  -3  -1  -1 1212.08   53.39
   3  -1   1 1250.37   52.79
  -3  -1  -1 1358.56   53.29
   3   1   1 1237.08   52.99
   3   1   1 1340.27   54.79
   4  -1   1  760.72   32.80
  -4  -1  -1  820.72   32.60
   4  -1   1  754.22   32.50
  -4  -1  -1  764.62   32.90
  -4  -1  -1  708.13   36.00
  -4  -1  -1  803.52   33.60
   4   1   1  819.52   35.10
  -4   1  -1  841.32   34.40
   4   1   1  797.52   32.60
   4   1   1  801.72   33.00
   5  -1   1 1370.46   55.19
   5  -1   1 1371.76   55.69
  -5  -1  -1 1396.76   56.09
  -5  -1  -1 1354.46   59.79
  -5  -1  -1 1305.77   56.49
  -5  -1  -1 1326.67   56.69
  -5  -1  -1 1344.87   55.19
  -5  -1  -1 1313.17   55.59
   5   1   1 1308.67   55.19
  -5   1  -1 1331.67   56.19
   5   1   1 1327.27   56.49
  -5   1  -1 1342.47   56.39
   5   1   1 1334.97   57.99
  -6  -1  -1 1125.19   48.20
  -6  -1  -1 1125.49   49.10
   6  -1   1 1136.59   47.70
  -6  -1  -1 1100.19   47.60
   6  -1   1 1174.28   48.40
  -6  -1  -1 1165.58   48.70
  -6  -1  -1 1157.28   52.59
  -6   1  -1 1173.38   49.10
   6   1   1 1206.78   50.99
   6   1   1 1178.18   49.10
   6   1   1 1161.58   47.70
  -6   1  -1 1126.59   48.80
   6   1   1 1183.28   49.40
   7  -1   1  318.97   13.70
  -7  -1  -1  310.47   14.50
  -7  -1  -1  324.67   14.70
  -7  -1  -1  328.47   14.40
   7  -1   1  324.47   12.90
  -7  -1  -1  312.77   12.90
  -7  -1  -1  309.17   19.10
  -7   1  -1  289.67   14.20
  -7   1  -1  285.47   14.50
   7   1   1  262.47   15.00
   7   1   1  283.57   15.90
   7   1   1  267.87   14.50
  -8  -1  -1  558.04   25.00
  -8  -1  -1  561.14   25.10
   8  -1   1  559.94   23.60
   8  -1   1  554.64   24.50
  -8   1  -1  568.04   25.30
  -8   1  -1  567.24   24.90
   8   1   1  566.44   25.30
   8   1   1  570.04   27.00
   9  -1   1  100.09    7.00
  -9  -1  -1  114.09    6.30
   9  -1   1  109.59    5.20
  -9  -1  -1  110.49    6.50
  -9   1  -1  120.99    6.20
   9   1   1  115.79    8.40
  -9   1  -1  115.79    6.50
  10  -1   1   35.90    3.70
 -10  -1  -1   34.00    2.90
 -10  -1  -1   32.00    3.00
 -10   1  -1   26.10    2.50
  10   1   1   31.10    6.80
 -10   1  -1   27.90    3.10
 -10  -2   1  142.59    6.80
 -10  -2   1  140.39    7.50
  10  -2  -1  124.39    6.00
 -10   2   1  126.29   15.40
 -10   2   1  134.89    6.40
  -9  -2   1  372.96   16.80
   9  -2  -1  370.56   16.60
  -9  -2   1  377.06   17.20
   9  -2  -1  382.46   15.70
  -9   2   1  366.86   17.50
  -9   2   1  366.56   16.60
   9   2  -1  366.06   17.00
   9   2  -1  369.36   17.00
  -8  -2   1  781.22   29.80
  -8  -2   1  659.33   30.10
  -8  -2   1  620.34   29.20
  -8  -2   1  642.64   28.30
  -8  -2   1  665.23   37.20
   8  -2  -1  683.53   29.30
   8  -2  -1  665.93   28.40
  -8   2   1  709.63   30.70
   8   2  -1  728.53   30.10
   8   2  -1  609.94   51.79
   8   2  -1  702.63   30.20
  -8   2   1  707.83   29.60
  -7  -2   1  466.45   19.50
   7  -2  -1  478.45   19.60
  -7  -2   1  456.35   21.50
  -7  -2   1  472.15   20.60
  -7  -2   1  494.15   26.30
  -7  -2   1  457.05   20.20
   7  -2  -1  461.75   20.30
  -7   2   1  476.15   22.10
   7   2  -1  464.15   21.10
   7   2  -1  406.46   43.60
   7   2  -1  474.15   21.60
  -7   2   1  458.05   20.70
  -6  -2   1  422.66   22.90
   6  -2  -1  422.86   17.20
  -6  -2   1  411.46   17.90
  -6  -2   1  406.26   17.20
  -6  -2   1  403.36   18.00
   6  -2  -1  408.76   17.80
   6   2  -1  374.76   19.10
  -6   2   1  415.96   18.30
   6   2  -1  413.36   18.80
  -5  -2   1  204.68   13.40
   5  -2  -1  206.38    8.80
  -5  -2   1  213.58    9.40
   5  -2  -1  217.58    9.30
   5   2  -1  198.48   10.80
   5   2  -1  198.18   15.00
   5   2  -1  198.28   10.10
  -5   2   1  208.78    9.90
  -5   2   1  206.38   12.50
   5   2  -1  195.08   11.50
   4  -2  -1  613.44   26.00
  -4  -2   1  599.14   30.50
  -4  -2   1  631.64   26.10
   4  -2  -1  636.64   26.30
  -4  -2   1  616.24   26.50
   4   2  -1  638.34   28.80
   4   2  -1  653.53   32.70
   4   2  -1  639.74   27.80
   4   2  -1  632.84   27.20
  -3  -2   1 2633.04  127.79
   3  -2  -1 3221.98  123.49
  -3  -2   1 2965.60  122.69
  -3  -2   1 3050.09  123.69
  -3  -2   1 3188.98  124.49
   3   2  -1 2906.91  125.19
  -2  -2   1 1999.00   77.29
  -2  -2   1 2057.59   77.49
  -2  -2   1 1708.03   80.29
   2  -2  -1 1842.22   77.09
   2   2  -1 1774.02   79.09
  -2   2   1 1887.31   78.19
  -1  -2   1 1023.20   42.40
   1   2  -1  980.70   43.90
  -1   2   1 1079.79   43.90
   0   2   1  217.48   10.80
   0   2  -1  210.08   10.40
  -1  -2  -1   94.79    4.10
  -1  -2  -1   92.19    4.90
  -1   2  -1   89.49    5.10
   1   2   1   88.99    5.90
  -2  -2  -1  183.48    7.70
   2  -2   1  176.58    7.50
  -2  -2  -1  179.98    8.40
   2   2   1  169.68    9.80
   3  -2   1 2171.08  103.59
  -3  -2  -1 2486.65  104.19
  -3  -2  -1 2588.94  103.19
  -3  -2  -1 2706.63  103.89
   3   2   1 2628.64  106.49
  -4  -2  -1 1459.85   71.79
  -4  -2  -1 1620.34   66.79
  -4  -2  -1 1679.33   67.99
   4  -2   1 1614.44   66.99
  -4  -2  -1 1584.24   67.09
   4  -2   1 1625.04   66.69
   4   2   1 1723.33   70.49
   4   2   1 1634.14   68.29
  -4   2  -1 1695.63   67.69
   4   2   1 1641.24   67.79
  -4   2  -1 1576.74   68.09
  -5  -2  -1  521.85   28.50
  -5  -2  -1  547.25   23.70
  -5  -2  -1  559.74   24.40
   5  -2   1  556.14   23.30
  -5  -2  -1  535.85   23.30
   5  -2   1  535.15   22.80
  -5  -2  -1  544.45   22.90
   5   2   1  554.84   24.10
  -5   2  -1  564.84   24.60
   5   2   1  586.94   28.10
   5   2   1  483.85   47.10
   5   2   1  570.94   26.70
   5   2   1  555.24   24.60
  -5   2  -1  555.54   23.80
   6  -2   1   44.90    2.50
  -6  -2  -1   46.20    6.40
   6  -2   1   46.40    3.10
  -6  -2  -1   46.20    2.50
  -6  -2  -1   48.50    8.20
  -6  -2  -1   47.90    3.10
  -6  -2  -1   50.79    4.30
   6   2   1   40.70    4.30
   6   2   1   38.90   25.60
  -6   2  -1   41.60    5.40
   6   2   1   49.00    5.30
  -6   2  -1   41.30    3.90
   6   2   1   37.10    6.80
  -7  -2  -1    4.80    1.00
   7  -2   1    4.70    1.40
  -7  -2  -1    9.80    2.50
  -7  -2  -1    6.40    3.20
  -7  -2  -1    4.90    1.30
   7  -2   1    4.90    0.90
  -7  -2  -1    8.10    6.00
  -7   2  -1    3.60    1.70
   7   2   1   11.80    6.60
   7   2   1    6.20    2.70
  -7   2  -1    6.00    2.80
   7   2   1    3.90    2.00
  -8  -2  -1  563.04   25.90
   8  -2   1  594.24   25.10
   8  -2   1  590.94   24.20
  -8  -2  -1  550.24   24.10
  -8  -2  -1  573.44   25.50
  -8   2  -1  594.74   25.40
   8   2   1  570.74   28.90
  -8   2  -1  595.44   26.20
  -9  -2  -1  593.24   26.50
   9  -2   1  594.14   25.20
   9  -2   1  576.24   26.10
  -9  -2  -1  593.34   26.20
  -9   2  -1  643.74   26.80
  -9   2  -1  634.44   26.10
   9  -3  -1  221.68   10.30
  -9  -3   1  215.78   10.20
   9  -3  -1  219.78    9.30
  -9   3   1  208.68   22.20
  -9   3   1  219.78    9.70
  -8  -3   1    1.40    0.80
   8  -3  -1   -0.40    1.20
  -8  -3   1    0.00    1.40
   8   3  -1   -0.30   10.60
   8   3  -1    1.50    1.40
  -8   3   1   -2.10    7.50
  -8   3   1    0.20    1.40
   8   3  -1    2.00    1.70
  -8   3   1   -0.90    4.20
   7  -3  -1  226.58   10.00
  -7  -3   1  233.88   11.10
  -7  -3   1  217.08   10.00
  -7  -3   1  236.38   18.40
   7  -3  -1  219.28   10.70
   7   3  -1  235.38   11.50
   7   3  -1  223.28   32.00
   7   3  -1  240.88   15.30
   7   3  -1  238.78   12.30
  -7   3   1  244.68   11.10
  -6  -3   1  822.72   39.80
  -6  -3   1  782.02   32.90
  -6  -3   1  790.82   32.90
   6  -3  -1  758.72   32.70
   6  -3  -1  801.42   32.20
  -6  -3   1  785.22   32.20
   6   3  -1  781.12   34.30
  -6   3   1  769.12   33.00
   6   3  -1  787.72   36.40
   6   3  -1  762.12   33.50
   6   3  -1  665.43   57.59
  -5  -3   1  894.31   37.60
  -5  -3   1  905.31   43.90
   5  -3  -1  831.72   36.90
   5  -3  -1  897.61   37.50
  -5  -3   1  897.41   37.00
   5   3  -1  913.91   41.10
   5   3  -1  910.11   44.80
   5   3  -1  833.22   63.79
   5   3  -1  918.11   38.20
  -5   3   1  935.51   37.80
  -4  -3   1  874.91   44.20
   4  -3  -1  970.20   38.60
  -4  -3   1  935.81   38.80
  -4  -3   1  920.51   38.30
   4  -3  -1  923.31   38.30
  -4   3   1  916.31   38.90
   4   3  -1  972.30   39.40
   4   3  -1  799.92   62.29
   4   3  -1 1033.40   46.50
   4   3  -1  908.91   41.90
   4   3  -1  937.91   40.10
  -3  -3   1  219.68   14.30
  -3  -3   1  229.08    9.70
   3  -3  -1  233.48    9.50
  -3  -3   1  218.98    9.30
   3   3  -1  212.18   11.40
   3   3  -1  188.68   28.40
   3   3  -1  224.08   10.60
   3   3  -1  226.38   17.30
   3   3  -1  219.98   12.50
  -2  -3   1    4.40    0.80
  -2  -3   1    2.60    2.10
   2   3  -1    6.90   12.20
  -1  -3   1  923.21   35.70
  -1  -3   1  782.72   39.00
  -1   3   1  885.71   37.80
   1   3  -1  829.82   37.80
   0  -3  -1  710.73   31.60
   0   3  -1  723.53   32.30
   0   3   1  747.63   32.90
  -1  -3  -1 2174.58   85.09
  -1  -3  -1 2148.89   86.49
   1   3   1 2016.60   88.29
  -1   3  -1 1945.31   86.79
  -2  -3  -1 2001.20   81.79
  -2  -3  -1 2066.69   83.09
   2  -3   1 1920.71   83.19
  -2  -3  -1 2051.89   82.09
  -2   3  -1 2123.19  112.59
   2   3   1 1828.02  104.89
  -2   3  -1 1971.80   83.19
   2   3   1 1975.00   85.49
   2   3   1 1998.80   83.29
  -3  -3  -1   64.99    4.50
  -3  -3  -1   61.79    3.30
  -3  -3  -1   62.69    3.50
   3  -3   1   63.59    3.40
   3   3   1   70.49   21.10
   3   3   1   76.39    5.90
   3   3   1   78.69    4.90
   3   3   1   80.69    6.70
  -3   3  -1   68.89    8.20
  -3   3  -1   83.09   20.20
  -4  -3  -1  273.67   11.60
  -4  -3  -1  283.27   12.70
  -4  -3  -1  262.47   11.10
  -4  -3  -1  242.08   17.10
   4  -3   1  281.47   11.40
  -4   3  -1  253.77   29.70
  -4   3  -1  254.97   12.00
   4   3   1  267.27   12.30
  -4   3  -1  255.87   14.30
   4   3   1  257.37   18.40
   4   3   1  230.18   31.60
   4   3   1  256.27   13.00
   5  -3   1  394.56   17.10
   5  -3   1  407.86   17.60
  -5  -3  -1  395.36   17.70
  -5  -3  -1  391.06   18.20
  -5  -3  -1  382.56   24.30
  -5  -3  -1  390.56   19.00
  -5  -3  -1  414.76   17.20
   5   3   1  376.26   39.80
  -5   3  -1  457.65   20.30
   5   3   1  418.66   22.10
   5   3   1  426.86   19.20
  -5   3  -1  417.16   39.40
   5   3   1  436.66   18.60
  -6  -3  -1  836.32   42.60
   6  -3   1  803.22   34.40
  -6  -3  -1  834.42   33.90
   6  -3   1  832.02   33.80
  -6  -3  -1  776.52   34.70
   6   3   1  748.53   58.59
  -6   3  -1  867.21   36.60
   6   3   1  826.32   35.80
   6   3   1  818.12   35.20
   6   3   1  803.62   38.80
  -6   3  -1  808.82   59.39
  -6   3  -1  819.92   34.60
   7  -3   1  390.86   16.80
  -7  -3  -1  389.06   16.80
  -7  -3  -1  408.56   26.70
  -7  -3  -1  394.76   18.00
   7  -3   1  415.86   17.60
  -7  -3  -1  406.06   17.50
  -7   3  -1  429.76   19.90
   7   3   1  390.26   22.30
  -7   3  -1  385.86   39.10
  -7   3  -1  406.66   17.70
   7   3   1  360.26   38.10
   8  -3   1  378.16   16.20
  -8  -3  -1  353.66   15.30
  -8  -3  -1  352.66   16.30
  -8  -3  -1  367.46   16.40
   8  -3   1  374.16   15.40
  -8   3  -1  367.16   17.50
  -8   3  -1  377.96   16.10
  -8   3  -1  342.57   32.10
   9  -3   1   51.09    4.20
   9  -3   1   51.19    2.80
  -9   3  -1   58.89   12.70
  -9   3  -1   65.39    5.20
  -8  -4   1  319.67   14.00
   8  -4  -1  319.07   14.00
   8  -4  -1  327.87   13.30
  -8  -4   1  295.47   14.10
  -8  -4   1  313.27   13.30
   8   4  -1  295.47   28.30
  -8   4   1  327.27   27.40
   7  -4  -1  529.65   22.50
   7  -4  -1  522.45   21.80
  -7  -4   1  514.65   22.60
  -7  -4   1  527.65   22.60
  -7  -4   1  532.25   21.90
   7   4  -1  469.45   42.00
   7   4  -1  552.44   23.70
  -7   4   1  535.25   41.60
   7   4  -1  517.75   26.90
  -6  -4   1   98.19    5.30
  -6  -4   1   93.89    5.90
  -6  -4   1   95.49    4.70
  -6  -4   1   95.69   13.80
   6  -4  -1  100.99    5.20
   6  -4  -1   97.29    4.60
   6   4  -1   95.69   24.10
  -6   4   1  110.69   27.20
   6   4  -1  101.09    7.40
   6   4  -1  101.09    9.60
   6   4  -1  108.79    6.30
  -5  -4   1   51.89    3.40
   5  -4  -1   57.39    3.30
  -5  -4   1   54.39   10.30
  -5  -4   1   54.99    3.00
   5  -4  -1   55.79    2.90
  -5   4   1   55.39   24.90
   5   4  -1   44.30   19.90
   5   4  -1   56.49    9.90
   5   4  -1   53.39    4.50
   5   4  -1   51.99    5.60
   5   4  -1   54.09    7.30
   4  -4  -1  335.77   15.70
  -4  -4   1  369.56   15.30
  -4  -4   1  370.66   22.80
  -4  -4   1  370.26   15.80
   4   4  -1  382.46   23.40
   4   4  -1  361.26   17.50
   4   4  -1  352.06   16.20
   4   4  -1  321.27   39.10
  -4   4   1  326.87   35.90
  -4   4   1  406.06   34.40
   4   4  -1  373.36   20.00
  -3  -4   1  820.62   32.80
  -3  -4   1  832.92   40.30
  -3  -4   1  848.72   33.30
   3  -4  -1  829.52   33.00
  -3   4   1  786.42   50.59
  -3   4   1  681.93   51.49
   3   4  -1  825.62   44.20
   3   4  -1  815.72   34.90
   3   4  -1  779.92   37.20
   3   4  -1  696.33   58.49
  -2  -4   1 1333.27   60.19
  -2  -4   1 1334.27   53.59
  -2   4   1 1257.47   78.49
   2   4  -1 1288.57   55.09
   2   4  -1 1293.47   63.79
  -2   4   1 1289.27   55.89
   2   4  -1 1369.36   57.69
  -2   4   1 1242.98   73.19
   2   4  -1 1238.68   81.09
  -1  -4   1  604.04   30.50
  -1   4   1  596.74   45.10
  -1   4   1  610.44   27.90
   1   4  -1  618.14   28.90
   1   4  -1  557.64   48.20
   1   4  -1  578.34   36.50
   0  -4   1  110.09    9.50
   0  -4  -1  115.99    7.60
   0   4  -1  117.49    7.60
   0   4  -1  105.79   17.20
   0   4   1  114.09    8.00
   0   4  -1   93.59   23.60
   0   4   1  110.89   21.50
  -1  -4  -1   59.69    3.10
  -1  -4  -1   57.59    5.00
   1  -4   1   55.59    6.70
  -1   4  -1   62.49   16.80
   1   4   1   55.09   18.10
  -1   4  -1   47.00   21.40
   1   4   1   51.99    7.20
  -1   4  -1   59.69    5.10
  -2  -4  -1  282.97   11.90
  -2  -4  -1  270.97   13.30
  -2   4  -1  252.17   28.10
  -2   4  -1  293.87   13.90
   2   4   1  263.97   31.90
   2   4   1  277.27   16.20
   3  -4   1  835.12   32.70
  -3  -4  -1  873.21   33.10
  -3  -4  -1  814.72   32.60
   3   4   1  800.22   40.10
   3   4   1  801.42   38.00
   3   4   1  690.83   56.59
  -3   4  -1  673.43   51.89
  -4  -4  -1  782.92   41.60
  -4  -4  -1  897.51   32.60
  -4  -4  -1  846.42   33.10
   4   4   1  757.02   58.89
   4   4   1  821.42   38.20
   4   4   1  787.02   40.00
  -4   4  -1  679.53   35.20
  -4   4  -1  678.93   54.79
  -5  -4  -1  546.45   24.00
   5  -4   1  564.04   23.90
   5  -4   1  528.05   23.40
  -5  -4  -1  547.65   32.90
  -5  -4  -1  570.44   23.50
   5   4   1  560.64   48.70
   5   4   1  605.04   29.30
  -6  -4  -1   73.49    4.20
  -6  -4  -1   72.39    3.60
   6  -4   1   74.89    3.50
   6  -4   1   74.49    4.20
  -6  -4  -1   72.39   14.80
   6   4   1   63.99   19.40
   6   4   1   65.29    9.10
  -7  -4  -1   83.99    4.70
  -7  -4  -1   80.19    3.90
   7  -4   1   87.49    4.00
   7  -4   1   89.69    4.80
  -7   4  -1   69.09   17.70
  -7   4  -1   72.79    8.30
   7   4   1   90.19   12.20
   7   4   1   82.39   17.70
  -8  -4  -1  242.08   11.40
  -8  -4  -1  224.78   10.60
   8  -4   1  236.48   10.80
   8  -4   1  249.28   10.10
  -8   4  -1  223.78   23.80
   7  -5  -1  100.99    5.80
  -7  -5   1  103.09    5.70
   7  -5  -1  106.49    4.70
  -7  -5   1  102.79    5.00
   7   5  -1   97.89   16.30
  -6  -5   1  595.04   24.20
  -6  -5   1  578.44   24.80
   6  -5  -1  566.34   24.10
   6  -5  -1  556.54   24.70
   6   5  -1  569.14   46.40
   6   5  -1  617.24   29.00
  -5  -5   1  550.64   22.00
   5  -5  -1  532.75   21.90
   5  -5  -1  521.15   22.30
  -5  -5   1  541.05   22.60
   5   5  -1  474.95   30.30
   5   5  -1  486.95   46.60
  -5   5   1  560.64   46.00
   5   5  -1  528.25   26.80
   4  -5  -1  207.58    9.50
  -4  -5   1  198.98   18.40
  -4  -5   1  203.28    9.70
  -4  -5   1  208.98    9.10
   4   5  -1  231.88   17.10
   4   5  -1  200.28   31.20
   4   5  -1  218.38   14.20
  -3  -5   1    1.90    6.10
  -3  -5   1    6.10    1.20
  -3  -5   1    3.50    1.10
   3  -5  -1    4.10    1.20
   3   5  -1    9.10   13.00
  -2  -5   1  215.78   17.50
   2  -5  -1  209.58   15.80
  -2  -5   1  224.18    9.60
   2   5  -1  192.28   30.50
  -2   5   1  200.08   25.30
   2   5  -1  233.58   19.00
   2   5  -1  209.38   13.60
  -1  -5   1  214.18   17.50
   1   5  -1  218.78   31.40
  -1   5   1  231.18   14.50
   1   5  -1  240.48   20.80
  -1   5   1  214.08   27.00
   1   5  -1  236.18   14.00
   0   5  -1  808.92   36.00
   0   5  -1  788.82   46.30
   0   5  -1  727.33   57.19
   0   5   1  799.72   37.00
   0   5   1  753.22   55.59
  -1  -5  -1 1212.58   47.20
  -1   5  -1 1195.88   50.19
   1   5   1 1166.28   52.19
  -1   5  -1 1096.09   63.09
  -1   5  -1 1051.39   70.69
   1   5   1 1081.99   72.79
  -2  -5  -1  229.88   18.60
  -2   5  -1  183.88   28.20
  -2   5  -1  185.98   24.00
   2   5   1  193.48   28.50
   2   5   1  215.18   14.20
  -3  -5  -1   68.69    3.90
  -3  -5  -1   64.19   13.00
   3   5   1   78.09    8.80
  -3   5  -1   61.69   19.60
   3   5   1   77.49   20.50
  -4  -5  -1   62.99    3.70
   4  -5   1   62.19    3.80
  -4  -5  -1   59.39   14.70
  -4  -5  -1   62.79    3.20
   4   5   1   62.39    8.70
   4   5   1   59.99   18.50
  -4   5  -1   46.90   19.70
  -5  -5  -1   86.29    4.50
   5  -5   1   77.99    4.00
  -5  -5  -1   83.09    3.90
   5   5   1   70.69    9.40
   6  -5   1  522.55   23.20
  -6  -5  -1  557.94   22.70
   6  -5   1  574.44   22.70
  -6  -5  -1  537.35   23.30
   6   5   1  544.85   28.40
   6   5   1  526.45   40.20
  -7  -5  -1  322.57   12.90
   7  -5   1  311.57   13.00
  -7  -5  -1  297.37   13.70
  -7   5  -1  297.57   25.80
  -5  -6   1   27.30    3.30
  -5  -6   1   25.70    1.90
   5   6  -1   28.80   11.70
  -4  -6   1   67.59    3.70
  -4  -6   1   67.99    4.10
   4   6  -1   69.99   17.10
   4   6  -1   72.99    9.10
  -3  -6   1  313.97   13.60
  -3  -6   1  297.37   14.00
   3   6  -1  331.77   19.70
   3   6  -1  320.37   35.20
   3   6  -1  315.47   18.30
  -3   6   1  335.37   25.10
  -2  -6   1  413.46   19.70
   2   6  -1  490.95   26.20
   2   6  -1  445.76   23.40
  -2   6   1  459.45   33.70
   2   6  -1  431.46   41.50
  -1   6   1  308.77   37.10
   1   6  -1  312.67   18.30
   1   6  -1  355.26   21.70
   0   6   1   81.69   17.00
   0   6   1   74.59   17.00
   0   6  -1   86.99   11.40
   0   6  -1   80.49   10.80
  -1   6  -1   91.99   17.50
   1   6   1   99.59   12.00
  -1   6  -1  105.09   13.20
   1   6   1   82.39   19.60
  -2  -6  -1  119.89    5.80
   2   6   1   99.29   17.40
  -2   6  -1  119.89   15.80
   2   6   1  114.29   12.30
  -3  -6  -1  164.28    7.30
  -3  -6  -1  159.08    7.70
   3   6   1  154.18   21.40
   3   6   1  173.68   14.40
  -3   6  -1  186.48   19.30
  -4  -6  -1  271.97   12.20
  -4  -6  -1  266.57   12.70
   4   6   1  278.57   27.50
   4   6   1  317.67   24.00
  -4   6  -1  315.77   25.00
  -5  -6  -1  304.27   14.10
  -5  -6  -1  312.77   13.40
  -5   6  -1  352.16   25.00
   5   6   1  311.37   26.50
  -1   7   1   91.99   14.00
   1   7  -1   83.89   25.80
 -10   0   2  379.06   16.80
 -10   0   2  373.96   16.70
  10   0  -2  363.96   16.90
   9   0  -2  188.98    9.30
  -9   0   2  155.78   10.10
   8   0  -2  753.22   34.90
  -8   0   2  858.91   36.30
   8   0  -2  867.01   36.60
  -8   0   2  863.71   36.30
   8   0  -2  841.02   36.60
   7   0  -2   55.99    3.20
   7   0  -2   59.79    5.50
  -7   0   2   56.29    9.50
  -7   0   2   52.89    5.00
  -7   0   2   57.39    4.90
   7   0  -2   60.99    6.20
   7   0  -2   55.19    4.40
  -6   0   2  913.81   40.70
   6   0  -2  829.02   37.00
  -6   0   2  879.31   36.40
   6   0  -2  865.01   35.40
   6   0  -2  839.42   37.00
  -6   0   2  786.22   35.40
  -6   0   2  840.32   36.70
   6   0  -2  879.71   36.10
   5   0  -2 1591.44   66.69
   5   0  -2 1577.94   67.49
  -5   0   2 1637.34   66.89
   5   0  -2 1578.44   66.19
  -5   0   2 1700.53   70.19
  -5   0   2 1610.64   67.29
  -5   0   2 1563.84   66.19
   4   0  -2 1715.13   73.09
  -4   0   2 1860.41   76.09
  -4   0   2 1760.72   73.39
  -3   0   2  628.74   27.50
  -3   0   2  611.54   25.60
   3   0  -2  601.54   25.60
  -2   0   2   14.30    2.10
   2   0  -2   14.10    1.30
  -2   0   2   14.90    1.30
  -1   0   2 2007.30   86.39
   0   0  -2 4558.54  180.08
   0   0   2 4052.59  184.48
   1   0   2 3119.69  133.59
  -1   0  -2 3353.36  135.99
  -2   0  -2 2394.46   95.39
  -2   0  -2 2066.79   91.59
   3   0   2  223.68    9.80
  -3   0  -2  215.58    9.70
  -3   0  -2  235.88   10.40
   4   0   2 1040.30   42.90
  -4   0  -2 1027.50   43.90
   4   0   2 1076.69   44.60
  -4   0  -2  987.30   42.80
  -4   0  -2 1031.30   45.10
   4   0   2 1021.70   42.50
  -5   0  -2  182.38   10.50
   5   0   2  184.08   10.40
  -5   0  -2  161.38    7.50
   5   0   2  176.58    8.10
   5   0   2  162.98    9.70
  -5   0  -2  165.88    8.90
  -5   0  -2  171.28    9.10
   5   0   2  174.58    7.50
  -5   0  -2  177.88    9.30
   6   0   2 1146.89   50.39
   6   0   2 1174.28   48.70
  -6   0  -2 1172.28   50.29
   6   0   2 1226.48   49.50
  -7   0  -2 1266.07   53.19
  -7   0  -2 1244.68   53.19
   7   0   2 1283.17   51.79
   7   0   2 1220.08   52.59
   8   0   2  586.54   25.40
  -8   0  -2  615.04   27.00
  -8   0  -2  615.54   27.10
   8   0   2  626.24   28.60
   9   0   2  137.99    8.90
  -9   0  -2  149.19    7.80
  -9   0  -2  144.69    7.50
 -10   0  -2   58.69    3.90
  10   0   2   59.29    5.00
 -10   0  -2   56.99    3.70
 -10  -1   2    8.90    1.80
 -10  -1   2    6.00    1.60
  10  -1  -2    8.70    2.80
 -10   1   2    7.10    1.50
 -10   1   2    8.10    2.20
  10   1  -2    6.20    1.70
   9  -1  -2  168.28    9.70
  -9  -1   2  188.18    9.40
   9  -1  -2  190.18    8.10
  -9  -1   2  195.68    9.40
   9   1  -2  178.88    9.80
   9   1  -2  175.28    9.30
  -9   1   2  191.58    9.70
  -9   1   2  187.28    9.30
  -8  -1   2 1074.69   46.00
  -8  -1   2 1043.80   53.29
  -8  -1   2 1070.19   45.70
   8  -1  -2 1046.40   44.40
   8  -1  -2 1035.80   45.30
   8   1  -2 1121.49   46.30
  -8   1   2 1083.19   45.80
  -8   1   2 1129.69   46.30
   8   1  -2 1045.10   46.00
  -7  -1   2  750.62   31.40
   7  -1  -2  711.13   31.10
  -7  -1   2  700.33   31.10
   7  -1  -2  739.53   30.40
  -7  -1   2  720.13   31.90
   7  -1  -2  779.12   34.20
  -7  -1   2  777.42   36.80
  -7  -1   2  711.53   30.30
  -7   1   2  733.43   31.70
  -7   1   2  682.23   31.90
  -7   1   2  761.22   46.20
   7   1  -2  696.43   31.90
   7   1  -2  706.13   32.20
  -6  -1   2  747.03   34.70
  -6  -1   2  690.43   30.40
   6  -1  -2  712.13   29.80
   6  -1  -2  685.83   30.40
  -6  -1   2  693.13   29.80
  -6  -1   2  683.53   30.60
   6  -1  -2  699.03   31.50
  -6  -1   2  705.53   31.40
  -6   1   2  735.33   31.40
  -6   1   2  800.32   38.20
  -6   1   2  715.93   31.10
   6   1  -2  731.03   31.70
   6   1  -2  739.53   31.40
  -5  -1   2  300.07   12.70
   5  -1  -2  292.67   12.60
  -5  -1   2  287.67   14.40
   5  -1  -2  286.77   12.10
  -5  -1   2  312.57   16.00
  -5  -1   2  294.17   12.20
   5   1  -2  277.57   13.60
  -5   1   2  272.87   13.20
   5   1  -2  267.17   13.90
  -5   1   2  268.07   14.00
  -5   1   2  305.77   17.80
   5   1  -2  273.57   13.70
   5   1  -2  289.47   14.70
   5   1  -2  277.57   12.30
   4  -1  -2  158.08    6.60
  -4  -1   2  158.88    9.50
   4  -1  -2  154.68    7.10
   4   1  -2  136.79    8.00
   4   1  -2  138.49    7.40
  -4   1   2  171.08   10.70
  -3  -1   2  657.93   28.40
   3  -1  -2  661.33   28.40
  -3  -1   2  672.13   30.90
  -3   1   2  761.92   32.60
   3   1  -2  691.03   29.80
   2  -1  -2 1788.42   76.49
  -2  -1   2 1917.11   76.99
  -2  -1   2 1936.21   80.89
   2   1  -2 1952.20   76.69
   2   1  -2 1632.24   77.69
  -2   1   2 1943.11   82.49
   1  -1  -2 9772.42  398.96
  -1  -1   2 9885.61  399.16
  -1  -1   2 9999.00  407.86
  -1   1   2 9270.57  413.56
   1   1  -2 9622.24  404.06
   0  -1   2  115.09    5.70
   0  -1   2  134.79    6.20
   0  -1  -2  127.79    5.50
   0  -1  -2  133.09    6.40
   1  -1   2    0.30    0.50
  -1  -1  -2    1.20    0.60
  -2  -1  -2  204.68    8.80
   2  -1   2  192.98    8.70
  -2  -1  -2  186.38    9.30
   2   1   2  211.68   10.30
  -2   1  -2  214.58    9.30
   3  -1   2 1869.11   73.39
  -3  -1  -2 1765.52   74.09
   3  -1   2 1794.32   72.99
  -3   1  -2 1738.13   74.19
   3   1   2 1710.73   73.39
   3   1   2 1794.42   75.29
   4  -1   2  880.21   38.70
  -4  -1  -2  888.31   40.00
   4  -1   2  950.10   40.20
  -4  -1  -2  900.41   38.70
   4  -1   2  923.71   39.10
  -4  -1  -2  892.31   39.00
   4   1   2 1037.80   39.20
   4   1   2  988.60   41.60
   4   1   2  966.60   38.80
  -5  -1  -2 1077.29   45.90
   5  -1   2 1152.78   45.50
  -5  -1  -2 1108.49   46.50
  -5  -1  -2 1117.09   47.20
  -5  -1  -2 1085.19   46.80
  -5  -1  -2 1085.59   50.29
  -5  -1  -2 1095.09   45.40
   5  -1   2 1110.99   46.00
   5   1   2 1096.79   46.10
   5   1   2 1079.89   47.90
   5   1   2 1069.69   46.70
   5   1   2 1056.29   47.00
   5   1   2 1097.59   45.40
  -5   1  -2 1103.79   46.70
   5   1   2 1146.49   48.90
  -5   1  -2 1133.99   46.50
  -6  -1  -2 1476.75   59.39
   6  -1   2 1466.55   58.79
  -6  -1  -2 1397.86   58.79
  -6  -1  -2 1450.65   61.29
  -6  -1  -2 1461.85   60.29
  -6  -1  -2 1423.86   61.09
  -6  -1  -2 1468.45   64.39
   6  -1   2 1479.95   59.59
   6   1   2 1388.06   58.79
   6   1   2 1451.15   62.69
   6   1   2 1354.96   61.49
  -6   1  -2 1372.66   60.09
  -6   1  -2 1436.46   59.99
   6   1   2 1332.37   60.29
   6   1   2 1431.46   62.29
  -7  -1  -2  132.59    7.70
   7  -1   2  127.29    5.90
  -7  -1  -2  125.59    7.60
   7  -1   2  131.59    6.70
  -7  -1  -2  118.19    6.00
   7   1   2  130.69    9.30
  -7   1  -2  138.49    7.90
  -7   1  -2  133.69    7.40
  -8  -1  -2   76.29    5.90
   8  -1   2   82.99    5.10
  -8  -1  -2   72.59    5.80
   8  -1   2   81.89    4.00
  -8   1  -2   90.99    6.10
   8   1   2   89.39    7.90
  -8   1  -2   84.89    5.60
   9  -1   2  322.57   16.00
  -9  -1  -2  315.47   14.80
   9  -1   2  323.77   13.60
  -9  -1  -2  306.27   14.70
   9   1   2  331.17   16.70
  -9   1  -2  328.67   14.70
  -9   1  -2  323.87   15.00
   9  -2  -2  337.87   15.50
  -9  -2   2  345.27   15.60
   9  -2  -2  338.37   14.50
  -9  -2   2  332.87   16.10
  -9   2   2  358.16   15.60
   9   2  -2  337.87   15.90
  -9   2   2  347.37   16.40
   9   2  -2  343.97   15.80
   8  -2  -2  291.57   12.20
  -8  -2   2  295.77   22.50
   8  -2  -2  292.67   13.10
  -8  -2   2  270.27   12.10
  -8  -2   2  280.87   13.30
  -8  -2   2  281.17   14.20
  -8  -2   2  288.87   13.50
  -8   2   2  266.87   14.90
   8   2  -2  264.37   34.20
   8   2  -2  286.47   14.30
  -8   2   2  296.57   13.40
   8   2  -2  280.57   13.70
  -7  -2   2   65.89    3.40
  -7  -2   2   63.09    4.10
  -7  -2   2   68.89    9.90
  -7  -2   2   64.19    4.60
   7  -2  -2   62.09    3.30
   7  -2  -2   64.49    4.00
  -7  -2   2   64.89    6.60
   7   2  -2   58.59    6.00
  -7   2   2   56.09    8.10
  -7   2   2   62.29    4.70
   7   2  -2   57.29    5.00
  -6  -2   2  913.11   39.80
   6  -2  -2  954.20   39.10
  -6  -2   2  988.30   45.00
   6  -2  -2  914.31   39.70
  -6  -2   2  911.31   39.10
   6   2  -2  950.30   41.10
   6   2  -2  945.91   42.20
  -6   2   2  947.81   40.20
  -6   2   2  994.70   46.20
   6   2  -2  923.91   40.50
  -5  -2   2  897.61   38.60
   5  -2  -2  905.61   38.60
  -5  -2   2  899.91   43.40
  -5  -2   2  871.31   39.20
   5  -2  -2  886.61   39.00
   5   2  -2  987.90   40.00
   5   2  -2 1023.60   40.70
  -5   2   2  830.02   41.60
  -5   2   2  999.10   39.60
   5   2  -2 1003.90   46.40
   5   2  -2  966.70   41.40
  -4  -2   2 1538.05   65.69
  -4  -2   2 1495.65   60.99
   4  -2  -2 1532.95   61.29
   4  -2  -2 1559.24   60.99
  -4  -2   2 1578.74   61.49
   4   2  -2 1434.86   67.79
   4   2  -2 1463.45   62.09
   4   2  -2 1371.76   63.29
   4   2  -2 1414.86   62.49
  -4   2   2 1422.46   61.69
  -3  -2   2 1516.45   61.19
   3  -2  -2 1488.15   60.89
   3  -2  -2 1486.15   61.09
  -3  -2   2 1509.05   64.79
  -3  -2   2 1464.25   60.89
   3   2  -2 1429.96   62.99
  -2  -2   2   20.50    3.10
   2  -2  -2   26.40    1.50
  -2  -2   2   21.60    1.60
  -2   2   2   24.20    3.00
   2   2  -2   20.20    2.60
   1  -2  -2  188.48    8.10
  -1  -2   2  195.28    8.10
  -1  -2   2  198.78   10.30
   1   2  -2  171.48    9.40
  -1   2   2  189.08    9.80
   0  -2  -2  389.06   15.20
   0  -2  -2  385.96   16.60
   0  -2   2  391.26   16.80
   0   2  -2  323.47   16.30
   0   2   2  329.77   17.00
  -1  -2  -2 2733.53  116.79
  -1  -2  -2 2842.32  113.99
   1  -2   2 2835.92  115.09
  -1   2  -2 2701.73  114.19
   1   2   2 2667.63  115.39
  -2  -2  -2 1735.73   71.49
   2  -2   2 1673.63   71.39
  -2  -2  -2 1693.23   72.49
  -2  -2  -2 1740.33   71.29
   2   2   2 1830.82   74.29
  -3  -2  -2 1201.68   47.20
   3  -2   2 1136.39   47.50
  -3  -2  -2 1149.08   47.60
  -3  -2  -2 1081.59   48.60
   3  -2   2 1173.38   47.20
   3   2   2 1138.69   50.49
  -4  -2  -2  191.78    9.50
  -4  -2  -2  195.98    8.00
   4  -2   2  190.88    8.30
  -4  -2  -2  186.48    8.40
   4  -2   2  188.18    8.00
   4   2   2  182.68   11.40
   4   2   2  193.68   12.90
  -4   2  -2  172.78   10.00
   4   2   2  172.78    9.30
   4   2   2  171.98    9.90
  -4   2  -2  179.88    9.10
  -5  -2  -2  155.08   13.00
  -5  -2  -2  177.18    9.20
   5  -2   2  185.88    8.20
  -5  -2  -2  176.58    8.10
  -5  -2  -2  168.68    9.30
  -5  -2  -2  174.48    7.60
   5  -2   2  176.18    7.50
   5   2   2  166.38    9.60
  -5   2  -2  164.38    9.60
   5   2   2  164.28    9.00
  -5   2  -2  175.48    8.70
   5   2   2  186.38   12.60
   5   2   2  173.88   11.30
   6  -2   2 1088.59   43.80
  -6  -2  -2 1060.19   51.29
  -6  -2  -2 1085.89   45.70
  -6  -2  -2 1049.40   44.80
   6  -2   2 1092.49   44.50
  -6  -2  -2 1051.89   46.10
  -6  -2  -2 1066.39   43.80
  -6   2  -2  998.20   45.40
  -6   2  -2 1059.39   44.80
   6   2   2 1057.79   48.10
   6   2   2 1022.20   48.40
  -7  -2  -2  817.32   44.60
  -7  -2  -2  841.22   37.20
  -7  -2  -2  839.92   36.50
   7  -2   2  864.71   36.60
  -7  -2  -2  868.81   37.80
  -7  -2  -2  846.62   38.30
   7  -2   2  886.41   37.40
  -7   2  -2  943.01   37.80
   7   2   2  963.00   41.40
  -7   2  -2  943.01   38.50
  -8  -2  -2  494.85   22.30
   8  -2   2  514.35   22.40
   8  -2   2  540.55   23.30
  -8  -2  -2  516.25   36.40
  -8   2  -2  576.44   24.30
  -8   2  -2  568.44   23.50
   9  -2   2  119.59    6.90
  -9  -2  -2  132.39    7.00
   9  -2   2  130.39    5.50
  -9  -2  -2  129.19    6.70
   9  -2   2  129.39    7.50
  -9   2  -2  102.49   15.10
  -9   2  -2  120.39    6.20
  -9   2  -2  122.49    6.90
   9   2   2  109.49    9.70
  -9  -3   2  188.68    9.10
   9  -3  -2  213.18    8.40
   9  -3  -2  181.18    9.30
   9   3  -2  193.88    9.60
   9   3  -2  192.78    9.30
  -9   3   2  195.18    8.70
  -9   3   2  181.98   19.90
   8  -3  -2  794.92   32.10
   8  -3  -2  808.82   32.90
  -8  -3   2  809.12   33.00
  -8  -3   2  784.22   32.10
   8   3  -2  782.42   33.30
   8   3  -2  668.43   53.39
   8   3  -2  766.02   33.70
  -8   3   2  786.12   32.80
  -8   3   2  740.23   50.49
   7  -3  -2  330.77   15.30
  -7  -3   2  321.87   15.50
  -7  -3   2  338.27   22.40
   7  -3  -2  329.17   14.50
  -7  -3   2  310.87   14.50
  -7  -3   2  320.57   15.30
   7   3  -2  374.76   17.10
   7   3  -2  333.07   39.10
  -7   3   2  383.36   15.70
   7   3  -2  368.56   16.10
   7   3  -2  357.16   18.90
   6  -3  -2  623.04   25.80
   6  -3  -2  612.34   26.40
  -6  -3   2  643.44   32.90
  -6  -3   2  643.94   25.90
  -6  -3   2  611.14   26.50
   6   3  -2  627.94   27.20
   6   3  -2  619.64   28.10
   6   3  -2  635.84   29.60
   6   3  -2  610.34   34.10
  -6   3   2  627.94   26.70
   6   3  -2  537.05   52.29
  -5  -3   2  187.48   13.60
  -5  -3   2  193.68    8.60
  -5  -3   2  191.48    7.90
   5  -3  -2  184.88    8.30
   5  -3  -2  187.78    7.80
   5   3  -2  171.18   14.80
   5   3  -2  176.28    9.20
   5   3  -2  167.58   10.30
   5   3  -2  162.68   11.10
  -5   3   2  172.18   20.80
  -5   3   2  169.68    8.80
   4  -3  -2   26.40    1.80
  -4  -3   2   25.10    2.20
   4  -3  -2   25.80    2.00
  -4  -3   2   26.10    1.70
  -4  -3   2   28.20    5.70
  -4   3   2   21.30   19.40
   4   3  -2   26.70    4.80
  -4   3   2   25.30   13.50
   4   3  -2   22.90    7.70
  -4   3   2   24.00    3.60
   4   3  -2   20.90    3.40
  -3  -3   2  496.15   21.30
  -3  -3   2  526.75   26.30
   3  -3  -2  501.85   21.30
  -3  -3   2  530.65   21.70
   3  -3  -2  536.45   21.60
  -3   3   2  492.75   36.00
   3   3  -2  532.45   23.20
   3   3  -2  487.05   23.20
   3   3  -2  496.25   29.80
   3   3  -2  478.95   24.20
   3   3  -2  513.45   22.30
  -3   3   2  558.14   22.40
  -2  -3   2 1688.83   69.39
  -2  -3   2 1691.43   73.59
   2  -3  -2 1581.04   69.19
   2   3  -2 1823.82   70.99
  -2   3   2 1718.83   71.59
  -2   3   2 1602.04   86.19
   2   3  -2 1740.73   72.19
   2   3  -2 1612.34   79.39
  -1  -3   2 1816.92   74.79
   1  -3  -2 1808.42   70.99
  -1  -3   2 1723.13   70.99
   1   3  -2 1580.14   83.29
  -1   3   2 1654.43  101.39
   1   3  -2 1725.63   73.49
  -1   3   2 1764.22   73.89
   0  -3  -2  565.34   26.60
   0  -3  -2  577.94   24.80
   0  -3   2  556.34   27.10
   0   3  -2  598.64   26.80
   0   3   2  600.84   27.90
   0   3   2  689.73   64.59
   1  -3   2  115.89    6.50
  -1  -3  -2  114.09    5.20
  -1  -3  -2  114.09    6.60
   1   3   2  105.19   21.10
   1   3   2  123.09    8.30
  -1   3  -2   96.29   17.70
  -1   3  -2  120.39    6.70
  -2  -3  -2  595.54   23.80
  -2  -3  -2  587.24   24.10
  -2  -3  -2  608.04   25.50
   2  -3   2  582.34   24.50
  -2   3  -2  558.94   25.80
  -2   3  -2  510.25   38.70
   2   3   2  609.04   28.10
   2   3   2  536.45   44.20
  -3  -3  -2  433.56   16.00
  -3  -3  -2  418.76   16.40
  -3  -3  -2  435.56   17.80
   3  -3   2  430.76   16.20
   3   3   2  363.26   20.00
   3   3   2  322.17   35.30
  -3   3  -2  351.56   18.00
   3   3   2  314.87   22.90
  -3   3  -2  332.67   31.30
  -4  -3  -2 1461.75   61.29
   4  -3   2 1502.55   60.69
  -4  -3  -2 1530.25   62.59
   4  -3   2 1506.85   61.19
  -4  -3  -2 1526.95   60.79
  -4   3  -2 1387.46   80.99
  -4   3  -2 1558.14   62.79
   4   3   2 1457.25   65.79
  -4   3  -2 1482.65   61.39
   4   3   2 1406.66   85.99
   4   3   2 1406.06   67.09
  -5  -3  -2  448.06   18.10
  -5  -3  -2  424.46   20.20
   5  -3   2  440.26   18.10
  -5  -3  -2  410.76   26.20
  -5  -3  -2  443.26   18.70
   5  -3   2  390.06   19.10
   5   3   2  406.36   40.30
  -5   3  -2  470.55   20.50
  -5   3  -2  446.56   18.90
   5   3   2  442.76   23.50
   5   3   2  409.86   25.90
  -5   3  -2  430.06   38.00
  -6  -3  -2  366.06   15.80
  -6  -3  -2  367.16   16.40
  -6  -3  -2  374.06   25.10
  -6  -3  -2  354.46   18.90
  -6  -3  -2  363.56   17.30
   6  -3   2  372.36   16.50
   6  -3   2  378.06   15.80
   6   3   2  364.76   23.80
  -6   3  -2  384.66   36.50
   6   3   2  386.26   21.50
  -6   3  -2  417.46   18.40
   6   3   2  341.37   37.80
  -6   3  -2  374.76   16.60
  -7  -3  -2   62.79    3.30
   7  -3   2   62.89    4.00
  -7  -3  -2   57.19    5.80
   7  -3   2   64.89    3.30
  -7  -3  -2   64.49    4.10
   7   3   2   66.19   12.20
  -7   3  -2   60.19   17.50
   7   3   2   53.79   11.80
  -7   3  -2   72.39    4.60
  -7   3  -2   70.99    6.50
  -8  -3  -2   71.89    5.70
   8  -3   2   79.09    3.60
  -8  -3  -2   75.79    3.70
   8  -3   2   74.19    4.50
  -8   3  -2   68.49   14.80
  -8   3  -2   77.29    4.50
  -8   3  -2   79.89    5.90
   9  -3   2  414.46   17.20
   9  -3   2  405.76   18.70
  -9   3  -2  397.56   28.80
  -9   3  -2  424.86   18.30
  -8  -4   2   60.39    4.90
  -8  -4   2   62.09    4.20
  -8  -4   2   78.69    3.40
   8  -4  -2   76.69    3.30
   8  -4  -2   63.69    4.30
   8   4  -2   66.59    4.80
   8   4  -2   60.09   15.50
  -7  -4   2   47.40    3.50
  -7  -4   2   45.40    2.60
   7  -4  -2   48.00    2.60
   7   4  -2   48.00   15.70
   7   4  -2   40.00   10.30
  -7   4   2   46.70   18.10
   7   4  -2   49.00    3.80
   7   4  -2   47.50    4.30
  -6  -4   2  156.28    6.80
   6  -4  -2  156.78    7.40
  -6  -4   2  161.48   16.10
  -6  -4   2  159.58    7.70
   6  -4  -2  155.18    6.80
  -6  -4   2  158.38    7.60
   6   4  -2  144.29    9.40
   6   4  -2  151.28   11.30
   6   4  -2  128.29   27.90
  -6   4   2  132.29   26.30
   6   4  -2  151.48    8.30
   5  -4  -2  939.61   41.60
  -5  -4   2  964.90   48.60
  -5  -4   2  971.90   41.20
  -5  -4   2  969.40   41.90
   5  -4  -2  930.81   41.10
   5   4  -2 1020.90   42.20
   5   4  -2 1073.59   45.90
   5   4  -2 1023.20   43.60
  -5   4   2 1038.80   55.09
   5   4  -2  923.11   73.39
   5   4  -2 1081.09   50.59
  -4  -4   2  617.64   26.30
  -4  -4   2  643.34   33.40
  -4  -4   2  633.84   26.90
   4  -4  -2  633.64   26.70
   4  -4  -2  612.24   26.30
  -4   4   2  674.93   41.50
   4   4  -2  627.44   30.60
   4   4  -2  586.24   55.69
   4   4  -2  632.94   28.70
   4   4  -2  672.23   35.70
   4   4  -2  621.84   27.20
   3  -4  -2 1212.28   49.20
  -3  -4   2 1248.78   49.50
  -3  -4   2 1268.97   55.89
  -3  -4   2 1215.68   49.00
   3   4  -2 1120.69   49.60
   3   4  -2 1197.28   53.29
   3   4  -2 1145.09   51.09
  -3   4   2 1178.88   66.59
   3   4  -2 1231.18   59.59
   3   4  -2 1047.40   79.19
  -2  -4   2   84.49    4.30
  -2  -4   2   80.19    8.70
   2  -4  -2   75.19    4.20
   2   4  -2   85.29   37.90
   2   4  -2   96.19    7.60
  -2   4   2   94.79   18.20
   2   4  -2   93.09    7.80
   2   4  -2   79.89   16.00
  -1  -4   2  123.19    9.80
   1  -4  -2  132.69    8.50
   1  -4  -2  120.69    5.30
  -1  -4   2  129.29    5.50
   1   4  -2  104.49   25.50
   1   4  -2  108.69    8.00
  -1   4   2  106.89   19.50
   1   4  -2  105.09   15.40
   1   4  -2  104.39    9.60
  -1   4   2  104.39    8.20
   0  -4  -2  434.26   17.90
   0  -4   2  415.46   21.40
   0  -4  -2  425.06   20.30
   0   4  -2  380.36   41.30
   0   4  -2  409.86   31.50
   0   4   2  464.25   23.30
   0   4   2  441.26   22.00
   0   4   2  411.26   37.10
   0   4  -2  424.56   22.40
  -1  -4  -2  868.81   34.80
  -1  -4  -2  874.71   36.90
  -1   4  -2  875.51   37.00
  -1   4  -2  773.42   50.49
   1   4   2  842.72   39.50
   1   4   2  801.52   57.19
   1   4   2  920.11   40.60
  -1   4  -2  712.93   59.09
  -2  -4  -2  817.92   32.70
  -2  -4  -2  831.02   34.90
  -2  -4  -2  825.72   33.10
   2   4   2  757.32   56.39
   2   4   2  830.52   39.60
   2   4   2  780.42   38.10
  -2   4  -2  674.63   49.70
  -3  -4  -2  563.44   23.10
  -3  -4  -2  554.94   22.50
  -3  -4  -2  558.64   24.70
   3  -4   2  551.94   22.70
  -3   4  -2  497.55   41.40
   3   4   2  503.35   45.10
   3   4   2  525.75   31.00
   3   4   2  538.35   28.20
   4  -4   2  312.97   13.50
   4  -4   2  317.47   13.80
  -4  -4  -2  325.77   14.00
  -4  -4  -2  292.17   22.40
  -4  -4  -2  334.57   13.50
   4   4   2  305.57   34.60
  -4   4  -2  308.57   16.50
   4   4   2  333.87   19.70
  -4   4  -2  312.67   33.30
  -5  -4  -2  525.25   33.20
   5  -4   2  578.34   23.30
  -5  -4  -2  573.24   23.50
   5   4   2  535.75   28.70
  -5   4  -2  547.15   46.20
   5   4   2  506.55   45.20
  -5   4  -2  533.45   25.80
  -6  -4  -2  235.68   10.00
   6  -4   2  241.18   10.00
  -6  -4  -2  232.18   10.60
   6  -4   2  236.38   10.60
   6   4   2  208.28   27.10
  -6   4  -2  228.28   29.60
  -6   4  -2  220.08   13.50
   6   4   2  235.18   17.50
   7  -4   2  546.95   23.10
  -7  -4  -2  544.45   23.70
  -7  -4  -2  542.05   23.10
   7  -4   2  549.15   23.80
  -7   4  -2  582.84   25.30
   7   4   2  532.55   29.70
  -7   4  -2  583.54   43.00
   8  -4   2  221.88    9.40
   8  -4   2  203.08   10.20
  -8  -4  -2  215.28    9.40
  -8   4  -2  244.58   22.30
   7  -5  -2  217.08    9.10
  -7  -5   2  192.88   10.00
   7  -5  -2  212.78   10.70
  -7  -5   2  210.08    9.20
   7   5  -2  230.98   24.90
  -6  -5   2  593.44   24.60
  -6  -5   2  578.74   24.00
   6  -5  -2  582.74   24.50
   6  -5  -2  582.24   24.00
  -6  -5   2  593.74   24.70
   6   5  -2  556.74   28.20
   6   5  -2  537.55   47.20
  -5  -5   2    9.10    1.90
  -5  -5   2   11.30    2.00
  -5  -5   2   10.80    1.40
   5  -5  -2   10.60    1.70
   5   5  -2    6.50   17.30
   5   5  -2   10.20    4.90
   5   5  -2   12.30    5.80
  -4  -5   2   18.50    1.80
   4  -5  -2   20.00    2.20
  -4  -5   2   20.30    2.20
  -4  -5   2   23.30    8.90
   4   5  -2   17.00    5.90
  -4   5   2   16.70   13.00
   4   5  -2   12.70   14.20
   4   5  -2   22.90    8.20
  -3  -5   2  319.27   22.80
   3  -5  -2  336.17   20.90
  -3  -5   2  328.97   15.00
  -3  -5   2  303.97   14.60
   3  -5  -2  340.47   14.80
  -3   5   2  377.56   30.70
   3   5  -2  356.56   43.30
   3   5  -2  376.06   19.30
   2  -5  -2  691.63   28.60
  -2  -5   2  715.33   36.10
  -2  -5   2  750.62   28.80
   2  -5  -2  728.83   33.80
   2   5  -2  594.04   57.09
   2   5  -2  683.33   39.60
  -2   5   2  623.74   45.90
   2   5  -2  662.73   32.50
  -1  -5   2  678.93   26.10
   1  -5  -2  602.94   26.00
   1  -5  -2  631.94   30.20
  -1   5   2  608.64   30.90
  -1   5   2  611.44   46.20
   1   5  -2  554.54   52.79
   1   5  -2  647.94   29.90
   1   5  -2  620.64   38.70
   0  -5  -2  353.26   14.90
   0   5   2  363.26   20.50
   0   5  -2  369.36   18.30
   0   5  -2  311.67   37.70
   0   5   2  349.37   34.40
   0   5  -2  335.57   28.30
  -1  -5  -2  128.49    5.80
   1   5   2  116.09   21.70
   1   5   2  126.89   11.40
  -1   5  -2  112.99   19.00
  -1   5  -2  109.59   27.10
  -2  -5  -2  294.17   12.40
  -2  -5  -2  305.87   12.80
   2   5   2  274.97   32.40
   2   5   2  303.57   18.80
  -2   5  -2  267.37   28.80
  -3  -5  -2  198.48   20.60
  -3  -5  -2  231.78    9.70
  -3  -5  -2  234.88   10.30
  -3   5  -2  215.38   27.60
   3   5   2  224.58   29.30
   3   5   2  237.98   16.30
  -4  -5  -2  352.86   15.20
   4  -5   2  338.87   15.10
  -4  -5  -2  358.76   14.70
  -4  -5  -2  377.96   30.90
   4   5   2  318.07   34.30
   4   5   2  334.87   21.60
   5  -5   2  318.67   14.00
  -5  -5  -2  357.96   14.70
   5  -5   2  304.07   14.90
  -5  -5  -2  339.07   14.00
   5   5   2  320.27   30.60
   5   5   2  349.87   20.60
  -6  -5  -2  234.38    9.50
   6  -5   2  218.68   10.20
  -6  -5  -2  233.88   10.20
  -6   5  -2  188.58   23.80
   6   5   2  226.58   22.50
  -5  -6   2  293.97   12.90
   5   6  -2  316.37   31.80
  -4  -6   2  437.26   19.60
  -4  -6   2  433.56   19.10
   4   6  -2  480.95   25.10
   4   6  -2  468.45   43.60
  -3  -6   2  147.59    6.20
  -3  -6   2  117.59    6.60
   3   6  -2  121.69   24.50
   3   6  -2  122.39   10.60
  -3   6   2  149.99   16.30
   3   6  -2  135.99   12.00
  -2  -6   2   21.60    3.60
   2   6  -2   27.80   15.60
   2   6  -2   23.50    7.00
   2   6  -2   31.00    7.30
  -2   6   2   31.20   11.30
  -1   6   2   36.50   10.80
   1   6  -2   41.50    8.20
   1   6  -2   43.10    8.30
   1   6  -2   35.00   15.60
   0   6   2  189.68   25.10
   0   6  -2  155.28   24.50
   0   6  -2  186.28   17.00
  -1  -6  -2  360.36   14.40
   1   6   2  339.47   22.60
  -1   6  -2  317.37   25.10
   1   6   2  303.07   29.60
  -2  -6  -2  465.25   21.60
  -2  -6  -2  471.55   21.20
  -2   6  -2  510.75   35.10
   2   6   2  572.94   29.60
   2   6   2  528.75   40.00
  -3  -6  -2  317.97   13.10
  -3  -6  -2  312.37   13.60
   3   6   2  339.17   21.40
   3   6   2  317.57   29.20
  -3   6  -2  268.67   25.70
  -4  -6  -2   41.40    2.60
  -4  -6  -2   45.70    3.10
  -4   6  -2   31.00   12.60
   4   6   2   45.60   11.30
   5   6   2   52.99   10.50
 -10   0   3   66.59    4.40
 -10   0   3   66.89    4.70
  10   0  -3   81.89    5.20
   9   0  -3  298.67   14.40
   9   0  -3  292.77   14.20
  -9   0   3  289.47   13.90
  -9   0   3  304.37   14.00
  -8   0   3    5.30    2.40
   8   0  -3    8.50    3.20
   8   0  -3    3.00    2.40
  -8   0   3    4.00    2.40
  -8   0   3    6.80   10.50
  -7   0   3 1617.14   72.49
  -7   0   3 1607.44   65.89
  -7   0   3 1556.04   65.59
   7   0  -3 1526.25   64.39
   7   0  -3 1389.56   66.29
   7   0  -3 1592.94   66.19
   7   0  -3 1636.74   66.19
  -6   0   3 1164.28   49.30
   6   0  -3 1187.58   48.00
  -6   0   3 1021.40   48.10
   6   0  -3 1196.38   48.70
   6   0  -3 1221.58   49.70
  -6   0   3 1145.19   48.90
  -6   0   3 1188.08   53.99
  -5   0   3  703.93   28.80
  -5   0   3  688.13   30.10
   5   0  -3  690.03   29.30
   5   0  -3  702.93   28.80
   5   0  -3  680.73   30.40
  -5   0   3  680.83   29.30
  -5   0   3  713.83   33.40
   5   0  -3  688.33   30.20
  -4   0   3   13.10    3.30
   4   0  -3   11.50    1.30
  -4   0   3   14.40    1.60
  -3   0   3  292.67   12.80
   3   0  -3  297.77   12.80
  -3   0   3  299.17   12.50
  -3   0   3  293.57   15.10
   2   0  -3  755.52   31.70
  -2   0   3  768.32   33.90
   1   0  -3  606.14   25.00
  -1   0   3  586.94   27.00
   1   0  -3  607.14   25.60
   0   0   3 6614.44  301.67
   0   0  -3 7435.86  295.17
   0   0   3 7198.18  291.97
  -1   0  -3  746.13   30.20
   1   0   3  678.53   29.50
  -1   0  -3  705.43   29.50
  -2   0  -3  147.49    7.20
   2   0   3  138.89    6.50
  -2   0  -3  140.09    6.40
  -3   0  -3 1477.55   59.39
  -3   0  -3 1451.35   59.09
   3   0   3 1486.05   59.49
  -3   0  -3 1332.27   60.89
  -4   0  -3 1077.99   44.80
   4   0   3 1094.19   44.40
  -4   0  -3 1046.40   47.30
   4   0   3 1119.99   47.00
  -4   0  -3 1039.90   45.50
  -4   0  -3 1103.29   46.10
   4   0   3 1103.69   45.00
  -4   0  -3 1051.79   44.40
  -4   0  -3 1061.49   45.60
   5   0   3  750.42   31.30
  -5   0  -3  729.03   32.80
  -5   0  -3  717.03   31.90
  -5   0  -3  731.03   31.90
   5   0   3  734.43   30.60
   5   0   3  769.42   34.00
   6   0   3  897.51   37.60
   6   0   3  896.61   38.40
  -6   0  -3  910.91   39.00
   6   0   3  921.21   40.40
  -6   0  -3  907.71   39.00
   7   0   3  294.97   13.00
   7   0   3  315.57   16.30
  -7   0  -3  313.17   14.70
  -7   0  -3  309.27   14.60
   7   0   3  293.67   14.00
  -8   0  -3    0.40    2.00
  -8   0  -3    1.90    1.70
   8   0   3    1.10    3.00
   8   0   3   -1.10    1.20
  -9   0  -3   84.49    5.10
   9   0   3   88.29    6.60
  -9   0  -3   87.19    5.40
 -10  -1   3  438.86   19.00
  10  -1  -3  411.96   19.40
 -10  -1   3  419.46   19.00
 -10   1   3  439.26   18.90
 -10   1   3  431.16   19.00
  10   1  -3  446.16   19.10
  -9  -1   3  431.66   19.90
   9  -1  -3  413.66   18.50
  -9  -1   3  434.26   19.70
  -9   1   3  453.85   20.00
  -9   1   3  462.35   19.80
   9   1  -3  409.56   39.00
   9   1  -3  452.75   20.00
   9   1  -3  469.15   20.20
   8  -1  -3  412.96   20.20
  -8  -1   3  422.16   19.50
  -8  -1   3  439.06   19.20
   8  -1  -3  427.16   20.00
   8  -1  -3  420.16   17.80
   8  -1  -3  433.16   18.90
  -8  -1   3  405.66   27.70
  -8   1   3  420.26   19.90
  -8   1   3  427.96   19.40
   8   1  -3  417.06   19.90
   8   1  -3  422.26   19.70
   7  -1  -3  217.48    9.00
  -7  -1   3  191.48    9.90
  -7  -1   3  202.58    9.00
  -7  -1   3  221.18   19.50
   7  -1  -3  205.78    9.80
  -7  -1   3  209.28   10.20
   7  -1  -3  195.08   11.70
  -7  -1   3  207.68   10.90
   7  -1  -3  207.58   11.30
  -7   1   3  187.68   11.20
  -7   1   3  198.38   10.40
   7   1  -3  207.18   10.80
   7   1  -3  202.38   11.40
  -7   1   3  202.88   20.60
   6  -1  -3  114.69    5.20
  -6  -1   3  110.69    7.40
  -6  -1   3  108.79    5.20
   6  -1  -3  107.49    5.80
  -6  -1   3  113.49    6.00
   6  -1  -3  112.19    7.40
  -6  -1   3  120.89   10.00
  -6   1   3  107.59    8.00
  -6   1   3  115.09   12.30
   6   1  -3  103.79    7.30
  -6   1   3  106.69    6.50
   6   1  -3  106.39    7.50
  -5  -1   3  568.94   25.40
   5  -1  -3  586.74   24.40
   5  -1  -3  566.14   25.00
  -5  -1   3  628.94   28.40
   5  -1  -3  589.64   23.80
  -5  -1   3  593.04   24.40
   5   1  -3  541.75   25.80
   5   1  -3  531.65   30.50
  -5   1   3  594.24   30.30
  -5   1   3  527.75   25.40
   5   1  -3  551.24   25.20
  -4  -1   3 2472.75   97.99
   4  -1  -3 2316.77   94.39
   4  -1  -3 2211.58   93.89
  -4  -1   3 2298.67   93.89
  -4   1   3 2256.07   99.49
   4   1  -3 2235.18   95.09
   4   1  -3 2292.27   95.59
   4   1  -3 2328.87   95.39
   4   1  -3 2173.08   93.99
  -3  -1   3 2198.98   92.99
   3  -1  -3 2113.19   89.99
   3   1  -3 2211.08   91.49
  -3   1   3 2249.77   94.99
  -2  -1   3 1029.40   47.20
   2  -1  -3 1023.50   45.20
  -2  -1   3 1024.10   45.20
  -2   1   3 1171.68   49.60
   2   1  -3 1230.68   45.50
   2   1  -3 1107.59   46.50
   2   1  -3 1101.09   45.40
   1  -1  -3 1447.46   61.99
  -1  -1   3 1557.94   63.69
  -1  -1   3 1434.26   62.09
   1   1  -3 1577.74   62.19
   0  -1   3 1080.19   47.70
   0  -1  -3 1158.68   48.70
   0  -1  -3 1086.39   47.70
   0  -1   3 1185.48   49.10
   0   1  -3 1263.87   48.10
  -1  -1  -3  879.01   37.80
   1  -1   3  862.91   36.90
  -1   1  -3  931.41   37.50
   2  -1   3 1089.79   47.00
   2  -1   3 1134.59   47.40
  -2  -1  -3 1168.68   48.30
  -2   1  -3 1216.18   48.10
   2   1   3 1097.79   47.30
   3  -1   3 1926.31   79.09
   3  -1   3 1810.62   78.69
  -3  -1  -3 1929.31   79.09
  -3  -1  -3 1945.91   78.79
  -3  -1  -3 1837.32   80.19
   3   1   3 1957.10   79.19
   3   1   3 1932.21   78.79
   3   1   3 2002.00   81.69
  -4  -1  -3  448.76   19.10
  -4  -1  -3  437.26   20.90
   4  -1   3  454.05   19.20
  -4  -1  -3  436.46   20.40
   4  -1   3  427.86   18.70
  -4   1  -3  446.76   20.20
   4   1   3  468.85   22.00
  -4   1  -3  470.55   20.70
   4   1   3  459.05   18.70
  -4   1  -3  461.45   19.90
   4   1   3  422.76   21.20
   5  -1   3   78.69    4.30
  -5  -1  -3   70.29    8.90
  -5  -1  -3   76.39    3.60
  -5  -1  -3   77.29    6.00
  -5  -1  -3   75.89    5.60
  -5  -1  -3   76.19    4.20
   5  -1   3   73.69    3.60
  -5  -1  -3   72.39    6.00
  -5   1  -3   79.69    5.20
   5   1   3   78.59    7.10
   5   1   3   77.69    7.00
   5   1   3   75.39    5.00
  -5   1  -3   74.29    5.90
   5   1   3   70.69    3.80
  -6  -1  -3  388.76   19.20
  -6  -1  -3  381.66   17.20
   6  -1   3  390.16   16.60
  -6  -1  -3  371.36   18.20
  -6  -1  -3  378.86   18.00
  -6  -1  -3  374.16   16.50
   6   1   3  421.26   20.00
  -6   1  -3  414.16   18.00
   6   1   3  399.26   21.40
  -6   1  -3  414.96   18.40
  -7  -1  -3  917.71   39.60
   7  -1   3  951.20   38.20
   7  -1   3  949.21   39.20
  -7  -1  -3  895.21   39.70
  -7   1  -3  932.41   39.90
  -7   1  -3  901.31   39.50
   7   1   3  901.41   41.70
  -8  -1  -3  460.55   20.60
   8  -1   3  452.55   19.10
   8  -1   3  450.75   21.90
  -8  -1  -3  443.26   20.40
   8  -1   3  450.45   20.10
  -8   1  -3  460.25   20.40
  -8   1  -3  444.66   20.60
   8   1   3  469.25   22.70
  -9  -1  -3  464.65   19.90
   9  -1   3  464.55   21.30
  -9  -1  -3  452.25   20.00
   9  -1   3  454.45   19.10
   9   1   3  472.45   21.90
  -9   1  -3  444.76   20.10
  -9   1  -3  404.56   30.60
  -9   1  -3  440.96   19.80
  -9  -2   3   24.70    2.90
   9  -2  -3   18.30    4.00
   9  -2  -3   23.60    1.70
  -9  -2   3   29.90    4.60
   9   2  -3   20.50    2.80
   9   2  -3   21.80   14.40
   9   2  -3   23.70    3.60
  -9   2   3   23.00    2.60
   8  -2  -3  472.45   20.50
  -8  -2   3  463.95   20.50
  -8  -2   3  473.95   21.60
   8  -2  -3  485.15   21.40
   8   2  -3  522.25   22.70
   8   2  -3  509.35   22.10
  -8   2   3  491.75   21.70
  -7  -2   3  780.52   32.20
  -7  -2   3  807.32   38.80
  -7  -2   3  717.63   31.20
  -7  -2   3  731.93   33.30
  -7  -2   3  721.03   32.00
   7  -2  -3  747.63   32.00
   7  -2  -3  784.22   31.30
  -7   2   3  683.53   33.80
  -7   2   3  765.22   32.60
   7   2  -3  748.13   32.90
   7   2  -3  764.12   33.50
   6  -2  -3  680.23   28.20
   6  -2  -3  682.73   28.90
  -6  -2   3  713.03   34.30
   6  -2  -3  648.24   29.60
  -6  -2   3  685.73   28.20
   6   2  -3  662.43   29.70
  -6   2   3  638.14   29.30
   6   2  -3  675.83   30.50
   6   2  -3  702.83   31.30
  -5  -2   3  869.71   39.00
   5  -2  -3  836.32   39.40
  -5  -2   3  934.01   43.50
   5  -2  -3  909.61   39.00
   5  -2  -3  886.61   38.40
  -5   2   3  924.11   39.50
   5   2  -3  987.50   40.60
   5   2  -3  972.80   39.90
   5   2  -3  953.50   40.30
   5   2  -3 1000.10   46.70
   5   2  -3  943.41   40.90
   4  -2  -3  110.69    4.80
  -4  -2   3  108.49    8.30
  -4  -2   3  113.69    4.80
  -4  -2   3  109.99    5.30
   4  -2  -3  115.59    5.20
   4   2  -3   95.59    6.70
   4   2  -3  102.29    7.50
   4   2  -3   97.59    7.50
   4   2  -3  105.69   11.40
   4   2  -3   97.59    6.40
  -4   2   3  110.49   15.30
   3  -2  -3  221.08    9.50
  -3  -2   3  229.88    9.70
  -3  -2   3  228.58    9.30
  -3  -2   3  229.88   12.60
   3  -2  -3  217.38    9.20
   3   2  -3  208.58   10.80
   3   2  -3  207.68   11.10
   3   2  -3  197.18   16.80
   3   2  -3  208.48   11.60
  -2  -2   3  939.11   39.50
  -2  -2   3  932.21   39.20
  -2  -2   3  951.00   42.00
   2  -2  -3  896.01   39.40
   2  -2  -3  915.21   39.20
  -2   2   3 1039.40   41.60
   2   2  -3  984.30   41.10
   1  -2  -3 1348.97   57.39
  -1  -2   3 1413.26   59.39
  -1  -2   3 1331.97   57.39
   1   2  -3 1344.97   58.79
  -1   2   3 1514.45   59.99
   0  -2   3 3507.95  136.99
   0  -2  -3 3183.58  131.99
   0  -2  -3 3000.20  132.69
   0  -2   3 3307.57  131.99
   0   2   3 3214.88  134.09
   0   2  -3 2973.10  132.59
  -1  -2  -3  607.54   25.80
   1  -2   3  595.74   25.70
  -1  -2  -3  595.54   25.50
  -1  -2  -3  611.74   27.10
   1   2   3  679.33   28.90
  -2  -2  -3   66.89    3.40
   2  -2   3   62.99    3.30
  -2  -2  -3   65.99    3.10
  -2  -2  -3   63.09    4.50
   2  -2   3   56.89    3.20
   2   2   3   73.79    6.00
   3  -2   3  495.55   20.70
  -3  -2  -3  514.65   21.10
   3  -2   3  511.55   21.10
  -3  -2  -3  508.45   22.40
   3   2   3  513.85   25.00
  -3   2  -3  486.15   21.60
   3   2   3  525.05   24.70
  -3   2  -3  478.35   22.20
  -3   2  -3  438.86   34.60
  -4  -2  -3 1162.78   48.40
  -4  -2  -3 1173.18   49.90
   4  -2   3 1190.98   48.00
  -4  -2  -3 1135.59   48.00
   4  -2   3 1136.99   48.40
   4   2   3 1162.28   52.39
  -4   2  -3 1157.58   48.90
   4   2   3 1174.98   51.79
  -4   2  -3 1168.78   49.50
   5  -2   3 1204.78   50.39
  -5  -2  -3 1174.18   52.49
  -5  -2  -3 1158.18   52.09
  -5  -2  -3 1179.28   51.59
  -5  -2  -3 1216.98   50.39
   5  -2   3 1237.28   51.09
  -5  -2  -3 1098.69   57.39
  -5  -2  -3 1238.28   50.99
  -5   2  -3 1260.87   51.39
  -5   2  -3 1288.67   52.09
   5   2   3 1298.87   54.89
   5   2   3 1290.97   55.69
  -6  -2  -3  231.58   12.10
  -6  -2  -3  209.68   16.10
   6  -2   3  242.88   10.60
  -6  -2  -3  239.58   10.30
   6  -2   3  242.78    9.80
  -6  -2  -3  238.78   11.60
  -6  -2  -3  240.98    9.70
  -6  -2  -3  238.48   18.80
  -6   2  -3  192.38   10.70
   6   2   3  186.48   13.70
  -6   2  -3  189.98   11.50
  -7  -2  -3  518.75   22.80
  -7  -2  -3  541.75   23.70
   7  -2   3  554.84   23.80
  -7  -2  -3  528.85   24.20
  -7  -2  -3  537.95   24.70
   7  -2   3  549.05   22.90
   7   2   3  566.64   27.50
  -7   2  -3  563.64   24.80
  -7   2  -3  566.64   24.10
   8  -2   3   15.40    1.50
  -8  -2  -3   14.10    2.70
  -8  -2  -3   14.70    2.70
   8  -2   3   15.50    3.10
  -8   2  -3   15.30    8.60
  -8   2  -3   20.30    3.00
  -8   2  -3   14.60    2.10
   8   2   3   23.20    5.50
   9  -2   3  153.38    8.40
   9  -2   3  149.19    6.60
  -9  -2  -3  142.29    7.70
  -9   2  -3  151.18    7.10
   9   2   3  156.58    9.80
  -9   2  -3  137.89   15.80
  -9   2  -3  145.69    7.70
  -9  -3   3  417.16   18.60
   9  -3  -3  390.26   19.10
   9  -3  -3  406.56   17.90
   9   3  -3  459.65   18.80
   9   3  -3  413.46   34.60
   9   3  -3  466.85   19.10
  -8  -3   3  340.37   14.90
   8  -3  -3  345.87   15.20
  -8  -3   3  338.67   14.00
  -8  -3   3  317.67   14.90
   8  -3  -3  348.07   14.00
  -8   3   3  330.57   14.80
   8   3  -3  299.07   33.80
   8   3  -3  336.87   15.20
   8   3  -3  333.87   15.80
  -8   3   3  301.67   28.50
  -7  -3   3  121.29    5.40
   7  -3  -3  122.39    6.10
   7  -3  -3  121.69    5.30
  -7  -3   3  121.19    6.20
  -7  -3   3  121.19   14.20
  -7  -3   3  124.49    6.50
  -7   3   3  107.29   25.00
   7   3  -3   95.29   24.60
  -7   3   3  104.89    6.40
   7   3  -3  104.39    7.90
   7   3  -3  107.39    6.90
   6  -3  -3   87.09    4.00
  -6  -3   3   87.89    4.10
  -6  -3   3   86.29    4.90
  -6  -3   3   92.09   10.60
   6  -3  -3   87.59    4.70
   6   3  -3   73.09    7.90
   6   3  -3   73.79    5.60
   6   3  -3   79.59    7.00
  -6   3   3   76.39    5.30
   6   3  -3   69.49   10.70
   5  -3  -3  775.02   33.30
   5  -3  -3  798.82   33.90
  -5  -3   3  814.52   33.40
  -5  -3   3  757.52   34.00
  -5  -3   3  807.52   39.30
   5   3  -3  811.72   36.70
  -5   3   3  801.72   34.20
  -5   3   3  827.42   46.70
   5   3  -3  838.72   42.30
   5   3  -3  802.62   34.60
   5   3  -3  792.82   35.70
   4  -3  -3 1020.70   42.30
  -4  -3   3 1025.80   42.90
  -4  -3   3 1028.30   42.30
   4  -3  -3  996.60   42.70
  -4  -3   3 1007.50   47.50
  -4   3   3  994.00   43.10
   4   3  -3 1081.39   45.50
  -4   3   3 1078.89   56.59
   4   3  -3  975.70   55.89
   4   3  -3 1018.30   43.50
   4   3  -3 1038.00   45.60
   3  -3  -3 1234.18   53.89
  -3  -3   3 1278.17   54.09
  -3  -3   3 1257.27   58.09
  -3  -3   3 1228.38   53.59
   3   3  -3 1376.96   55.89
  -3   3   3 1326.37   69.19
   3   3  -3 1317.97   63.59
   3   3  -3 1253.87   56.39
   3   3  -3 1347.17   54.59
   3   3  -3 1397.86   55.79
  -2  -3   3  820.62   37.30
   2  -3  -3  780.82   33.40
  -2  -3   3  814.02   33.80
  -2  -3   3  798.32   33.40
   2  -3  -3  783.42   33.70
   2   3  -3  838.82   35.80
   2   3  -3  838.82   34.40
  -2   3   3  824.12   36.60
   2   3  -3  776.32   44.10
   2   3  -3  779.92   36.00
  -2   3   3  774.42   49.00
   2   3  -3  862.11   35.60
  -2   3   3  829.72   37.90
   1  -3  -3   50.49    4.70
   1  -3  -3   48.80    2.70
  -1  -3   3   49.20    2.70
   1  -3  -3   46.10    2.50
  -1   3   3   45.20    5.30
   1   3  -3   39.10   12.40
  -1   3   3   40.10   14.10
   1   3  -3   49.99    6.30
   1   3  -3   46.10    4.20
  -1   3   3   42.90    8.20
   0  -3   3  174.48    8.60
   0  -3   3  198.18   10.40
   0  -3  -3  189.88   10.60
   0  -3  -3  189.48    8.50
   0  -3  -3  200.78    8.70
   0   3  -3  187.58   20.50
   0   3  -3  207.18   10.40
   0   3   3  213.48   14.30
   0   3   3  224.18   12.50
  -1  -3  -3  379.16   16.80
   1  -3   3  356.16   14.80
  -1  -3  -3  366.26   14.60
  -1  -3  -3  372.06   14.90
   1   3   3  333.87   18.60
   1   3   3  323.87   20.00
   1   3   3  296.07   31.00
   2  -3   3 2178.48   86.39
  -2  -3  -3 2178.58   88.29
  -2  -3  -3 2170.88   86.59
  -2  -3  -3 2127.09   86.09
  -2   3  -3 2104.99   87.59
  -2   3  -3 1808.52  101.19
   2   3   3 2193.88   91.49
   2   3   3 2116.39   91.39
   2   3   3 1990.30  108.09
   3  -3   3  678.63   28.00
  -3  -3  -3  678.83   28.10
  -3  -3  -3  688.93   27.60
  -3  -3  -3  684.33   29.70
   3  -3   3  673.93   27.70
  -3   3  -3  568.74   42.90
   3   3   3  710.83   33.80
  -3   3  -3  667.43   29.40
   3   3   3  710.83   33.30
   3   3   3  596.34   47.80
  -3   3  -3  656.53   28.50
   4  -3   3  557.94   24.90
  -4  -3  -3  570.84   25.00
  -4  -3  -3  580.94   26.70
  -4  -3  -3  562.44   24.50
   4  -3   3  544.05   24.40
   4   3   3  619.14   32.90
   4   3   3  554.74   55.99
  -4   3  -3  646.14   26.60
  -4   3  -3  559.74   42.10
   4   3   3  653.53   30.80
  -4   3  -3  616.24   25.40
  -5  -3  -3  146.29    6.50
   5  -3   3  151.38    6.50
  -5  -3  -3  146.09    9.40
  -5  -3  -3  142.49    7.00
   5  -3   3  152.88    7.10
   5   3   3  145.29   12.00
   5   3   3  161.58   13.90
  -5   3  -3  128.89   21.20
  -5   3  -3  144.29    7.60
   5   3   3  123.79   24.90
  -5   3  -3  138.09    8.90
  -6  -3  -3  135.39    6.40
  -6  -3  -3  132.59   18.00
   6  -3   3  140.09    6.50
   6  -3   3  145.69    7.30
  -6  -3  -3  143.69    7.20
  -6  -3  -3  130.49   11.20
  -6   3  -3  135.79   21.70
  -6   3  -3  159.18    7.70
  -6   3  -3  155.08    9.10
   6   3   3  150.48   12.90
   6   3   3  172.78   13.90
   7  -3   3  515.95   20.70
  -7  -3  -3  492.45   20.60
   7  -3   3  522.15   21.50
  -7  -3  -3  510.65   21.40
   7   3   3  502.25   25.30
  -7   3  -3  491.45   21.40
   7   3   3  439.86   27.30
  -7   3  -3  442.66   36.90
  -7   3  -3  503.25   22.60
   8  -3   3  572.24   25.30
   8  -3   3  550.54   24.10
   8  -3   3  573.44   23.30
  -8   3  -3  578.14   23.60
  -8   3  -3  570.94   24.70
   8   3   3  561.04   27.30
  -8   3  -3  507.85   36.90
   8  -4  -3  208.48    9.60
   8  -4  -3  202.78    9.00
  -8  -4   3  200.48    8.90
  -8  -4   3  208.98    9.40
   8   4  -3  205.78   10.20
   8   4  -3  182.98   23.50
  -7  -4   3  601.84   26.00
  -7  -4   3  620.74   27.80
  -7  -4   3  598.54   25.30
   7  -4  -3  607.44   25.30
   7   4  -3  621.14   27.40
   7   4  -3  558.74   50.09
   7   4  -3  632.64   26.30
   6  -4  -3  362.16   15.90
  -6  -4   3  371.06   16.70
   6  -4  -3  375.46   16.60
  -6  -4   3  361.66   16.00
   6   4  -3  398.46   17.20
   6   4  -3  397.66   24.50
   6   4  -3  358.76   21.20
   6   4  -3  400.96   18.70
   6   4  -3  361.16   44.00
   5  -4  -3  342.07   14.80
  -5  -4   3  336.27   21.50
  -5  -4   3  337.17   15.00
   5   4  -3  353.26   23.10
   5   4  -3  300.07   42.80
   5   4  -3  315.47   18.00
   5   4  -3  335.67   17.30
   5   4  -3  331.17   15.50
  -5   4   3  360.46   27.30
  -4  -4   3   10.40    1.70
  -4  -4   3   11.40    5.40
  -4  -4   3   12.40    1.90
   4  -4  -3   14.90    1.70
   4   4  -3   17.90    2.90
  -4   4   3   17.20   11.50
   4   4  -3   17.80    5.00
   4   4  -3   15.50    4.00
   4   4  -3   18.90    7.70
   4   4  -3   16.80   18.20
  -3  -4   3   72.59    3.60
   3  -4  -3   77.99    3.60
  -3  -4   3   79.09    9.00
   3  -4  -3   68.29    4.40
   3   4  -3   73.39   11.60
   3   4  -3   71.29    7.80
  -3   4   3   74.99   15.70
   3   4  -3   70.69    7.00
   3   4  -3   68.69    5.80
   3   4  -3   61.69   26.30
   2  -4  -3  880.91   38.10
  -2  -4   3  921.71   42.90
  -2  -4   3  881.81   37.80
  -2  -4   3  911.91   38.30
   2  -4  -3  928.61   41.50
   2  -4  -3  852.61   37.80
   2   4  -3  945.81   41.60
   2   4  -3  889.11   71.79
   2   4  -3  918.81   40.60
   2   4  -3  968.90   40.10
  -2   4   3  950.00   56.99
   2   4  -3  937.91   50.49
  -1  -4   3  930.51   38.80
  -1  -4   3  960.60   42.60
   1  -4  -3  942.31   38.70
   1  -4  -3  960.40   41.80
  -1   4   3  897.21   58.09
   1   4  -3  980.60   40.70
   1   4  -3  854.11   69.09
   1   4  -3  943.11   41.70
   1   4  -3  898.61   52.09
   0  -4  -3  963.30   39.60
   0  -4  -3 1016.80   42.30
   0  -4   3  969.00   39.60
   0  -4  -3  963.20   39.30
   0   4  -3  994.00   42.30
   0   4   3  893.11   59.99
   0   4  -3  864.21   53.79
   0   4   3 1018.60   45.20
   0   4  -3  811.92   67.19
   0   4  -3  946.31   41.40
   0   4   3 1008.70   45.10
  -1  -4  -3  530.35   24.20
  -1  -4  -3  534.15   21.90
   1  -4   3  490.25   21.70
  -1  -4  -3  517.35   21.50
   1   4   3  488.25   41.60
  -1   4  -3  467.85   36.50
   1   4   3  546.05   27.80
   1   4   3  539.05   29.60
  -2  -4  -3   20.30    1.70
   2  -4   3   17.70    2.20
  -2  -4  -3   16.20    4.50
  -2  -4  -3   18.60    1.90
  -2   4  -3   22.00   13.00
   2   4   3   19.00    6.60
   2   4   3   20.20    8.90
   2   4   3   18.30   13.90
  -3  -4  -3  276.57   12.10
   3  -4   3  254.27   12.10
  -3  -4  -3  264.77   14.40
  -3  -4  -3  280.57   11.60
   3   4   3  267.47   31.20
   3   4   3  286.47   18.30
  -3   4  -3  264.07   28.20
  -4  -4  -3  268.37   10.80
   4  -4   3  259.27   10.80
  -4  -4  -3  268.17   11.40
   4  -4   3  265.67   11.30
  -4  -4  -3  254.07   14.40
  -4   4  -3  225.18   27.60
   4   4   3  219.88   28.80
   4   4   3  230.88   16.90
  -5  -4  -3  965.20   39.50
  -5  -4  -3  844.92   50.49
   5  -4   3  927.51   39.50
   5  -4   3  975.90   40.20
  -5  -4  -3  939.01   40.20
   5   4   3 1003.90   46.80
  -5   4  -3  942.81   61.59
   5   4   3  930.01   61.69
  -5   4  -3 1058.59   42.10
   6  -4   3  232.68   10.20
   6  -4   3  237.78   10.90
  -6  -4  -3  227.58   10.10
  -6  -4  -3  236.68   10.80
   6   4   3  247.78   17.20
   6   4   3  239.78   25.70
   7  -4   3  183.18    9.80
  -7  -4  -3  192.78    9.00
   7  -4   3  183.78    8.90
   7  -4   3  194.68    8.10
  -7  -4  -3  193.38    8.10
  -7   4  -3  174.28   20.30
  -7  -5   3   53.79    4.30
  -7  -5   3   53.99    2.80
   7  -5  -3   57.09    2.90
   7   5  -3   53.79   14.00
  -6  -5   3    6.70    1.70
  -6  -5   3    5.20    0.90
   6  -5  -3    4.90    1.40
  -6  -5   3    5.60    1.40
   6   5  -3    8.80   10.70
   5  -5  -3  496.15   21.90
  -5  -5   3  522.05   21.70
  -5  -5   3  522.65   21.00
   5  -5  -3  501.25   20.90
   5   5  -3  495.05   23.50
  -5   5   3  492.15   31.30
   5   5  -3  497.15   25.10
   5   5  -3  448.66   48.10
   5   5  -3  525.75   28.60
   4  -5  -3  803.32   33.00
  -4  -5   3  753.02   33.00
   4  -5  -3  768.32   33.50
  -4  -5   3  787.42   33.70
   4   5  -3  732.43   68.39
   4   5  -3  836.42   42.40
  -4   5   3  876.71   47.10
   4   5  -3  802.52   36.10
  -3  -5   3  155.88    7.80
   3  -5  -3  152.28   14.10
   3  -5  -3  142.79    7.10
   3  -5  -3  156.28    7.60
  -3  -5   3  149.99    7.20
   3   5  -3  164.38   11.20
   3   5  -3  182.88   16.40
   3   5  -3  168.28   35.00
  -3   5   3  184.88   21.40
   2  -5  -3  316.07   13.60
  -2  -5   3  317.47   13.80
   2  -5  -3  315.67   18.80
  -2   5   3  313.97   29.30
   2   5  -3  291.77   42.40
   2   5  -3  326.37   24.60
   2   5  -3  308.37   17.20
  -1  -5   3   67.29    3.80
   1  -5  -3   65.59    9.50
   1  -5  -3   63.29    3.60
  -1   5   3   55.49   11.60
   1   5  -3   69.69    7.10
   1   5  -3   56.89   25.60
   1   5  -3   58.89   12.60
  -1   5   3   62.29   15.80
   0  -5   3   73.39    4.10
   0  -5  -3   69.49    3.60
   0  -5  -3   68.99    3.80
   0  -5  -3   67.39    9.30
   0   5  -3   67.59   14.30
   0   5   3   78.79   11.10
   0   5   3   65.49   16.60
   0   5  -3   60.49   25.60
  -1  -5  -3  566.54   29.00
  -1  -5  -3  580.44   25.00
  -1  -5  -3  605.84   25.50
   1   5   3  663.43   32.30
  -1   5  -3  567.44   41.40
   1   5   3  597.54   47.10
   1   5   3  624.14   32.90
  -2  -5  -3  497.15   19.90
  -2  -5  -3  513.15   20.40
   2  -5   3  482.05   20.30
   2   5   3  448.76   40.80
   2   5   3  480.15   27.90
  -2   5  -3  423.46   36.60
   2   5   3  466.45   27.70
   3  -5   3  398.16   18.10
  -3  -5  -3  428.56   18.30
  -3  -5  -3  401.96   17.70
  -3   5  -3  421.46   36.20
   3   5   3  423.66   38.30
   3   5   3  453.45   25.90
   4  -5   3  186.48    8.20
  -4  -5  -3  165.38    8.00
  -4  -5  -3  164.18    7.40
  -4   5  -3  154.68   23.40
   4   5   3  170.28   14.90
  -5  -5  -3   17.40    2.10
   5  -5   3   18.10    1.90
   5  -5   3   15.70    2.60
  -5  -5  -3   19.40    1.40
   5   5   3   20.00    7.40
  -5   5  -3   14.00    8.30
   5   5   3   19.60   10.30
  -6  -5  -3   69.39    4.20
   6  -5   3   64.89    3.50
  -6  -5  -3   80.59    3.40
   6  -5   3   58.29    4.60
  -6   5  -3   80.99   14.30
  -4  -6   3   51.49    2.90
  -4  -6   3   49.70    3.90
  -3  -6   3    0.90    1.70
  -3  -6   3    2.50    1.30
   3   6  -3    4.00    3.50
  -3   6   3    2.50    5.70
   3   6  -3    2.80   11.40
  -2  -6   3  206.78   10.80
  -2   6   3  249.38   22.10
   2   6  -3  244.98   17.80
   1  -6  -3  385.56   17.50
  -1   6   3  401.86   31.20
   1   6  -3  428.86   27.10
   0  -6  -3  515.35   22.90
   0   6  -3  559.44   34.30
   0   6   3  543.95   38.60
  -1  -6  -3  190.18    7.60
  -1  -6  -3  184.08    8.10
   1   6   3  148.79   20.10
   1   6   3  167.28   20.10
  -1   6  -3  164.98   18.00
  -2  -6  -3   49.40    3.50
  -2  -6  -3   66.39    3.00
  -2   6  -3   54.79   12.40
   2   6   3   53.89   16.00
   2   6   3   58.19   12.80
  -3  -6  -3   89.99    4.30
  -3  -6  -3   88.09    4.70
  -3   6  -3   82.19   14.20
   3   6   3   91.29   14.30
  -4  -6  -3   88.09    5.10
  -4  -6  -3   96.59    4.30
  -4   6  -3   99.59   14.60
  10   0  -4  329.17   15.30
 -10   0   4  324.27   14.80
 -10   0   4  342.87   14.80
   9   0  -4  451.25   20.30
  -9   0   4  445.76   20.10
  -9   0   4  459.25   20.10
   9   0  -4  438.76   20.20
   8   0  -4  270.67   13.30
  -8   0   4  248.08   12.50
  -8   0   4  273.47   12.90
   8   0  -4  248.28   13.00
  -8   0   4  233.88   24.70
  -7   0   4  536.15   24.10
   7   0  -4  556.54   24.80
  -7   0   4  542.85   31.50
  -7   0   4  550.14   24.50
   7   0  -4  533.85   24.70
   7   0  -4  542.15   22.80
   6   0  -4  181.28    8.90
   6   0  -4  180.58   10.00
   6   0  -4  172.88    9.80
   6   0  -4  180.08    7.90
  -6   0   4  165.48    9.00
  -6   0   4  179.88    9.50
  -6   0   4  178.08   13.90
   5   0  -4  360.76   17.60
   5   0  -4  379.66   15.70
   5   0  -4  370.86   16.30
  -5   0   4  362.86   15.70
  -5   0   4  377.86   21.00
   5   0  -4  381.16   17.40
  -5   0   4  363.46   16.40
  -4   0   4 1224.98   47.50
   4   0  -4 1173.68   47.50
  -4   0   4 1138.29   48.00
  -4   0   4 1177.08   52.39
   4   0  -4 1126.89   49.00
   4   0  -4 1118.39   48.00
   4   0  -4 1097.99   48.60
  -3   0   4 1489.55   68.89
   3   0  -4 1662.53   65.49
   3   0  -4 1551.74   64.99
  -3   0   4 1621.54   64.99
   2   0  -4 1598.54   68.19
  -2   0   4 1672.03   67.49
  -2   0   4 1566.04   70.59
   2   0  -4 1694.53   67.49
   1   0  -4  523.65   22.90
  -1   0   4  502.85   25.00
   1   0  -4  553.24   22.20
  -1   0   4  533.45   21.90
   0   0  -4   19.20    1.60
   0   0   4   19.70    1.50
   0   0  -4   20.20    2.00
   0   0  -4   19.40    1.80
   0   0   4   20.40    1.70
  -1   0  -4  343.37   15.40
  -1   0  -4  340.77   14.50
  -1   0  -4  337.27   14.20
  -2   0  -4 2719.43  113.69
   2   0   4 2745.83  113.99
  -2   0  -4 2813.82  113.89
   2   0   4 2733.83  113.59
  -2   0  -4 2830.12  115.09
   3   0   4  632.54   26.30
   3   0   4  636.24   25.80
  -3   0  -4  622.44   25.70
  -3   0  -4  585.74   26.90
   3   0   4  587.34   28.10
  -3   0  -4  649.54   27.60
  -3   0  -4  628.84   26.10
  -4   0  -4  858.81   37.20
   4   0   4  887.01   36.50
   4   0   4  924.81   39.40
  -4   0  -4  838.92   37.00
  -4   0  -4  855.61   37.90
   4   0   4  877.41   35.80
   4   0   4  858.11   38.30
  -4   0  -4  826.32   35.70
   5   0   4  391.66   20.40
   5   0   4  402.46   17.60
  -5   0  -4  402.86   19.50
   5   0   4  419.56   20.40
  -5   0  -4  392.96   18.50
   5   0   4  392.46   16.80
   6   0   4    6.60    1.50
  -6   0  -4    6.10    2.70
   6   0   4   10.30    1.50
  -6   0  -4    6.50    2.30
   6   0   4    9.50    3.70
  -7   0  -4  134.99    7.70
   7   0   4  141.99    6.20
  -7   0  -4  129.39    8.00
   7   0   4  131.29    7.70
   7   0   4  143.89    9.70
  -8   0  -4  638.04   28.00
  -8   0  -4  641.04   28.00
   8   0   4  644.34   30.20
  -9   0  -4  794.82   33.10
  -9   0  -4  798.92   33.10
  -9   0  -4  731.33   42.50
   9   0   4  782.92   34.70
  -9  -1   4  208.28   10.40
  -9  -1   4  203.18   10.60
  -9   1   4  219.08   10.50
   9   1  -4  220.88   10.90
   9   1  -4  212.28   10.60
  -9   1   4  218.18   10.80
   8  -1  -4  166.98    9.80
   8  -1  -4  144.39   12.50
  -8  -1   4  161.68    8.90
  -8  -1   4  177.38    9.60
   8  -1  -4  162.08    8.80
   8  -1  -4  165.08    7.60
   8   1  -4  186.78   10.10
  -8   1   4  175.78   10.00
  -8   1   4  177.88    9.20
   8   1  -4  188.28    9.70
   7  -1  -4  664.53   27.90
  -7  -1   4  648.44   35.10
   7  -1  -4  610.34   29.20
   7  -1  -4  651.63   28.80
  -7  -1   4  628.34   28.70
   7  -1  -4  642.74   27.00
  -7  -1   4  623.64   27.00
  -7  -1   4  655.73   28.10
  -7   1   4  650.83   38.90
  -7   1   4  625.94   28.80
   7   1  -4  663.23   29.30
   7   1  -4  662.73   28.90
  -7   1   4  680.13   28.70
   6  -1  -4  996.20   43.00
   6  -1  -4 1025.90   41.60
  -6  -1   4  992.20   43.20
  -6  -1   4  997.50   42.40
   6  -1  -4  941.81   44.30
   6  -1  -4 1000.30   42.30
  -6  -1   4 1053.29   48.50
  -6  -1   4  987.40   41.60
   6   1  -4 1006.20   43.30
   6   1  -4 1001.30   43.40
  -6   1   4 1039.70   50.79
  -6   1   4 1032.70   43.00
  -6   1   4  935.11   43.10
   6   1  -4 1032.90   43.70
  -5  -1   4 1024.50   41.50
  -5  -1   4 1036.10   42.20
   5  -1  -4 1026.70   41.50
   5  -1  -4  993.10   43.70
   5  -1  -4 1006.30   42.70
  -5  -1   4 1131.99   47.50
   5  -1  -4 1042.70   42.20
  -5  -1   4 1018.40   43.20
   5   1  -4  994.20   43.00
   5   1  -4  975.50   43.40
  -5   1   4  996.10   48.80
  -5   1   4  862.91   43.00
   5   1  -4  960.00   48.80
   5   1  -4  977.60   43.30
  -4  -1   4  744.03   33.40
  -4  -1   4  693.93   28.80
  -4  -1   4  658.43   29.30
   4  -1  -4  699.43   28.80
   4  -1  -4  682.43   29.30
   4   1  -4  714.43   36.20
   4   1  -4  695.93   30.60
  -4   1   4  696.33   34.90
   4   1  -4  687.23   30.20
   4   1  -4  673.63   30.80
   3  -1  -4   74.79    3.90
  -3  -1   4   73.39    3.50
  -3  -1   4   77.49    6.50
   3  -1  -4   74.99    3.50
  -3   1   4   71.59    7.70
  -3   1   4   83.59   21.30
   3   1  -4   69.59    4.20
   2  -1  -4   62.39    3.00
  -2  -1   4   64.49    5.20
   2  -1  -4   60.69    3.50
  -2  -1   4   63.79    3.00
   1  -1  -4 1688.63   71.09
  -1  -1   4 1723.43   72.29
  -1  -1   4 1718.43   69.49
   1   1  -4 1635.04   70.09
   0  -1   4 1900.41   83.59
   0  -1  -4 1970.70   82.49
   0  -1   4 1907.91   80.99
   0   1   4 2180.48   81.49
   0   1  -4 1906.21   81.89
  -1  -1  -4 1667.63   68.29
  -1  -1  -4 1643.24   69.39
   1  -1   4 1569.94   67.99
  -1   1  -4 1694.83   69.29
   1   1   4 1697.63   68.39
   2  -1   4  448.66   19.20
   2  -1   4  439.96   18.70
  -2  -1  -4  442.36   19.00
  -2  -1  -4  456.25   20.30
  -2   1  -4  449.86   20.20
   2   1   4  473.45   18.80
   2   1   4  440.76   19.20
  -3  -1  -4   48.70    4.00
  -3  -1  -4   44.80    2.70
   3  -1   4   43.70    2.80
   3   1   4   40.50    2.50
   3   1   4   35.90    4.10
   3   1   4   45.30    5.10
   3   1   4   39.90    5.90
  -3   1  -4   42.40    5.20
  -3   1  -4   37.40    4.00
  -3   1  -4   41.50    4.10
  -4  -1  -4  706.13   30.80
   4  -1   4  714.63   29.30
  -4  -1  -4  682.03   29.10
   4  -1   4  714.13   28.70
  -4  -1  -4  685.73   28.60
  -4  -1  -4  625.74   30.00
  -4   1  -4  723.23   31.20
   4   1   4  670.23   29.30
   4   1   4  720.63   32.80
  -4   1  -4  696.03   29.80
   4   1   4  711.43   28.60
  -4   1  -4  665.03   30.10
   4   1   4  650.83   31.50
   5  -1   4  999.90   40.30
  -5  -1  -4  935.51   39.40
  -5  -1  -4  944.61   40.00
  -5  -1  -4  831.92   45.40
  -5  -1  -4  917.71   40.70
   5  -1   4  994.60   39.50
  -5  -1  -4  989.00   42.10
   5   1   4  952.00   42.80
  -5   1  -4 1001.40   40.80
  -5   1  -4  991.70   41.10
   5   1   4  955.50   44.10
   5   1   4  934.61   39.40
  -6  -1  -4 1085.69   46.50
   6  -1   4 1166.48   47.50
   6  -1   4 1191.58   46.70
   6  -1   4 1184.48   49.70
  -6  -1  -4 1107.39   47.90
  -6  -1  -4 1096.69   48.10
  -6  -1  -4 1126.09   49.80
  -6   1  -4 1122.19   48.30
   6   1   4 1089.09   51.79
  -6   1  -4 1108.79   47.90
   6   1   4 1119.99   50.29
   7  -1   4  331.17   17.40
  -7  -1  -4  326.87   15.90
   7  -1   4  329.07   14.30
  -7  -1  -4  336.77   15.90
   7  -1   4  329.57   15.20
  -7   1  -4  341.17   16.10
   7   1   4  350.16   18.30
  -7   1  -4  341.97   15.70
  -8  -1  -4   53.39    4.00
  -8  -1  -4   55.69    4.50
   8  -1   4   57.99    4.90
   8  -1   4   53.79    2.90
   8  -1   4   55.09    5.00
  -8   1  -4   50.09   11.50
   8   1   4   54.89    5.60
  -8   1  -4   50.89    4.10
  -8   1  -4   53.59    3.70
   9  -1   4   27.10    3.60
  -9  -1  -4   22.50    3.40
  -9  -1  -4   25.00    2.70
  -9   1  -4   29.30    2.50
  -9   1  -4   20.30    8.30
  -9   1  -4   27.70    2.90
   9   1   4   26.60    4.20
   9  -2  -4  500.85   19.80
   9  -2  -4  443.56   21.40
  -9  -2   4  480.75   21.30
  -9  -2   4  489.95   20.80
   9   2  -4  430.46   37.60
   9   2  -4  473.75   21.00
   9   2  -4  478.55   21.30
  -9   2   4  493.65   20.70
   8  -2  -4  237.18    9.90
  -8  -2   4  232.48    9.90
  -8  -2   4  234.88   12.10
   8  -2  -4  234.08   10.80
   8   2  -4  186.78   13.50
   7  -2  -4  481.75   21.10
  -7  -2   4  482.75   21.20
  -7  -2   4  497.05   28.90
  -7  -2   4  469.95   22.60
  -7  -2   4  494.15   21.30
   7  -2  -4  475.05   22.00
  -7  -2   4  459.35   20.30
   7  -2  -4  470.65   20.30
  -7   2   4  493.05   21.70
   7   2  -4  483.25   22.00
   7   2  -4  493.95   22.90
   6  -2  -4    2.50    0.90
  -6  -2   4    3.30    5.70
   6  -2  -4    0.20    2.50
  -6  -2   4    1.30    0.90
   6  -2  -4    2.00    1.00
  -6  -2   4    2.00    1.10
   6   2  -4    5.10    2.40
   6   2  -4    1.30    3.00
   6   2  -4    1.50    2.60
  -6   2   4    4.00    1.90
   6   2  -4    0.20    3.80
   5  -2  -4   70.39    3.60
   5  -2  -4   72.59    4.20
  -5  -2   4   67.29    4.30
  -5  -2   4   77.39    8.30
  -5  -2   4   68.39    3.60
   5   2  -4   79.59    5.70
   5   2  -4   79.79    6.90
   5   2  -4   79.69    6.70
   5   2  -4   82.49   10.60
  -4  -2   4  583.14   25.60
   4  -2  -4  595.14   26.10
  -4  -2   4  587.54   26.20
  -4  -2   4  614.74   30.10
   4  -2  -4  592.14   25.60
   4   2  -4  639.24   27.90
   4   2  -4  642.14   28.10
   4   2  -4  622.74   33.60
  -4   2   4  683.73   38.70
   4   2  -4  618.14   27.00
   4   2  -4  612.34   28.10
  -3  -2   4 1793.02   74.29
   3  -2  -4 1754.92   73.69
  -3  -2   4 1864.31   77.89
   3  -2  -4 1775.82   74.09
  -3  -2   4 1717.03   73.69
   3   2  -4 1809.12   82.79
   3   2  -4 1901.71   75.99
   3   2  -4 1762.82   74.89
  -3   2   4 1701.83   76.39
  -3   2   4 1874.21   86.99
   3   2  -4 1752.92   76.09
   3   2  -4 1821.42   75.69
  -2  -2   4 2704.83  106.59
  -2  -2   4 2588.34  105.79
  -2  -2   4 2714.53  109.39
   2  -2  -4 2589.84  105.69
   2  -2  -4 2556.14  106.09
  -2   2   4 2478.45  109.59
  -2   2   4 2615.94  109.49
  -2   2   4 2547.25  119.49
   2   2  -4 2627.64  107.69
   2   2  -4 2423.16  115.59
   2   2  -4 2512.05  106.79
  -1  -2   4   61.59    2.90
   1  -2  -4   64.89    3.10
  -1  -2   4   54.09    3.10
   1  -2  -4   51.09    2.80
  -1  -2   4   55.99    4.60
   1  -2  -4   56.89    4.70
   0  -2  -4  190.48    8.10
   0  -2   4  177.98    8.40
   0  -2   4  185.68   10.10
   0  -2  -4  206.28   10.10
   0  -2  -4  190.58    8.40
   0  -2   4  177.88    8.10
   0   2   4  197.98   12.10
  -1  -2  -4  322.27   15.20
  -1  -2  -4  333.57   13.70
   1  -2   4  310.37   13.70
  -1  -2  -4  314.37   13.40
   1  -2   4  309.27   13.40
   1   2   4  353.96   17.80
   1   2   4  300.97   17.40
  -1   2  -4  301.47   14.90
  -2  -2  -4 1203.98   48.60
   2  -2   4 1127.99   46.80
  -2  -2  -4 1128.69   46.80
  -2  -2  -4 1155.38   46.40
   2  -2   4 1077.59   46.40
  -2   2  -4 1096.09   47.70
  -2   2  -4  992.90   60.19
   2   2   4 1191.68   51.19
  -2   2  -4 1122.29   47.30
   2   2   4 1165.48   50.39
   3  -2   4 1381.46   59.69
   3  -2   4 1483.25   60.19
  -3  -2  -4 1484.75   61.89
  -3  -2  -4 1461.35   60.19
  -3  -2  -4 1457.65   59.69
  -3   2  -4 1313.77   74.99
   3   2   4 1523.95   64.89
  -3   2  -4 1426.76   61.09
  -3   2  -4 1446.96   60.59
   3   2   4 1520.25   63.69
   4  -2   4  404.66   17.30
  -4  -2  -4  435.96   19.60
   4  -2   4  411.66   16.60
  -4  -2  -4  403.96   19.00
  -4  -2  -4  405.66   17.20
  -4  -2  -4  419.06   16.60
   4   2   4  376.96   21.40
  -4   2  -4  338.67   31.00
  -4   2  -4  383.46   17.70
   4   2   4  368.86   21.60
  -5  -2  -4  442.36   21.30
   5  -2   4  510.55   20.50
  -5  -2  -4  500.35   22.60
  -5  -2  -4  444.36   28.50
   5  -2   4  497.15   21.30
  -5  -2  -4  519.55   23.40
  -5  -2  -4  529.95   20.50
   5   2   4  505.15   25.00
  -5   2  -4  441.76   36.60
  -5   2  -4  494.45   21.60
  -5   2  -4  493.15   22.30
   5   2   4  486.85   26.20
  -6  -2  -4  125.89    8.50
   6  -2   4  138.99    5.80
  -6  -2  -4  124.79    8.20
   6  -2   4  132.49    6.60
  -6  -2  -4  132.79    9.80
  -6  -2  -4  125.89    6.40
  -6  -2  -4  126.69    5.70
  -6   2  -4  115.19    6.90
   6   2   4  118.39   10.20
  -6   2  -4  112.29    7.60
  -6   2  -4  110.19   18.90
   6   2   4  116.59   12.10
  -7  -2  -4   86.69    4.40
   7  -2   4   96.29    7.20
   7  -2   4   96.49    5.40
   7  -2   4   97.69    4.50
  -7  -2  -4   93.49    6.70
  -7   2  -4   96.89    5.70
   7   2   4  100.39    8.80
  -7   2  -4   81.49   16.30
  -7   2  -4   94.89    6.40
   8  -2   4  502.55   22.40
  -8  -2  -4  495.95   22.80
   8  -2   4  506.65   23.80
  -8  -2  -4  488.85   22.60
   8  -2   4  542.65   21.60
   8   2   4  555.34   25.30
  -8   2  -4  544.35   22.40
  -8   2  -4  534.65   23.00
  -8   2  -4  476.65   34.50
   8  -3  -4  224.98    9.30
  -8  -3   4  221.68   10.10
  -8  -3   4  203.68   10.70
   8  -3  -4  219.48   10.20
  -8  -3   4  217.68    9.30
  -8   3   4  217.78   10.00
   8   3  -4  193.38   27.40
   8   3  -4  217.28   11.20
   8   3  -4  209.28   10.40
  -7  -3   4  412.36   18.40
  -7  -3   4  402.46   18.40
   7  -3  -4  414.06   17.50
  -7  -3   4  403.76   17.60
   7  -3  -4  400.06   18.20
   7   3  -4  416.66   20.00
  -7   3   4  428.46   18.60
   7   3  -4  446.36   19.20
   6  -3  -4  542.55   25.70
  -6  -3   4  587.94   32.70
   6  -3  -4  545.95   26.80
   6  -3  -4  586.04   26.20
  -6  -3   4  571.84   26.30
   6   3  -4  687.33   35.20
  -6   3   4  664.93   26.70
   6   3  -4  652.33   27.20
   6   3  -4  662.33   28.60
   5  -3  -4  814.82   35.70
   5  -3  -4  864.51   35.40
  -5  -3   4  830.12   34.80
  -5  -3   4  874.21   45.30
  -5  -3   4  843.42   35.50
   5  -3  -4  873.41   34.70
   5   3  -4  816.02   36.90
  -5   3   4  820.02   47.90
   5   3  -4  844.72   37.70
   5   3  -4  850.31   43.70
   5   3  -4  829.72   36.20
   5   3  -4  809.62   38.10
  -5   3   4  803.52   35.70
   4  -3  -4  646.54   26.60
  -4  -3   4  612.64   26.80
   4  -3  -4  652.33   26.10
  -4  -3   4  615.04   26.10
  -4  -3   4  643.74   31.40
  -4   3   4  637.34   39.40
   4   3  -4  612.14   27.40
   4   3  -4  635.94   29.30
   4   3  -4  618.54   28.50
   4   3  -4  600.84   29.10
   4   3  -4  612.44   35.00
  -3  -3   4  193.08    8.90
   3  -3  -4  176.68    8.20
   3  -3  -4  185.38    8.70
  -3  -3   4  182.78    8.30
  -3  -3   4  181.88   12.20
  -3   3   4  199.18   20.50
   3   3  -4  215.58   12.00
   3   3  -4  193.58   11.10
   3   3  -4  209.78   12.90
   3   3  -4  206.38    9.90
   3   3  -4  178.08   18.60
  -2  -3   4  125.09    8.70
   2  -3  -4  113.89    5.20
  -2  -3   4  120.09    5.30
  -2  -3   4  119.89    5.70
   2   3  -4  119.09    7.10
  -2   3   4  112.99   16.80
   2   3  -4  110.79   14.50
   2   3  -4  119.69    8.40
  -2   3   4  110.29   10.20
  -2   3   4  116.39    9.40
   2   3  -4  124.39   11.50
  -1  -3   4  710.83   30.70
   1  -3  -4  730.23   31.10
   1  -3  -4  709.23   30.70
   1  -3  -4  745.43   33.50
  -1  -3   4  721.03   31.10
  -1  -3   4  770.92   33.90
   1   3  -4  776.32   31.90
  -1   3   4  764.52   35.80
   1   3  -4  735.23   33.30
  -1   3   4  723.33   47.00
  -1   3   4  783.52   36.00
   1   3  -4  705.93   42.90
   1   3  -4  785.02   33.30
   0  -3  -4 1089.29   46.50
   0  -3   4 1128.39   49.10
   0  -3   4 1059.29   46.50
   0  -3  -4 1094.19   46.90
   0  -3   4 1128.49   46.90
   0   3  -4 1232.18   49.20
   0   3   4 1121.29   51.29
   0   3  -4 1047.80   59.99
   0   3   4 1242.68   52.59
   0   3  -4 1154.58   47.50
   0   3   4 1120.19   64.99
   1  -3   4  867.91   37.50
  -1  -3  -4  909.91   39.60
   1  -3   4  840.02   37.10
  -1  -3  -4  881.01   37.50
  -1  -3  -4  856.81   37.10
   1   3   4 1004.10   43.60
  -1   3  -4  980.20   40.30
   1   3   4  969.70   42.60
  -1   3  -4  896.41   38.10
   1   3   4  890.41   56.29
  -1   3  -4  796.02   50.99
  -2  -3  -4  630.54   27.40
   2  -3   4  622.84   25.40
  -2  -3  -4  619.04   24.90
  -2  -3  -4  600.94   25.30
   2  -3   4  592.94   24.90
   2   3   4  622.94   30.40
  -2   3  -4  587.04   25.90
  -2   3  -4  535.35   39.50
   2   3   4  557.84   43.00
   2   3   4  608.44   31.10
  -3  -3  -4   87.69    4.00
  -3  -3  -4   83.09    6.50
   3  -3   4   82.69    4.10
   3  -3   4   80.79    4.50
  -3  -3  -4   85.29    4.50
   3   3   4   79.39   19.10
  -3   3  -4   75.19   16.20
  -3   3  -4   90.89    6.50
   3   3   4   88.49    9.70
  -3   3  -4   89.99    5.80
   3   3   4   93.99   10.10
   4  -3   4 1057.29   43.50
  -4  -3  -4 1017.30   43.40
   4  -3   4 1088.19   42.90
  -4  -3  -4 1060.09   42.90
  -4  -3  -4 1061.19   45.60
   4   3   4 1065.29   49.90
   4   3   4  946.71   62.69
  -4   3  -4  925.91   60.39
  -4   3  -4 1044.90   44.70
  -4   3  -4 1040.60   43.70
   4   3   4 1094.29   48.50
  -5  -3  -4  570.54   24.10
   5  -3   4  593.54   24.30
  -5  -3  -4  519.15   34.00
   5  -3   4  584.64   23.50
  -5  -3  -4  565.74   26.70
  -5  -3  -4  589.24   23.50
  -5   3  -4  549.85   25.40
   5   3   4  593.14   29.10
  -5   3  -4  484.05   40.00
   5   3   4  566.54   30.40
  -5   3  -4  550.14   24.30
  -6  -3  -4  465.95   27.00
  -6  -3  -4  504.05   23.40
   6  -3   4  532.65   23.60
   6  -3   4  513.05   22.80
  -6   3  -4  592.74   23.70
  -6   3  -4  586.24   24.80
   6   3   4  612.54   28.40
  -6   3  -4  536.65   40.40
   6   3   4  571.84   29.80
   7  -3   4  253.87   13.10
   7  -3   4  260.77   11.90
  -7  -3  -4  253.77   11.00
   7  -3   4  260.97   11.10
  -7  -3  -4  244.38   12.00
   7   3   4  272.77   15.40
  -7   3  -4  268.87   12.60
  -7   3  -4  270.27   11.70
  -7   3  -4  234.58   23.10
   8  -3   4  118.69    5.10
   8  -3   4  110.89    6.70
   8  -3   4  110.49    6.20
  -8   3  -4  118.39    6.30
  -8   3  -4  102.69   13.50
  -8  -4   4  246.68   11.10
   8  -4  -4  246.88   10.50
  -8  -4   4  235.78   10.50
   8   4  -4  265.67   12.00
   8   4  -4  240.18   26.10
  -7  -4   4  130.19    7.00
  -7  -4   4  136.59    6.80
  -7  -4   4  136.99    6.20
   7  -4  -4  139.19    6.10
   7  -4  -4  141.29    6.90
   7   4  -4  144.59    7.20
   7   4  -4  128.69   24.30
   7   4  -4  142.59    8.40
   6  -4  -4   23.90    1.70
   6  -4  -4   24.40    2.50
  -6  -4   4   21.90    2.60
  -6  -4   4   24.90    1.80
   6   4  -4   25.00   11.00
   6   4  -4   20.70   20.90
   6   4  -4   27.90    3.20
   5  -4  -4   34.10    2.20
  -5  -4   4   40.40    3.00
  -5  -4   4   31.80   10.50
  -5  -4   4   34.10    2.20
   5  -4  -4   38.30    2.90
   5   4  -4   42.10    7.10
  -5   4   4   38.80   11.80
   5   4  -4   38.80    4.60
   5   4  -4   32.40   25.10
   4  -4  -4  465.55   21.30
  -4  -4   4  454.45   27.00
  -4  -4   4  453.15   21.50
   4  -4  -4  453.35   20.80
  -4  -4   4  457.65   20.90
   4   4  -4  524.75   25.00
  -4   4   4  574.04   35.90
   4   4  -4  453.85   56.89
   4   4  -4  516.35   24.60
   4   4  -4  562.94   22.30
   4   4  -4  561.14   31.30
   3  -4  -4 1295.37   53.69
   3  -4  -4 1342.17   58.09
   3  -4  -4 1344.87   54.19
  -3  -4   4 1295.97   53.79
  -3  -4   4 1317.97   54.39
  -3  -4   4 1356.56   59.79
   3   4  -4 1322.27   65.39
  -3   4   4 1343.97   70.89
   3   4  -4 1127.69   94.39
   3   4  -4 1275.27   56.89
   3   4  -4 1314.87   54.69
   3   4  -4 1310.67   56.29
   3   4  -4 1280.97   57.49
  -2  -4   4  755.22   30.10
   2  -4  -4  731.03   30.00
  -2  -4   4  750.22   30.60
  -2  -4   4  755.32   35.20
   2  -4  -4  783.12   34.20
   2   4  -4  751.92   32.80
   2   4  -4  683.83   41.90
   2   4  -4  647.94   65.49
   2   4  -4  656.23   33.50
  -2   4   4  729.43   47.60
   2   4  -4  710.33   33.60
  -1  -4   4  364.16   16.30
   1  -4  -4  382.86   19.60
   1  -4  -4  352.96   16.20
  -1  -4   4  376.26   16.70
  -1   4   4  434.76   23.40
   1   4  -4  356.76   48.70
   1   4  -4  397.66   29.50
  -1   4   4  413.16   34.20
  -1   4   4  407.96   22.30
   0  -4  -4   24.00    1.90
   0  -4  -4   27.60    2.20
   0  -4  -4   29.30    5.20
   0  -4   4   25.80    2.30
   0   4   4   28.20   13.40
   0   4   4   23.40    7.00
   0   4  -4   29.00    5.10
   0   4   4   30.20    8.80
   0   4  -4   29.90   12.10
  -1  -4  -4  507.25   21.30
  -1  -4  -4  481.65   20.80
   1  -4   4  476.35   21.20
  -1  -4  -4  489.45   23.80
   1   4   4  499.45   40.60
   1   4   4  508.55   27.60
  -1   4  -4  473.65   36.10
   1   4   4  552.74   29.60
  -2  -4  -4  364.36   15.10
  -2  -4  -4  365.16   14.60
  -2  -4  -4  357.66   17.80
   2  -4   4  340.17   14.60
   2  -4   4  356.36   15.10
  -2   4  -4  305.67   29.40
   2   4   4  322.87   32.70
   2   4   4  361.16   22.90
   2   4   4  322.57   21.30
   3  -4   4  480.35   19.90
  -3  -4  -4  464.05   19.30
   3  -4   4  456.65   19.30
  -3  -4  -4  456.75   22.50
  -3  -4  -4  455.65   19.80
   3   4   4  486.95   27.20
  -3   4  -4  429.66   35.80
   3   4   4  480.65   27.60
   3   4   4  421.16   37.90
   4  -4   4  692.33   28.70
  -4  -4  -4  695.53   28.70
   4  -4   4  715.13   29.40
  -4  -4  -4  647.44   32.20
  -4  -4  -4  704.93   29.30
   4   4   4  666.73   48.20
  -4   4  -4  640.34   46.40
   4   4   4  679.23   36.40
   4   4   4  759.12   36.80
   5  -4   4   99.99    5.40
   5  -4   4   94.09    4.70
  -5  -4  -4  102.59    5.30
  -5  -4  -4   97.89    4.60
   5   4   4   85.79   20.80
   5   4   4  115.99   13.10
  -5   4  -4   95.69   17.30
   5   4   4  113.49   12.80
  -6  -4  -4    5.40    0.80
   6  -4   4    6.10    3.70
  -6  -4  -4    5.10    1.30
   6  -4   4    5.40    1.50
   6  -4   4    5.20    0.90
   6   4   4   11.50    7.00
   6   4   4    7.30    7.50
  -6   4  -4    5.60    5.90
   7  -4   4  182.38    8.40
  -7  -4  -4  182.08    7.50
   7  -4   4  166.88   10.20
  -7   4  -4  164.08   17.20
  -6  -5   4  719.73   27.60
  -6  -5   4  677.33   28.00
   6  -5  -4  666.53   28.10
   6  -5  -4  612.44   27.70
  -6  -5   4  674.33   28.20
   6   5  -4  621.34   53.09
  -5  -5   4  297.07   12.80
   5  -5  -4  303.87   13.40
  -5  -5   4  289.97   13.50
   5  -5  -4  299.97   12.80
   5   5  -4  313.37   19.90
  -4  -5   4  145.59    6.70
   4  -5  -4  145.19    6.60
   4  -5  -4  151.28    7.20
  -4  -5   4  143.39    7.30
   4   5  -4  158.88   19.00
  -4   5   4  147.09   15.60
   3  -5  -4   10.30    1.50
  -3  -5   4   10.70    1.60
  -3  -5   4   10.60    2.00
   3  -5  -4    9.00    1.90
   3   5  -4   10.00    5.40
   3   5  -4   11.50   19.20
  -3   5   4   14.20   10.50
   2  -5  -4   75.09   10.50
   2  -5  -4   79.89    3.80
  -2  -5   4   78.89    4.00
   2  -5  -4   81.59    4.30
  -2  -5   4   80.39    4.50
  -2   5   4   77.99   16.20
   2   5  -4   70.99   12.30
  -1  -5   4  376.36   15.30
  -1  -5   4  372.06   15.50
   1  -5  -4  336.77   19.90
   1  -5  -4  351.46   15.30
   1  -5  -4  345.77   14.90
   1   5  -4  363.76   27.50
  -1   5   4  378.46   32.70
   1   5  -4  296.67   42.90
   0  -5   4  340.57   13.90
   0  -5  -4  309.37   13.30
   0  -5  -4  332.27   13.90
   0  -5  -4  301.57   18.20
   0   5  -4  299.27   26.40
   0   5   4  310.87   30.40
   0   5   4  302.77   22.90
  -1  -5  -4  732.03   31.30
  -1  -5  -4  685.73   35.70
  -1  -5  -4  782.92   31.90
   1  -5   4  748.33   31.80
   1   5   4  706.73   38.30
  -1   5  -4  768.92   48.10
   1   5   4  815.22   41.70
   1   5   4  789.02   53.09
   2  -5   4  203.48    9.30
  -2  -5  -4  208.38    8.70
  -2  -5  -4  211.48    9.30
  -2   5  -4  190.28   22.50
   2   5   4  191.28   24.40
   2   5   4  193.48   18.40
  -3  -5  -4   43.80    2.30
   3  -5   4   40.50    3.30
  -3  -5  -4   43.90    2.90
   3   5   4   39.90   13.80
   3   5   4   29.60    8.60
  -3   5  -4   42.30   12.90
   3   5   4   39.90   11.90
   4  -5   4  224.48   10.10
   4  -5   4  223.88    9.50
  -4  -5  -4  234.08   10.10
  -4  -5  -4  234.18    9.50
   4   5   4  200.98   21.80
   4   5   4  201.88   17.90
  -4   5  -4  211.28   22.10
  -5  -5  -4  199.48    9.30
   5  -5   4  193.88    9.40
  -5  -5  -4  211.48    8.70
   5  -5   4  192.98    8.70
  -5   5  -4  205.88   20.60
   5   5   4  207.08   19.40
  -6  -5  -4  413.86   17.40
   6  -5   4  390.36   17.40
  -6   5  -4  448.26   28.70
  -4  -6   4  226.68   10.30
   4  -6  -4  231.98   10.40
   4   6  -4  260.17   15.80
  -3  -6   4  247.68   11.10
  -3  -6   4  216.98   11.80
   3  -6  -4  271.47   11.30
   3   6  -4  271.17   17.30
  -3   6   4  276.57   19.90
   2  -6  -4  411.76   17.60
   2  -6  -4  395.56   18.00
  -2  -6   4  371.86   18.20
  -2   6   4  452.95   29.20
   2   6  -4  454.05   25.70
   1  -6  -4   85.09    5.20
   1  -6  -4   90.59    4.50
  -1   6   4  108.29   14.90
   1   6  -4   97.29   11.50
   0  -6  -4   18.60    2.50
   0   6  -4   25.30    7.90
  -1  -6  -4  216.28   10.30
  -1  -6  -4  231.18   10.00
   1   6   4  238.08   22.30
  -1   6  -4  237.08   20.10
  -2  -6  -4   92.39    5.20
  -2   6  -4  112.39   14.10
   2   6   4  106.49   14.60
  -3  -6  -4  205.88   10.30
  -3  -6  -4  217.18    9.70
   3   6   4  241.68   20.30
  -3   6  -4  251.07   20.50
   9   0  -5   12.00    2.60
   9   0  -5   12.80    2.50
  -9   0   5   10.40    2.00
  -9   0   5    6.10    2.20
  -8   0   5  199.48   10.20
   8   0  -5  186.18   11.90
   7   0  -5  293.37   14.50
  -7   0   5  293.07   14.10
   7   0  -5  286.07   14.40
  -7   0   5  275.67   22.00
  -7   0   5  280.17   13.60
   6   0  -5  539.45   22.00
  -6   0   5  508.25   23.00
   6   0  -5  538.55   24.00
  -6   0   5  528.25   30.10
   6   0  -5  518.05   24.00
  -6   0   5  538.35   23.80
   6   0  -5  502.45   23.00
   5   0  -5 1781.72   72.29
   5   0  -5 1762.12   70.69
  -5   0   5 1693.33   77.89
  -5   0   5 1701.33   70.69
   5   0  -5 1738.03   71.49
   5   0  -5 1646.44   72.59
   5   0  -5 1691.23   72.39
  -4   0   5  925.11   44.80
  -4   0   5  945.81   39.50
   4   0  -5  942.11   40.10
   4   0  -5  924.61   40.40
   4   0  -5  947.51   39.50
  -4   0   5  935.51   38.80
   4   0  -5  907.91   40.70
   4   0  -5  975.40   38.80
   3   0  -5  227.58   11.90
   3   0  -5  232.08   11.40
   3   0  -5  236.68   11.30
   3   0  -5  241.78   10.50
   3   0  -5  207.08   12.20
  -3   0   5  235.18    9.90
   3   0  -5  237.98    9.90
  -3   0   5  230.48   10.40
   2   0  -5   85.09    5.20
  -2   0   5   80.09    7.50
  -2   0   5   89.49    4.50
   2   0  -5   89.09    4.10
  -2   0   5   93.99    4.10
   2   0  -5   88.59    4.60
   1   0  -5  466.55   20.70
  -1   0   5  482.15   19.50
  -1   0   5  438.36   23.60
   1   0  -5  483.85   19.50
   0   0  -5 1180.78   50.79
   0   0   5 1229.98   50.09
   0   0   5 1188.58   50.49
   0   0  -5 1234.38   51.49
   0   0  -5 1255.47   50.09
   1   0   5 1004.10   43.80
  -1   0  -5 1091.69   44.30
  -1   0  -5 1117.79   43.80
  -1   0  -5 1041.30   45.30
   2   0   5 1591.94   70.69
  -2   0  -5 1675.93   67.79
  -2   0  -5 1657.33   68.69
   2   0   5 1642.64   68.39
  -2   0  -5 1664.33   69.09
  -2   0  -5 1671.53   69.79
   3   0   5    2.50    3.90
  -3   0  -5   -1.50    3.30
   3   0   5    3.60    0.80
  -3   0  -5    1.40    1.10
  -3   0  -5    2.20    2.10
   3   0   5    3.70    1.10
   4   0   5   42.80    3.40
  -4   0  -5   42.60    4.90
   4   0   5   45.10    5.90
  -4   0  -5   44.70    5.50
  -4   0  -5   49.10    4.40
   4   0   5   43.40    2.50
   5   0   5  396.86   20.50
   5   0   5  427.86   17.10
  -5   0  -5  392.16   18.30
  -5   0  -5  413.56   20.40
  -5   0  -5  395.96   18.50
   5   0   5  399.26   21.80
  -5   0  -5  395.66   18.80
   5   0   5  418.96   18.00
  -6   0  -5 1565.34   66.49
   6   0   5 1593.54   68.79
  -6   0  -5 1529.05   66.49
   6   0   5 1581.04   65.99
   6   0   5 1619.74   64.99
   7   0   5  301.97   13.20
  -7   0  -5  310.67   14.70
  -7   0  -5  314.77   14.90
   7   0   5  316.57   16.90
  -8   0  -5  227.88   10.90
  -8   0  -5  218.48   21.00
   8   0   5  241.78   12.90
  -8   0  -5  226.28   11.00
   9  -1  -5  225.68   11.20
  -9  -1   5  211.58   10.50
  -9  -1   5  220.28   10.90
  -9   1   5  225.58   10.60
   9   1  -5  226.58   11.00
   9   1  -5  227.38   10.80
  -8  -1   5  966.50   41.50
  -8  -1   5  966.30   41.40
   8  -1  -5  938.21   41.80
   8  -1  -5  916.01   39.80
   8  -1  -5  945.01   41.30
  -8   1   5  934.51   41.00
   8   1  -5 1007.90   43.70
   8   1  -5 1023.60   43.30
   7  -1  -5  427.46   19.20
  -7  -1   5  421.56   19.30
   7  -1  -5  422.46   18.30
   7  -1  -5  406.56   17.30
  -7  -1   5  411.66   18.30
   7  -1  -5  402.36   19.70
  -7  -1   5  403.36   26.70
  -7  -1   5  384.76   17.20
  -7   1   5  412.26   18.90
  -7   1   5  377.56   30.10
   7   1  -5  422.86   19.80
  -7   1   5  406.46   19.30
   7   1  -5  420.06   19.30
  -6  -1   5  122.69   13.80
   6  -1  -5  120.99    9.10
   6  -1  -5  112.49    7.30
  -6  -1   5  121.69    7.80
   6  -1  -5  116.49    5.40
  -6  -1   5  111.49    5.50
  -6  -1   5  114.99    6.30
   6  -1  -5  113.29    6.10
   6   1  -5  117.99    8.00
   6   1  -5  109.89    8.50
  -6   1   5  115.69    7.10
  -6   1   5  101.99    9.10
   6   1  -5  113.59    7.60
   5  -1  -5   19.30    1.60
   5  -1  -5   19.50    4.70
   5  -1  -5   17.30    2.30
  -5  -1   5   19.90    2.60
  -5  -1   5   19.70    6.10
   5  -1  -5   16.70    3.50
   5   1  -5   19.40    5.80
  -5   1   5   18.80    7.20
   5   1  -5   20.80    3.70
   5   1  -5   17.30    8.10
   5   1  -5   23.80    4.20
   4  -1  -5  402.86   15.90
   4  -1  -5  358.16   18.50
  -4  -1   5  398.16   15.90
  -4  -1   5  395.46   16.50
  -4  -1   5  411.96   21.60
   4  -1  -5  408.46   16.50
   4   1  -5  355.86   22.90
   4   1  -5  345.37   17.80
   4   1  -5  348.57   17.40
  -4   1   5  350.36   22.30
   4   1  -5  356.66   18.20
  -3  -1   5  688.63   28.80
  -3  -1   5  686.23   28.20
  -3  -1   5  687.73   33.10
   3  -1  -5  693.03   28.20
   3  -1  -5  704.03   28.70
   3  -1  -5  621.64   29.80
  -3   1   5  719.23   40.30
  -3   1   5  673.33   34.70
  -3   1   5  654.33   32.50
   3   1  -5  657.43   30.30
   3   1  -5  709.13   36.40
   3   1  -5  682.43   29.70
   3   1  -5  662.53   30.10
   2  -1  -5 1530.45   66.59
  -2  -1   5 1458.75   64.99
   2  -1  -5 1514.95   64.99
  -2  -1   5 1444.86   68.69
  -2   1   5 1829.82   77.69
   2   1  -5 1575.14   65.79
   2   1  -5 1621.44   66.49
   2   1  -5 1591.84   66.49
   1  -1  -5 4197.68  163.68
  -1  -1   5 4122.09  161.98
   1  -1  -5 3997.00  160.38
  -1  -1   5 3944.61  160.38
   1  -1  -5 4071.59  161.08
   1   1  -5 3825.62  161.38
   1   1  -5 3388.26  161.28
   1   1  -5 3754.22  161.98
   0  -1  -5   15.20    1.50
   0  -1   5   14.00    3.40
   0  -1  -5   15.80    2.60
   0  -1   5   14.70    1.60
   0  -1  -5   14.40    1.30
  -1  -1  -5   78.69    4.10
  -1  -1  -5   82.89    5.40
   1  -1   5   84.69    4.30
  -1  -1  -5   77.69    3.70
   1  -1   5   82.79    3.80
  -1   1  -5   76.39    5.10
  -1   1  -5   78.69    6.90
  -1   1  -5   74.99    5.30
   1   1   5   73.89    8.20
   1   1   5   82.19    4.60
  -2  -1  -5  443.96   21.70
   2  -1   5  502.55   20.10
  -2  -1  -5  495.55   22.00
  -2  -1  -5  502.25   20.50
   2  -1   5  508.35   20.60
  -2  -1  -5  502.95   20.00
  -2   1  -5  503.05   22.30
  -2   1  -5  458.15   22.00
  -2   1  -5  453.25   21.20
  -2   1  -5  432.46   21.40
   2   1   5  510.45   20.00
   2   1   5  443.46   23.40
  -3  -1  -5 1049.00   46.20
   3  -1   5 1043.60   47.30
  -3  -1  -5 1081.49   45.20
   3  -1   5 1049.40   45.40
   3  -1   5 1095.59   44.80
  -3  -1  -5 1088.59   47.00
  -3  -1  -5 1096.49   44.70
  -3   1  -5 1041.40   45.90
   3   1   5 1067.49   48.20
   3   1   5 1126.09   44.70
   3   1   5 1137.59   49.70
   3   1   5 1201.28   46.00
  -3   1  -5  956.10   60.09
  -3   1  -5 1073.89   46.20
  -3   1  -5 1182.08   46.90
  -3   1  -5 1047.40   47.20
  -4  -1  -5  759.52   34.10
  -4  -1  -5  771.82   31.40
  -4  -1  -5  702.53   33.00
   4  -1   5  754.52   31.50
  -4  -1  -5  744.33   33.00
  -4  -1  -5  767.12   32.00
   4  -1   5  765.02   32.20
   4   1   5  790.22   35.30
  -4   1  -5  751.42   34.50
  -4   1  -5  714.03   47.70
   4   1   5  771.62   31.40
   4   1   5  743.23   36.30
  -4   1  -5  766.72   32.70
  -4   1  -5  796.52   33.30
  -5  -1  -5  566.74   25.40
  -5  -1  -5  555.14   23.60
  -5  -1  -5  545.35   25.30
  -5  -1  -5  565.64   26.70
   5  -1   5  579.24   24.60
   5  -1   5  562.74   26.60
   5  -1   5  566.54   29.30
   5  -1   5  587.84   23.80
   5   1   5  560.44   27.60
  -5   1  -5  530.35   40.00
  -5   1  -5  596.04   25.20
   5   1   5  599.24   29.50
  -5   1  -5  563.94   25.40
   6  -1   5  240.78   13.30
  -6  -1  -5  233.08   14.10
  -6  -1  -5  235.08   11.70
   6  -1   5  236.78   11.00
  -6  -1  -5  233.48   12.00
   6   1   5  216.48   17.00
  -6   1  -5  228.68   11.90
  -6   1  -5  209.98   24.40
  -6   1  -5  232.18   11.40
   6   1   5  229.78   14.10
  -7  -1  -5  132.49    8.30
   7  -1   5  162.68    8.10
  -7  -1  -5  155.08    8.50
   7  -1   5  160.88   10.10
   7  -1   5  166.98    6.90
  -7   1  -5  146.99    8.50
   7   1   5  157.98   10.80
  -7   1  -5  154.18    8.20
  -8  -1  -5  164.68    9.00
  -8  -1  -5  175.28    8.80
   8  -1   5  169.38   10.20
  -8   1  -5  180.28    8.90
   8   1   5  193.58   11.00
  -8   1  -5  163.38   17.60
  -8   1  -5  185.38    8.70
  -9  -2   5  277.87   13.50
  -9  -2   5  283.97   12.50
   9  -2  -5  263.57   11.80
   9   2  -5  262.67   27.30
   9   2  -5  280.07   13.10
  -9   2   5  285.07   12.50
   9   2  -5  289.17   12.80
   8  -2  -5   55.29    4.40
  -8  -2   5   51.39    5.80
   8  -2  -5   59.09    5.90
  -8  -2   5   58.39    4.00
   8  -2  -5   56.39    2.90
   8   2  -5   50.39    4.90
   8   2  -5   55.89    4.30
  -8   2   5   57.39    4.10
  -7  -2   5  189.28    9.00
  -7  -2   5  181.18   17.90
   7  -2  -5  185.98    8.00
   7  -2  -5  179.08    9.80
   7  -2  -5  180.48    8.80
  -7  -2   5  180.68   10.80
  -7  -2   5  179.28    8.00
  -7  -2   5  185.78    9.20
   7   2  -5  175.88   10.80
  -7   2   5  168.18    9.30
   7   2  -5  169.68    9.80
  -6  -2   5  651.33   26.70
  -6  -2   5  637.84   33.90
   6  -2  -5  633.94   26.60
   6  -2  -5  591.64   27.00
  -6  -2   5  648.44   25.90
   6  -2  -5  632.84   25.80
   6   2  -5  600.04   27.60
   6   2  -5  575.44   28.30
  -6   2   5  610.04   27.20
   6   2  -5  577.84   27.80
  -5  -2   5  888.21   44.30
   5  -2  -5  911.51   38.50
  -5  -2   5  926.01   38.70
  -5  -2   5  928.11   37.80
   5  -2  -5  909.11   37.80
   5  -2  -5  877.81   38.80
   5   2  -5  919.71   46.00
   5   2  -5  864.71   40.40
   5   2  -5  915.01   39.50
   5   2  -5  974.00   40.40
  -4  -2   5 1091.39   45.60
   4  -2  -5 1070.79   46.10
  -4  -2   5 1087.39   46.20
  -4  -2   5 1106.19   51.29
   4  -2  -5 1101.69   45.50
   4   2  -5 1102.09   62.79
   4   2  -5 1104.89   47.90
   4   2  -5 1117.39   47.10
  -4   2   5 1193.28   59.69
   4   2  -5 1045.40   48.10
  -3  -2   5  313.97   13.70
   3  -2  -5  306.17   14.20
  -3  -2   5  305.37   18.00
   3   2  -5  333.37   15.30
  -3   2   5  293.87   17.90
  -3   2   5  338.37   18.60
   3   2  -5  335.77   16.50
  -3   2   5  364.46   25.80
   3   2  -5  353.86   22.80
   3   2  -5  311.47   17.10
   2  -2  -5  349.47   14.40
  -2  -2   5  341.67   18.10
   2  -2  -5  305.37   15.20
   2  -2  -5  337.17   13.90
  -2  -2   5  349.57   14.50
  -2  -2   5  347.87   14.00
   2  -2  -5  337.87   16.60
   2   2  -5  345.47   16.80
   2   2  -5  332.87   15.40
  -2   2   5  283.17   18.30
  -2   2   5  319.67   18.50
   2   2  -5  325.97   23.50
  -1  -2   5  398.46   20.00
   1  -2  -5  408.66   16.40
  -1  -2   5  396.46   16.40
   1  -2  -5  411.86   16.80
   1  -2  -5  388.56   18.70
  -1  -2   5  406.46   16.90
  -1   2   5  401.76   29.00
   1   2  -5  380.56   17.60
   1   2  -5  368.06   27.70
   1   2  -5  382.16   19.30
  -1   2   5  354.26   20.60
   0  -2  -5  909.31   36.50
   0  -2   5  915.71   36.10
   0  -2  -5  917.21   36.10
   0  -2   5  921.11   36.60
   0  -2   5  922.41   39.70
   0  -2  -5  915.81   38.40
   0   2   5  806.82   41.40
   0   2   5  878.41   40.40
   0   2  -5  806.02   38.70
   0   2  -5  792.02   48.60
   0   2   5  865.71   50.79
   0   2  -5  828.12   37.10
  -1  -2  -5 1091.49   44.60
   1  -2   5 1030.40   42.20
  -1  -2  -5 1086.59   42.30
   1  -2   5 1031.30   42.80
  -1  -2  -5 1045.00   42.70
   1   2   5 1027.10   58.29
   1   2   5  992.20   47.70
  -1   2  -5  981.40   43.20
  -1   2  -5  921.81   55.69
  -2  -2  -5  652.83   26.80
   2  -2   5  639.14   26.90
   2  -2   5  613.84   26.30
  -2  -2  -5  634.04   26.30
  -2  -2  -5  663.33   28.70
  -2   2  -5  649.14   27.40
   2   2   5  625.84   30.30
  -2   2  -5  590.74   40.80
   2   2   5  616.54   43.50
  -2   2  -5  650.63   27.90
  -3  -2  -5  476.85   22.60
  -3  -2  -5  486.05   20.70
   3  -2   5  488.85   20.20
   3  -2   5  432.86   22.80
  -3  -2  -5  486.85   20.20
   3  -2   5  482.75   20.80
  -3   2  -5  521.35   23.60
   3   2   5  516.95   26.30
  -3   2  -5  457.15   35.50
  -3   2  -5  472.95   21.60
   4  -2   5  100.99    5.50
  -4  -2  -5  104.59    4.80
   4  -2   5   96.09    7.90
   4  -2   5  105.89    4.90
  -4  -2  -5   98.89    7.60
  -4  -2  -5   95.89    8.10
  -4   2  -5  122.89    7.30
  -4   2  -5   99.69   18.30
   4   2   5  116.29    9.50
  -4   2  -5  110.19    6.30
   4   2   5  100.99   10.20
  -5  -2  -5  874.61   40.00
  -5  -2  -5  847.72   38.70
  -5  -2  -5  876.31   37.50
   5  -2   5  903.51   37.80
   5  -2   5  902.81   37.00
   5  -2   5  867.21   39.60
  -5  -2  -5  885.41   36.90
  -5   2  -5  922.81   38.80
   5   2   5  918.81   41.40
  -5   2  -5  839.52   54.49
   5   2   5  906.11   43.60
  -5   2  -5  934.11   38.20
  -6  -2  -5  623.64   27.10
   6  -2   5  669.03   29.30
  -6  -2  -5  669.33   26.30
   6  -2   5  694.13   27.40
  -6  -2  -5  669.73   28.30
  -6  -2  -5  643.74   30.60
   6  -2   5  684.53   26.40
  -6   2  -5  611.14   27.50
   6   2   5  604.14   30.50
  -6   2  -5  532.85   41.80
  -6   2  -5  584.44   28.00
   6   2   5  591.64   33.00
   7  -2   5  476.85   20.80
   7  -2   5  484.75   19.90
   7  -2   5  457.55   22.40
  -7  -2  -5  455.35   21.30
  -7   2  -5  449.06   33.20
  -7   2  -5  485.35   21.30
   7   2   5  491.65   23.70
  -7   2  -5  494.55   20.90
  -8  -2  -5  264.77   12.40
   8  -2   5  259.77   13.20
   8  -2   5  239.78   12.80
   8   2   5  282.37   14.20
  -8   2  -5  272.57   12.30
  -8   2  -5  273.17   11.80
  -8   2  -5  245.28   20.60
   8  -3  -5  462.55   20.50
  -8  -3   5  448.66   19.60
   8  -3  -5  483.95   19.60
  -8  -3   5  477.05   20.40
   8   3  -5  419.46   39.70
   8   3  -5  491.35   21.40
  -8   3   5  486.95   20.20
   8   3  -5  481.95   20.70
   7  -3  -5  287.07   12.10
  -7  -3   5  264.37   11.30
  -7  -3   5  263.17   12.00
   7  -3  -5  275.87   11.30
  -7  -3   5  253.77   12.30
   7  -3  -5  291.07   14.40
   7   3  -5  240.48   12.50
   7   3  -5  242.98   13.40
  -7   3   5  237.68   12.10
  -6  -3   5  258.87   11.40
  -6  -3   5  257.77   12.20
   6  -3  -5  260.07   12.10
   6  -3  -5  263.77   11.30
  -6  -3   5  241.98   19.80
   6  -3  -5  260.37   12.70
   6   3  -5  277.27   19.50
  -6   3   5  260.97   12.60
   6   3  -5  280.47   13.10
   6   3  -5  262.17   14.60
  -5  -3   5   36.80    9.10
   5  -3  -5   36.10    2.30
   5  -3  -5   41.50    3.90
   5  -3  -5   39.00    2.90
  -5  -3   5   38.00    2.40
  -5  -3   5   35.50    3.10
  -5   3   5   40.10   11.20
  -5   3   5   37.60    4.00
   5   3  -5   40.40    4.50
   5   3  -5   34.90    7.00
   5   3  -5   42.70    8.90
   5   3  -5   39.30    5.60
  -4  -3   5   65.89    3.90
  -4  -3   5   63.39    8.80
   4  -3  -5   64.89    3.70
  -4  -3   5   62.39    3.30
   4  -3  -5   69.79    3.30
   4   3  -5   47.80    6.60
   4   3  -5   39.10    8.40
   3  -3  -5  937.81   39.00
  -3  -3   5  894.01   44.10
  -3  -3   5  925.61   39.10
   3  -3  -5  910.51   42.70
   3   3  -5 1003.00   42.10
   3   3  -5  990.90   40.50
  -3   3   5 1057.29   54.89
   3   3  -5  791.52   42.40
   3   3  -5  979.20   49.70
   2  -3  -5 1239.98   51.29
   2  -3  -5 1260.67   54.39
  -2  -3   5 1243.68   55.69
  -2  -3   5 1232.28   50.89
   2  -3  -5 1362.66   52.39
  -2  -3   5 1224.98   51.39
   2  -3  -5 1230.98   50.79
  -2   3   5 1185.28   55.69
  -2   3   5 1292.07   67.29
   2   3  -5 1270.87   53.79
   2   3  -5 1078.39   54.39
   2   3  -5 1236.78   62.69
  -2   3   5 1168.58   56.49
   1  -3  -5  719.53   32.30
   1  -3  -5  723.53   29.80
  -1  -3   5  709.63   29.80
  -1  -3   5  700.43   33.50
  -1  -3   5  681.53   29.30
   1  -3  -5  727.33   29.30
   1   3  -5  738.83   32.50
  -1   3   5  634.14   58.59
   1   3  -5  723.43   30.60
   0  -3   5  119.69    5.60
   0  -3   5  122.39    6.10
   0  -3  -5  131.19    5.60
   0  -3  -5  125.29    8.20
   0  -3  -5  131.19    6.10
   0   3  -5  129.49    7.30
   0   3  -5  152.18   10.80
   0   3  -5  119.19   21.90
   0   3   5  118.59   19.50
   0   3   5  103.79   11.70
  -1  -3  -5    2.60    1.00
   1  -3   5    2.00    0.80
  -1  -3  -5    2.00    0.70
   1  -3   5    3.30    1.20
  -1   3  -5    3.20    5.50
  -1   3  -5    4.80    7.30
   1   3   5    5.60    5.20
   1   3   5    5.80    4.80
  -1   3  -5    4.70    2.60
  -2  -3  -5  678.53   30.40
  -2  -3  -5  679.53   27.60
   2  -3   5  667.13   28.20
   2  -3   5  658.93   27.60
  -2  -3  -5  649.74   28.20
   2   3   5  652.03   45.40
  -2   3  -5  579.34   42.00
   2   3   5  710.53   33.20
  -2   3  -5  690.23   28.70
   2   3   5  669.93   35.50
  -3  -3  -5  691.33   29.10
   3  -3   5  715.03   28.50
  -3  -3  -5  719.03   31.60
   3  -3   5  731.93   29.20
  -3  -3  -5  728.23   28.50
   3   3   5  599.74   45.10
   3   3   5  657.73   36.10
   3   3   5  632.64   33.40
  -3   3  -5  682.23   29.50
   4  -3   5 1190.38   53.29
  -4  -3  -5 1109.09   51.29
  -4  -3  -5 1090.59   48.80
   4  -3   5 1167.98   49.10
  -4  -3  -5 1106.69   48.20
   4  -3   5 1161.38   48.30
  -4   3  -5 1066.29   65.79
   4   3   5 1242.38   53.59
  -4   3  -5 1209.58   49.99
   4   3   5 1262.07   56.79
  -4   3  -5 1238.78   49.20
   5  -3   5   96.79    4.40
   5  -3   5   98.99    8.00
  -5  -3  -5   86.79   20.20
  -5  -3  -5   94.09    4.30
  -5  -3  -5   97.79    5.10
  -5  -3  -5   86.19    9.20
   5  -3   5   97.59    5.30
  -5   3  -5   85.19    6.50
   5   3   5   83.99   11.60
  -5   3  -5   82.19    5.60
   5   3   5   84.49    9.20
   6  -3   5  180.58   10.60
  -6  -3  -5  196.98    9.10
  -6  -3  -5  186.48    8.10
   6  -3   5  194.48    8.30
   6  -3   5  194.78    9.10
   6   3   5  198.78   12.30
  -6   3  -5  165.98   19.20
   6   3   5  179.08   16.10
  -6   3  -5  192.48    8.90
   7  -3   5   22.80    1.60
   7  -3   5   21.20    2.80
   7  -3   5   20.40    3.80
  -7  -3  -5   24.30    2.20
  -7   3  -5   19.00    2.90
  -7   3  -5   16.00    7.90
   7   3   5   21.30    5.30
   7  -4  -5   95.79    3.90
  -7  -4   5   81.39    4.50
   7  -4  -5   87.49    4.90
  -7  -4   5   78.69    5.20
   7   4  -5   75.19    4.80
   7   4  -5   69.99    5.80
   6  -4  -5  484.15   22.40
  -6  -4   5  537.85   21.10
   6  -4  -5  532.25   21.00
   6   4  -5  439.96   49.30
   6   4  -5  474.85   23.50
   6   4  -5  500.95   22.00
   6   4  -5  538.45   28.70
   5  -4  -5  751.52   31.50
   5  -4  -5  716.63   31.70
   5  -4  -5  731.63   30.80
  -5  -4   5  716.33   31.60
  -5  -4   5  693.63   30.80
  -5   4   5  773.22   43.80
   5   4  -5  751.72   32.30
   5   4  -5  788.82   39.60
   4  -4  -5   90.19   10.60
  -4  -4   5   95.29    5.40
   4  -4  -5   96.29    4.40
  -4  -4   5   83.29   14.00
   4  -4  -5  100.59    5.10
  -4  -4   5   88.09    4.50
  -4   4   5   95.09    6.60
   4   4  -5  117.59    6.80
  -3  -4   5  506.05   22.40
  -3  -4   5  486.55   28.90
   3  -4  -5  504.75   26.30
  -3  -4   5  514.85   21.80
   3  -4  -5  534.45   22.30
   3   4  -5  522.25   24.90
  -3   4   5  546.15   36.70
   3   4  -5  542.05   23.20
   3   4  -5  521.85   32.10
   2  -4  -5   76.19    3.90
   2  -4  -5   78.79    4.40
   2  -4  -5   79.49    8.40
  -2  -4   5   85.49    4.00
  -2  -4   5   81.59    4.60
  -2   4   5   89.19   16.10
   2   4  -5   92.59    6.80
   2   4  -5   87.69    8.40
   2   4  -5   84.99   13.00
   1  -4  -5  138.29   10.10
   1  -4  -5  135.89    6.20
  -1  -4   5  136.69    6.20
   1  -4  -5  141.09    6.70
  -1  -4   5  136.49    6.70
  -1   4   5  151.88   20.20
  -1   4   5  138.19   12.20
   1   4  -5  141.49   17.20
  -1   4   5  127.39   15.40
   0  -4  -5  472.95   19.50
   0  -4  -5  471.45   23.00
   0  -4   5  480.85   20.10
   0  -4   5  462.25   19.50
   0  -4  -5  475.25   20.10
   0   4  -5  420.56   32.60
   0   4  -5  509.05   23.80
   0   4   5  423.76   25.30
   0   4   5  469.95   37.10
  -1  -4  -5 1020.00   40.80
  -1  -4  -5 1008.60   40.20
   1  -4   5  986.70   40.80
   1  -4   5  922.21   40.20
  -1  -4  -5 1021.60   43.70
   1   4   5  941.11   59.59
  -1   4  -5  888.01   55.59
   1   4   5  980.30   46.70
  -2  -4  -5  291.87   12.60
  -2  -4  -5  277.77   16.00
   2  -4   5  275.37   12.60
   2  -4   5  288.47   13.20
  -2  -4  -5  289.87   13.20
   2   4   5  312.97   22.50
  -2   4  -5  304.87   27.70
   2   4   5  321.57   29.70
  -3  -4  -5   88.79    9.40
   3  -4   5   97.89    5.20
  -3  -4  -5   95.19    4.40
   3  -4   5   88.19    4.40
  -3  -4  -5   96.99    5.00
   3   4   5   91.39   17.50
   3   4   5  101.39   11.20
  -3   4  -5   90.29   16.50
   3   4   5   88.99   13.00
  -4  -4  -5   33.80    2.70
  -4  -4  -5   32.20    2.00
   4  -4   5   32.50    2.10
   4  -4   5   33.70    2.90
   4   4   5   39.70   14.70
   4   4   5   36.00   14.60
  -4   4  -5   36.20   12.50
  -5  -4  -5  295.07   12.70
   5  -4   5  296.77   12.80
  -5  -4  -5  274.17   11.90
   5  -4   5  292.37   12.00
   5   4   5  263.37   19.90
   5   4   5  295.37   17.20
  -5   4  -5  239.58   23.00
   6  -4   5  379.96   15.50
   6  -4   5  364.96   16.20
  -6  -4  -5  327.57   16.10
  -6  -4  -5  365.96   15.40
   6   4   5  420.16   20.00
  -6   4  -5  348.67   26.60
  -6  -5   5  157.78    7.30
  -6  -5   5  158.18    6.90
   6  -5  -5  174.18    6.90
   6   5  -5  140.69   22.90
   5  -5  -5   35.70    3.00
  -5  -5   5   36.10    3.30
  -5  -5   5   35.40    2.20
   5   5  -5   25.20   17.40
   5   5  -5   41.30    7.10
   4  -5  -5  131.59    7.10
   4  -5  -5  133.89    6.00
  -4  -5   5  132.79    6.80
   4  -5  -5  127.59    6.60
  -4  -5   5  127.29    6.10
  -4   5   5  143.49   15.00
   4   5  -5  149.99   12.80
  -3  -5   5  384.66   17.70
   3  -5  -5  395.66   16.90
  -3  -5   5  389.86   17.00
   3  -5  -5  397.86   17.50
   3   5  -5  408.46   25.50
  -3   5   5  442.56   29.60
  -2  -5   5  252.07   11.00
   2  -5  -5  255.17   11.40
  -2  -5   5  253.27   11.60
   2  -5  -5  247.38   10.90
   2   5  -5  251.77   20.20
  -2   5   5  272.67   24.60
   1  -5  -5  420.46   18.40
  -1  -5   5  421.56   18.00
  -1  -5   5  427.26   18.50
   1  -5  -5  416.86   17.90
   1   5  -5  422.76   29.40
  -1   5   5  456.65   34.30
   0  -5   5  312.17   13.90
   0  -5   5  305.87   13.40
   0  -5  -5  309.07   13.30
   0  -5  -5  317.37   13.90
   0   5  -5  314.47   25.30
   0   5   5  329.57   29.50
  -1  -5  -5   80.69    4.00
  -1  -5  -5   91.49    4.60
   1  -5   5   86.89    4.70
   1  -5   5   81.89    4.10
   1   5   5   85.19   15.90
   1   5   5   84.09   11.00
  -1   5  -5   79.89   13.80
   2  -5   5  274.37   12.10
  -2  -5  -5  282.07   12.00
  -2  -5  -5  287.17   12.60
   2  -5   5  292.07   12.70
   2   5   5  277.07   25.70
   2   5   5  284.87   18.00
   3  -5   5  244.38   10.70
   3  -5   5  241.38   11.30
  -3  -5  -5  248.88   10.70
  -3  -5  -5  237.88   11.60
   3   5   5  270.27   23.70
  -3   5  -5  254.27   22.50
   3   5   5  236.08   21.20
   3   5   5  269.57   17.30
   4  -5   5  394.66   17.70
  -4  -5  -5  422.76   17.70
  -4  -5  -5  425.46   17.10
  -4   5  -5  408.86   29.10
   4   5   5  418.36   28.20
   4   5   5  348.57   26.30
   4   5   5  436.66   22.70
  -5  -5  -5   51.59    2.50
  -5  -5  -5   49.40    3.70
   5  -5   5   50.89    2.70
   3  -6  -5   37.50    2.50
  -3  -6   5   34.50    2.80
   3   6  -5   24.60   16.20
  -3   6   5   27.20    6.70
   3   6  -5   32.20    5.90
  -2  -6   5   15.80    1.90
   2  -6  -5   18.70    1.90
   2   6  -5   17.20    5.30
   1  -6  -5   85.89    5.20
  -1   6   5  100.59   12.70
   1   6  -5  101.49   10.50
   0  -6  -5  277.77   12.70
   0  -6  -5  267.37   13.20
   0   6  -5  333.47   21.40
   0   6   5  334.67   24.00
  -1  -6  -5  314.17   12.90
  -1  -6  -5  298.47   13.50
   1   6   5  303.47   23.10
  -1   6  -5  313.67   21.50
  -2  -6  -5  232.08   10.90
  -2   6  -5  286.87   19.70
   2   6   5  263.97   20.10
   9   0  -6  284.67   13.10
  -9   0   6  280.37   12.90
   9   0  -6  281.87   13.20
   8   0  -6  227.28   11.50
   8   0  -6  231.88   11.60
  -8   0   6  228.58   11.00
  -8   0   6  230.08   11.30
  -7   0   6  546.55   24.30
   7   0  -6  540.05   24.70
   7   0  -6  567.34   24.70
  -7   0   6  555.04   23.70
  -7   0   6  491.05   34.00
  -6   0   6  731.43   31.40
  -6   0   6  736.43   40.50
   6   0  -6  751.22   32.50
   6   0  -6  652.43   31.20
   6   0  -6  800.02   32.80
  -6   0   6  742.43   32.30
   6   0  -6  722.43   33.90
   5   0  -6  297.57   15.50
   5   0  -6  296.37   14.40
  -5   0   6  283.67   20.20
   5   0  -6  295.57   14.60
   5   0  -6  280.37   12.40
  -4   0   6  359.16   22.60
   4   0  -6  374.36   15.60
  -4   0   6  377.26   15.60
   4   0  -6  372.76   18.00
   4   0  -6  364.16   16.40
  -4   0   6  364.76   16.50
   4   0  -6  369.36   17.10
  -3   0   6  417.66   17.80
   3   0  -6  400.16   19.10
  -3   0   6  413.06   17.10
   3   0  -6  398.06   18.90
   3   0  -6  412.96   18.40
   3   0  -6  409.56   17.80
  -3   0   6  392.76   23.40
   3   0  -6  411.46   17.10
   3   0  -6  411.06   18.90
  -2   0   6  393.66   23.30
   2   0  -6  441.26   18.30
   2   0  -6  429.26   17.70
   2   0  -6  425.96   19.20
   2   0  -6  400.76   19.30
  -2   0   6  432.36   18.30
   2   0  -6  401.96   19.30
  -2   0   6  444.36   17.60
   1   0  -6 1318.07   54.39
   1   0  -6 1235.68   54.09
  -1   0   6 1299.37   53.39
  -1   0   6 1305.17   52.79
   1   0  -6 1325.57   52.89
   1   0  -6 1325.77   53.39
   1   0  -6 1171.88   54.09
   0   0  -6 1067.59   44.90
   0   0   6 1027.90   43.80
   0   0  -6 1010.00   44.60
   0   0  -6 1029.10   44.50
   0   0  -6 1082.79   43.80
   0   0   6 1079.59   43.30
   0   0   6  997.80   47.20
   0   0  -6 1097.49   43.30
  -1   0  -6  229.08   10.80
   1   0   6  250.37   10.20
   1   0   6  248.28   10.80
  -1   0  -6  242.58   12.00
  -1   0  -6  240.98   11.80
   1   0   6  225.78   14.60
  -1   0  -6  233.38   11.40
  -2   0  -6   54.39    4.90
   2   0   6   58.19    2.90
   2   0   6   50.99    7.50
  -2   0  -6   55.29    6.70
   2   0   6   60.49    3.70
  -2   0  -6   55.69    4.50
  -2   0  -6   63.29    3.40
  -2   0  -6   56.39    5.00
   3   0   6 1175.68   48.00
  -3   0  -6 1118.69   49.30
  -3   0  -6 1185.08   50.59
   3   0   6 1192.58   48.70
  -3   0  -6 1163.18   49.60
  -3   0  -6 1132.09   49.40
  -4   0  -6  912.91   38.80
  -4   0  -6  892.81   39.20
   4   0   6  879.21   41.40
   4   0   6  958.60   43.00
   4   0   6  939.01   38.60
   4   0   6  951.40   37.70
  -4   0  -6  900.01   40.70
  -4   0  -6  845.32   39.10
   5   0   6  367.46   19.20
   5   0   6  347.67   20.90
  -5   0  -6  343.07   16.80
   5   0   6  353.36   16.10
   5   0   6  368.26   15.20
  -5   0  -6  358.36   19.00
  -5   0  -6  372.26   16.80
  -5   0  -6  353.66   16.70
   6   0   6  241.98   10.30
   6   0   6  244.78   14.40
  -6   0  -6  234.58   12.10
  -6   0  -6  237.28   11.90
  -7   0  -6   52.49    4.00
  -7   0  -6   57.49    4.60
   7   0   6   57.89    5.80
  -8   0  -6   29.10    3.50
   8   0   6   36.20    4.30
  -8   0  -6   36.10    2.90
  -9  -1   6  157.58    8.80
  -9  -1   6  158.88    8.50
   9  -1  -6  159.08    9.10
   9   1  -6  204.68    9.00
  -9   1   6  199.68    8.70
   9   1  -6  201.18    9.10
   8  -1  -6  305.27   14.30
  -8  -1   6  315.47   14.40
   8  -1  -6  308.37   14.90
  -8  -1   6  297.27   13.70
   8   1  -6  301.87   14.60
   8   1  -6  286.17   14.20
  -8   1   6  293.17   14.00
  -7  -1   6    5.10    1.80
   7  -1  -6    5.10    2.30
   7  -1  -6    6.20    2.60
   7  -1  -6    6.80    5.50
  -7  -1   6    7.00    2.70
   7  -1  -6    4.80    1.00
  -7   1   6    6.80    2.20
   7   1  -6    4.10    2.30
   7   1  -6    5.90    2.80
   6  -1  -6  406.76   19.80
  -6  -1   6  389.76   26.10
   6  -1  -6  405.76   18.10
  -6  -1   6  396.76   19.20
   6  -1  -6  401.46   17.20
  -6  -1   6  409.36   19.40
   6  -1  -6  396.96   18.90
  -6  -1   6  408.96   17.20
   6   1  -6  412.86   19.70
   6   1  -6  411.26   19.70
   6   1  -6  436.66   19.40
   5  -1  -6  563.44   26.60
   5  -1  -6  593.74   28.20
  -5  -1   6  571.34   33.10
  -5  -1   6  581.74   25.00
   5  -1  -6  586.94   24.30
   5  -1  -6  599.54   25.70
  -5  -1   6  593.34   24.30
   5  -1  -6  587.34   25.00
   5   1  -6  609.34   26.60
   5   1  -6  568.14   26.10
   5   1  -6  563.14   26.60
  -5   1   6  543.35   34.20
  -4  -1   6 1404.66   56.99
   4  -1  -6 1405.96   56.89
  -4  -1   6 1350.26   64.19
   4  -1  -6 1322.57   58.69
   4  -1  -6 1418.06   59.99
   4  -1  -6 1400.06   58.09
   4  -1  -6 1386.26   57.59
   4  -1  -6 1343.57   58.89
  -4  -1   6 1401.06   57.69
  -4   1   6 1331.57   65.49
   4   1  -6 1434.96   58.99
   4   1  -6 1394.76   58.59
   4   1  -6 1360.86   59.09
   4   1  -6 1369.06   64.29
  -3  -1   6  586.74   23.80
  -3  -1   6  582.04   24.50
  -3  -1   6  579.04   30.10
   3  -1  -6  590.04   26.60
   3  -1  -6  571.14   24.40
   3  -1  -6  586.84   23.80
   3  -1  -6  555.34   25.50
   3  -1  -6  548.25   26.00
   3   1  -6  537.95   26.10
   3   1  -6  571.64   25.90
   3   1  -6  573.54   25.50
   3   1  -6  578.84   31.90
   2  -1  -6  136.59    8.40
  -2  -1   6  141.39    6.20
  -2  -1   6  139.09    6.80
   2  -1  -6  136.49    6.70
   2  -1  -6  122.29    7.90
   2  -1  -6  138.89    6.20
   2  -1  -6  130.29    9.40
  -2  -1   6  129.09   10.70
   2   1  -6  167.68    9.30
  -2   1   6  155.28   12.10
   2   1  -6  153.78    8.00
   2   1  -6  164.48    9.20
   1  -1  -6   15.60    1.30
   1  -1  -6   15.00    1.80
   1  -1  -6   11.00    2.10
   1  -1  -6   15.10    3.10
  -1  -1   6   16.30    1.30
  -1  -1   6   15.70    5.20
  -1  -1   6   15.30    1.80
   1   1  -6   21.00    4.70
   1   1  -6   18.30    3.60
   1   1  -6   19.60    3.60
   0  -1  -6  611.24   28.40
   0  -1   6  657.93   27.30
   0  -1  -6  618.24   27.60
   0  -1  -6  651.43   26.60
   0  -1  -6  646.64   27.10
   0  -1  -6  644.74   28.70
   0  -1   6  651.33   26.70
   0   1   6  601.24   30.60
   0   1  -6  611.74   27.80
   0   1   6  663.33   38.30
   0   1  -6  684.13   28.40
   0   1  -6  660.03   28.60
   1  -1   6 1656.73   69.39
  -1  -1  -6 1665.53   70.89
  -1  -1  -6 1718.03   71.49
   1  -1   6 1676.83   69.99
  -1  -1  -6 1665.73   69.29
  -1   1  -6 1593.64   70.49
   1   1   6 1640.54   72.99
  -1   1  -6 1730.03   71.39
  -1   1  -6 1830.82   71.19
  -2  -1  -6  791.52   32.30
   2  -1   6  780.92   31.80
   2  -1   6  792.52   32.50
  -2  -1  -6  789.32   33.50
  -2  -1  -6  781.62   31.70
   2  -1   6  743.33   35.40
  -2  -1  -6  766.42   34.00
  -2   1  -6  744.33   33.00
   2   1   6  722.13   35.50
  -2   1  -6  784.72   33.60
  -2   1  -6  724.23   34.10
   3  -1   6  321.47   14.80
   3  -1   6  324.07   14.10
  -3  -1  -6  319.77   16.50
  -3  -1  -6  329.17   14.00
  -3  -1  -6  304.47   16.20
  -3  -1  -6  316.27   14.60
  -3   1  -6  365.96   16.40
   3   1   6  344.67   19.50
  -3   1  -6  304.87   30.30
  -3   1  -6  347.97   17.40
  -3   1  -6  357.76   15.60
   3   1   6  342.57   18.30
  -3   1  -6  335.77   15.90
   4  -1   6   72.69    7.30
   4  -1   6   76.89    4.50
  -4  -1  -6   79.29    6.10
  -4  -1  -6   78.39    5.50
  -4  -1  -6   75.69    7.00
  -4  -1  -6   78.09    3.80
   4  -1   6   74.29    3.80
  -4   1  -6   74.59    8.10
  -4   1  -6   83.19    5.50
  -4   1  -6   76.39    6.20
   4   1   6   75.09    8.80
  -4   1  -6   67.19   19.10
  -4   1  -6   92.09    8.50
   4   1   6   75.19    8.10
   5  -1   6   15.70    2.60
  -5  -1  -6   17.60    4.80
   5  -1   6   17.00    5.10
  -5  -1  -6   25.90    4.50
   5  -1   6   18.10    1.70
  -5  -1  -6   20.20    4.00
  -5   1  -6   17.20   11.00
   5   1   6   16.60    6.40
   5   1   6   23.60    6.20
  -5   1  -6   20.60    3.50
  -5   1  -6   16.40    3.30
  -6  -1  -6  325.67   20.70
  -6  -1  -6  298.37   13.20
   6  -1   6  299.47   13.20
   6  -1   6  283.67   15.50
  -6  -1  -6  292.77   13.80
   6  -1   6  300.17   12.10
   6   1   6  273.77   16.30
  -6   1  -6  239.68   25.20
  -6   1  -6  263.97   13.70
   6   1   6  256.67   20.20
  -6   1  -6  278.47   13.50
   7  -1   6  702.73   32.60
   7  -1   6  737.03   29.70
  -7  -1  -6  697.53   30.80
  -7  -1  -6  707.83   31.00
   7   1   6  742.43   33.40
  -7   1  -6  741.73   30.90
  -7   1  -6  731.33   31.00
  -7   1  -6  659.13   41.50
  -8  -1  -6  515.35   23.70
   8  -1   6  535.25   25.10
  -8   1  -6  561.84   23.60
   8   1   6  569.24   25.60
  -8   1  -6  565.14   23.70
   8  -2  -6  276.57   13.20
  -8  -2   6  298.87   14.00
   8  -2  -6  277.67   11.80
  -8  -2   6  271.47   12.60
   8   2  -6  266.27   13.50
   8   2  -6  271.77   13.10
  -8   2   6  282.97   12.80
   7  -2  -6  612.34   25.40
  -7  -2   6  553.14   25.50
  -7  -2   6  578.64   24.50
   7  -2  -6  588.34   24.50
  -7  -2   6  570.14   26.50
   7  -2  -6  583.54   25.80
   7   2  -6  612.74   28.20
   7   2  -6  598.84   28.20
   6  -2  -6  378.56   23.10
   6  -2  -6  401.06   18.20
  -6  -2   6  395.36   16.70
   6  -2  -6  396.56   17.50
   6  -2  -6  403.26   16.70
  -6  -2   6  385.66   26.20
  -6  -2   6  412.76   17.70
   6   2  -6  404.16   18.70
   6   2  -6  386.16   19.10
  -6   2   6  390.46   18.20
   6   2  -6  386.06   19.50
   5  -2  -6  129.39    6.00
   5  -2  -6  125.29   11.20
   5  -2  -6  132.39    6.80
  -5  -2   6  130.99    6.10
  -5  -2   6  127.49   13.20
   5  -2  -6  128.89    7.40
  -5  -2   6  134.79    6.90
   5   2  -6  135.49   13.20
   5   2  -6  134.79    8.10
   5   2  -6  140.79    9.20
   5   2  -6  130.49    9.40
   4  -2  -6  115.79    5.20
   4  -2  -6  110.89    9.40
  -4  -2   6  116.49    5.30
   4  -2  -6  114.89    5.80
  -4  -2   6  107.79   11.30
  -4  -2   6  112.19    5.80
   4   2  -6  112.39    9.30
  -4   2   6  118.09   15.50
   4   2  -6  112.09    8.50
   4   2  -6  113.69   12.20
   4   2  -6  110.49    7.20
   3  -2  -6   74.19    3.70
  -3  -2   6   78.99    4.40
   3  -2  -6   81.59    7.10
  -3  -2   6   77.29    3.70
   3  -2  -6   77.09    4.30
  -3  -2   6   71.29    8.80
   3  -2  -6   77.19    7.10
  -3   2   6   61.79   13.20
   3   2  -6   72.29    5.70
   3   2  -6   65.19    8.60
   3   2  -6   84.19   11.50
   3   2  -6   72.49    7.30
  -3   2   6   85.49   13.80
  -2  -2   6 1685.53   69.79
   2  -2  -6 1698.63   69.69
  -2  -2   6 1585.34   74.69
   2  -2  -6 1689.83   69.09
   2  -2  -6 1630.24   71.99
   2  -2  -6 1664.83   70.29
  -2  -2   6 1677.93   69.19
   2   2  -6 1713.23   71.79
  -2   2   6 1686.83   86.69
   2   2  -6 1770.02   79.99
   1  -2  -6  544.05   23.20
  -1  -2   6  498.45   27.00
  -1  -2   6  543.75   22.10
   1  -2  -6  559.34   22.10
   1  -2  -6  543.85   24.80
   1  -2  -6  547.55   22.60
  -1  -2   6  530.45   22.70
  -1   2   6  500.95   26.50
   1   2  -6  497.45   25.00
   1   2  -6  517.25   23.50
  -1   2   6  576.74   35.40
  -1   2   6  538.25   28.80
   1   2  -6  489.25   33.00
   0  -2  -6  733.83   30.00
   0  -2   6  730.03   30.00
   0  -2  -6  739.03   30.60
   0  -2   6  698.43   30.60
   0  -2  -6  723.33   32.50
   0   2   6  778.72   44.20
   0   2   6  701.53   34.40
   0   2  -6  658.33   42.30
   0   2   6  758.32   36.90
   0   2  -6  712.63   33.00
  -1  -2  -6  217.08    9.20
  -1  -2  -6  213.08    9.70
  -1  -2  -6  216.48   11.70
   1  -2   6  205.48    9.20
   1  -2   6  209.98    9.80
   1   2   6  198.98   14.90
   1   2   6  222.68   21.90
   1   2   6  228.18   15.50
  -1   2  -6  203.38   22.70
  -1   2  -6  207.58   13.30
   2  -2   6   23.20    2.40
  -2  -2  -6   23.50    1.70
  -2  -2  -6   33.10    6.10
  -2  -2  -6   20.20    4.10
   2  -2   6   21.70    1.80
  -2  -2  -6   23.40    2.20
   2   2   6   23.20   14.60
  -2   2  -6   29.10    6.40
   2   2   6   31.00    7.20
   2   2   6   26.80    6.40
  -2   2  -6   27.20    3.30
  -2   2  -6   24.00   14.30
  -3  -2  -6 1464.05   61.29
  -3  -2  -6 1427.16   58.29
   3  -2   6 1456.65   59.09
   3  -2   6 1410.26   58.29
   3  -2   6 1348.37   62.39
  -3  -2  -6 1418.86   58.89
  -3  -2  -6 1406.76   60.29
  -3   2  -6 1291.47   74.19
  -3   2  -6 1488.95   59.99
   3   2   6 1404.66   62.69
  -3   2  -6 1412.96   59.39
   3   2   6 1427.26   65.39
  -4  -2  -6  399.86   16.30
   4  -2   6  391.96   17.20
  -4  -2  -6  368.86   18.50
   4  -2   6  389.36   16.40
  -4  -2  -6  390.16   19.70
  -4  -2  -6  387.66   17.00
   4  -2   6  372.26   19.60
   4   2   6  389.16   20.90
  -4   2  -6  394.06   17.60
  -4   2  -6  397.06   18.20
   4   2   6  392.46   23.30
  -4   2  -6  362.96   31.60
   5  -2   6  661.73   27.60
  -5  -2  -6  643.84   26.60
  -5  -2  -6  620.64   27.30
   5  -2   6  617.24   29.70
  -5  -2  -6  645.44   28.60
  -5  -2  -6  609.84   30.30
   5  -2   6  649.64   26.70
   5   2   6  657.83   31.40
  -5   2  -6  671.73   27.90
  -5   2  -6  684.23   28.60
   5   2   6  626.54   33.70
  -5   2  -6  583.74   42.20
  -6  -2  -6   79.39    5.70
   6  -2   6   85.29    4.90
   6  -2   6   82.09    3.80
   6  -2   6   75.59    6.20
  -6   2  -6   64.39   12.40
   6   2   6   75.19   13.60
   7  -2   6   50.49    5.10
   7  -2   6   46.00    4.40
   7  -2   6   48.00    2.60
  -7  -2  -6   52.99    4.10
  -7  -2  -6   49.99    4.40
  -7   2  -6   54.49    4.00
   7   2   6   53.49    5.60
  -7   2  -6   53.99    3.40
  -7   2  -6   50.49   11.00
  -8  -3   6   87.39    4.50
   8  -3  -6   81.29    3.90
   8   3  -6   85.79    5.30
   8   3  -6   71.59   15.70
   8   3  -6   88.29    4.70
   7  -3  -6   23.10    1.60
   7  -3  -6   17.50    2.90
   7  -3  -6   24.60    4.20
  -7  -3   6   23.40    2.40
  -7  -3   6   23.40    1.80
  -7  -3   6   28.00    4.30
  -7   3   6   19.90    2.60
   7   3  -6   20.80    3.90
   7   3  -6   23.80    3.00
  -6  -3   6   38.40    3.50
   6  -3  -6   36.90    2.30
  -6  -3   6   39.50    2.40
   6  -3  -6   42.90    3.50
   6  -3  -6   40.20    3.20
  -6   3   6   38.70    4.20
   6   3  -6   40.90    5.70
   5  -3  -6  561.94   24.50
   5  -3  -6  539.85   29.10
   5  -3  -6  553.94   24.80
  -5  -3   6  557.24   23.80
   5  -3  -6  560.14   23.70
  -5  -3   6  562.34   24.70
  -5  -3   6  495.45   32.20
   5   3  -6  578.44   26.50
   5   3  -6  605.44   25.60
   5   3  -6  561.34   27.20
  -5   3   6  591.64   25.10
   5   3  -6  643.24   32.70
  -4  -3   6 1299.77   51.89
   4  -3  -6 1250.97   50.99
   4  -3  -6 1255.27   51.69
  -4  -3   6 1241.28   51.09
  -4  -3   6 1160.08   58.59
   4  -3  -6 1265.17   55.69
  -4   3   6 1248.78   65.69
   4   3  -6 1262.77   60.29
   4   3  -6 1165.58   52.59
   4   3  -6 1199.58   53.99
   3  -3  -6  646.64   27.10
   3  -3  -6  635.34   31.10
  -3  -3   6  656.43   27.10
   3  -3  -6  642.94   27.70
  -3  -3   6  630.64   27.80
   3   3  -6  661.53   36.90
   3   3  -6  625.04   30.20
   3   3  -6  621.24   28.60
  -3   3   6  724.23   42.20
  -2  -3   6   75.19   10.60
  -2  -3   6   82.29    4.60
  -2  -3   6   80.09    4.10
   2  -3  -6   80.69    7.60
   2  -3  -6   82.59    6.30
   2  -3  -6   86.09    4.10
   2   3  -6   99.19   13.20
  -2   3   6   85.59   13.40
   2   3  -6   99.19    6.40
   2   3  -6  100.99    8.50
  -2   3   6  100.19    9.70
   2   3  -6   66.19   13.20
  -1  -3   6   67.99    3.30
   1  -3  -6   68.09    3.30
   1  -3  -6   66.49    6.60
   1  -3  -6   64.39    4.80
   1  -3  -6   69.79    3.80
  -1  -3   6   68.09    3.80
  -1   3   6   67.79    8.80
   1   3  -6   66.89    5.50
   1   3  -6   64.79   12.70
  -1   3   6   70.89   13.50
  -1   3   6   52.49   11.50
   0  -3  -6  404.66   17.60
   0  -3   6  400.06   17.70
   0  -3   6  418.16   17.10
   0  -3  -6  400.46   20.10
   0  -3  -6  393.96   17.00
   0   3   6  433.06   32.10
   0   3  -6  381.66   29.60
   0   3   6  410.76   22.30
   0   3  -6  401.66   18.40
  -1  -3  -6  523.35   22.30
   1  -3   6  519.45   22.30
  -1  -3  -6  523.05   24.80
  -1  -3  -6  527.95   21.70
   1  -3   6  511.65   21.70
  -1   3  -6  550.34   23.00
   1   3   6  436.96   29.60
  -1   3  -6  494.65   35.70
   1   3   6  557.04   37.60
   1   3   6  532.15   27.00
  -2  -3  -6  534.85   23.10
   2  -3   6  522.95   23.20
  -2  -3  -6  528.95   22.50
  -2  -3  -6  540.35   25.60
   2  -3   6  536.55   22.50
  -2   3  -6  500.25   37.10
   2   3   6  541.75   37.60
   2   3   6  545.35   31.20
  -2   3  -6  578.14   23.70
   2   3   6  543.15   27.80
   3  -3   6  646.84   26.50
  -3  -3  -6  631.14   25.60
  -3  -3  -6  618.54   26.30
  -3  -3  -6  625.94   29.10
   3  -3   6  636.84   25.70
   3   3   6  632.84   30.90
  -3   3  -6  540.35   40.50
   3   3   6  609.94   34.20
   3   3   6  579.54   39.80
  -3   3  -6  615.84   26.60
   4  -3   6   47.70    2.60
   4  -3   6   42.30    3.30
  -4  -3  -6   44.30    7.60
  -4  -3  -6   45.00    2.40
  -4  -3  -6   44.90    3.20
   4   3   6   54.89   10.30
   4   3   6   51.59    7.70
  -4   3  -6   49.90    4.30
  -4   3  -6   38.90   13.60
   5  -3   6  203.68    8.40
  -5  -3  -6  188.08    9.10
  -5  -3  -6  196.88    8.30
   5  -3   6  204.98    9.30
   5   3   6  184.38   16.30
  -5   3  -6  195.78    9.10
  -5   3  -6  159.78   25.80
   5   3   6  191.18   15.90
   6  -3   6  138.29    9.70
  -6  -3  -6  162.98    6.70
   6  -3   6  152.48    7.70
   6  -3   6  148.89    6.70
  -6   3  -6  164.48    7.30
  -6   3  -6  140.89   16.20
   6   3   6  156.88   10.40
  -7  -3  -6  363.16   15.20
   7  -3   6  336.17   14.70
  -7   3  -6  321.47   22.80
   7   3   6  382.36   17.70
   7  -4  -6  315.87   13.20
   7   4  -6  311.67   31.10
   6  -4  -6  259.47   10.50
  -6  -4   6  255.47   10.60
  -6  -4   6  242.38   11.40
   6  -4  -6  270.67   11.80
   6  -4  -6  252.97   11.30
   6   4  -6  231.68   12.60
   6   4  -6  233.88   11.20
   6   4  -6  215.38   31.40
   5  -4  -6   48.20    4.00
   5  -4  -6   55.49    2.90
   5  -4  -6   61.69    3.80
  -5  -4   6   58.79    3.00
  -5  -4   6   59.79    4.00
   5   4  -6   51.29   20.70
   5   4  -6   48.60    6.40
   5   4  -6   65.09    8.40
   5   4  -6   58.49    4.70
   4  -4  -6   48.20    2.60
  -4  -4   6   49.30    3.50
  -4  -4   6   47.90    2.70
   4  -4  -6   47.80    3.30
   4   4  -6   57.29    8.90
  -4   4   6   54.89   11.20
   4   4  -6   36.20   25.50
   4   4  -6   49.10    5.80
   4   4  -6   36.10    6.00
  -4   4   6   42.60    4.80
  -3  -4   6   55.19    3.00
  -3  -4   6   57.99    3.70
   3  -4  -6   57.19    3.60
   3  -4  -6   48.50    9.40
   3  -4  -6   58.39    3.00
   3   4  -6   51.79   10.00
   3   4  -6   49.80    7.00
   3   4  -6   58.09    6.00
  -3   4   6   65.59   12.70
   3   4  -6   43.50   29.10
   3   4  -6   61.79   10.30
   2  -4  -6  546.65   27.80
   2  -4  -6  599.84   23.60
  -2  -4   6  561.54   23.60
   2  -4  -6  594.34   24.30
  -2  -4   6  575.34   24.30
  -2   4   6  621.24   39.20
   2   4  -6  485.85   24.90
   2   4  -6  516.35   27.30
   2   4  -6  579.94   34.70
  -1  -4   6  644.24   27.30
  -1  -4   6  637.34   26.70
   1  -4  -6  671.73   27.30
   1  -4  -6  654.23   26.70
   1  -4  -6  649.93   27.80
   1  -4  -6  630.64   30.60
   1   4  -6  646.24   39.10
  -1   4   6  638.14   32.40
  -1   4   6  669.33   42.80
  -1   4   6  561.84   36.70
   0  -4   6  445.46   19.40
   0  -4  -6  471.95   20.10
   0  -4  -6  436.46   23.10
   0  -4  -6  455.05   19.40
   0  -4   6  451.85   20.00
   0   4  -6  474.45   32.70
   0   4  -6  384.16   23.80
   0   4   6  527.55   36.30
   0   4   6  514.15   25.80
   1  -4   6  167.58    7.80
   1  -4   6  161.68    7.10
  -1  -4  -6  161.88   11.60
  -1  -4  -6  177.98    7.80
  -1  -4  -6  171.78    7.10
   1   4   6  152.48   12.90
  -1   4  -6  149.09   14.40
  -1   4  -6  140.39   18.00
   1   4   6  154.78   19.70
  -2  -4  -6   93.69    4.90
  -2  -4  -6   91.79    4.30
   2  -4   6   92.59    4.30
  -2  -4  -6   85.79    9.40
   2  -4   6   93.89    5.00
  -2   4  -6   86.49   15.20
   2   4   6   90.39   15.30
   2   4   6   79.79   14.30
   2   4   6   92.49    9.80
   3  -4   6  264.97   10.90
  -3  -4  -6  260.87   10.80
  -3  -4  -6  265.87   11.50
   3  -4   6  271.97   11.70
   3   4   6  232.68   21.90
   3   4   6  233.98   20.20
   3   4   6  258.77   16.20
  -3   4  -6  228.48   23.00
  -4  -4  -6  407.26   17.30
   4  -4   6  417.96   16.70
   4  -4   6  426.66   17.50
  -4  -4  -6  406.26   16.70
  -4   4  -6  356.86   28.20
   4   4   6  350.86   24.90
   4   4   6  403.76   21.20
   5  -4   6  394.26   17.60
   5  -4   6  396.86   16.90
  -5  -4  -6  403.86   16.80
  -5  -4  -6  394.36   17.60
   5   4   6  455.95   21.10
  -5   4  -6  374.26   27.40
  -6  -4  -6   99.89    4.80
   6  -4   6  108.99    4.80
   6   4   6  125.39    9.30
  -6   4  -6   97.99   11.50
   5  -5  -6  259.57   10.80
  -5  -5   6  242.08   11.70
   5  -5  -6  254.57   11.70
  -5  -5   6  255.67   10.90
   5   5  -6  248.48   29.20
   5   5  -6  268.27   15.90
   4  -5  -6  455.15   18.30
  -4  -5   6  436.66   18.40
   4  -5  -6  439.96   19.00
   4  -5  -6  449.56   19.00
  -4  -5   6  421.96   19.10
  -4   5   6  441.66   27.60
   4   5  -6  472.25   24.90
   4   5  -6  387.46   40.50
   3  -5  -6  305.07   12.50
  -3  -5   6  301.77   13.30
   3  -5  -6  294.97   13.00
  -3  -5   6  299.57   12.60
  -3   5   6  308.27   22.70
   3   5  -6  250.27   33.30
   3   5  -6  300.07   19.40
  -2  -5   6   65.19    3.50
  -2  -5   6   64.29    4.30
  -2   5   6   81.19   12.00
   2   5  -6   67.89   23.50
   2   5  -6   83.09    9.90
  -1  -5   6  108.29    6.90
  -1  -5   6  110.09    5.20
   1  -5  -6  117.59    5.20
   1  -5  -6  113.89    5.80
   1   5  -6  115.79   12.10
  -1   5   6  124.79   14.80
   0  -5  -6  125.79    7.00
   0  -5   6  126.69    5.90
   0  -5  -6  134.39    6.50
   0  -5  -6  124.49    5.80
   0   5   6  145.89   16.40
   0   5  -6  132.99   13.80
   0   5   6  143.99   34.50
  -1  -5  -6  277.27   11.30
   1  -5   6  265.37   11.90
   1  -5   6  260.37   11.30
  -1   5  -6  254.77   20.90
   1   5   6  294.27   16.90
   1   5   6  222.98   25.50
   1   5   6  275.47   23.20
   2  -5   6  276.77   12.20
   2  -5   6  281.47   12.80
  -2  -5  -6  300.77   12.20
  -2  -5  -6  300.87   12.80
  -2   5  -6  275.47   21.90
   2   5   6  292.67   23.00
   2   5   6  244.48   24.30
   2   5   6  323.77   17.50
   3  -5   6  166.18    8.20
   3  -5   6  157.28    7.80
  -3  -5  -6  183.88    7.60
  -3  -5  -6  178.58    8.30
   3   5   6  204.98   12.50
   3   5   6  175.88   15.90
  -3   5  -6  166.88   16.10
   4  -5   6   38.50    2.20
  -4  -5  -6   38.50    3.50
  -4  -5  -6   40.50    2.10
  -4   5  -6   38.90    7.90
  -8   0   7  158.28    8.00
   8   0  -7  152.88    8.20
   8   0  -7  151.38    8.20
   7   0  -7    7.90    2.10
  -7   0   7    9.90    1.90
   7   0  -7    6.70    2.00
  -7   0   7   11.50    2.80
   6   0  -7   -3.00    4.00
  -6   0   7    5.50    8.50
   6   0  -7    3.40    2.60
   6   0  -7    1.50    2.40
  -6   0   7    3.70    2.70
  -6   0   7   -0.40    2.00
   5   0  -7  330.57   16.70
  -5   0   7  308.87   23.60
   5   0  -7  338.27   16.00
   5   0  -7  336.57   16.10
   4   0  -7  477.25   21.40
   4   0  -7  465.35   21.80
  -4   0   7  467.05   35.80
   4   0  -7  461.75   21.00
   4   0  -7  432.36   19.40
  -4   0   7  471.45   19.90
   3   0  -7 1312.17   54.89
   3   0  -7 1332.87   56.89
  -3   0   7 1401.46   54.99
  -3   0   7 1293.07   55.69
  -3   0   7 1252.27   63.29
   3   0  -7 1393.86   56.29
   3   0  -7 1342.37   56.79
  -2   0   7 1349.56   49.80
   2   0  -7 1135.69   50.49
   2   0  -7 1141.39   48.90
   2   0  -7 1161.98   50.69
  -2   0   7 1259.17   49.00
   2   0  -7 1217.38   50.09
   2   0  -7 1039.30   50.59
  -1   0   7  101.19    5.30
   1   0  -7   92.69    6.60
  -1   0   7  100.49    4.50
   1   0  -7   92.29    6.40
   1   0  -7   95.49    4.70
   0   0  -7  138.69    6.80
   0   0  -7  141.19    8.00
   0   0   7  133.39   12.30
   0   0   7  142.99    7.00
   0   0   7  149.09    6.30
   0   0  -7  139.19    8.40
  -1   0  -7  265.37   13.10
   1   0   7  273.37   12.20
  -1   0  -7  272.77   13.80
   1   0   7  287.47   11.50
  -1   0  -7  261.07   12.90
   1   0   7  253.07   15.90
  -2   0  -7 1471.65   60.29
   2   0   7 1479.75   59.69
  -2   0  -7 1375.66   60.39
   2   0   7 1351.26   62.59
  -2   0  -7 1425.36   61.49
   2   0   7 1472.15   58.89
   3   0   7  261.87   12.10
  -3   0  -7  266.27   12.80
   3   0   7  269.67   11.30
  -3   0  -7  264.17   13.10
   3   0   7  251.57   15.50
  -3   0  -7  270.47   15.70
   4   0   7  334.87   15.60
  -4   0  -7  339.17   16.20
  -4   0  -7  360.46   16.20
   4   0   7  347.47   18.80
  -4   0  -7  334.57   18.30
   4   0   7  342.97   20.20
   4   0   7  354.46   14.60
   5   0   7  135.29   14.70
  -5   0  -7  150.28    8.60
  -5   0  -7  144.49    8.10
  -5   0  -7  145.49    8.40
   5   0   7  139.89    6.40
  -5   0  -7  132.79   12.00
   5   0   7  150.48   10.60
  -6   0  -7  496.15   22.10
   6   0   7  499.95   24.20
   7   0   7  176.48   10.30
  -7   0  -7  173.18    8.60
  -8  -1   7  353.96   15.60
  -8  -1   7  357.86   16.20
   8  -1  -7  366.56   18.60
   8  -1  -7  352.46   16.20
  -8   1   7  343.17   16.00
   8   1  -7  347.97   16.10
   8   1  -7  369.46   16.50
   7  -1  -7  486.35   21.70
  -7  -1   7  476.35   21.70
   7  -1  -7  481.25   22.10
  -7  -1   7  462.35   20.80
   7   1  -7  489.05   22.00
   7   1  -7  494.35   21.80
  -7   1   7  477.55   21.40
  -6  -1   7  511.15   23.40
   6  -1  -7  533.65   23.30
   6  -1  -7  519.65   23.80
   6  -1  -7  485.65   21.40
  -6  -1   7  447.16   32.00
   6   1  -7  522.95   23.80
   6   1  -7  542.25   23.90
   6   1  -7  544.95   23.60
   5  -1  -7  424.36   18.20
  -5  -1   7  425.86   27.90
   5  -1  -7  444.46   20.60
   5  -1  -7  442.46   19.70
  -5  -1   7  435.16   18.20
  -5  -1   7  433.66   19.20
   5  -1  -7  424.66   19.00
   5   1  -7  413.76   20.60
   5   1  -7  431.66   20.40
   5   1  -7  435.16   20.10
  -4  -1   7   62.69    4.20
  -4  -1   7   58.59   10.50
   4  -1  -7   63.09    3.40
   4  -1  -7   63.79    6.90
   4  -1  -7   64.59    8.60
   4  -1  -7   65.59    4.10
   4  -1  -7   67.69    7.20
  -4  -1   7   64.99    3.50
   4  -1  -7   66.69    5.00
   4   1  -7   83.29    7.00
   4   1  -7   72.09    5.70
   4   1  -7   74.79    6.20
  -3  -1   7  178.48    7.30
  -3  -1   7  155.28   14.20
   3  -1  -7  162.38    8.10
   3  -1  -7  166.58    9.60
   3  -1  -7  168.78   10.50
   3  -1  -7  174.08    7.30
   3  -1  -7  164.98   10.10
   3   1  -7  156.78    9.20
   3   1  -7  161.18    9.70
   3   1  -7  160.08   10.00
  -2  -1   7  237.48   18.10
  -2  -1   7  286.97   11.80
   2  -1  -7  265.67   11.70
  -2  -1   7  273.17   12.40
   2  -1  -7  252.67   13.30
   2  -1  -7  274.87   12.40
   2  -1  -7  239.78   15.00
   2  -1  -7  263.67   14.30
  -2   1   7  301.57   17.40
   2   1  -7  306.77   14.20
   2   1  -7  296.07   13.50
   2   1  -7  313.77   14.60
   1  -1  -7 1263.47   55.09
   1  -1  -7 1318.17   56.29
  -1  -1   7 1316.37   53.89
  -1  -1   7 1330.27   54.59
   1  -1  -7 1344.47   54.49
   1  -1  -7 1274.67   55.69
   1  -1  -7 1346.27   53.89
   1   1  -7 1278.87   55.59
   1   1  -7 1319.27   55.99
   1   1  -7 1274.57   55.29
   0  -1  -7  744.33   30.50
   0  -1  -7  737.43   31.70
   0  -1  -7  773.02   31.10
   0  -1  -7  730.63   32.90
   0  -1   7  764.82   30.50
   0  -1  -7  740.53   33.70
   0   1   7  687.13   35.00
   0   1  -7  755.72   32.60
   0   1   7  694.43   42.00
   0   1  -7  720.53   31.90
  -1  -1  -7  389.96   15.80
  -1  -1  -7  363.86   17.60
  -1  -1  -7  365.16   17.00
  -1  -1  -7  373.26   18.30
   1  -1   7  372.66   15.80
   1  -1   7  381.66   16.60
  -1  -1  -7  390.36   16.50
  -1   1  -7  386.16   17.90
  -1   1  -7  372.56   17.30
   1   1   7  351.06   20.10
  -2  -1  -7   28.30    2.00
  -2  -1  -7   21.40    4.60
  -2  -1  -7   27.40    3.20
  -2  -1  -7   22.40    4.50
  -2  -1  -7   31.00    3.30
   2  -1   7   26.50    2.40
   2  -1   7   26.30    1.90
   2  -1   7   29.10    8.70
   2   1   7   31.20    6.60
  -2   1  -7   32.10    3.80
  -2   1  -7   26.60    4.90
  -2   1  -7   31.20    6.70
  -3  -1  -7   22.60    4.40
  -3  -1  -7   23.80    5.40
  -3  -1  -7   20.00    2.20
  -3  -1  -7   24.20    3.30
   3  -1   7   25.70    1.90
   3  -1   7   24.70    2.60
   3  -1   7   26.80    7.00
   3   1   7   32.90    6.70
  -4  -1  -7  648.74   29.00
  -4  -1  -7  678.63   28.40
   4  -1   7  653.43   31.20
  -4  -1  -7  629.44   30.60
   4  -1   7  668.13   28.20
  -4   1  -7  663.33   29.40
  -4   1  -7  659.83   28.80
   4   1   7  650.23   31.90
   4   1   7  638.54   33.50
  -5  -1  -7  917.21   37.60
  -5  -1  -7  843.02   38.00
   5  -1   7  869.51   40.10
   5  -1   7  867.41   37.40
   5  -1   7  890.01   36.50
  -5   1  -7  866.51   37.80
   5   1   7  877.21   40.90
  -5   1  -7  875.11   37.90
   5   1   7  917.41   48.70
  -6  -1  -7  350.96   16.80
   6  -1   7  419.36   19.00
   6  -1   7  344.77   18.50
  -6  -1  -7  360.86   16.50
   6  -1   7  368.76   15.50
  -6   1  -7  369.96   16.70
   6   1   7  371.76   19.20
  -7  -1  -7   88.49    5.00
   7  -1   7   86.99    6.40
   7   1   7   86.29    6.60
  -7   1  -7   85.29    4.80
  -8  -2   7   78.99    4.20
   8   2  -7   68.39    4.40
  -8   2   7   69.39    4.10
   8   2  -7   69.09    4.80
  -7  -2   7   27.90    2.50
   7  -2  -7   24.80    5.10
   7  -2  -7   29.10    3.30
   7  -2  -7   24.90    1.90
   7   2  -7   18.60    3.00
  -7   2   7   22.60    2.70
   7   2  -7   21.30    3.90
  -6  -2   7   38.40    2.40
   6  -2  -7   39.90    3.60
   6  -2  -7   37.00    2.30
   6   2  -7   36.10    5.70
   6   2  -7   33.10    4.10
  -6   2   7   37.50    3.60
   6   2  -7   38.10    4.20
   5  -2  -7   93.89   13.10
  -5  -2   7  107.19   15.10
   5  -2  -7  119.39    6.00
   5  -2  -7  113.79    5.10
   5  -2  -7  115.69    6.70
  -5  -2   7  122.59    6.20
  -5  -2   7  113.99    5.10
   5   2  -7   92.89    8.20
   5   2  -7   97.19    8.10
   5   2  -7   95.99    7.10
   4  -2  -7  726.73   34.60
  -4  -2   7  724.43   30.50
   4  -2  -7  726.63   30.50
  -4  -2   7  666.53   38.90
  -4  -2   7  725.83   31.30
   4  -2  -7  728.53   31.20
   4   2  -7  747.23   32.30
   4   2  -7  729.33   33.20
   4   2  -7  751.82   33.30
   4   2  -7  803.42   38.80
   3  -2  -7  839.72   39.90
   3  -2  -7  875.81   39.10
  -3  -2   7  888.91   38.50
   3  -2  -7  885.81   41.90
  -3  -2   7  868.01   39.20
   3  -2  -7  919.21   38.50
   3   2  -7  997.60   41.60
   3   2  -7 1048.10   47.70
   3   2  -7  954.00   40.20
  -3   2   7  977.70   53.09
   3   2  -7  973.70   41.50
   2  -2  -7 1025.30   40.50
   2  -2  -7  998.50   41.10
  -2  -2   7  994.20   41.20
   2  -2  -7  955.60   41.80
  -2  -2   7  888.71   47.60
   2  -2  -7  983.50   43.70
  -2  -2   7  955.70   40.50
   2   2  -7  937.01   43.50
   2   2  -7 1022.90   50.39
  -2   2   7 1059.39   47.40
   2   2  -7  956.80   42.10
  -2   2   7  908.61   44.90
   2   2  -7  957.20   43.20
  -2   2   7 1048.50   55.09
  -1  -2   7   27.40    2.20
   1  -2  -7   25.80    2.20
   1  -2  -7   28.10    3.50
  -1  -2   7   26.80    1.90
   1  -2  -7   25.80    4.90
   1  -2  -7   25.70    1.80
   1   2  -7   24.10    3.70
   1   2  -7   23.10    4.50
  -1   2   7   32.00   10.50
  -1   2   7   23.20    6.90
   1   2  -7   30.00   11.60
  -1   2   7   36.60    7.80
   0  -2   7  117.49    5.40
   0  -2  -7  119.69    5.40
   0  -2  -7  110.89    6.60
   0  -2   7  111.89    5.90
   0  -2  -7  117.09    8.40
   0  -2  -7  113.29    5.90
   0   2  -7  119.99    9.10
   0   2   7  135.39   12.00
   0   2   7  109.39   10.20
   0   2  -7  122.69   17.60
   0   2   7  135.59   16.60
   0   2  -7  119.89    7.10
  -1  -2  -7  481.45   23.30
   1  -2   7  503.35   20.50
  -1  -2  -7  499.25   20.40
  -1  -2  -7  480.25   21.50
  -1  -2  -7  460.25   22.80
   1  -2   7  478.15   21.10
  -1  -2  -7  497.25   21.00
  -1   2  -7  491.85   21.80
   1   2   7  459.35   25.10
  -1   2  -7  509.15   23.60
   1   2   7  529.15   33.40
  -1   2  -7  429.96   33.00
   1   2   7  510.85   27.50
  -2  -2  -7  591.54   27.10
  -2  -2  -7  581.94   26.20
  -2  -2  -7  624.94   24.00
   2  -2   7  597.14   24.80
   2  -2   7  605.34   24.00
   2   2   7  554.94   30.80
  -2   2  -7  590.24   27.20
  -2   2  -7  492.35   37.10
   2   2   7  537.65   28.70
  -2   2  -7  561.24   25.20
  -3  -2  -7  820.42   39.00
  -3  -2  -7  863.91   35.90
  -3  -2  -7  840.82   37.90
   3  -2   7  830.42   36.70
   3  -2   7  795.12   36.00
  -3  -2  -7  845.82   36.60
  -3   2  -7  982.40   39.40
  -3   2  -7  931.51   37.30
  -3   2  -7  834.72   50.69
   3   2   7  893.21   40.90
   3   2   7  899.11   43.50
  -4  -2  -7  209.88    9.00
  -4  -2  -7  196.58   13.30
   4  -2   7  207.58   13.60
   4  -2   7  206.98    9.10
   4  -2   7  212.48   10.00
  -4  -2  -7  222.48   11.50
  -4   2  -7  194.48   22.20
   4   2   7  218.18   13.80
  -4   2  -7  212.68   10.40
   4   2   7  206.78   16.10
   5  -2   7  120.29    5.40
   5  -2   7  120.79    9.20
   5  -2   7  120.49    6.30
  -5  -2  -7  124.69    6.20
  -5  -2  -7  120.79    7.40
  -5   2  -7   97.19   15.10
   5   2   7  111.49   13.40
   6  -2   7  160.78    9.80
   6  -2   7  170.78    7.00
  -6  -2  -7  178.18    7.90
   6  -2   7  155.58    8.10
  -6  -2  -7  167.58    8.50
   6   2   7  153.48   10.20
  -6   2  -7  149.39    7.80
  -6   2  -7  144.29   16.70
   7  -2   7  142.69    8.80
   7  -2   7  132.79    6.20
  -7  -2  -7  145.89    7.50
  -7   2  -7  144.49    6.70
   7   2   7  143.89    8.70
  -7  -3   7  357.66   16.00
  -7  -3   7  381.06   16.50
   7  -3  -7  390.26   16.00
   7  -3  -7  421.86   17.10
   7   3  -7  335.17   33.90
  -7   3   7  392.26   16.60
   7   3  -7  377.76   17.50
   7   3  -7  397.66   17.00
  -6  -3   7  455.25   21.30
   6  -3  -7  490.25   20.40
   6  -3  -7  482.75   21.40
   6  -3  -7  468.55   21.10
  -6  -3   7  484.75   20.40
   6   3  -7  503.35   21.70
   6   3  -7  515.45   22.50
  -6   3   7  504.95   21.30
  -5  -3   7   89.19    4.10
   5  -3  -7   91.89    4.90
   5  -3  -7   95.09    5.10
   5  -3  -7   91.09    4.10
  -5  -3   7   88.69    5.00
   5   3  -7   77.99    9.00
  -5   3   7   69.29    5.80
   5   3  -7   68.59    6.60
   4  -3  -7  212.08   15.70
  -4  -3   7  221.88    9.80
   4  -3  -7  230.98    9.80
  -4  -3   7  223.68   10.60
   4  -3  -7  226.68   10.50
   4   3  -7  227.68   13.10
   4   3  -7  231.38   11.60
   4   3  -7  234.88   17.30
   4   3  -7  222.78   13.80
   3  -3  -7  168.88   12.90
   3  -3  -7  179.88    8.20
  -3  -3   7  181.78    8.10
   3  -3  -7  187.08    8.90
  -3  -3   7  181.98    8.90
  -3   3   7  205.48   20.00
   3   3  -7  175.98   13.30
   3   3  -7  188.08   10.00
   3   3  -7  188.68   11.90
   3   3  -7  206.48   16.50
  -2  -3   7  381.16   15.80
   2  -3  -7  392.96   16.40
   2  -3  -7  374.46   17.30
   2  -3  -7  358.46   19.60
  -2  -3   7  374.36   16.40
   2   3  -7  354.06   19.10
  -2   3   7  330.37   24.80
   2   3  -7  380.56   25.20
   2   3  -7  369.76   17.30
  -2   3   7  411.66   29.30
  -2   3   7  341.37   20.40
  -1  -3   7  482.55   20.80
   1  -3  -7  485.45   22.00
   1  -3  -7  507.85   20.80
   1  -3  -7  472.85   24.30
  -1  -3   7  475.65   21.50
   1  -3  -7  505.55   21.50
  -1   3   7  561.34   35.30
   1   3  -7  463.25   24.40
   1   3  -7  494.95   22.30
  -1   3   7  525.55   30.20
   1   3  -7  495.95   31.70
  -1   3   7  484.05   25.90
   0  -3   7  473.65   19.90
   0  -3  -7  466.65   19.80
   0  -3  -7  465.45   20.50
   0  -3  -7  468.65   20.90
   0  -3   7  460.65   20.50
   0  -3  -7  447.26   23.20
   0   3   7  509.85   29.40
   0   3  -7  449.06   31.60
   0   3  -7  425.66   23.70
   0   3  -7  494.85   21.30
   0   3   7  535.05   34.20
   0   3   7  482.75   25.20
   1  -3   7  307.47   13.80
   1  -3   7  282.67   13.20
  -1  -3  -7  266.67   13.50
  -1  -3  -7  295.37   16.50
  -1   3  -7  308.77   25.50
  -1   3  -7  263.97   17.50
   1   3   7  305.37   18.00
   1   3   7  343.47   26.00
  -1   3  -7  332.67   14.40
   1   3   7  333.47   22.20
  -2  -3  -7   92.59    4.20
   2  -3   7   88.39    4.20
  -2  -3  -7   89.79    8.70
  -2  -3  -7   92.89    4.90
   2  -3   7   92.29    5.10
   2   3   7   93.79   12.40
  -2   3  -7   82.89   15.50
   2   3   7   94.19    9.30
  -2   3  -7   64.29   11.80
  -2   3  -7   91.29    5.80
   2   3   7   95.69   15.70
  -3  -3  -7    5.70    1.30
  -3  -3  -7    4.70    4.50
   3  -3   7    8.50    1.20
  -3   3  -7    5.20    6.90
   3   3   7    3.80    4.10
  -3   3  -7    4.20    2.00
   3   3   7    4.50    6.80
   4  -3   7  910.71   37.10
  -4  -3  -7  859.51   36.90
  -4  -3  -7  879.61   36.20
   4  -3   7  870.81   36.30
   4   3   7  825.22   44.00
  -4   3  -7  800.02   48.50
   4   3   7  870.91   40.90
  -4   3  -7  980.70   37.00
  -5  -3  -7  322.87   13.00
   5  -3   7  323.57   13.10
  -5  -3  -7  327.47   13.80
   5  -3   7  332.97   13.90
   5   3   7  259.87   21.00
   5   3   7  302.97   16.70
  -5   3  -7  315.67   13.50
  -5   3  -7  271.87   22.50
   6  -3   7  363.06   17.60
  -6  -3  -7  392.56   17.10
   6  -3   7  383.96   16.60
  -6   3  -7  413.96   25.20
   6   3   7  431.56   19.70
   6  -4  -7   27.40    4.20
  -6  -4   7   30.20    2.00
   6  -4  -7   32.30    1.80
   6   4  -7   24.10   12.80
   5  -4  -7  212.38    9.80
   5  -4  -7  212.58    9.70
   5  -4  -7  215.88    9.00
  -5  -4   7  215.28    9.00
  -5  -4   7  212.28    9.90
   5   4  -7  200.08    9.60
   5   4  -7  197.88   28.30
   5   4  -7  204.78   11.10
   5   4  -7  206.98   14.20
  -4  -4   7  243.18   10.70
   4  -4  -7  244.28   11.40
  -4  -4   7  227.98   12.10
   4  -4  -7  236.08   11.80
   4  -4  -7  243.38   10.60
  -4   4   7  267.07   11.30
   4   4  -7  240.38   33.50
   4   4  -7  247.48   11.50
   4   4  -7  245.58   13.00
   4   4  -7  283.77   17.50
   4   4  -7  254.97   13.30
  -3  -4   7  547.35   22.00
   3  -4  -7  561.94   22.00
   3  -4  -7  546.85   22.70
  -3  -4   7  549.25   22.80
  -3   4   7  544.45   34.00
   3   4  -7  554.64   29.80
   3   4  -7  457.65   22.80
   3   4  -7  470.05   47.20
   3   4  -7  502.15   24.60
  -2  -4   7  191.98    8.50
  -2  -4   7  192.28    9.20
   2  -4  -7  202.08    9.10
   2  -4  -7  195.88    8.50
   2   4  -7  160.98   12.30
   2   4  -7  204.28   18.80
  -2   4   7  206.68   19.30
  -1  -4   7   73.29    3.70
   1  -4  -7   82.39    4.50
   1  -4  -7   82.59    3.80
   1  -4  -7   72.99    5.80
  -1  -4   7   80.39    4.50
   1   4  -7   80.69   11.60
  -1   4   7   86.79   13.30
   1   4  -7   59.39    8.80
  -1   4   7   88.29   20.70
  -1   4   7   80.79    8.50
   0  -4  -7   70.29    4.10
   0  -4  -7   72.59    3.40
   0  -4  -7   66.59    5.10
   0  -4   7   70.39    3.40
   0  -4   7   71.69    4.10
   0   4   7   74.89   12.60
   0   4  -7   62.39   11.40
   0   4   7   69.69   16.60
   0   4   7   61.49    8.00
   1  -4   7  544.95   23.10
  -1  -4  -7  524.15   22.40
   1  -4   7  538.75   22.40
   1   4   7  573.14   33.70
   1   4   7  526.85   27.30
   1   4   7  545.05   41.40
  -1   4  -7  500.65   41.40
   2  -4   7  373.66   15.50
   2  -4   7  374.76   16.20
  -2  -4  -7  375.96   16.10
  -2  -4  -7  382.96   15.50
   2   4   7  350.06   19.70
  -2   4  -7  338.17   25.60
   2   4   7  364.06   25.60
   2   4   7  374.96   25.70
   3  -4   7  293.07   13.30
  -3  -4  -7  292.07   12.60
   3  -4   7  291.07   12.60
  -3  -4  -7  293.67   13.30
   3   4   7  294.97   22.20
  -3   4  -7  285.77   22.70
   3   4   7  333.27   24.70
   3   4   7  299.37   16.70
  -4  -4  -7   28.40    1.60
   4  -4   7   22.90    2.70
   4  -4   7   25.40    1.60
   4   4   7   21.90    4.70
  -4   4  -7   23.10    7.90
  -5  -4  -7   40.20    2.40
   5  -4   7   43.00    2.30
  -5  -4  -7   44.80    2.80
   5   4   7   44.30    5.30
  -5   4  -7   43.20    8.10
  -3  -5   7  140.79    6.10
   3  -5  -7  136.19    6.70
   3  -5  -7  119.39    6.50
  -3  -5   7  135.09    7.00
  -3   5   7  137.99   13.10
   3   5  -7  148.89   11.00
  -2  -5   7   79.59    3.50
   2  -5  -7   67.09    4.20
   2  -5  -7   72.19    3.40
  -2  -5   7   62.49    4.30
  -2   5   7   72.29   10.00
   2   5  -7   77.89    8.40
  -1  -5   7  158.98    8.20
   1  -5  -7  166.08    8.20
  -1  -5   7  174.88    7.60
  -1   5   7  188.88   16.30
   1   5  -7  185.98   14.10
   0  -5  -7  513.05   21.50
   0  -5   7  464.85   21.40
   0  -5  -7  515.45   20.90
   0  -5   7  490.45   20.90
   0  -5  -7  527.25   21.80
   0   5   7  514.45   31.00
   0   5  -7  488.45   28.60
   1  -5   7  152.18    7.90
  -1  -5  -7  165.78    8.00
  -1  -5  -7  176.08    7.30
  -1  -5  -7  171.28    8.10
   1  -5   7  152.88    7.60
  -1   5  -7  192.98   14.90
  -2  -5  -7   15.00    2.20
   2  -5   7   13.30    1.40
  -2  -5  -7   12.90    2.60
  -2   5  -7   14.40    5.70
   2   5   7   15.10    6.40
   2   5   7   16.90    4.70
   7   0  -8  273.67   13.30
  -7   0   8  276.07   13.00
   7   0  -8  289.57   13.30
   6   0  -8  249.97   12.90
  -6   0   8  241.08   11.80
   6   0  -8  251.37   12.20
   6   0  -8  235.28   12.00
   5   0  -8 1320.77   56.19
   5   0  -8 1323.97   56.29
   5   0  -8 1313.97   56.29
   4   0  -8  143.69    9.10
   4   0  -8  147.29    8.50
   4   0  -8  139.59    8.60
   3   0  -8   93.49    6.80
   3   0  -8  100.59    7.30
   3   0  -8   94.49    6.40
   2   0  -8    5.00    2.50
  -2   0   8    5.40    1.30
   2   0  -8    4.00    2.20
  -1   0   8  661.83   26.70
   1   0  -8  648.64   27.90
   1   0  -8  622.34   28.50
   1   0  -8  635.14   28.40
   0   0  -8  944.81   40.30
   0   0  -8  942.41   39.80
   0   0   8  899.21   39.60
   0   0   8  884.21   42.90
   0   0  -8  957.50   40.50
   0   0   8  980.40   38.70
  -1   0  -8  411.66   18.80
  -1   0  -8  423.66   18.90
   1   0   8  425.26   17.10
  -1   0  -8  364.66   20.60
   1   0   8  409.96   22.00
   1   0   8  405.86   17.90
  -2   0  -8  245.08   12.10
  -2   0  -8  246.38   12.10
   2   0   8  249.68   10.30
   2   0   8  244.28   15.10
  -2   0  -8  215.58   14.10
   3   0   8    0.30    4.20
  -3   0  -8    0.80    5.40
  -3   0  -8   -0.60    1.70
   3   0   8    0.90    0.90
  -3   0  -8   -1.80    1.90
  -4   0  -8  110.59    7.10
  -4   0  -8  123.19    7.00
   4   0   8  120.69    9.30
   4   0   8  118.59   11.90
   5   0   8  248.98   14.00
  -5   0  -8  255.47   12.00
  -5   0  -8  251.57   12.20
  -6   0  -8  581.64   25.00
   6   0   8  571.84   26.70
   7  -1  -8  324.67   14.90
  -7  -1   8  328.07   14.90
   7  -1  -8  321.97   15.30
  -7  -1   8  325.57   14.30
   7   1  -8  325.47   15.10
  -7   1   8  308.87   14.60
   7   1  -8  320.77   14.90
   6  -1  -8    6.50    2.90
  -6  -1   8   10.10    2.60
  -6  -1   8    6.60    1.70
   6  -1  -8    7.30    1.70
  -6   1   8    6.20    1.60
   6   1  -8    2.70    2.50
   6   1  -8    6.60    1.90
   6   1  -8    7.10    1.90
  -5  -1   8  243.08   10.70
   5  -1  -8  234.88   12.90
   5  -1  -8  265.67   14.10
   5  -1  -8  233.78   10.60
   5  -1  -8  250.27   12.20
   5   1  -8  247.68   13.00
   5   1  -8  249.18   12.70
   5   1  -8  248.48   12.50
  -4  -1   8  292.17   13.60
  -4  -1   8  259.67   23.30
   4  -1  -8  278.27   12.30
   4  -1  -8  301.47   14.90
   4  -1  -8  286.87   13.80
  -4  -1   8  295.67   12.30
   4  -1  -8  289.67   14.80
   4   1  -8  295.67   15.00
   4   1  -8  294.57   14.60
   4   1  -8  303.37   14.40
  -3  -1   8  399.06   17.10
   3  -1  -8  390.86   17.50
   3  -1  -8  377.56   18.20
  -3  -1   8  392.26   16.20
   3  -1  -8  385.96   18.40
   3  -1  -8  388.96   17.10
   3  -1  -8  382.86   16.20
   3   1  -8  370.16   18.60
   3   1  -8  379.86   18.20
   3   1  -8  373.36   18.00
  -2  -1   8  389.66   16.60
   2  -1  -8  375.96   15.70
   2  -1  -8  367.76   17.50
  -2  -1   8  377.46   15.70
   2  -1  -8  358.16   19.20
   2  -1  -8  366.96   17.80
   2  -1  -8  362.96   16.50
  -2   1   8  376.66   20.60
   2   1  -8  381.06   17.50
   2   1  -8  361.96   18.00
   2   1  -8  371.66   17.70
   1  -1  -8  629.54   27.80
   1  -1  -8  587.34   28.70
   1  -1  -8  621.64   26.50
   1  -1  -8  632.84   25.80
  -1  -1   8  619.94   26.60
   1  -1  -8  611.14   27.40
  -1  -1   8  639.24   25.80
   1   1  -8  626.64   27.50
   1   1  -8  612.64   27.80
   1   1  -8  629.24   28.10
  -1   1   8  598.24   30.40
   0  -1  -8   47.10    6.60
   0  -1  -8   45.30    5.30
   0  -1  -8   51.19    4.60
   0  -1  -8   47.30    3.80
   0  -1   8   50.79    2.70
   0  -1  -8   50.89    2.90
   0  -1   8   49.50    3.40
   0   1  -8   53.29    4.80
   0   1  -8   48.40    5.40
   0   1   8   51.79    7.90
   1  -1   8  189.68    9.20
  -1  -1  -8  182.98   11.80
  -1  -1  -8  195.18   10.00
  -1  -1  -8  183.38   10.50
   1  -1   8  196.68    8.50
  -1  -1  -8  193.48    8.50
  -1   1  -8  198.88   10.20
   1   1   8  198.18   13.40
  -1   1  -8  208.08   10.90
  -2  -1  -8 1370.46   56.29
  -2  -1  -8 1249.57   57.49
   2  -1   8 1182.78   54.59
  -2  -1  -8 1391.46   55.99
   2  -1   8 1342.47   55.29
   2   1   8 1351.56   60.89
   2   1   8 1327.37   59.09
  -2   1  -8 1348.67   56.09
  -2   1  -8 1323.57   56.39
   3  -1   8  347.37   15.70
  -3  -1  -8  353.06   16.70
   3  -1   8  334.57   19.10
  -3  -1  -8  318.57   18.80
   3  -1   8  361.56   14.90
  -3  -1  -8  361.36   16.30
   3   1   8  362.76   19.60
   3   1   8  348.47   21.00
  -3   1  -8  362.56   17.00
  -3   1  -8  363.06   16.50
   4  -1   8  152.28    8.00
   4  -1   8  160.08    6.90
  -4  -1  -8  145.29    9.20
  -4  -1  -8  148.09    8.30
   4  -1   8  135.39    9.90
   4  -1   8  143.79   13.90
  -4   1  -8  167.98    9.00
   4   1   8  161.18   13.70
   4   1   8  164.78   11.10
  -4   1  -8  174.28    8.40
   5  -1   8  160.08   10.30
  -5  -1  -8  168.28    8.70
  -5  -1  -8  177.68    8.50
   5  -1   8  183.38    7.40
   5   1   8  154.98   10.50
  -5   1  -8  162.78    8.50
  -6  -1  -8   25.40    2.70
   6  -1   8   24.60    4.50
   6   1   8   28.30    4.20
  -6   1  -8   26.00    2.50
   7  -2  -8  232.98   10.70
  -7  -2   8  230.58   10.20
   7   2  -8  221.38   10.90
   7   2  -8  226.28   10.60
  -7   2   8  217.18   10.40
   6  -2  -8  370.96   16.70
   6  -2  -8  382.06   17.90
  -6   2   8  394.16   17.80
   6   2  -8  422.56   18.20
   6   2  -8  424.46   18.60
   6   2  -8  400.66   18.40
  -5  -2   8  641.84   25.80
   5  -2  -8  561.44   28.40
   5  -2  -8  637.74   26.90
   5  -2  -8  630.54   25.70
   5   2  -8  640.04   27.50
   5   2  -8  611.74   27.60
   5   2  -8  601.44   27.80
   4  -2  -8  136.79    6.40
   4  -2  -8  142.19    7.80
  -4  -2   8  144.39    7.50
  -4  -2   8  139.69    6.50
   4  -2  -8  144.69    7.40
   4   2  -8  148.29    9.40
   4   2  -8  150.38    9.30
   4   2  -8  151.98    8.30
  -3  -2   8   77.69   19.00
   3  -2  -8   98.19    4.60
   3  -2  -8   96.09    7.50
   3  -2  -8   98.89    5.50
   3  -2  -8   87.89   10.70
  -3  -2   8   99.59    4.60
  -3  -2   8  100.99    5.60
   3   2  -8  111.19    8.80
   3   2  -8  103.99    6.70
   3   2  -8  100.09   13.00
   3   2  -8  109.89    8.30
   2  -2  -8  336.37   16.30
  -2  -2   8  316.87   14.80
   2  -2  -8  316.97   18.40
   2  -2  -8  330.77   14.60
  -2  -2   8  342.37   15.40
   2  -2  -8  353.46   15.40
   2   2  -8  366.86   17.70
  -2   2   8  353.86   19.40
   2   2  -8  357.46   16.30
  -2   2   8  360.06   21.60
   2   2  -8  365.56   18.20
   1  -2  -8  401.86   17.10
  -1  -2   8  400.16   17.20
   1  -2  -8  399.86   20.20
  -1  -2   8  370.26   16.40
   1  -2  -8  398.56   16.40
   1  -2  -8  382.86   17.80
   1  -2  -8  373.26   19.90
   1   2  -8  373.66   17.80
   1   2  -8  389.46   19.20
  -1   2   8  386.56   28.30
  -1   2   8  388.86   22.80
  -1   2   8  378.76   21.20
   0  -2  -8  611.44   29.20
   0  -2  -8  625.84   27.20
   0  -2   8  636.14   26.60
   0  -2  -8  616.04   28.10
   0  -2   8  608.94   26.10
   0  -2  -8  647.24   26.50
   0   2   8  602.84   30.50
   0   2   8  598.54   37.80
   0   2  -8  601.14   27.20
   0   2  -8  638.74   28.60
   0   2   8  622.64   32.50
   1  -2   8  281.17   13.20
  -1  -2  -8  287.57   12.40
  -1  -2  -8  296.57   13.20
   1  -2   8  281.67   12.40
  -1  -2  -8  304.97   13.80
  -1  -2  -8  260.17   15.80
  -1  -2  -8  282.17   14.90
   1   2   8  302.07   19.30
  -1   2  -8  292.87   13.90
  -1   2  -8  326.07   15.60
   1   2   8  293.17   17.30
  -2  -2  -8  390.36   16.00
  -2  -2  -8  343.57   19.70
   2  -2   8  383.26   16.90
   2  -2   8  379.46   16.10
  -2  -2  -8  380.86   18.30
  -2  -2  -8  386.96   16.90
  -2  -2  -8  396.46   17.50
   2   2   8  374.26   21.00
   2   2   8  376.76   23.00
  -2   2  -8  405.36   19.10
  -2   2  -8  378.46   17.40
   3  -2   8   30.50    2.80
  -3  -2  -8   31.60    2.10
  -3  -2  -8   27.40    3.30
  -3  -2  -8   24.90    5.10
   3  -2   8   30.60    1.90
  -3   2  -8   29.90    6.10
   3   2   8   28.60    6.10
  -3   2  -8   29.90    3.30
   3   2   8   23.50    8.30
  -4  -2  -8   62.99    4.10
   4  -2   8   63.99    4.50
   4  -2   8   65.49    3.30
  -4  -2  -8   59.69    5.50
   4   2   8   69.99    6.60
  -4   2  -8   74.99    4.30
   4   2   8   62.69   11.00
  -5  -2  -8  393.26   17.20
  -5  -2  -8  404.36   17.80
   5  -2   8  367.16   17.20
   5  -2   8  390.56   16.40
  -5   2  -8  402.26   17.20
   5   2   8  388.46   19.90
  -6  -2  -8  325.27   14.30
   6  -2   8  314.47   13.10
  -6  -2  -8  274.07   14.80
   6   2   8  321.27   15.90
  -6   2  -8  324.17   13.60
   6  -3  -8   39.90    2.40
  -6  -3   8   42.80    2.60
   6  -3  -8   40.30    3.30
   6   3  -8   42.70    4.30
  -6   3   8   46.60    3.00
   6   3  -8   44.80    3.20
  -5  -3   8  116.09    7.20
  -5  -3   8  130.29    6.00
   5  -3  -8  130.69    6.90
   5  -3  -8  130.09    6.00
   5  -3  -8  133.99    7.00
   5   3  -8  145.79    7.20
   5   3  -8  138.59    7.90
  -5   3   8  148.39    6.90
   5   3  -8  141.59    8.10
   4  -3  -8   65.29    3.10
   4  -3  -8   64.99    3.90
  -4  -3   8   67.69    3.10
  -4  -3   8   67.19    4.50
   4  -3  -8   59.29    4.80
   4   3  -8   51.09    4.30
   4   3  -8   54.79    6.20
   4   3  -8   50.89    7.90
   4   3  -8   52.29    5.10
   3  -3  -8  827.42   34.40
  -3  -3   8  825.62   35.20
   3  -3  -8  822.02   35.10
  -3  -3   8  818.12   34.40
   3   3  -8  849.72   41.30
   3   3  -8  836.92   37.60
  -2  -3   8  389.06   16.90
   2  -3  -8  401.56   16.10
   2  -3  -8  407.96   16.90
  -2  -3   8  390.76   16.10
   2   3  -8  375.86   28.90
   2   3  -8  358.26   17.40
   2   3  -8  359.46   19.00
  -2   3   8  362.46   27.20
  -1  -3   8  230.78   10.90
   1  -3  -8  232.08   10.90
   1  -3  -8  225.38   11.50
  -1  -3   8  221.78   10.10
  -1   3   8  254.27   21.30
   1   3  -8  234.18   11.60
   1   3  -8  252.17   18.90
  -1   3   8  242.08   19.70
   1   3  -8  249.48   13.80
  -1   3   8  228.38   14.80
   0  -3  -8   11.20    2.10
   0  -3   8   11.10    1.30
   0  -3   8   13.30    2.00
   0  -3  -8   11.30    1.30
   0  -3  -8   11.00    2.20
   0   3   8   14.60    5.00
   0   3  -8   12.00    4.10
   0   3   8   15.80    9.00
   0   3  -8   13.10    2.60
   0   3  -8   11.80    6.40
   0   3   8   17.00   11.40
  -1  -3  -8  151.48    8.00
   1  -3   8  155.98    6.80
   1  -3   8  151.18    7.60
  -1  -3  -8  160.08    7.60
  -1  -3  -8  152.48    6.80
  -1   3  -8  159.38    8.20
   1   3   8  149.49   16.80
   1   3   8  150.08   11.40
   1   3   8  164.58   15.50
  -2  -3  -8  395.56   16.60
   2  -3   8  388.06   17.40
  -2  -3  -8  406.76   17.30
   2  -3   8  377.26   16.60
  -2   3  -8  387.06   26.30
  -2   3  -8  395.46   19.60
  -2   3  -8  410.16   17.50
   2   3   8  397.66   24.80
  -3  -3  -8  381.96   14.80
  -3  -3  -8  351.66   15.70
   3  -3   8  373.36   14.80
  -3  -3  -8  355.46   15.70
  -3   3  -8  317.57   23.60
   3   3   8  339.07   22.70
  -3   3  -8  350.86   15.50
   3   3   8  338.17   18.60
   4  -3   8  530.15   22.30
  -4  -3  -8  523.05   22.30
   4  -3   8  524.75   21.50
  -4  -3  -8  485.95   21.40
  -4   3  -8  509.05   30.20
   4   3   8  504.45   24.90
  -4   3  -8  533.05   21.90
  -5  -3  -8   10.10    2.00
   5  -3   8   11.40    1.20
  -4  -4   8   72.39    4.80
   4  -4  -8   74.39    4.80
  -4  -4   8   90.29    3.70
   4  -4  -8   75.79    4.40
   4   4  -8   77.99    7.90
   3  -4  -8    7.40    1.10
  -3  -4   8    9.40    1.20
  -3  -4   8    9.70    2.30
   3  -4  -8   10.60    2.40
   3   4  -8    6.00    2.60
   3   4  -8    8.80    5.00
  -3   4   8    9.60    1.80
   2  -4  -8  116.49    5.30
   2  -4  -8  118.19    6.10
  -2  -4   8  113.49    6.00
  -2  -4   8  114.69    5.30
   2   4  -8  119.79    8.10
   2   4  -8  127.69   11.10
  -2   4   8  116.19   13.00
   1  -4  -8  220.78    9.40
   1  -4  -8  220.78   10.00
   1  -4  -8  206.28   10.60
  -1  -4   8  223.88    9.40
  -1  -4   8  216.58   10.10
  -1   4   8  208.68   17.80
   1   4  -8  218.78   12.30
   1   4  -8  226.18   16.20
   0  -4   8  375.26   16.50
   0  -4  -8  390.56   16.50
   0  -4  -8  384.46   17.20
   0  -4   8  371.36   17.20
   0  -4  -8  379.36   17.50
   0   4   8  446.26   39.50
   0   4   8  410.26   26.20
   0   4  -8  409.46   19.30
   0   4  -8  414.46   24.60
   0   4   8  382.16   20.30
   1  -4   8  266.87   12.30
  -1  -4  -8  278.97   12.30
   1  -4   8  278.97   11.60
  -1  -4  -8  277.57   11.60
  -1  -4  -8  274.07   12.50
   1   4   8  260.97   25.00
   1   4   8  276.07   19.80
   1   4   8  263.47   15.20
  -1   4  -8  281.27   19.50
   2  -4   8   39.10    2.20
  -2  -4  -8   38.20    2.20
  -2  -4  -8   40.90    3.50
   2  -4   8   40.80    3.10
  -2  -4  -8   36.50    3.00
   2   4   8   44.40    5.50
  -2   4  -8   44.00    8.30
  -3  -4  -8   33.20    2.00
   3  -4   8   35.00    3.20
  -3  -4  -8   38.10    2.80
  -3   4  -8   37.70    7.70
   3   4   8   38.60    4.90
  -6   0   9  148.59    7.80
   6   0  -9  151.88    8.10
   6   0  -9  155.88    8.10
   5   0  -9    1.40    2.40
   5   0  -9    0.10    1.80
   5   0  -9    0.50    1.70
   4   0  -9   95.19    6.40
   4   0  -9   94.19    6.50
   3   0  -9  271.37   13.20
   3   0  -9  275.57   13.90
   3   0  -9  272.07   13.50
   2   0  -9  896.51   39.00
   2   0  -9  945.11   39.60
   2   0  -9  890.91   39.70
   1   0  -9  283.27   14.20
   1   0  -9  284.57   13.80
   1   0  -9  277.17   13.50
   0   0  -9   31.60    4.30
   0   0  -9   42.80    5.00
   0   0  -9   35.00    5.30
  -1   0  -9   13.20    2.90
  -1   0  -9   17.80    3.60
   1   0   9   16.30    6.40
   2   0   9   88.09    9.70
  -2   0  -9  101.19    6.60
  -2   0  -9  107.49    6.40
   3   0   9  551.94   29.10
   3   0   9  556.24   26.90
  -3   0  -9  554.94   24.60
  -3   0  -9  573.24   24.70
   4   0   9  392.16   19.40
   4   0   9  365.66   25.30
  -4   0  -9  396.46   17.50
  -4   0  -9  394.66   17.60
   5   0   9  356.26   17.50
  -5   0  -9  355.86   15.90
   6  -1  -9  169.88    8.80
   6  -1  -9  167.88    9.40
  -6  -1   9  171.18    8.90
   6   1  -9  180.08    9.00
   6   1  -9  186.38    8.90
  -6   1   9  173.18    8.60
   6   1  -9  178.38    9.20
  -5  -1   9  381.56   17.20
   5  -1  -9  381.56   17.40
   5  -1  -9  393.66   17.10
   5   1  -9  367.16   17.10
   5   1  -9  363.86   17.40
   5   1  -9  346.17   17.10
   4  -1  -9  624.94   27.60
   4  -1  -9  635.44   27.10
   4  -1  -9  608.14   27.40
   4   1  -9  630.34   27.40
   4   1  -9  617.74   27.40
   4   1  -9  603.34   27.70
  -3  -1   9  194.08    8.50
   3  -1  -9  190.68    9.70
   3  -1  -9  174.58   12.40
   3  -1  -9  198.28   10.60
   3   1  -9  202.18   10.20
   3   1  -9  199.38   10.60
  -3   1   9  192.68   16.80
   3   1  -9  203.18   10.90
   2  -1  -9   58.79    4.50
   2  -1  -9   53.19    5.30
  -2  -1   9   58.09    4.90
  -2  -1   9   59.19    3.00
   2  -1  -9   61.29    5.80
   2   1  -9   55.99    5.70
   2   1  -9   53.49    6.00
   2   1  -9   62.29    5.00
  -1  -1   9  114.19    6.50
   1  -1  -9  116.19    6.50
   1  -1  -9  107.79    7.30
   1  -1  -9  114.49    7.30
  -1  -1   9  116.59    5.20
  -1   1   9  110.69   10.60
   1   1  -9  111.49    7.00
   1   1  -9  113.39    7.80
   0  -1   9  406.76   18.10
   0  -1  -9  410.56   19.00
   0  -1   9  424.36   17.20
   0  -1  -9  402.56   18.90
   0   1  -9  420.76   18.90
   0   1   9  395.66   21.60
   0   1  -9  394.36   19.30
   1  -1   9  713.83   29.70
   1  -1   9  716.13   28.70
  -1  -1  -9  708.13   30.50
  -1  -1  -9  717.53   30.40
   1   1   9  678.53   35.30
   1   1   9  637.24   32.60
  -1   1  -9  690.63   30.30
  -1   1  -9  668.63   30.70
  -2  -1  -9  177.08    9.80
   2  -1   9  179.18    8.30
   2  -1   9  204.38    9.60
   2   1   9  192.88   16.10
  -2   1  -9  209.48   10.00
   2   1   9  197.08   14.60
  -3  -1  -9  113.49    6.20
  -3  -1  -9  109.69    6.40
   3  -1   9  115.99    4.90
  -3   1  -9  107.79    6.00
   3   1   9  106.89    8.50
  -3   1  -9   99.89    6.80
   3   1   9   92.99   11.10
  -4  -1  -9    6.70    1.80
  -4  -1  -9    7.10    1.80
   4  -1   9    5.00    1.30
  -4   1  -9   11.90    3.40
   4   1   9    9.00    3.50
  -4   1  -9    5.80    1.60
  -5  -1  -9  295.87   12.60
  -5  -1  -9  254.57   12.30
  -5   1  -9  277.97   12.30
   5   1   9  259.97   14.00
  -6   2   9   42.20    2.90
   6   2  -9   42.30    3.20
   6   2  -9   38.60    3.80
   5  -2  -9   70.29    4.50
   5   2  -9   66.59    5.10
   5   2  -9   64.59    5.30
   5   2  -9   67.59    4.50
   4  -2  -9  289.67   12.30
   4  -2  -9  295.67   13.40
  -4  -2   9  296.97   12.30
   4   2  -9  286.17   13.60
   4   2  -9  280.37   14.00
   4   2  -9  286.87   14.30
   3  -2  -9  130.09    5.90
   3  -2  -9  114.99    7.90
  -3  -2   9  131.69    5.90
   3  -2  -9  128.49    7.70
   3  -2  -9  129.39    6.80
   3   2  -9  137.09    8.00
   3   2  -9  140.69    7.30
   3   2  -9  136.79    8.40
   2  -2  -9  718.73   30.90
   2  -2  -9  739.43   30.00
   2  -2  -9  690.73   31.40
  -2  -2   9  722.93   30.80
  -2  -2   9  739.13   30.00
   2   2  -9  790.72   32.70
   2   2  -9  731.93   31.40
  -2   2   9  640.44   36.80
  -1  -2   9  262.67   11.10
   1  -2  -9  257.87   13.40
   1  -2  -9  261.87   11.10
   1  -2  -9  245.48   12.60
   1  -2  -9  272.17   12.20
  -1  -2   9  260.27   12.00
  -1   2   9  245.18   18.00
   1   2  -9  261.87   12.60
   1   2  -9  262.27   13.60
   0  -2  -9   90.09    4.20
   0  -2   9   92.09    5.10
   0  -2   9   90.69    4.10
   0  -2  -9   95.69    6.80
   0  -2  -9   90.39    5.80
   0   2   9   78.29   10.70
   0   2  -9   77.29    5.40
   0   2  -9   81.59    6.80
   1  -2   9   29.20    2.80
   1  -2   9   27.30    1.80
  -1  -2  -9   26.90    5.00
  -1  -2  -9   27.90    2.10
   1   2   9   29.60    8.50
   1   2   9   23.60    4.90
  -1   2  -9   26.50    4.10
   2   2   9   16.20    6.70
   2   2   9   16.70    4.70
  -2   2  -9   19.50    3.40
  -2   2  -9   18.70    2.40
  -3  -2  -9  824.02   34.60
   3  -2   9  778.82   34.30
  -3  -2  -9  831.22   35.00
   3  -2   9  849.81   33.50
   3   2   9  730.03   39.70
   3   2   9  804.12   37.20
  -3   2  -9  851.41   34.50
  -4  -2  -9  451.65   19.50
  -4  -2  -9  425.76   18.90
   4  -2   9  405.06   18.00
  -4   2  -9  446.36   18.80
   4   2   9  435.06   21.20
   5  -3  -9  147.59    7.30
   5  -3  -9  135.29    6.60
  -5  -3   9  137.19    6.70
   5   3  -9  163.98    7.90
   5   3  -9  161.88    7.20
  -5   3   9  164.78    7.10
   5   3  -9  141.69   21.90
   4  -3  -9  414.76   17.50
   4  -3  -9  426.66   18.10
  -4  -3   9  379.36   18.30
  -4  -3   9  412.46   17.30
   4   3  -9  414.86   18.90
   4   3  -9  420.36   18.00
  -3  -3   9  230.38   11.20
   3  -3  -9  243.28   10.30
  -3  -3   9  247.18   10.30
   3  -3  -9  246.78   11.10
   3  -3  -9  238.68   11.40
   3   3  -9  242.08   12.40
   3   3  -9  238.98   11.30
  -2  -3   9   78.79    4.80
  -2  -3   9   81.49    3.80
   2  -3  -9   75.79    5.00
   2  -3  -9   83.49    3.80
   2  -3  -9   76.19    5.80
   2   3  -9   80.99    6.20
   2   3  -9   78.19    4.80
   1  -3  -9  187.08    9.40
  -1  -3   9  198.88    9.30
   1  -3  -9  189.78    9.70
   1  -3  -9  196.18    8.50
  -1  -3   9  203.38    8.50
   1   3  -9  203.48   10.90
  -1   3   9  186.48   11.90
   1   3  -9  206.48    9.50
   0  -3  -9  252.97   10.70
   0  -3   9  245.58   11.40
   0  -3  -9  244.08   11.80
   0  -3  -9  251.67   11.70
   0  -3   9  253.77   10.70
   0   3   9  232.58   20.10
   0   3  -9  271.07   11.70
   0   3  -9  263.07   13.00
   0   3   9  239.28   14.20
  -1  -3  -9  316.27   13.00
   1  -3   9  320.47   13.80
  -1  -3  -9  307.37   14.00
  -1  -3  -9  286.17   14.00
   1  -3   9  330.27   13.00
   1   3   9  278.07   21.00
   1   3   9  298.17   16.60
  -1   3  -9  319.77   13.80
  -1   3  -9  306.27   15.10
  -2  -3  -9  172.28    7.70
  -2  -3  -9  174.68    8.60
   2  -3   9  178.18    7.60
   2  -3   9  179.18    8.50
  -2   3  -9  179.38    8.30
   2   3   9  179.08   11.10
   3  -3   9   62.29    4.70
  -3  -3  -9   71.39    4.20
   3   3   9   79.09    6.30
   2  -4  -9  145.29    6.60
  -2  -4   9  141.49    6.60
   2   4  -9  154.58   11.00
   2   4  -9  167.48    8.40
  -1  -4   9  216.48   10.50
   1  -4  -9  249.78   13.00
  -1  -4   9  227.08    9.60
   1  -4  -9  228.48    9.60
   1   4  -9  219.58   11.30
   1   4  -9  215.88   13.90
   0  -4  -9  182.28    8.10
   0  -4   9  157.98    6.90
   0  -4  -9  157.18    6.90
   0  -4   9  142.39    7.80
   0   4  -9  170.08   11.90
   0   4  -9  147.39    9.30
  -1  -4  -9   44.90    3.20
   1  -4   9   39.40    2.10
  -1  -4  -9   36.60    2.20
   1   4   9   37.00    4.40
  -1   4  -9   42.00    8.10
   5   0 -10  289.17   13.20
  -5   0  10  288.37   13.00
   5   0 -10  278.77   13.20
   4   0 -10  321.97   15.20
   4   0 -10  331.27   15.00
   4   0 -10  322.37   14.90
   3   0 -10   70.99    5.30
   3   0 -10   75.19    5.00
   3   0 -10   77.29    5.10
   2   0 -10  350.96   16.20
   2   0 -10  342.47   15.90
   2   0 -10  351.66   16.50
   1   0 -10   10.70    2.20
   1   0 -10   12.60    2.30
   1   0 -10   10.50    2.80
   0   0 -10  205.98   10.30
   0   0 -10  208.38   10.60
   1   0  10  741.13   37.40
  -1   0 -10  776.52   33.00
  -1   0 -10  773.62   33.20
  -2   0 -10  184.58    9.10
   2   0  10  157.58   13.80
  -2   0 -10  176.28    8.70
  -3   0 -10   81.29    4.70
  -3   0 -10   76.89    5.20
  -5  -1  10   34.30    4.10
   5  -1 -10   28.30    3.00
   5  -1 -10   24.70    4.00
   5   1 -10   37.30    3.00
   5   1 -10   35.10    3.60
   5   1 -10   40.10    3.80
  -5   1  10   35.10    2.70
   4  -1 -10   56.09    5.30
   4  -1 -10   56.79    4.80
   4  -1 -10   60.29    4.20
   4   1 -10   60.69    4.80
   4   1 -10   59.29    4.60
   4   1 -10   64.19    4.20
   3  -1 -10  105.69    6.60
   3  -1 -10  100.79    6.00
   3  -1 -10   97.89    6.50
   3   1 -10  117.59    6.30
   3   1 -10  109.19    6.70
   3   1 -10  115.69    6.90
   2  -1 -10  259.77   12.40
   2  -1 -10  265.97   12.40
   2  -1 -10  250.57   11.70
  -2   1  10  222.98   19.10
   2   1 -10  249.58   12.60
   2   1 -10  255.17   12.10
   1  -1 -10  371.86   16.50
   1  -1 -10  392.76   17.20
   1  -1 -10  377.96   17.10
   1   1 -10  373.26   16.90
  -1   1  10  329.27   21.70
   1   1 -10  367.76   17.40
   0  -1 -10  162.08    8.90
   0  -1 -10  165.78    9.00
   0  -1 -10  164.88    8.60
   0   1 -10  188.58    9.50
   0   1  10  181.98   11.50
   0   1  10  171.68   14.00
   0   1 -10  176.48    8.80
  -1  -1 -10  248.28   11.60
  -1  -1 -10  245.38   11.50
  -1   1 -10  236.08   11.20
   1   1  10  210.78   16.10
   1   1  10  244.08   13.70
  -1   1 -10  224.38   11.60
  -2  -1 -10  136.79    7.20
  -2  -1 -10  137.89    7.30
  -2   1 -10  125.79    7.40
  -2   1 -10  136.49    7.00
   2   1  10  126.99    9.10
  -3  -1 -10  128.09    6.90
  -3  -1 -10  131.39    7.00
  -3   1 -10  143.19    6.80
   3   1  10  132.09    8.70
   4  -2 -10  256.57   11.70
   4   2 -10  256.77   11.70
   4   2 -10  253.87   12.20
   3  -2 -10  332.17   15.00
  -3  -2  10  319.17   14.30
   3  -2 -10  336.67   15.50
   3   2 -10  346.17   15.80
   3   2 -10  351.26   15.20
   2  -2 -10   94.19    5.20
   2  -2 -10   97.79    5.90
   2   2 -10   91.39    6.10
   2   2 -10   93.69    5.40
   1  -2 -10   15.30    3.50
   1  -2 -10   15.10    2.30
   1  -2 -10   11.70    2.20
   1   2 -10   12.50    2.30
   1   2 -10   18.90    3.50
   0  -2 -10  211.28   11.10
   0  -2  10  196.48   10.50
   0  -2  10  217.58    8.90
   0  -2 -10  201.68    9.60
   0  -2 -10  207.48   10.10
   0   2 -10  216.58   10.00
   0   2  10  196.28   11.90
   0   2 -10  211.78   10.70
  -1  -2 -10  357.16   15.70
  -1  -2 -10  335.67   15.10
  -1  -2 -10  324.77   14.60
   1  -2  10  312.77   14.40
  -1   2 -10  318.57   15.50
  -1   2 -10  346.87   14.90
   1   2  10  323.17   16.90
  -2  -2 -10  305.97   13.90
  -2  -2 -10  304.67   14.50
   2  -2  10  308.07   12.90
  -2   2 -10  306.67   13.70
  -2   2 -10  326.77   14.70
   2   2  10  291.07   15.60
   2  -3 -10  241.78   10.30
   2  -3 -10  221.78   12.90
  -2  -3  10  242.28    9.70
   2   3 -10  220.98   10.10
   2   3 -10  208.88   11.00
   1  -3 -10  346.77   15.00
   1  -3 -10  371.36   15.50
  -1  -3  10  335.37   14.40
   1   3 -10  343.07   14.90
   1   3 -10  326.67   15.80
   0  -3 -10   94.89    4.80
   0  -3  10   92.59    4.20
   0  -3 -10   92.19    5.40
   2   0 -11   77.79    4.70
   2   0 -11   77.79    5.00
   1   0 -11  439.96   19.40
   1   0 -11  441.36   19.70
   0   0 -11  254.97   11.80
   0   0 -11  254.07   12.10
  -1   0 -11   54.29    4.00
  -1   0 -11   53.79    3.60
   2  -1 -11   83.39    5.00
   2  -1 -11   76.19    5.00
   2  -1 -11   72.29    6.40
   2   1 -11   81.39    4.60
   2   1 -11   82.39    5.10
   1  -1 -11   30.10    3.00
   1   1 -11   27.70    3.30
   1   1 -11   26.10    2.60
   0   1 -11    6.40    1.40
   0   1 -11    7.20    1.90
   0   0   0    0.00    0.00

_computing_structure_solution     'SHELXT 2014/5 (Sheldrick, 2014)'
;
_shelx_hkl_checksum              56070
loop_
_space_group_symop_operation_xyz
'x, y, z'
'-x, y+1/2, -z'
loop_
_atom_site_label
_atom_site_type_symbol
_atom_site_fract_x
_atom_site_fract_y
_atom_site_fract_z
_atom_site_U_iso_or_equiv
_atom_site_adp_type
_atom_site_occupancy
_atom_site_site_symmetry_order
_atom_site_calc_flag
_atom_site_refinement_flags_posn
_atom_site_refinement_flags_adp
_atom_site_refinement_flags_occupancy
_atom_site_disorder_assembly
_atom_site_disorder_group
Br1 Br 0.91341(2) 0.81558(8) 0.81378(2) 0.01925(11) Uani 1 1 d . . . . .
H1 H 0.394(4) 0.091(6) 0.898(4) 0.017(9) Uiso 1 1 d . . . . .
N1 N 0.3842(3) 0.1823(5) 0.8367(3) 0.0169(5) Uani 1 1 d . . . . .
C1 C 0.5013(3) 0.3359(7) 0.8333(2) 0.0120(6) Uani 1 1 d . . . . .
C2 C 0.6453(3) 0.2759(5) 0.8959(3) 0.0157(7) Uani 1 1 d . . . . .
H2 H 0.6580 0.1391 0.9414 0.019 Uiso 1 1 calc R U . . .
C3 C 0.7672(3) 0.4164(5) 0.8909(3) 0.0157(5) Uani 1 1 d . . . . .
H3 H 0.8621 0.3746 0.9307 0.019 Uiso 1 1 calc R U . . .
C5 C 0.6051(3) 0.6845(5) 0.7623(2) 0.0127(6) Uani 1 1 d . . . . .
H5 H 0.5937 0.8226 0.7182 0.015 Uiso 1 1 calc R U . . .
C4 C 0.7453(3) 0.6212(5) 0.8251(3) 0.0154(6) Uani 1 1 d . . . . .
C6 C 0.4809(3) 0.5416(5) 0.7651(2) 0.0115(5) Uani 1 1 d . . . . .
C9 C 0.2305(3) 0.2548(5) 0.7973(3) 0.0198(7) Uani 1 1 d . . . . .
H9A H 0.1926 0.3386 0.8740 0.024 Uiso 1 1 calc R U . . .
H9B H 0.1658 0.1261 0.7783 0.024 Uiso 1 1 calc R U . . .
C8 C 0.2290(3) 0.3997(5) 0.6669(3) 0.0174(6) Uani 1 1 d . . . . .
H8A H 0.1261 0.4440 0.6379 0.021 Uiso 1 1 calc R U . . .
H8B H 0.2668 0.3148 0.5907 0.021 Uiso 1 1 calc R U . . .
C7 C 0.3265(3) 0.6084(5) 0.6951(3) 0.0133(5) Uani 1 1 d . . . . .
H7 H 0.2772 0.7004 0.7628 0.016 Uiso 1 1 calc R U . . .
C10 C 0.3354(3) 0.7483(5) 0.5611(3) 0.0159(7) Uani 1 1 d . . . . .
H10A H 0.3920 0.8833 0.5851 0.019 Uiso 1 1 calc R U . . .
H10B H 0.3904 0.6647 0.4948 0.019 Uiso 1 1 calc R U . . .
C11 C 0.1808(3) 0.8126(10) 0.4895(2) 0.0199(5) Uani 1 1 d . . . . .
H11A H 0.1937 0.9176 0.4153 0.030 Uiso 1 1 calc R U . . .
H11B H 0.1207 0.8787 0.5575 0.030 Uiso 1 1 calc R U . . .
H11C H 0.1310 0.6816 0.4506 0.030 Uiso 1 1 calc R U . . .
loop_
_atom_site_aniso_label
_atom_site_aniso_U_11
_atom_site_aniso_U_22
_atom_site_aniso_U_33
_atom_site_aniso_U_23
_atom_site_aniso_U_13
_atom_site_aniso_U_12
Br1 0.01229(15) 0.02435(18) 0.02103(15) -0.00085(17) 0.00096(9) -0.00478(16)
N1 0.0193(12) 0.0142(15) 0.0167(12) 0.0083(11) -0.0007(9) -0.0028(11)
C1 0.0178(11) 0.0109(16) 0.0074(9) -0.0045(13) 0.0024(8) -0.0024(14)
C2 0.0221(13) 0.015(2) 0.0096(10) -0.0004(11) 0.0010(9) 0.0016(12)
C3 0.0145(13) 0.0211(14) 0.0111(11) -0.0006(11) -0.0002(9) 0.0052(11)
C5 0.0154(13) 0.0121(16) 0.0108(12) -0.0005(10) 0.0018(10) 0.0009(11)
C4 0.0134(12) 0.0213(16) 0.0114(12) -0.0039(10) 0.0010(10) -0.0011(11)
C6 0.0136(12) 0.0148(15) 0.0063(11) -0.0011(10) 0.0013(9) 0.0010(10)
C9 0.0167(13) 0.020(2) 0.0228(14) 0.0032(10) -0.0005(10) -0.0047(10)
C8 0.0167(13) 0.0170(15) 0.0176(13) 0.0019(11) -0.0039(10) -0.0046(10)
C7 0.0121(12) 0.0169(16) 0.0108(12) -0.0019(10) 0.0003(10) -0.0002(10)
C10 0.0164(13) 0.018(2) 0.0131(12) 0.0030(10) 0.0010(10) 0.0009(10)
C11 0.0200(11) 0.0248(14) 0.0142(10) 0.003(2) -0.0025(9) -0.003(2)
loop_
_atom_type_symbol
_atom_type_description
_atom_type_scat_dispersion_real
_atom_type_scat_dispersion_imag
_atom_type_scat_source
C C 0.0181 0.0091 'International Tables Vol C Tables 4.2.6.8 and 6.1.1.4'
H H 0.0000 0.0000 'International Tables Vol C Tables 4.2.6.8 and 6.1.1.4'
N N 0.0311 0.0180 'International Tables Vol C Tables 4.2.6.8 and 6.1.1.4'
Br Br -0.6763 1.2805 'International Tables Vol C Tables 4.2.6.8 and 6.1.1.4'
loop_
_geom_angle_atom_site_label_1
_geom_angle_atom_site_label_2
_geom_angle_atom_site_label_3
_geom_angle
_geom_angle_site_symmetry_1
_geom_angle_site_symmetry_3
_geom_angle_publ_flag
C1 N1 C9 119.0(3) . . ?
C1 N1 H1 116(2) . . ?
C9 N1 H1 116(2) . . ?
N1 C1 C6 121.8(2) . . ?
N1 C1 C2 118.3(3) . . ?
C6 C1 C2 119.8(3) . . ?
C3 C2 C1 121.2(3) . . ?
C3 C2 H2 119.4 . . ?
C1 C2 H2 119.4 . . ?
C2 C3 C4 118.6(2) . . ?
C2 C3 H3 120.7 . . ?
C4 C3 H3 120.7 . . ?
C4 C5 C6 120.4(3) . . ?
C4 C5 H5 119.8 . . ?
C6 C5 H5 119.8 . . ?
C3 C4 C5 121.5(3) . . ?
C3 C4 Br1 119.2(2) . . ?
C5 C4 Br1 119.2(2) . . ?
C1 C6 C5 118.5(2) . . ?
C1 C6 C7 120.6(2) . . ?
C5 C6 C7 120.9(2) . . ?
N1 C9 C8 109.0(2) . . ?
N1 C9 H9A 109.9 . . ?
C8 C9 H9A 109.9 . . ?
N1 C9 H9B 109.9 . . ?
C8 C9 H9B 109.9 . . ?
H9A C9 H9B 108.3 . . ?
C9 C8 C7 111.1(2) . . ?
C9 C8 H8A 109.4 . . ?
C7 C8 H8A 109.4 . . ?
C9 C8 H8B 109.4 . . ?
C7 C8 H8B 109.4 . . ?
H8A C8 H8B 108.0 . . ?
C6 C7 C8 109.7(2) . . ?
C6 C7 C10 113.4(2) . . ?
C8 C7 C10 111.7(2) . . ?
C6 C7 H7 107.2 . . ?
C8 C7 H7 107.2 . . ?
C10 C7 H7 107.2 . . ?
C11 C10 C7 113.6(2) . . ?
C11 C10 H10A 108.8 . . ?
C7 C10 H10A 108.8 . . ?
C11 C10 H10B 108.8 . . ?
C7 C10 H10B 108.8 . . ?
H10A C10 H10B 107.7 . . ?
C10 C11 H11A 109.5 . . ?
C10 C11 H11B 109.5 . . ?
H11A C11 H11B 109.5 . . ?
C10 C11 H11C 109.5 . . ?
H11A C11 H11C 109.5 . . ?
H11B C11 H11C 109.5 . . ?
loop_
_geom_bond_atom_site_label_1
_geom_bond_atom_site_label_2
_geom_bond_distance
_geom_bond_site_symmetry_2
_geom_bond_publ_flag
Br1 C4 1.906(3) . ?
N1 C1 1.393(4) . ?
N1 C9 1.453(4) . ?
N1 H1 0.80(4) . ?
C1 C6 1.398(5) . ?
C1 C2 1.413(4) . ?
C2 C3 1.377(4) . ?
C2 H2 0.9300 . ?
C3 C4 1.384(4) . ?
C3 H3 0.9300 . ?
C5 C4 1.389(4) . ?
C5 C6 1.400(4) . ?
C5 H5 0.9300 . ?
C6 C7 1.528(4) . ?
C9 C8 1.514(4) . ?
C9 H9A 0.9700 . ?
C9 H9B 0.9700 . ?
C8 C7 1.533(4) . ?
C8 H8A 0.9700 . ?
C8 H8B 0.9700 . ?
C7 C10 1.534(4) . ?
C7 H7 0.9800 . ?
C10 C11 1.532(4) . ?
C10 H10A 0.9700 . ?
C10 H10B 0.9700 . ?
C11 H11A 0.9600 . ?
C11 H11B 0.9600 . ?
C11 H11C 0.9600 . ?
