#------------------------------------------------------------------------------
#$Date: 2021-01-04 05:13:17 +0200 (Mon, 04 Jan 2021) $
#$Revision: 260427 $
#$URL: file:///home/coder/svn-repositories/cod/cif/4/13/54/4135407.cif $
#------------------------------------------------------------------------------
#
# This file is available in the Crystallography Open Database (COD),
# http://www.crystallography.net/
#
# All data on this site have been placed in the public domain by the
# contributors.
#
data_4135407
loop_
_publ_author_name
'Tang, Yuan-Yuan'
'Xie, Yongfa'
'Ai, Yong'
'Liao, Wei-Qiang'
'Li, Peng-Fei'
'Nakamura, Takayoshi'
'Xiong, Ren-Gen'
_publ_section_title
;
 Organic Ferroelectric Vortex-Antivortex Domain Structure.
;
_journal_issue                   52
_journal_name_full               'Journal of the American Chemical Society'
_journal_page_first              21932
_journal_page_last               21937
_journal_paper_doi               10.1021/jacs.0c11416
_journal_volume                  142
_journal_year                    2020
_chemical_formula_moiety         'C7 H13 F N, O4 Re'
_chemical_formula_sum            'C7 H13 F N O4 Re'
_chemical_formula_weight         380.39
_space_group_crystal_system      monoclinic
_space_group_IT_number           7
_space_group_name_Hall           'P -2yac'
_space_group_name_H-M_alt        'P 1 n 1'
_atom_sites_solution_hydrogens   geom
_audit_creation_method           SHELXL-2014/7
_cell_angle_alpha                90
_cell_angle_beta                 90.030(3)
_cell_angle_gamma                90
_cell_formula_units_Z            2
_cell_length_a                   8.7880(3)
_cell_length_b                   5.9866(2)
_cell_length_c                   9.2245(3)
_cell_measurement_reflns_used    12349
_cell_measurement_temperature    93(2)
_cell_measurement_theta_max      31.6480
_cell_measurement_theta_min      3.1780
_cell_volume                     485.30(3)
_computing_cell_refinement       'CrysAlisPro 1.171.39.46 (Rigaku OD, 2018)'
_computing_data_collection       'CrysAlisPro 1.171.39.46 (Rigaku OD, 2018)'
_computing_data_reduction        'CrysAlisPro 1.171.39.46 (Rigaku OD, 2018)'
_computing_molecular_graphics    'DIAMOND (Brandenburg & Putz, 2005)'
_computing_publication_material  'SHELXL-2014/7 (Sheldrick, 2014)'
_computing_structure_refinement  'SHELXL-2014/7 (Sheldrick, 2014)'
_computing_structure_solution    'SHELXL-2014/7 (Sheldrick, 2014)'
_diffrn_ambient_temperature      93(2)
_diffrn_measured_fraction_theta_full 0.992
_diffrn_measured_fraction_theta_max 0.986
_diffrn_measurement_device_type  'XtaLAB Synergy R, DW system, HyPix'
_diffrn_measurement_method       'four-circle diffractometer'
_diffrn_radiation_type           MoK\a
_diffrn_radiation_wavelength     0.71073
_diffrn_reflns_av_R_equivalents  0.0288
_diffrn_reflns_av_unetI/netI     0.0416
_diffrn_reflns_Laue_measured_fraction_full 0.992
_diffrn_reflns_Laue_measured_fraction_max 0.986
_diffrn_reflns_limit_h_max       10
_diffrn_reflns_limit_h_min       -11
_diffrn_reflns_limit_k_max       7
_diffrn_reflns_limit_k_min       -7
_diffrn_reflns_limit_l_max       10
_diffrn_reflns_limit_l_min       -11
_diffrn_reflns_number            3155
_diffrn_reflns_point_group_measured_fraction_full 0.992
_diffrn_reflns_point_group_measured_fraction_max 0.986
_diffrn_reflns_theta_full        25.242
_diffrn_reflns_theta_max         26.724
_diffrn_reflns_theta_min         3.201
_diffrn_source                   'Rotating-anode X-ray tube'
_exptl_absorpt_coefficient_mu    12.524
_exptl_absorpt_correction_T_max  0.090
_exptl_absorpt_correction_T_min  0.082
_exptl_absorpt_correction_type   multi-scan
_exptl_absorpt_process_details   'CrysAlisPro 1.171.39.46 (Rigaku OD, 2018)'
_exptl_crystal_colour            colourless
_exptl_crystal_density_diffrn    2.603
_exptl_crystal_description       block
_exptl_crystal_F_000             356
_exptl_crystal_size_max          0.210
_exptl_crystal_size_mid          0.210
_exptl_crystal_size_min          0.200
_refine_diff_density_max         1.554
_refine_diff_density_min         -1.212
_refine_diff_density_rms         0.187
_refine_ls_abs_structure_details
;
 Refined as an inversion twin.
;
_refine_ls_abs_structure_Flack   0.08(3)
_refine_ls_extinction_method     none
_refine_ls_goodness_of_fit_ref   1.000
_refine_ls_hydrogen_treatment    constr
_refine_ls_matrix_type           full
_refine_ls_number_parameters     128
_refine_ls_number_reflns         2050
_refine_ls_number_restraints     35
_refine_ls_restrained_S_all      0.990
_refine_ls_R_factor_all          0.0266
_refine_ls_R_factor_gt           0.0256
_refine_ls_shift/su_max          0.010
_refine_ls_shift/su_mean         0.001
_refine_ls_structure_factor_coef Fsqd
_refine_ls_weighting_details
'w=1/[\s^2^(Fo^2^)+(0.0304P)^2^+1.7800P] where P=(Fo^2^+2Fc^2^)/3'
_refine_ls_weighting_scheme      calc
_refine_ls_wR_factor_gt          0.0611
_refine_ls_wR_factor_ref         0.0618
_reflns_Friedel_coverage         0.993
_reflns_Friedel_fraction_full    0.992
_reflns_Friedel_fraction_max     0.986
_reflns_number_gt                1642
_reflns_number_total             2050
_reflns_threshold_expression     'I > 2\s(I)'
_cod_data_source_file            ja0c11416_si_003.cif
_cod_data_source_block           Pn
_cod_depositor_comments
'Adding full bibliography for 4135405--4135410.cif.'
_cod_original_sg_symbol_H-M      'P n'
_cod_database_code               4135407
_shelx_shelxl_version_number     2014/7
_shelx_space_group_comment
;
The symmetry employed for this shelxl refinement is uniquely defined
by the following loop, which should always be used as a source of
symmetry information in preference to the above space-group names.
They are only intended as comments.
;
_shelx_estimated_absorpt_t_min   0.178
_shelx_estimated_absorpt_t_max   0.188
_shelx_res_file
;

    Pn.res created by SHELXL-2014/7

TITL Pn in Pn
CELL 0.71073   8.7880   5.9866   9.2245  90.000  90.030  90.000
ZERR    2.00   0.0003   0.0002   0.0003   0.000   0.000   0.000
LATT -1
SYMM 0.5+X, -Y, 0.5+Z
SFAC C  H  N  O  F  Re
UNIT 14 26 2 8 2 2
OMIT  -3.00  53.50
L.S. 40
ACTA
BOND
FMAP 2
PLAN 10
TWIN
CONF
SIZE 0.20 0.21 0.21
ISOR 0.005 C1 C2 C4
SIMU 0.01 C5 C6 N1 C3
DELU 0.01 C5 C6 N1 C3
EQIV $1 x-1, y+1, z-1
HTAB N1 O2_$1
EQIV $2 x-1, y, z-1
HTAB N1 O3_$2
EQIV $3 x-1/2, -y+1, z-1/2
HTAB C3 F1_$3
EQIV $4 x-3/2, -y, z-1/2
HTAB C3 O4_$4
EQIV $5 x+1/2, -y+1, z-1/2
HTAB C5 F1_$5
EQIV $6 x-1/2, -y, z-1/2
HTAB C5 O1_$6
EQIV $7 x-3/2, -y+1, z-1/2
HTAB C7 O4_$7
HTAB C7 O1_$3
TEMP -180
WGHT    0.030400    1.780000
BASF  -0.08157
FVAR       0.30437
MOLE 1
RE1   6    0.999946    0.018945    0.999226    11.00000    0.01065    0.01302 =
         0.00650   -0.00246    0.00008    0.00034
O1    4    0.838270    0.029628    0.892508    11.00000    0.01270    0.02652 =
         0.01848   -0.00084   -0.00512   -0.00183
O2    4    1.000254   -0.225613    1.094940    11.00000    0.03023    0.01818 =
         0.02849   -0.00038   -0.00034   -0.00132
O3    4    0.999313    0.242657    1.119042    11.00000    0.04694    0.02012 =
         0.02656   -0.01239    0.00325   -0.00266
O4    4    1.161941    0.029505    0.891459    11.00000    0.01843    0.02529 =
         0.02128    0.00112    0.00853    0.00248
F1    5   -0.000002    0.519104    0.789154    11.00000    0.02573    0.03235 =
         0.00440   -0.00341    0.00207    0.00049
C1    1    0.005223    0.528680    0.638124    11.00000    0.00725    0.01279 =
         0.00775   -0.00226   -0.00236    0.00087
N1    3    0.004304    0.544189    0.364630    11.00000    0.01439    0.02336 =
         0.00368   -0.00316   -0.00261   -0.00671
AFIX  13
H1    2    0.004516    0.547346    0.256243    11.00000   -1.20000
AFIX   0
C3    1   -0.141673    0.426384    0.415922    11.00000    0.01172    0.02850 =
         0.00421   -0.00391    0.00139   -0.00639
AFIX  23
H3A   2   -0.232131    0.511930    0.384107    11.00000   -1.20000
H3B   2   -0.147547    0.274853    0.373308    11.00000   -1.20000
AFIX   0
C2    1   -0.138612    0.410858    0.580610    11.00000    0.02481    0.02366 =
         0.02091    0.00392    0.00037   -0.00499
AFIX  23
H2A   2   -0.138161    0.252159    0.610781    11.00000   -1.20000
H2B   2   -0.230535    0.482758    0.621450    11.00000   -1.20000
AFIX   0
C5    1    0.140934    0.430954    0.413587    11.00000    0.01141    0.02599 =
         0.00387   -0.00285   -0.00329   -0.00013
AFIX  23
H5A   2    0.232001    0.513808    0.380467    11.00000   -1.20000
H5B   2    0.144891    0.278641    0.371961    11.00000   -1.20000
AFIX   0
C4    1    0.140098    0.417334    0.580806    11.00000    0.02436    0.02708 =
         0.02219    0.00066   -0.00234    0.00435
AFIX  23
H4A   2    0.140467    0.258889    0.611535    11.00000   -1.20000
H4B   2    0.232761    0.489597    0.619914    11.00000   -1.20000
AFIX   0
C7    1    0.001566    0.778452    0.418859    11.00000    0.01952    0.00848 =
         0.03167    0.00350    0.00413    0.00341
AFIX  23
H7A   2   -0.090133    0.855996    0.382020    11.00000   -1.20000
H7B   2    0.092441    0.859731    0.383682    11.00000   -1.20000
AFIX   0
C6    1    0.000035    0.776276    0.582597    11.00000    0.08019    0.01947 =
         0.00604   -0.00134   -0.00192    0.00284
AFIX  23
H6A   2   -0.093352    0.850378    0.618469    11.00000   -1.20000
H6B   2    0.089075    0.859468    0.620160    11.00000   -1.20000
AFIX   0
HKLF 4

REM  Pn in Pn
REM R1 =  0.0256 for    1642 Fo > 4sig(Fo)  and  0.0266 for all    1690 data
REM    128 parameters refined using     35 restraints

END

WGHT      0.0318      0.0000

REM Highest difference peak  1.554,  deepest hole -1.212,  1-sigma level  0.187
Q1    1   1.0015 -0.1070  0.9990  11.00000  0.05    1.55
Q2    1   1.0020  0.2354  0.9954  11.00000  0.05    0.85
Q3    1   1.1185 -0.0920  1.0546  11.00000  0.05    0.85
Q4    1   1.1012 -0.1241  0.9414  11.00000  0.05    0.83
Q5    1   0.8998 -0.1249  1.0567  11.00000  0.05    0.79
Q6    1   0.8825 -0.0926  0.9421  11.00000  0.05    0.74
Q7    1   1.0845  0.1907  0.9497  11.00000  0.05    0.63
Q8    1   0.8979  0.1630  1.0560  11.00000  0.05    0.60
Q9    1  -0.0137  0.1182  0.3943  11.00000  0.05    0.58
Q10   1   0.0191  0.1186  0.6034  11.00000  0.05    0.58
;
_shelx_res_checksum              92014
_shelx_hkl_file
;
   0   0 -13   -2.30    5.29
   0   0 -12  300.32   17.89
   0   0 -11    0.70    4.17
   0   0 -10  667.94   28.38
   0   0  -9    0.61    3.70
   0   0  -8  787.71   31.03
   0   0  -8  836.47   34.01
   0   0  -7   -0.71    3.38
   0   0  -6  429.39   20.82
   0   0  -5   -0.61    3.58
   0   0  -4  204.22   12.23
   0   0  -3    4.00    3.31
   0   0  -2 2616.92   78.15
   0   0   1   -0.78    1.37
   0   0   2 2615.05   79.39
   0   0   3   -1.19    3.68
   0   1 -13    1.57    5.31
   0  -1 -13   -1.54    5.12
   0   1 -12  274.02   17.12
   0   1 -12  281.86   17.23
   0  -1 -12  249.51   16.69
   0  -1 -11    2.15    4.27
   0   1 -11    2.87    4.63
   0   1 -11    2.15    4.57
   0   1 -10  443.57   21.71
   0   1  -9    7.47    4.11
   0   1  -8  732.69   29.53
   0   1  -8  724.76   35.48
   0  -1  -8  791.24   31.15
   0  -1  -7   30.27    5.35
   0   1  -7   29.66    7.83
   0   1  -7   33.50    5.15
   0   1  -6 1020.63   35.47
   0  -1  -6 1048.44   36.61
   0   1  -6  928.33   42.96
   0   1  -5   14.21    3.25
   0  -1  -5   15.06    3.37
   0   1  -5   16.51    6.42
   0  -1  -4 1350.24   43.35
   0  -1  -3   17.13    2.74
   0  -1  -2 1979.54   58.26
   0  -1  -1   34.62    2.73
   0  -1   0  819.88   23.92
   0  -1   1   36.30    2.26
   0  -1   1   33.95    2.58
   0   1   1   34.75    2.74
   0   1   2 1757.69   52.55
   0  -1   2 1782.58   52.15
   0  -1   3   10.39    2.47
   0   1   3    8.66    2.51
   0   1   4 1269.04   43.54
   0   1   5    6.38    4.05
   0   1   6 1020.76   44.31
   0   1   7   37.50    9.32
   0   1   8  803.53   42.49
   0   2 -12  254.00   17.40
   0   2 -11   53.23    8.22
   0   2 -11   49.61    7.85
   0   2 -10  470.20   22.81
   0   2 -10  446.43   22.46
   0   2  -9   30.24    6.22
   0   2  -9   45.63    6.91
   0   2  -8  571.96   35.57
   0  -2  -8  638.79   27.37
   0   2  -8  630.28   26.59
   0   2  -8  643.23   26.45
   0   2  -7   12.86    8.41
   0   2  -7    5.94    3.40
   0   2  -7    4.68    3.11
   0  -2  -7    4.78    3.57
   0  -2  -6  841.08   31.65
   0   2  -6  831.72   30.97
   0   2  -6  845.15   30.65
   0  -2  -5   16.48    3.85
   0   2  -5   12.52    3.31
   0   2  -5   12.99    3.18
   0   2  -4  956.85   32.68
   0  -2  -4 1007.53   33.62
   0   2  -4  988.63   31.35
   0   2  -3   63.96    4.35
   0  -2  -3   54.34    5.14
   0   2  -3   63.96    4.99
   0  -2  -2 1434.28   44.16
   0   2  -2 1401.29   42.15
   0   2  -1  265.21    9.79
   0  -2   0 1989.01   57.58
   0  -2   1  268.13    9.90
   0   2   1  277.11   12.30
   0   2   2 1114.98   35.97
   0  -2   2 1113.44   34.98
   0  -2   3   60.63    5.00
   0  -2   3   60.14    4.53
   0   2   3   51.59    5.18
   0  -2   4  934.83   32.03
   0   2   4  973.89   33.70
   0   2   5    3.97    2.94
   0  -2   5    9.68    3.14
   0   2   6  832.73   34.76
   0   2   7    1.12    4.98
   0   2   8  621.06   35.73
   0   2   9   16.72    9.79
   0   2  10  462.36   34.78
   0   3 -12  261.57   18.30
   0   3 -11   17.54    6.23
   0   3 -10  350.55   19.79
   0   3  -9   74.65    8.79
   0   3  -8  499.15   20.64
   0   3  -8  480.95   22.63
   0  -3  -7  203.99   13.08
   0   3  -7  173.17   11.92
   0   3  -7  200.15   10.96
   0  -3  -6  585.70   25.38
   0   3  -6  618.27   24.82
   0   3  -6  634.22   23.10
   0  -3  -5  134.87    9.35
   0   3  -5  109.45    8.20
   0   3  -5  124.83    7.57
   0   3  -4  880.82   28.44
   0   3  -4  806.32   29.67
   0  -3  -4  848.89   30.97
   0   3  -3   99.16    6.16
   0  -3  -3   92.16    7.39
   0   3  -2 1075.28   33.66
   0   3  -1   75.23    4.83
   0  -3   0  575.63   19.47
   0  -3   1   66.42    4.53
   0   3   1   68.33    6.38
   0   3   2 1130.29   37.78
   0  -3   2 1109.95   34.27
   0  -3   2 1070.76   35.98
   0   3   3   85.96    7.18
   0  -3   3   72.85    6.06
   0  -3   3   80.77    6.49
   0   3   4  829.85   30.29
   0  -3   4  780.19   28.60
   0  -3   4  778.96   27.63
   0   3   5  125.74    9.88
   0  -3   5  134.02    9.24
   0   3   6  627.65   28.22
   0  -3   6  653.37   25.95
   0   3   7  210.04   15.51
   0   3   8  486.60   28.67
   0   3   9   82.85   14.16
   0   3  10  304.36   28.83
   0   3  11   16.88   13.36
   0   4 -12  131.94   13.40
   0   4 -11  124.87   12.68
   0   4 -10  315.92   19.05
   0   4  -9  106.38   10.59
   0   4  -8  411.07   18.84
   0   4  -8  403.44   20.28
   0   4  -7   54.06    6.94
   0   4  -7   36.71    5.60
   0   4  -6  396.30   17.09
   0  -4  -6  399.11   20.07
   0  -4  -5   67.39    7.84
   0   4  -5   82.46    6.68
   0  -4  -4  314.31   16.98
   0   4  -4  352.16   14.45
   0   4  -3  167.34    8.77
   0   4  -2  591.09   20.72
   0  -4  -1  250.62   11.25
   0   4   0 1302.33   45.15
   0  -4   0 1280.05   40.23
   0  -4   1  261.01   11.36
   0   4   1  270.21   15.03
   0  -4   2  588.72   23.30
   0  -4   2  626.34   21.54
   0   4   2  652.31   26.12
   0  -4   3  150.35   10.05
   0  -4   3  186.67   10.56
   0   4   3  181.89   12.00
   0  -4   4  351.56   15.88
   0  -4   4  349.16   16.62
   0   4   4  332.82   17.81
   0   4   5   69.79    7.84
   0  -4   5   97.82    8.60
   0   4   6  368.55   20.31
   0  -4   6  345.94   17.68
   0  -4   7   40.60    6.74
   0   4   7   44.49    8.02
   0   4   8  417.13   25.30
   0   4   9   89.45   13.80
   0   4  10  299.26   28.07
   0   5  -8  194.89   12.65
   0   5  -7  194.20   11.81
   0   5  -6  182.15   10.74
   0   5  -5  103.35    7.82
   0   5  -4  257.54   12.29
   0   5  -3  145.96    8.42
   0  -5  -2  552.90   20.89
   0  -5  -1  244.96   11.79
   0  -5   0  598.30   22.28
   0   5   0  681.23   28.48
   0   5   1  251.84   15.75
   0  -5   1  247.11   11.49
   0  -5   2  545.93   22.89
   0   5   2  540.02   25.58
   0  -5   2  582.30   20.65
   0   5   3  114.65   10.41
   0  -5   3  135.23    9.68
   0   5   4  243.36   15.84
   0  -5   4  234.87   14.18
   0  -5   4  258.56   13.94
   0  -5   5  103.02    8.71
   0   5   5  119.63   11.24
   0   5   6  188.99   14.70
   0   5   7  181.90   15.66
   0   5   8  202.12   17.57
   0   5   9  106.91   15.22
   0   6  -7   80.63    8.01
   0   6  -6  250.51   13.27
   0   6  -5  125.27    8.79
   0  -6  -3  188.67   11.00
   0  -6  -2  198.12   10.90
   0   6  -1  257.62   17.44
   0  -6  -1  268.67   12.90
   0  -6   0  149.16    8.92
   0   6   0  158.41   12.97
   0   6   1  231.95   16.44
   0  -6   1  240.54   14.15
   0  -6   1  233.15   11.52
   0  -6   2  154.16   11.39
   0  -6   2  177.67    9.48
   0   6   2  170.93   13.93
   0   6   3  186.27   14.40
   0  -6   3  174.29   12.12
   0  -6   4  280.30   15.84
   0   6   4  298.86   18.97
   0   6   5  105.17   12.12
   0   6   6  281.61   19.46
   0   6   7   83.15   11.88
   0  -7  -5  102.04    9.16
   0  -7  -4   99.12    8.83
   0  -7  -3  141.09    9.98
   0   7  -2  155.15   14.89
   0  -7  -2  143.53    9.74
   0   7  -1  211.47   16.93
   0  -7  -1  220.63   12.10
   0   7   0  115.50   12.92
   0  -7   0  136.46    8.85
   0   7   1  252.49   18.30
   0  -7   1  207.88   11.22
   0  -7   2  119.94    7.85
   0   7   2  106.40   12.34
   0   7   3  123.48   13.45
   0   7   4  103.35   12.49
   0   7   5  129.23   14.03
  -1   0 -13  144.83   12.15
  -1   0 -12   -2.03    4.51
   1   0 -12    0.80    4.85
  -1   0 -11  353.77   18.36
   1   0 -11  320.16   18.95
  -1   0 -10   -0.59    3.53
   1   0 -10   -1.43    4.22
  -1   0  -9  701.10   27.72
   1   0  -9  681.33   29.50
  -1   0  -8    1.96    3.17
   1   0  -8    6.14    4.89
  -1   0  -7  801.63   29.35
   1   0  -7  798.32   32.84
   1   0  -6   -1.96    3.32
   1   0  -5 1550.85   52.85
   1   0  -4    0.53    2.96
   1   0  -3 1423.94   46.81
   1   0  -2    1.54    2.74
   1   0  -1 1298.51   37.70
   1   0  -1 1323.40   39.17
   1   0   0   -0.06    0.63
  -1   0   0    0.06    0.59
   1   0   1 1422.45   42.88
   1   0   2    0.40    2.76
   1   0   3 1751.77   58.50
  -1  -1 -13  226.16   15.40
  -1   1 -13  229.28   15.84
  -1   1 -13  251.46   15.96
  -1  -1 -12    4.01    4.65
   1   1 -12    7.27    5.15
  -1   1 -12    2.79    4.45
   1  -1 -12    5.74    5.41
   1   1 -12    3.27    5.98
  -1   1 -12    7.23    4.93
   1   1 -11  374.03   19.82
   1   1 -11  340.25   19.71
  -1  -1 -11  328.77   18.22
  -1   1 -11  357.07   18.82
  -1   1 -10    1.24    3.69
   1   1 -10    4.41    4.57
  -1   1  -9  561.06   23.53
   1   1  -9  493.81   23.98
   1  -1  -8   12.67    4.47
   1   1  -8   11.00    6.58
  -1   1  -8   14.77    4.46
   1   1  -8   19.95    4.82
  -1   1  -7  958.77   33.36
   1   1  -7  935.75   34.86
   1  -1  -7  961.28   35.29
  -1   1  -6   26.62    4.10
   1   1  -6   38.70    8.76
   1   1  -6   32.60    4.97
   1  -1  -6   23.19    4.48
   1   1  -5  595.18   28.90
   1  -1  -5  520.57   21.42
  -1   1  -5  543.60   20.27
   1  -1  -4   28.47    3.95
  -1   1  -4   31.13    3.49
   1  -1  -3 1248.10   39.62
   1   1  -3 1285.84   39.97
  -1   1  -3 1267.43   38.44
   1   1  -2   15.04    2.30
  -1   1  -2   13.30    1.63
   1   1  -2   13.12    2.26
   1  -1  -2   10.44    2.17
   1   1  -1 2713.00   76.57
   1   1  -1 2594.76   76.55
   1  -1  -1 2675.55   76.61
   1   1  -1 2687.53   76.87
   1   1   0    2.17    1.36
  -1  -1   0    2.60    1.36
   1   1   1 2683.01   77.84
  -1  -1   1 2682.84   78.24
  -1  -1   1 2730.12   77.86
   1  -1   1 2741.83   76.56
  -1  -1   1 2713.66   78.03
  -1  -1   2    9.95    2.00
   1  -1   2   12.87    1.94
   1   1   2   15.13    2.26
  -1  -1   2   13.81    2.42
   1   1   3 1147.37   37.09
   1  -1   3 1140.25   34.98
   1   1   4   21.80    4.36
   1   1   5  552.67   26.41
   1   1   6   35.97    7.81
   1   1   7  937.20   44.86
   1   1   8   19.04    8.52
  -1  -2 -13  181.29   14.11
  -1   2 -13  188.99   15.01
   1   2 -12   -0.84    5.39
  -1   2 -12    5.54    5.34
   1   2 -12    4.55    5.80
   1   2 -11  353.10   20.83
   1   2 -11  382.29   21.51
  -1   2 -11  394.35   20.53
  -1   2 -10   15.41    4.96
   1   2 -10   13.84    5.48
   1   2 -10   17.28    5.76
  -1   2  -9  470.93   21.62
   1   2  -9  463.37   23.12
   1   2  -9  482.00   23.07
   1   2  -8   72.54    8.15
   1   2  -8   57.12   12.37
   1  -2  -8   62.22    7.73
  -1   2  -8   71.00    7.22
   1   2  -8   76.34    8.03
   1   2  -8   65.74    6.70
   1   2  -7  519.61   31.29
  -1   2  -7  453.30   19.94
   1  -2  -7  455.78   21.46
   1   2  -7  478.00   21.55
   1   2  -7  472.98   19.33
   1   2  -7  512.35   22.46
   1   2  -6  121.30    8.88
  -1   2  -6  110.74    7.78
   1  -2  -6   96.85    8.20
   1   2  -6   89.74    8.04
   1   2  -6  105.05    7.35
   1  -2  -5 1260.46   40.91
   1   2  -5 1152.78   38.47
   1   2  -5 1157.91   40.25
  -1   2  -5 1212.26   38.78
   1  -2  -4   77.74    6.22
   1   2  -4   75.72    5.54
  -1   2  -4   73.80    5.27
  -1   2  -3 1363.96   39.21
  -1   2  -3 1269.88   40.25
   1   2  -3 1324.74   40.96
   1  -2  -3 1270.22   41.72
  -1   2  -2   31.26    2.44
   1   2  -2   31.67    3.58
   1  -2  -2   33.06    3.86
  -1   2  -1 1272.32   36.67
  -1  -2   0   22.55    2.79
   1  -2   0   20.56    1.80
   1  -2   1 1077.67   31.95
  -1  -2   1 1100.95   35.16
  -1  -2   1 1143.24   34.40
   1   2   1 1176.60   35.87
  -1  -2   2   20.55    3.23
   1  -2   2   17.80    2.46
   1   2   2   23.79    3.23
  -1  -2   2   18.83    3.07
  -1  -2   2   20.29    2.89
  -1  -2   3 1215.88   38.26
   1  -2   3 1200.44   37.86
   1  -2   3 1187.09   36.73
   1   2   3 1199.48   39.07
  -1  -2   3 1173.57   38.74
  -1  -2   4   65.08    5.79
   1   2   4   76.06    6.59
   1  -2   4   76.66    5.82
   1   2   5 1170.51   40.93
   1  -2   5 1107.81   37.65
   1   2   6   96.23    9.71
   1   2   7  490.65   27.73
   1   2   8   47.73   11.12
   1   2   9  483.71   33.60
   1   2  10    8.26   10.28
   1   3 -12   88.59   11.56
  -1   3 -12   78.77    9.80
   1   3 -11  267.41   18.64
  -1   3 -11  263.33   16.90
   1   3 -10   80.24   10.18
  -1   3 -10   79.75    9.34
  -1   3  -9  386.62   19.23
  -1   3  -9  360.15   16.87
   1   3  -9  375.63   20.43
  -1   3  -8   28.91    5.57
   1   3  -8   26.06    6.05
  -1   3  -8   39.50    5.29
   1   3  -8   34.12    5.85
   1  -3  -7  639.20   27.23
   1   3  -7  645.73   27.34
   1   3  -7  667.96   25.33
  -1   3  -7  655.07   24.02
  -1   3  -7  642.04   25.79
   1  -3  -6   15.68    3.96
  -1   3  -6   10.27    3.83
   1   3  -6   17.70    4.09
  -1   3  -6   16.53    3.36
   1   3  -6   10.57    4.30
   1   3  -5  496.73   21.01
   1   3  -5  464.37   19.15
   1  -3  -5  491.90   21.24
  -1   3  -5  521.45   18.26
  -1   3  -5  464.17   19.23
  -1   3  -4   82.70    5.46
   1   3  -4   98.12    6.82
   1  -3  -4   94.18    7.47
   1   3  -4   85.08    7.16
   1   3  -3  872.27   29.13
   1  -3  -3  877.49   30.95
  -1   3  -3  846.58   27.23
  -1   3  -2  255.96    9.80
   1   3  -2  261.29   11.54
   1   3  -1 1183.14   37.09
  -1  -3  -1 1169.14   37.32
  -1  -3   0  210.31    9.58
   1  -3   0  191.03    7.88
  -1  -3   1 1223.05   38.36
   1  -3   1 1190.56   36.00
   1   3   1 1243.70   41.06
  -1  -3   1 1240.39   39.72
   1  -3   2  256.71   11.56
  -1  -3   2  250.39   12.45
   1   3   2  276.12   13.50
  -1  -3   2  268.88   11.55
  -1  -3   3  787.20   28.65
  -1  -3   3  803.99   27.08
   1  -3   3  828.19   27.51
  -1  -3   3  799.80   28.66
   1   3   3  817.50   29.93
  -1  -3   4   91.62    6.85
   1  -3   4   80.71    6.01
  -1  -3   4   83.43    7.05
   1   3   4   78.28    7.11
   1  -3   4   72.05    6.37
  -1  -3   5  494.74   20.81
   1  -3   5  468.74   20.01
   1   3   5  506.04   22.49
   1   3   6   24.46    5.50
   1  -3   6   20.48    4.56
   1   3   7  620.29   30.01
   1   3   8   32.16    8.53
   1   3   9  383.63   28.72
   1   3  10   83.68   18.01
   1   3  11  241.64   28.41
   1   4 -11  222.57   17.20
  -1   4 -11  218.24   15.49
  -1   4 -10   56.45    8.27
   1   4 -10   71.63   10.19
   1   4  -9  397.96   21.10
  -1   4  -9  344.43   18.63
   1   4  -8  113.03    9.68
  -1   4  -8  126.64   10.27
   1   4  -8  113.55   10.81
  -1   4  -8  123.58    9.03
   1   4  -7  341.29   16.47
   1   4  -7  318.18   17.70
  -1   4  -7  337.91   15.27
   1  -4  -6  135.82   10.91
  -1   4  -6  125.00    8.12
   1   4  -6  113.02    8.66
   1   4  -5  484.48   19.38
   1  -4  -5  427.64   20.96
  -1   4  -5  452.00   17.56
   1   4  -4   94.63    7.20
   1  -4  -4   79.22    8.11
  -1   4  -4   97.74    6.22
   1   4  -3  472.42   18.64
  -1   4  -3  477.00   16.88
   1   4  -2  156.06    8.89
   1  -4  -1  720.72   23.83
  -1  -4  -1  729.92   25.71
   1   4   0  302.72   16.52
   1  -4   0  298.88   11.77
  -1  -4   0  314.43   13.53
  -1  -4   1  745.11   28.08
  -1  -4   1  770.94   26.84
   1   4   1  794.48   30.55
   1  -4   1  777.01   24.73
   1  -4   2  144.35    8.68
   1   4   2  148.04   10.44
  -1  -4   2  135.45    8.15
  -1  -4   2  129.49    9.01
  -1  -4   3  570.75   22.33
   1   4   3  511.10   23.23
  -1  -4   3  553.94   20.49
  -1  -4   3  519.63   22.10
   1  -4   3  545.63   21.03
   1   4   4  111.16    9.46
   1  -4   4   88.19    7.78
   1  -4   4   89.35    7.02
  -1  -4   4  111.43    8.67
  -1  -4   4  105.91    8.26
   1  -4   5  432.03   19.58
  -1  -4   5  448.40   20.27
  -1  -4   5  436.55   19.20
   1   4   5  424.04   21.13
   1  -4   6  111.80    9.48
   1   4   6  122.11   11.09
  -1  -4   6  112.44    9.93
   1  -4   7  302.51   16.66
   1   4   7  320.39   19.96
   1   4   8  116.99   13.17
   1   4   9  361.47   26.81
   1   4  10   54.75   14.62
  -1   5  -8  119.98    9.18
  -1   5  -7  374.90   16.86
   1   5  -7  370.86   18.01
  -1   5  -6  117.47    8.17
   1   5  -6  121.29    9.30
  -1   5  -5  295.19   13.04
   1   5  -5  294.45   14.58
  -1   5  -4  167.20    8.83
   1   5  -4  176.32   10.34
   1   5  -3  341.79   15.17
  -1  -5  -2  223.16   11.76
   1  -5  -2  205.95   10.12
  -1  -5  -1  356.08   15.69
   1  -5  -1  360.04   14.23
   1   5   0  182.11   13.10
   1  -5   0  160.07    8.25
  -1  -5   0  172.78    9.72
   1  -5   1  384.27   14.42
   1   5   1  357.67   19.74
  -1  -5   1  417.60   18.54
  -1  -5   1  380.31   16.32
   1   5   2  218.27   14.44
   1  -5   2  211.87   11.99
  -1  -5   2  212.10   12.76
  -1  -5   2  197.15   10.71
   1  -5   3  332.52   15.99
  -1  -5   3  363.07   15.20
  -1  -5   3  343.86   17.24
   1   5   3  312.51   18.20
  -1  -5   3  346.84   17.08
   1  -5   4  150.81   10.19
   1  -5   4  153.34   11.00
   1   5   4  159.84   12.87
  -1  -5   4  151.60   11.01
  -1  -5   4  129.23   10.70
   1   5   5  292.20   17.91
   1  -5   5  291.13   16.27
   1  -5   5  309.79   15.07
  -1  -5   5  320.11   16.23
   1   5   6  134.45   12.46
   1   5   7  384.72   23.16
   1   5   8  113.97   14.06
   1   5   9  213.50   20.26
  -1   6  -6  170.77   10.15
   1   6  -6  182.93   11.81
   1   6  -5  164.74   10.80
  -1   6  -5  165.72    9.32
  -1  -6  -4  165.79   11.06
  -1  -6  -3  227.60   12.74
   1  -6  -3  228.55   11.63
  -1  -6  -2  138.47    9.67
   1  -6  -2  155.03    8.92
  -1  -6  -1  284.91   13.92
   1  -6  -1  273.21   12.26
   1   6  -1  271.26   17.93
   1   6   0  233.86   16.33
  -1  -6   0  242.05   12.53
   1  -6   0  216.65   10.55
   1  -6   1  258.72   14.43
  -1  -6   1  266.08   13.13
   1   6   1  252.63   17.20
  -1  -6   1  271.68   15.35
   1  -6   1  255.65   11.25
   1  -6   2  123.32   10.04
  -1  -6   2  133.20    8.93
   1   6   2  136.15   12.33
  -1  -6   2  147.97   11.35
   1   6   3  237.48   16.11
   1  -6   3  227.30   13.53
  -1  -6   3  216.91   11.62
   1  -6   4  128.14   10.22
   1   6   4  157.02   13.72
   1  -6   5  158.65   11.22
   1   6   5  180.64   14.84
   1   6   6  190.70   16.08
   1   6   7  126.80   13.94
  -1  -7  -6   97.94    9.95
   1  -7  -5   94.07    8.75
  -1  -7  -5  116.18   10.06
   1  -7  -4  149.27   10.41
  -1  -7  -4  178.46   12.01
   1  -7  -3  129.45    8.96
  -1  -7  -3  125.30    9.82
   1  -7  -2  191.26   10.49
  -1  -7  -2  163.65   11.28
   1   7  -2  186.53   16.43
  -1  -7  -1   96.24    8.44
   1  -7  -1  109.71    7.46
   1   7   0  140.33   14.55
   1  -7   0  141.39    8.31
  -1  -7   0  132.84    9.78
  -1  -7   1  111.44    8.53
   1   7   1  111.89   12.75
  -1  -7   2  190.98   11.25
   1   7   2  193.78   16.11
   1   7   3  146.11   14.08
   1   7   4  146.57   14.65
   1   7   5  100.56   12.46
  -2   0 -13    2.57    4.47
  -2   0 -12  235.78   14.50
   2   0 -12  199.92   15.72
   2   0 -11   -4.07    4.72
  -2   0 -11   -0.57    3.61
   2   0 -10  442.60   23.09
  -2   0 -10  445.88   20.11
   2   0  -9   -1.47    3.93
  -2   0  -9    1.45    3.18
   2   0  -8  755.20   31.65
  -2   0  -8  712.64   30.53
  -2   0  -8  713.50   26.89
  -2   0  -7    0.37    2.39
   2   0  -7   -1.41    3.96
  -2   0  -7    2.70    3.86
   2   0  -6 1009.13   37.06
  -2   0  -6  988.97   36.61
  -2   0  -6  941.01   32.01
  -2   0  -5   -0.49    1.80
  -2   0  -5   -0.55    2.77
   2   0  -5    0.56    3.02
  -2   0  -4  910.65   33.25
   2   0  -4  921.02   33.43
  -2   0  -4  921.06   28.58
  -2   0  -3    0.21    1.01
   2   0  -3   -0.77    2.58
  -2   0  -3   -0.38    2.48
   2   0  -2 1276.42   41.66
   2   0  -2 1344.02   40.44
  -2   0  -2 1421.86   42.03
   2   0  -1   -0.80    1.15
   2   0  -1    1.60    1.64
  -2   0  -1    1.15    1.27
   2   0   0 3353.88   96.23
   2   0   0 3429.68   95.96
  -2   1 -13    2.86    4.77
   2   1 -12  361.77   21.30
   2  -1 -12  323.50   20.68
   2   1 -12  352.29   20.78
  -2  -1 -12  343.57   18.18
  -2   1 -12  393.16   19.63
   2   1 -11    2.53    5.17
  -2   1 -11    2.99    4.03
   2   1 -11    4.76    5.12
  -2  -1 -11    5.07    4.01
  -2   1 -10  418.43   19.27
  -2  -1 -10  381.61   18.59
   2   1 -10  373.94   20.30
   2   1 -10  406.38   21.77
   2   1  -9    6.13    4.45
  -2   1  -9    8.73    3.73
   2   1  -9   11.87    5.38
  -2   1  -8  607.03   23.43
   2   1  -8  565.53   29.77
   2  -1  -8  548.39   25.05
  -2   1  -8  552.09   29.15
   2   1  -8  569.97   25.87
  -2  -1  -8  587.01   25.29
  -2   1  -7   11.54    6.19
   2   1  -7   13.28    6.43
  -2  -1  -7   14.16    4.23
  -2   1  -7    9.18    3.53
   2  -1  -7   22.37    5.22
   2  -1  -6  817.15   30.37
   2   1  -6  755.44   36.68
  -2  -1  -6  794.57   29.98
  -2   1  -6  770.31   36.22
  -2   1  -6  823.62   27.98
  -2   1  -5   11.30    5.38
  -2   1  -5    7.47    2.30
   2   1  -5    2.98    4.64
   2  -1  -5    6.31    2.96
  -2  -1  -5    4.09    2.45
   2   1  -4 1171.85   40.62
   2   1  -4 1297.12   41.82
   2  -1  -4 1224.43   40.49
   2   1  -4 1282.65   39.95
  -2  -1  -4 1327.17   40.69
   2   1  -3    8.15    2.58
   2   1  -3    4.30    2.37
   2   1  -3    8.17    2.28
  -2  -1  -3    9.50    2.21
   2  -1  -3   11.36    2.36
   2   1  -2 1835.85   56.28
  -2   1  -2 1876.64   52.78
   2   1  -2 1866.23   56.29
   2   1  -2 1827.57   55.91
   2  -1  -2 1884.66   55.18
  -2  -1  -2 1895.62   55.07
   2   1  -1   92.44    5.01
  -2  -1  -1   82.69    4.46
   2  -1  -1   80.53    4.45
   2   1  -1   88.89    5.43
   2   1  -1   86.99    5.37
  -2  -1   0  959.61   30.35
   2  -1   0  997.83   28.24
   2   1   0  950.19   30.31
   2   1   1   88.92    4.59
  -2  -1   1   90.53    5.52
  -2  -1   1   84.34    5.41
  -2  -1   2 1935.49   57.46
  -2  -1   2 1929.34   57.26
   2   1   2 1910.88   56.96
   2   1   3    3.66    2.02
   2  -1   3    7.09    1.66
   2   1   4 1167.42   41.52
   2   1   5   -0.86    4.94
   2   1   6  773.82   37.44
  -2   1   6  771.43   36.86
  -2   1   7   12.40    7.26
   2   1   7   16.83    7.39
  -2   2 -12  183.81   13.54
   2   2 -12  203.71   15.88
  -2   2 -11   19.48    5.57
   2   2 -11   19.07    6.53
   2   2 -11   14.86    6.23
  -2   2 -10  354.72   17.88
   2   2 -10  303.15   19.14
   2   2 -10  341.77   19.86
  -2   2  -9   17.84    4.51
   2   2  -9   20.91    5.95
   2   2  -8  552.18   25.23
   2   2  -8  520.72   33.75
  -2   2  -8  585.26   22.85
   2   2  -8  536.34   22.73
  -2  -2  -8  541.78   24.67
   2   2  -8  518.74   25.15
  -2   2  -8  530.29   33.11
   2  -2  -8  598.09   25.54
  -2   2  -7   25.24    9.18
   2  -2  -7   29.84    5.57
   2   2  -7   30.54   10.15
   2   2  -7   30.92    5.08
   2   2  -7   22.41    5.27
  -2   2  -7   27.01    4.52
  -2  -2  -7   26.59    4.98
   2  -2  -6 1160.66   39.87
  -2   2  -6 1105.25   36.79
   2   2  -6 1149.27   40.41
  -2  -2  -6 1082.41   39.26
   2   2  -6 1102.79   37.92
   2   2  -5   88.27    7.78
   2  -2  -5   82.25    7.06
  -2  -2  -5   90.45    7.21
   2   2  -5  100.88    7.07
  -2   2  -5   88.42    5.84
   2   2  -4 1440.42   45.61
  -2   2  -4 1340.99   41.68
   2  -2  -4 1393.81   44.42
  -2  -2  -4 1337.50   44.16
   2   2  -3   86.12    6.38
  -2  -2  -3   89.62    6.18
   2  -2  -3   73.22    5.83
   2  -2  -2  788.75   26.30
   2   2  -2  785.41   26.91
  -2  -2  -2  776.95   26.18
  -2   2  -2  762.61   22.63
  -2  -2  -1   42.41    3.94
  -2  -2   0  826.41   27.28
  -2  -2   1   33.81    3.96
   2   2   1   41.96    4.11
  -2  -2   1   37.91    4.08
   2  -2   2  677.81   21.01
  -2  -2   2  638.70   23.65
  -2  -2   2  649.91   23.18
   2   2   2  706.34   23.74
  -2  -2   3   81.73    6.37
  -2  -2   3   83.93    6.12
   2   2   3   81.30    6.17
  -2  -2   3   81.52    5.78
   2   2   4 1445.18   46.01
   2  -2   4 1336.33   43.15
  -2   2   5   74.61    7.56
   2  -2   5   80.38    6.05
   2   2   5   84.72    8.07
   2   2   6 1040.63   42.11
  -2   2   6 1069.51   41.80
   2   2   7   19.05    6.40
  -2   2   7   23.41    7.20
  -2   2   8  562.93   33.95
   2   2   8  582.54   34.62
  -2   2   9   16.57    9.88
   2   2   9   26.22   10.22
   2   2  10  282.17   27.36
  -2   2  10  358.45   29.88
  -2   3 -12  235.04   15.50
  -2   3 -11   27.89    6.34
   2   3 -11   24.20    7.37
  -2   3 -10  275.58   15.67
   2   3 -10  271.83   18.29
  -2   3  -9   45.55    6.59
   2   3  -9   55.48    8.35
   2   3  -8  407.00   19.29
   2   3  -8  428.19   21.88
  -2   3  -8  411.47   18.63
   2  -3  -7   91.74    8.99
  -2  -3  -7  100.87    9.19
  -2   3  -7  109.53    7.91
   2   3  -7   97.24    9.40
   2   3  -7  102.85    8.61
   2   3  -6  619.57   24.89
   2  -3  -6  625.93   26.21
  -2   3  -6  665.52   22.57
  -2   3  -6  623.00   23.55
   2   3  -6  698.65   27.64
  -2  -3  -6  622.95   26.20
  -2  -3  -5   96.18    8.05
  -2   3  -5   92.29    5.71
   2   3  -5   83.78    7.99
   2  -3  -5   93.40    8.02
   2   3  -5   93.99    7.52
   2  -3  -4  867.00   32.96
  -2  -3  -4  891.38   32.88
   2   3  -4  919.01   32.18
  -2   3  -4  966.73   29.07
  -2   3  -3  109.46    5.18
  -2  -3  -3  116.98    8.11
   2  -3  -3  101.67    7.72
   2   3  -3  106.29    7.48
  -2   3  -2  899.04   26.81
   2   3  -2  952.69   31.24
  -2  -3  -1   99.60    6.80
   2   3  -1   98.35    6.78
  -2  -3   0  410.79   16.66
   2  -3   0  428.20   13.19
   2   3   1   96.07    7.50
  -2  -3   1   98.94    7.02
  -2  -3   1  113.66    7.69
  -2  -3   2  931.47   32.72
  -2  -3   2  949.38   31.75
   2   3   2  955.07   33.05
   2  -3   2  934.20   30.22
   2  -3   3  101.61    6.39
  -2  -3   3  113.20    7.57
  -2  -3   3  108.32    7.88
  -2  -3   3  112.71    8.14
   2   3   3  115.50    8.48
  -2   3   3  118.08    8.45
  -2  -3   4  889.80   31.28
  -2   3   4  862.16   31.95
   2  -3   4  836.11   30.34
  -2  -3   4  871.52   31.72
   2   3   4  916.35   32.60
   2   3   5  102.63    8.97
  -2  -3   5   99.63    8.56
   2  -3   5   92.48    7.48
  -2   3   5  102.04    8.82
  -2   3   6  598.49   27.28
   2   3   6  615.75   27.71
   2  -3   6  612.68   23.97
  -2   3   7   97.86   11.10
   2   3   7  112.29   11.77
   2   3   8  410.39   26.51
  -2   3   8  400.14   25.79
  -2   3   9   19.02    9.90
   2   3   9   31.67   10.67
  -2   3  10  238.55   26.62
   2   3  10  292.62   28.32
  -2   3  11   35.60   14.58
   2   3  11   31.40   15.60
  -2   4 -11   66.62    8.55
   2   4 -11   64.12   10.50
   2   4 -10  245.13   17.85
   2   4  -9   86.15   10.85
  -2   4  -9   83.28    7.78
  -2   4  -8  329.60   15.55
   2   4  -8  374.48   20.49
   2   4  -7   91.34    8.88
  -2   4  -7  105.95    7.45
   2   4  -7   99.55   10.10
   2  -4  -6  386.56   19.98
   2   4  -6  410.23   20.41
  -2   4  -6  399.43   15.92
   2   4  -6  415.87   18.81
  -2  -4  -6  388.42   19.80
  -2  -4  -5  167.79   12.16
   2  -4  -5  178.21   12.41
   2   4  -5  196.81   11.66
   2  -4  -4  397.16   19.27
  -2  -4  -4  405.18   19.26
  -2   4  -4  403.39   14.62
   2   4  -4  420.28   17.97
   2   4  -3  188.59   10.42
  -2   4  -3  158.82    7.09
   2   4  -2  604.32   22.49
  -2  -4  -2  563.39   22.32
  -2  -4  -1   94.11    6.99
   2  -4  -1   84.08    4.82
  -2  -4   0  970.55   33.92
   2   4   0 1012.77   37.30
  -2   4   0 1008.05   36.59
   2  -4   0 1005.58   30.08
  -2  -4   1  103.41    8.15
  -2  -4   1   90.26    7.12
  -2   4   1  104.95    8.74
   2   4   1  112.93    9.28
   2   4   2  666.16   26.32
  -2  -4   2  616.20   24.68
  -2  -4   2  626.14   23.40
  -2   4   2  596.69   25.20
   2  -4   2  608.10   22.43
  -2  -4   3  194.89   11.82
  -2  -4   3  202.43   10.94
   2  -4   3  195.70   10.22
  -2   4   3  202.04   12.69
   2   4   3  196.22   12.67
  -2  -4   3  207.16   12.22
  -2   4   4  472.25   21.56
  -2  -4   4  473.27   20.53
   2  -4   4  443.46   19.32
  -2  -4   4  457.68   20.11
   2  -4   4  439.67   17.59
   2   4   4  446.83   21.48
   2  -4   5  190.83   11.94
   2   4   5  203.69   13.43
  -2  -4   5  209.70   12.85
  -2   4   5  181.18   12.76
  -2  -4   5  186.91   11.83
   2   4   6  356.17   19.99
  -2   4   6  339.19   19.40
  -2  -4   6  334.13   17.93
   2  -4   6  317.86   16.46
   2   4   7   75.67   10.06
   2  -4   7   82.51    8.41
  -2   4   7   92.38   10.92
  -2   4   8  309.38   21.61
   2   4   8  311.58   21.83
   2   4   9   41.83   11.33
  -2   4   9   95.84   14.44
   2   4  10  250.18   26.10
  -2   4  10  221.25   24.76
  -2   5  -8  208.74   11.88
  -2   5  -7  143.30    8.98
  -2   5  -6  240.81   11.26
   2   5  -6  245.76   14.06
   2   5  -5  101.57    8.88
  -2   5  -5  103.75    6.50
  -2   5  -4  309.26   11.79
   2   5  -4  303.24   15.22
   2   5  -3  139.27    9.62
  -2  -5  -3  141.12    9.75
   2  -5  -2  410.06   15.71
  -2  -5  -2  453.03   18.93
  -2  -5  -1  241.69   12.50
   2  -5  -1  208.16    9.29
  -2   5   0  361.69   19.61
   2   5   0  392.77   20.38
   2  -5   0  385.63   13.51
  -2  -5   0  377.54   16.99
   2   5   1  255.04   15.91
  -2  -5   1  243.95   12.66
  -2  -5   1  225.31   13.64
  -2   5   1  253.72   15.45
   2  -5   1  232.75    8.77
  -2  -5   2  479.44   19.78
  -2  -5   2  509.18   21.91
   2  -5   2  449.31   19.25
   2   5   2  458.97   22.74
  -2   5   2  492.46   23.14
   2   5   3  151.59   12.08
   2  -5   3  146.86    9.42
  -2   5   3  149.66   11.88
  -2  -5   3  134.40    9.22
  -2  -5   3  151.16   11.22
   2  -5   4  294.59   15.63
  -2  -5   4  305.14   16.50
   2  -5   4  303.19   14.46
  -2   5   4  309.72   18.06
   2   5   4  326.02   18.42
  -2   5   5  101.03   10.33
   2   5   5  113.97   11.01
  -2  -5   5   86.67    8.83
   2  -5   5  117.56    9.92
   2   5   6  273.88   17.81
  -2   5   6  246.63   17.04
  -2   5   7  164.86   15.05
   2   5   7  147.35   14.43
  -2   5   8  163.19   16.38
   2   5   8  169.12   16.57
  -2   5   9   80.89   13.53
   2   5   9   87.21   14.62
   2   6  -5  180.03   12.16
  -2  -6  -4  250.09   14.17
   2   6  -4  230.19   13.45
  -2  -6  -3  198.51   12.38
   2  -6  -3  195.71   10.14
  -2  -6  -2  192.18   11.92
   2  -6  -2  187.56    9.26
   2  -6  -1  163.00    8.12
   2   6  -1  167.82   13.83
  -2   6  -1  157.18   13.39
  -2  -6  -1  158.63   10.80
   2   6   0  208.33   15.31
  -2   6   0  201.87   15.01
   2  -6   0  202.14    8.66
  -2  -6   0  202.51   12.05
   2   6   1  168.48   14.01
  -2  -6   1  163.40   10.53
  -2  -6   2  180.74   11.16
  -2   6   2  184.77   14.22
   2   6   2  196.01   14.88
   2  -6   2  194.71   11.87
   2  -6   3  193.88   12.29
  -2  -6   3  208.81   11.98
  -2   6   3  192.88   14.90
   2   6   3  188.01   14.94
  -2   6   4  254.61   17.40
   2  -6   4  218.48   13.12
   2   6   4  282.45   18.25
  -2   6   5  171.67   14.71
   2   6   5  186.21   15.27
   2  -6   5  155.89   10.84
   2   6   6  182.19   15.82
  -2   6   6  166.45   14.89
   2   6   7   72.13   11.33
  -2   6   7   71.45   11.23
  -2  -7  -6  113.18   10.96
  -2  -7  -5  132.14   11.15
  -2  -7  -4  117.82   10.41
  -2  -7  -3  132.42   10.80
   2   7  -2  117.21   13.34
  -2  -7  -2  103.80    9.17
  -2   7  -2  109.59   12.76
  -2   7  -1  166.99   15.19
   2   7  -1  159.69   15.19
  -2  -7  -1  155.54   11.30
  -2  -7   0   71.01    7.48
  -2   7   0   53.01    9.93
   2   7   0   45.73    9.45
  -2  -7   1  155.68   10.94
   2   7   1  153.70   14.84
  -2   7   1  156.66   14.82
   2   7   2   99.10   11.90
  -2   7   2   89.97   11.15
  -2  -7   2   94.09    8.41
  -2  -7   3  150.80   10.43
  -2   7   3  141.16   14.07
   2   7   3  156.87   14.96
  -2   7   4  132.04   13.68
   2   7   4  125.87   13.76
  -2   7   5  134.76   14.37
   2   7   5  137.27   14.47
  -3   0 -12    0.54    3.77
  -3   0 -11  411.10   19.08
   3   0 -11  438.98   23.50
   3   0 -10   -3.37    5.30
  -3   0 -10   -0.94    3.15
  -3   0  -9  560.69   21.87
   3   0  -9  512.23   25.53
   3   0  -8    2.25    4.53
  -3   0  -8    1.39    3.92
  -3   0  -8   -0.37    2.58
  -3   0  -7  569.69   24.46
  -3   0  -7  514.24   19.75
   3   0  -7  557.11   24.82
  -3   0  -6   -0.58    3.34
  -3   0  -6    1.48    1.85
   3   0  -6   -0.61    3.90
  -3   0  -5 1091.00   39.71
  -3   0  -5 1171.66   35.21
   3   0  -5 1170.57   40.72
  -3   0  -4   -0.41    2.56
   3   0  -4   -0.59    2.28
   3   0  -4   -0.87    2.52
  -3   0  -4   -0.33    1.07
   3   0  -3 1380.74   43.50
   3   0  -3 1310.59   42.15
  -3   0  -3 1395.35   43.29
   3   0  -2   -0.23    2.01
  -3   0  -2    1.20    1.53
   3   0  -2    0.21    1.50
  -3   0  -1 1616.28   45.41
   3   0  -1 1607.94   47.42
  -3   0  -1 1595.24   45.99
   3   0  -1 1540.91   45.45
   3   0  -1 1591.08   47.83
   3   0   0    1.23    1.74
  -3   0   0    0.52    1.20
   3   0   0    0.91    1.27
  -3  -1 -12    4.25    3.92
  -3   1 -12   -0.61    4.05
   3   1 -11  195.01   15.49
  -3  -1 -11  199.82   12.04
   3   1 -11  208.22   15.25
  -3   1 -11  210.64   12.92
   3   1 -10   -0.78    4.11
   3   1 -10    0.85    4.24
  -3  -1 -10    0.46    3.38
  -3  -1  -9  372.84   16.74
   3   1  -9  396.74   21.36
   3   1  -9  376.23   19.92
  -3   1  -8   16.40    5.86
   3   1  -8   20.39    6.89
   3  -1  -8   20.16    5.24
  -3  -1  -8   14.13    4.56
   3  -1  -7 1176.00   40.64
  -3  -1  -7 1111.57   39.99
  -3   1  -7 1037.35   45.04
   3   1  -7 1063.20   46.49
   3   1  -7 1154.64   39.01
   3   1  -6   62.68   10.06
  -3  -1  -6   75.23    6.80
  -3   1  -6   67.65    9.86
   3   1  -6   74.22    7.61
   3   1  -6   70.06    6.54
   3  -1  -6   74.69    6.88
  -3  -1  -5 1147.99   38.70
   3   1  -5 1248.66   41.41
   3  -1  -5 1193.55   39.16
  -3   1  -5 1103.76   45.64
   3   1  -5 1162.52   40.05
   3   1  -5 1180.05   38.88
   3  -1  -4   60.77    5.23
  -3  -1  -4   59.77    5.04
   3   1  -4   39.04   39.82
   3   1  -4   50.23    5.41
  -3   1  -4   59.38    8.18
   3   1  -4   63.57    5.46
   3   1  -4   55.33    8.61
   3   1  -3 1239.50   40.28
  -3   1  -3 1269.59   36.02
   3   1  -3 1176.41   40.87
   3   1  -3 1284.89   41.27
   3  -1  -3 1309.13   39.54
  -3  -1  -3 1230.04   39.20
   3  -1  -2    2.52    1.68
   3   1  -2    2.06    1.97
   3  -1  -2    2.77    1.61
  -3  -1  -2    0.88    1.36
   3   1  -2    2.65    2.30
   3   1  -2    2.48    1.95
  -3   1  -1  764.70   22.93
  -3  -1  -1  768.67   23.12
   3   1  -1  773.73   24.90
   3   1  -1  766.09   25.59
   3  -1  -1  772.90   23.74
   3  -1  -1  722.11   23.68
  -3  -1  -1  762.73   23.61
   3   1  -1  745.92   25.58
   3  -1   0   39.70    2.85
  -3   1   0   47.91    3.01
   3   1   0   44.60    3.20
   3   1   0   48.26    3.07
   3   1   0   47.52    4.25
  -3   1   0   45.42    2.83
  -3  -1   0   51.44    3.68
  -3  -1   0   45.39    4.05
  -3  -1   1  871.34   29.07
  -3   1   1  897.99   27.10
   3   1   1  888.16   27.14
  -3  -1   2    5.70    2.02
  -3   1   2    3.83    1.81
   3   1   2    5.87    1.84
   3  -1   3 1204.11   36.31
   3   1   3 1263.28   40.39
  -3   1   3 1236.68   40.11
  -3   1   4   65.54    7.21
   3   1   4   51.73    6.74
  -3   1   5 1158.88   46.07
   3   1   5 1157.59   46.26
   3   1   6   52.66    9.62
  -3   1   6   83.74   11.07
  -3   1   7 1240.82   54.12
   3   1   7 1220.31   53.88
  -3   2 -12   19.41    5.60
  -3  -2 -11  306.79   16.55
   3   2 -11  341.87   21.23
   3   2 -11  326.32   20.96
   3   2 -10   18.69    6.29
  -3   2 -10   21.49    4.85
   3   2 -10   26.02    7.00
   3   2  -9  377.08   21.01
  -3   2  -9  372.06   17.14
   3   2  -9  361.35   21.01
  -3   2  -8   31.44    9.45
   3  -2  -8   25.56    5.78
  -3  -2  -8   15.79    4.85
   3   2  -8   23.73    5.73
   3   2  -8   16.63    9.29
  -3   2  -8   25.94    4.51
  -3  -2  -7  350.23   17.51
  -3   2  -7  370.32   15.06
   3   2  -7  326.39   16.47
   3  -2  -7  347.26   17.67
   3   2  -7  316.65   25.22
  -3   2  -7  311.32   23.95
   3  -2  -6   34.95    4.83
   3   2  -6   40.74    6.05
  -3  -2  -6   33.71    4.80
  -3   2  -6   30.97    3.70
   3   2  -5 1173.00   40.93
  -3   2  -5 1118.16   35.27
   3  -2  -5 1168.90   39.05
  -3  -2  -5 1144.60   38.89
   3   2  -4   32.50    4.95
   3   2  -4   36.02    4.93
   3  -2  -4   36.83    4.47
  -3  -2  -4   38.57    4.44
   3   2  -3 1349.57   43.26
   3  -2  -3 1308.40   42.01
  -3  -2  -3 1300.52   41.89
   3   2  -3 1276.44   43.50
  -3  -2  -2   57.81    4.80
   3   2  -2   49.62    5.27
   3  -2  -2   56.13    4.80
   3   2  -1  883.81   29.83
   3  -2  -1  888.56   26.52
  -3  -2  -1  850.11   29.62
  -3  -2   0  132.25    8.27
   3   2   0  145.32    8.04
  -3  -2   0  154.95    7.65
  -3   2   0  154.54    7.92
   3   2   1  884.25   27.98
  -3  -2   1  814.19   27.93
  -3   2   1  806.16   27.52
  -3  -2   1  842.76   28.76
  -3  -2   2   56.74    5.63
  -3  -2   2   54.53    5.36
   3  -2   2   62.12    2.98
  -3   2   2   64.27    5.03
   3   2   2   58.21    4.99
  -3  -2   3 1322.41   42.74
   3   2   3 1342.36   42.50
  -3   2   3 1271.97   42.06
  -3  -2   3 1327.03   42.50
   3  -2   4   45.64    4.29
  -3   2   4   47.24    5.34
   3   2   4   46.68    5.38
  -3   2   5 1101.82   39.61
   3   2   5 1039.05   39.54
   3  -2   5 1075.28   34.95
  -3   2   6   27.29    6.48
   3   2   6   28.86    6.39
  -3   2   7  319.40   22.45
   3   2   7  339.54   23.40
  -3   2   8   39.40   10.53
   3   2   8    9.81    8.31
  -3   2   9  322.10   27.32
   3   2   9  353.50   28.61
  -3   3 -11  205.83   13.01
   3   3 -11  206.15   16.88
   3   3 -10   35.12    7.61
   3   3 -10   47.23    8.79
  -3   3 -10   31.49    5.45
   3   3  -9  294.36   18.68
  -3   3  -9  281.69   14.23
   3   3  -9  279.12   18.07
   3   3  -8   60.15    8.50
  -3   3  -8   41.25    5.28
   3   3  -7  559.33   26.21
  -3   3  -7  571.81   21.45
   3   3  -7  563.84   24.21
   3  -3  -7  591.60   25.18
  -3  -3  -7  554.63   24.69
   3   3  -6   83.40    8.90
   3  -3  -6   98.18    8.58
  -3  -3  -6   95.53    8.40
   3   3  -6  111.07    8.94
  -3  -3  -5  618.28   25.19
   3  -3  -5  639.06   25.53
   3   3  -5  632.24   25.08
  -3   3  -4  162.56    6.99
  -3  -3  -4  172.71   10.62
   3  -3  -4  161.71   10.42
   3   3  -4  187.79   10.94
   3  -3  -3  804.58   29.71
  -3  -3  -3  774.92   29.31
  -3   3  -3  826.05   24.31
   3   3  -3  834.69   29.72
   3   3  -2  104.04    7.50
  -3  -3  -2  104.84    7.79
  -3  -3  -1  722.70   26.30
   3   3   0   16.90    3.73
  -3   3   0   18.12    3.71
  -3  -3   0   10.99    3.33
  -3  -3   0   11.03    3.14
   3   3   1  801.94   28.34
  -3  -3   1  744.15   27.79
  -3  -3   1  727.84   26.66
  -3  -3   1  732.64   27.17
  -3   3   1  810.34   28.06
  -3  -3   2  126.70    8.77
   3  -3   2  115.26    6.18
  -3  -3   2  138.02    8.68
  -3  -3   2  125.66    8.34
  -3   3   2  132.55    8.58
   3   3   2  131.76    8.76
  -3   3   3  863.55   30.48
   3   3   3  831.25   30.63
  -3  -3   3  848.57   30.53
  -3  -3   3  807.98   29.37
   3  -3   3  813.24   26.02
  -3  -3   4  175.16   10.70
   3  -3   4  173.74    9.69
   3   3   4  162.06   10.87
  -3   3   4  177.95   10.81
   3  -3   5  611.73   23.37
   3   3   5  621.26   26.48
  -3   3   5  613.15   26.03
  -3   3   6   94.60    9.59
   3  -3   6   83.02    7.16
   3   3   6  101.15   10.13
  -3   3   7  535.07   27.60
   3   3   7  504.81   27.30
  -3   3   8   49.07   10.29
   3   3   8   31.46    9.50
  -3   3   9  229.91   23.06
   3   3   9  245.26   23.83
  -3   3  10   32.07   12.97
   3   3  10   30.89   14.42
   3   4 -10   63.69   10.20
   3   4  -9  288.58   19.23
  -3   4  -9  304.21   14.74
   3   4  -8   79.04   10.12
  -3   4  -8   69.30    6.40
   3   4  -7  372.46   20.42
  -3   4  -7  359.03   15.07
   3  -4  -6   63.11    8.06
  -3  -4  -6   56.52    7.82
  -3   4  -6   74.53    5.47
   3   4  -6   76.47    8.22
   3   4  -6   74.03    8.67
  -3  -4  -5  516.72   23.77
   3  -4  -5  568.74   24.41
  -3   4  -5  551.99   18.85
   3   4  -5  594.72   23.94
  -3   4  -4   88.68    4.61
   3   4  -4   97.20    8.64
   3   4  -3  456.99   19.69
  -3  -4  -2  177.95   10.86
   3   4  -2  170.45   10.61
  -3  -4  -1  468.67   19.48
   3  -4  -1  451.28   14.56
  -3   4   0  325.19   16.17
   3   4   0  284.76   16.02
  -3  -4   0  315.35   15.56
  -3  -4   0  310.21   14.95
  -3  -4   1  485.64   20.14
   3   4   1  511.82   22.36
  -3   4   1  490.76   21.61
  -3  -4   1  490.55   21.12
  -3  -4   1  486.11   20.39
  -3  -4   2  181.44   10.89
  -3  -4   2  162.00   10.96
   3  -4   2  154.20    8.55
  -3   4   2  174.58   11.18
   3   4   2  189.51   11.85
  -3  -4   2  165.34   10.40
   3  -4   3  566.73   20.28
  -3  -4   3  595.19   24.11
  -3  -4   3  547.27   22.40
  -3   4   3  544.29   23.93
   3   4   3  562.17   24.38
  -3   4   4  112.43    9.44
   3   4   4  108.81    9.35
  -3  -4   4  111.24    9.14
   3  -4   4   99.90    6.44
  -3  -4   4  113.03    8.26
  -3   4   5  534.12   24.55
   3   4   5  545.56   24.99
   3  -4   5  553.31   22.53
  -3  -4   5  536.12   23.97
   3  -4   6   65.94    7.13
  -3   4   6   66.61    8.62
   3   4   6   60.15    8.46
   3  -4   7  301.39   16.24
  -3   4   7  328.24   20.61
   3   4   7  353.69   21.28
  -3   4   8   55.50   10.49
   3   4   8   77.43   11.71
  -3   4   9  263.54   23.50
   3   4   9  244.46   23.37
  -3   4  10   45.71   14.54
   3   4  10   58.75   15.67
  -3   5  -7  265.21   12.07
  -3   5  -6  179.99    8.63
   3   5  -5  257.71   14.77
  -3   5  -5  245.08    9.61
   3   5  -4  212.01   13.46
  -3  -5  -4  243.32   13.94
   3   5  -3  357.85   16.86
  -3  -5  -3  329.16   16.78
  -3  -5  -2  151.46   10.53
   3  -5  -1  369.41   12.74
  -3  -5  -1  411.05   18.21
   3   5   0   42.82    6.88
  -3   5   0   48.66    6.72
  -3  -5   0   48.16    6.22
  -3  -5   0   38.64    6.45
  -3  -5   1  450.47   20.48
  -3  -5   1  410.31   19.08
   3   5   1  417.54   21.52
  -3   5   1  394.86   20.63
  -3  -5   1  431.77   19.09
  -3  -5   2  156.46   11.00
  -3  -5   2  148.60   11.57
   3  -5   2  167.06    9.60
  -3   5   2  159.43   11.97
   3   5   2  161.18   12.19
  -3  -5   2  155.46   10.38
  -3  -5   3  386.11   19.05
  -3  -5   3  362.31   18.39
   3  -5   3  365.37   15.75
  -3  -5   3  367.40   17.30
  -3   5   3  363.93   19.41
   3   5   3  374.24   19.94
  -3   5   4  225.23   15.10
   3   5   4  251.43   16.25
   3  -5   4  236.27   11.85
  -3  -5   4  244.68   13.40
   3  -5   5  225.73   13.72
   3   5   5  230.25   15.60
  -3   5   5  236.95   15.59
   3   5   6  194.49   15.30
  -3   5   6  187.02   14.89
  -3   5   7  226.20   17.92
   3   5   7  246.64   18.56
   3   5   8   79.09   12.75
  -3   5   8  104.22   13.76
   3   5   9  146.67   17.98
  -3  -6  -5  248.89   15.26
  -3  -6  -4  179.41   12.85
  -3  -6  -3  211.40   13.37
   3  -6  -3  203.49    9.80
   3  -6  -2  133.37    6.81
  -3  -6  -2  120.47   10.07
  -3   6  -1  180.31   13.71
   3   6  -1  168.38   13.97
   3  -6  -1  154.06    6.60
  -3  -6  -1  160.72   11.26
   3   6   0  168.58   13.91
  -3   6   0  165.86   13.50
  -3  -6   0  170.07   11.65
  -3  -6   1  146.17   10.48
  -3   6   1  127.60   12.06
   3   6   1  140.38   12.88
   3  -6   2  119.33    9.09
  -3  -6   2  130.20    9.93
  -3   6   2  127.89   11.84
   3   6   2  129.66   12.16
   3  -6   3  223.88   12.41
  -3  -6   3  219.86   13.03
  -3   6   3  234.57   15.99
   3   6   3  210.93   15.84
  -3  -6   4  178.16   11.45
   3  -6   4  166.41   10.70
  -3   6   4  179.65   14.58
   3   6   4  150.43   14.08
   3   6   5  233.23   17.41
  -3   6   5  260.64   17.78
   3   6   6  168.96   15.48
  -3   6   6  179.35   15.64
   3   6   7  137.74   15.01
  -3   6   7  151.77   15.16
  -3  -7  -5   70.10    9.06
  -3  -7  -4  185.33   13.42
  -3  -7  -3  129.09   11.09
   3   7  -2  167.63   15.96
  -3   7  -2  157.19   14.72
  -3  -7  -2  163.10   12.17
   3   7  -1  143.81   14.63
  -3   7  -1  131.46   13.86
  -3  -7  -1  134.68   10.87
   3   7   0   87.57   11.72
  -3   7   0  103.44   12.38
  -3  -7   0  101.29    9.53
   3   7   1  151.71   14.54
  -3   7   1  125.57   13.32
  -3  -7   1  135.31   10.87
  -3  -7   2  180.86   12.28
  -3   7   2  173.30   15.17
   3   7   2  184.54   15.91
  -3   7   3  103.15   11.90
  -3  -7   3  115.24    9.79
   3   7   3  122.50   13.07
  -3   7   4  187.28   16.09
   3   7   4  176.76   15.96
   3   7   5   52.08    9.65
  -3  -8  -3   35.16    7.22
  -3  -8  -2  124.88   11.30
  -3  -8  -1   56.14    7.98
  -3  -8   0  130.84   11.14
  -3  -8   1   53.93    7.55
   4   0 -11   -2.72    5.70
   4   0 -10  378.42   21.73
  -4   0  -8  693.22   23.83
   4   0  -8  721.79   30.13
  -4   0  -8  650.81   28.57
   4   0  -7    0.48    3.47
   4   0  -7   -1.31    3.57
  -4   0  -7   -0.60    3.78
   4   0  -6 1047.63   38.10
   4   0  -6 1013.14   35.93
  -4   0  -6 1061.95   37.48
   4   0  -5   -0.40    2.70
   4   0  -5    0.97    2.69
  -4   0  -5   -0.45    2.66
   4   0  -4  857.42   30.54
   4   0  -4  885.55   31.16
  -4   0  -4  946.24   31.17
   4   0  -3   -0.28    1.67
  -4   0  -3    2.11    1.87
   4   0  -3   -0.32    2.32
   4   0  -2  794.66   25.70
  -4   0  -2  844.93   25.78
   4   0  -2  833.95   27.84
  -4   0  -2  812.65   25.32
   4   0  -2  871.14   28.24
   4   0  -1    2.40    2.42
  -4   0  -1    1.62    1.75
   4   0  -1    0.28    0.59
   4   0  -1    2.52    1.90
  -4   0  -1    0.71    0.62
  -4   0  -1   -0.15    1.24
   4   0   0 1689.31   49.86
  -4   0   0 1657.36   50.41
   4   0   0 1650.21   50.32
  -4   0   1    0.73    1.81
  -4   0   2  943.14   30.57
  -4   1 -11    7.57    4.11
   4   1 -11    9.54    6.15
   4   1 -11    9.77    5.52
  -4  -1 -11    6.25    3.64
   4   1 -10  388.46   22.18
   4   1 -10  365.94   20.95
  -4  -1 -10  383.21   16.28
  -4  -1  -9    3.07    2.97
  -4  -1  -8  422.45   16.16
   4  -1  -8  413.30   20.30
  -4  -1  -8  410.48   19.82
   4   1  -8  410.39   23.08
  -4   1  -8  401.90   22.37
   4   1  -7    7.89    3.74
   4  -1  -7    7.93    3.82
  -4  -1  -7    5.39    2.15
   4   1  -7    3.59    4.22
   4   1  -7   -0.94    4.96
  -4  -1  -7    6.31    3.55
   4   1  -7    1.31    3.39
  -4   1  -7    6.95    5.26
  -4  -1  -6  539.92   18.76
   4   1  -6  579.86   25.06
   4  -1  -6  574.15   22.97
   4   1  -6  568.84   24.22
  -4  -1  -6  564.64   22.60
   4   1  -6  595.01   23.19
   4   1  -6  505.61   27.20
  -4   1  -6  542.20   27.35
   4   1  -5    5.72    3.18
  -4   1  -5   -0.83    4.45
   4  -1  -5    4.07    2.69
  -4  -1  -5    3.45    2.50
   4   1  -5    5.19    3.58
   4   1  -5   -1.06    2.84
   4   1  -5    1.82    4.87
   4  -1  -4 1057.83   34.96
  -4  -1  -4 1082.11   34.86
   4   1  -4 1116.23   37.93
   4   1  -4 1066.83   37.29
   4  -1  -4 1035.86   34.75
   4   1  -4 1074.32   36.39
   4   1  -4 1015.48   41.65
  -4   1  -4 1024.97   40.98
   4   1  -3    4.58    2.59
   4  -1  -3    9.88    2.18
   4   1  -3    7.62    3.33
   4   1  -3    8.78    2.95
   4   1  -3    5.17    3.92
  -4  -1  -3    6.76    2.01
   4  -1  -3    9.08    2.72
  -4   1  -2 1525.02   44.96
   4   1  -2 1421.47   47.92
   4  -1  -2 1490.00   45.20
  -4  -1  -2 1564.63   45.13
   4  -1  -2 1485.64   46.11
   4   1  -2 1534.97   47.76
   4   1  -2 1491.63   48.03
   4   1  -1   82.24    6.13
   4   1  -1   83.85    5.62
   4   1  -1   72.82    5.82
  -4  -1  -1   85.94    5.55
   4  -1  -1   79.31    5.12
  -4   1  -1   75.07    4.50
   4  -1   0  837.27   26.45
   4   1   0  841.13   26.69
   4  -1   0  857.03   26.03
  -4  -1   0  829.58   27.95
   4   1   0  839.78   28.57
  -4   1   0  872.67   25.60
   4   1   0  837.90   25.47
  -4   1   0  851.48   26.32
   4  -1   1   81.84    3.38
  -4   1   1   74.54    3.98
   4   1   1   69.44    3.97
  -4  -1   1   71.07    5.49
   4   1   2 1518.95   45.31
  -4   1   2 1436.00   44.98
   4  -1   3    9.00    1.49
  -4   1   3    6.09    2.97
   4   1   3    5.09    2.85
  -4   1   4  929.10   37.05
   4   1   4  996.87   38.54
  -4   1   5    0.96    4.68
   4   1   5    1.00    4.68
   4   1   6  591.88   32.03
  -4   1   6  614.19   31.92
  -4   2 -11    8.37    4.28
   4   2 -11   19.82    7.38
  -4  -2 -11    9.81    3.66
  -4  -2 -10  238.34   12.57
   4   2 -10  254.23   17.72
   4   2 -10  243.84   17.57
  -4   2 -10  267.91   13.50
  -4   2  -9   17.15    3.91
   4   2  -9   18.44    6.49
  -4   2  -8  498.33   19.04
   4   2  -8  533.21   25.64
   4   2  -8  472.39   30.53
  -4   2  -8  472.76   29.32
   4  -2  -8  519.18   23.62
  -4  -2  -8  484.56   22.69
   4   2  -7   45.79    7.37
  -4  -2  -7   37.52    5.77
  -4   2  -7   42.18    4.04
   4   2  -7   25.50    9.52
   4  -2  -7   47.89    6.25
  -4   2  -7   41.10   10.11
  -4   2  -6  966.32   44.00
   4   2  -6 1008.47   37.85
  -4   2  -6  979.02   30.40
   4   2  -6 1003.01   37.94
   4  -2  -6  982.43   35.33
  -4  -2  -6  964.72   34.93
   4   2  -6  894.05   43.97
   4   2  -5  126.59    9.86
   4   2  -5  112.62    9.47
   4  -2  -5  127.37    8.61
  -4  -2  -5  132.17    8.70
  -4  -2  -4 1095.11   35.72
   4   2  -4 1075.14   38.02
   4   2  -4 1012.26   38.01
   4  -2  -4 1046.61   35.76
   4   2  -4 1073.77   37.28
   4   2  -3   61.70    6.08
   4   2  -3   74.03    6.83
  -4  -2  -3   70.66    5.70
   4  -2  -3   59.86    5.36
   4  -2  -3   77.12    5.06
   4   2  -3   68.57    6.52
  -4   2  -2  608.06   18.23
   4   2  -2  618.31   23.50
  -4  -2  -2  591.54   22.68
   4   2  -2  594.44   22.19
   4  -2  -2  565.45   21.22
  -4  -2  -2  593.10   21.26
   4  -2  -2  592.52   19.87
   4   2  -2  578.82   22.86
  -4   2  -1    2.97    0.86
   4  -2  -1    3.14    1.67
  -4  -2  -1    3.30    1.78
  -4  -2  -1    2.99    2.63
   4   2  -1    5.35    3.00
   4  -2   0  655.20   20.51
  -4  -2   0  716.77   23.60
  -4   2   0  711.21   23.36
   4   2   0  720.23   23.59
  -4  -2   0  676.50   24.64
  -4  -2   0  672.09   24.82
  -4  -2   1    5.74    2.58
  -4  -2   1    5.74    2.88
  -4   2   1    2.98    1.74
   4   2   1    5.59    1.96
  -4   2   2  551.32   19.84
   4   2   2  550.78   19.99
  -4  -2   2  545.96   21.24
  -4   2   3   68.77    5.62
   4   2   3   61.24    5.55
  -4  -2   3   58.23    5.98
   4   2   4 1074.37   36.98
   4  -2   4 1023.69   32.94
  -4   2   4 1019.64   36.22
  -4   2   5  104.63    9.46
   4   2   5  112.83   10.14
   4  -2   5  117.54    6.87
  -4   2   6  918.66   39.32
   4   2   6  889.87   39.53
  -4   2   7   48.83    9.90
   4   2   7   40.08    8.99
  -4   2   8  494.35   32.19
   4   2   8  485.27   32.38
  -4   2   9   10.83    9.34
   4   2   9   28.00   11.60
   4   3 -10  261.36   18.42
   4   3 -10  277.75   19.32
  -4   3 -10  244.29   12.82
   4   3  -9   32.28    7.43
  -4   3  -9   33.35    4.78
   4   3  -8  393.50   21.78
   4   3  -8  357.40   21.04
  -4  -3  -7   42.09    6.46
   4  -3  -7   53.76    7.39
   4   3  -7   62.59    8.22
   4   3  -6  549.54   25.21
   4  -3  -6  529.71   23.59
  -4  -3  -6  571.30   23.92
   4   3  -6  557.22   24.04
   4   3  -5   41.64    6.56
   4  -3  -5   54.72    6.13
  -4  -3  -5   46.66    5.81
   4   3  -4  771.48   30.36
  -4  -3  -4  724.77   28.03
   4  -3  -4  756.33   28.38
  -4   3  -3   88.85    3.37
  -4   3  -3   89.50    3.29
  -4  -3  -2  755.07   28.19
   4  -3  -2  757.36   23.89
  -4  -3  -1  139.82    9.12
  -4  -3  -1  124.27    7.35
   4  -3  -1  124.36    5.24
  -4  -3   0  364.39   15.39
   4   3   0  347.44   16.15
  -4   3   0  390.98   16.36
  -4  -3   0  381.91   16.75
  -4  -3   1  147.45    9.05
  -4   3   1  152.59    9.19
   4   3   1  145.47    9.24
  -4  -3   1  152.78    9.76
  -4  -3   2  766.39   28.14
   4  -3   2  759.49   23.73
  -4  -3   2  794.11   28.74
  -4   3   2  774.35   27.97
   4   3   2  761.45   28.05
  -4  -3   2  790.95   29.12
  -4   3   3  106.63    7.77
   4   3   3   86.42    7.30
  -4  -3   3  101.07    8.08
  -4  -3   3   86.39    7.67
  -4  -3   3   95.73    7.74
  -4   3   4  758.41   28.92
   4   3   4  732.24   29.08
  -4  -3   4  785.01   29.19
  -4  -3   4  755.96   28.27
   4  -3   5   45.59    5.23
   4   3   5   54.24    6.99
  -4   3   5   52.28    6.68
   4  -3   6  523.84   20.79
  -4   3   6  502.80   24.96
   4   3   6  537.04   26.00
  -4   3   7   50.88    9.25
   4   3   7   54.69    9.46
  -4   3   8  304.09   23.71
   4   3   8  281.47   23.31
  -4   3   9   40.54   12.19
   4   3   9   29.04   11.91
  -4   3  10  196.46   24.61
   4   3  10  248.96   27.66
   4   4  -9   79.53   11.10
   4   4  -8  276.62   18.47
  -4   4  -8  263.91   12.54
   4   4  -7   90.34   10.62
  -4   4  -7   98.17    6.46
  -4  -4  -6  312.41   16.79
   4  -4  -6  300.47   16.87
   4   4  -6  299.33   17.78
  -4   4  -6  280.95   11.46
  -4  -4  -5  208.42   13.28
   4  -4  -5  188.00   13.06
  -4   4  -5  212.34    8.21
   4   4  -5  212.10   13.29
   4   4  -4  359.86   17.79
   4   4  -3  141.31   10.70
  -4  -4  -3  149.97   10.63
  -4  -4  -2  508.35   21.73
   4   4  -2  490.79   21.39
  -4  -4  -1   50.94    6.30
   4  -4  -1   45.79    2.11
  -4  -4   0  855.65   30.72
   4   4   0  830.30   32.84
  -4   4   0  902.24   32.68
  -4  -4   0  856.40   31.86
  -4  -4   1   56.86    6.32
  -4  -4   1   59.50    7.09
   4   4   1   49.77    6.63
  -4   4   1   62.22    6.88
  -4  -4   1   57.98    6.69
  -4  -4   2  585.77   24.03
   4  -4   2  546.51   19.33
  -4  -4   2  549.63   22.78
  -4  -4   2  534.07   22.77
  -4   4   2  540.87   23.19
   4   4   2  572.59   23.93
  -4  -4   3  175.56   11.59
   4  -4   3  173.69    8.17
  -4  -4   3  165.40   11.70
  -4  -4   3  167.43   11.05
  -4   4   3  185.53   12.07
   4   4   3  173.85   11.97
  -4   4   4  333.27   17.81
   4   4   4  357.67   18.45
  -4  -4   4  370.13   18.25
  -4  -4   4  389.52   17.67
  -4  -4   4  393.01   18.67
   4   4   5  198.20   13.79
  -4   4   5  212.51   13.85
   4  -4   5  197.44   11.85
   4  -4   6  285.80   14.67
   4   4   6  304.90   18.29
   4  -4   7   82.48    8.20
   4   4   7   82.72   11.09
  -4   4   7  104.72   11.85
  -4   4   8  272.39   20.91
   4   4   8  220.24   19.77
  -4   4   9   63.26   13.82
   4   4   9   61.56   14.84
   4   4  10  178.20   23.62
  -4   5  -6  240.11    9.04
  -4  -5  -4  319.53   17.24
  -4  -5  -3  129.22   10.35
   4   5  -3  113.95   10.12
  -4  -5  -2  303.96   16.23
   4   5  -1  240.62   15.33
  -4   5  -1  211.66   14.17
  -4  -5  -1  210.60   13.14
  -4  -5   0  267.89   14.39
  -4  -5   0  280.36   15.93
   4   5   0  260.21   16.11
  -4   5   0  284.96   16.27
  -4  -5   0  265.92   14.88
  -4  -5   1  221.88   13.43
  -4  -5   1  233.19   14.61
   4   5   1  243.64   15.32
  -4   5   1  215.03   14.31
  -4  -5   1  215.65   13.45
  -4  -5   2  346.35   17.49
   4  -5   2  344.48   14.61
  -4  -5   2  326.87   17.03
  -4   5   2  342.58   18.26
   4   5   2  372.40   19.12
  -4  -5   3  115.44    9.52
  -4   5   3  132.38   10.91
   4   5   3  123.00   11.09
   4  -5   3  113.97    7.52
  -4   5   4  296.15   17.40
   4   5   4  319.87   18.33
   4  -5   4  297.67   12.67
  -4  -5   4  323.37   16.28
   4  -5   5   69.80    7.92
  -4   5   5   61.80    8.44
   4   5   5   72.92    9.22
   4   5   6  249.79   18.13
  -4   5   6  274.44   18.20
   4   5   7  105.03   12.82
  -4   5   7  117.85   13.10
   4   5   8  179.96   17.78
  -4   5   8  169.48   17.10
  -4  -6  -6  148.91   12.85
  -4  -6  -5  147.27   12.56
  -4  -6  -4  188.10   13.41
  -4  -6  -3  166.24   12.71
   4   6  -2  182.41   14.98
  -4   6  -2  195.66   15.00
  -4  -6  -2  192.14   13.15
   4   6  -1  137.19   12.75
  -4   6  -1  127.59   11.91
  -4  -6  -1  146.68   11.45
   4   6   0  242.94   16.70
  -4   6   0  209.95   15.32
  -4  -6   0  215.20   13.82
  -4   6   1  130.15   12.08
  -4  -6   1  116.91   10.47
   4  -6   2  172.84   10.46
  -4  -6   2  181.00   12.37
  -4   6   2  169.65   13.55
   4   6   2  196.18   14.63
  -4  -6   3  158.48   11.68
  -4   6   3  152.80   13.24
   4   6   3  184.95   14.82
  -4   6   4  191.08   14.73
   4   6   4  172.54   14.70
  -4  -6   4  192.57   12.62
  -4   6   5  140.71   13.39
   4   6   5  149.62   13.95
  -4   6   6  145.85   14.14
   4   6   6  126.04   13.78
  -4   6   7   73.41   11.45
   4   6   7   61.96   11.36
  -4  -7  -5  126.44   12.13
  -4  -7  -4  125.21   11.62
   4   7  -3  142.40   14.77
  -4   7  -3  135.56   13.93
  -4  -7  -3  128.16   11.86
   4   7  -2   98.47   12.43
  -4   7  -2   76.04   10.80
  -4  -7  -2   69.70    8.74
  -4   7  -1  106.30   12.58
   4   7  -1  111.77   13.42
  -4  -7  -1  115.36   10.70
   4   7   0   50.05    9.56
  -4  -7   0   49.26    7.71
  -4   7   0   57.17    9.74
  -4   7   1  115.61   12.70
   4   7   1  120.56   13.31
  -4  -7   1  145.73   11.67
  -4   7   2   68.81   10.22
   4   7   2   71.00   10.50
  -4  -7   2   82.27    8.94
  -4  -7   3  126.72   11.12
  -4   7   3  140.85   13.87
   4   7   3  131.74   14.07
  -4   7   4  114.14   12.83
   4   7   4  117.71   13.33
  -4  -8  -1   93.02   10.22
  -4  -8   0   68.35    8.85
  -4  -8   1   90.45    9.64
  -4  -8   2   52.01    8.03
   5   0 -10   -0.82    4.39
   5   0  -9  503.07   25.74
   5   0  -8   -0.71    3.99
  -5   0  -8   -0.64    3.74
   5   0  -7  476.73   22.06
  -5   0  -7  470.60   21.40
   5   0  -7  473.68   21.10
   5   0  -6   -0.49    3.26
   5   0  -6   -2.70    2.94
  -5   0  -6    0.49    2.93
   5   0  -5  768.50   28.85
  -5   0  -5  800.90   28.53
   5   0  -5  785.27   28.85
   5   0  -4   -0.84    2.95
   5   0  -4   -0.47    2.37
   5   0  -4   -0.70    2.20
  -5   0  -4    0.64    2.11
   5   0  -3  847.43   27.02
  -5   0  -3  857.05   26.91
   5   0  -3  779.05   29.27
  -5   0  -3  798.19   25.77
   5   0  -3  861.26   29.64
   5   0  -2    2.18    2.63
  -5   0  -2    2.71    2.32
   5   0  -2    1.08    2.11
   5   0  -2    1.18    1.12
  -5   0  -2    0.65    1.49
  -5   0  -2    1.56    1.05
   5   0  -1 1198.77   38.40
  -5   0  -1 1155.81   35.82
   5   0  -1 1220.54   38.24
  -5   0  -1 1172.78   37.76
  -5   0   0    2.07    2.21
   5   0   0    1.72    2.29
   5   0   0    1.02    1.63
  -5   0   1 1200.12   38.52
  -5   0   2    3.31    2.40
  -5   1 -10    2.69    3.01
   5   1  -9  405.88   22.83
   5   1  -9  411.25   22.06
   5   1  -8   17.79    5.67
  -5   1  -8   15.34    5.36
   5   1  -8    9.97    5.74
   5   1  -8   17.22    5.47
   5  -1  -8   20.09    5.33
  -5  -1  -8   12.43    4.69
   5  -1  -7  745.28   29.63
  -5  -1  -7  757.27   29.27
   5   1  -7  787.31   32.67
   5   1  -7  734.34   31.62
   5   1  -7  795.15   33.58
  -5   1  -7  727.29   31.81
   5  -1  -7  792.36   29.15
   5   1  -7  741.22   30.02
   5   1  -6   20.61    5.18
   5   1  -6   23.52    5.73
   5  -1  -6   29.52    4.93
   5   1  -6   32.37    5.89
   5  -1  -6   37.24    5.35
  -5  -1  -6   26.90    4.55
   5   1  -6   22.57    6.26
  -5   1  -6   32.05    6.57
  -5  -1  -5  587.16   21.72
   5   1  -5  584.73   24.97
   5   1  -5  566.91   24.41
   5  -1  -5  532.56   21.76
   5   1  -5  569.93   26.67
  -5   1  -5  519.25   25.09
   5   1  -5  563.45   23.33
   5  -1  -5  572.18   21.92
   5   1  -4   24.81    4.71
   5   1  -4   18.45    4.42
  -5   1  -4   19.00    5.24
   5  -1  -4   16.52    3.31
  -5  -1  -4   21.61    3.32
   5   1  -4   14.06    5.07
   5  -1  -4   20.69    4.04
   5   1  -4   19.88    4.31
   5   1  -3  843.04   30.00
   5   1  -3  800.86   29.83
   5  -1  -3  807.15   26.33
  -5  -1  -3  862.42   26.33
   5  -1  -3  786.92   27.82
   5   1  -3  711.18   30.83
   5   1  -3  785.97   29.38
  -5   1  -3  750.92   30.62
   5  -1  -2    5.29    1.64
  -5  -1  -2    3.60    1.57
  -5   1  -2    3.38    2.03
  -5  -1  -2    4.51    2.82
   5   1  -2    2.90    2.80
   5  -1  -2    3.73    2.36
   5   1  -2    4.26    2.71
  -5  -1  -2    3.24    1.98
   5   1  -2    3.78    2.61
   5   1  -2    4.58    3.32
  -5  -1  -1 1059.15   36.08
   5   1  -1 1082.20   36.52
   5   1  -1 1122.09   35.20
   5  -1  -1 1048.75   34.19
  -5  -1  -1 1105.42   34.99
   5   1  -1 1082.37   36.38
  -5   1  -1 1080.79   33.75
   5  -1  -1 1074.28   34.55
  -5   1   0    0.63    1.81
   5   1   0    2.18    1.58
   5  -1   0    1.51    1.92
   5   1   0    1.41    2.37
  -5   1   0    0.88    0.85
   5   1   0    2.00    0.90
  -5  -1   0    3.97    2.29
   5  -1   0    3.31    1.58
  -5  -1   1 1109.71   34.22
   5   1   1 1041.70   31.20
  -5   1   1 1037.74   32.30
  -5   1   1  977.37   30.91
  -5   1   2    4.75    2.36
   5   1   2    3.47    2.54
   5  -1   3  681.12   20.85
  -5   1   3  668.40   27.28
  -5   1   4   12.45    5.02
   5   1   4    8.18    4.23
   5   1   5  658.86   31.53
  -5   1   5  572.16   29.34
  -5   2 -10   19.39    4.01
  -5   2  -9  352.67   13.88
   5   2  -9  348.54   20.96
  -5  -2  -9  309.31   13.29
  -5   2  -8   31.85    9.04
  -5  -2  -8   22.17    3.51
   5   2  -8   26.91    7.00
  -5  -2  -8   26.71    5.78
   5   2  -8   25.89    7.01
  -5   2  -8   30.37    3.50
   5   2  -8   24.14    8.97
   5   2  -7  338.99   19.04
   5   2  -7  294.01   18.25
  -5   2  -7  314.09   10.97
   5  -2  -7  299.82   15.07
   5   2  -7  290.03   22.39
   5  -2  -7  320.21   16.55
  -5  -2  -7  340.32   16.40
  -5   2  -7  272.11   21.24
   5   2  -6   22.76    8.09
   5   2  -6   33.81    6.21
   5   2  -6   25.20    6.04
   5  -2  -6   28.87    4.99
  -5   2  -6   22.01    8.02
  -5  -2  -6   24.25    4.59
   5   2  -6   32.06    6.57
   5  -2  -6   32.60    5.12
   5   2  -5  706.91   35.24
   5   2  -5  760.18   30.78
   5  -2  -5  758.35   26.90
   5  -2  -5  748.79   27.76
  -5  -2  -5  682.41   26.97
   5   2  -5  755.89   29.56
   5   2  -5  785.75   30.96
  -5  -2  -4   31.25    4.27
   5  -2  -4   26.29    4.17
   5   2  -4   21.15    4.59
   5  -2  -4   25.37    4.16
   5   2  -4   23.75    5.48
   5   2  -4   25.79    5.42
  -5   2  -3  876.15   27.24
  -5  -2  -3  894.98   27.04
   5   2  -3  910.43   32.16
   5   2  -3  869.87   32.70
  -5  -2  -3  894.32   29.78
   5  -2  -3  803.16   29.56
   5  -2  -3  896.40   29.26
   5   2  -3  814.91   31.75
   5   2  -2   47.29    5.92
   5   2  -2   41.05    5.46
   5   2  -2   42.88    4.90
   5  -2  -2   40.57    4.18
  -5  -2  -2   46.65    3.82
  -5   2  -2   44.03    3.08
   5   2  -1  847.09   30.48
  -5  -2  -1  914.47   27.58
  -5  -2  -1  845.38   29.21
  -5   2  -1  788.26   24.83
   5  -2  -1  820.65   26.33
  -5  -2   0  113.91    7.07
  -5  -2   0  104.78    7.48
   5   2   0  101.26    6.19
  -5   2   0   98.47    6.04
   5  -2   1  784.06   22.71
  -5  -2   1  770.30   27.80
  -5  -2   1  729.80   27.91
  -5   2   1  710.97   25.05
   5   2   1  769.85   25.40
  -5   2   2   38.18    3.83
   5   2   2   40.36    4.00
  -5  -2   2   35.96    5.15
  -5  -2   2   38.41    4.98
  -5   2   3  791.24   28.83
   5   2   3  846.24   29.46
  -5  -2   3  862.66   30.57
  -5  -2   4   31.54    4.90
  -5   2   4   18.08    4.22
   5  -2   4   23.78    3.08
   5   2   4   22.60    4.76
   5  -2   5  710.34   24.09
  -5   2   5  739.91   31.55
   5   2   5  771.18   32.58
  -5   2   6   21.94    7.34
   5   2   6   15.13    6.57
  -5   2   7  352.15   24.79
   5   2   7  320.36   24.63
   5   2   8   40.46   11.15
  -5   2   8   19.37   10.31
   5   3  -9  269.69   18.51
   5   3  -9  254.40   18.67
   5   3  -8   33.97    7.81
   5   3  -7  410.95   30.46
  -5   3  -7  462.49   30.27
   5   3  -7  491.02   24.24
   5  -3  -7  463.09   21.98
  -5  -3  -7  425.93   21.19
   5  -3  -6   37.50    5.88
  -5  -3  -6   32.53    5.51
   5   3  -6   34.57    6.86
   5   3  -6   38.31    7.02
   5   3  -5  405.24   19.88
   5   3  -5  388.89   20.29
  -5  -3  -5  353.47   17.49
   5  -3  -5  385.08   18.10
  -5  -3  -4   83.94    7.50
   5  -3  -4   77.81    7.38
   5   3  -4   95.11    9.29
   5  -3  -4   95.97    6.41
  -5  -3  -3  637.62   25.20
   5  -3  -3  584.19   20.83
  -5  -3  -2  133.17    9.51
  -5  -3  -2  129.38    7.43
   5  -3  -2  122.11    6.51
  -5  -3  -1  704.73   24.95
  -5  -3  -1  757.01   27.51
   5   3  -1  670.09   27.35
   5  -3  -1  703.98   21.92
  -5  -3  -1  769.60   28.19
  -5  -3   0   77.81    7.25
   5   3   0   87.17    6.96
  -5   3   0   73.49    6.15
  -5  -3   0   57.91    6.56
  -5  -3   0   66.22    5.93
  -5  -3   1  747.48   28.14
  -5  -3   1  766.21   27.12
  -5   3   1  691.75   26.06
   5   3   1  716.79   26.53
  -5  -3   1  752.62   28.40
  -5  -3   2  110.19    8.58
  -5  -3   2  123.53    9.26
  -5   3   2  111.37    7.98
   5   3   2  122.42    8.39
  -5   3   3  568.76   22.45
   5   3   3  558.12   22.60
  -5  -3   3  593.15   23.85
  -5   3   4   75.95    7.37
   5   3   4   85.60    7.88
  -5  -3   4   85.99    7.80
  -5   3   5  371.29   18.95
   5   3   5  406.13   19.94
   5  -3   5  357.92   15.54
   5  -3   6   40.69    5.10
  -5   3   6   46.93    7.73
   5   3   6   46.31    7.80
  -5   3   7  390.71   25.35
   5   3   7  470.71   27.95
  -5   3   8   25.25   10.08
   5   3   8   31.84   11.21
  -5   3   9  252.86   25.73
   5   3   9  232.08   25.41
  -5   3  10   21.08   13.78
   5   3  10   55.21   16.61
   5   4  -9  260.28   19.21
   5   4  -8   83.33   11.23
  -5   4  -7  292.19   11.95
  -5   4  -6   56.22    4.01
  -5   4  -5  381.99   11.78
  -5  -4  -4   82.57    8.62
   5   4  -4   62.72    8.05
   5   4  -3  381.67   19.30
  -5  -4  -3  400.29   19.62
   5  -4  -3  406.96   14.90
  -5  -4  -2  151.42   11.10
   5   4  -2  156.60   11.17
  -5  -4  -2  131.89    8.50
   5  -4  -2  122.98    6.07
  -5  -4  -1  446.40   18.70
   5   4  -1  448.18   20.99
  -5   4  -1  448.48   20.30
  -5  -4  -1  461.79   20.95
  -5  -4  -1  467.42   20.99
  -5  -4   0  243.44   13.05
  -5  -4   0  247.46   14.45
   5   4   0  254.03   14.37
  -5   4   0  286.94   14.55
  -5  -4   0  252.54   14.56
  -5  -4   1  434.28   19.46
  -5   4   1  469.66   20.20
   5   4   1  435.88   20.17
  -5  -4   1  470.11   20.95
  -5  -4   2  132.02    9.64
   5  -4   2  129.50    6.27
  -5  -4   2  110.48    9.46
  -5   4   2  113.42    9.06
   5   4   2  118.58    9.48
  -5   4   3  405.33   18.94
   5   4   3  409.90   19.43
  -5  -4   3  419.91   19.48
  -5  -4   3  387.64   19.28
  -5  -4   3  384.82   18.80
   5   4   4   65.03    7.72
  -5  -4   4   70.14    7.60
  -5   4   4   72.37    7.79
   5  -4   5  374.73   17.04
  -5   4   5  384.69   20.05
   5   4   5  380.69   20.33
  -5   4   6   51.39    8.46
   5   4   6   53.11    8.74
   5  -4   6   67.81    7.01
   5  -4   7  251.76   13.79
  -5   4   7  244.93   18.73
   5   4   7  270.90   19.80
  -5   4   8   62.08   12.40
   5   4   8   84.73   14.18
  -5   4   9  221.78   23.65
   5   4   9  227.59   24.82
  -5  -5  -6  117.44   11.66
  -5  -5  -5  194.06   14.13
  -5  -5  -4  146.01   11.93
  -5  -5  -3  273.07   16.19
   5  -5  -3  276.68   10.93
   5  -5  -2  103.77    4.19
   5  -5  -2  126.34    4.45
  -5  -5  -1  322.04   16.07
   5   5  -1  320.65   18.24
  -5   5  -1  332.67   17.70
  -5  -5  -1  321.13   17.38
  -5  -5   0   86.49    8.57
   5   5   0   97.18    9.75
  -5   5   0   93.91    9.16
  -5  -5   0   96.83    9.27
  -5  -5   1  342.85   17.08
  -5   5   1  292.15   16.91
   5   5   1  359.30   18.84
  -5  -5   1  324.40   17.42
   5  -5   2  135.63    7.87
  -5  -5   2  128.15   10.55
  -5   5   2  136.88   11.05
   5   5   2  142.35   11.47
   5  -5   3  246.74   10.58
  -5  -5   3  253.29   14.99
  -5   5   3  287.18   16.44
   5   5   3  269.98   16.48
  -5   5   4  147.55   11.93
  -5  -5   4  174.74   11.97
   5  -5   5  171.65   11.76
  -5   5   5  191.34   13.97
   5   5   5  174.41   14.00
  -5   5   6  104.46   11.94
   5   5   6  126.03   13.07
  -5   5   7  209.97   17.78
   5   5   7  237.21   19.17
   5   5   8  114.80   15.36
  -5   5   8   67.81   12.35
  -5  -6  -6  140.53   13.24
  -5  -6  -5  169.27   14.01
  -5  -6  -4  110.81   11.11
  -5  -6  -3  162.96   13.08
   5   6  -2  121.70   12.69
  -5   6  -2  104.02   11.37
  -5  -6  -2  117.66   10.97
   5   6  -1  188.05   14.99
  -5   6  -1  160.60   13.47
  -5  -6  -1  167.06   12.68
   5   6   0  149.80   13.56
  -5   6   0  175.31   13.85
  -5  -6   0  149.92   12.40
  -5   6   1  145.52   12.41
   5   6   1  135.41   12.60
  -5  -6   1  145.89   11.62
   5   6   2   82.28   10.34
  -5  -6   2  116.08   10.36
  -5   6   2  112.36   11.02
  -5  -6   3  166.76   12.33
  -5   6   3  166.61   13.59
   5   6   3  144.95   13.75
  -5   6   4  112.63   11.62
   5   6   4   96.38   11.30
  -5  -6   4  111.95   10.24
  -5   6   5  126.61   12.72
   5   6   5  155.19   14.13
  -5   6   6  129.29   13.83
   5   6   6  143.98   15.07
   5   6   7   85.99   12.80
   5   7  -3   99.63   12.34
  -5   7  -3  113.42   12.64
  -5  -7  -3  107.35   10.95
   5   7  -2  182.63   16.16
  -5   7  -2  138.93   14.00
  -5  -7  -2  156.15   13.09
   5   7  -1  102.23   12.79
  -5   7  -1   91.21   11.78
  -5  -7  -1  101.14   10.60
   5   7   0  117.03   13.50
  -5   7   0  109.98   12.49
  -5  -7   0  103.21   10.88
  -5   7   1   77.78   10.75
   5   7   1   83.01   11.53
  -5  -7   1  109.86   10.87
  -5  -7   2  145.17   12.18
   5   7   2  147.17   14.46
  -5   7   3   90.65   11.53
   5   7   3   80.44   11.51
  -5  -7   3   96.07   10.02
  -5   7   4  116.58   12.82
   5   7   4  112.67   13.40
  -5  -7   4  110.56   10.62
   6   0 -10  375.54   22.28
   6   0 -10  360.52   21.16
   6   0  -9    2.70    4.99
   6   0  -9    6.61    5.26
   6   0  -8  511.08   23.03
  -6   0  -8  491.74   22.02
   6   0  -8  441.03   23.04
   6   0  -7    2.86    3.89
   6   0  -7    0.58    3.59
  -6   0  -7    0.52    3.12
   6   0  -6  364.18   17.37
   6   0  -6  404.50   19.64
  -6   0  -6  399.67   17.43
   6   0  -6  371.08   18.36
   6   0  -5    4.65    3.67
   6   0  -5    4.12    3.46
   6   0  -5    0.79    2.54
  -6   0  -5    0.36    2.50
   6   0  -4  388.24   15.16
  -6   0  -4  388.37   14.98
  -6   0  -4  389.58   13.59
   6   0  -4  378.15   17.97
   6   0  -4  353.90   17.21
   6   0  -3    1.37    3.31
  -6   0  -3   -0.37    2.50
   6   0  -3    0.96    2.65
   6   0  -3    2.41    1.60
  -6   0  -3    0.71    1.66
  -6   0  -3    1.28    1.56
  -6   0  -2  888.02   31.60
  -6   0  -2  919.06   28.97
   6   0  -2  850.43   32.37
   6   0  -2  953.70   27.61
  -6   0  -2  941.54   27.37
   6   0  -2  963.49   32.94
  -6   0  -1    2.08    2.48
   6   0  -1    0.38    2.80
   6   0  -1   -0.36    2.35
   6   0   0 2038.08   61.93
   6   0   0 1991.67   61.27
  -6   0   0 2016.97   62.05
  -6   0   1    2.07    2.57
   6   0   1    2.17    1.52
  -6   0   2  881.87   30.31
   6   1 -10  273.84   19.04
   6   1 -10  275.44   19.04
   6   1  -9    7.40    5.45
  -6   1  -9   10.02    2.79
   6   1  -9    0.91    5.39
  -6  -1  -8  472.42   21.44
   6   1  -8  455.62   24.23
  -6   1  -8  475.79   16.26
   6   1  -8  463.57   24.06
   6   1  -8  442.93   23.28
  -6   1  -8  452.95   22.44
   6  -1  -8  478.15   22.25
   6   1  -7    4.33    4.20
  -6   1  -7   12.34    4.84
   6  -1  -7   17.16    4.65
   6   1  -7   13.64    5.54
  -6   1  -7    9.45    1.89
   6  -1  -7   19.15    4.70
  -6  -1  -7    8.70    3.72
   6   1  -7   14.39    4.91
   6   1  -6  502.69   24.35
   6   1  -6  492.03   24.01
   6   1  -6  524.11   23.80
  -6   1  -6  511.58   22.79
   6  -1  -6  466.03   21.25
   6   1  -6  511.18   23.07
   6  -1  -6  524.00   21.50
  -6  -1  -6  559.74   21.41
   6   1  -5    3.98    3.62
   6   1  -5    5.92    4.34
   6   1  -5    7.11    3.87
   6  -1  -5    7.67    2.93
  -6  -1  -5    6.38    2.69
  -6   1  -5    6.51    3.78
   6   1  -5    5.29    3.84
   6  -1  -5    7.05    3.74
   6   1  -4  654.10   27.59
   6   1  -4  667.29   27.88
   6   1  -4  664.42   26.81
  -6   1  -4  710.31   26.88
   6  -1  -4  683.97   24.02
  -6  -1  -4  709.30   23.89
   6  -1  -4  681.41   25.94
   6   1  -4  721.18   27.71
   6  -1  -3    8.90    3.52
   6  -1  -3    8.02    2.19
  -6  -1  -3    9.68    2.29
   6   1  -3   13.99    3.92
   6   1  -3    8.05    4.23
  -6   1  -3    8.03    2.90
  -6  -1  -3    9.99    3.65
   6   1  -3   11.85    4.02
   6   1  -3   10.26    3.40
  -6  -1  -3   11.58    3.12
  -6   1  -3   12.92    3.56
   6   1  -2  902.44   32.78
  -6  -1  -2  952.40   32.41
   6   1  -2  924.69   32.11
   6  -1  -2  917.38   31.14
  -6  -1  -2  907.68   30.19
   6   1  -2  898.43   32.86
   6   1  -2  839.50   29.54
  -6   1  -2  883.02   29.88
   6  -1  -2  926.94   31.24
  -6   1  -2  920.14   29.87
   6   1  -1   20.45    3.54
  -6   1  -1   20.89    3.24
  -6  -1  -1   24.03    4.04
   6   1  -1   10.70    1.74
   6  -1  -1   21.58    3.72
   6   1  -1   17.78    4.21
   6  -1  -1   19.74    3.22
  -6  -1  -1   18.82    3.35
  -6   1  -1   16.56    1.50
   6   1  -1   13.37    3.66
   6   1  -1   11.98    1.28
  -6   1  -1   10.59    2.08
   6   1   0  657.01   22.61
  -6  -1   0  680.01   23.88
   6  -1   0  676.91   22.65
  -6   1   0  679.00   22.97
  -6  -1   0  630.42   25.06
  -6   1   1   20.23    3.12
  -6  -1   1   26.82    4.39
  -6  -1   2  910.50   30.86
  -6   1   2  797.62   29.38
  -6  -1   3   11.23    3.80
  -6   1   3    9.65    4.49
   6   2  -9   20.62    7.06
   6   2  -9   12.60    6.48
   6   2  -8  391.09   22.66
   6   2  -8  436.27   23.56
  -6   2  -7    7.19    6.30
   6  -2  -7    6.73    4.40
   6   2  -7    2.51    4.78
   6  -2  -7   11.26    4.38
  -6  -2  -7    4.69    3.77
   6   2  -7    4.27    4.89
   6   2  -7   -1.13    6.54
   6   2  -6  507.16   24.59
   6   2  -6  526.71   24.64
   6  -2  -6  483.37   20.70
   6  -2  -6  503.05   21.32
  -6  -2  -6  536.89   21.21
   6   2  -6  417.47   26.33
  -6   2  -6  430.33   25.90
   6   2  -5    8.67    6.21
   6  -2  -5   19.19    4.16
  -6  -2  -5   15.26    3.65
   6  -2  -5   20.98    4.51
   6   2  -5   19.01    5.29
   6   2  -5   13.00    5.10
  -6   2  -5   14.62    6.73
   6   2  -5   15.16    5.10
   6   2  -4  588.31   28.55
  -6   2  -4  561.29   19.74
  -6  -2  -4  586.92   24.39
   6   2  -4  562.70   24.50
   6   2  -4  592.31   25.52
  -6  -2  -4  565.80   21.61
   6  -2  -4  534.71   21.62
   6  -2  -4  568.72   21.94
   6   2  -4  576.10   24.66
   6   2  -3   49.03    5.91
   6   2  -3   41.78    6.51
   6   2  -3   37.34    5.97
   6  -2  -3   48.17    5.26
  -6   2  -3   46.76    3.97
   6   2  -2  685.07   26.55
   6   2  -2  672.06   24.92
  -6  -2  -2  648.81   24.27
  -6   2  -2  629.20   20.96
   6  -2  -2  646.09   22.99
   6  -2  -1   64.37    4.93
   6   2  -1   76.92    7.48
  -6  -2  -1   67.68    6.24
   6   2  -1   67.11    4.94
  -6   2  -1   72.26    4.87
  -6   2  -1   64.79    4.08
   6  -2   0  910.87   28.28
  -6  -2   0  886.00   31.65
  -6   2   0  864.84   28.23
   6   2   0  910.00   28.43
  -6   2   1   53.17    4.23
   6   2   1   59.96    4.35
  -6  -2   1   61.70    6.25
   6  -2   1   64.11    3.13
  -6  -2   2  573.26   21.91
   6   2   2  543.67   19.48
   6   2   3   30.44    4.68
  -6   2   3   40.56    4.92
   6  -2   4  501.43   17.29
  -6   2   4  475.50   22.55
   6   2   4  532.03   23.98
  -6   2   5   11.96    5.80
   6  -2   5   13.84    2.55
   6   2   5   17.20    7.13
  -6   2   6  493.20   28.29
   6   2   6  467.59   28.69
   6   2   7   15.00    8.18
  -6   2   7   14.24    8.27
   6   3  -9   50.88    9.62
   6   3  -8  319.10   20.44
   6   3  -8  356.63   21.74
   6   3  -7  103.84   11.01
   6   3  -7   59.90   13.02
  -6   3  -7   82.52   13.99
   6  -3  -7   84.83    9.11
   6   3  -7   80.68   10.35
  -6  -3  -7   81.75    8.73
   6  -3  -7   87.21    7.91
   6   3  -6  320.84   24.45
   6   3  -6  353.07   19.84
   6   3  -6  346.65   20.18
  -6  -3  -6  368.67   17.89
   6  -3  -6  358.40   18.09
   6  -3  -6  353.97   16.33
  -6   3  -5   67.41    4.45
  -6  -3  -5   46.76    4.11
   6   3  -5   52.04    7.41
  -6  -3  -5   60.88    6.64
   6  -3  -5   55.37    6.46
   6   3  -5   74.04    8.98
   6  -3  -5   59.65    6.18
  -6  -3  -4  466.31   16.84
   6   3  -4  490.61   23.24
   6  -3  -4  510.28   19.01
  -6   3  -4  462.31   15.27
   6   3  -4  477.75   22.37
   6   3  -3   55.48    7.93
  -6  -3  -3   60.90    5.04
   6  -3  -3   61.74    5.54
  -6  -3  -2  599.15   25.40
   6   3  -2  604.77   25.35
  -6  -3  -2  621.38   21.74
  -6  -3  -2  603.43   24.26
   6  -3  -2  575.96   20.47
   6  -3  -1   55.97    3.75
  -6  -3  -1   54.58    5.57
   6   3  -1   65.58    7.66
  -6  -3  -1   61.52    6.71
   6   3  -1   74.35    6.36
  -6   3  -1   65.61    5.75
  -6  -3  -1   65.64    7.59
  -6  -3   0  503.08   19.59
  -6  -3   0  452.33   20.37
  -6   3   0  458.05   18.47
   6   3   0  479.83   19.03
  -6  -3   0  456.41   21.04
  -6  -3   1   51.51    6.60
  -6  -3   1   58.71    7.04
  -6   3   1   67.09    5.68
   6   3   1   54.04    5.34
  -6   3   2  542.47   21.50
   6   3   2  575.88   22.03
  -6  -3   2  572.18   23.90
  -6  -3   2  587.66   24.29
  -6  -3   3   44.60    6.49
  -6   3   3   46.47    5.47
  -6  -3   3   48.28    6.36
   6   3   3   38.38    5.22
  -6   3   4  456.20   20.44
   6   3   4  446.87   20.75
  -6  -3   4  458.67   20.72
   6  -3   5   59.08    5.69
   6   3   5   63.60    8.12
  -6   3   5   62.27    7.92
   6  -3   6  384.09   16.08
  -6   3   6  421.18   23.86
   6   3   6  419.20   24.61
  -6   3   7   83.29   13.46
   6   3   7   64.58   12.29
  -6   3   8  313.55   26.33
   6   3   8  254.92   24.94
  -6   3   9   26.94   12.58
   6   3   9   38.71   15.19
  -6   4  -6  253.01    8.94
   6  -4  -6  244.01   12.97
  -6   4  -6  253.95    8.82
  -6  -4  -5   70.87    9.08
   6  -4  -5   61.53    6.31
  -6  -4  -4  261.68   15.97
  -6  -4  -4  232.72   11.35
   6  -4  -4  238.46   11.37
  -6  -4  -3  113.53   10.34
  -6  -4  -3   90.62    7.22
   6  -4  -3  112.60    6.70
  -6  -4  -2  391.96   19.68
  -6  -4  -2  383.50   16.44
  -6  -4  -2  399.34   19.20
   6  -4  -2  373.93   12.99
  -6  -4  -1  137.76    9.32
  -6  -4  -1  137.61   10.72
   6   4  -1  129.07    9.92
  -6   4  -1  144.33    9.79
  -6  -4  -1  147.06   11.17
  -6  -4   0  654.25   26.02
  -6  -4   0  702.80   28.41
   6   4   0  675.30   27.24
  -6   4   0  716.26   27.08
  -6  -4   0  681.62   28.57
  -6  -4   1  118.40    9.29
  -6  -4   1  114.59   10.13
  -6   4   1  125.35    8.99
   6   4   1  139.43    9.70
  -6  -4   1  136.13   10.86
  -6  -4   2  387.64   17.41
  -6  -4   2  388.01   18.11
  -6   4   2  382.33   16.64
   6   4   2  396.88   17.34
  -6   4   3  104.42    8.73
   6   4   3  103.56    8.96
  -6  -4   3  103.51    9.32
  -6   4   4  219.34   13.66
  -6  -4   4  229.60   14.14
   6   4   4  230.19   14.32
   6   4   5   57.15    8.37
   6  -4   5   60.62    6.54
  -6   4   5   58.13    8.01
  -6   4   6  213.14   15.95
   6   4   6  213.18   16.74
  -6   4   7   45.26    9.97
   6   4   7   30.96    9.49
  -6   4   8  196.38   20.92
   6   4   8  249.91   23.67
  -6   4   9   54.98   14.98
   6   4   9   79.21   17.26
  -6  -5  -6  129.38   12.85
  -6  -5  -5   75.76    9.81
  -6  -5  -4  178.14   13.75
  -6  -5  -4  178.36   10.88
  -6  -5  -3   98.37   10.22
  -6  -5  -3   89.65    8.07
  -6  -5  -2  311.80   15.53
   6   5  -2  301.50   17.91
  -6   5  -2  309.38   17.30
  -6  -5  -2  309.76   17.78
  -6  -5  -1  159.20   11.12
   6   5  -1  163.01   12.54
  -6   5  -1  161.44   11.96
  -6  -5  -1  180.37   13.44
  -6  -5   0  377.45   17.90
   6   5   0  344.17   18.79
  -6   5   0  320.04   17.89
  -6  -5   0  380.19   19.54
  -6  -5   1  141.06   11.00
  -6   5   1  149.75   11.09
   6   5   1  159.51   11.71
  -6  -5   1  133.59   11.57
  -6  -5   2  287.51   17.03
  -6   5   2  315.08   17.05
   6   5   2  311.87   17.63
  -6   5   3   81.13    8.67
   6   5   3   76.65    9.01
  -6  -5   3   83.17    9.13
  -6   5   4  187.46   13.33
   6   5   4  163.53   13.02
  -6  -5   4  184.88   13.08
  -6   5   5   73.92    9.42
   6   5   5   53.68    8.90
  -6   5   6  135.87   13.32
   6   5   6  128.84   13.52
   6   5   7  113.77   14.17
  -6   5   7  121.98   13.88
  -6   5   8  152.04   17.55
   6   5   8  125.41   17.06
  -6  -6  -4  153.76   13.42
   6   6  -3  126.09   12.79
  -6   6  -3  121.37   12.42
  -6  -6  -3  117.89   11.81
   6   6  -2  115.27   11.84
  -6   6  -2  129.67   11.96
  -6  -6  -2  106.30   10.99
   6   6  -1  153.42   14.21
  -6   6  -1  151.64   13.19
  -6  -6  -1  168.59   13.42
   6   6   0  119.06   12.02
  -6   6   0  108.69   10.95
  -6  -6   0  120.15   11.60
  -6   6   1  133.98   12.02
   6   6   1  131.58   12.57
  -6  -6   1  153.90   12.47
  -6  -6   2   94.73   10.18
  -6   6   2  101.28   10.79
   6   6   2  108.24   11.40
  -6   6   3   92.27   10.72
   6   6   3   99.41   11.21
  -6  -6   3  114.21   10.84
  -6   6   4  141.80   12.89
   6   6   4  139.76   13.27
  -6  -6   4  154.77   12.32
  -6   6   5   60.42    9.56
   6   6   5   72.57   10.95
  -6   6   6  147.02   14.86
   6   6   6  149.23   15.46
   6   7  -3   95.48   12.30
  -6   7  -3   86.86   11.39
   6   7  -2   79.47   11.34
  -6   7  -2   72.93   10.40
   6   7  -1  120.43   13.73
  -6   7  -1  130.75   13.66
  -6   7   0   51.39    9.17
   6   7   0   80.22   11.24
  -6  -7   0   70.51    9.46
  -6   7   1   92.67   11.69
   6   7   1  104.35   12.62
  -6   7   2   60.05    9.62
   6   7   2   72.32   10.96
  -6   7   3   86.02   11.10
   6   7   3   84.44   11.56
   7   0  -9  399.63   23.04
   7   0  -9  373.52   21.66
   7   0  -8    2.63    4.53
   7   0  -8   -0.84    4.20
   7   0  -8   -0.62    3.81
  -7   0  -8    1.66    3.35
   7   0  -7  504.90   21.75
  -7   0  -7  500.94   21.08
   7   0  -7  469.67   23.90
   7   0  -6    0.73    3.68
  -7   0  -6    2.43    1.96
   7   0  -6    6.34    3.28
  -7   0  -6    0.82    2.92
   7   0  -5  712.11   25.02
  -7   0  -5  688.57   24.41
   7   0  -5  688.73   28.84
  -7   0  -5  663.76   22.05
   7   0  -5  696.99   28.02
   7   0  -4   -1.64    3.70
  -7   0  -4    0.45    3.13
   7   0  -4    0.27    1.88
  -7   0  -4    1.46    1.90
  -7   0  -4   -1.27    1.80
   7   0  -4   -0.61    3.26
  -7   0  -3  555.71   22.24
  -7   0  -3  533.80   18.67
   7   0  -3  601.12   24.21
   7   0  -3  574.26   18.50
  -7   0  -3  591.89   18.29
   7   0  -3  571.85   23.57
  -7   0  -2    0.82    3.02
   7   0  -2    2.84    3.43
   7   0  -2   -1.43    3.00
   7   0  -1  610.26   24.06
   7   0  -1  636.55   24.08
  -7   0  -1  643.52   24.00
   7   0   0   -0.30    2.11
  -7   0   0    1.20    2.78
   7   0   1  577.06   19.14
  -7   0   1  561.57   21.96
  -7   0   2    1.98    2.95
   7   1  -9  310.82   19.95
   7  -1  -9  276.70   18.16
   7   1  -9  338.67   20.73
   7   1  -8    0.90    4.56
   7  -1  -8    3.73    4.15
  -7  -1  -8    3.39    3.65
   7   1  -8    1.84    4.84
   7   1  -8    4.27    4.53
  -7   1  -8    5.70    4.41
   7   1  -7  411.13   22.75
   7   1  -7  427.65   22.98
   7   1  -7  468.13   21.51
  -7   1  -7  431.71   20.21
   7  -1  -7  431.85   19.85
  -7  -1  -7  434.10   19.22
  -7   1  -6    3.52    3.24
   7  -1  -6    7.99    4.25
   7   1  -6    3.08    4.06
   7  -1  -6    6.30    3.55
  -7  -1  -6    4.11    2.95
   7   1  -6    4.72    4.43
   7   1  -6    6.19    3.96
   7   1  -5  292.23   17.04
  -7   1  -5  304.75   14.21
  -7  -1  -5  327.59   16.61
   7  -1  -5  302.60   16.31
   7   1  -5  287.46   17.00
   7   1  -5  308.95   14.94
  -7   1  -5  314.15   14.60
   7  -1  -5  290.05   13.54
  -7  -1  -5  310.89   13.45
   7  -1  -5  273.30   15.21
   7   1  -5  317.54   17.06
   7   1  -4    8.01    3.10
  -7   1  -4    5.63    2.72
   7  -1  -4    9.39    2.78
  -7  -1  -4    7.08    2.47
   7   1  -4   11.76    4.65
   7  -1  -4    7.56    4.11
   7   1  -4   13.00    4.96
  -7   1  -4    6.67    3.03
  -7  -1  -4    7.04    4.35
   7  -1  -4    2.17    3.01
   7   1  -4    8.56    4.25
  -7  -1  -4    7.29    2.79
  -7   1  -3  552.05   21.34
  -7  -1  -3  575.70   23.74
   7   1  -3  590.05   24.37
   7  -1  -3  564.96   23.19
   7   1  -3  571.40   20.04
  -7   1  -3  613.69   20.08
   7  -1  -3  584.93   19.99
  -7  -1  -3  571.80   21.22
   7   1  -3  552.34   24.45
   7  -1  -3  597.62   23.36
   7   1  -3  609.43   24.94
   7   1  -2    9.92    3.71
  -7   1  -2   11.43    3.19
  -7  -1  -2   13.23    4.31
   7  -1  -2   12.79    4.09
   7   1  -2   12.27    4.81
   7  -1  -2    7.15    3.28
  -7  -1  -2   10.35    3.02
   7   1  -2   10.22    3.98
   7   1  -2    7.19    1.38
  -7   1  -2    8.57    1.41
   7  -1  -1  972.31   32.86
   7   1  -1 1002.24   35.06
   7   1  -1  969.57   32.83
  -7  -1  -1  945.47   32.38
   7  -1  -1  953.43   32.75
  -7   1  -1  972.67   32.14
  -7  -1  -1  954.99   34.50
  -7   1   0    9.09    2.93
  -7  -1   0    8.63    3.67
   7   1   0   10.77    2.62
  -7  -1   0   10.43    3.17
   7  -1   0    8.35    2.58
  -7   1   1  940.13   31.67
  -7  -1   1  989.83   34.57
  -7  -1   2   10.98    3.93
  -7  -1   3  543.06   22.26
   7   2  -9  291.65   19.70
   7   2  -9  261.20   19.47
   7   2  -8   35.66    8.03
   7   2  -8   32.38    7.74
   7   2  -7  293.40   18.66
   7   2  -7  296.58   18.80
   7   2  -7  298.62   19.30
  -7   2  -7  261.74   17.64
   7  -2  -7  274.90   15.69
  -7  -2  -7  317.73   15.89
   7  -2  -6   50.90    6.41
   7  -2  -6   42.23    6.40
   7   2  -6   45.33    7.50
   7   2  -6   45.82    7.81
  -7  -2  -6   57.42    6.58
   7   2  -6   43.87    8.74
  -7   2  -6   57.75    8.87
  -7   2  -5  590.06   20.64
  -7  -2  -5  592.68   25.55
   7   2  -5  562.38   25.63
   7   2  -5  562.43   26.23
  -7  -2  -5  562.91   21.96
   7  -2  -5  527.65   22.18
   7   2  -5  465.43   26.06
   7  -2  -5  515.05   22.41
  -7   2  -5  551.74   26.88
  -7  -2  -4   31.94    4.39
   7  -2  -4   26.72    4.44
   7  -2  -4   34.31    5.32
   7   2  -4   31.50    5.87
   7   2  -4   27.09    6.24
  -7   2  -4   31.49    3.94
  -7  -2  -4   34.16    6.03
   7   2  -4   25.52    5.75
   7   2  -4   34.42    7.52
  -7  -2  -4   29.25    4.80
  -7   2  -4   29.86    7.27
   7   2  -3  593.58   25.33
  -7  -2  -3  626.57   25.34
   7   2  -3  549.37   23.76
  -7  -2  -3  600.26   22.73
   7   2  -3  593.95   25.71
   7  -2  -3  566.32   22.26
  -7   2  -3  573.84   20.03
   7   2  -3  499.60   25.20
  -7   2  -3  580.63   25.50
  -7   2  -2   14.88    2.80
   7   2  -2   11.35    3.69
   7  -2  -2   13.13    3.66
  -7  -2  -2   17.12    4.87
   7   2  -2   22.37    5.42
  -7  -2  -2   17.45    4.16
   7  -2  -1  588.61   20.16
   7   2  -1  560.11   23.77
   7  -2  -1  567.33   20.47
  -7  -2  -1  565.26   22.32
  -7   2  -1  527.07   18.43
   7   2  -1  531.66   18.49
  -7   2  -1  558.00   18.75
  -7  -2  -1  593.90   24.09
  -7  -2   0   16.27    4.98
  -7  -2   0   18.49    4.36
  -7   2   0   17.39    2.39
   7  -2   0   15.86    2.79
   7   2   0   18.07    2.35
  -7   2   1  419.96   15.42
   7   2   1  429.02   15.50
  -7   2   2   12.07    2.85
   7   2   2   16.34    3.57
  -7   2   3  504.11   22.10
   7   2   3  523.41   23.19
   7  -2   4   24.36    2.85
  -7   2   4   23.25    6.27
   7   2   4   32.50    7.70
  -7   2   5  514.86   28.41
   7   2   5  594.64   30.58
  -7   2   6   50.27   11.00
   7   3  -8   11.54    6.14
   7   3  -8   17.37    7.27
   7   3  -7  304.97   20.23
  -7  -3  -7  311.39   17.44
  -7  -3  -6    6.33    4.13
   7  -3  -6    1.15    4.25
   7   3  -6    6.54    7.70
   7  -3  -6    9.34    4.49
   7   3  -6    6.41    4.91
  -7   3  -6    5.36    2.69
  -7  -3  -6   11.41    6.07
   7   3  -6    6.30    5.22
  -7   3  -6   -1.23    8.80
   7   3  -5  239.37   19.97
   7   3  -5  257.24   16.88
   7  -3  -5  263.55   13.77
  -7   3  -5  272.20   10.59
   7  -3  -4   35.80    5.46
  -7   3  -4   36.02    2.90
  -7  -3  -3  447.30   19.86
   7  -3  -3  417.52   17.21
   7  -3  -2  118.89    7.11
   7   3  -2  126.35   11.03
  -7   3  -2  116.08    7.93
  -7  -3  -2  124.65    9.60
  -7  -3  -1  528.33   22.81
   7   3  -1  531.01   20.69
  -7   3  -1  550.20   20.55
  -7  -3   0  118.59    9.60
  -7   3   0  128.47    7.63
   7   3   0  114.72    7.49
  -7   3   1  491.83   19.11
   7   3   1  500.59   19.43
  -7  -3   1  525.61   22.41
  -7   3   2  103.47    7.31
   7   3   2  114.67    7.91
  -7  -3   2  109.05    9.24
  -7  -3   2  112.91    9.85
  -7   3   3  362.09   16.86
   7   3   3  372.03   17.43
  -7  -3   3  399.84   19.28
  -7  -3   4   32.44    6.03
  -7   3   4   37.33    6.00
   7   3   4   26.51    5.82
   7  -3   5  257.78   11.68
  -7   3   5  285.40   18.05
   7   3   5  263.88   18.39
  -7   3   6   13.09    6.91
   7   3   6   13.07    7.81
  -7   3   7  312.72   25.44
   7   3   7  346.15   27.60
  -7   3   8    5.22   11.09
   7   3   8   12.97   11.66
  -7  -4  -5  276.29   17.34
  -7  -4  -5  199.61   10.08
  -7  -4  -4   47.64    5.16
  -7  -4  -4   56.03    8.57
  -7  -4  -3  282.89   17.12
  -7  -4  -3  267.83   12.92
   7  -4  -3  283.34   11.85
   7  -4  -2   57.05    3.70
  -7  -4  -2   62.92    6.37
  -7  -4  -2   60.16    8.64
   7   4  -2   67.25    7.44
  -7   4  -2   74.79    7.29
  -7  -4  -1  415.12   17.95
   7   4  -1  410.26   18.89
  -7   4  -1  379.60   17.87
  -7  -4  -1  410.55   20.81
  -7  -4   0  105.82    9.23
  -7   4   0  112.01    8.43
   7   4   0  116.13    8.90
  -7  -4   0  128.70   11.04
  -7  -4   1  382.46   19.73
  -7   4   1  375.80   17.17
   7   4   1  374.36   17.61
  -7   4   2   69.88    6.96
   7   4   2   68.25    7.21
  -7  -4   2   48.84    7.65
  -7   4   3  292.36   15.20
   7   4   3  278.32   15.48
  -7  -4   3  288.72   16.73
  -7  -4   4   50.98    7.72
  -7   4   4   62.39    7.93
   7   4   4   64.08    8.33
  -7   4   5  231.07   15.92
   7   4   5  237.64   16.64
  -7   4   6   81.72   11.65
   7   4   6   88.61   12.55
  -7   4   7  177.82   18.28
   7   4   7  162.35   18.51
  -7   4   8   85.83   16.48
   7   4   8   69.38   15.36
  -7   4   9  179.67   23.09
   7   4   9  194.13   24.95
  -7  -5  -5  193.37   15.84
  -7  -5  -4  109.31   11.80
  -7  -5  -4   84.97    7.81
  -7  -5  -3  175.68   11.05
  -7  -5  -3  173.65   13.94
  -7  -5  -2  108.54    9.14
   7   5  -2  107.56   10.48
  -7   5  -2  108.07    9.90
  -7  -5  -2  127.91   12.03
  -7  -5  -1  174.38   11.65
   7   5  -1  183.68   13.30
  -7   5  -1  159.98   11.81
  -7  -5  -1  188.06   14.28
  -7  -5   0   84.55    8.73
  -7   5   0  103.74    9.25
   7   5   0   80.79    9.10
  -7  -5   0  100.41   10.63
  -7   5   1  162.00   11.78
   7   5   1  163.00   12.37
   7   5   2  110.44   10.55
  -7  -5   2  104.58   10.82
  -7   5   2  103.27    9.64
  -7   5   3  150.07   11.79
   7   5   3  173.76   12.95
  -7  -5   3  187.32   13.57
  -7  -5   4   64.38    8.85
   7   5   4   78.90    9.68
  -7   5   4   73.33    8.94
  -7   5   5  192.92   15.02
   7   5   5  175.67   15.11
  -7   5   6   69.40   10.63
   7   5   6   70.13   11.02
  -7   5   7  232.79   19.98
   7   5   7  213.23   20.32
   7   6  -3  127.87   12.80
  -7   6  -3  125.96   12.01
   7   6  -2   75.21   10.53
  -7  -6  -2   87.50   10.61
  -7   6  -2   88.78   10.34
   7   6  -1  160.82   14.16
  -7   6  -1  164.38   13.42
  -7  -6  -1  179.87   14.53
  -7   6   0   79.88   10.07
   7   6   0   98.66   11.14
  -7  -6   1  150.50   13.25
  -7   6   1  127.50   11.72
   7   6   1  132.85   12.58
  -7  -6   2   84.05   10.06
  -7   6   2   67.65    9.28
   7   6   2   69.65    9.77
  -7   6   3   89.90   10.31
  -7  -6   3  108.81   11.12
  -7   6   4   63.73    9.18
   7   6   4   75.43   10.41
  -7   6   5   84.34   11.22
   7   6   5   78.62   11.17
  -7   6   6   98.41   12.92
   7   6   6   82.78   12.53
   7   7  -2  107.82   12.68
  -7   7  -2   82.88   11.34
   7   7  -1   49.90    9.93
  -7   7  -1   51.11    9.38
  -7   7   0   65.05    9.91
   7   7   0   63.97   10.30
  -7   7   1   51.07    9.22
   7   7   1   47.35    9.61
  -7   7   2  107.53   11.93
   7   7   2   76.09   11.40
   8   0  -8  270.92   18.61
   8   0  -8  296.81   19.31
   8   0  -7   -0.85    4.94
  -8   0  -7   -1.40    3.05
  -8   0  -7   -0.16    1.93
   8   0  -6  333.46   19.01
  -8   0  -6  342.07   17.01
   8   0  -6  359.96   19.56
   8   0  -6  371.05   15.67
  -8   0  -6  370.22   15.20
   8   0  -5    1.61    2.25
  -8   0  -5    3.19    2.49
  -8   0  -5    2.15    3.71
  -8   0  -5    0.28    1.57
   8   0  -5    0.73    4.05
  -8   0  -4  322.56   16.52
   8   0  -4  362.72   18.85
   8   0  -4  383.59   13.66
  -8   0  -4  373.65   13.22
   8   0  -4  325.48   17.76
  -8   0  -3    1.43    3.32
   8   0  -3    0.56    3.85
   8   0  -3   -3.58    3.75
   8   0  -2  571.90   24.00
   8   0  -2  573.95   23.75
   8   0  -2  601.66   24.23
  -8   0  -2  572.46   23.04
   8   0  -1   -2.49    2.89
  -8   0  -1    3.17    3.19
   8   0  -1    3.36    3.47
   8   0  -1    0.46    2.90
   8   0   0 1053.83   34.38
  -8   0   0 1035.17   36.27
  -8   0   1    3.08    3.18
   8   0   1   -0.42    1.72
  -8   0   2  568.58   22.50
   8  -1  -8  290.15   18.19
   8   1  -8  319.83   20.13
   8   1  -7   11.26    5.45
  -8  -1  -7   10.17    3.88
   8  -1  -7   14.43    5.47
   8   1  -7   12.82    5.77
  -8  -1  -7    6.58    3.11
  -8   1  -7    9.09    4.06
  -8   1  -6  483.92   20.17
   8   1  -6  464.20   23.52
  -8  -1  -6  456.44   22.22
  -8   1  -6  473.84   19.38
   8  -1  -6  422.03   22.07
   8   1  -6  457.55   23.84
  -8  -1  -6  435.62   17.69
  -8  -1  -6  467.24   18.93
  -8  -1  -5   10.63    3.18
   8  -1  -5    9.02    3.16
   8   1  -5    9.47    4.81
   8  -1  -5    4.16    4.43
  -8   1  -5   11.53    3.88
  -8  -1  -5   12.08    5.41
   8  -1  -5    4.69    4.32
   8   1  -5    7.06    4.75
  -8  -1  -5    8.00    2.90
   8   1  -5   11.50    3.59
  -8   1  -5   10.10    3.19
  -8   1  -4  561.20   22.34
  -8  -1  -4  575.85   24.85
   8   1  -4  587.79   25.77
   8   1  -4  578.94   20.27
  -8   1  -4  616.08   20.18
   8  -1  -4  561.14   24.72
  -8  -1  -4  557.09   21.31
  -8  -1  -4  602.83   20.24
   8  -1  -4  577.72   20.53
   8   1  -4  577.10   26.18
   8  -1  -4  576.06   24.41
   8   1  -3   11.38    4.20
  -8   1  -3    6.93    3.32
   8  -1  -3   13.75    4.89
  -8  -1  -3    5.63    4.19
   8   1  -3    6.79    4.60
   8   1  -3    5.91    1.70
  -8   1  -3    6.53    1.50
   8  -1  -3    6.59    3.79
  -8  -1  -3    2.76    2.71
   8   1  -3    5.17    3.70
   8  -1  -2  553.52   22.33
   8   1  -2  535.90   23.91
   8   1  -2  524.04   22.19
  -8  -1  -2  550.69   20.67
   8  -1  -2  537.21   22.24
   8   1  -2  586.23   24.18
  -8   1  -2  542.33   21.00
  -8  -1  -2  544.54   23.10
  -8   1  -1    8.92    3.30
   8   1  -1    6.59    2.92
  -8  -1  -1    9.20    4.24
   8  -1  -1    8.87    3.81
   8   1  -1    4.92    4.07
  -8  -1  -1    7.30    2.93
   8  -1  -1    6.83    3.08
   8   1   0  311.24   13.27
  -8   1   0  332.67   14.16
  -8  -1   0  314.70   16.12
  -8   1   1    9.47    3.08
  -8  -1   1    9.97    3.88
  -8  -1   2  571.49   23.70
  -8  -1   3    4.16    3.76
   8   2  -8  267.84   18.71
   8   2  -8  293.03   20.14
  -8  -2  -7    1.57    3.72
  -8   2  -7    8.99    4.95
   8   2  -7    7.18    5.05
  -8   2  -7    4.71    3.59
  -8  -2  -7    5.01    6.05
   8   2  -7    7.75    5.45
  -8   2  -6  389.20   16.74
  -8  -2  -6  437.51   22.05
   8   2  -6  377.00   21.58
   8   2  -6  399.75   22.41
  -8  -2  -6  378.44   17.63
  -8  -2  -6  409.88   18.14
  -8   2  -6  380.19   19.50
  -8  -2  -5   14.99    3.85
   8  -2  -5   18.54    4.23
   8   2  -5   22.35    5.95
   8  -2  -5   18.28    5.22
  -8   2  -5   13.29    3.45
   8   2  -5   17.55    5.23
  -8  -2  -5   19.12    6.18
  -8   2  -5   16.99    4.96
   8   2  -5   14.89    5.47
  -8  -2  -5   14.52    4.28
  -8  -2  -4  480.10   22.18
   8   2  -4  420.75   21.12
   8  -2  -4  431.67   20.13
  -8  -2  -4  421.86   18.56
   8   2  -4  408.01   21.74
   8   2  -4  416.65   19.64
  -8   2  -4  449.09   19.83
   8  -2  -4  469.71   19.99
  -8   2  -4  425.86   16.79
  -8   2  -3   30.93    3.92
   8   2  -3   37.02    5.94
   8  -2  -3   25.93    5.43
  -8  -2  -3   28.75    6.18
   8  -2  -3   31.08    5.37
  -8  -2  -3   23.69    4.65
   8   2  -3   35.65    6.51
   8   2  -3   27.19    5.04
  -8   2  -3   26.33    4.71
   8  -2  -2  416.70   16.35
   8   2  -2  384.59   19.23
   8   2  -2  367.51   16.91
   8  -2  -2  388.73   16.41
  -8  -2  -2  382.76   16.84
   8   2  -2  345.11   12.71
  -8   2  -2  329.71   12.54
   8   2  -2  325.04   14.65
  -8   2  -2  410.10   14.32
  -8   2  -2  299.77   14.43
  -8  -2  -2  406.65   19.25
  -8   2  -1   23.33    2.00
  -8  -2  -1   40.31    6.52
  -8  -2  -1   43.65    5.65
   8  -2  -1   35.96    4.55
  -8   2  -1   18.67    3.14
  -8   2  -1   33.47    3.64
   8   2  -1   14.93    2.38
  -8  -2   0  489.17   16.96
   8  -2   0  505.37   13.34
  -8  -2   0  526.35   19.61
  -8   2   1   26.94    3.53
  -8  -2   1   43.50    6.55
  -8  -2   2  370.19   17.90
  -8   2   2  308.13   14.99
  -8  -2   3   29.40    5.66
  -8   2   3   30.72    6.32
   8  -2   4  276.07    9.79
  -8  -2   4  425.27   18.27
  -8   3  -7   76.59    6.16
   8   3  -7   61.37    9.67
  -8  -3  -7   86.81   11.51
   8   3  -7   65.09   10.46
  -8  -3  -6  308.52   19.22
   8   3  -6  261.12   17.27
   8   3  -6  257.99   18.41
  -8   3  -6  241.67   19.39
  -8   3  -6  277.46   11.57
  -8   3  -5   57.91   10.65
  -8  -3  -5   52.97    8.60
  -8  -3  -5   44.07    6.80
   8   3  -5   39.91    8.12
  -8   3  -5   58.62    4.34
  -8   3  -4  342.55   21.62
  -8  -3  -4  365.84   18.18
  -8   3  -4  364.13   12.51
   8  -3  -4  384.61   17.20
   8  -3  -3   39.01    5.21
  -8  -3  -3   45.08    7.82
  -8  -3  -3   33.00    5.85
   8  -3  -2  381.07   14.98
  -8  -3  -2  400.01   18.70
   8   3  -2  372.25   15.88
  -8   3  -2  374.99   15.47
  -8  -3  -2  360.56   19.70
  -8   3  -1   23.61    3.57
   8   3  -1   22.36    3.76
   8  -3  -1   28.76    4.00
  -8  -3  -1   36.29    5.93
   8   3   0  228.65   11.01
  -8  -3   0  268.86   14.80
   8  -3   0  277.89   10.59
  -8   3   0  232.89   10.95
  -8  -3   1   26.60    5.41
  -8   3   1   28.83    3.88
   8   3   1   21.52    3.47
  -8   3   2  361.36   15.37
   8   3   2  319.27   15.12
  -8   3   3   41.48    6.00
   8   3   3   40.28    6.36
  -8   3   4  363.12   20.21
   8   3   4  365.83   21.49
  -8   3   5   50.91    9.51
   8   3   5   59.28   11.35
  -8   3   6  300.87   23.76
   8   3   6  284.02   23.99
   8   3   7   75.22   15.27
  -8   3   7   52.57   12.80
   8   4  -3   64.80    7.70
  -8   4  -3   84.84    7.91
   8   4  -2  227.22   13.18
  -8   4  -2  229.96   12.72
  -8   4  -1   70.45    6.66
  -8  -4  -1   82.32   10.17
   8  -4   0  347.12   12.93
  -8  -4   0  377.45   20.04
  -8   4   0  350.39   15.77
  -8   4   1   63.88    6.56
   8   4   1   56.77    6.69
  -8  -4   1   75.12    9.29
  -8   4   2  217.83   12.51
   8   4   2  236.92   13.30
  -8  -4   2  240.02   15.54
  -8  -4   3   74.45    9.08
  -8   4   3   64.68    7.88
   8   4   3   77.63    8.43
  -8   4   4  204.24   14.22
   8   4   4  223.85   15.29
  -8  -4   4  238.64   15.19
  -8   4   5   92.40   10.97
   8   4   5   61.70   10.69
  -8   4   6  205.80   18.57
  -8   4   7   24.14   10.88
  -8   4   8  131.94   19.28
   8   5  -3   50.77    8.03
  -8   5  -3   63.06    7.91
  -8  -5  -3   57.01    9.45
   8   5  -2  212.16   14.48
  -8   5  -2  218.36   13.62
  -8  -5  -2  220.07   16.27
  -8  -5  -1   85.95    8.73
  -8   5  -1   58.59    7.89
  -8  -5  -1   89.50   10.70
   8   5  -1   79.64    9.18
  -8   5   0  162.54   11.92
   8   5   0  197.05   13.19
  -8   5   1   69.43    8.34
   8   5   1   81.42    9.07
  -8  -5   1   85.68   10.33
  -8   5   2  191.78   12.87
   8   5   2  177.63   13.03
  -8  -5   3   77.17    9.79
  -8   5   3   72.91    8.44
   8   5   3   64.19    8.60
  -8   5   4  131.20   11.81
  -8  -5   4  132.35   11.98
  -8   5   5   46.91    8.63
  -8   5   6  105.28   13.06
  -8   5   7   65.70   13.24
  -8   6  -4  101.79   10.83
  -8   6  -3   91.12   10.44
  -8   6  -2   81.43    9.70
  -8   6  -1   55.36    8.34
  -8   6   0   57.59    8.05
  -8   6   1   58.46    8.65
  -8   6   2   72.37    8.83
  -8   6   3   80.19    9.68
  -8   6   4  130.05   12.76
  -8   6   5   74.98   10.85
  -8   7  -1   77.81   10.18
  -8   7   0   36.63    8.14
  -8   7   1   89.95   11.37
  -9   0  -9  227.19   15.94
  -9   0  -8   -2.82    5.57
   9   0  -8    3.97    5.41
  -9   0  -7  278.79   16.31
   9   0  -7  247.99   17.39
   9   0  -7  260.56   18.25
   9   0  -6    1.64    4.82
  -9   0  -6   -1.23    4.66
   9   0  -6    5.13    5.18
  -9   0  -5  477.33   22.19
   9   0  -5  476.37   24.28
   9   0  -5  437.01   23.75
   9   0  -4   -0.69    4.46
  -9   0  -4    0.54    3.91
   9   0  -4    5.73    4.62
   9   0  -3  436.40   21.04
   9   0  -3  434.70   20.76
   9   0  -3  459.25   21.40
  -9   0  -3  430.73   19.65
   9   0  -2    0.52    3.45
  -9   0  -2    2.06    3.76
   9   0  -2    5.13    4.43
   9   0  -2    2.30    3.96
   9   0  -1  358.79   16.22
  -9   0  -1  362.98   17.14
  -9   0   0    0.48    3.58
   9   0   0    0.66    2.41
   9   0   1  384.71   14.02
  -9   0   1  364.65   17.28
  -9   0   2    0.94    3.51
  -9   1  -9  198.74   13.97
  -9   1  -8    5.33    4.86
  -9  -1  -8    5.73    6.57
   9  -1  -8    5.64    5.45
  -9   1  -7  414.98   19.30
  -9  -1  -7  403.78   21.65
   9   1  -7  390.15   22.44
   9  -1  -7  388.62   22.09
   9   1  -7  361.40   22.50
   9   1  -6    5.82    5.17
  -9   1  -6   15.28    4.79
  -9  -1  -6   13.73    5.89
   9  -1  -6    8.95    5.38
   9   1  -6    9.97    5.57
  -9  -1  -5  370.84   19.43
   9   1  -5  360.55   20.00
   9  -1  -5  367.93   19.99
  -9  -1  -5  347.54   15.17
   9   1  -5  374.62   20.94
  -9   1  -5  401.77   14.65
  -9   1  -5  367.28   17.13
  -9   1  -4   11.48    1.72
   9   1  -4   11.56    5.11
  -9   1  -4   14.23    4.18
   9  -1  -4   16.17    5.34
  -9  -1  -4   17.26    5.48
  -9  -1  -4    4.64    2.67
   9  -1  -4   13.99    5.23
   9   1  -4    8.36    4.91
   9  -1  -3  357.60   18.44
   9   1  -3  405.36   19.32
  -9  -1  -3  366.43   15.81
   9  -1  -3  437.19   19.70
   9   1  -3  422.28   20.65
  -9   1  -3  392.49   17.29
  -9  -1  -3  391.26   19.34
  -9   1  -2    2.87    3.39
   9   1  -2    0.50    2.98
  -9  -1  -2    0.60    4.38
   9  -1  -2    2.48    3.86
   9  -1  -2    2.59    3.71
   9   1  -1  387.25   17.02
   9  -1  -1  410.42   17.45
  -9   1  -1  411.39   17.12
  -9  -1  -1  364.76   18.74
  -9   1   0    2.68    3.02
  -9  -1   0    3.45    3.84
  -9   1   1  391.71   16.74
  -9  -1   1  408.18   19.21
  -9  -1   2   11.92    4.66
   9  -1   2    3.24    1.83
  -9  -1   3  390.05   18.71
  -9   2  -7  149.00   10.31
  -9  -2  -7  181.00   15.01
   9   2  -7  170.75   14.50
   9  -2  -7  200.76   14.68
   9   2  -7  164.36   15.00
   9   2  -6   20.33    6.29
  -9   2  -6   31.16    5.03
  -9  -2  -6   27.44    7.39
   9  -2  -6   23.54    6.27
   9   2  -6   21.67    6.73
  -9  -2  -5  412.65   21.76
   9   2  -5  411.14   21.71
   9  -2  -5  403.53   20.52
  -9   2  -5  443.28   17.55
  -9  -2  -5  392.86   18.08
   9   2  -5  410.46   22.76
   9  -2  -5  392.55   19.77
  -9   2  -5  406.22   16.91
  -9   2  -4   24.15    4.05
   9   2  -4   14.27    5.09
   9  -2  -4   26.55    5.90
  -9  -2  -4   21.43    6.55
   9  -2  -4   27.14    5.65
  -9  -2  -4   15.31    4.41
   9   2  -4   17.25    5.86
  -9   2  -4   17.32    3.22
   9  -2  -3  406.82   17.54
   9   2  -3  401.74   18.56
  -9   2  -3  317.27   11.56
   9  -2  -3  433.87   18.39
  -9  -2  -3  411.00   17.32
  -9   2  -3  407.26   14.81
  -9  -2  -3  406.46   20.09
  -9   2  -2   13.46    3.18
  -9  -2  -2   15.79    5.68
   9  -2  -2   12.94    4.25
  -9  -2  -2   10.99    3.94
   9  -2  -2   10.72    4.11
  -9  -2  -1  313.31   15.58
   9  -2  -1  354.41   14.89
  -9   2  -1  309.41   12.98
  -9  -2  -1  326.78   17.99
  -9  -2   0   30.41    6.43
  -9  -2   1  303.78   16.90
  -9  -2   2   18.65    5.45
  -9  -2   3  436.16   21.15
  -9  -3  -6   38.23    8.89
   9   3  -6   26.89    7.33
  -9  -3  -5  278.73   18.69
   9  -3  -4   44.88    6.68
  -9   3  -4   43.09    3.24
   9  -3  -3  308.33   15.05
  -9   3  -3  269.30   12.10
  -9  -3  -3  299.90   18.14
  -9   3  -2   34.88    3.86
  -9  -3  -2   45.62    8.17
   9  -3  -2   44.97    5.85
   9  -3  -1  296.43   12.16
  -9  -3  -1  295.07   17.18
  -9  -3   0   28.10    6.68
  -9   3   0   19.07    2.98
  -9   3   1  214.40   10.48
  -9  -3   1  274.35   16.16
  -9  -3   2   49.03    7.65
  -9   3   2   42.35    5.92
  -9  -3   3  303.45   17.20
  -9   3   3  233.22   15.59
  -9   3   4   48.84    9.62
  -9   3   5  221.77   19.04
  -9   4  -4   38.60    5.97
  -9  -4  -4   48.74    9.26
  -9   4  -3  180.94   11.05
  -9   4  -2   46.11    5.53
  -9   4  -1  165.96    9.63
  -9   4   0   63.67    6.25
  -9   4   1  190.54   10.84
  -9   4   2   56.18    6.83
  -9   4   3  206.26   13.71
  -9  -4   3  229.22   15.61
  -9  -4   4   41.19    7.53
  -9   4   4   57.45    9.16
  -9   4   5  195.27   17.76
  -9   5  -2   51.13    6.97
  -9   5  -1  106.10    8.98
  -9   5   0   25.34    5.62
  -9   5   1  123.52    9.72
  -9   5   2   62.81    7.66
  -9   5   3  132.52   11.29
 -10   0  -8  218.82   15.39
  10   0  -7   -2.65    5.27
 -10   0  -7    6.13    5.46
  10   0  -7    2.93    5.49
 -10   0  -6  347.67   18.35
  10   0  -6  298.37   19.09
  10   0  -6  331.59   20.43
  10   0  -5    1.54    4.59
 -10   0  -5    0.61    4.53
  10   0  -5   -3.33    4.97
  10   0  -4  321.46   18.00
  10   0  -4  321.49   18.43
 -10   0  -4  302.72   16.53
  10   0  -3   -1.87    3.97
 -10   0  -3    2.27    4.23
  10   0  -3    2.04    4.17
  10   0  -2  269.08   14.59
  10   0  -2  276.38   15.57
 -10   0  -2  273.09   15.11
 -10   0  -1    2.67    4.01
  10   0  -1    0.44    3.41
  10   0   0  392.47   15.93
 -10   0   0  376.40   18.11
 -10   0   1   -2.57    3.93
 -10   1  -7    2.27    4.51
 -10  -1  -7    3.17    5.57
  10  -1  -7    0.94    5.10
 -10  -1  -6  201.51   14.98
  10   1  -6  226.96   16.09
  10  -1  -6  211.12   16.00
  10   1  -6  196.00   16.00
 -10   1  -6  208.41   12.95
  10   1  -5    0.78    4.70
 -10   1  -5    3.51    4.20
 -10  -1  -5    4.99    5.30
  10  -1  -5    4.70    5.17
  10   1  -5    4.36    5.20
  10   1  -4  355.86   18.76
  10  -1  -4  355.66   18.85
  10   1  -4  336.86   19.62
 -10   1  -4  299.11   15.66
 -10  -1  -4  315.18   18.04
 -10   1  -3    5.49    3.67
  10   1  -3    4.26    4.19
 -10  -1  -3    3.31    4.83
  10  -1  -3    5.90    5.05
  10  -1  -3    7.54    4.29
  10  -1  -2  371.84   18.56
  10   1  -2  403.81   18.42
  10  -1  -2  412.83   18.84
 -10   1  -2  379.75   17.22
 -10  -1  -2  389.38   19.84
 -10   1  -1   14.34    4.29
 -10  -1  -1   11.32    5.28
  10   1  -1   11.66    4.01
  10  -1   0  277.12   13.60
 -10   1   0  293.74   14.05
 -10  -1   0  296.15   16.32
 -10  -1   1   15.76    5.58
 -10  -1   2  412.57   19.99
  10  -2  -7   11.52    6.05
 -10  -2  -6  334.80   20.71
  10   2  -6  327.12   20.22
  10  -2  -6  355.80   20.29
  10   2  -6  310.48   21.03
 -10   2  -5   36.23    5.41
  10   2  -5   38.18    7.58
 -10  -2  -5   40.15    8.17
  10  -2  -5   33.93    7.07
  10   2  -5   34.28    8.04
  10   2  -4  332.72   18.33
  10  -2  -4  316.76   17.60
 -10   2  -4  310.76   14.09
 -10  -2  -4  311.26   18.87
 -10   2  -3   21.63    4.04
 -10  -2  -3   24.17    6.62
 -10  -2  -3   20.51    4.68
  10  -2  -3   24.24    5.54
 -10  -2  -2  222.18   12.69
  10  -2  -2  223.50   12.59
 -10   2  -2  205.80   10.40
 -10  -2  -2  247.46   15.82
 -10  -2  -1    7.15    5.38
 -10  -2   0  214.98   14.84
 -10  -2   1    4.11    4.68
 -10  -2   2  246.81   15.60
 -10  -2   3   24.75    6.31
  10  -3  -6  155.29   13.11
 -10  -3  -4  256.58   17.96
 -10  -3  -3   26.36    7.55
 -10  -3  -2  249.97   17.18
 -10  -3  -1   52.03    8.51
 -10  -3   0  184.08   14.13
 -10  -3   1   53.43    8.72
 -10  -3   2  236.65   16.16
 -10  -3   3   23.16    6.92
 -11   0  -7  114.63   11.23
  11   0  -6    3.43    5.46
 -11   0  -6   -2.64    5.32
  11   0  -6    0.94    5.89
  11   0  -5  203.43   15.31
  11   0  -5  204.54   15.62
 -11   0  -5  205.42   14.02
  11   0  -4   -0.72    4.82
 -11   0  -4   -1.24    4.61
  11   0  -4    0.78    4.81
  11   0  -3  259.53   15.52
  11   0  -3  238.59   15.57
 -11   0  -3  225.71   14.31
 -11   0  -2    2.30    4.55
  11   0  -2   -1.63    3.98
 -11   0  -1  342.30   17.50
 -11   0   0    2.75    4.38
 -11   0   1  332.00   16.94
 -11  -1  -6    9.29    6.36
  11  -1  -6   10.74    6.24
  11  -1  -5  245.13   17.02
  11   1  -5  236.59   16.25
  11  -1  -5  240.77   16.59
  11   1  -5  239.31   17.27
 -11   1  -5  215.94   13.43
 -11  -1  -5  229.36   15.77
  11  -1  -4    3.06    4.99
 -11   1  -4    5.49    4.28
  11   1  -4    7.08    5.08
 -11  -1  -4    8.62    5.76
  11  -1  -4    8.76    5.34
  11  -1  -3  234.42   15.45
  11   1  -3  245.36   14.82
 -11   1  -3  222.35   13.02
 -11  -1  -3  211.99   14.91
 -11   1  -2    5.02    3.74
  11  -1  -2   -2.99    4.12
 -11  -1  -2    8.13    5.39
 -11   1  -1  219.68   12.36
 -11  -1  -1  224.60   14.65
 -11   1   0    2.57    3.76
 -11  -1   0   -0.64    5.05
 -11  -1   1  254.07   15.46
 -11  -1   2   -0.62    4.56
  11   2  -5  228.20   16.10
 -11  -2  -4    2.46    5.66
 -11  -2  -3  242.69   16.85
 -11  -2  -2   16.94    6.60
 -11  -2  -1  256.22   16.92
 -11  -2   0   30.14    7.17
 -11  -2   1  254.39   16.28
 -11  -2   2   14.97    6.20
 -11  -2   3  231.90   15.45
 -12   0  -4  147.91   11.84
 -12   0  -3    0.61    4.78
 -12   0  -2  197.54   13.35
 -12   0  -1    0.58    4.52
 -12   0   0  290.86   16.09
 -12  -1  -3   -1.43    5.39
 -12  -1  -2  241.79   15.82
 -12   1  -1    5.86    4.21
 -12  -1  -1    7.45    5.95
 -12  -1   0  202.42   14.30
 -12  -1   1    5.26    5.07
 -12  -1   2  213.84   14.35
 -13   0   0    2.83    4.51
   0   0   0    0.00    0.00

;
_shelx_hkl_checksum              13266
loop_
_space_group_symop_operation_xyz
'x, y, z'
'x+1/2, -y, z+1/2'
loop_
_atom_site_label
_atom_site_type_symbol
_atom_site_fract_x
_atom_site_fract_y
_atom_site_fract_z
_atom_site_U_iso_or_equiv
_atom_site_adp_type
_atom_site_occupancy
_atom_site_site_symmetry_order
_atom_site_calc_flag
_atom_site_refinement_flags_posn
_atom_site_refinement_flags_adp
_atom_site_refinement_flags_occupancy
_atom_site_disorder_assembly
_atom_site_disorder_group
Re1 Re 0.9999(2) 0.01894(4) 0.9992(2) 0.01006(7) Uani 1 1 d . . . . .
O1 O 0.8383(8) 0.0296(10) 0.8925(9) 0.0192(17) Uani 1 1 d . . . . .
O2 O 1.0003(8) -0.2256(11) 1.0949(9) 0.0256(18) Uani 1 1 d . . . . .
O3 O 0.9993(9) 0.2427(12) 1.1190(9) 0.031(2) Uani 1 1 d . . . . .
O4 O 1.1619(8) 0.0295(11) 0.8915(9) 0.0217(17) Uani 1 1 d . . . . .
F1 F 0.0000(7) 0.5191(9) 0.7892(7) 0.0208(14) Uani 1 1 d . . . . .
C1 C 0.0052(12) 0.5287(16) 0.6381(13) 0.009(2) Uani 1 1 d . U . . .
N1 N 0.0043(11) 0.5442(15) 0.3646(11) 0.014(2) Uani 1 1 d . U . . .
H1 H 0.0045 0.5473 0.2562 0.017 Uiso 1 1 calc R U . . .
C3 C -0.1417(12) 0.426(2) 0.4159(12) 0.015(2) Uani 1 1 d . U . . .
H3A H -0.2321 0.5119 0.3841 0.018 Uiso 1 1 calc R U . . .
H3B H -0.1475 0.2749 0.3733 0.018 Uiso 1 1 calc R U . . .
C2 C -0.1386(14) 0.411(2) 0.5806(14) 0.023(3) Uani 1 1 d . U . . .
H2A H -0.1382 0.2522 0.6108 0.028 Uiso 1 1 calc R U . . .
H2B H -0.2305 0.4828 0.6214 0.028 Uiso 1 1 calc R U . . .
C5 C 0.1409(12) 0.431(2) 0.4136(12) 0.014(2) Uani 1 1 d . U . . .
H5A H 0.2320 0.5138 0.3805 0.017 Uiso 1 1 calc R U . . .
H5B H 0.1449 0.2786 0.3720 0.017 Uiso 1 1 calc R U . . .
C4 C 0.1401(14) 0.417(2) 0.5808(15) 0.025(3) Uani 1 1 d . U . . .
H4A H 0.1405 0.2589 0.6115 0.029 Uiso 1 1 calc R U . . .
H4B H 0.2328 0.4896 0.6199 0.029 Uiso 1 1 calc R U . . .
C7 C 0.0016(13) 0.7785(17) 0.4189(14) 0.020(3) Uani 1 1 d . . . . .
H7A H -0.0901 0.8560 0.3820 0.024 Uiso 1 1 calc R U . . .
H7B H 0.0924 0.8597 0.3837 0.024 Uiso 1 1 calc R U . . .
C6 C 0.000(2) 0.776(2) 0.5826(14) 0.035(4) Uani 1 1 d . . . . .
H6A H -0.0934 0.8504 0.6185 0.042 Uiso 1 1 calc R U . . .
H6B H 0.0891 0.8595 0.6202 0.042 Uiso 1 1 calc R U . . .
loop_
_atom_site_aniso_label
_atom_site_aniso_U_11
_atom_site_aniso_U_22
_atom_site_aniso_U_33
_atom_site_aniso_U_23
_atom_site_aniso_U_13
_atom_site_aniso_U_12
Re1 0.01065(12) 0.01302(12) 0.00650(13) -0.0025(6) 0.00008(10) 0.0003(7)
O1 0.013(3) 0.027(3) 0.018(4) -0.001(3) -0.005(3) -0.002(3)
O2 0.030(4) 0.018(3) 0.028(5) 0.000(3) 0.000(3) -0.001(3)
O3 0.047(5) 0.020(3) 0.027(5) -0.012(3) 0.003(4) -0.003(3)
O4 0.018(3) 0.025(3) 0.021(4) 0.001(3) 0.009(3) 0.002(3)
F1 0.026(3) 0.032(3) 0.004(3) -0.003(2) 0.002(3) 0.000(2)
C1 0.007(4) 0.013(4) 0.008(4) -0.002(3) -0.002(3) 0.001(3)
N1 0.014(4) 0.023(4) 0.004(4) -0.003(3) -0.003(3) -0.007(3)
C3 0.012(4) 0.029(5) 0.004(4) -0.004(4) 0.001(4) -0.006(4)
C2 0.025(4) 0.024(4) 0.021(5) 0.004(4) 0.000(4) -0.005(4)
C5 0.011(4) 0.026(5) 0.004(4) -0.003(4) -0.003(4) 0.000(4)
C4 0.024(4) 0.027(4) 0.022(5) 0.001(4) -0.002(4) 0.004(4)
C7 0.020(5) 0.008(5) 0.032(7) 0.004(5) 0.004(5) 0.003(4)
C6 0.080(10) 0.019(6) 0.006(6) -0.001(5) -0.002(7) 0.003(6)
loop_
_atom_type_symbol
_atom_type_description
_atom_type_scat_dispersion_real
_atom_type_scat_dispersion_imag
_atom_type_scat_source
C C 0.0033 0.0016 'International Tables Vol C Tables 4.2.6.8 and 6.1.1.4'
H H 0.0000 0.0000 'International Tables Vol C Tables 4.2.6.8 and 6.1.1.4'
N N 0.0061 0.0033 'International Tables Vol C Tables 4.2.6.8 and 6.1.1.4'
O O 0.0106 0.0060 'International Tables Vol C Tables 4.2.6.8 and 6.1.1.4'
F F 0.0171 0.0103 'International Tables Vol C Tables 4.2.6.8 and 6.1.1.4'
Re Re -1.0185 7.2310 'International Tables Vol C Tables 4.2.6.8 and 6.1.1.4'
loop_
_geom_angle_atom_site_label_1
_geom_angle_atom_site_label_2
_geom_angle_atom_site_label_3
_geom_angle
_geom_angle_site_symmetry_1
_geom_angle_site_symmetry_3
_geom_angle_publ_flag
O2 Re1 O1 109.1(3) . . ?
O2 Re1 O3 109.4(4) . . ?
O1 Re1 O3 109.3(4) . . ?
O2 Re1 O4 109.0(3) . . ?
O1 Re1 O4 110.2(4) . . ?
O3 Re1 O4 109.8(4) . . ?
F1 C1 C4 111.7(10) . . ?
F1 C1 C2 107.3(9) . . ?
C4 C1 C2 109.4(10) . . ?
F1 C1 C6 111.3(8) . . ?
C4 C1 C6 109.7(11) . . ?
C2 C1 C6 107.2(10) . . ?
C5 N1 C7 110.4(9) . . ?
C5 N1 C3 112.3(9) . . ?
C7 N1 C3 108.3(9) . . ?
C2 C3 N1 108.7(9) . . ?
C3 C2 C1 109.2(10) . . ?
N1 C5 C4 109.3(9) . . ?
C1 C4 C5 110.0(10) . . ?
N1 C7 C6 109.1(11) . . ?
C7 C6 C1 109.5(11) . . ?
loop_
_geom_bond_atom_site_label_1
_geom_bond_atom_site_label_2
_geom_bond_distance
_geom_bond_site_symmetry_2
_geom_bond_publ_flag
Re1 O2 1.710(7) . ?
Re1 O1 1.729(8) . ?
Re1 O3 1.736(7) . ?
Re1 O4 1.738(8) . ?
F1 C1 1.395(14) . ?
C1 C4 1.459(17) . ?
C1 C2 1.541(16) . ?
C1 C6 1.569(16) . ?
N1 C5 1.451(14) . ?
N1 C7 1.489(14) . ?
N1 C3 1.539(14) . ?
C3 C2 1.522(18) . ?
C5 C4 1.545(18) . ?
C7 C6 1.511(13) . ?
loop_
_geom_hbond_atom_site_label_D
_geom_hbond_atom_site_label_H
_geom_hbond_atom_site_label_A
_geom_hbond_distance_DH
_geom_hbond_distance_HA
_geom_hbond_distance_DA
_geom_hbond_angle_DHA
_geom_hbond_site_symmetry_A
N1 H1 O2 1.00 2.02 2.844(13) 138.7 1_464
N1 H1 O3 1.00 2.22 2.897(12) 123.7 1_454
C3 H3A F1 0.99 2.52 3.374(13) 144.6 2_464
C3 H3B O4 0.99 2.48 3.237(13) 133.0 2_354
C5 H5A F1 0.99 2.51 3.372(12) 145.4 2_564
C5 H5B O1 0.99 2.52 3.263(13) 132.1 2_454
C7 H7A O4 0.99 2.29 3.208(13) 154.6 2_364
C7 H7B O1 0.99 2.26 3.184(13) 154.6 2_464
loop_
_geom_torsion_atom_site_label_1
_geom_torsion_atom_site_label_2
_geom_torsion_atom_site_label_3
_geom_torsion_atom_site_label_4
_geom_torsion
_geom_torsion_site_symmetry_1
_geom_torsion_site_symmetry_2
_geom_torsion_site_symmetry_3
_geom_torsion_site_symmetry_4
_geom_torsion_publ_flag
C5 N1 C3 C2 57.1(13) . . . . ?
C7 N1 C3 C2 -65.1(12) . . . . ?
N1 C3 C2 C1 2.8(13) . . . . ?
F1 C1 C2 C3 177.4(9) . . . . ?
C4 C1 C2 C3 -61.2(13) . . . . ?
C6 C1 C2 C3 57.7(13) . . . . ?
C7 N1 C5 C4 63.0(12) . . . . ?
C3 N1 C5 C4 -58.1(13) . . . . ?
F1 C1 C4 C5 179.7(8) . . . . ?
C2 C1 C4 C5 61.1(13) . . . . ?
C6 C1 C4 C5 -56.3(13) . . . . ?
N1 C5 C4 C1 -1.9(14) . . . . ?
C5 N1 C7 C6 -61.5(11) . . . . ?
C3 N1 C7 C6 61.9(10) . . . . ?
N1 C7 C6 C1 1.1(11) . . . . ?
F1 C1 C6 C7 -178.5(8) . . . . ?
C4 C1 C6 C7 57.4(13) . . . . ?
C2 C1 C6 C7 -61.4(12) . . . . ?
