#------------------------------------------------------------------------------
#$Date: 2016-03-22 23:21:52 +0200 (Tue, 22 Mar 2016) $
#$Revision: 179057 $
#$URL: svn://www.crystallography.net/cod/cif/4/30/19/4301987.cif $
#------------------------------------------------------------------------------
#
# This file is available in the Crystallography Open Database (COD),
# http://www.crystallography.net/
#
# All data on this site have been placed in the public domain by the
# contributors.
#
data_4301987
loop_
_publ_author_name
'J. V. Zaikina'
'K. A. Kovnir'
'U. Burkhardt'
'W. Schnelle'
'F. Haarmann'
'U. Schwarz'
'Yu. Grin'
'A. V. Shevelkov'
_publ_contact_author_address
;         Inorganic Synthesis Laboratory
          Moscow State University
          Leninskie Gory 1/3
          119992 Moscow
          Russia
;
_publ_contact_author_email       shev@inorg.chem.msu.ru
_publ_contact_author_fax         '7 095 939-4788'
_publ_contact_author_name        'Andrei V. Shevelkov'
_publ_contact_author_phone       '7 495 939-1200'
_publ_section_title
;
Cationic Clathrate I Si46-xPxTey(6.6(1) <= y <= 7.5(1), x <= 2y): Crystal
Structure, Homogeneity Range, and Physical Properties
;
_journal_name_full               'Inorganic Chemistry'
_journal_page_first              3720
_journal_page_last               3730
_journal_paper_doi               10.1021/ic8023887
_journal_volume                  48
_journal_year                    2009
_chemical_formula_moiety         'Si31.4 P14.6 Te7.4'
_chemical_formula_structural     'P14.6 Si31.4 Te7.4'
_chemical_formula_sum            'P14.6 Si31.4 Te7.4'
_chemical_formula_weight         2281.11
_chemical_name_common            'silicon-phosphorus telluride'
_chemical_name_systematic        'silicon-phosphorus telluride'
_space_group_IT_number           200
_symmetry_cell_setting           cubic
_symmetry_space_group_name_Hall  '-P 2 2 3'
_symmetry_space_group_name_H-M   'P m -3'
_audit_creation_date             2009-01-21T13:00
_audit_creation_method           'from EXP file using GSAS2CIF'
_cell_angle_alpha                90.0
_cell_angle_beta                 90.0
_cell_angle_gamma                90.0
_cell_formula_units_Z            1
_cell_length_a                   9.976551(24)
_cell_length_b                   9.976551
_cell_length_c                   9.976551
_cell_measurement_temperature    295(2)
_cell_volume                     992.982(2)
_computing_molecular_graphics    'Atoms 5.1 (E. Dowty, 2000)'
_computing_publication_material  EXPGUI
_computing_structure_refinement  GSAS
_diffrn_ambient_temperature      295(2)
_diffrn_detector_type            '128 3He counting tubes'
_diffrn_measurement_device_type  D2b
_diffrn_radiation_probe          neutron
_diffrn_radiation_type           neutron
_diffrn_radiation_wavelength     2.3985
_exptl_absorpt_correction_T_max  1.00000
_exptl_absorpt_correction_T_min  1.00000
_exptl_absorpt_process_details
;   GSAS Absorption/surface roughness correction: function number 0
 No correction is applied.
;
_exptl_crystal_density_diffrn    3.816
_pd_calc_method                  'Rietveld Refinement'
_pd_char_colour                  black
_pd_instr_location               'ILL, Grenoble'
_pd_meas_2theta_range_inc        0.05
_pd_meas_2theta_range_max        159.95
_pd_meas_2theta_range_min        0.05
_pd_meas_number_of_points        3199
_pd_proc_2theta_range_inc        0.05
_pd_proc_2theta_range_max        159.7888
_pd_proc_2theta_range_min        -0.1111
_pd_proc_info_datetime           2009-01-22T14:20:34
_pd_proc_ls_background_function
;   GSAS Background function number 1 with 14 terms.
 Shifted Chebyshev function of 1st kind
      1:    102.681     2:    6.60927     3:    22.7343     4:    3.26114    
      5:    2.52822     6:   0.819836     7:   0.185174     8:  -0.652607    
      9:  -0.888318    10:   0.278026    11:   0.345386    12:  -0.227234    
     13:  -0.260906    14:  -0.478537    
;
_pd_proc_ls_peak_cutoff          0.00010
_pd_proc_ls_profile_function
;
 CW Profile function number 2 with  18 terms
 Profile coefficients for Simpson's rule integration of pseudovoigt function
 C.J. Howard (1982). J. Appl. Cryst.,15,615-620.
 P. Thompson, D.E. Cox & J.B. Hastings (1987). J. Appl. Cryst.,20,79-83.
 Peak tails are ignored  where the intensity is below 0.0001 times the peak
   Aniso. broadening axis   0.0   0.0   1.0
;
_pd_proc_ls_prof_R_factor        0.0313
_pd_proc_ls_prof_wR_expected     0.0293
_pd_proc_ls_prof_wR_factor       0.0399
_pd_proc_number_of_points        3199
_pd_spec_mounting                ' ?'
_refine_ls_goodness_of_fit_all   1.37
_refine_ls_matrix_type           full
_refine_ls_number_constraints    1
_refine_ls_number_parameters     41
_refine_ls_number_restraints     1
_refine_ls_R_Fsqd_factor         0.02488
_refine_ls_shift/su_max          0.05
_refine_ls_shift/su_mean         0.01
_reflns_d_resolution_high        1.228
_reflns_d_resolution_low         7.054
_reflns_limit_h_max              8
_reflns_limit_h_min              1
_reflns_limit_k_max              5
_reflns_limit_k_min              0
_reflns_limit_l_max              5
_reflns_limit_l_min              0
_reflns_number_total             126
_cod_data_source_file            ic8023887_si_001_2.cif
_cod_data_source_block           sample_2
_cod_depositor_comments
;
The following automatic conversions were performed:
'_geom_bond_publ_flag' value 'N' changed to 'n' according to
'/home/saulius/struct/CIF-dictionaries/cif_core.dic' dictionary named
'cif_core.dic' version 2.4.1 from 2010-06-29 (111
times).

'_geom_angle_publ_flag' value 'N' changed to 'n' according to
'/home/saulius/struct/CIF-dictionaries/cif_core.dic' dictionary named
'cif_core.dic' version 2.4.1 from 2010-06-29 (148 times).

Automatic conversion script
Id: cif_fix_enum 1527 2010-12-29 10:47:43Z saulius 
;
_cod_database_code               4301987
#BEGIN Tags that were not found in dictionaries:
_gsas_exptl_extinct_corr_t_min   1.00000
_gsas_exptl_extinct_corr_t_max   1.00000
#END Tags that were not found in dictionaries
loop_
_symmetry_equiv_pos_site_id
_symmetry_equiv_pos_as_xyz
1 +x,+y,+z
2 +z,+x,+y
3 +y,+z,+x
4 +x,+y,-z
5 -z,+x,+y
6 +y,-z,+x
7 -z,+x,-y
8 -y,-z,+x
9 +y,-z,-x
10 -x,+y,-z
11 -z,-x,+y
12 +x,-y,-z
-1 -x,-y,-z
-2 -z,-x,-y
-3 -y,-z,-x
-4 -x,-y,+z
-5 +z,-x,-y
-6 -y,+z,-x
-7 +z,-x,+y
-8 +y,+z,-x
-9 -y,+z,+x
-10 +x,-y,+z
-11 +z,+x,-y
-12 -x,+y,+z
loop_
_atom_site_label
_atom_site_type_symbol
_atom_site_symmetry_multiplicity
_atom_site_Wyckoff_symbol
_atom_site_fract_x
_atom_site_fract_y
_atom_site_fract_z
_atom_site_adp_type
_atom_site_U_iso_or_equiv
_atom_site_occupancy
Te1 Te 1 a 0 0 0 Uiso 0.0118(10) 1
Te2 Te 1 b 0.5 0.5 0.5 Uiso 0.0118(10) 0.421(10)
Te3 Te 6 g 0 0.2540(7) 0.5 Uani 0.01676 1
P1 P 6 f 0 0.5 0.2438(7) Uiso 0.00450(15) 0.2955(13)
Si1 Si 6 f 0 0.5 0.2438(7) Uiso 0.00450(15) 0.7045(13)
P21 P 8 i 0.18258(15) 0.18258(15) 0.18258(15) Uiso 0.00450(15) 0.1023(28)
Si21 Si 8 i 0.18258(15) 0.18258(15) 0.18258(15) Uiso 0.00450(15) 0.8977(28)
P22 P 8 i 0.31559(12) 0.31559(12) 0.31559(12) Uiso 0.00450(15) 1
P31 P 12 j 0 0.30650(19) 0.11377(20) Uiso 0.00450(15) 0.3343(6)
Si31 Si 12 j 0 0.30650(19) 0.11377(20) Uiso 0.00450(15) 0.6657(6)
Si32 Si 12 k 0.18808(21) 0.5 0.37985(21) Uiso 0.00450(15) 1
loop_
_atom_site_aniso_label
_atom_site_aniso_U_11
_atom_site_aniso_U_12
_atom_site_aniso_U_13
_atom_site_aniso_U_22
_atom_site_aniso_U_23
_atom_site_aniso_U_33
Te3 0.0191(14) 0.0 0.0 0.0247(12) 0.0 0.0064(13)
loop_
_atom_type_symbol
_atom_type_number_in_cell
_atom_type_scat_length_neutron
_atom_type_scat_source
Te 7.421 0.5800 International_Tables_Vol_C
P 14.603 0.5130 International_Tables_Vol_C
Si 31.397 0.4149 International_Tables_Vol_C
loop_
_geom_angle_atom_site_label_1
_geom_angle_atom_site_label_2
_geom_angle_atom_site_label_3
_geom_angle
_geom_angle_site_symmetry_1
_geom_angle_site_symmetry_2
_geom_angle_site_symmetry_3
_geom_angle_publ_flag
Si32 P1 Si32 108.25(31) 1_555 . -4_565 n
Si32 P1 P31 109.081(34) 1_555 . 1_555 n
Si32 P1 P31 109.081(34) 1_555 . -4_565 n
Si32 P1 Si31 109.081(34) 1_555 . 1_555 n
Si32 P1 Si31 109.081(34) 1_555 . -4_565 n
Si32 P1 P31 109.081(34) -4_565 . 1_555 n
Si32 P1 P31 109.081(34) -4_565 . -4_565 n
Si32 P1 Si31 109.081(34) -4_565 . 1_555 n
Si32 P1 Si31 109.081(34) -4_565 . -4_565 n
P31 P1 P31 112.19(31) 1_555 . -4_565 n
P31 P1 Si31 0.0 1_555 . 1_555 n
P31 P1 Si31 112.19(31) 1_555 . -4_565 n
P31 P1 Si31 112.19(31) -4_565 . 1_555 n
P31 P1 Si31 0.0 -4_565 . -4_565 n
Si31 P1 Si31 112.19(31) 1_555 . -4_565 n
Si32 Si1 Si32 108.25(31) 1_555 . -4_565 n
Si32 Si1 P31 109.081(34) 1_555 . 1_555 n
Si32 Si1 P31 109.081(34) 1_555 . -4_565 n
Si32 Si1 Si31 109.081(34) 1_555 . 1_555 n
Si32 Si1 Si31 109.081(34) 1_555 . -4_565 n
Si32 Si1 P31 109.081(34) -4_565 . 1_555 n
Si32 Si1 P31 109.081(34) -4_565 . -4_565 n
Si32 Si1 Si31 109.081(34) -4_565 . 1_555 n
Si32 Si1 Si31 109.081(34) -4_565 . -4_565 n
P31 Si1 P31 112.19(31) 1_555 . -4_565 n
P31 Si1 Si31 0.0 1_555 . 1_555 n
P31 Si1 Si31 112.19(31) 1_555 . -4_565 n
P31 Si1 Si31 112.19(31) -4_565 . 1_555 n
P31 Si1 Si31 0.0 -4_565 . -4_565 n
Si31 Si1 Si31 112.19(31) 1_555 . -4_565 n
P22 P21 P31 108.56(8) 1_555 . 1_555 n
P22 P21 P31 108.56(8) 1_555 . 2_555 n
P22 P21 P31 108.56(8) 1_555 . 3_555 n
P22 P21 Si31 108.56(8) 1_555 . 1_555 n
P22 P21 Si31 108.56(8) 1_555 . 2_555 n
P22 P21 Si31 108.56(8) 1_555 . 3_555 n
P31 P21 P31 110.36(7) 1_555 . 2_555 n
P31 P21 P31 110.36(7) 1_555 . 3_555 n
P31 P21 Si31 0.0 1_555 . 1_555 n
P31 P21 Si31 110.36(7) 1_555 . 2_555 n
P31 P21 Si31 110.36(7) 1_555 . 3_555 n
P31 P21 P31 110.36(7) 2_555 . 3_555 n
P31 P21 Si31 110.36(7) 2_555 . 1_555 n
P31 P21 Si31 0.0 2_555 . 2_555 n
P31 P21 Si31 110.36(7) 2_555 . 3_555 n
P31 P21 Si31 110.36(7) 3_555 . 1_555 n
P31 P21 Si31 110.36(7) 3_555 . 2_555 n
P31 P21 Si31 0.0 3_555 . 3_555 n
Si31 P21 Si31 110.36(7) 1_555 . 2_555 n
Si31 P21 Si31 110.36(7) 1_555 . 3_555 n
Si31 P21 Si31 110.36(7) 2_555 . 3_555 n
P22 Si21 P31 108.56(8) 1_555 . 1_555 n
P22 Si21 P31 108.56(8) 1_555 . 2_555 n
P22 Si21 P31 108.56(8) 1_555 . 3_555 n
P22 Si21 Si31 108.56(8) 1_555 . 1_555 n
P22 Si21 Si31 108.56(8) 1_555 . 2_555 n
P22 Si21 Si31 108.56(8) 1_555 . 3_555 n
P31 Si21 P31 110.36(7) 1_555 . 2_555 n
P31 Si21 P31 110.36(7) 1_555 . 3_555 n
P31 Si21 Si31 0.0 1_555 . 1_555 n
P31 Si21 Si31 110.36(7) 1_555 . 2_555 n
P31 Si21 Si31 110.36(7) 1_555 . 3_555 n
P31 Si21 P31 110.36(7) 2_555 . 3_555 n
P31 Si21 Si31 110.36(7) 2_555 . 1_555 n
P31 Si21 Si31 0.0 2_555 . 2_555 n
P31 Si21 Si31 110.36(7) 2_555 . 3_555 n
P31 Si21 Si31 110.36(7) 3_555 . 1_555 n
P31 Si21 Si31 110.36(7) 3_555 . 2_555 n
P31 Si21 Si31 0.0 3_555 . 3_555 n
Si31 Si21 Si31 110.36(7) 1_555 . 2_555 n
Si31 Si21 Si31 110.36(7) 1_555 . 3_555 n
Si31 Si21 Si31 110.36(7) 2_555 . 3_555 n
P21 P22 Si21 0.0 1_555 . 1_555 n
P21 P22 Si32 107.45(7) 1_555 . 1_555 n
P21 P22 Si32 107.45(7) 1_555 . 2_555 n
P21 P22 Si32 107.45(7) 1_555 . 3_555 n
Si21 P22 Si32 107.45(7) 1_555 . 1_555 n
Si21 P22 Si32 107.45(7) 1_555 . 2_555 n
Si21 P22 Si32 107.45(7) 1_555 . 3_555 n
Si32 P22 Si32 111.41(6) 1_555 . 2_555 n
Si32 P22 Si32 111.41(6) 1_555 . 3_555 n
Si32 P22 Si32 111.41(6) 2_555 . 3_555 n
P1 Si32 Si1 0.0 1_555 . 1_555 n
P1 Si32 P22 106.35(12) 1_555 . 1_555 n
P1 Si32 P22 106.35(12) 1_555 . 6_565 n
P1 Si32 Si32 125.88(16) 1_555 . 4_556 n
Si1 Si32 P22 106.35(12) 1_555 . 1_555 n
Si1 Si32 P22 106.35(12) 1_555 . 6_565 n
Si1 Si32 Si32 125.88(16) 1_555 . 4_556 n
P22 Si32 P22 104.50(10) 1_555 . 6_565 n
P22 Si32 Si32 105.99(6) 1_555 . 4_556 n
P22 Si32 Si32 105.99(6) 6_565 . 4_556 n
P1 P31 Si1 0.0 1_555 . 1_555 n
P1 P31 P21 106.20(12) 1_555 . 1_555 n
P1 P31 P21 106.20(12) 1_555 . 5_555 n
P1 P31 Si21 106.20(12) 1_555 . 1_555 n
P1 P31 Si21 106.20(12) 1_555 . 5_555 n
P1 P31 P31 123.91(16) 1_555 . 4_555 n
P1 P31 Si31 123.91(16) 1_555 . 4_555 n
Si1 P31 P21 106.20(12) 1_555 . 1_555 n
Si1 P31 P21 106.20(12) 1_555 . 5_555 n
Si1 P31 Si21 106.20(12) 1_555 . 1_555 n
Si1 P31 Si21 106.20(12) 1_555 . 5_555 n
Si1 P31 P31 123.91(16) 1_555 . 4_555 n
Si1 P31 Si31 123.91(16) 1_555 . 4_555 n
P21 P31 P21 104.35(10) 1_555 . 5_555 n
P21 P31 Si21 0.0 1_555 . 1_555 n
P21 P31 Si21 104.35(10) 1_555 . 5_555 n
P21 P31 P31 107.32(6) 1_555 . 4_555 n
P21 P31 Si31 107.32(6) 1_555 . 4_555 n
P21 P31 Si21 104.35(10) 5_555 . 1_555 n
P21 P31 Si21 0.0 5_555 . 5_555 n
P21 P31 P31 107.32(6) 5_555 . 4_555 n
P21 P31 Si31 107.32(6) 5_555 . 4_555 n
Si21 P31 Si21 104.35(10) 1_555 . 5_555 n
Si21 P31 P31 107.32(6) 1_555 . 4_555 n
Si21 P31 Si31 107.32(6) 1_555 . 4_555 n
Si21 P31 P31 107.32(6) 5_555 . 4_555 n
Si21 P31 Si31 107.32(6) 5_555 . 4_555 n
P31 P31 Si31 0.0 4_555 . 4_555 n
P1 Si31 Si1 0.0 1_555 . 1_555 n
P1 Si31 P21 106.20(12) 1_555 . 1_555 n
P1 Si31 P21 106.20(12) 1_555 . 5_555 n
P1 Si31 Si21 106.20(12) 1_555 . 1_555 n
P1 Si31 Si21 106.20(12) 1_555 . 5_555 n
P1 Si31 P31 123.91(16) 1_555 . 4_555 n
P1 Si31 Si31 123.91(16) 1_555 . 4_555 n
Si1 Si31 P21 106.20(12) 1_555 . 1_555 n
Si1 Si31 P21 106.20(12) 1_555 . 5_555 n
Si1 Si31 Si21 106.20(12) 1_555 . 1_555 n
Si1 Si31 Si21 106.20(12) 1_555 . 5_555 n
Si1 Si31 P31 123.91(16) 1_555 . 4_555 n
Si1 Si31 Si31 123.91(16) 1_555 . 4_555 n
P21 Si31 P21 104.35(10) 1_555 . 5_555 n
P21 Si31 Si21 0.0 1_555 . 1_555 n
P21 Si31 Si21 104.35(10) 1_555 . 5_555 n
P21 Si31 P31 107.32(6) 1_555 . 4_555 n
P21 Si31 Si31 107.32(6) 1_555 . 4_555 n
P21 Si31 Si21 104.35(10) 5_555 . 1_555 n
P21 Si31 Si21 0.0 5_555 . 5_555 n
P21 Si31 P31 107.32(6) 5_555 . 4_555 n
P21 Si31 Si31 107.32(6) 5_555 . 4_555 n
Si21 Si31 Si21 104.35(10) 1_555 . 5_555 n
Si21 Si31 P31 107.32(6) 1_555 . 4_555 n
Si21 Si31 Si31 107.32(6) 1_555 . 4_555 n
Si21 Si31 P31 107.32(6) 5_555 . 4_555 n
Si21 Si31 Si31 107.32(6) 5_555 . 4_555 n
P31 Si31 Si31 0.0 4_555 . 4_555 n
loop_
_geom_bond_atom_site_label_1
_geom_bond_atom_site_label_2
_geom_bond_distance
_geom_bond_site_symmetry_1
_geom_bond_site_symmetry_2
_geom_bond_publ_flag
Te1 P21 3.1549(26) . 1_555 n
Te1 P21 3.1549(26) . 4_555 n
Te1 P21 3.1549(26) . 5_555 n
Te1 P21 3.1549(26) . 6_555 n
Te1 P21 3.1549(26) . 7_555 n
Te1 P21 3.1549(26) . 8_555 n
Te1 P21 3.1549(26) . 9_555 n
Te1 P21 3.1549(26) . -1_555 n
Te1 Si21 3.1549(26) . 1_555 n
Te1 Si21 3.1549(26) . 4_555 n
Te1 Si21 3.1549(26) . 5_555 n
Te1 Si21 3.1549(26) . 6_555 n
Te1 Si21 3.1549(26) . 7_555 n
Te1 Si21 3.1549(26) . 8_555 n
Te1 Si21 3.1549(26) . 9_555 n
Te1 Si21 3.1549(26) . -1_555 n
Te1 P31 3.2617(19) . 1_555 n
Te1 P31 3.2617(19) . 2_555 n
Te1 P31 3.2617(19) . 3_555 n
Te1 P31 3.2617(19) . 4_555 n
Te1 P31 3.2617(19) . 5_555 n
Te1 P31 3.2617(19) . 6_555 n
Te1 P31 3.2617(19) . 7_555 n
Te1 P31 3.2617(19) . 8_555 n
Te1 P31 3.2617(19) . 12_555 n
Te1 P31 3.2617(19) . -4_555 n
Te1 P31 3.2617(19) . -5_555 n
Te1 P31 3.2617(19) . -6_555 n
Te1 Si31 3.2617(19) . 1_555 n
Te1 Si31 3.2617(19) . 2_555 n
Te1 Si31 3.2617(19) . 3_555 n
Te1 Si31 3.2617(19) . 4_555 n
Te1 Si31 3.2617(19) . 5_555 n
Te1 Si31 3.2617(19) . 6_555 n
Te1 Si31 3.2617(19) . 7_555 n
Te1 Si31 3.2617(19) . 8_555 n
Te1 Si31 3.2617(19) . 12_555 n
Te1 Si31 3.2617(19) . -4_555 n
Te1 Si31 3.2617(19) . -5_555 n
Te1 Si31 3.2617(19) . -6_555 n
Te2 P22 3.1865(21) . 1_555 n
Te2 P22 3.1865(21) . 4_556 n
Te2 P22 3.1865(21) . 5_655 n
Te2 P22 3.1865(21) . 6_565 n
Te2 P22 3.1865(21) . 7_656 n
Te2 P22 3.1865(21) . 8_665 n
Te2 P22 3.1865(21) . 9_566 n
Te2 P22 3.1865(21) . -1_666 n
Te3 Si32 3.314(5) . 1_555 n
Te3 Si32 3.314(5) . 4_556 n
Te3 Si32 3.314(5) . 10_556 n
Te3 Si32 3.314(5) . -4_565 n
P1 Si32 2.316(5) . 1_555 n
P1 Si32 2.316(5) . -4_565 n
P1 P31 2.326(5) . 1_555 n
P1 P31 2.326(5) . -4_565 n
P1 Si31 2.326(5) . 1_555 n
P1 Si31 2.326(5) . -4_565 n
Si1 Si32 2.316(5) . 1_555 n
Si1 Si32 2.316(5) . -4_565 n
Si1 P31 2.326(5) . 1_555 n
Si1 P31 2.326(5) . -4_565 n
Si1 Si31 2.326(5) . 1_555 n
Si1 Si31 2.326(5) . -4_565 n
P21 Te1 3.1549(26) . 1_555 n
P21 P22 2.2985(33) . 1_555 n
P21 P31 2.3060(14) . 1_555 n
P21 P31 2.3060(14) . 2_555 n
P21 P31 2.3060(14) . 3_555 n
P21 Si31 2.3060(14) . 1_555 n
P21 Si31 2.3060(14) . 2_555 n
P21 Si31 2.3060(14) . 3_555 n
Si21 Te1 3.1549(26) . 1_555 n
Si21 P22 2.2985(33) . 1_555 n
Si21 P31 2.3060(14) . 1_555 n
Si21 P31 2.3060(14) . 2_555 n
Si21 P31 2.3060(14) . 3_555 n
Si21 Si31 2.3060(14) . 1_555 n
Si21 Si31 2.3060(14) . 2_555 n
Si21 Si31 2.3060(14) . 3_555 n
P22 Te2 3.1865(21) . 1_555 n
P22 P21 2.2985(33) . 1_555 n
P22 Si21 2.2985(33) . 1_555 n
P22 Si32 2.3268(14) . 1_555 n
P22 Si32 2.3268(14) . 2_555 n
P22 Si32 2.3268(14) . 3_555 n
Si32 Te3 3.314(5) . 1_555 n
Si32 Te3 3.314(5) . 12_566 n
Si32 P1 2.316(5) . 1_555 n
Si32 Si1 2.316(5) . 1_555 n
Si32 P22 2.3268(14) . 1_555 n
Si32 P22 2.3268(14) . 6_565 n
Si32 Si32 2.397(4) . 4_556 n
P31 Te1 3.2617(19) . 1_555 n
P31 P1 2.326(5) . 1_555 n
P31 Si1 2.326(5) . 1_555 n
P31 P21 2.3060(14) . 1_555 n
P31 P21 2.3060(14) . 5_555 n
P31 Si21 2.3060(14) . 1_555 n
P31 Si21 2.3060(14) . 5_555 n
P31 P31 2.270(4) . 4_555 n
P31 Si31 2.270(4) . 4_555 n
Si31 Te1 3.2617(19) . 1_555 n
Si31 P1 2.326(5) . 1_555 n
Si31 Si1 2.326(5) . 1_555 n
Si31 P21 2.3060(14) . 1_555 n
Si31 P21 2.3060(14) . 5_555 n
Si31 Si21 2.3060(14) . 1_555 n
Si31 Si21 2.3060(14) . 5_555 n
Si31 P31 2.270(4) . 4_555 n
Si31 Si31 2.270(4) . 4_555 n
loop_
_pd_meas_intensity_total
_pd_proc_ls_weight
_pd_proc_intensity_bkg_calc
_pd_calc_intensity_total
0.0(10) 0.0 1449.28 .
15(13) 0.0 1432.6 .
30(16) 0.0 1416.1 .
33(10) 0.0 1399.8 .
59(18) 0.0 1383.6 .
50(12) 0.0 1367.7 .
53(12) 0.0 1351.9 .
47(10) 0.0 1336.3 .
52(11) 0.0 1320.8 .
62(10) 0.0 1305.5 .
52(11) 0.0 1290.4 .
48(8) 0.0 1275.5 .
61(11) 0.0 1260.8 .
66(10) 0.0 1246.2 .
65(10) 0.0 1231.7 .
57(8) 0.0 1217.4 .
55(9) 0.0 1203.3 .
58(8) 0.0 1189.4 .
54(9) 0.0 1175.6 .
58(8) 0.0 1161.9 .
58(9) 0.0 1148.4 .
64(8) 0.0 1135.1 .
65(9) 0.0 1121.9 .
62(8) 0.0 1108.9 .
59(8) 0.0 1096.0 .
60(7) 0.0 1083.2 .
61(7) 0.0 1070.6 .
64(7) 0.0 1058.2 .
65(7) 0.0 1045.9 .
75(7) 0.0 1033.7 .
67(7) 0.0 1021.7 .
68(7) 0.0 1009.8 .
71(7) 0.0 998.0 .
74(7) 0.0 986.4 .
83(7) 0.0 974.9 .
81(7) 0.0 963.5 .
80(7) 0.0 952.3 .
83(7) 0.0 941.2 .
82(7) 0.0 930.3 .
71(7) 0.0 919.4 .
76(7) 0.0 908.7 .
77(7) 0.0 898.1 .
73(6) 0.0 887.7 .
75(7) 0.0 877.3 .
76(6) 0.0 867.1 .
79(6) 0.0 857.0 .
82(6) 0.0 847.0 .
79(6) 0.0 837.1 .
82(7) 0.0 827.4 .
79(7) 0.0 817.8 .
76(6) 0.0 808.2 .
77(7) 0.0 798.8 .
76(6) 0.0 789.5 .
79(6) 0.0 780.4 .
79(6) 0.0 771.3 .
80(6) 0.0 762.3 .
81(6) 0.0 753.4 .
79(6) 0.0 744.7 .
84(6) 0.0 736.0 .
85(6) 0.0 727.5 .
92(6) 0.0 719.1 .
94(6) 0.0 710.7 .
93(6) 0.0 702.5 .
93(6) 0.0 694.3 .
96(6) 0.0 686.3 .
104(6) 0.0 678.3 .
103(6) 0.0 670.5 .
112(6) 0.0 662.7 .
110(6) 0.0 655.1 .
113(6) 0.0 647.5 .
114(6) 0.0 640.1 .
119(6) 0.0 632.7 .
119(6) 0.0 625.4 .
121(6) 0.0 618.2 .
128(7) 0.0 611.1 .
135(6) 0.0 604.0 .
140(7) 0.0 597.1 .
138(7) 0.0 590.3 .
140(7) 0.0 583.5 .
139(6) 0.0 576.8 .
142(6) 0.0 570.2 .
141(6) 0.0 563.7 .
149(6) 0.0 557.3 .
150(6) 0.0 550.9 .
147(6) 0.0 544.6 .
151(6) 0.0 538.4 .
150(6) 0.0 532.3 .
158(6) 0.0 526.3 .
156(6) 0.0 520.3 .
155(6) 0.0 514.4 .
156(6) 0.0 508.6 .
162(6) 0.0 502.9 .
161(6) 0.0 497.2 .
167(6) 0.0 491.6 .
169(6) 0.0 486.1 .
174(6) 0.0 480.6 .
162(6) 0.0 475.2 .
169(6) 0.0 469.9 .
169(6) 0.0 464.7 .
171(6) 0.0 459.5 .
172(6) 0.0 454.4 .
170(6) 0.0 449.3 .
171(6) 0.0 444.3 .
172(6) 0.0 439.4 .
170(6) 0.0 434.6 .
176(6) 0.0 429.8 .
171(6) 0.0 425.1 .
169(6) 0.0 420.4 .
167(6) 0.0 415.8 .
172(6) 0.0 411.2 .
171(6) 0.0 406.8 .
175(6) 0.0 402.3 .
177(6) 0.0 398.0 .
174(6) 0.0 393.7 .
174(6) 0.0 389.4 .
176(6) 0.0 385.2 .
168(6) 0.0 381.1 .
164(5) 0.0 377.0 .
179(6) 0.0 373.0 .
173(5) 0.0 369.0 .
181(6) 0.0 365.1 .
172(5) 0.0 361.2 .
168(5) 0.0 357.4 .
170(5) 0.0 353.6 .
169(5) 0.0 349.9 .
169(5) 0.0 346.2 .
169(6) 0.0 342.6 .
169(5) 0.0 339.1 .
179(6) 0.0 335.5 .
174(5) 0.0 332.1 .
178(6) 0.0 328.6 .
181(5) 0.0 325.3 .
176(5) 0.0 321.9 .
176(5) 0.0 318.7 .
177(5) 0.0 315.4 .
174(5) 0.0 312.2 .
174(5) 0.0 309.1 .
173(5) 0.0 306.0 .
180(5) 0.0 302.9 .
176(5) 0.0 299.9 .
173(5) 0.0 296.9 .
177(5) 0.0 294.0 .
175(5) 0.0 291.1 .
177(5) 0.0 288.2 .
172(5) 0.0 285.4 .
175(5) 0.0 282.7 .
174(5) 0.0 279.9 .
177(5) 0.0 277.2 .
176(5) 0.0 274.6 .
172(5) 0.0 271.9 .
169(5) 0.0 269.4 .
171(5) 0.0 266.8 .
162(5) 0.0 264.3 .
164(5) 0.0 261.8 .
163(5) 0.0 259.4 .
163(5) 0.0 257.0 .
164(5) 0.0 254.6 .
164(5) 0.0 252.3 .
164(5) 0.0 250.0 .
160(5) 0.0 247.7 .
161(5) 0.0 245.5 .
160(5) 0.0 243.3 .
157(4) 0.0 241.1 .
156(4) 0.0 239.0 .
156(4) 0.0 236.9 .
153(4) 0.0 234.8 .
150(4) 0.0 232.8 .
153(4) 0.0 230.8 .
157(4) 0.0 228.8 .
150(4) 0.0 226.8 .
147(4) 0.0 224.9 .
147(4) 0.0 223.0 .
145(4) 0.0 221.2 .
149(4) 0.0 219.3 .
148(4) 0.0 217.5 .
147(4) 0.0 215.7 .
150(4) 0.0 214.0 .
149(4) 0.0 212.2 .
144(4) 0.0 210.5 .
143(4) 0.0 208.8 .
141(4) 0.0 207.2 .
146(4) 0.0 205.6 .
143(4) 0.0 204.0 .
145(4) 0.0 202.4 .
146(4) 0.0 200.8 .
139(4) 0.0 199.3 .
137(4) 0.0 197.8 .
143(4) 0.0 196.3 .
148(4) 0.0 194.9 .
141(4) 0.0 193.4 .
135(4) 0.0 192.0 .
135(4) 0.0 190.6 .
138(4) 0.0 189.2 .
138(4) 0.0 187.9 .
133(4) 0.0 186.6 .
137(4) 0.0 185.3 .
138(4) 0.0 184.0 .
134(4) 0.0 182.7 .
142(4) 0.0 181.5 .
142(4) 0.0 180.2 .
142(4) 0.0 179.0 .
137(4) 0.0 177.9 .
135(4) 0.0 176.7 .
130(4) 0.0 175.5 .
132(4) 0.0 174.4 .
131(4) 0.0 173.3 .
137(4) 0.0 172.2 .
135(4) 0.0 171.1 .
134(4) 0.0 170.1 .
135(4) 0.0 169.0 .
135(4) 0.0 168.0 .
138(4) 0.0 167.0 .
133(4) 0.0 166.0 .
127(4) 0.0 165.0 .
132(4) 0.0 164.1 .
132(4) 0.0 163.1 .
131(4) 0.0 162.2 .
129(4) 0.0 161.3 .
128(4) 0.0 160.4 .
129(4) 0.0 159.5 .
135(4) 0.0 158.7 .
127(4) 0.0 157.8 .
131(4) 0.0 157.0 .
129(4) 0.0 156.2 .
124(4) 0.0 155.3 .
128(4) 0.0 154.6 .
122(4) 0.0 153.8 .
124(4) 0.0 153.0 .
124(4) 0.0 152.2 .
129(4) 0.0 151.5 .
128(4) 0.0 150.8 .
127(4) 0.0 150.1 .
129(4) 0.0 149.4 .
129(4) 0.0 148.7 .
122(4) 0.0 148.0 .
126(4) 0.0 147.3 .
121(4) 0.0 146.7 .
120(4) 0.0 146.0 .
130(4) 0.0 145.4 .
128(4) 0.0 144.8 .
126(4) 0.0 144.2 .
125(4) 0.0 143.6 .
127(4) 0.0 143.0 .
125(4) 0.0 142.4 .
119(4) 0.0 141.8 .
122(4) 0.0 141.3 .
122(4) 0.0 140.7 .
129(4) 0.0 140.2 .
125(4) 0.0 139.6 .
122(4) 0.0 139.1 .
124(4) 0.0 138.6 .
124(4) 0.0 138.1 .
122(4) 0.0 137.6 .
122(4) 0.0 137.1 .
131(4) 0.0 136.7 .
126(4) 0.0 136.2 .
122(4) 0.0 135.7 .
122(4) 0.0 135.3 .
115(4) 0.0 134.9 .
116(4) 0.0 134.4 .
123(4) 0.0 134.0 .
126(4) 0.0 133.6 .
124(4) 0.0 133.2 .
122(4) 0.0 132.8 .
121(4) 0.0 132.4 .
123(4) 0.0 132.0 .
121(4) 0.0 131.6 .
122(4) 0.0 131.3 .
121(4) 0.0 130.9 .
124(4) 0.0 130.5 .
124(4) 0.0 130.2 .
121(4) 0.0 129.8 .
123(4) 0.0 129.5 .
124(4) 0.0 129.2 .
126(4) 0.0 128.9 .
121(4) 0.0 128.5 .
118(4) 0.0 128.2 .
121(4) 0.0 127.9 .
119(4) 0.0 127.6 .
122(4) 0.0 127.3 .
123(4) 0.0 127.0 .
120(4) 0.0 126.8 .
123(4) 0.0 126.5 .
122(4) 0.0 126.2 .
116(4) 0.0 125.9 .
122(4) 0.0 125.7 .
124(4) 0.0 125.4 .
120(4) 0.0 125.2 .
119(4) 0.0 124.9 .
120(4) 0.0 124.7 .
117(4) 0.0 124.4 .
125(4) 0.0 124.2 .
118(4) 0.0 124.0 .
112(4) 0.0 123.8 .
115(4) 0.0 123.5 .
114(4) 0.0 123.3 .
114(4) 0.0 123.1 .
117(4) 0.0 122.9 .
122(4) 0.0 122.7 .
121(4) 0.0 122.5 .
120(4) 0.0 122.3 .
114(4) 0.0 122.1 .
116(4) 0.0 121.9 .
121(4) 0.0 121.8 .
118(4) 0.0 121.6 .
114(4) 0.0 121.4 .
121(4) 0.0 121.2 .
121(4) 0.0 121.1 .
114(4) 0.0 120.9 .
116(4) 0.0 120.7 .
121(4) 0.0 120.6 .
118(4) 0.0 120.4 .
119(4) 0.0 120.3 .
118(4) 0.0 120.1 .
116(4) 0.0 120.0 .
117(4) 0.0 119.8 .
117(4) 0.0 119.7 .
120(4) 0.0 119.6 .
118(4) 0.0 119.4 .
121(4) 0.0 119.3 .
120(4) 0.0 119.2 .
119(4) 0.0 119.1 .
116(4) 0.0 118.9 .
121(4) 0.0 118.8 .
121(4) 0.0 118.7 .
122(4) 0.0 118.6 .
114(4) 0.0 118.5 .
118(4) 0.0 118.3 .
116(4) 0.0 118.2 .
119(4) 0.0 118.1 .
119(4) 0.0 118.0 .
121(4) 0.0 117.9 .
119(4) 0.0 117.8 .
119(4) 0.0625 117.7 117.7
119(4) 0.0625 117.6 117.6
118(4) 0.0625 117.5 117.5
121(4) 0.0625 117.4 117.4
117(4) 0.0625 117.3 117.3
116(4) 0.0625 117.2 117.3
112(4) 0.0625 117.2 117.2
111(4) 0.0625 117.1 117.1
122(4) 0.0625 117.0 117.0
115(4) 0.0625 116.9 116.9
116(4) 0.0625 116.8 116.8
117(4) 0.0625 116.7 116.7
117(4) 0.0625 116.7 116.7
121(4) 0.0625 116.6 116.6
129(4) 0.0625 116.5 116.5
120(4) 0.0625 116.4 116.4
121(4) 0.0625 116.4 116.4
118(4) 0.0625 116.3 116.3
117(4) 0.0625 116.2 116.2
119(4) 0.0625 116.1 116.2
115(4) 0.0625 116.1 116.1
122(4) 0.0625 116.0 116.0
121(4) 0.0625 115.9 116.0
114(4) 0.0625 115.9 115.9
112(4) 0.0625 115.8 115.8
109(4) 0.0625 115.7 115.8
111(4) 0.0625 115.7 115.7
116(4) 0.0625 115.6 115.6
120(4) 0.0625 115.6 115.6
118(4) 0.0625 115.5 115.5
116(4) 0.0625 115.4 115.5
114(4) 0.0625 115.4 115.4
117(4) 0.0625 115.3 115.4
113(4) 0.0625 115.3 115.3
115(4) 0.0625 115.2 115.2
115(4) 0.0625 115.2 115.2
112(4) 0.0625 115.1 115.1
113(4) 0.0625 115.0 115.1
116(4) 0.0625 115.0 115.0
117(4) 0.0625 114.9 115.0
113(4) 0.0625 114.9 115.0
113(4) 0.0625 114.8 114.9
116(4) 0.0625 114.8 114.9
114(4) 0.0625 114.7 114.8
115(4) 0.0625 114.7 114.8
120(4) 0.0625 114.6 114.8
116(4) 0.0625 114.6 114.7
116(4) 0.0625 114.5 114.7
120(4) 0.0625 114.5 114.8
118(4) 0.0625 114.4 114.8
111(4) 0.0625 114.4 115.0
118(4) 0.0625 114.4 115.4
120(4) 0.0625 114.3 116.0
116(4) 0.0625 114.3 116.8
116(4) 0.0625 114.2 118.0
112(4) 0.0625 114.2 119.3
113(4) 0.0625 114.1 120.8
119(4) 0.0625 114.1 122.2
121(4) 0.0625 114.0 123.1
124(4) 0.0625 114.0 123.4
120(4) 0.0625 114.0 123.0
120(4) 0.0625 113.9 121.8
111(4) 0.0625 113.9 120.2
114(4) 0.0625 113.8 118.4
124(4) 0.0625 113.8 116.8
117(4) 0.0625 113.7 115.6
117(4) 0.0625 113.7 114.8
114(4) 0.0625 113.7 114.3
122(4) 0.0625 113.6 114.0
118(4) 0.0625 113.6 113.8
112.0(30) 0.1111 113.53 113.72
115(4) 0.0625 113.5 113.6
111(4) 0.0625 113.4 113.6
109(4) 0.0625 113.4 113.5
112(4) 0.0625 113.4 113.5
111(4) 0.0625 113.3 113.4
110(4) 0.0625 113.3 113.4
112(4) 0.0625 113.2 113.3
113(4) 0.0625 113.2 113.3
110(4) 0.0625 113.2 113.2
110(4) 0.0625 113.1 113.2
109(4) 0.0625 113.1 113.1
113(4) 0.0625 113.0 113.1
113(4) 0.0625 113.0 113.0
112(4) 0.0625 113.0 113.0
112(4) 0.0625 112.9 113.0
111.0(30) 0.1111 112.88 112.91
112(4) 0.0625 112.8 112.9
113(4) 0.0625 112.8 112.8
113.0(30) 0.1111 112.75 112.78
111(4) 0.0625 112.7 112.7
117(4) 0.0625 112.7 112.7
112.0(30) 0.1111 112.63 112.65
105.0(30) 0.1111 112.59 112.61
110(4) 0.0625 112.5 112.6
106(4) 0.0625 112.5 112.5
108(4) 0.0625 112.5 112.5
110.0(30) 0.1111 112.43 112.44
108.0(30) 0.1111 112.38 112.40
113(4) 0.0625 112.3 112.4
115(4) 0.0625 112.3 112.3
119(4) 0.0625 112.3 112.3
111(4) 0.0625 112.2 112.2
109(4) 0.0625 112.2 112.2
112(4) 0.0625 112.1 112.1
111.0(30) 0.1111 112.09 112.11
110.0(30) 0.1111 112.05 112.06
107(4) 0.0625 112.0 112.0
107(4) 0.0625 112.0 112.0
110.0(30) 0.1111 111.92 111.94
109.0(30) 0.1111 111.88 111.89
110.0(30) 0.1111 111.84 111.85
112.0(30) 0.1111 111.79 111.81
113(4) 0.0625 111.7 111.8
114(4) 0.0625 111.7 111.7
114(4) 0.0625 111.7 111.7
116(4) 0.0625 111.6 111.6
112(4) 0.0625 111.6 111.6
114(4) 0.0625 111.5 111.5
108(4) 0.0625 111.5 111.5
114(4) 0.0625 111.4 111.5
110(4) 0.0625 111.4 111.4
113(4) 0.0625 111.4 111.4
111(4) 0.0625 111.3 111.3
106.0(30) 0.1111 111.26 111.28
111.0(30) 0.1111 111.22 111.23
114(4) 0.0625 111.2 111.2
110(4) 0.0625 111.1 111.1
108.0(30) 0.1111 111.08 111.10
112(4) 0.0625 111.0 111.1
110(4) 0.0625 111.0 111.0
106.0(30) 0.1111 110.94 110.97
111(4) 0.0625 110.9 110.9
109(4) 0.0625 110.9 110.9
110(4) 0.0625 110.8 110.8
108(4) 0.0625 110.8 110.8
113(4) 0.0625 110.7 110.7
112(4) 0.0625 110.7 110.7
114(4) 0.0625 110.6 110.7
113(4) 0.0625 110.6 110.7
104.0(30) 0.1111 110.52 110.66
108(4) 0.0625 110.5 110.7
108(4) 0.0625 110.4 110.8
113(4) 0.0625 110.4 110.9
114(4) 0.0625 110.3 111.1
114(4) 0.0625 110.3 111.4
114(4) 0.0625 110.2 111.6
109(4) 0.0625 110.2 111.9
117(4) 0.0625 110.1 112.0
114(4) 0.0625 110.1 112.0
115(4) 0.0625 110.0 111.8
117(4) 0.0625 110.0 111.4
115(4) 0.0625 109.9 111.0
114(4) 0.0625 109.9 110.6
110(4) 0.0625 109.8 110.3
105(4) 0.0625 109.8 110.1
107(4) 0.0625 109.7 109.9
113(4) 0.0625 109.7 109.8
114(4) 0.0625 109.6 109.7
107.0(30) 0.1111 109.59 109.64
105.0(30) 0.1111 109.54 109.58
108(4) 0.0625 109.5 109.5
108(4) 0.0625 109.4 109.5
114(4) 0.0625 109.4 109.4
112(4) 0.0625 109.3 109.4
107.0(30) 0.1111 109.28 109.31
107(4) 0.0625 109.2 109.3
113(4) 0.0625 109.2 109.2
112(4) 0.0625 109.1 109.2
113(4) 0.0625 109.1 109.1
109.0(30) 0.1111 109.02 109.05
107.0(30) 0.1111 108.97 109.00
115(4) 0.0625 108.9 108.9
111(4) 0.0625 108.9 108.9
108.0(30) 0.1111 108.81 108.84
113(4) 0.0625 108.8 108.8
114(4) 0.0625 108.7 108.7
109(4) 0.0625 108.7 108.7
110(4) 0.0625 108.6 108.6
118(4) 0.0625 108.5 108.6
112(4) 0.0625 108.5 108.5
109(4) 0.0625 108.4 108.5
109(4) 0.0625 108.4 108.4
112(4) 0.0625 108.3 108.4
114(4) 0.0625 108.3 108.3
110(4) 0.0625 108.2 108.3
109(4) 0.0625 108.2 108.2
110(4) 0.0625 108.1 108.2
109(4) 0.0625 108.1 108.1
107(4) 0.0625 108.0 108.0
118(4) 0.0625 108.0 108.0
115(4) 0.0625 107.9 107.9
110(4) 0.0625 107.8 107.9
110(4) 0.0625 107.8 107.8
110(4) 0.0625 107.7 107.8
115(4) 0.0625 107.7 107.7
112(4) 0.0625 107.6 107.7
113(4) 0.0625 107.6 107.6
115(4) 0.0625 107.5 107.6
108(4) 0.0625 107.5 107.5
114(4) 0.0625 107.4 107.5
116(4) 0.0625 107.4 107.4
112(4) 0.0625 107.3 107.4
105(4) 0.0625 107.2 107.3
106.0(30) 0.1111 107.19 107.28
106.0(30) 0.1111 107.14 107.24
110(4) 0.0625 107.1 107.2
113(4) 0.0625 107.0 107.1
110(4) 0.0625 107.0 107.1
111(4) 0.0625 106.9 107.1
115(4) 0.0625 106.9 107.0
113(4) 0.0625 106.8 107.0
115(4) 0.0625 106.8 107.0
116(4) 0.0625 106.7 107.0
111(4) 0.0625 106.6 107.0
115(4) 0.0625 106.6 107.1
113(4) 0.0625 106.5 107.3
114(4) 0.0625 106.5 107.8
112(4) 0.0625 106.4 108.6
112(4) 0.0625 106.4 109.9
118(4) 0.0625 106.3 111.7
119(4) 0.0625 106.3 114.0
115(4) 0.0625 106.2 116.4
117(4) 0.0625 106.1 118.6
120(4) 0.0625 106.1 120.0
119(4) 0.0625 106.0 119.9
120(4) 0.0625 106.0 118.4
118(4) 0.0625 105.9 115.8
111(4) 0.0625 105.9 113.0
109(4) 0.0625 105.8 110.5
115(4) 0.0625 105.8 108.6
114(4) 0.0625 105.7 107.3
109(4) 0.0625 105.6 106.6
109(4) 0.0625 105.6 106.2
112(4) 0.0625 105.5 105.9
107(4) 0.0625 105.5 105.8
104(4) 0.0625 105.4 105.7
108(4) 0.0625 105.4 105.6
103(4) 0.0625 105.3 105.5
103.0(30) 0.1111 105.26 105.44
109(4) 0.0625 105.2 105.4
105(4) 0.0625 105.2 105.3
107(4) 0.0625 105.1 105.2
107(4) 0.0625 105.0 105.2
107(4) 0.0625 105.0 105.1
103.0(30) 0.1111 104.93 105.06
106.0(30) 0.1111 104.88 105.00
106(4) 0.0625 104.8 104.9
111(4) 0.0625 104.8 104.9
106(4) 0.0625 104.7 104.8
108(4) 0.0625 104.7 104.8
104.0(30) 0.1111 104.61 104.73
102(4) 0.0625 104.6 104.7
102.0(30) 0.1111 104.50 104.62
106.0(30) 0.1111 104.45 104.57
105(4) 0.0625 104.4 104.5
103(4) 0.0625 104.3 104.5
103(4) 0.0625 104.3 104.4
100.0(30) 0.1111 104.23 104.37
104(4) 0.0625 104.2 104.3
101(4) 0.0625 104.1 104.3
101.0(30) 0.1111 104.07 104.22
103(4) 0.0625 104.0 104.2
102(4) 0.0625 104.0 104.1
100(4) 0.0625 103.9 104.1
99(4) 0.0625 103.9 104.0
109(4) 0.0625 103.8 104.0
105(4) 0.0625 103.8 104.0
110(4) 0.0625 103.7 103.9
107.0(30) 0.1111 103.65 103.89
102(4) 0.0625 103.6 103.9
98(4) 0.0625 103.5 103.8
100.0(30) 0.1111 103.49 103.80
101(4) 0.0625 103.4 103.8
100.0(30) 0.1111 103.38 103.76
103.0(30) 0.1111 103.33 103.75
101.0(30) 0.1111 103.28 103.75
105.0(30) 0.1111 103.23 103.76
104(4) 0.0625 103.2 103.8
106.0(30) 0.1111 103.13 103.83
102.0(30) 0.1111 103.07 103.91
107(4) 0.0625 103.0 104.1
106(4) 0.0625 103.0 104.4
109(4) 0.0625 102.9 105.1
101(4) 0.0625 102.9 106.4
104(4) 0.0625 102.8 108.7
111(4) 0.0625 102.8 112.7
110(4) 0.0625 102.7 118.7
121(4) 0.0625 102.7 126.9
132(4) 0.0625 102.6 136.5
139(4) 0.0625 102.6 145.8
145(4) 0.0625 102.5 152.8
148(4) 0.0625 102.5 155.0
144(4) 0.0625 102.4 151.2
133(4) 0.0625 102.4 142.6
134(4) 0.0625 102.3 132.1
130(4) 0.0625 102.3 122.2
120(4) 0.0625 102.2 114.5
113(4) 0.0625 102.2 109.2
109(4) 0.0625 102.1 106.1
108(4) 0.0625 102.1 104.4
101(4) 0.0625 102.0 103.6
102.0(30) 0.1111 101.97 103.10
102.0(30) 0.1111 101.93 102.83
105.0(30) 0.1111 101.88 102.64
106(4) 0.0625 101.8 102.5
101.0(30) 0.1111 101.78 102.36
100.0(30) 0.1111 101.73 102.25
100.0(30) 0.1111 101.69 102.15
99.0(30) 0.1111 101.64 102.06
105(4) 0.0625 101.6 102.0
104(4) 0.0625 101.5 101.9
106(4) 0.0625 101.5 101.8
112(4) 0.0625 101.4 101.8
105.0(30) 0.1111 101.40 101.69
99(4) 0.0625 101.4 101.6
99(4) 0.0625 101.3 101.6
97(4) 0.0625 101.3 101.5
98(4) 0.0625 101.2 101.5
99(4) 0.0625 101.2 101.4
99(4) 0.0625 101.1 101.3
100(4) 0.0625 101.1 101.3
94.0(30) 0.1111 101.03 101.25
100.0(30) 0.1111 100.99 101.20
107(4) 0.0625 100.9 101.2
103.0(30) 0.1111 100.90 101.11
98.0(30) 0.1111 100.85 101.07
102(4) 0.0625 100.8 101.0
100(4) 0.0625 100.8 101.0
98.0(30) 0.1111 100.72 100.95
100.0(30) 0.1111 100.67 100.92
101.0(30) 0.1111 100.63 100.88
92(4) 0.0625 100.6 100.9
97(4) 0.0625 100.5 100.8
98(4) 0.0625 100.5 100.8
95.0(30) 0.1111 100.45 100.78
95.0(30) 0.1111 100.41 100.77
98.0(30) 0.1111 100.37 100.76
101(4) 0.0625 100.3 100.8
95(4) 0.0625 100.3 100.8
99.0(30) 0.1111 100.24 100.79
97(4) 0.0625 100.2 100.8
100(4) 0.0625 100.2 100.9
101(4) 0.0625 100.1 101.1
109(4) 0.0625 100.1 101.4
105(4) 0.0625 100.0 102.1
108(4) 0.0625 100.0 103.5
115(4) 0.0625 99.9 106.0
112(4) 0.0625 99.9 110.0
115(4) 0.0625 99.9 115.9
123(4) 0.0625 99.8 123.4
122(4) 0.0625 99.8 131.4
133(4) 0.0625 99.7 138.2
144(4) 0.0625 99.7 141.7
146(4) 0.0625 99.7 140.4
143(4) 0.0625 99.6 134.6
132(4) 0.0625 99.6 126.3
124(4) 0.0625 99.5 117.9
112(4) 0.0625 99.5 111.0
109(4) 0.0625 99.5 106.2
105(4) 0.0625 99.4 103.2
105.0(30) 0.1111 99.38 101.55
98(4) 0.0625 99.3 100.7
94(4) 0.0625 99.3 100.3
100(4) 0.0625 99.3 100.0
99.0(30) 0.1111 99.22 99.85
98(4) 0.0625 99.2 99.7
97.0(30) 0.1111 99.15 99.61
97(4) 0.0625 99.1 99.5
95(4) 0.0625 99.1 99.4
91.0(30) 0.1111 99.03 99.36
97(4) 0.0625 99.0 99.3
99(4) 0.0625 99.0 99.2
96.0(30) 0.1111 98.92 99.16
97.0(30) 0.1111 98.88 99.10
95.0(30) 0.1111 98.84 99.04
100.0(30) 0.1111 98.81 98.99
98.0(30) 0.1111 98.77 98.94
100.0(30) 0.1111 98.73 98.89
104.0(30) 0.1111 98.70 98.84
99.0(30) 0.1111 98.66 98.80
102.0(30) 0.1111 98.62 98.75
100.0(30) 0.1111 98.59 98.71
97.0(30) 0.1111 98.55 98.67
104.0(30) 0.1111 98.52 98.62
102.0(30) 0.1111 98.48 98.58
97.0(30) 0.1111 98.44 98.54
99.0(30) 0.1111 98.41 98.50
95.0(30) 0.1111 98.37 98.46
98(4) 0.0625 98.3 98.4
98.0(30) 0.1111 98.30 98.38
95.0(30) 0.1111 98.27 98.34
94(4) 0.0625 98.2 98.3
99.0(30) 0.1111 98.20 98.27
98.0(30) 0.1111 98.17 98.23
94.0(30) 0.1111 98.13 98.19
101.0(30) 0.1111 98.10 98.16
103.0(30) 0.1111 98.06 98.12
96.0(30) 0.1111 98.03 98.09
97.0(30) 0.1111 98.00 98.05
97(4) 0.0625 98.0 98.0
94(4) 0.0625 97.9 98.0
98.0(30) 0.1111 97.90 97.94
95.0(30) 0.1111 97.86 97.91
96.0(30) 0.1111 97.83 97.88
95.0(30) 0.1111 97.80 97.84
99.0(30) 0.1111 97.76 97.81
99(4) 0.0625 97.7 97.8
94.0(30) 0.1111 97.70 97.74
89.0(30) 0.1111 97.67 97.71
93.0(30) 0.1111 97.64 97.67
91.0(30) 0.1111 97.60 97.64
93.0(30) 0.1111 97.57 97.61
93.0(30) 0.1111 97.54 97.58
98.0(30) 0.1111 97.51 97.55
103(4) 0.0625 97.5 97.5
94.0(30) 0.1111 97.45 97.48
93.0(30) 0.1111 97.41 97.45
94.0(30) 0.1111 97.38 97.42
97.0(30) 0.1111 97.35 97.39
97.0(30) 0.1111 97.32 97.36
90.0(30) 0.1111 97.29 97.33
93.0(30) 0.1111 97.26 97.30
93.0(30) 0.1111 97.23 97.27
93.0(30) 0.1111 97.20 97.23
98.0(30) 0.1111 97.17 97.20
95.0(30) 0.1111 97.14 97.17
90.0(30) 0.1111 97.11 97.14
96.0(30) 0.1111 97.08 97.11
93.0(30) 0.1111 97.05 97.08
95.0(30) 0.1111 97.02 97.05
97.0(30) 0.1111 96.99 97.02
96.0(30) 0.1111 96.96 96.99
91.0(30) 0.1111 96.93 96.97
92.0(30) 0.1111 96.90 96.94
90.0(30) 0.1111 96.87 96.91
89.0(30) 0.1111 96.85 96.88
94.0(30) 0.1111 96.82 96.85
99.0(30) 0.1111 96.79 96.82
94.0(30) 0.1111 96.76 96.79
92.0(30) 0.1111 96.73 96.77
93.0(30) 0.1111 96.70 96.74
95.0(30) 0.1111 96.67 96.70
93.0(30) 0.1111 96.65 96.68
97.0(30) 0.1111 96.62 96.65
98.0(30) 0.1111 96.59 96.62
93.0(30) 0.1111 96.56 96.60
95.0(30) 0.1111 96.53 96.57
92.0(30) 0.1111 96.51 96.54
96.0(30) 0.1111 96.48 96.52
94.0(30) 0.1111 96.45 96.49
89.0(30) 0.1111 96.42 96.47
93.0(30) 0.1111 96.40 96.44
99.0(30) 0.1111 96.37 96.42
99.0(30) 0.1111 96.34 96.40
101.0(30) 0.1111 96.32 96.39
94.0(30) 0.1111 96.29 96.39
95.0(30) 0.1111 96.26 96.42
99.0(30) 0.1111 96.24 96.50
100.0(30) 0.1111 96.21 96.63
96.0(30) 0.1111 96.18 96.82
94.0(30) 0.1111 96.16 97.05
96.0(30) 0.1111 96.13 97.25
97.0(30) 0.1111 96.11 97.37
98.0(30) 0.1111 96.08 97.34
96.0(30) 0.1111 96.05 97.17
97.0(30) 0.1111 96.03 96.90
100.0(30) 0.1111 96.00 96.61
96.0(30) 0.1111 95.98 96.37
98.0(30) 0.1111 95.95 96.19
101.0(30) 0.1111 95.92 96.08
103.0(30) 0.1111 95.90 96.00
99.0(30) 0.1111 95.87 95.95
100.0(30) 0.1111 95.85 95.91
94.0(30) 0.1111 95.82 95.88
97.0(30) 0.1111 95.80 95.86
102.0(30) 0.1111 95.77 95.83
94.0(30) 0.1111 95.75 95.80
93.0(30) 0.1111 95.72 95.78
100.0(30) 0.1111 95.70 95.75
98.0(30) 0.1111 95.67 95.73
92.0(30) 0.1111 95.65 95.71
95.0(30) 0.1111 95.62 95.68
92.0(30) 0.1111 95.60 95.66
97.0(30) 0.1111 95.58 95.64
100.0(30) 0.1111 95.55 95.61
98.0(30) 0.1111 95.53 95.59
93.0(30) 0.1111 95.50 95.57
93.0(30) 0.1111 95.48 95.55
93.0(30) 0.1111 95.45 95.53
92.0(30) 0.1111 95.43 95.51
100.0(30) 0.1111 95.41 95.49
102.0(30) 0.1111 95.38 95.47
99.0(30) 0.1111 95.36 95.45
96.0(30) 0.1111 95.33 95.43
104.0(30) 0.1111 95.31 95.42
93.0(30) 0.1111 95.29 95.40
92.0(30) 0.1111 95.26 95.39
95.0(30) 0.1111 95.24 95.38
98.0(30) 0.1111 95.22 95.37
97.0(30) 0.1111 95.19 95.36
98.0(30) 0.1111 95.17 95.36
98.0(30) 0.1111 95.15 95.42
95.0(30) 0.1111 95.12 95.43
98.0(30) 0.1111 95.10 95.46
95.0(30) 0.1111 95.08 95.54
93.0(30) 0.1111 95.05 95.71
99.0(30) 0.1111 95.03 96.08
103.0(30) 0.1111 95.01 96.80
104(4) 0.0625 95.0 98.0
104(4) 0.0625 95.0 99.9
100.0(30) 0.1111 94.94 102.31
106(4) 0.0625 94.9 104.9
113(4) 0.0625 94.9 106.9
111(4) 0.0625 94.9 107.8
107(4) 0.0625 94.8 106.9
103(4) 0.0625 94.8 104.8
102(4) 0.0625 94.8 102.1
100(4) 0.0625 94.8 99.6
98(4) 0.0625 94.8 97.7
100.0(30) 0.1111 94.74 96.46
98(4) 0.0625 94.7 95.7
93(4) 0.0625 94.7 95.4
97(4) 0.0625 94.7 95.2
98.0(30) 0.1111 94.65 95.06
98.0(30) 0.1111 94.62 95.00
97.0(30) 0.1111 94.60 94.95
96.0(30) 0.1111 94.58 94.91
95.0(30) 0.1111 94.56 94.88
94.0(30) 0.1111 94.54 94.85
95.0(30) 0.1111 94.51 94.82
93.0(30) 0.1111 94.49 94.80
94.0(30) 0.1111 94.47 94.78
98.0(30) 0.1111 94.45 94.76
101.0(30) 0.1111 94.43 94.74
96.0(30) 0.1111 94.40 94.73
93.0(30) 0.1111 94.38 94.72
98.0(30) 0.1111 94.36 94.71
98.0(30) 0.1111 94.34 94.70
98.0(30) 0.1111 94.32 94.70
96.0(30) 0.1111 94.29 94.69
97.0(30) 0.1111 94.27 94.70
99.0(30) 0.1111 94.25 94.70
93.0(30) 0.1111 94.23 94.71
98.0(30) 0.1111 94.21 94.73
101.0(30) 0.1111 94.19 94.75
102.0(30) 0.1111 94.16 94.85
100.0(30) 0.1111 94.14 94.89
102(4) 0.0625 94.1 94.9
99(4) 0.0625 94.1 95.0
99.0(30) 0.1111 94.08 95.12
99.0(30) 0.1111 94.06 95.26
96.0(30) 0.1111 94.04 95.48
96.0(30) 0.1111 94.01 95.88
105.0(30) 0.1111 93.99 96.67
104(4) 0.0625 94.0 98.3
109(4) 0.0625 94.0 101.4
112(4) 0.0625 93.9 107.0
115(4) 0.0625 93.9 115.8
125(4) 0.0625 93.9 127.6
140(4) 0.0625 93.9 140.8
152(4) 0.0625 93.8 152.2
165(4) 0.0625 93.8 157.9
168(4) 0.0625 93.8 155.3
157(4) 0.0625 93.8 145.4
142(4) 0.0625 93.8 132.1
132(4) 0.0625 93.7 119.3
116(4) 0.0625 93.7 109.2
101(4) 0.0625 93.7 102.6
101(4) 0.0625 93.7 98.7
99(4) 0.0625 93.7 96.7
95.0(30) 0.1111 93.63 95.72
98.0(30) 0.1111 93.61 95.22
97.0(30) 0.1111 93.59 94.94
95.0(30) 0.1111 93.57 94.75
92.0(30) 0.1111 93.55 94.61
92.0(30) 0.1111 93.53 94.50
99(4) 0.0625 93.5 94.4
99.0(30) 0.1111 93.48 94.33
97.0(30) 0.1111 93.46 94.26
99(4) 0.0625 93.4 94.2
97.0(30) 0.1111 93.42 94.15
95.0(30) 0.1111 93.40 94.10
95.0(30) 0.1111 93.38 94.06
98.0(30) 0.1111 93.36 94.03
97.0(30) 0.1111 93.34 93.99
97.0(30) 0.1111 93.32 93.96
101.0(30) 0.1111 93.30 94.10
102.0(30) 0.1111 93.27 94.08
98.0(30) 0.1111 93.25 94.06
91.0(30) 0.1111 93.23 94.05
92(4) 0.0625 93.2 94.0
94.0(30) 0.1111 93.19 94.02
94(4) 0.0625 93.2 94.0
93.0(30) 0.1111 93.15 94.01
98(4) 0.0625 93.1 94.0
102.0(30) 0.1111 93.11 94.00
98.0(30) 0.1111 93.09 94.01
98.0(30) 0.1111 93.06 94.02
97.0(30) 0.1111 93.04 94.04
97.0(30) 0.1111 93.02 94.09
99(4) 0.0625 93.0 94.2
98(4) 0.0625 93.0 94.4
90(4) 0.0625 93.0 94.8
92.0(30) 0.1111 92.94 95.36
91(4) 0.0625 92.9 96.2
92(4) 0.0625 92.9 97.2
99(4) 0.0625 92.9 98.1
96(4) 0.0625 92.9 98.7
96.0(30) 0.1111 92.83 98.67
100(4) 0.0625 92.8 98.0
100(4) 0.0625 92.8 97.1
99.0(30) 0.1111 92.77 96.09
95(4) 0.0625 92.8 95.3
99(4) 0.0625 92.7 94.8
100.0(30) 0.1111 92.71 94.50
99.0(30) 0.1111 92.69 94.37
97.0(30) 0.1111 92.67 94.33
94.0(30) 0.1111 92.65 94.33
96.0(30) 0.1111 92.62 94.36
97(4) 0.0625 92.6 94.4
100.0(30) 0.1111 92.58 94.45
100.0(30) 0.1111 92.56 94.52
98.0(30) 0.1111 92.54 94.59
96(4) 0.0625 92.5 94.7
99.0(30) 0.1111 92.50 94.77
95.0(30) 0.1111 92.48 94.88
94.0(30) 0.1111 92.46 95.01
91.0(30) 0.1111 92.44 95.15
97(4) 0.0625 92.4 95.3
98.0(30) 0.1111 92.39 95.50
95.0(30) 0.1111 92.37 95.71
93.0(30) 0.1111 92.35 95.96
98(4) 0.0625 92.3 96.2
101.0(30) 0.1111 92.31 96.58
95(4) 0.0625 92.3 97.0
96.0(30) 0.1111 92.27 97.43
98.0(30) 0.1111 92.25 97.97
96.0(30) 0.1111 92.22 98.63
92(4) 0.0625 92.2 99.4
96.0(30) 0.1111 92.18 100.41
106(4) 0.0625 92.2 101.7
102(4) 0.0625 92.1 103.3
114(4) 0.0625 92.1 105.8
120(4) 0.0625 92.1 110.2
137(4) 0.0625 92.1 118.8
151(4) 0.0625 92.1 136.2
195(5) 0.0400 92.0 169.9
245(5) 0.0400 92.0 229.1
316(6) 0.02778 92.0 320.2
419(6) 0.02778 92.0 440.1
549(7) 0.02041 91.9 569.3
659(8) 0.01563 91.9 672.5
709(9) 0.01235 91.9 710.4
684(8) 0.01563 91.9 664.2
560(8) 0.01563 91.9 554.5
405(6) 0.02778 91.8 423.2
296(5) 0.0400 91.8 305.3
220(5) 0.0400 91.8 217.9
164(4) 0.0625 91.8 162.8
134(4) 0.0625 91.8 132.3
117(4) 0.0625 91.7 117.0
110(4) 0.0625 91.7 109.6
100(4) 0.0625 91.7 105.8
97(4) 0.0625 91.7 103.6
103(4) 0.0625 91.7 102.2
97(4) 0.0625 91.6 101.1
101(4) 0.0625 91.6 100.2
96.0(30) 0.1111 91.59 99.57
97.0(30) 0.1111 91.57 99.06
98.0(30) 0.1111 91.54 98.67
100.0(30) 0.1111 91.52 98.38
102.0(30) 0.1111 91.50 98.17
106.0(30) 0.1111 91.48 98.05
97(4) 0.0625 91.5 98.0
97.0(30) 0.1111 91.44 98.02
100.0(30) 0.1111 91.42 98.11
93.0(30) 0.1111 91.40 98.27
92(4) 0.0625 91.4 98.5
98(4) 0.0625 91.4 98.9
102.0(30) 0.1111 91.33 99.30
100(4) 0.0625 91.3 99.9
102(4) 0.0625 91.3 100.6
102(4) 0.0625 91.3 101.5
101.0(30) 0.1111 91.24 102.70
108(4) 0.0625 91.2 104.3
107(4) 0.0625 91.2 106.7
120(4) 0.0625 91.2 110.8
126(4) 0.0625 91.2 118.8
156(4) 0.0625 91.1 135.3
193(5) 0.0400 91.1 167.9
252(5) 0.0400 91.1 226.7
329(6) 0.02778 91.1 319.7
424(7) 0.02041 91.1 445.4
554(7) 0.02041 91.0 585.0
681(8) 0.01563 91.0 701.4
760(9) 0.01235 91.0 750.5
727(9) 0.01235 91.0 708.2
597(8) 0.01563 90.9 594.0
423(7) 0.02041 90.9 453.2
309(6) 0.02778 90.9 325.0
225(5) 0.0400 90.9 229.7
169(4) 0.0625 90.9 169.4
130(4) 0.0625 90.8 136.2
117(4) 0.0625 90.8 119.7
111(4) 0.0625 90.8 111.8
100.0(30) 0.1111 90.77 107.87
100(4) 0.0625 90.7 105.7
94(4) 0.0625 90.7 104.3
91.0(30) 0.1111 90.71 103.25
98.0(30) 0.1111 90.68 102.54
99.0(30) 0.1111 90.66 102.05
98.0(30) 0.1111 90.64 101.74
100.0(30) 0.1111 90.62 101.59
100(4) 0.0625 90.6 101.6
100(4) 0.0625 90.6 101.7
97(4) 0.0625 90.6 102.0
94.0(30) 0.1111 90.53 102.41
91.0(30) 0.1111 90.51 102.97
96(4) 0.0625 90.5 103.7
95(4) 0.0625 90.5 104.6
98.0(30) 0.1111 90.45 105.79
105(4) 0.0625 90.4 107.2
104(4) 0.0625 90.4 109.0
100.0(30) 0.1111 90.38 111.17
105(4) 0.0625 90.4 113.9
109(4) 0.0625 90.3 117.4
118(4) 0.0625 90.3 122.2
138(4) 0.0625 90.3 129.3
155(4) 0.0625 90.3 141.5
192(5) 0.0400 90.3 165.7
258(5) 0.0400 90.2 215.5
366(6) 0.02778 90.2 313.6
528(7) 0.02041 90.2 488.5
763(9) 0.01235 90.2 760.6
1071(10) 0.01000 90.1 1120.3
1430(12) 0.00694 90.1 1507.0
1815(13) 0.00592 90.1 1809.7
1980(14) 0.00510 90.1 1905.8
1854(14) 0.00510 90.1 1745.7
1456(12) 0.00694 90.0 1404.4
1003(10) 0.01000 90.0 1012.6
659(8) 0.01563 90.0 671.3
415(6) 0.02778 90.0 426.1
271(5) 0.0400 89.9 275.7
182(4) 0.0625 89.9 194.8
147(4) 0.0625 89.9 154.9
128(4) 0.0625 89.9 135.6
113(4) 0.0625 89.9 125.4
114(4) 0.0625 89.8 119.1
108.0(30) 0.1111 89.82 114.69
104.0(30) 0.1111 89.79 111.27
103.0(30) 0.1111 89.77 108.53
103.0(30) 0.1111 89.75 106.28
103.0(30) 0.1111 89.73 104.42
97.0(30) 0.1111 89.71 102.85
96.0(30) 0.1111 89.69 101.52
94.0(30) 0.1111 89.66 100.39
89.0(30) 0.1111 89.64 99.41
90.0(30) 0.1111 89.62 98.56
90.0(30) 0.1111 89.60 97.82
89.0(30) 0.1111 89.58 97.16
97.0(30) 0.1111 89.56 96.59
93.0(30) 0.1111 89.53 96.07
84.0(30) 0.1111 89.51 95.61
91.0(30) 0.1111 89.49 95.20
95.0(30) 0.1111 89.47 94.83
90.0(30) 0.1111 89.45 94.49
89.0(30) 0.1111 89.43 94.19
87.0(30) 0.1111 89.40 93.91
92.0(30) 0.1111 89.38 93.66
93.0(30) 0.1111 89.36 93.43
89(4) 0.0625 89.3 93.2
89.0(30) 0.1111 89.32 93.02
90.0(30) 0.1111 89.30 92.84
94.0(30) 0.1111 89.28 92.67
87.0(30) 0.1111 89.25 92.52
94.0(30) 0.1111 89.23 92.38
93.0(30) 0.1111 89.21 92.25
90.0(30) 0.1111 89.19 92.13
86.0(30) 0.1111 89.17 92.02
87.0(30) 0.1111 89.15 91.91
88.0(30) 0.1111 89.12 91.82
87.0(30) 0.1111 89.10 91.73
92.0(30) 0.1111 89.08 91.65
90.0(30) 0.1111 89.06 91.58
93.0(30) 0.1111 89.04 91.51
89.0(30) 0.1111 89.02 91.45
89.0(30) 0.1111 88.99 91.40
87.0(30) 0.1111 88.97 91.36
87.0(30) 0.1111 88.95 91.32
88.0(30) 0.1111 88.93 91.29
88.0(30) 0.1111 88.91 91.27
94.0(30) 0.1111 88.89 91.25
87.0(30) 0.1111 88.87 91.25
87.0(30) 0.1111 88.84 91.26
89.0(30) 0.1111 88.82 91.27
90.0(30) 0.1111 88.80 91.30
90.0(30) 0.1111 88.78 91.34
85.0(30) 0.1111 88.76 91.41
87.0(30) 0.1111 88.74 91.49
87.0(30) 0.1111 88.72 91.59
86.0(30) 0.1111 88.69 91.72
90.0(30) 0.1111 88.67 91.84
93.0(30) 0.1111 88.65 92.05
87.0(30) 0.1111 88.63 92.33
92.0(30) 0.1111 88.61 92.68
93.0(30) 0.1111 88.59 93.14
94.0(30) 0.1111 88.57 93.79
97.0(30) 0.1111 88.55 94.82
103.0(30) 0.1111 88.52 96.73
103.0(30) 0.1111 88.50 100.67
115(4) 0.0625 88.5 108.8
131(4) 0.0625 88.5 124.6
148(4) 0.0625 88.4 151.5
183(4) 0.0625 88.4 190.9
224(5) 0.0400 88.4 238.9
274(5) 0.0400 88.4 284.3
309(6) 0.02778 88.4 311.0
320(6) 0.02778 88.3 306.1
285(5) 0.0400 88.3 271.9
232(5) 0.0400 88.3 223.8
180(4) 0.0625 88.3 177.4
143(4) 0.0625 88.2 141.5
119(4) 0.0625 88.2 118.3
105(4) 0.0625 88.2 105.4
102(4) 0.0625 88.2 98.9
101.0(30) 0.1111 88.17 95.83
93.0(30) 0.1111 88.14 94.31
90.0(30) 0.1111 88.12 93.45
93.0(30) 0.1111 88.10 92.89
93.0(30) 0.1111 88.08 92.48
91.0(30) 0.1111 88.06 92.18
89.0(30) 0.1111 88.04 91.96
93.0(30) 0.1111 88.02 91.81
93.0(30) 0.1111 88.00 91.71
88.0(30) 0.1111 87.98 91.66
85.0(30) 0.1111 87.96 91.66
84.0(30) 0.1111 87.93 91.71
91.0(30) 0.1111 87.91 91.80
89.0(30) 0.1111 87.89 91.95
91.0(30) 0.1111 87.87 92.16
95.0(30) 0.1111 87.85 92.44
94.0(30) 0.1111 87.83 92.80
94.0(30) 0.1111 87.81 93.27
88.0(30) 0.1111 87.79 93.88
86.0(30) 0.1111 87.77 94.69
90.0(30) 0.1111 87.75 95.77
95(4) 0.0625 87.7 97.6
100.0(30) 0.1111 87.71 101.01
107(4) 0.0625 87.7 108.0
128(4) 0.0625 87.7 122.6
157(4) 0.0625 87.6 150.6
200(5) 0.0400 87.6 197.9
252(5) 0.0400 87.6 266.3
330(6) 0.02778 87.6 348.2
415(7) 0.02041 87.6 423.5
475(7) 0.02041 87.5 464.0
475(7) 0.02041 87.5 449.6
408(6) 0.02778 87.5 387.4
323(6) 0.02778 87.5 305.1
229(5) 0.0400 87.5 228.1
167(4) 0.0625 87.4 170.1
132(4) 0.0625 87.4 133.4
111(4) 0.0625 87.4 113.2
102.0(30) 0.1111 87.38 103.26
88(4) 0.0625 87.4 98.5
92.0(30) 0.1111 87.34 96.07
97.0(30) 0.1111 87.32 94.64
97.0(30) 0.1111 87.30 93.65
92.0(30) 0.1111 87.28 92.92
94.0(30) 0.1111 87.26 92.35
90.0(30) 0.1111 87.24 91.90
92.0(30) 0.1111 87.22 91.54
101.0(30) 0.1111 87.20 91.27
91.0(30) 0.1111 87.18 91.06
89.0(30) 0.1111 87.16 90.90
88.0(30) 0.1111 87.14 90.81
91.0(30) 0.1111 87.12 90.76
92.0(30) 0.1111 87.10 90.77
91.0(30) 0.1111 87.08 90.83
94.0(30) 0.1111 87.06 90.96
95.0(30) 0.1111 87.04 91.16
91.0(30) 0.1111 87.02 91.45
92.0(30) 0.1111 87.00 91.86
96.0(30) 0.1111 86.98 92.47
90.0(30) 0.1111 86.96 93.45
92.0(30) 0.1111 86.94 95.28
101.0(30) 0.1111 86.92 98.93
107.0(30) 0.1111 86.90 106.97
123(4) 0.0625 86.9 122.8
150(4) 0.0625 86.9 150.4
186(4) 0.0625 86.8 191.6
225(5) 0.0400 86.8 242.6
274(5) 0.0400 86.8 291.7
318(6) 0.02778 86.8 321.3
331(6) 0.02778 86.8 316.7
296(5) 0.0400 86.7 280.2
238(5) 0.0400 86.7 228.8
187(4) 0.0625 86.7 179.3
149(4) 0.0625 86.7 141.3
118(4) 0.0625 86.7 117.0
102.0(30) 0.1111 86.64 103.51
95.0(30) 0.1111 86.62 96.80
96.0(30) 0.1111 86.60 93.59
93.0(30) 0.1111 86.58 91.96
92.0(30) 0.1111 86.56 90.99
94.0(30) 0.1111 86.55 90.31
89.0(30) 0.1111 86.53 89.79
92.0(30) 0.1111 86.51 89.38
89.0(30) 0.1111 86.49 89.04
90.0(30) 0.1111 86.47 88.75
87.0(30) 0.1111 86.45 88.51
92.0(30) 0.1111 86.43 88.30
97.0(30) 0.1111 86.41 88.12
91.0(30) 0.1111 86.39 87.97
88.0(30) 0.1111 86.37 87.83
89.0(30) 0.1111 86.35 87.71
91.0(30) 0.1111 86.33 87.60
86.0(30) 0.1111 86.31 87.50
84.0(30) 0.1111 86.30 87.41
80.0(30) 0.1111 86.28 87.34
84.0(30) 0.1111 86.26 87.27
86.0(30) 0.1111 86.24 87.20
89.0(30) 0.1111 86.22 87.15
87.0(30) 0.1111 86.20 87.11
90.0(30) 0.1111 86.18 87.10
90.0(30) 0.1111 86.16 87.13
87.0(30) 0.1111 86.14 87.24
91.0(30) 0.1111 86.12 87.45
91.0(30) 0.1111 86.11 87.75
93.0(30) 0.1111 86.09 88.09
92.0(30) 0.1111 86.07 88.35
90.0(30) 0.1111 86.05 88.40
88.0(30) 0.1111 86.03 88.20
88.0(30) 0.1111 86.01 87.82
88.0(30) 0.1111 85.99 87.41
92.0(30) 0.1111 85.97 87.07
97.0(30) 0.1111 85.96 86.82
92.0(30) 0.1111 85.94 86.67
88.0(30) 0.1111 85.92 86.58
90.0(30) 0.1111 85.90 86.53
92.0(30) 0.1111 85.88 86.50
86.0(30) 0.1111 85.86 86.47
87.0(30) 0.1111 85.84 86.46
91.0(30) 0.1111 85.83 86.44
92.0(30) 0.1111 85.81 86.43
90.0(30) 0.1111 85.79 86.42
88.0(30) 0.1111 85.77 86.42
87.0(30) 0.1111 85.75 86.42
91.0(30) 0.1111 85.73 86.42
93.0(30) 0.1111 85.72 86.44
85.0(30) 0.1111 85.70 86.46
90.0(30) 0.1111 85.68 86.48
87.0(30) 0.1111 85.66 86.52
89.0(30) 0.1111 85.64 86.57
90.0(30) 0.1111 85.62 86.64
88.0(30) 0.1111 85.61 86.73
87.0(30) 0.1111 85.59 86.85
83(4) 0.0625 85.6 87.0
85.0(30) 0.1111 85.55 87.25
94.0(30) 0.1111 85.53 87.68
91.0(30) 0.1111 85.52 88.52
85.0(30) 0.1111 85.50 90.29
96.0(30) 0.1111 85.48 93.90
104(4) 0.0625 85.5 100.5
112(4) 0.0625 85.4 110.9
121(4) 0.0625 85.4 124.6
131(4) 0.0625 85.4 139.2
147(4) 0.0625 85.4 149.7
155(4) 0.0625 85.4 151.4
146(4) 0.0625 85.4 143.1
133(4) 0.0625 85.3 129.2
118(4) 0.0625 85.3 114.7
104(4) 0.0625 85.3 103.1
96(4) 0.0625 85.3 95.4
95.0(30) 0.1111 85.27 90.92
93.0(30) 0.1111 85.25 88.67
90.0(30) 0.1111 85.23 87.58
91.0(30) 0.1111 85.21 87.04
88.0(30) 0.1111 85.20 86.73
92.0(30) 0.1111 85.18 86.52
90.0(30) 0.1111 85.16 86.37
83.0(30) 0.1111 85.14 86.25
87.0(30) 0.1111 85.13 86.15
89.0(30) 0.1111 85.11 86.08
87(4) 0.0625 85.1 86.0
88.0(30) 0.1111 85.07 85.98
92.0(30) 0.1111 85.06 85.95
87.0(30) 0.1111 85.04 85.93
86.0(30) 0.1111 85.02 85.93
90.0(30) 0.1111 85.00 85.94
83.0(30) 0.1111 84.99 85.96
85(4) 0.0625 85.0 86.0
87.0(30) 0.1111 84.95 86.08
86.0(30) 0.1111 84.93 86.19
93.0(30) 0.1111 84.92 86.35
92.0(30) 0.1111 84.90 86.62
85.0(30) 0.1111 84.88 87.16
89.0(30) 0.1111 84.87 88.28
94(4) 0.0625 84.8 90.6
94.0(30) 0.1111 84.83 95.11
106(4) 0.0625 84.8 102.6
113(4) 0.0625 84.8 113.0
125(4) 0.0625 84.8 125.0
136(4) 0.0625 84.8 135.0
145(4) 0.0625 84.7 138.8
140(4) 0.0625 84.7 134.3
132(4) 0.0625 84.7 123.7
119(4) 0.0625 84.7 111.7
105(4) 0.0625 84.7 101.5
97(4) 0.0625 84.7 94.3
92(4) 0.0625 84.6 90.0
92.0(30) 0.1111 84.63 87.82
89.0(30) 0.1111 84.61 86.74
90.0(30) 0.1111 84.59 86.21
88.0(30) 0.1111 84.58 85.92
91.0(30) 0.1111 84.56 85.73
87.0(30) 0.1111 84.54 85.59
85(4) 0.0625 84.5 85.5
81(4) 0.0625 84.5 85.4
82.0(30) 0.1111 84.49 85.33
85.0(30) 0.1111 84.48 85.29
81.0(30) 0.0 84.46 .
93.0(30) 0.0 84.44 .
95.0(30) 0.0 84.43 .
95.0(30) 0.0 84.41 .
92.0(30) 0.0 84.40 .
101.0(30) 0.0 84.38 .
102(4) 0.0 84.4 .
101(4) 0.0 84.3 .
107.0(30) 0.0 84.33 .
107(4) 0.0 84.3 .
105(4) 0.0 84.3 .
99.0(30) 0.0 84.28 .
96.0(30) 0.0 84.26 .
92.0(30) 0.1111 84.25 90.40
97.0(30) 0.1111 84.23 95.24
109(4) 0.0625 84.2 103.1
113(4) 0.0625 84.2 113.8
121(4) 0.0625 84.2 125.5
127(4) 0.0625 84.2 134.6
136(4) 0.0625 84.2 136.7
137(4) 0.0625 84.1 130.8
126(4) 0.0625 84.1 119.8
110(4) 0.0625 84.1 108.2
98(4) 0.0625 84.1 98.7
92.0(30) 0.1111 84.07 92.30
86(4) 0.0625 84.1 88.6
85.0(30) 0.1111 84.04 86.75
84.0(30) 0.1111 84.02 85.84
84.0(30) 0.1111 84.01 85.38
89.0(30) 0.1111 83.99 85.10
86.0(30) 0.1111 83.98 84.92
83.0(30) 0.1111 83.96 84.77
87.0(30) 0.1111 83.94 84.66
87.0(30) 0.1111 83.93 84.56
83.0(30) 0.1111 83.91 84.48
85.0(30) 0.1111 83.90 84.41
86.0(30) 0.1111 83.88 84.34
87.0(30) 0.1111 83.87 84.29
84.0(30) 0.1111 83.85 84.24
86.0(30) 0.1111 83.83 84.20
86.0(30) 0.1111 83.82 84.16
83.0(30) 0.1111 83.80 84.12
80.0(30) 0.1111 83.79 84.08
83.0(30) 0.1111 83.77 84.05
85.0(30) 0.1111 83.76 84.02
87.0(30) 0.1111 83.74 83.99
85.0(30) 0.1111 83.73 83.97
89.0(30) 0.1111 83.71 83.94
88.0(30) 0.1111 83.69 83.91
87.0(30) 0.1111 83.68 83.89
84.0(30) 0.1111 83.66 83.87
85.0(30) 0.1111 83.65 83.85
80.0(30) 0.1111 83.63 83.83
81.0(30) 0.1111 83.62 83.81
84.0(30) 0.1111 83.60 83.79
85.0(30) 0.1111 83.59 83.77
84.0(30) 0.1111 83.57 83.75
86.0(30) 0.1111 83.56 83.73
86.0(30) 0.1111 83.54 83.71
85.0(30) 0.1111 83.53 83.70
83.0(30) 0.1111 83.51 83.68
82.0(30) 0.1111 83.50 83.66
79.0(30) 0.1111 83.48 83.65
84.0(30) 0.1111 83.47 83.63
78.0(30) 0.1111 83.45 83.62
80.0(30) 0.1111 83.44 83.61
86.0(30) 0.1111 83.42 83.59
86.0(30) 0.1111 83.41 83.58
84.0(30) 0.1111 83.39 83.57
90.0(30) 0.1111 83.38 83.56
82.0(30) 0.1111 83.36 83.55
86.0(30) 0.1111 83.35 83.54
87.0(30) 0.1111 83.33 83.53
81.0(30) 0.1111 83.32 83.52
86.0(30) 0.1111 83.30 83.51
87.0(30) 0.1111 83.29 83.51
85.0(30) 0.1111 83.27 83.51
84.0(30) 0.1111 83.26 83.51
82.0(30) 0.1111 83.24 83.52
85.0(30) 0.1111 83.23 83.53
85.0(30) 0.1111 83.21 83.56
83.0(30) 0.1111 83.20 83.62
84.0(30) 0.1111 83.18 83.74
87.0(30) 0.1111 83.17 84.00
88.0(30) 0.1111 83.16 84.54
85.0(30) 0.1111 83.14 85.46
88.0(30) 0.1111 83.13 86.83
87.0(30) 0.1111 83.11 88.49
92.0(30) 0.1111 83.10 89.99
90.0(30) 0.1111 83.08 90.72
92.0(30) 0.1111 83.07 90.27
90.0(30) 0.1111 83.05 88.88
89.0(30) 0.1111 83.04 87.20
91.0(30) 0.1111 83.03 85.72
88.0(30) 0.1111 83.01 84.67
83.0(30) 0.1111 83.00 84.04
84.0(30) 0.1111 82.98 83.71
78.0(30) 0.1111 82.97 83.56
78.0(30) 0.1111 82.95 83.49
81.0(30) 0.1111 82.94 83.45
85.0(30) 0.1111 82.93 83.43
83.0(30) 0.1111 82.91 83.43
85.0(30) 0.1111 82.90 83.43
86.0(30) 0.1111 82.88 83.44
85.0(30) 0.1111 82.87 83.45
84.0(30) 0.1111 82.86 83.48
88.0(30) 0.1111 82.84 83.51
87.0(30) 0.1111 82.83 83.56
78.0(30) 0.1111 82.81 83.61
80.0(30) 0.1111 82.80 83.69
81.0(30) 0.1111 82.79 83.79
81.0(30) 0.1111 82.77 83.90
80.0(30) 0.1111 82.76 84.06
82.0(30) 0.1111 82.75 84.26
82.0(30) 0.1111 82.73 84.55
83.0(30) 0.1111 82.72 85.00
83.0(30) 0.1111 82.70 85.86
86.0(30) 0.1111 82.69 87.65
85.0(30) 0.1111 82.68 91.37
93.0(30) 0.1111 82.66 98.45
106(4) 0.0625 82.6 110.2
125(4) 0.0625 82.6 126.5
139(4) 0.0625 82.6 144.6
146(4) 0.0625 82.6 159.0
156(4) 0.0625 82.6 162.7
159(4) 0.0625 82.6 153.5
142(4) 0.0625 82.6 136.6
123(4) 0.0625 82.6 118.7
105(4) 0.0625 82.5 104.3
96.0(30) 0.1111 82.53 94.69
86.0(30) 0.1111 82.52 89.28
86.0(30) 0.1111 82.50 86.56
81.0(30) 0.1111 82.49 85.27
78.0(30) 0.1111 82.48 84.62
76.0(30) 0.1111 82.46 84.24
81.0(30) 0.1111 82.45 83.99
87.0(30) 0.1111 82.44 83.80
89.0(30) 0.1111 82.42 83.66
86.0(30) 0.1111 82.41 83.55
86.0(30) 0.1111 82.40 83.46
81.0(30) 0.1111 82.38 83.40
80.0(30) 0.1111 82.37 83.35
84.0(30) 0.1111 82.36 83.33
84.0(30) 0.1111 82.35 83.32
89.0(30) 0.1111 82.33 83.33
83.0(30) 0.1111 82.32 83.36
81.0(30) 0.1111 82.31 83.41
84.0(30) 0.1111 82.30 83.49
82.0(30) 0.1111 82.28 83.62
85.0(30) 0.1111 82.27 83.83
85.0(30) 0.1111 82.26 84.22
84.0(30) 0.1111 82.24 85.04
83.0(30) 0.1111 82.23 86.80
85.0(30) 0.1111 82.22 90.31
93.0(30) 0.1111 82.21 96.49
104.0(30) 0.1111 82.19 105.71
111(4) 0.0625 82.2 117.0
119(4) 0.0625 82.2 127.3
131(4) 0.0625 82.2 132.3
132(4) 0.0625 82.1 129.2
124(4) 0.0625 82.1 119.7
116(4) 0.0625 82.1 108.3
106(4) 0.0625 82.1 98.4
93.0(30) 0.1111 82.10 91.40
88.0(30) 0.1111 82.08 87.25
84.0(30) 0.1111 82.07 85.10
81.0(30) 0.1111 82.06 84.06
88.0(30) 0.1111 82.05 83.55
85.0(30) 0.1111 82.04 83.26
81.0(30) 0.1111 82.02 83.06
77.0(30) 0.1111 82.01 82.92
79.0(30) 0.1111 82.00 82.80
84.0(30) 0.1111 81.99 82.71
81.0(30) 0.1111 81.98 82.64
80.0(30) 0.1111 81.97 82.57
83.0(30) 0.1111 81.95 82.52
81.0(30) 0.1111 81.94 82.48
79.0(30) 0.1111 81.93 82.44
80.0(30) 0.1111 81.92 82.41
81.0(30) 0.1111 81.91 82.38
80.0(30) 0.1111 81.90 82.37
81.0(30) 0.1111 81.88 82.36
84.0(30) 0.1111 81.87 82.35
86.0(30) 0.1111 81.86 82.37
84.0(30) 0.1111 81.85 82.41
85.0(30) 0.1111 81.84 82.51
79.0(30) 0.1111 81.83 82.75
77.0(30) 0.1111 81.82 83.24
86.0(30) 0.1111 81.81 84.13
83.0(30) 0.1111 81.79 85.49
83.0(30) 0.1111 81.78 87.17
83.0(30) 0.1111 81.77 88.78
86.0(30) 0.1111 81.76 89.63
86.0(30) 0.1111 81.75 89.25
84.0(30) 0.1111 81.74 87.86
86.0(30) 0.1111 81.73 86.11
83.0(30) 0.1111 81.72 84.55
85.0(30) 0.1111 81.71 83.43
82.0(30) 0.1111 81.70 82.76
79.0(30) 0.1111 81.69 82.39
79.0(30) 0.1111 81.67 82.21
84.0(30) 0.1111 81.66 82.12
83.0(30) 0.1111 81.65 82.07
84.0(30) 0.1111 81.64 82.03
86.0(30) 0.1111 81.63 82.00
87.0(30) 0.1111 81.62 81.97
85.0(30) 0.1111 81.61 81.95
82.0(30) 0.1111 81.60 81.94
81.0(30) 0.1111 81.59 81.92
82.0(30) 0.1111 81.58 81.91
84.0(30) 0.1111 81.57 81.90
84.0(30) 0.1111 81.56 81.89
86.0(30) 0.1111 81.55 81.88
81.0(30) 0.1111 81.54 81.87
82.0(30) 0.1111 81.53 81.87
80.0(30) 0.1111 81.52 81.86
81.0(30) 0.1111 81.51 81.86
83.0(30) 0.1111 81.50 81.86
82.0(30) 0.1111 81.49 81.86
80.0(30) 0.1111 81.48 81.86
78.0(30) 0.1111 81.47 81.86
83.0(30) 0.1111 81.46 81.86
84.0(30) 0.1111 81.45 81.87
80.0(30) 0.1111 81.44 81.87
82.0(30) 0.1111 81.43 81.88
82.0(30) 0.1111 81.42 81.89
79.0(30) 0.1111 81.41 81.90
82.0(30) 0.1111 81.41 81.92
83.0(30) 0.1111 81.40 81.93
78.0(30) 0.1111 81.39 81.95
81.0(30) 0.1111 81.38 81.98
79.0(30) 0.1111 81.37 82.00
77.0(30) 0.1111 81.36 82.03
87.0(30) 0.1111 81.35 82.07
82.0(30) 0.1111 81.34 82.11
87.0(30) 0.1111 81.33 82.16
77.0(30) 0.1111 81.32 82.21
81.0(30) 0.1111 81.31 82.27
87.0(30) 0.1111 81.31 82.35
85.0(30) 0.1111 81.30 82.43
82.0(30) 0.1111 81.29 82.53
77.0(30) 0.1111 81.28 82.65
78.0(30) 0.1111 81.27 82.79
81.0(30) 0.1111 81.26 82.95
82.0(30) 0.1111 81.25 83.15
81.0(30) 0.1111 81.25 83.39
80.0(30) 0.1111 81.24 83.68
85.0(30) 0.1111 81.23 84.04
87.0(30) 0.1111 81.22 84.49
83.0(30) 0.1111 81.21 85.08
87.0(30) 0.1111 81.21 85.89
93.0(30) 0.1111 81.20 87.13
86.0(30) 0.1111 81.19 89.38
92.0(30) 0.1111 81.18 94.00
100.0(30) 0.1111 81.17 103.58
114(4) 0.0625 81.2 121.9
140(4) 0.0625 81.2 152.3
179(4) 0.0625 81.2 194.9
237(5) 0.0400 81.1 242.5
271(5) 0.0400 81.1 279.9
291(5) 0.0400 81.1 288.6
279(5) 0.0400 81.1 263.1
232(5) 0.0400 81.1 218.0
181(4) 0.0625 81.1 171.8
136(4) 0.0625 81.1 135.1
116(4) 0.0625 81.1 111.2
101.0(30) 0.1111 81.08 97.89
91.0(30) 0.1111 81.08 91.28
90.0(30) 0.1111 81.07 88.11
86.0(30) 0.1111 81.06 86.47
81.0(30) 0.1111 81.06 85.49
78.0(30) 0.1111 81.05 84.80
82.0(30) 0.1111 81.04 84.28
83.0(30) 0.1111 81.04 83.87
80.0(30) 0.1111 81.03 83.53
79.0(30) 0.1111 81.02 83.26
81.0(30) 0.1111 81.02 83.03
83.0(30) 0.1111 81.01 82.85
79.0(30) 0.1111 81.01 82.69
81.0(30) 0.1111 81.00 82.56
85.0(30) 0.1111 80.99 82.45
78.0(30) 0.1111 80.99 82.36
80.0(30) 0.1111 80.98 82.28
80.0(30) 0.1111 80.97 82.22
80.0(30) 0.1111 80.97 82.18
76.0(30) 0.1111 80.96 82.17
78.0(30) 0.1111 80.96 82.21
80.0(30) 0.1111 80.95 82.35
82.0(30) 0.1111 80.95 82.69
81.0(30) 0.1111 80.94 83.34
85.0(30) 0.1111 80.94 84.37
89.0(30) 0.1111 80.93 85.69
88.0(30) 0.1111 80.92 86.97
79.0(30) 0.1111 80.92 87.67
91.0(30) 0.1111 80.91 87.38
93.0(30) 0.1111 80.91 86.26
91.0(30) 0.1111 80.90 84.91
85.0(30) 0.1111 80.90 83.67
84.0(30) 0.1111 80.89 82.77
81.0(30) 0.1111 80.89 82.24
79.0(30) 0.1111 80.88 81.95
83.0(30) 0.1111 80.88 81.81
78.0(30) 0.1111 80.88 81.73
83.0(30) 0.1111 80.87 81.69
83.0(30) 0.1111 80.87 81.65
86.0(30) 0.1111 80.86 81.63
86.0(30) 0.1111 80.86 81.61
81.0(30) 0.1111 80.85 81.59
78.0(30) 0.1111 80.85 81.58
76.0(30) 0.1111 80.85 81.57
84.0(30) 0.1111 80.84 81.56
85.0(30) 0.1111 80.84 81.55
80.0(30) 0.1111 80.83 81.55
82.0(30) 0.1111 80.83 81.54
86.0(30) 0.1111 80.83 81.54
84.0(30) 0.1111 80.82 81.54
79.0(30) 0.1111 80.82 81.54
90.0(30) 0.1111 80.82 81.54
88.0(30) 0.1111 80.81 81.54
84.0(30) 0.1111 80.81 81.55
79.0(30) 0.1111 80.81 81.55
77.0(30) 0.1111 80.80 81.56
76.0(30) 0.1111 80.80 81.56
83.0(30) 0.1111 80.80 81.57
82.0(30) 0.1111 80.79 81.58
77.0(30) 0.1111 80.79 81.59
85.0(30) 0.1111 80.79 81.60
84.0(30) 0.1111 80.79 81.61
83.0(30) 0.1111 80.78 81.63
81.0(30) 0.1111 80.78 81.72
82.0(30) 0.1111 80.78 81.74
85.0(30) 0.1111 80.78 81.76
86.0(30) 0.1111 80.77 81.78
80.0(30) 0.1111 80.77 81.80
80.0(30) 0.1111 80.77 81.83
81.0(30) 0.1111 80.77 81.86
84.0(30) 0.1111 80.77 81.89
87.0(30) 0.1111 80.76 81.93
87.0(30) 0.1111 80.76 81.97
85.0(30) 0.1111 80.76 82.02
84.0(30) 0.1111 80.76 82.07
84.0(30) 0.1111 80.76 82.13
83.0(30) 0.1111 80.76 82.19
82.0(30) 0.1111 80.75 82.27
78.0(30) 0.1111 80.75 82.35
82.0(30) 0.1111 80.75 82.46
81.0(30) 0.1111 80.75 82.58
86.0(30) 0.1111 80.75 82.72
83.0(30) 0.1111 80.75 82.90
81.0(30) 0.1111 80.75 83.13
84.0(30) 0.1111 80.75 83.42
84.0(30) 0.1111 80.75 83.84
87.0(30) 0.1111 80.75 84.57
90.0(30) 0.1111 80.75 86.00
95.0(30) 0.1111 80.75 88.96
95.0(30) 0.1111 80.75 94.74
112(4) 0.0625 80.7 104.7
118(4) 0.0625 80.7 119.2
137(4) 0.0625 80.7 136.2
152(4) 0.0625 80.7 150.8
165(4) 0.0625 80.7 155.8
152(4) 0.0625 80.7 148.3
135(4) 0.0625 80.7 132.8
123(4) 0.0625 80.7 116.0
110.0(30) 0.1111 80.75 102.49
90.0(30) 0.1111 80.75 93.57
86.0(30) 0.1111 80.75 88.58
89.0(30) 0.1111 80.75 86.12
90.0(30) 0.1111 80.75 84.97
91.0(30) 0.1111 80.75 84.41
86.0(30) 0.1111 80.75 84.10
86.0(30) 0.1111 80.75 83.91
83.0(30) 0.1111 80.75 83.78
88.0(30) 0.1111 80.76 83.70
90.0(30) 0.1111 80.76 83.65
82.0(30) 0.1111 80.76 83.62
84.0(30) 0.1111 80.76 83.62
85.0(30) 0.1111 80.76 83.63
84.0(30) 0.1111 80.76 83.67
79.0(30) 0.1111 80.77 83.71
85.0(30) 0.1111 80.77 83.77
89.0(30) 0.1111 80.77 83.84
83.0(30) 0.1111 80.77 83.93
83.0(30) 0.1111 80.77 84.02
86.0(30) 0.1111 80.78 84.13
83.0(30) 0.1111 80.78 84.26
87.0(30) 0.1111 80.78 84.41
84.0(30) 0.1111 80.78 84.59
80.0(30) 0.1111 80.79 84.82
86.0(30) 0.1111 80.79 85.14
90.0(30) 0.1111 80.79 85.54
88.0(30) 0.1111 80.80 86.01
91.0(30) 0.1111 80.80 86.48
87.0(30) 0.1111 80.80 86.85
85.0(30) 0.1111 80.80 87.03
85.0(30) 0.1111 80.81 87.09
84.0(30) 0.1111 80.81 87.32
77.0(30) 0.1111 80.81 87.45
90.0(30) 0.1111 80.82 87.69
91.0(30) 0.1111 80.82 88.04
100.0(30) 0.1111 80.83 88.48
96.0(30) 0.1111 80.83 89.01
93.0(30) 0.1111 80.83 89.61
89.0(30) 0.1111 80.84 90.29
91.0(30) 0.1111 80.84 91.07
94.0(30) 0.1111 80.85 91.96
88.0(30) 0.1111 80.85 92.98
89.0(30) 0.1111 80.86 94.16
90.0(30) 0.1111 80.86 95.52
93.0(30) 0.1111 80.86 97.12
95.0(30) 0.1111 80.87 99.00
98(4) 0.0625 80.9 101.3
95.0(30) 0.1111 80.88 103.96
99(4) 0.0625 80.9 107.3
104.0(30) 0.1111 80.89 111.34
110(4) 0.0625 80.9 116.5
113(4) 0.0625 80.9 123.2
116(4) 0.0625 80.9 132.7
130(4) 0.0625 80.9 148.1
164(4) 0.0625 80.9 177.2
233(5) 0.0400 80.9 237.0
353(6) 0.02778 80.9 357.2
532(7) 0.02041 80.9 574.4
874(9) 0.01235 80.9 910.6
1297(11) 0.00826 80.9 1339.7
1743(13) 0.00592 81.0 1760.2
2006(14) 0.00510 81.0 1998.4
1986(14) 0.00510 81.0 1913.4
1611(13) 0.00592 81.0 1559.6
1117(11) 0.00826 81.0 1117.1
707(9) 0.01235 81.0 727.4
447(7) 0.02041 81.0 451.9
305(6) 0.02778 81.0 288.1
227(5) 0.0400 81.0 203.0
178(4) 0.0625 81.0 161.7
158(4) 0.0625 81.0 141.2
143(4) 0.0625 81.0 129.7
130(4) 0.0625 81.0 122.1
127(4) 0.0625 81.0 116.6
120(4) 0.0625 81.0 112.4
111.0(30) 0.1111 81.06 109.20
110.0(30) 0.1111 81.06 106.69
104(4) 0.0625 81.1 104.8
98.0(30) 0.1111 81.08 103.35
91.0(30) 0.1111 81.09 102.36
92(4) 0.0625 81.1 101.8
97.0(30) 0.1111 81.10 101.53
96(4) 0.0625 81.1 101.7
95(4) 0.0625 81.1 102.3
99.0(30) 0.1111 81.13 103.54
105.0(30) 0.1111 81.14 105.61
106.0(30) 0.1111 81.15 109.34
119(4) 0.0625 81.2 116.8
133(4) 0.0625 81.2 132.6
165(4) 0.0625 81.2 165.0
221(5) 0.0400 81.2 225.2
315(6) 0.02778 81.2 320.8
436(7) 0.02041 81.2 447.0
578(8) 0.01563 81.2 576.5
665(8) 0.01563 81.2 659.2
670(8) 0.01563 81.2 647.5
569(8) 0.01563 81.2 548.9
410(6) 0.02778 81.2 416.2
292(5) 0.0400 81.3 295.2
209(5) 0.0400 81.3 207.5
167(4) 0.0625 81.3 154.3
136(4) 0.0625 81.3 126.2
115(4) 0.0625 81.3 112.6
116(4) 0.0625 81.3 105.9
111.0(30) 0.1111 81.32 102.25
102.0(30) 0.1111 81.33 99.99
102.0(30) 0.1111 81.34 98.44
97.0(30) 0.1111 81.35 97.37
97.0(30) 0.1111 81.36 96.65
90.0(30) 0.1111 81.37 96.23
95.0(30) 0.1111 81.38 96.08
97.0(30) 0.1111 81.39 96.17
96.0(30) 0.1111 81.40 96.52
93.0(30) 0.1111 81.41 97.13
91.0(30) 0.1111 81.43 98.06
100.0(30) 0.1111 81.44 99.36
97.0(30) 0.1111 81.45 101.12
98.0(30) 0.1111 81.46 103.54
99(4) 0.0625 81.5 107.0
107(4) 0.0625 81.5 112.4
126(4) 0.0625 81.5 122.5
144(4) 0.0625 81.5 143.0
194(4) 0.0625 81.5 185.2
262(5) 0.0400 81.5 264.7
392(6) 0.02778 81.5 394.5
569(8) 0.01563 81.6 571.5
745(9) 0.01235 81.6 761.8
893(9) 0.01235 81.6 897.0
897(10) 0.01000 81.6 902.4
759(9) 0.01235 81.6 774.4
563(8) 0.01563 81.6 585.3
383(6) 0.02778 81.6 405.7
257(5) 0.0400 81.6 271.9
182(5) 0.0400 81.7 188.9
159(4) 0.0625 81.7 144.4
135(4) 0.0625 81.7 122.6
128(4) 0.0625 81.7 112.0
118.0(30) 0.1111 81.71 106.12
112.0(30) 0.1111 81.72 102.39
103.0(30) 0.1111 81.73 99.71
103.0(30) 0.1111 81.75 97.66
103.0(30) 0.1111 81.76 96.05
93.0(30) 0.1111 81.78 94.78
93.0(30) 0.1111 81.79 93.77
98.0(30) 0.1111 81.80 92.96
93.0(30) 0.1111 81.82 92.32
91.0(30) 0.1111 81.83 91.82
94.0(30) 0.1111 81.84 91.45
92.0(30) 0.1111 81.86 91.20
88.0(30) 0.1111 81.87 91.05
91.0(30) 0.1111 81.89 91.02
95.0(30) 0.1111 81.90 91.13
94.0(30) 0.1111 81.92 91.44
94(4) 0.0625 81.9 92.2
102.0(30) 0.1111 81.95 93.76
98(4) 0.0625 82.0 97.2
104(4) 0.0625 82.0 103.8
114(4) 0.0625 82.0 115.0
131(4) 0.0625 82.0 130.9
148(4) 0.0625 82.0 148.9
159(4) 0.0625 82.0 163.2
163(4) 0.0625 82.0 166.4
160(4) 0.0625 82.1 156.6
137(4) 0.0625 82.1 139.7
119(4) 0.0625 82.1 122.6
106(4) 0.0625 82.1 109.5
103.0(30) 0.1111 82.13 101.33
96(4) 0.0625 82.1 97.0
92.0(30) 0.1111 82.16 95.13
88.0(30) 0.1111 82.17 94.51
92.0(30) 0.1111 82.19 94.50
93.0(30) 0.1111 82.20 94.80
91.0(30) 0.1111 82.22 95.32
90.0(30) 0.1111 82.24 96.02
89.0(30) 0.1111 82.25 96.91
88.0(30) 0.1111 82.27 98.01
95.0(30) 0.1111 82.29 99.34
97.0(30) 0.1111 82.30 100.95
99.0(30) 0.1111 82.32 102.90
98.0(30) 0.1111 82.33 105.27
105(4) 0.0625 82.4 108.2
106(4) 0.0625 82.4 111.7
107.0(30) 0.1111 82.38 116.21
114(4) 0.0625 82.4 121.9
116(4) 0.0625 82.4 129.5
126(4) 0.0625 82.4 140.5
151(4) 0.0625 82.5 158.9
197(5) 0.0400 82.5 194.3
286(5) 0.0400 82.5 266.6
440(7) 0.02041 82.5 407.5
692(8) 0.01563 82.5 652.0
1066(10) 0.01000 82.5 1012.8
1503(12) 0.00694 82.6 1447.6
1839(14) 0.00510 82.6 1835.0
2010(14) 0.00510 82.6 1993.5
1791(13) 0.00592 82.6 1822.7
1372(12) 0.00694 82.6 1430.1
916(10) 0.01000 82.6 996.5
584(8) 0.01563 82.7 639.9
385(6) 0.02778 82.7 400.1
280(5) 0.0400 82.7 262.6
222(5) 0.0400 82.7 192.3
179(4) 0.0625 82.7 157.8
154(4) 0.0625 82.7 139.8
140(4) 0.0625 82.8 129.0
133(4) 0.0625 82.8 121.4
125(4) 0.0625 82.8 115.8
127(4) 0.0625 82.8 111.3
118(4) 0.0625 82.8 107.7
111(4) 0.0625 82.9 104.8
104.0(30) 0.1111 82.88 102.34
102.0(30) 0.1111 82.89 100.32
96(4) 0.0625 82.9 98.6
89.0(30) 0.1111 82.93 97.19
96.0(30) 0.1111 82.95 95.95
93.0(30) 0.1111 82.97 94.89
91.0(30) 0.1111 82.99 93.98
92.0(30) 0.1111 83.00 93.18
99.0(30) 0.1111 83.02 92.48
96.0(30) 0.1111 83.04 91.87
93.0(30) 0.1111 83.06 91.33
99.0(30) 0.1111 83.08 90.86
92.0(30) 0.1111 83.10 90.44
93.0(30) 0.1111 83.12 90.07
91.0(30) 0.1111 83.14 89.74
94.0(30) 0.1111 83.16 89.45
85.0(30) 0.1111 83.18 89.20
82.0(30) 0.1111 83.19 88.97
88.0(30) 0.1111 83.21 88.77
87.0(30) 0.1111 83.23 88.60
85.0(30) 0.1111 83.25 88.45
82.0(30) 0.1111 83.27 88.33
84.0(30) 0.1111 83.29 88.22
89.0(30) 0.1111 83.31 88.14
87.0(30) 0.1111 83.33 88.08
88(4) 0.0625 83.3 88.0
86.0(30) 0.1111 83.37 88.02
82.0(30) 0.1111 83.39 88.02
89.0(30) 0.1111 83.41 88.05
81.0(30) 0.1111 83.43 88.10
85.0(30) 0.1111 83.45 88.17
89.0(30) 0.1111 83.47 88.28
84.0(30) 0.1111 83.49 88.43
86.0(30) 0.1111 83.51 88.61
88.0(30) 0.1111 83.53 88.85
89.0(30) 0.1111 83.55 89.14
86.0(30) 0.1111 83.57 89.51
89.0(30) 0.1111 83.59 89.98
91.0(30) 0.1111 83.61 90.56
89(4) 0.0625 83.6 91.3
84.0(30) 0.1111 83.65 92.26
93.0(30) 0.1111 83.67 93.56
96.0(30) 0.1111 83.69 95.50
101.0(30) 0.1111 83.71 98.81
103(4) 0.0625 83.7 105.3
119(4) 0.0625 83.7 118.5
150(4) 0.0625 83.8 143.7
195(5) 0.0400 83.8 186.3
256(5) 0.0400 83.8 247.3
325(6) 0.02778 83.8 317.8
385(6) 0.02778 83.8 376.1
391(6) 0.02778 83.9 392.7
360(6) 0.02778 83.9 356.9
280(5) 0.0400 83.9 290.6
206(5) 0.0400 83.9 222.0
158(4) 0.0625 83.9 167.7
127(4) 0.0625 84.0 132.3
113(4) 0.0625 84.0 112.5
104(4) 0.0625 84.0 102.5
101(4) 0.0625 84.0 97.6
98(4) 0.0625 84.0 95.0
97.0(30) 0.1111 84.07 93.43
96.0(30) 0.1111 84.09 92.35
97.0(30) 0.1111 84.11 91.56
93.0(30) 0.1111 84.13 90.97
91.0(30) 0.1111 84.15 90.55
91.0(30) 0.1111 84.17 90.25
88.0(30) 0.1111 84.19 90.06
87.0(30) 0.1111 84.21 89.97
87.0(30) 0.1111 84.23 89.98
90.0(30) 0.1111 84.26 90.08
92.0(30) 0.1111 84.28 90.29
91.0(30) 0.1111 84.30 90.63
93.0(30) 0.1111 84.32 91.12
91.0(30) 0.1111 84.34 91.81
98.0(30) 0.1111 84.36 92.83
99.0(30) 0.1111 84.38 94.49
98.0(30) 0.1111 84.40 97.56
109.0(30) 0.1111 84.42 103.76
121(4) 0.0625 84.4 116.2
143(4) 0.0625 84.5 138.9
177(4) 0.0625 84.5 174.9
228(5) 0.0400 84.5 222.7
276(5) 0.0400 84.5 272.7
304(6) 0.02778 84.5 305.8
291(5) 0.0400 84.6 303.3
258(5) 0.0400 84.6 266.8
211(5) 0.0400 84.6 216.2
167(4) 0.0625 84.6 169.5
133(4) 0.0625 84.6 135.1
108(4) 0.0625 84.7 113.8
107.0(30) 0.1111 84.69 102.28
106.0(30) 0.1111 84.71 96.52
97.0(30) 0.1111 84.73 93.60
93.0(30) 0.1111 84.75 91.94
91.0(30) 0.1111 84.77 90.84
92.0(30) 0.1111 84.79 90.05
89.0(30) 0.1111 84.81 89.43
85.0(30) 0.1111 84.83 88.93
89.0(30) 0.1111 84.85 88.53
91.0(30) 0.1111 84.87 88.21
91.0(30) 0.1111 84.89 87.94
89.0(30) 0.1111 84.91 87.71
93.0(30) 0.1111 84.94 87.52
91.0(30) 0.1111 84.96 87.36
88.0(30) 0.1111 84.98 87.23
87.0(30) 0.1111 85.00 87.11
91.0(30) 0.1111 85.02 87.01
87.0(30) 0.1111 85.04 86.93
89.0(30) 0.1111 85.06 86.86
88.0(30) 0.1111 85.08 86.80
82.0(30) 0.1111 85.10 86.76
81.0(30) 0.1111 85.12 86.75
88.0(30) 0.1111 85.14 86.79
94.0(30) 0.1111 85.16 86.90
91.0(30) 0.1111 85.18 87.09
86.0(30) 0.1111 85.20 87.34
83.0(30) 0.1111 85.22 87.60
84(4) 0.0625 85.2 87.7
87.0(30) 0.1111 85.26 87.66
84.0(30) 0.1111 85.28 87.41
86.0(30) 0.1111 85.30 87.11
83.0(30) 0.1111 85.32 86.83
89.0(30) 0.1111 85.34 86.64
81.0(30) 0.1111 85.36 86.52
86.0(30) 0.1111 85.38 86.46
89.0(30) 0.1111 85.40 86.42
88.0(30) 0.1111 85.42 86.41
88.0(30) 0.1111 85.44 86.40
87.0(30) 0.1111 85.46 86.39
90.0(30) 0.1111 85.48 86.39
90.0(30) 0.1111 85.50 86.39
82.0(30) 0.1111 85.52 86.39
88.0(30) 0.1111 85.54 86.39
87.0(30) 0.1111 85.56 86.40
89.0(30) 0.1111 85.58 86.40
87.0(30) 0.1111 85.60 86.41
83.0(30) 0.1111 85.62 86.42
86.0(30) 0.1111 85.64 86.44
84.0(30) 0.1111 85.66 86.45
88.0(30) 0.1111 85.68 86.46
85.0(30) 0.1111 85.70 86.48
85.0(30) 0.1111 85.72 86.49
85.0(30) 0.1111 85.74 86.51
87.0(30) 0.1111 85.76 86.54
87.0(30) 0.1111 85.78 86.57
90.0(30) 0.1111 85.80 86.63
88.0(30) 0.1111 85.82 86.74
91(4) 0.0625 85.8 86.9
88.0(30) 0.1111 85.86 87.18
87.0(30) 0.1111 85.88 87.51
82.0(30) 0.1111 85.89 87.84
91.0(30) 0.1111 85.91 88.04
92.0(30) 0.1111 85.93 88.00
87(4) 0.0625 86.0 87.8
86.0(30) 0.1111 85.97 87.46
88.0(30) 0.1111 85.99 87.18
85.0(30) 0.1111 86.01 86.99
83.0(30) 0.1111 86.03 86.88
88.0(30) 0.1111 86.05 86.84
88.0(30) 0.1111 86.07 86.82
87.0(30) 0.1111 86.08 86.83
92.0(30) 0.1111 86.10 86.84
96.0(30) 0.1111 86.12 86.86
92.0(30) 0.1111 86.14 86.89
97.0(30) 0.1111 86.16 86.91
90.0(30) 0.1111 86.18 86.94
94.0(30) 0.1111 86.20 86.98
88.0(30) 0.1111 86.21 87.01
91.0(30) 0.1111 86.23 87.05
87.0(30) 0.1111 86.25 87.10
89.0(30) 0.1111 86.27 87.15
90.0(30) 0.1111 86.29 87.21
91.0(30) 0.1111 86.31 87.28
88.0(30) 0.1111 86.32 87.36
82.0(30) 0.1111 86.34 87.46
84.0(30) 0.1111 86.36 87.58
88.0(30) 0.1111 86.38 87.73
86.0(30) 0.1111 86.40 87.96
87.0(30) 0.1111 86.41 88.34
83.0(30) 0.1111 86.43 89.06
91.0(30) 0.1111 86.45 90.45
91.0(30) 0.1111 86.47 92.95
99.0(30) 0.1111 86.49 96.94
105.0(30) 0.1111 86.50 102.31
106(4) 0.0625 86.5 108.1
112(4) 0.0625 86.5 112.4
109(4) 0.0625 86.6 112.8
106.0(30) 0.1111 86.57 109.13
103.0(30) 0.1111 86.59 103.49
101.0(30) 0.1111 86.61 98.01
92.0(30) 0.1111 86.62 93.82
81.0(30) 0.1111 86.64 91.14
86.0(30) 0.1111 86.66 89.66
89.0(30) 0.1111 86.68 88.93
90.0(30) 0.1111 86.69 88.58
87.0(30) 0.1111 86.71 88.41
87.0(30) 0.1111 86.73 88.33
94.0(30) 0.1111 86.74 88.29
90.0(30) 0.1111 86.76 88.28
89.0(30) 0.1111 86.78 88.30
87.0(30) 0.1111 86.79 88.34
88.0(30) 0.1111 86.81 88.40
84.0(30) 0.1111 86.83 88.49
86.0(30) 0.1111 86.84 88.59
90.0(30) 0.1111 86.86 88.73
85.0(30) 0.1111 86.87 88.89
93.0(30) 0.1111 86.89 89.09
89.0(30) 0.1111 86.91 89.34
86.0(30) 0.1111 86.92 89.65
86.0(30) 0.1111 86.94 90.05
87.0(30) 0.1111 86.95 90.57
91.0(30) 0.1111 86.97 91.31
89.0(30) 0.1111 86.99 92.50
96.0(30) 0.1111 87.00 94.68
104.0(30) 0.1111 87.02 98.95
108(4) 0.0625 87.0 107.0
129(4) 0.0625 87.0 120.9
143(4) 0.0625 87.1 141.4
161(4) 0.0625 87.1 166.9
185(4) 0.0625 87.1 191.0
196(5) 0.0400 87.1 203.6
194(4) 0.0625 87.1 197.1
175(4) 0.0625 87.1 175.8
143(4) 0.0625 87.2 150.0
126(4) 0.0625 87.2 127.4
108(4) 0.0625 87.2 111.3
100(4) 0.0625 87.2 101.4
96.0(30) 0.1111 87.21 96.12
91.0(30) 0.1111 87.23 93.41
95.0(30) 0.1111 87.24 92.00
92.0(30) 0.1111 87.26 91.18
86.0(30) 0.1111 87.27 90.65
90.0(30) 0.1111 87.29 90.26
89.0(30) 0.1111 87.30 89.97
88.0(30) 0.1111 87.31 89.75
88.0(30) 0.1111 87.33 89.59
85.0(30) 0.1111 87.34 89.47
85.0(30) 0.1111 87.36 89.39
90.0(30) 0.1111 87.37 89.34
87.0(30) 0.1111 87.38 89.32
88.0(30) 0.1111 87.40 89.34
87.0(30) 0.1111 87.41 89.38
86.0(30) 0.1111 87.43 89.46
90.0(30) 0.1111 87.44 89.58
90.0(30) 0.1111 87.45 89.76
85.0(30) 0.1111 87.47 90.01
87.0(30) 0.1111 87.48 90.39
94.0(30) 0.1111 87.49 91.04
96.0(30) 0.1111 87.51 92.26
93.0(30) 0.1111 87.52 94.67
96(4) 0.0625 87.5 99.2
110.0(30) 0.1111 87.54 106.84
118(4) 0.0625 87.6 118.0
132(4) 0.0625 87.6 131.4
147(4) 0.0625 87.6 143.8
158(4) 0.0625 87.6 149.6
148(4) 0.0625 87.6 145.4
136(4) 0.0625 87.6 133.8
126(4) 0.0625 87.6 120.3
110.0(30) 0.1111 87.65 108.58
106.0(30) 0.1111 87.66 100.30
97.0(30) 0.1111 87.67 95.27
93.0(30) 0.1111 87.68 92.54
91.0(30) 0.1111 87.69 91.13
88.0(30) 0.1111 87.71 90.39
92.0(30) 0.1111 87.72 89.95
89.0(30) 0.1111 87.73 89.66
92.0(30) 0.1111 87.74 89.44
92.0(30) 0.1111 87.75 89.27
91.0(30) 0.1111 87.76 89.14
95.0(30) 0.1111 87.78 89.03
92.0(30) 0.1111 87.79 88.95
90.0(30) 0.1111 87.80 88.88
92.0(30) 0.1111 87.81 88.82
93.0(30) 0.1111 87.82 88.77
89.0(30) 0.1111 87.83 88.74
88.0(30) 0.1111 87.84 88.70
87.0(30) 0.1111 87.85 88.68
86.0(30) 0.1111 87.87 88.66
87.0(30) 0.1111 87.88 88.65
88.0(30) 0.1111 87.89 88.63
82.0(30) 0.1111 87.90 88.63
85.0(30) 0.1111 87.91 88.62
88.0(30) 0.1111 87.92 88.62
85.0(30) 0.1111 87.93 88.62
89.0(30) 0.1111 87.94 88.62
91.0(30) 0.1111 87.95 88.63
90.0(30) 0.1111 87.96 88.63
88.0(30) 0.1111 87.97 88.64
91.0(30) 0.1111 87.98 88.65
92.0(30) 0.1111 87.99 88.67
89.0(30) 0.1111 88.00 88.68
87.0(30) 0.1111 88.01 88.70
88.0(30) 0.1111 88.02 88.72
90.0(30) 0.1111 88.03 88.74
86.0(30) 0.1111 88.04 88.77
95.0(30) 0.1111 88.05 88.80
87.0(30) 0.1111 88.06 88.83
88.0(30) 0.1111 88.07 88.86
87.0(30) 0.1111 88.08 88.90
89.0(30) 0.1111 88.09 88.94
89.0(30) 0.1111 88.10 88.98
93.0(30) 0.1111 88.11 89.03
92.0(30) 0.1111 88.12 89.09
88.0(30) 0.1111 88.13 89.16
87.0(30) 0.1111 88.13 89.23
93.0(30) 0.1111 88.14 89.31
91.0(30) 0.1111 88.15 89.41
88.0(30) 0.1111 88.16 89.52
91(4) 0.0625 88.2 89.7
89(4) 0.0625 88.2 89.8
89.0(30) 0.1111 88.19 89.99
89.0(30) 0.1111 88.20 90.21
89.0(30) 0.1111 88.20 90.48
91.0(30) 0.1111 88.21 90.81
97.0(30) 0.1111 88.22 91.23
89.0(30) 0.1111 88.23 91.78
92.0(30) 0.1111 88.24 92.59
91.0(30) 0.1111 88.25 93.92
99.0(30) 0.1111 88.25 96.34
104.0(30) 0.1111 88.26 100.94
106.0(30) 0.1111 88.27 109.27
126(4) 0.0625 88.3 122.9
135(4) 0.0625 88.3 142.3
165(4) 0.0625 88.3 165.3
186(4) 0.0625 88.3 186.3
193(5) 0.0400 88.3 196.2
188(4) 0.0625 88.3 189.3
178(4) 0.0625 88.3 169.9
150(4) 0.0625 88.3 146.7
128(4) 0.0625 88.3 126.4
115(4) 0.0625 88.3 111.6
110(4) 0.0625 88.4 102.4
101(4) 0.0625 88.4 97.2
95.0(30) 0.1111 88.37 94.42
95(4) 0.0625 88.4 93.0
89.0(30) 0.1111 88.38 92.11
93.0(30) 0.1111 88.39 91.53
94.0(30) 0.1111 88.40 91.10
95.0(30) 0.1111 88.40 90.78
91.0(30) 0.1111 88.41 90.52
88.0(30) 0.1111 88.42 90.31
91.0(30) 0.1111 88.43 90.14
90(4) 0.0625 88.4 90.0
89.0(30) 0.1111 88.44 89.88
96.0(30) 0.1111 88.45 89.79
94(4) 0.0625 88.5 89.7
88.0(30) 0.1111 88.46 89.65
87.0(30) 0.1111 88.47 89.61
87.0(30) 0.1111 88.47 89.57
92.0(30) 0.1111 88.48 89.55
91.0(30) 0.1111 88.49 89.54
93.0(30) 0.1111 88.49 89.54
91.0(30) 0.1111 88.50 89.57
96.0(30) 0.1111 88.50 89.63
89.0(30) 0.1111 88.51 89.76
90.0(30) 0.1111 88.52 90.04
90.0(30) 0.1111 88.52 90.57
93.0(30) 0.1111 88.53 91.46
95.0(30) 0.1111 88.54 92.76
97.0(30) 0.1111 88.54 94.36
101(4) 0.0625 88.5 95.9
101(4) 0.0625 88.6 96.8
91(4) 0.0625 88.6 96.5
94(4) 0.0625 88.6 95.3
94(4) 0.0625 88.6 93.7
88(4) 0.0625 88.6 92.1
93(4) 0.0625 88.6 91.0
89.0(30) 0.1111 88.59 90.28
92(4) 0.0625 88.6 89.9
90.0(30) 0.1111 88.60 89.64
88.0(30) 0.1111 88.61 89.53
86.0(30) 0.1111 88.61 89.47
94.0(30) 0.1111 88.62 89.44
91.0(30) 0.1111 88.62 89.42
89.0(30) 0.1111 88.63 89.42
88.0(30) 0.1111 88.64 89.42
90.0(30) 0.1111 88.64 89.43
87.0(30) 0.1111 88.65 89.45
85.0(30) 0.1111 88.65 89.47
86.0(30) 0.1111 88.66 89.50
90.0(30) 0.1111 88.66 89.54
89(4) 0.0625 88.7 89.6
90.0(30) 0.1111 88.68 89.65
86.0(30) 0.1111 88.68 89.73
83.0(30) 0.1111 88.69 89.82
88.0(30) 0.1111 88.69 89.93
92.0(30) 0.1111 88.70 90.07
90.0(30) 0.1111 88.70 90.25
89.0(30) 0.1111 88.71 90.50
86.0(30) 0.1111 88.71 90.87
89.0(30) 0.1111 88.72 91.48
91.0(30) 0.1111 88.72 92.62
96.0(30) 0.1111 88.73 94.73
100(4) 0.0625 88.7 98.4
103.0(30) 0.1111 88.74 104.32
113(4) 0.0625 88.7 112.4
125(4) 0.0625 88.8 121.6
132(4) 0.0625 88.8 129.7
131(4) 0.0625 88.8 133.0
127(4) 0.0625 88.8 129.8
125(4) 0.0625 88.8 121.8
119(4) 0.0625 88.8 112.6
105(4) 0.0625 88.8 104.5
98.0(30) 0.1111 88.79 98.62
94.0(30) 0.1111 88.79 94.87
91.0(30) 0.1111 88.80 92.73
92.0(30) 0.1111 88.80 91.59
92.0(30) 0.1111 88.81 90.96
90.0(30) 0.1111 88.82 90.60
89.0(30) 0.1111 88.82 90.36
87.0(30) 0.1111 88.83 90.18
87.0(30) 0.1111 88.83 90.05
90.0(30) 0.1111 88.84 89.95
91.0(30) 0.1111 88.84 89.87
89.0(30) 0.1111 88.85 89.80
89.0(30) 0.1111 88.85 89.75
90.0(30) 0.1111 88.86 89.71
87(4) 0.0625 88.9 89.7
87.0(30) 0.1111 88.87 89.65
90.0(30) 0.1111 88.88 89.64
89.0(30) 0.1111 88.88 89.63
85.0(30) 0.1111 88.89 89.63
86.0(30) 0.1111 88.89 89.63
91.0(30) 0.1111 88.90 89.65
92.0(30) 0.1111 88.90 89.67
87.0(30) 0.1111 88.91 89.71
89.0(30) 0.1111 88.91 89.76
90.0(30) 0.1111 88.92 89.87
86.0(30) 0.1111 88.93 90.06
91.0(30) 0.1111 88.93 90.41
99.0(30) 0.1111 88.94 91.05
96.0(30) 0.1111 88.94 92.07
92.0(30) 0.1111 88.95 93.54
95.0(30) 0.1111 88.96 95.31
96.0(30) 0.1111 88.96 97.01
93(4) 0.0625 89.0 98.0
96(4) 0.0625 89.0 97.8
93.0(30) 0.1111 88.98 96.47
91.0(30) 0.1111 88.99 94.70
91.0(30) 0.1111 88.99 93.01
88.0(30) 0.1111 89.00 91.71
88.0(30) 0.1111 89.00 90.83
90.0(30) 0.1111 89.01 90.31
87.0(30) 0.1111 89.02 90.03
89.0(30) 0.1111 89.02 89.88
91.0(30) 0.1111 89.03 89.79
92(4) 0.0625 89.0 89.7
94.0(30) 0.1111 89.04 89.71
94.0(30) 0.1111 89.05 89.69
87.0(30) 0.1111 89.06 89.68
86.0(30) 0.1111 89.06 89.67
90.0(30) 0.1111 89.07 89.66
87(4) 0.0625 89.1 89.7
91.0(30) 0.1111 89.08 89.66
87.0(30) 0.1111 89.09 89.67
85.0(30) 0.1111 89.10 89.67
90.0(30) 0.1111 89.10 89.68
91.0(30) 0.1111 89.11 89.69
92.0(30) 0.1111 89.12 89.70
89.0(30) 0.1111 89.12 89.71
84.0(30) 0.1111 89.13 89.72
87.0(30) 0.1111 89.14 89.73
89.0(30) 0.1111 89.15 89.75
90.0(30) 0.1111 89.15 89.77
94.0(30) 0.1111 89.16 89.79
88.0(30) 0.1111 89.17 89.81
87.0(30) 0.1111 89.18 89.84
88.0(30) 0.1111 89.18 89.87
88.0(30) 0.1111 89.19 89.92
88.0(30) 0.1111 89.20 89.99
91.0(30) 0.1111 89.21 90.08
90.0(30) 0.1111 89.22 90.18
90.0(30) 0.1111 89.22 90.28
90.0(30) 0.1111 89.23 90.35
90(4) 0.0625 89.2 90.4
86.0(30) 0.1111 89.25 90.34
85.0(30) 0.1111 89.26 90.30
89.0(30) 0.1111 89.27 90.27
87.0(30) 0.1111 89.27 90.25
90.0(30) 0.1111 89.28 90.25
84.0(30) 0.1111 89.29 90.28
86.0(30) 0.1111 89.30 90.31
90(4) 0.0625 89.3 90.4
87.0(30) 0.1111 89.32 90.41
91.0(30) 0.1111 89.33 90.46
91.0(30) 0.1111 89.34 90.53
92.0(30) 0.1111 89.35 90.60
90.0(30) 0.1111 89.36 90.67
91.0(30) 0.1111 89.37 90.76
93.0(30) 0.1111 89.37 90.85
89.0(30) 0.1111 89.38 90.96
91.0(30) 0.1111 89.39 91.08
97.0(30) 0.1111 89.40 91.21
93(4) 0.0625 89.4 91.4
92(4) 0.0625 89.4 91.5
93.0(30) 0.1111 89.43 91.74
98.0(30) 0.1111 89.45 91.98
94.0(30) 0.1111 89.46 92.25
91.0(30) 0.1111 89.47 92.58
94.0(30) 0.1111 89.48 92.98
88.0(30) 0.1111 89.49 93.47
89(4) 0.0625 89.5 94.1
92.0(30) 0.1111 89.51 94.98
94.0(30) 0.1111 89.52 96.29
97.0(30) 0.1111 89.53 98.49
107.0(30) 0.1111 89.54 102.41
108(4) 0.0625 89.6 109.3
119(4) 0.0625 89.6 120.7
141(4) 0.0625 89.6 137.7
163(4) 0.0625 89.6 160.0
190(4) 0.0625 89.6 184.7
206(5) 0.0400 89.6 205.7
209(5) 0.0400 89.6 214.6
205(5) 0.0400 89.6 206.9
185(4) 0.0625 89.7 186.8
160(4) 0.0625 89.7 162.3
142(4) 0.0625 89.7 139.9
120(4) 0.0625 89.7 122.6
111(4) 0.0625 89.7 110.9
106.0(30) 0.1111 89.72 103.83
103.0(30) 0.1111 89.73 99.84
102(4) 0.0625 89.7 97.7
97.0(30) 0.1111 89.76 96.43
96.0(30) 0.1111 89.77 95.70
99.0(30) 0.1111 89.78 95.24
93.0(30) 0.1111 89.80 94.93
93.0(30) 0.1111 89.81 94.74
95.0(30) 0.1111 89.82 94.64
94.0(30) 0.1111 89.84 94.61
95.0(30) 0.1111 89.85 94.66
97(4) 0.0625 89.9 94.8
93(4) 0.0625 89.9 94.9
88.0(30) 0.1111 89.90 95.19
90.0(30) 0.1111 89.91 95.52
93.0(30) 0.1111 89.93 95.92
94.0(30) 0.1111 89.94 96.43
94.0(30) 0.1111 89.96 97.06
92.0(30) 0.1111 89.97 97.83
94.0(30) 0.1111 89.99 98.78
95.0(30) 0.1111 90.01 99.98
93.0(30) 0.1111 90.02 101.53
99.0(30) 0.1111 90.04 103.63
100(4) 0.0625 90.1 106.7
105(4) 0.0625 90.1 111.8
110(4) 0.0625 90.1 120.6
128(4) 0.0625 90.1 136.1
165(4) 0.0625 90.1 162.4
210(5) 0.0400 90.1 203.2
259(5) 0.0400 90.2 260.0
320(6) 0.02778 90.2 328.5
388(6) 0.02778 90.2 396.7
425(7) 0.02041 90.2 443.5
441(7) 0.02041 90.2 448.3
419(7) 0.02041 90.2 409.2
354(6) 0.02778 90.3 344.2
280(5) 0.0400 90.3 274.7
217(5) 0.0400 90.3 215.0
173(4) 0.0625 90.3 170.6
144(4) 0.0625 90.3 141.3
130(4) 0.0625 90.4 123.6
122(4) 0.0625 90.4 113.5
112(4) 0.0625 90.4 107.7
107(4) 0.0625 90.4 104.3
106(4) 0.0625 90.4 101.9
104.0(30) 0.1111 90.46 100.27
99.0(30) 0.1111 90.48 98.98
99(4) 0.0625 90.5 97.9
100.0(30) 0.1111 90.52 97.10
99.0(30) 0.1111 90.54 96.40
98.0(30) 0.1111 90.56 95.81
98.0(30) 0.1111 90.58 95.33
100.0(30) 0.1111 90.60 94.91
97.0(30) 0.1111 90.63 94.55
98.0(30) 0.1111 90.65 94.25
94.0(30) 0.1111 90.67 93.98
93.0(30) 0.1111 90.69 93.75
92.0(30) 0.1111 90.71 93.55
91.0(30) 0.1111 90.74 93.37
92.0(30) 0.1111 90.76 93.22
91.0(30) 0.1111 90.78 93.08
95.0(30) 0.1111 90.81 92.96
97.0(30) 0.1111 90.83 92.85
100.0(30) 0.1111 90.85 92.76
100.0(30) 0.1111 90.88 92.68
98.0(30) 0.1111 90.90 92.61
97.0(30) 0.1111 90.92 92.55
94.0(30) 0.1111 90.95 92.49
98.0(30) 0.1111 90.97 92.44
91.0(30) 0.1111 91.00 92.40
94.0(30) 0.1111 91.02 92.36
95(4) 0.0625 91.0 92.3
94.0(30) 0.1111 91.07 92.30
95.0(30) 0.1111 91.10 92.27
96.0(30) 0.1111 91.12 92.25
93.0(30) 0.1111 91.15 92.23
98.0(30) 0.1111 91.17 92.22
93.0(30) 0.1111 91.20 92.21
93.0(30) 0.1111 91.23 92.20
89.0(30) 0.1111 91.25 92.19
85.0(30) 0.1111 91.28 92.19
90.0(30) 0.1111 91.31 92.19
95.0(30) 0.1111 91.33 92.19
95.0(30) 0.1111 91.36 92.23
90.0(30) 0.1111 91.39 92.23
87.0(30) 0.1111 91.42 92.24
90.0(30) 0.1111 91.44 92.24
92.0(30) 0.1111 91.47 92.25
93.0(30) 0.1111 91.50 92.26
94.0(30) 0.1111 91.53 92.27
93.0(30) 0.1111 91.56 92.29
93.0(30) 0.1111 91.59 92.30
90(4) 0.0625 91.6 92.3
92.0(30) 0.1111 91.65 92.33
95(4) 0.0625 91.7 92.3
95(4) 0.0625 91.7 92.4
91.0(30) 0.1111 91.74 92.38
95.0(30) 0.1111 91.77 92.40
100.0(30) 0.1111 91.80 92.42
94.0(30) 0.1111 91.83 92.44
89(4) 0.0625 91.9 92.5
88.0(30) 0.1111 91.89 92.49
91.0(30) 0.1111 91.92 92.52
91.0(30) 0.1111 91.95 92.54
92.0(30) 0.1111 91.98 92.57
89(4) 0.0625 92.0 92.6
90.0(30) 0.1111 92.05 92.64
98.0(30) 0.1111 92.08 92.68
91.0(30) 0.1111 92.11 92.74
92.0(30) 0.1111 92.14 92.81
91.0(30) 0.1111 92.18 92.91
93.0(30) 0.1111 92.21 93.03
92.0(30) 0.1111 92.24 93.16
92.0(30) 0.1111 92.28 93.30
97.0(30) 0.1111 92.31 93.41
98.0(30) 0.1111 92.34 93.45
95.0(30) 0.1111 92.38 93.43
100.0(30) 0.1111 92.41 93.36
102.0(30) 0.1111 92.45 93.29
99.0(30) 0.1111 92.48 93.22
97.0(30) 0.1111 92.52 93.17
100.0(30) 0.1111 92.55 93.15
103.0(30) 0.1111 92.59 93.15
99.0(30) 0.1111 92.62 93.16
94.0(30) 0.1111 92.66 93.18
93.0(30) 0.1111 92.70 93.21
98.0(30) 0.1111 92.73 93.24
93.0(30) 0.1111 92.77 93.27
90.0(30) 0.1111 92.81 93.31
93.0(30) 0.1111 92.84 93.34
100.0(30) 0.1111 92.88 93.38
95.0(30) 0.1111 92.92 93.42
93.0(30) 0.1111 92.95 93.46
96.0(30) 0.1111 92.99 93.50
98.0(30) 0.1111 93.03 93.54
90.0(30) 0.1111 93.07 93.58
90.0(30) 0.1111 93.11 93.63
96.0(30) 0.1111 93.15 93.67
93.0(30) 0.1111 93.18 93.72
97.0(30) 0.1111 93.22 93.76
99.0(30) 0.1111 93.26 93.81
97.0(30) 0.1111 93.30 93.87
90.0(30) 0.1111 93.34 93.92
94.0(30) 0.1111 93.38 93.98
93.0(30) 0.1111 93.42 94.04
93.0(30) 0.1111 93.46 94.11
94(4) 0.0625 93.5 94.2
93.0(30) 0.1111 93.54 94.28
95.0(30) 0.1111 93.59 94.40
93.0(30) 0.1111 93.63 94.57
95.0(30) 0.1111 93.67 94.83
91.0(30) 0.1111 93.71 95.22
97(4) 0.0625 93.8 95.8
98.0(30) 0.1111 93.79 96.60
97.0(30) 0.1111 93.84 97.60
99(4) 0.0625 93.9 98.7
100.0(30) 0.1111 93.92 99.77
93.0(30) 0.1111 93.96 100.44
99.0(30) 0.1111 94.01 100.52
100(4) 0.0625 94.0 100.0
95.0(30) 0.1111 94.09 99.07
96.0(30) 0.1111 94.14 98.06
97.0(30) 0.1111 94.18 97.15
96.0(30) 0.1111 94.22 96.44
94.0(30) 0.1111 94.27 95.94
95.0(30) 0.1111 94.31 95.64
98.0(30) 0.1111 94.36 95.47
98.0(30) 0.1111 94.40 95.40
99.0(30) 0.1111 94.45 95.38
95.0(30) 0.1111 94.49 95.39
90.0(30) 0.1111 94.54 95.44
93.0(30) 0.1111 94.58 95.48
95.0(30) 0.1111 94.63 95.53
96.0(30) 0.1111 94.68 95.59
92.0(30) 0.1111 94.72 95.65
95.0(30) 0.1111 94.77 95.72
95.0(30) 0.1111 94.82 95.80
98.0(30) 0.1111 94.86 95.88
98.0(30) 0.1111 94.91 95.97
97.0(30) 0.1111 94.96 96.07
101.0(30) 0.1111 95.00 96.17
95.0(30) 0.1111 95.05 96.33
98.0(30) 0.1111 95.10 96.46
92(4) 0.0625 95.1 96.6
95.0(30) 0.1111 95.20 96.76
103.0(30) 0.1111 95.25 96.93
98.0(30) 0.1111 95.29 97.13
95.0(30) 0.1111 95.34 97.37
91.0(30) 0.1111 95.39 97.64
90.0(30) 0.1111 95.44 97.98
97.0(30) 0.1111 95.49 98.41
98.0(30) 0.1111 95.54 99.00
104.0(30) 0.1111 95.59 99.89
107.0(30) 0.1111 95.64 101.31
103.0(30) 0.1111 95.69 103.61
113(4) 0.0625 95.7 107.2
115(4) 0.0625 95.8 112.7
118(4) 0.0625 95.8 120.2
133(4) 0.0625 95.9 129.8
144(4) 0.0625 95.9 140.6
150(4) 0.0625 96.0 150.9
152(4) 0.0625 96.0 158.1
151(4) 0.0625 96.1 159.7
157(4) 0.0625 96.1 155.3
145(4) 0.0625 96.2 146.6
135(4) 0.0625 96.3 136.0
124(4) 0.0625 96.3 125.9
116(4) 0.0625 96.4 117.3
112(4) 0.0625 96.4 110.8
110(4) 0.0625 96.5 106.4
102(4) 0.0625 96.5 103.5
97.0(30) 0.1111 96.57 101.71
95.0(30) 0.1111 96.62 100.66
94.0(30) 0.1111 96.68 100.02
94(4) 0.0625 96.7 99.6
101.0(30) 0.1111 96.79 99.35
102(4) 0.0625 96.8 99.2
99.0(30) 0.1111 96.89 99.03
96.0(30) 0.1111 96.95 98.93
99.0(30) 0.1111 97.00 98.87
97.0(30) 0.1111 97.06 98.82
102.0(30) 0.1111 97.11 98.80
102.0(30) 0.1111 97.17 98.79
100.0(30) 0.1111 97.22 98.80
104.0(30) 0.1111 97.28 98.83
98.0(30) 0.1111 97.33 98.86
101.0(30) 0.1111 97.39 98.91
107.0(30) 0.1111 97.45 98.97
104.0(30) 0.1111 97.50 99.04
104.0(30) 0.1111 97.56 99.13
100.0(30) 0.1111 97.61 99.23
100.0(30) 0.1111 97.67 99.34
95(4) 0.0625 97.7 99.5
98(4) 0.0625 97.8 99.6
102(4) 0.0625 97.8 99.8
95.0(30) 0.1111 97.90 100.08
92.0(30) 0.1111 97.95 100.40
105(4) 0.0625 98.0 100.9
106(4) 0.0625 98.1 101.6
99(4) 0.0625 98.1 102.7
99.0(30) 0.1111 98.19 104.38
106(4) 0.0625 98.2 107.0
110(4) 0.0625 98.3 110.7
121(4) 0.0625 98.4 115.5
127(4) 0.0625 98.4 121.4
132(4) 0.0625 98.5 127.7
131(4) 0.0625 98.5 133.4
133(4) 0.0625 98.6 137.0
135(4) 0.0625 98.7 137.5
136(4) 0.0625 98.7 134.6
129(4) 0.0625 98.8 129.5
128(4) 0.0625 98.8 123.4
128(4) 0.0625 98.9 117.5
118(4) 0.0625 98.9 112.5
115(4) 0.0625 99.0 108.6
109.0(30) 0.1111 99.07 105.86
108(4) 0.0625 99.1 104.0
103(4) 0.0625 99.2 102.9
105.0(30) 0.1111 99.25 102.18
105(4) 0.0625 99.3 101.8
108(4) 0.0625 99.4 101.5
103.0(30) 0.1111 99.43 101.34
102.0(30) 0.1111 99.49 101.23
100.0(30) 0.1111 99.55 101.16
105.0(30) 0.1111 99.61 101.11
100.0(30) 0.1111 99.67 101.08
102.0(30) 0.1111 99.74 101.07
101.0(30) 0.1111 99.80 101.07
102.0(30) 0.1111 99.86 101.08
106.0(30) 0.1111 99.92 101.09
108(4) 0.0625 100.0 101.1
104(4) 0.0625 100.0 101.1
99(4) 0.0625 100.1 101.2
102(4) 0.0625 100.2 101.2
105.0(30) 0.1111 100.23 101.25
103.0(30) 0.1111 100.29 101.29
100(4) 0.0625 100.4 101.3
101(4) 0.0625 100.4 101.4
102(4) 0.0625 100.5 101.4
104(4) 0.0625 100.5 101.5
100.0(30) 0.1111 100.60 101.55
99(4) 0.0625 100.7 101.6
98(4) 0.0625 100.7 101.7
104(4) 0.0625 100.8 101.7
102(4) 0.0625 100.9 101.8
107(4) 0.0625 100.9 101.9
104(4) 0.0625 101.0 101.9
101(4) 0.0625 101.0 102.0
102(4) 0.0625 101.1 102.1
101(4) 0.0625 101.2 102.1
95.0(30) 0.1111 101.24 102.19
103(4) 0.0625 101.3 102.3
110(4) 0.0625 101.4 102.3
108.0(30) 0.1111 101.43 102.40
101.0(30) 0.1111 101.49 102.48
105.0(30) 0.1111 101.56 102.55
109.0(30) 0.1111 101.62 102.63
101(4) 0.0625 101.7 102.7
98.0(30) 0.1111 101.75 102.78
95.0(30) 0.1111 101.81 102.86
104(4) 0.0625 101.9 102.9
110(4) 0.0625 101.9 103.0
104(4) 0.0625 102.0 103.1
103(4) 0.0625 102.1 103.2
100(4) 0.0625 102.1 103.3
105(4) 0.0625 102.2 103.4
99(4) 0.0625 102.3 103.5
99(4) 0.0625 102.3 103.6
102.0(30) 0.1111 102.40 103.64
110.0(30) 0.1111 102.46 103.74
111.0(30) 0.1111 102.53 103.84
101(4) 0.0625 102.6 103.9
102(4) 0.0625 102.7 104.0
100(4) 0.0625 102.7 104.2
105(4) 0.0625 102.8 104.3
106(4) 0.0625 102.9 104.4
100(4) 0.0625 102.9 104.5
103(4) 0.0625 103.0 104.6
102.0(30) 0.1111 103.05 104.76
97.0(30) 0.1111 103.12 104.90
104.0(30) 0.1111 103.18 105.04
104(4) 0.0625 103.3 105.2
104(4) 0.0625 103.3 105.4
105.0(30) 0.1111 103.38 105.53
104.0(30) 0.1111 103.45 105.72
101(4) 0.0625 103.5 105.9
100.0(30) 0.1111 103.58 106.14
102(4) 0.0625 103.6 106.4
100.0(30) 0.1111 103.71 106.66
100.0(30) 0.1111 103.78 106.96
107(4) 0.0625 103.8 107.3
113(4) 0.0625 103.9 107.7
113(4) 0.0625 104.0 108.3
111(4) 0.0625 104.0 109.0
108(4) 0.0625 104.1 110.0
106(4) 0.0625 104.2 111.4
112(4) 0.0625 104.2 113.6
111(4) 0.0625 104.3 116.9
115(4) 0.0625 104.4 121.5
129(4) 0.0625 104.4 127.8
137(4) 0.0625 104.5 136.0
143(4) 0.0625 104.6 145.8
150(4) 0.0625 104.7 156.5
160(4) 0.0625 104.7 167.1
168(4) 0.0625 104.8 175.7
171(4) 0.0625 104.9 180.3
175(4) 0.0625 104.9 179.8
174(4) 0.0625 105.0 174.5
169(4) 0.0625 105.1 165.7
151(4) 0.0625 105.1 155.4
152(4) 0.0625 105.2 145.1
137(4) 0.0625 105.3 135.9
120(4) 0.0625 105.3 128.4
117(4) 0.0625 105.4 122.6
120(4) 0.0625 105.5 118.5
114(4) 0.0625 105.5 115.7
110(4) 0.0625 105.6 113.9
115(4) 0.0625 105.7 112.7
109.0(30) 0.1111 105.73 112.05
112.0(30) 0.1111 105.80 111.65
105.0(30) 0.1111 105.87 111.41
110(4) 0.0625 105.9 111.3
120(4) 0.0625 106.0 111.3
110(4) 0.0625 106.1 111.3
110(4) 0.0625 106.1 111.3
107(4) 0.0625 106.2 111.5
105(4) 0.0625 106.3 111.6
111(4) 0.0625 106.3 111.8
110(4) 0.0625 106.4 112.0
113(4) 0.0625 106.5 112.3
111.0(30) 0.1111 106.55 112.57
109.0(30) 0.1111 106.62 112.91
110.0(30) 0.1111 106.69 113.30
110(4) 0.0625 106.8 113.7
114(4) 0.0625 106.8 114.2
112(4) 0.0625 106.9 114.8
118(4) 0.0625 107.0 115.4
113(4) 0.0625 107.0 116.2
110(4) 0.0625 107.1 117.0
109.0(30) 0.1111 107.17 117.93
112.0(30) 0.1111 107.24 119.03
112(4) 0.0625 107.3 120.3
114(4) 0.0625 107.4 121.9
114(4) 0.0625 107.4 123.9
121(4) 0.0625 107.5 126.5
122(4) 0.0625 107.6 130.0
127(4) 0.0625 107.7 135.1
130(4) 0.0625 107.7 142.7
149(4) 0.0625 107.8 153.8
170(4) 0.0625 107.9 169.9
193(4) 0.0625 107.9 192.7
227(5) 0.0400 108.0 223.5
273(5) 0.0400 108.1 263.1
322(6) 0.02778 108.1 311.0
374(6) 0.02778 108.2 365.2
419(7) 0.02041 108.3 421.4
467(7) 0.02041 108.3 472.7
504(7) 0.02041 108.4 510.4
526(7) 0.02041 108.5 526.4
506(7) 0.02041 108.6 517.0
486(7) 0.02041 108.6 485.2
445(7) 0.02041 108.7 437.9
385(6) 0.02778 108.8 383.5
331(6) 0.02778 108.8 329.0
272(5) 0.0400 108.9 279.3
238(5) 0.0400 109.0 237.3
204(5) 0.0400 109.0 203.9
180(5) 0.0400 109.1 178.7
168(4) 0.0625 109.2 160.6
147(4) 0.0625 109.3 147.9
136(4) 0.0625 109.3 139.3
134(4) 0.0625 109.4 133.5
127(4) 0.0625 109.5 129.5
125(4) 0.0625 109.5 126.7
128(4) 0.0625 109.6 124.6
120(4) 0.0625 109.7 123.0
126(4) 0.0625 109.8 121.7
121(4) 0.0625 109.8 120.6
118(4) 0.0625 109.9 119.7
124(4) 0.0625 110.0 119.0
122(4) 0.0625 110.0 118.3
127(4) 0.0625 110.1 117.8
128(4) 0.0625 110.2 117.3
125(4) 0.0625 110.3 116.9
122(4) 0.0625 110.3 116.5
121(4) 0.0625 110.4 116.2
125(4) 0.0625 110.5 115.9
124(4) 0.0625 110.5 115.6
120(4) 0.0625 110.6 115.4
121(4) 0.0625 110.7 115.2
120(4) 0.0625 110.8 115.1
117(4) 0.0625 110.8 114.9
117(4) 0.0625 110.9 114.8
119(4) 0.0625 111.0 114.7
117(4) 0.0625 111.0 114.6
116(4) 0.0625 111.1 114.5
117(4) 0.0625 111.2 114.4
119(4) 0.0625 111.3 114.4
118(4) 0.0625 111.3 114.3
118(4) 0.0625 111.4 114.3
116(4) 0.0625 111.5 114.3
121(4) 0.0625 111.6 114.2
117(4) 0.0625 111.6 114.2
108(4) 0.0625 111.7 114.2
113(4) 0.0625 111.8 114.2
116(4) 0.0625 111.9 114.2
119(4) 0.0625 111.9 114.2
117(4) 0.0625 112.0 114.2
123(4) 0.0625 112.1 114.2
121(4) 0.0625 112.2 114.3
115(4) 0.0625 112.2 114.3
114(4) 0.0625 112.3 114.3
113(4) 0.0625 112.4 114.3
119(4) 0.0625 112.5 114.4
116(4) 0.0625 112.5 114.4
115(4) 0.0625 112.6 114.5
117(4) 0.0625 112.7 114.5
114(4) 0.0625 112.8 114.5
123(4) 0.0625 112.8 114.6
120(4) 0.0625 112.9 114.6
116(4) 0.0625 113.0 114.7
117(4) 0.0625 113.1 114.7
114(4) 0.0625 113.1 114.8
116(4) 0.0625 113.2 114.8
124(4) 0.0625 113.3 114.9
117(4) 0.0625 113.4 115.0
119(4) 0.0625 113.4 115.0
117(4) 0.0625 113.5 115.1
118(4) 0.0625 113.6 115.1
118(4) 0.0625 113.7 115.2
115(4) 0.0625 113.8 115.3
114(4) 0.0625 113.8 115.3
118(4) 0.0625 113.9 115.4
117(4) 0.0625 114.0 115.5
115(4) 0.0625 114.1 115.5
112(4) 0.0625 114.2 115.6
114(4) 0.0625 114.2 115.7
115(4) 0.0625 114.3 115.8
112(4) 0.0625 114.4 115.8
116(4) 0.0625 114.5 115.9
116(4) 0.0625 114.5 116.0
116(4) 0.0625 114.6 116.1
119(4) 0.0625 114.7 116.2
111(4) 0.0625 114.8 116.2
112(4) 0.0625 114.9 116.3
114(4) 0.0625 115.0 116.4
120(4) 0.0625 115.0 116.5
118(4) 0.0625 115.1 116.6
119(4) 0.0625 115.2 116.7
114(4) 0.0625 115.3 116.8
115(4) 0.0625 115.4 116.9
113(4) 0.0625 115.4 117.0
114(4) 0.0625 115.5 117.1
120(4) 0.0625 115.6 117.2
118(4) 0.0625 115.7 117.3
116(4) 0.0625 115.8 117.4
116(4) 0.0625 115.9 117.5
119(4) 0.0625 115.9 117.6
122(4) 0.0625 116.0 117.8
120(4) 0.0625 116.1 117.9
119(4) 0.0625 116.2 118.1
118(4) 0.0625 116.3 118.3
117(4) 0.0625 116.4 118.6
120(4) 0.0625 116.5 119.0
121(4) 0.0625 116.5 119.4
124(4) 0.0625 116.6 120.0
120(4) 0.0625 116.7 120.6
118(4) 0.0625 116.8 121.4
119(4) 0.0625 116.9 122.4
122(4) 0.0625 117.0 123.5
123(4) 0.0625 117.1 124.6
127(4) 0.0625 117.2 125.7
127(4) 0.0625 117.2 126.8
124(4) 0.0625 117.3 127.6
132(4) 0.0625 117.4 128.1
131(4) 0.0625 117.5 128.3
124(4) 0.0625 117.6 128.1
124(4) 0.0625 117.7 127.5
123(4) 0.0625 117.8 126.7
126(4) 0.0625 117.9 125.9
118(4) 0.0625 118.0 124.9
123(4) 0.0625 118.1 124.1
126(4) 0.0625 118.1 123.3
117(4) 0.0625 118.2 122.7
119(4) 0.0625 118.3 122.2
123(4) 0.0625 118.4 121.8
125(4) 0.0625 118.5 121.6
122(4) 0.0625 118.6 121.4
123(4) 0.0625 118.7 121.3
119(4) 0.0625 118.8 121.3
122(4) 0.0625 118.9 121.3
124(4) 0.0625 119.0 121.4
119(4) 0.0625 119.1 121.4
118(4) 0.0625 119.2 121.5
116(4) 0.0625 119.3 121.6
123(4) 0.0625 119.4 121.8
121(4) 0.0625 119.5 121.9
123(4) 0.0625 119.6 122.0
122(4) 0.0625 119.7 122.2
123(4) 0.0625 119.8 122.3
121(4) 0.0625 119.9 122.5
120(4) 0.0625 120.0 122.6
118(4) 0.0625 120.1 122.8
122(4) 0.0625 120.2 122.9
119(4) 0.0625 120.2 123.1
129(4) 0.0625 120.3 123.3
124(4) 0.0625 120.4 123.5
121(4) 0.0625 120.6 123.7
122(4) 0.0625 120.7 123.9
126(4) 0.0625 120.8 124.1
127(4) 0.0625 120.9 124.4
118(4) 0.0625 121.0 124.6
127(4) 0.0625 121.1 124.9
127(4) 0.0625 121.2 125.2
128(4) 0.0625 121.3 125.5
125(4) 0.0625 121.4 125.8
128(4) 0.0625 121.5 126.1
129(4) 0.0625 121.6 126.5
128(4) 0.0625 121.7 126.9
126(4) 0.0625 121.8 127.4
120(4) 0.0625 121.9 127.9
127(4) 0.0625 122.0 128.6
131(4) 0.0625 122.1 129.4
132(4) 0.0625 122.2 130.3
127(4) 0.0625 122.3 131.6
130(4) 0.0625 122.4 133.2
129(4) 0.0625 122.5 135.4
134(4) 0.0625 122.6 138.1
142(5) 0.0400 122.7 141.8
147(5) 0.0400 122.9 146.4
164(5) 0.0400 123.0 152.2
168(5) 0.0400 123.1 159.3
172(5) 0.0400 123.2 167.7
181(5) 0.0400 123.3 177.4
197(5) 0.0400 123.4 188.3
211(6) 0.02778 123.5 199.9
218(6) 0.02778 123.6 211.8
216(6) 0.02778 123.7 223.3
231(6) 0.02778 123.9 233.3
235(6) 0.02778 124.0 241.0
253(6) 0.02778 124.1 245.5
255(6) 0.02778 124.2 246.2
254(6) 0.02778 124.3 243.1
251(6) 0.02778 124.4 236.7
253(6) 0.02778 124.5 227.7
234(6) 0.02778 124.6 217.2
223(6) 0.02778 124.8 205.9
212(6) 0.02778 124.9 194.6
191(5) 0.0400 125.0 183.9
181(5) 0.0400 125.1 174.1
171(5) 0.0400 125.2 165.6
165(5) 0.0400 125.3 158.4
160(5) 0.0400 125.5 152.4
147(5) 0.0400 125.6 147.7
142(5) 0.0400 125.7 144.1
146(5) 0.0400 125.8 141.3
138(5) 0.0400 125.9 139.2
136(5) 0.0400 126.0 137.7
139(5) 0.0400 126.2 136.7
141(5) 0.0400 126.3 135.9
136(5) 0.0400 126.4 135.4
133(5) 0.0400 126.5 135.1
130(5) 0.0400 126.6 134.8
127(5) 0.0400 126.8 134.7
132(5) 0.0400 126.9 134.7
128(5) 0.0400 127.0 134.6
129(5) 0.0400 127.1 134.7
133(5) 0.0400 127.2 134.8
133(5) 0.0400 127.4 134.9
130(5) 0.0400 127.5 135.0
141(5) 0.0400 127.6 135.2
137(5) 0.0400 127.7 135.4
133(5) 0.0400 127.8 135.6
142(5) 0.0400 128.0 135.9
136(5) 0.0400 128.1 136.2
137(5) 0.0400 128.2 136.5
136(5) 0.0400 128.3 136.8
136(5) 0.0400 128.4 137.2
141(5) 0.0400 128.6 137.6
147(5) 0.0400 128.7 138.0
137(5) 0.0400 128.8 138.5
135(5) 0.0400 128.9 139.0
133(5) 0.0400 129.1 139.6
137(5) 0.0400 129.2 140.2
139(5) 0.0400 129.3 140.9
138(5) 0.0400 129.4 141.6
141(5) 0.0400 129.5 142.4
139(5) 0.0400 129.7 143.3
145(5) 0.0400 129.8 144.3
143(5) 0.0400 129.9 145.5
143(5) 0.0400 130.0 146.8
139(5) 0.0400 130.1 148.3
144(5) 0.0400 130.3 150.2
137(5) 0.0400 130.4 152.5
146(6) 0.02778 130.5 155.4
144(6) 0.02778 130.6 159.0
143(6) 0.02778 130.7 163.7
148(6) 0.02778 130.9 169.6
165(6) 0.02778 131.0 177.2
176(6) 0.02778 131.1 186.8
188(6) 0.02778 131.2 198.9
205(7) 0.02041 131.3 213.9
219(7) 0.02041 131.5 232.1
256(8) 0.01563 131.6 253.9
269(8) 0.01563 131.7 279.5
309(9) 0.01235 131.8 308.7
366(9) 0.01235 131.9 341.3
398(10) 0.01000 132.0 376.7
434(10) 0.01000 132.2 414.1
459(11) 0.00826 132.3 452.1
490(11) 0.00826 132.4 489.1
505(11) 0.00826 132.5 523.0
547(12) 0.00694 132.6 551.5
565(12) 0.00694 132.7 572.3
566(12) 0.00694 132.8 583.7
577(12) 0.00694 133.0 584.5
607(12) 0.00694 133.1 575.0
584(12) 0.00694 133.2 556.2
559(12) 0.00694 133.3 529.7
534(12) 0.00694 133.4 497.7
497(12) 0.00694 133.5 462.1
443(11) 0.00826 133.6 425.0
403(11) 0.00826 133.7 388.1
370(10) 0.01000 133.8 352.7
323(10) 0.01000 133.9 319.8
289(9) 0.01235 134.0 290.1
261(9) 0.01235 134.1 264.0
242(9) 0.01235 134.2 241.5
220(8) 0.01563 134.3 222.6
202(8) 0.01563 134.4 206.9
183(8) 0.01563 134.5 194.2
179(8) 0.01563 134.6 184.0
176(8) 0.01563 134.7 176.0
170(8) 0.01563 134.8 169.7
159(7) 0.02041 134.9 164.7
159(7) 0.02041 135.0 160.9
158(7) 0.02041 135.1 157.9
151(7) 0.02041 135.2 155.6
153(7) 0.02041 135.3 153.7
150(7) 0.02041 135.4 152.2
151(7) 0.02041 135.4 151.0
150(7) 0.02041 135.5 149.9
149(7) 0.02041 135.6 149.0
151(7) 0.02041 135.7 148.2
149(7) 0.02041 135.8 147.6
150(7) 0.02041 135.8 147.0
153(8) 0.01563 135.9 146.4
146(8) 0.01563 136.0 145.9
144(7) 0.02041 136.0 145.5
142(7) 0.02041 136.1 145.1
140(8) 0.01563 136.2 144.7
132(7) 0.02041 136.2 144.4
142(8) 0.01563 136.3 144.1
154(8) 0.01563 136.4 143.8
156(8) 0.01563 136.4 143.6
148(8) 0.01563 136.5 143.3
143(8) 0.01563 136.5 143.1
146(8) 0.01563 136.6 142.9
150(9) 0.01235 136.6 142.7
155(9) 0.01235 136.7 142.6
151(9) 0.01235 136.7 142.4
141(8) 0.01563 136.7 142.2
136(8) 0.01563 136.8 142.1
153(9) 0.01235 136.8 142.0
160(9) 0.01235 136.8 141.8
149(9) 0.01235 136.9 141.7
144(9) 0.01235 136.9 141.6
137(9) 0.01235 136.9 141.5
147(9) 0.01235 136.9 141.4
151(9) 0.0 136.9 .
139(9) . . .
145(10) . . .
151(10) . . .
143(10) . . .
139(10) . . .
135(10) . . .
135(10) . . .
134(10) . . .
133(10) . . .
139(10) . . .
139(11) . . .
140(11) . . .
135(11) . . .
139(12) . . .
137(12) . . .
146(12) . . .
151(12) . . .
153(12) . . .
139(12) . . .
139(12) . . .
153(13) . . .
150(13) . . .
153(13) . . .
149(13) . . .
150(14) . . .
141(14) . . .
143(14) . . .
137(14) . . .
124(14) . . .
132(15) . . .
133(15) . . .
137(16) . . .
174(20) . . .
148(19) . . .
131(20) . . .
98(19) . . .
0.0(10) . . .
loop_
_refln_index_h
_refln_index_k
_refln_index_l
_refln_observed_status
_refln_F_squared_meas
_refln_F_squared_calc
_refln_phase_calc
_refln_d_spacing
_gsas_i100_meas
1 1 0 o 0.086 0.153 0.00 7.05449 0.69
1 1 1 o 0.147 0.065 0.00 5.75996 0.53
2 0 0 o 1.935 0.804 180.00 4.98828 3.96
2 1 0 o 0.095 0.109 180.00 4.46165 0.31
2 0 1 o 1.497 1.717 0.00 4.46165 4.94
2 1 1 o 0.613 0.857 180.00 4.07291 3.40
2 2 0 o 0.094 0.065 180.00 3.52724 0.20
2 2 1 o 0.031 0.022 180.00 3.32552 0.12
3 0 0 o 1.935 1.364 0.00 3.32552 1.83
3 0 1 o 1.717 1.333 180.00 3.15486 2.95
3 1 0 o 3.395 2.643 180.00 3.15486 5.84
3 1 1 o 0.162 0.162 0.00 3.00804 0.51
2 2 2 o 68.172 67.139 180.00 2.87998 66.26
3 0 2 o 24.455 24.677 0.00 2.76700 33.20
3 2 0 o 25.630 25.863 180.00 2.76700 34.80
3 2 1 o 39.308 39.370 0.00 2.66635 100.00
3 1 2 o 34.832 34.897 0.00 2.66635 88.61
4 0 0 o 40.071 40.289 0.00 2.49414 22.71
4 1 0 o 13.002 12.929 180.00 2.41967 14.01
4 0 1 o 22.005 21.885 0.00 2.41967 23.70
3 2 2 o 0.445 0.443 0.00 2.41967 0.96
4 1 1 o 0.578 0.561 180.00 2.35150 1.19
3 3 0 o 22.828 22.170 0.00 2.35150 23.45
3 3 1 o 0.231 0.088 0.00 2.28878 0.45
4 0 2 o 5.338 4.730 0.00 2.23082 5.03
4 2 0 o 2.659 2.364 0.00 2.23082 2.51
4 2 1 o 0.697 0.586 180.00 2.17706 1.27
4 1 2 o 2.854 2.397 0.00 2.17706 5.18
3 3 2 o 3.203 3.018 180.00 2.12701 5.61
4 2 2 o 0.605 0.452 0.00 2.03645 0.99
4 3 0 o 6.224 6.909 0.00 1.99531 4.95
4 0 3 o 2.497 2.779 180.00 1.99531 1.99
5 0 0 o 0.538 0.598 180.00 1.99531 0.21
4 3 1 o 0.305 0.320 180.00 1.95656 0.47
5 0 1 o 2.613 2.748 180.00 1.95656 2.02
5 1 0 o 2.800 2.943 180.00 1.95656 2.17
4 1 3 o 0.021 0.023 0.00 1.95656 0.03
3 3 3 o 0.786 1.512 0.00 1.91999 0.40
5 1 1 o 0.000 0.001 0.00 1.91999 0.00
4 3 2 o 3.539 3.672 0.00 1.85260 5.09
5 0 2 o 12.392 12.859 0.00 1.85260 8.92
4 2 3 o 1.702 1.767 180.00 1.85260 2.45
5 2 0 o 4.694 4.866 180.00 1.85260 3.38
5 1 2 o 0.439 0.386 0.00 1.82146 0.62
5 2 1 o 0.042 0.037 180.00 1.82146 0.06
4 4 0 o 11.889 10.653 0.00 1.76362 8.06
4 4 1 o 0.090 0.086 0.00 1.73669 0.12
5 2 2 o 0.001 0.001 0.00 1.73669 0.00
5 0 3 o 110.201 110.387 180.00 1.71096 72.28
5 3 0 o 91.660 91.806 180.00 1.71096 60.12
4 3 3 o 43.659 43.732 180.00 1.71096 57.27
5 1 3 o 19.208 18.998 180.00 1.68634 24.83
5 3 1 o 25.488 25.210 0.00 1.68634 32.95
4 4 2 o 21.853 22.039 0.00 1.66276 27.88
6 0 0 o 167.578 169.048 0.00 1.66276 53.44
6 0 1 o 6.003 6.132 0.00 1.64013 3.78
6 1 0 o 5.908 6.035 180.00 1.64013 3.72
5 3 2 o 79.914 79.831 0.00 1.61841 99.62
5 2 3 o 52.580 52.523 0.00 1.61841 65.55
6 1 1 o 19.933 19.913 0.00 1.61841 24.85
6 0 2 o 21.859 21.844 180.00 1.57743 13.38
6 2 0 o 28.309 28.289 180.00 1.57743 17.33
6 1 2 o 4.502 4.429 0.00 1.55808 5.47
4 4 3 o 0.004 0.004 180.00 1.55808 0.01
5 0 4 o 12.683 12.467 180.00 1.55808 7.71
6 2 1 o 1.351 1.330 180.00 1.55808 1.64
5 4 0 o 13.203 12.996 0.00 1.55808 8.02
5 1 4 o 0.004 0.011 180.00 1.53942 0.01
5 4 1 o 0.039 0.098 0.00 1.53942 0.05
5 3 3 o 0.155 0.123 180.00 1.52141 0.19
6 2 2 o 2.051 2.219 180.00 1.50402 2.46
5 2 4 o 2.294 2.419 180.00 1.48722 2.74
6 0 3 o 0.502 0.530 180.00 1.48722 0.30
6 3 0 o 1.989 2.096 0.00 1.48722 1.19
5 4 2 o 6.006 6.331 0.00 1.48722 7.18
6 3 1 o 3.723 3.478 0.00 1.47096 4.45
6 1 3 o 2.020 1.888 0.00 1.47096 2.41
4 4 4 o 30.236 29.043 0.00 1.43999 12.07
6 3 2 o 0.154 0.137 180.00 1.42522 0.19
7 0 0 o 0.536 0.476 0.00 1.42522 0.16
6 2 3 o 0.492 0.437 0.00 1.42522 0.59
5 3 4 o 0.288 0.307 180.00 1.41090 0.35
5 5 0 o 0.980 1.042 0.00 1.41090 0.59
5 4 3 o 1.725 1.840 180.00 1.41090 2.08
7 0 1 o 2.498 2.659 0.00 1.41090 1.51
7 1 0 o 0.013 0.014 180.00 1.41090 0.01
7 1 1 o 0.545 0.772 0.00 1.39700 0.66
5 5 1 o 0.016 0.023 0.00 1.39700 0.02
6 0 4 o 0.000 0.004 180.00 1.38350 0.00
6 4 0 o 0.000 0.064 0.00 1.38350 0.00
6 1 4 o 6.842 6.929 0.00 1.37038 8.49
7 0 2 o 1.950 1.974 0.00 1.37038 1.21
6 4 1 o 3.079 3.117 180.00 1.37038 3.82
7 2 0 o 1.382 1.400 180.00 1.37038 0.86
6 3 3 o 14.815 14.763 0.00 1.35764 18.62
5 5 2 o 11.651 11.611 0.00 1.35764 14.64
7 2 1 o 4.865 4.849 0.00 1.35764 6.11
7 1 2 o 3.403 3.391 0.00 1.35764 4.28
6 2 4 o 0.171 0.044 180.00 1.33317 0.22
6 4 2 o 0.064 0.016 0.00 1.33317 0.08
5 4 4 o 0.002 0.002 0.00 1.32143 0.00
7 2 2 o 0.465 0.603 0.00 1.32143 0.62
7 3 0 o 3.606 3.652 0.00 1.30999 2.46
7 0 3 o 9.117 9.230 0.00 1.30999 6.21
7 1 3 o 2.339 2.049 0.00 1.29884 3.28
5 5 3 o 1.046 0.917 0.00 1.29884 1.47
7 3 1 o 1.163 1.021 180.00 1.29884 1.63
6 0 5 o 5.114 5.667 0.00 1.27737 3.87
6 3 4 o 0.005 0.006 180.00 1.27737 0.01
6 4 3 o 0.440 0.488 0.00 1.27737 0.67
6 5 0 o 8.463 9.364 180.00 1.27737 6.41
6 1 5 o 18.194 18.052 0.00 1.26702 28.93
7 2 3 o 4.197 4.165 0.00 1.26702 6.67
6 5 1 o 19.436 19.288 0.00 1.26702 30.90
7 3 2 o 4.845 4.808 0.00 1.26702 7.70
8 0 0 o 3.780 4.321 0.00 1.24707 1.71
7 0 4 o 0.412 0.384 180.00 1.23744 0.41
7 4 0 o 0.586 0.545 0.00 1.23744 0.58
8 0 1 o 0.014 0.013 180.00 1.23744 0.01
6 2 5 o 12.797 11.911 0.00 1.23744 25.40
6 5 2 o 1.392 1.295 180.00 1.23744 2.76
8 1 0 o 2.019 1.878 0.00 1.23744 2.00
5 5 4 o 15.180 15.046 0.00 1.22803 33.99
7 4 1 o 0.170 0.168 180.00 1.22803 0.38
7 1 4 o 1.034 1.025 180.00 1.22803 2.32
8 1 1 o 40.865 40.489 180.00 1.22803 91.52
