#------------------------------------------------------------------------------
#$Date: 2016-03-22 23:21:52 +0200 (Tue, 22 Mar 2016) $
#$Revision: 179057 $
#$URL: svn://www.crystallography.net/cod/cif/4/30/19/4301986.cif $
#------------------------------------------------------------------------------
#
# This file is available in the Crystallography Open Database (COD),
# http://www.crystallography.net/
#
# All data on this site have been placed in the public domain by the
# contributors.
#
data_4301986
loop_
_publ_author_name
'J. V. Zaikina'
'K. A. Kovnir'
'U. Burkhardt'
'W. Schnelle'
'F. Haarmann'
'U. Schwarz'
'Yu. Grin'
'A. V. Shevelkov'
_publ_contact_author_address
;         Inorganic Synthesis Laboratory
          Moscow State University
          Leninskie Gory 1/3
          119992 Moscow
          Russia
;
_publ_contact_author_email       shev@inorg.chem.msu.ru
_publ_contact_author_fax         '7 095 939-4788'
_publ_contact_author_name        'Andrei V. Shevelkov'
_publ_contact_author_phone       '7 495 939-1200'
_publ_section_title
;
Cationic Clathrate I Si46-xPxTey(6.6(1) <= y <= 7.5(1), x <= 2y): Crystal
Structure, Homogeneity Range, and Physical Properties
;
_journal_name_full               'Inorganic Chemistry'
_journal_page_first              3720
_journal_page_last               3730
_journal_paper_doi               10.1021/ic8023887
_journal_volume                  48
_journal_year                    2009
_chemical_formula_moiety         'Si31.4 P14.6 Te7.3'
_chemical_formula_structural     'Si31.4 P14.6 Te7.32'
_chemical_formula_sum            'P14.6 Si31.4 Te7.3'
_chemical_formula_weight         2267.71
_chemical_name_common            'silicon-phosphorus telluride'
_chemical_name_systematic        'silicon-phosphorus telluride'
_space_group_IT_number           200
_symmetry_cell_setting           cubic
_symmetry_space_group_name_Hall  '-P 2 2 3'
_symmetry_space_group_name_H-M   'P m -3'
_audit_creation_date             2009-01-22T11:50
_audit_creation_method           'from EXP file using GSAS2CIF'
_cell_angle_alpha                90.0
_cell_angle_beta                 90.0
_cell_angle_gamma                90.0
_cell_formula_units_Z            1
_cell_length_a                   9.977718(25)
_cell_length_b                   9.977718
_cell_length_c                   9.977718
_cell_measurement_temperature    295(2)
_cell_volume                     993.330(2)
_computing_molecular_graphics    'Atoms 5.1 (E. Dowty, 2000)'
_computing_publication_material  EXPGUI
_computing_structure_refinement  GSAS
_diffrn_ambient_temperature      295(2)
_diffrn_detector_type            '128 3He counting tubes'
_diffrn_measurement_device_type  D2b
_diffrn_radiation_probe          neutron
_diffrn_radiation_type           neutron
_diffrn_radiation_wavelength     2.3985
_exptl_absorpt_correction_T_max  1.00000
_exptl_absorpt_correction_T_min  1.00000
_exptl_absorpt_process_details
;   GSAS Absorption/surface roughness correction: function number 0
 No correction is applied.
;
_exptl_crystal_density_diffrn    3.792
_pd_calc_method                  'Rietveld Refinement'
_pd_char_colour                  black
_pd_instr_location               'ILL, Grenoble'
_pd_meas_2theta_range_inc        0.05
_pd_meas_2theta_range_max        159.95
_pd_meas_2theta_range_min        0.05
_pd_meas_number_of_points        3199
_pd_proc_2theta_range_inc        0.05
_pd_proc_2theta_range_max        159.7964
_pd_proc_2theta_range_min        -0.1036
_pd_proc_info_datetime           2009-01-22T14:09:40
_pd_proc_ls_background_function
;   GSAS Background function number 1 with 14 terms.
 Shifted Chebyshev function of 1st kind
      1:    104.256     2:    4.74112     3:    21.2148     4:    2.22900    
      5:    1.36621     6:  -0.480165     7:   -1.37220     8:   -1.82150    
      9:   -1.90171    10:  -0.495722    11:  -0.303617    12:  -0.685171    
     13:  -0.672449    14:  -0.175885    
;
_pd_proc_ls_peak_cutoff          0.00100
_pd_proc_ls_profile_function
;
 CW Profile function number 2 with  18 terms
 Profile coefficients for Simpson's rule integration of pseudovoigt function
 C.J. Howard (1982). J. Appl. Cryst.,15,615-620.
 P. Thompson, D.E. Cox & J.B. Hastings (1987). J. Appl. Cryst.,20,79-83.
 Peak tails are ignored  where the intensity is below 0.0010 times the peak
   Aniso. broadening axis   0.0   0.0   1.0
;
_pd_proc_ls_prof_R_factor        0.0321
_pd_proc_ls_prof_wR_expected     0.0293
_pd_proc_ls_prof_wR_factor       0.0411
_pd_proc_number_of_points        3199
_pd_spec_mounting                ' ?'
_refine_ls_goodness_of_fit_all   1.41
_refine_ls_matrix_type           full
_refine_ls_number_constraints    1
_refine_ls_number_parameters     42
_refine_ls_number_restraints     1
_refine_ls_R_Fsqd_factor         0.04067
_refine_ls_shift/su_max          0.05
_refine_ls_shift/su_mean         0.01
_reflns_d_resolution_high        1.228
_reflns_d_resolution_low         7.055
_reflns_limit_h_max              8
_reflns_limit_h_min              1
_reflns_limit_k_max              5
_reflns_limit_k_min              0
_reflns_limit_l_max              5
_reflns_limit_l_min              0
_reflns_number_total             126
_cod_data_source_file            ic8023887_si_001_1.cif
_cod_data_source_block           sample_1
_cod_depositor_comments
;
The following automatic conversions were performed:
'_geom_bond_publ_flag' value 'N' changed to 'n' according to
'/home/saulius/struct/CIF-dictionaries/cif_core.dic' dictionary named
'cif_core.dic' version 2.4.1 from 2010-06-29 (111
times).

'_geom_angle_publ_flag' value 'N' changed to 'n' according to
'/home/saulius/struct/CIF-dictionaries/cif_core.dic' dictionary named
'cif_core.dic' version 2.4.1 from 2010-06-29 (148 times).

Automatic conversion script
Id: cif_fix_enum 1527 2010-12-29 10:47:43Z saulius 
;
_cod_database_code               4301986
#BEGIN Tags that were not found in dictionaries:
_gsas_exptl_extinct_corr_t_min   1.00000
_gsas_exptl_extinct_corr_t_max   1.00000
#END Tags that were not found in dictionaries
loop_
_symmetry_equiv_pos_site_id
_symmetry_equiv_pos_as_xyz
1 +x,+y,+z
2 +z,+x,+y
3 +y,+z,+x
4 +x,+y,-z
5 -z,+x,+y
6 +y,-z,+x
7 -z,+x,-y
8 -y,-z,+x
9 +y,-z,-x
10 -x,+y,-z
11 -z,-x,+y
12 +x,-y,-z
-1 -x,-y,-z
-2 -z,-x,-y
-3 -y,-z,-x
-4 -x,-y,+z
-5 +z,-x,-y
-6 -y,+z,-x
-7 +z,-x,+y
-8 +y,+z,-x
-9 -y,+z,+x
-10 +x,-y,+z
-11 +z,+x,-y
-12 -x,+y,+z
loop_
_atom_site_label
_atom_site_type_symbol
_atom_site_symmetry_multiplicity
_atom_site_Wyckoff_symbol
_atom_site_fract_x
_atom_site_fract_y
_atom_site_fract_z
_atom_site_adp_type
_atom_site_U_iso_or_equiv
_atom_site_occupancy
Te1 Te 1 a 0 0 0 Uiso 0.0028(10) 0.935(10)
Te2 Te 1 b 0.5 0.5 0.5 Uiso 0.0028(10) 0.381(10)
Te3 Te 6 g 0 0.2589(6) 0.5 Uani 0.01769 1
P1 P 6 f 0 0.5 0.2454(9) Uiso 0.00677(16) 0.31547(8)
Si1 Si 6 f 0.0 0.5 0.2454(9) Uiso 0.00677(16) 0.68454(8)
P21 P 8 i 0.18412(16) 0.18412(16) 0.18412(16) Uiso 0.00677(16) 0.08774(23)
Si21 Si 8 i 0.18412(16) 0.18412(16) 0.18412(16) Uiso 0.00677(16) 0.91226(23)
P22 P 8 i 0.31683(13) 0.31683(13) 0.31683(13) Uiso 0.00677(16) 1
P31 P 12 j 0 0.30675(20) 0.11677(21) Uiso 0.00677(16) 0.33376(4)
Si31 Si 12 j 0 0.30675(20) 0.11677(21) Uiso 0.00677(16) 0.66624(4)
Si32 Si 12 k 0.18825(21) 0.5 0.38273(22) Uiso 0.00677(16) 1
loop_
_atom_site_aniso_label
_atom_site_aniso_U_11
_atom_site_aniso_U_12
_atom_site_aniso_U_13
_atom_site_aniso_U_22
_atom_site_aniso_U_23
_atom_site_aniso_U_33
Te3 0.0295(15) 0.0 0.0 0.0204(12) 0.0 0.0031(13)
loop_
_atom_type_symbol
_atom_type_number_in_cell
_atom_type_scat_length_neutron
_atom_type_scat_source
Te 7.316 0.5800 International_Tables_Vol_C
P 14.6 0.5130 International_Tables_Vol_C
Si 31.4 0.4149 International_Tables_Vol_C
loop_
_geom_angle_atom_site_label_1
_geom_angle_atom_site_label_2
_geom_angle_atom_site_label_3
_geom_angle
_geom_angle_site_symmetry_1
_geom_angle_site_symmetry_2
_geom_angle_site_symmetry_3
_geom_angle_publ_flag
Si32 P1 Si32 107.8(4) 1_555 . -4_565 n
Si32 P1 P31 109.06(4) 1_555 . 1_555 n
Si32 P1 P31 109.06(4) 1_555 . -4_565 n
Si32 P1 Si31 109.06(4) 1_555 . 1_555 n
Si32 P1 Si31 109.06(4) 1_555 . -4_565 n
Si32 P1 P31 109.06(4) -4_565 . 1_555 n
Si32 P1 P31 109.06(4) -4_565 . -4_565 n
Si32 P1 Si31 109.06(4) -4_565 . 1_555 n
Si32 P1 Si31 109.06(4) -4_565 . -4_565 n
P31 P1 P31 112.7(4) 1_555 . -4_565 n
P31 P1 Si31 0.0 1_555 . 1_555 n
P31 P1 Si31 112.7(4) 1_555 . -4_565 n
P31 P1 Si31 112.7(4) -4_565 . 1_555 n
P31 P1 Si31 0.0 -4_565 . -4_565 n
Si31 P1 Si31 112.7(4) 1_555 . -4_565 n
Si32 Si1 Si32 107.8(4) 1_555 . -4_565 n
Si32 Si1 P31 109.06(4) 1_555 . 1_555 n
Si32 Si1 P31 109.06(4) 1_555 . -4_565 n
Si32 Si1 Si31 109.06(4) 1_555 . 1_555 n
Si32 Si1 Si31 109.06(4) 1_555 . -4_565 n
Si32 Si1 P31 109.06(4) -4_565 . 1_555 n
Si32 Si1 P31 109.06(4) -4_565 . -4_565 n
Si32 Si1 Si31 109.06(4) -4_565 . 1_555 n
Si32 Si1 Si31 109.06(4) -4_565 . -4_565 n
P31 Si1 P31 112.7(4) 1_555 . -4_565 n
P31 Si1 Si31 0.0 1_555 . 1_555 n
P31 Si1 Si31 112.7(4) 1_555 . -4_565 n
P31 Si1 Si31 112.7(4) -4_565 . 1_555 n
P31 Si1 Si31 0.0 -4_565 . -4_565 n
Si31 Si1 Si31 112.7(4) 1_555 . -4_565 n
P22 P21 P31 108.77(8) 1_555 . 1_555 n
P22 P21 P31 108.77(8) 1_555 . 2_555 n
P22 P21 P31 108.77(8) 1_555 . 3_555 n
P22 P21 Si31 108.77(8) 1_555 . 1_555 n
P22 P21 Si31 108.77(8) 1_555 . 2_555 n
P22 P21 Si31 108.77(8) 1_555 . 3_555 n
P31 P21 P31 110.17(8) 1_555 . 2_555 n
P31 P21 P31 110.17(8) 1_555 . 3_555 n
P31 P21 Si31 0.0 1_555 . 1_555 n
P31 P21 Si31 110.17(8) 1_555 . 2_555 n
P31 P21 Si31 110.17(8) 1_555 . 3_555 n
P31 P21 P31 110.17(8) 2_555 . 3_555 n
P31 P21 Si31 110.17(8) 2_555 . 1_555 n
P31 P21 Si31 0.0 2_555 . 2_555 n
P31 P21 Si31 110.17(8) 2_555 . 3_555 n
P31 P21 Si31 110.17(8) 3_555 . 1_555 n
P31 P21 Si31 110.17(8) 3_555 . 2_555 n
P31 P21 Si31 0.0 3_555 . 3_555 n
Si31 P21 Si31 110.17(8) 1_555 . 2_555 n
Si31 P21 Si31 110.17(8) 1_555 . 3_555 n
Si31 P21 Si31 110.17(8) 2_555 . 3_555 n
P22 Si21 P31 108.77(8) 1_555 . 1_555 n
P22 Si21 P31 108.77(8) 1_555 . 2_555 n
P22 Si21 P31 108.77(8) 1_555 . 3_555 n
P22 Si21 Si31 108.77(8) 1_555 . 1_555 n
P22 Si21 Si31 108.77(8) 1_555 . 2_555 n
P22 Si21 Si31 108.77(8) 1_555 . 3_555 n
P31 Si21 P31 110.17(8) 1_555 . 2_555 n
P31 Si21 P31 110.17(8) 1_555 . 3_555 n
P31 Si21 Si31 0.0 1_555 . 1_555 n
P31 Si21 Si31 110.17(8) 1_555 . 2_555 n
P31 Si21 Si31 110.17(8) 1_555 . 3_555 n
P31 Si21 P31 110.17(8) 2_555 . 3_555 n
P31 Si21 Si31 110.17(8) 2_555 . 1_555 n
P31 Si21 Si31 0.0 2_555 . 2_555 n
P31 Si21 Si31 110.17(8) 2_555 . 3_555 n
P31 Si21 Si31 110.17(8) 3_555 . 1_555 n
P31 Si21 Si31 110.17(8) 3_555 . 2_555 n
P31 Si21 Si31 0.0 3_555 . 3_555 n
Si31 Si21 Si31 110.17(8) 1_555 . 2_555 n
Si31 Si21 Si31 110.17(8) 1_555 . 3_555 n
Si31 Si21 Si31 110.17(8) 2_555 . 3_555 n
P21 P22 Si21 0.0 1_555 . 1_555 n
P21 P22 Si32 107.35(7) 1_555 . 1_555 n
P21 P22 Si32 107.35(7) 1_555 . 2_555 n
P21 P22 Si32 107.35(7) 1_555 . 3_555 n
Si21 P22 Si32 107.35(7) 1_555 . 1_555 n
Si21 P22 Si32 107.35(7) 1_555 . 2_555 n
Si21 P22 Si32 107.35(7) 1_555 . 3_555 n
Si32 P22 Si32 111.51(7) 1_555 . 2_555 n
Si32 P22 Si32 111.51(7) 1_555 . 3_555 n
Si32 P22 Si32 111.51(7) 2_555 . 3_555 n
P1 Si32 Si1 0.0 1_555 . 1_555 n
P1 Si32 P22 106.18(13) 1_555 . 1_555 n
P1 Si32 P22 106.18(13) 1_555 . 6_565 n
P1 Si32 Si32 126.12(18) 1_555 . 4_556 n
Si1 Si32 P22 106.18(13) 1_555 . 1_555 n
Si1 Si32 P22 106.18(13) 1_555 . 6_565 n
Si1 Si32 Si32 126.12(18) 1_555 . 4_556 n
P22 Si32 P22 103.47(10) 1_555 . 6_565 n
P22 Si32 Si32 106.41(6) 1_555 . 4_556 n
P22 Si32 Si32 106.41(6) 6_565 . 4_556 n
P1 P31 Si1 0.0 1_555 . 1_555 n
P1 P31 P21 106.27(14) 1_555 . 1_555 n
P1 P31 P21 106.27(14) 1_555 . 5_555 n
P1 P31 Si21 106.27(14) 1_555 . 1_555 n
P1 P31 Si21 106.27(14) 1_555 . 5_555 n
P1 P31 P31 123.64(19) 1_555 . 4_555 n
P1 P31 Si31 123.64(19) 1_555 . 4_555 n
Si1 P31 P21 106.27(14) 1_555 . 1_555 n
Si1 P31 P21 106.27(14) 1_555 . 5_555 n
Si1 P31 Si21 106.27(14) 1_555 . 1_555 n
Si1 P31 Si21 106.27(14) 1_555 . 5_555 n
Si1 P31 P31 123.64(19) 1_555 . 4_555 n
Si1 P31 Si31 123.64(19) 1_555 . 4_555 n
P21 P31 P21 105.54(11) 1_555 . 5_555 n
P21 P31 Si21 0.0 1_555 . 1_555 n
P21 P31 Si21 105.54(11) 1_555 . 5_555 n
P21 P31 P31 106.93(6) 1_555 . 4_555 n
P21 P31 Si31 106.93(6) 1_555 . 4_555 n
P21 P31 Si21 105.54(11) 5_555 . 1_555 n
P21 P31 Si21 0.0 5_555 . 5_555 n
P21 P31 P31 106.93(6) 5_555 . 4_555 n
P21 P31 Si31 106.93(6) 5_555 . 4_555 n
Si21 P31 Si21 105.54(11) 1_555 . 5_555 n
Si21 P31 P31 106.93(6) 1_555 . 4_555 n
Si21 P31 Si31 106.93(6) 1_555 . 4_555 n
Si21 P31 P31 106.93(6) 5_555 . 4_555 n
Si21 P31 Si31 106.93(6) 5_555 . 4_555 n
P31 P31 Si31 0.0 4_555 . 4_555 n
P1 Si31 Si1 0.0 1_555 . 1_555 n
P1 Si31 P21 106.27(14) 1_555 . 1_555 n
P1 Si31 P21 106.27(14) 1_555 . 5_555 n
P1 Si31 Si21 106.27(14) 1_555 . 1_555 n
P1 Si31 Si21 106.27(14) 1_555 . 5_555 n
P1 Si31 P31 123.64(19) 1_555 . 4_555 n
P1 Si31 Si31 123.64(19) 1_555 . 4_555 n
Si1 Si31 P21 106.27(14) 1_555 . 1_555 n
Si1 Si31 P21 106.27(14) 1_555 . 5_555 n
Si1 Si31 Si21 106.27(14) 1_555 . 1_555 n
Si1 Si31 Si21 106.27(14) 1_555 . 5_555 n
Si1 Si31 P31 123.64(19) 1_555 . 4_555 n
Si1 Si31 Si31 123.64(19) 1_555 . 4_555 n
P21 Si31 P21 105.54(11) 1_555 . 5_555 n
P21 Si31 Si21 0.0 1_555 . 1_555 n
P21 Si31 Si21 105.54(11) 1_555 . 5_555 n
P21 Si31 P31 106.93(6) 1_555 . 4_555 n
P21 Si31 Si31 106.93(6) 1_555 . 4_555 n
P21 Si31 Si21 105.54(11) 5_555 . 1_555 n
P21 Si31 Si21 0.0 5_555 . 5_555 n
P21 Si31 P31 106.93(6) 5_555 . 4_555 n
P21 Si31 Si31 106.93(6) 5_555 . 4_555 n
Si21 Si31 Si21 105.54(11) 1_555 . 5_555 n
Si21 Si31 P31 106.93(6) 1_555 . 4_555 n
Si21 Si31 Si31 106.93(6) 1_555 . 4_555 n
Si21 Si31 P31 106.93(6) 5_555 . 4_555 n
Si21 Si31 Si31 106.93(6) 5_555 . 4_555 n
P31 Si31 Si31 0.0 4_555 . 4_555 n
loop_
_geom_bond_atom_site_label_1
_geom_bond_atom_site_label_2
_geom_bond_distance
_geom_bond_site_symmetry_1
_geom_bond_site_symmetry_2
_geom_bond_publ_flag
Te1 P21 3.1820(27) . 1_555 n
Te1 P21 3.1820(27) . 4_555 n
Te1 P21 3.1820(27) . 5_555 n
Te1 P21 3.1820(27) . 6_555 n
Te1 P21 3.1820(27) . 7_555 n
Te1 P21 3.1820(27) . 8_555 n
Te1 P21 3.1820(27) . 9_555 n
Te1 P21 3.1820(27) . -1_555 n
Te1 Si21 3.1820(27) . 1_555 n
Te1 Si21 3.1820(27) . 4_555 n
Te1 Si21 3.1820(27) . 5_555 n
Te1 Si21 3.1820(27) . 6_555 n
Te1 Si21 3.1820(27) . 7_555 n
Te1 Si21 3.1820(27) . 8_555 n
Te1 Si21 3.1820(27) . 9_555 n
Te1 Si21 3.1820(27) . -1_555 n
Te1 P31 3.2749(21) . 1_555 n
Te1 P31 3.2749(21) . 2_555 n
Te1 P31 3.2749(21) . 3_555 n
Te1 P31 3.2749(21) . 4_555 n
Te1 P31 3.2749(21) . 5_555 n
Te1 P31 3.2749(21) . 6_555 n
Te1 P31 3.2749(21) . 7_555 n
Te1 P31 3.2749(21) . 8_555 n
Te1 P31 3.2749(21) . 12_555 n
Te1 P31 3.2749(21) . -4_555 n
Te1 P31 3.2749(21) . -5_555 n
Te1 P31 3.2749(21) . -6_555 n
Te1 Si31 3.2749(21) . 1_555 n
Te1 Si31 3.2749(21) . 2_555 n
Te1 Si31 3.2749(21) . 3_555 n
Te1 Si31 3.2749(21) . 4_555 n
Te1 Si31 3.2749(21) . 5_555 n
Te1 Si31 3.2749(21) . 6_555 n
Te1 Si31 3.2749(21) . 7_555 n
Te1 Si31 3.2749(21) . 8_555 n
Te1 Si31 3.2749(21) . 12_555 n
Te1 Si31 3.2749(21) . -4_555 n
Te1 Si31 3.2749(21) . -5_555 n
Te1 Si31 3.2749(21) . -6_555 n
Te2 P22 3.1655(23) . 1_555 n
Te2 P22 3.1655(23) . 4_556 n
Te2 P22 3.1655(23) . 5_655 n
Te2 P22 3.1655(23) . 6_565 n
Te2 P22 3.1655(23) . 7_656 n
Te2 P22 3.1655(23) . 8_665 n
Te2 P22 3.1655(23) . 9_566 n
Te2 P22 3.1655(23) . -1_666 n
Te3 Si32 3.268(4) . 1_555 n
Te3 Si32 3.268(4) . 4_556 n
Te3 Si32 3.268(4) . 10_556 n
Te3 Si32 3.268(4) . -4_565 n
P1 Si32 2.325(6) . 1_555 n
P1 Si32 2.325(6) . -4_565 n
P1 P31 2.316(5) . 1_555 n
P1 P31 2.316(5) . -4_565 n
P1 Si31 2.316(5) . 1_555 n
P1 Si31 2.316(5) . -4_565 n
Si1 Si32 2.325(6) . 1_555 n
Si1 Si32 2.325(6) . -4_565 n
Si1 P31 2.316(5) . 1_555 n
Si1 P31 2.316(5) . -4_565 n
Si1 Si31 2.316(5) . 1_555 n
Si1 Si31 2.316(5) . -4_565 n
P21 Te1 3.1820(27) . 1_555 n
P21 P22 2.2935(34) . 1_555 n
P21 P31 2.3073(15) . 1_555 n
P21 P31 2.3073(15) . 2_555 n
P21 P31 2.3073(15) . 3_555 n
P21 Si31 2.3073(15) . 1_555 n
P21 Si31 2.3073(15) . 2_555 n
P21 Si31 2.3073(15) . 3_555 n
Si21 Te1 3.1820(27) . 1_555 n
Si21 P22 2.2935(34) . 1_555 n
Si21 P31 2.3073(15) . 1_555 n
Si21 P31 2.3073(15) . 2_555 n
Si21 P31 2.3073(15) . 3_555 n
Si21 Si31 2.3073(15) . 1_555 n
Si21 Si31 2.3073(15) . 2_555 n
Si21 Si31 2.3073(15) . 3_555 n
P22 Te2 3.1655(23) . 1_555 n
P22 P21 2.2935(34) . 1_555 n
P22 Si21 2.2935(34) . 1_555 n
P22 Si32 2.3277(15) . 1_555 n
P22 Si32 2.3277(15) . 2_555 n
P22 Si32 2.3277(15) . 3_555 n
Si32 Te3 3.268(4) . 1_555 n
Si32 Te3 3.268(4) . 12_566 n
Si32 P1 2.325(6) . 1_555 n
Si32 Si1 2.325(6) . 1_555 n
Si32 P22 2.3277(15) . 1_555 n
Si32 P22 2.3277(15) . 6_565 n
Si32 Si32 2.340(4) . 4_556 n
P31 Te1 3.2749(21) . 1_555 n
P31 P1 2.316(5) . 1_555 n
P31 Si1 2.316(5) . 1_555 n
P31 P21 2.3073(15) . 1_555 n
P31 P21 2.3073(15) . 5_555 n
P31 Si21 2.3073(15) . 1_555 n
P31 Si21 2.3073(15) . 5_555 n
P31 P31 2.330(4) . 4_555 n
P31 Si31 2.330(4) . 4_555 n
Si31 Te1 3.2749(21) . 1_555 n
Si31 P1 2.316(5) . 1_555 n
Si31 Si1 2.316(5) . 1_555 n
Si31 P21 2.3073(15) . 1_555 n
Si31 P21 2.3073(15) . 5_555 n
Si31 Si21 2.3073(15) . 1_555 n
Si31 Si21 2.3073(15) . 5_555 n
Si31 P31 2.330(4) . 4_555 n
Si31 Si31 2.330(4) . 4_555 n
loop_
_pd_meas_intensity_total
_pd_proc_ls_weight
_pd_proc_intensity_bkg_calc
_pd_calc_intensity_total
0.0(10) 0.0 54.15 .
18(9) 0.0 54.8 .
14(12) 0.0 55.5 .
35(11) 0.0 56.2 .
48(14) 0.0 56.9 .
52(12) 0.0 57.6 .
55(13) 0.0 58.3 .
51(10) 0.0 59.0 .
52(11) 0.0 59.6 .
52(9) 0.0 60.3 .
59(11) 0.0 60.9 .
58(10) 0.0 61.6 .
68(11) 0.0 62.2 .
64(9) 0.0 62.9 .
55(9) 0.0 63.5 .
52(8) 0.0 64.1 .
61(9) 0.0 64.8 .
54(8) 0.0 65.4 .
58(9) 0.0 66.0 .
55(8) 0.0 66.6 .
69(9) 0.0 67.2 .
63(8) 0.0 67.8 .
64(9) 0.0 68.4 .
64(9) 0.0 69.0 .
72(9) 0.0 69.6 .
61(7) 0.0 70.2 .
52(6) 0.0 70.8 .
55(7) 0.0 71.4 .
64(7) 0.0 71.9 .
65(7) 0.0 72.5 .
62(7) 0.0 73.1 .
73(7) 0.0 73.6 .
82(7) 0.0 74.2 .
75(7) 0.0 74.7 .
71(7) 0.0 75.3 .
72(7) 0.0 75.8 .
70(6) 0.0 76.3 .
72(7) 0.0 76.9 .
74(6) 0.0 77.4 .
72(6) 0.0 77.9 .
70(6) 0.0 78.4 .
75(7) 0.0 79.0 .
75(6) 0.0 79.5 .
82(7) 0.0 80.0 .
78(7) 0.0 80.5 .
77(7) 0.0 81.0 .
68(6) 0.0 81.5 .
73(7) 0.0 81.9 .
71(6) 0.0 82.4 .
69(7) 0.0 82.9 .
75(7) 0.0 83.4 .
76(7) 0.0 83.8 .
78(6) 0.0 84.3 .
70(6) 0.0 84.8 .
78(6) 0.0 85.2 .
76(6) 0.0 85.7 .
74(6) 0.0 86.1 .
81(6) 0.0 86.6 .
91(6) 0.0 87.0 .
88(6) 0.0 87.5 .
90(6) 0.0 87.9 .
96(6) 0.0 88.3 .
96(6) 0.0 88.8 .
88(6) 0.0 89.2 .
98(6) 0.0 89.6 .
99(6) 0.0 90.0 .
105(6) 0.0 90.4 .
109(6) 0.0 90.8 .
109(6) 0.0 91.2 .
108(6) 0.0 91.6 .
113(6) 0.0 92.0 .
115(6) 0.0 92.4 .
123(6) 0.0 92.8 .
124(6) 0.0 93.2 .
131(6) 0.0 93.6 .
128(6) 0.0 93.9 .
132(6) 0.0 94.3 .
132(6) 0.0 94.7 .
138(6) 0.0 95.0 .
132(6) 0.0 95.4 .
128(6) 0.0 95.8 .
144(6) 0.0 96.1 .
143(6) 0.0 96.5 .
145(6) 0.0 96.8 .
145(6) 0.0 97.2 .
152(6) 0.0 97.5 .
150(6) 0.0 97.8 .
157(6) 0.0 98.2 .
158(6) 0.0 98.5 .
159(6) 0.0 98.8 .
156(6) 0.0 99.2 .
164(6) 0.0 99.5 .
158(6) 0.0 99.8 .
158(6) 0.0 100.1 .
165(6) 0.0 100.4 .
169(6) 0.0 100.7 .
159(6) 0.0 101.0 .
167(6) 0.0 101.3 .
161(6) 0.0 101.6 .
168(6) 0.0 101.9 .
162(6) 0.0 102.2 .
165(6) 0.0 102.5 .
165(6) 0.0 102.8 .
173(6) 0.0 103.1 .
168(6) 0.0 103.3 .
169(6) 0.0 103.6 .
169(6) 0.0 103.9 .
174(6) 0.0 104.1 .
174(6) 0.0 104.4 .
173(6) 0.0 104.7 .
163(6) 0.0 104.9 .
163(6) 0.0 105.2 .
169(6) 0.0 105.4 .
167(6) 0.0 105.7 .
163(6) 0.0 105.9 .
168(6) 0.0 106.2 .
170(6) 0.0 106.4 .
167(5) 0.0 106.7 .
172(6) 0.0 106.9 .
166(5) 0.0 107.1 .
178(6) 0.0 107.4 .
168(6) 0.0 107.6 .
171(6) 0.0 107.8 .
172(6) 0.0 108.0 .
172(5) 0.0 108.3 .
176(5) 0.0 108.5 .
181(6) 0.0 108.7 .
180(5) 0.0 108.9 .
178(6) 0.0 109.1 .
172(5) 0.0 109.3 .
176(6) 0.0 109.5 .
179(5) 0.0 109.7 .
176(5) 0.0 109.9 .
175(5) 0.0 110.1 .
177(5) 0.0 110.3 .
178(5) 0.0 110.5 .
174(5) 0.0 110.7 .
175(5) 0.0 110.9 .
176(5) 0.0 111.1 .
174(5) 0.0 111.2 .
170(5) 0.0 111.4 .
182(5) 0.0 111.6 .
182(5) 0.0 111.8 .
180(5) 0.0 111.9 .
176(5) 0.0 112.1 .
176(5) 0.0 112.3 .
183(5) 0.0 112.4 .
178(5) 0.0 112.6 .
179(5) 0.0 112.8 .
178(5) 0.0 112.9 .
173(5) 0.0 113.1 .
179(5) 0.0 113.2 .
172(5) 0.0 113.4 .
174(5) 0.0 113.5 .
164(5) 0.0 113.7 .
168(5) 0.0 113.8 .
167(5) 0.0 114.0 .
165(5) 0.0 114.1 .
161(5) 0.0 114.2 .
165(5) 0.0 114.4 .
166(5) 0.0 114.5 .
162(5) 0.0 114.6 .
161(5) 0.0 114.8 .
160(5) 0.0 114.9 .
156(4) 0.0 115.0 .
156(4) 0.0 115.1 .
155(4) 0.0 115.3 .
151(4) 0.0 115.4 .
151(4) 0.0 115.5 .
152(4) 0.0 115.6 .
152(4) 0.0 115.7 .
153(4) 0.0 115.8 .
144(4) 0.0 115.9 .
154(4) 0.0 116.0 .
151(4) 0.0 116.2 .
149(4) 0.0 116.3 .
149(4) 0.0 116.4 .
146(4) 0.0 116.5 .
147(4) 0.0 116.6 .
149(4) 0.0 116.7 .
144(4) 0.0 116.7 .
145(4) 0.0 116.8 .
142(4) 0.0 116.9 .
148(4) 0.0 117.0 .
145(4) 0.0 117.1 .
138(4) 0.0 117.2 .
137(4) 0.0 117.3 .
145(4) 0.0 117.4 .
146(4) 0.0 117.4 .
146(4) 0.0 117.5 .
141(4) 0.0 117.6 .
136(4) 0.0 117.7 .
137(4) 0.0 117.8 .
139(4) 0.0 117.8 .
148(4) 0.0 117.9 .
146(4) 0.0 118.0 .
138(4) 0.0 118.0 .
137(4) 0.0 118.1 .
139(4) 0.0 118.2 .
138(4) 0.0 118.2 .
138(4) 0.0 118.3 .
137(4) 0.0 118.4 .
137(4) 0.0 118.4 .
139(4) 0.0 118.5 .
138(4) 0.0 118.5 .
129(4) 0.0 118.6 .
134(4) 0.0 118.6 .
129(4) 0.0 118.7 .
134(4) 0.0 118.7 .
134(4) 0.0 118.8 .
133(4) 0.0 118.8 .
134(4) 0.0 118.9 .
134(4) 0.0 118.9 .
133(4) 0.0 119.0 .
133(4) 0.0 119.0 .
139(4) 0.0 119.1 .
132(4) 0.0 119.1 .
131(4) 0.0 119.2 .
128(4) 0.0 119.2 .
127(4) 0.0 119.2 .
131(4) 0.0 119.3 .
134(4) 0.0 119.3 .
131(4) 0.0 119.3 .
125(4) 0.0 119.4 .
127(4) 0.0 119.4 .
128(4) 0.0 119.4 .
131(4) 0.0 119.5 .
129(4) 0.0 119.5 .
131(4) 0.0 119.5 .
131(4) 0.0 119.5 .
133(4) 0.0 119.6 .
133(4) 0.0 119.6 .
136(4) 0.0 119.6 .
129(4) 0.0 119.6 .
132(4) 0.0 119.6 .
131(4) 0.0 119.7 .
124(4) 0.0 119.7 .
123(4) 0.0 119.7 .
123(4) 0.0 119.7 .
128(4) 0.0 119.7 .
124(4) 0.0 119.7 .
129(4) 0.0 119.8 .
128(4) 0.0 119.8 .
130(4) 0.0 119.8 .
128(4) 0.0 119.8 .
131(4) 0.0 119.8 .
128(4) 0.0 119.8 .
129(4) 0.0 119.8 .
124(4) 0.0 119.8 .
127(4) 0.0 119.8 .
125(4) 0.0 119.8 .
126(4) 0.0 119.8 .
125(4) 0.0 119.8 .
124(4) 0.0 119.8 .
123(4) 0.0 119.8 .
128(4) 0.0 119.8 .
122(4) 0.0 119.8 .
123(4) 0.0 119.8 .
124(4) 0.0 119.8 .
122(4) 0.0 119.8 .
126(4) 0.0 119.8 .
125(4) 0.0 119.8 .
124(4) 0.0 119.8 .
123(4) 0.0 119.8 .
118(4) 0.0 119.8 .
123(4) 0.0 119.8 .
125(4) 0.0 119.8 .
124(4) 0.0 119.8 .
120(4) 0.0 119.8 .
124(4) 0.0 119.8 .
123(4) 0.0 119.8 .
125(4) 0.0 119.7 .
126(4) 0.0 119.7 .
121(4) 0.0 119.7 .
123(4) 0.0 119.7 .
124(4) 0.0 119.7 .
125(4) 0.0 119.7 .
124(4) 0.0 119.7 .
120(4) 0.0 119.6 .
119(4) 0.0 119.6 .
127(4) 0.0 119.6 .
123(4) 0.0 119.6 .
120(4) 0.0 119.6 .
117(4) 0.0 119.6 .
122(4) 0.0 119.5 .
120(4) 0.0 119.5 .
123(4) 0.0 119.5 .
124(4) 0.0 119.5 .
116(4) 0.0 119.4 .
118(4) 0.0 119.4 .
116(4) 0.0 119.4 .
116(4) 0.0 119.4 .
118(4) 0.0 119.4 .
122(4) 0.0 119.3 .
123(4) 0.0 119.3 .
116(4) 0.0625 119.3 119.3
117(4) 0.0625 119.2 119.3
121(4) 0.0625 119.2 119.2
123(4) 0.0625 119.2 119.2
120(4) 0.0625 119.2 119.2
120(4) 0.0625 119.1 119.1
120(4) 0.0625 119.1 119.1
119(4) 0.0625 119.1 119.1
120(4) 0.0625 119.1 119.1
118(4) 0.0625 119.0 119.0
120(4) 0.0625 119.0 119.0
119(4) 0.0625 119.0 119.0
123(4) 0.0625 118.9 118.9
122(4) 0.0625 118.9 118.9
110(4) 0.0625 118.9 118.9
115(4) 0.0625 118.8 118.8
122(4) 0.0625 118.8 118.8
118(4) 0.0625 118.8 118.8
115(4) 0.0625 118.7 118.7
119(4) 0.0625 118.7 118.7
114(4) 0.0625 118.7 118.7
115(4) 0.0625 118.6 118.6
116(4) 0.0625 118.6 118.6
123(4) 0.0625 118.6 118.6
118(4) 0.0625 118.5 118.5
115(4) 0.0625 118.5 118.5
118(4) 0.0625 118.4 118.4
120(4) 0.0625 118.4 118.4
117(4) 0.0625 118.4 118.4
118(4) 0.0625 118.3 118.3
117(4) 0.0625 118.3 118.3
114(4) 0.0625 118.3 118.3
118(4) 0.0625 118.2 118.2
121(4) 0.0625 118.2 118.2
125(4) 0.0625 118.1 118.1
121(4) 0.0625 118.1 118.1
121(4) 0.0625 118.1 118.1
118(4) 0.0625 118.0 118.0
122(4) 0.0625 118.0 118.0
125(4) 0.0625 117.9 117.9
120(4) 0.0625 117.9 117.9
117(4) 0.0625 117.9 117.9
124(4) 0.0625 117.8 117.8
121(4) 0.0625 117.8 117.8
113(4) 0.0625 117.7 117.7
115(4) 0.0625 117.7 117.7
127(4) 0.0625 117.6 117.6
125(4) 0.0625 117.6 117.6
118(4) 0.0625 117.6 117.6
118(4) 0.0625 117.5 117.5
116(4) 0.0625 117.5 117.5
117(4) 0.0625 117.4 117.4
120(4) 0.0625 117.4 117.4
118(4) 0.0625 117.3 117.3
119(4) 0.0625 117.3 117.3
121(4) 0.0625 117.2 117.3
111(4) 0.0625 117.2 117.2
119(4) 0.0625 117.2 117.2
123(4) 0.0625 117.1 117.1
115(4) 0.0625 117.1 117.1
118(4) 0.0625 117.0 117.0
122(4) 0.0625 117.0 117.0
119(4) 0.0625 116.9 116.9
115(4) 0.0625 116.9 116.9
114(4) 0.0625 116.8 116.8
117(4) 0.0625 116.8 116.8
118(4) 0.0625 116.7 116.8
118(4) 0.0625 116.7 116.7
121(4) 0.0625 116.6 116.7
119(4) 0.0625 116.6 116.6
114(4) 0.0625 116.5 116.6
116(4) 0.0625 116.5 116.5
115(4) 0.0625 116.5 116.5
116(4) 0.0625 116.4 116.4
113(4) 0.0625 116.4 116.4
117(4) 0.0625 116.3 116.3
118(4) 0.0625 116.3 116.3
119(4) 0.0625 116.2 116.3
111(4) 0.0625 116.2 116.2
111(4) 0.0625 116.1 116.2
115(4) 0.0625 116.1 116.1
116(4) 0.0625 116.0 116.1
116(4) 0.0625 116.0 116.0
116(4) 0.0625 115.9 116.0
113(4) 0.0625 115.9 116.0
111(4) 0.0625 115.8 116.0
118(4) 0.0625 115.8 116.0
118(4) 0.0625 115.7 116.0
118(4) 0.0625 115.7 116.1
120(4) 0.0625 115.6 116.4
116(4) 0.0625 115.6 116.8
118(4) 0.0625 115.5 117.4
125(4) 0.0625 115.5 118.2
117(4) 0.0625 115.4 119.1
116(4) 0.0625 115.4 120.2
116(4) 0.0625 115.3 121.1
122(4) 0.0625 115.3 121.7
123(4) 0.0625 115.2 121.8
114(4) 0.0625 115.2 121.4
117(4) 0.0625 115.1 120.4
117(4) 0.0625 115.1 119.2
114(4) 0.0625 115.0 118.0
114(4) 0.0625 115.0 116.9
118(4) 0.0625 114.9 116.1
122(4) 0.0625 114.9 115.6
114(4) 0.0625 114.8 115.2
109.0(30) 0.1111 114.76 115.01
114(4) 0.0625 114.7 114.9
114(4) 0.0625 114.7 114.8
116(4) 0.0625 114.6 114.7
113(4) 0.0625 114.6 114.6
113(4) 0.0625 114.5 114.6
112(4) 0.0625 114.5 114.5
112(4) 0.0625 114.4 114.5
113(4) 0.0625 114.3 114.4
107(4) 0.0625 114.3 114.3
114(4) 0.0625 114.2 114.3
111(4) 0.0625 114.2 114.2
110(4) 0.0625 114.1 114.2
111(4) 0.0625 114.1 114.1
116(4) 0.0625 114.0 114.1
113(4) 0.0625 114.0 114.0
107(4) 0.0625 113.9 114.0
105(4) 0.0625 113.9 113.9
112(4) 0.0625 113.8 113.9
115(4) 0.0625 113.8 113.8
119(4) 0.0625 113.7 113.7
113(4) 0.0625 113.7 113.7
113(4) 0.0625 113.6 113.6
115(4) 0.0625 113.6 113.6
114(4) 0.0625 113.5 113.5
116(4) 0.0625 113.5 113.5
113(4) 0.0625 113.4 113.4
113(4) 0.0625 113.4 113.4
116(4) 0.0625 113.3 113.3
114(4) 0.0625 113.3 113.3
118(4) 0.0625 113.2 113.2
111(4) 0.0625 113.2 113.2
112(4) 0.0625 113.1 113.1
116(4) 0.0625 113.1 113.1
113(4) 0.0625 113.0 113.0
111(4) 0.0625 113.0 113.0
116(4) 0.0625 112.9 112.9
116(4) 0.0625 112.8 112.9
117(4) 0.0625 112.8 112.8
112(4) 0.0625 112.7 112.8
108.0(30) 0.1111 112.69 112.70
108.0(30) 0.1111 112.64 112.65
113(4) 0.0625 112.6 112.6
113.0(30) 0.1111 112.54 112.55
109.0(30) 0.1111 112.48 112.49
109.0(30) 0.1111 112.43 112.44
108.0(30) 0.1111 112.38 112.39
107(4) 0.0625 112.3 112.3
111(4) 0.0625 112.3 112.3
116(4) 0.0625 112.2 112.2
118(4) 0.0625 112.2 112.2
116(4) 0.0625 112.1 112.1
112(4) 0.0625 112.1 112.1
111(4) 0.0625 112.0 112.0
110.0(30) 0.1111 111.97 111.98
110(4) 0.0625 111.9 111.9
117(4) 0.0625 111.9 111.9
114.0(30) 0.1111 111.81 111.83
109.0(30) 0.1111 111.76 111.79
110(4) 0.0625 111.7 111.7
113.0(30) 0.1111 111.66 111.69
113(4) 0.0625 111.6 111.6
113(4) 0.0625 111.6 111.6
107.0(30) 0.1111 111.51 111.54
109(4) 0.0625 111.5 111.5
106.0(30) 0.1111 111.40 111.45
111(4) 0.0625 111.4 111.4
115(4) 0.0625 111.3 111.4
112(4) 0.0625 111.3 111.3
106.0(30) 0.1111 111.20 111.30
113(4) 0.0625 111.1 111.3
113(4) 0.0625 111.1 111.3
114(4) 0.0625 111.0 111.4
116(4) 0.0625 111.0 111.5
115.0(30) 0.1111 110.95 111.78
112(4) 0.0625 110.9 112.2
115(4) 0.0625 110.8 112.7
112(4) 0.0625 110.8 113.3
109(4) 0.0625 110.7 114.0
115(4) 0.0625 110.7 114.6
118(4) 0.0625 110.6 114.9
113(4) 0.0625 110.6 114.8
110(4) 0.0625 110.5 114.3
112(4) 0.0625 110.5 113.5
116(4) 0.0625 110.4 112.6
112(4) 0.0625 110.4 111.8
116(4) 0.0625 110.3 111.2
117(4) 0.0625 110.3 110.8
111(4) 0.0625 110.2 110.5
109(4) 0.0625 110.2 110.4
111.0(30) 0.1111 110.14 110.27
117(4) 0.0625 110.1 110.2
114(4) 0.0625 110.0 110.1
113(4) 0.0625 110.0 110.1
116(4) 0.0625 109.9 110.0
111(4) 0.0625 109.9 109.9
106.0(30) 0.1111 109.84 109.89
106(4) 0.0625 109.8 109.8
114(4) 0.0625 109.7 109.8
116(4) 0.0625 109.7 109.7
107(4) 0.0625 109.6 109.7
108(4) 0.0625 109.6 109.6
114(4) 0.0625 109.5 109.6
108(4) 0.0625 109.5 109.5
108(4) 0.0625 109.4 109.5
112(4) 0.0625 109.4 109.4
111(4) 0.0625 109.4 109.4
107(4) 0.0625 109.3 109.3
110(4) 0.0625 109.3 109.3
111(4) 0.0625 109.2 109.2
116(4) 0.0625 109.2 109.2
111.0(30) 0.1111 109.11 109.13
111(4) 0.0625 109.1 109.1
114(4) 0.0625 109.0 109.0
110(4) 0.0625 109.0 109.0
110(4) 0.0625 108.9 108.9
111(4) 0.0625 108.9 108.9
110(4) 0.0625 108.8 108.8
113(4) 0.0625 108.8 108.8
110(4) 0.0625 108.7 108.8
109(4) 0.0625 108.7 108.7
102.0(30) 0.1111 108.62 108.66
104.0(30) 0.1111 108.57 108.61
109(4) 0.0625 108.5 108.6
113(4) 0.0625 108.5 108.5
107(4) 0.0625 108.4 108.5
112(4) 0.0625 108.4 108.4
110.0(30) 0.1111 108.33 108.38
111(4) 0.0625 108.3 108.3
112(4) 0.0625 108.2 108.3
110(4) 0.0625 108.2 108.2
110(4) 0.0625 108.1 108.2
111(4) 0.0625 108.1 108.2
115(4) 0.0625 108.0 108.1
113(4) 0.0625 108.0 108.1
112(4) 0.0625 108.0 108.0
111(4) 0.0625 107.9 108.0
110(4) 0.0625 107.9 108.0
111(4) 0.0625 107.8 107.9
110(4) 0.0625 107.8 107.9
110(4) 0.0625 107.7 107.9
106(4) 0.0625 107.7 107.8
113(4) 0.0625 107.6 107.8
114(4) 0.0625 107.6 107.8
112(4) 0.0625 107.5 107.8
108(4) 0.0625 107.5 107.8
106.0(30) 0.1111 107.44 107.84
117(4) 0.0625 107.4 108.0
114(4) 0.0625 107.3 108.3
116(4) 0.0625 107.3 108.9
114(4) 0.0625 107.3 109.9
113(4) 0.0625 107.2 111.4
111(4) 0.0625 107.2 113.6
111(4) 0.0625 107.1 116.2
114(4) 0.0625 107.1 119.0
110(4) 0.0625 107.0 121.4
120(4) 0.0625 107.0 122.7
123(4) 0.0625 106.9 122.3
123(4) 0.0625 106.9 120.3
119(4) 0.0625 106.8 117.3
120(4) 0.0625 106.8 114.1
115(4) 0.0625 106.8 111.4
112(4) 0.0625 106.7 109.5
107(4) 0.0625 106.7 108.2
107(4) 0.0625 106.6 107.5
106(4) 0.0625 106.6 107.1
106(4) 0.0625 106.5 106.9
110(4) 0.0625 106.5 106.8
112(4) 0.0625 106.4 106.7
107(4) 0.0625 106.4 106.6
108(4) 0.0625 106.3 106.5
113(4) 0.0625 106.3 106.5
112(4) 0.0625 106.3 106.4
114(4) 0.0625 106.2 106.4
114(4) 0.0625 106.2 106.3
107(4) 0.0625 106.1 106.3
105(4) 0.0625 106.1 106.2
106(4) 0.0625 106.0 106.2
107(4) 0.0625 106.0 106.1
106(4) 0.0625 105.9 106.1
101.0(30) 0.1111 105.90 106.02
104.0(30) 0.1111 105.86 105.98
103.0(30) 0.1111 105.81 105.93
107(4) 0.0625 105.8 105.9
109(4) 0.0625 105.7 105.8
109(4) 0.0625 105.7 105.8
106(4) 0.0625 105.6 105.8
102.0(30) 0.1111 105.59 105.72
108(4) 0.0625 105.6 105.7
106(4) 0.0625 105.5 105.6
101(4) 0.0625 105.5 105.6
102(4) 0.0625 105.4 105.6
103.0(30) 0.1111 105.38 105.52
105.0(30) 0.1111 105.33 105.48
105.0(30) 0.1111 105.29 105.44
107(4) 0.0625 105.2 105.4
103.0(30) 0.1111 105.20 105.38
105.0(30) 0.1111 105.16 105.34
107(4) 0.0625 105.1 105.3
104.0(30) 0.1111 105.08 105.28
105(4) 0.0625 105.0 105.3
108(4) 0.0625 105.0 105.2
106(4) 0.0625 104.9 105.2
103(4) 0.0625 104.9 105.2
107(4) 0.0625 104.9 105.2
102.0(30) 0.1111 104.82 105.16
104(4) 0.0625 104.8 105.2
107(4) 0.0625 104.7 105.2
110(4) 0.0625 104.7 105.2
106.0(30) 0.1111 104.65 105.17
103.0(30) 0.1111 104.61 105.21
104(4) 0.0625 104.6 105.3
103.0(30) 0.1111 104.52 105.37
107.0(30) 0.1111 104.48 105.56
109(4) 0.0625 104.4 105.9
109(4) 0.0625 104.4 106.6
112(4) 0.0625 104.4 108.0
116(4) 0.0625 104.3 110.4
116(4) 0.0625 104.3 114.5
120(4) 0.0625 104.2 120.5
125(4) 0.0625 104.2 128.4
131(4) 0.0625 104.1 137.4
137(4) 0.0625 104.1 145.9
146(4) 0.0625 104.1 151.7
157(4) 0.0625 104.0 152.6
144(4) 0.0625 104.0 148.0
140(4) 0.0625 103.9 139.4
133(4) 0.0625 103.9 129.6
124(4) 0.0625 103.9 120.8
118(4) 0.0625 103.8 114.1
112(4) 0.0625 103.8 109.7
110(4) 0.0625 103.7 107.1
110(4) 0.0625 103.7 105.8
107(4) 0.0625 103.7 105.1
104.0(30) 0.1111 103.62 104.69
104.0(30) 0.1111 103.58 104.46
101(4) 0.0625 103.5 104.3
98.0(30) 0.1111 103.50 104.15
102.0(30) 0.1111 103.46 104.03
102.0(30) 0.1111 103.42 103.93
100.0(30) 0.1111 103.38 103.84
102.0(30) 0.1111 103.34 103.76
104.0(30) 0.1111 103.30 103.68
103.0(30) 0.1111 103.26 103.61
107.0(30) 0.1111 103.22 103.55
102.0(30) 0.1111 103.18 103.49
103.0(30) 0.1111 103.14 103.43
103(4) 0.0625 103.1 103.4
100(4) 0.0625 103.1 103.3
103(4) 0.0625 103.0 103.3
104(4) 0.0625 103.0 103.2
104(4) 0.0625 102.9 103.2
105(4) 0.0625 102.9 103.1
103(4) 0.0625 102.9 103.1
95(4) 0.0625 102.8 103.1
98(4) 0.0625 102.8 103.0
104(4) 0.0625 102.7 103.0
104(4) 0.0625 102.7 102.9
102(4) 0.0625 102.7 102.9
101.0(30) 0.1111 102.63 102.87
100(4) 0.0625 102.6 102.8
103(4) 0.0625 102.5 102.8
104(4) 0.0625 102.5 102.8
95.0(30) 0.1111 102.47 102.76
100.0(30) 0.1111 102.43 102.74
100.0(30) 0.1111 102.39 102.72
104(4) 0.0625 102.4 102.7
100(4) 0.0625 102.3 102.7
99(4) 0.0625 102.3 102.7
99.0(30) 0.1111 102.24 102.70
101(4) 0.0625 102.2 102.7
99(4) 0.0625 102.2 102.7
102(4) 0.0625 102.1 102.8
105(4) 0.0625 102.1 102.9
96.0(30) 0.1111 102.05 102.97
107(4) 0.0625 102.0 103.2
104(4) 0.0625 102.0 103.6
112(4) 0.0625 101.9 104.5
120(4) 0.0625 101.9 106.2
118(4) 0.0625 101.9 109.1
118(4) 0.0625 101.8 113.9
125(4) 0.0625 101.8 120.7
127(4) 0.0625 101.8 129.0
137(4) 0.0625 101.7 137.6
142(4) 0.0625 101.7 144.5
159(4) 0.0625 101.6 147.3
155(4) 0.0625 101.6 144.7
149(4) 0.0625 101.6 137.6
140(4) 0.0625 101.5 128.4
134(4) 0.0625 101.5 119.6
126(4) 0.0625 101.5 112.7
120(4) 0.0625 101.4 107.9
120(4) 0.0625 101.4 105.1
117(4) 0.0625 101.3 103.5
116(4) 0.0625 101.3 102.7
114(4) 0.0625 101.3 102.3
101(4) 0.0625 101.2 102.1
104(4) 0.0625 101.2 101.9
108(4) 0.0625 101.2 101.8
106(4) 0.0625 101.1 101.6
101(4) 0.0625 101.1 101.5
104(4) 0.0625 101.1 101.4
100(4) 0.0625 101.0 101.4
98(4) 0.0625 101.0 101.3
93(4) 0.0625 100.9 101.2
97.0(30) 0.1111 100.91 101.17
98.0(30) 0.1111 100.87 101.11
97.0(30) 0.1111 100.84 101.05
101.0(30) 0.1111 100.80 101.00
104(4) 0.0625 100.8 100.9
97.0(30) 0.1111 100.73 100.90
91.0(30) 0.1111 100.70 100.85
94.0(30) 0.1111 100.66 100.80
99.0(30) 0.1111 100.63 100.76
100.0(30) 0.1111 100.59 100.71
99.0(30) 0.1111 100.55 100.67
103.0(30) 0.1111 100.52 100.63
97.0(30) 0.1111 100.48 100.59
98(4) 0.0625 100.4 100.5
102.0(30) 0.1111 100.41 100.51
100.0(30) 0.1111 100.38 100.47
98.0(30) 0.1111 100.35 100.43
98.0(30) 0.1111 100.31 100.39
94.0(30) 0.1111 100.28 100.35
95(4) 0.0625 100.2 100.3
101(4) 0.0625 100.2 100.3
104.0(30) 0.1111 100.17 100.23
96.0(30) 0.1111 100.14 100.20
93.0(30) 0.1111 100.10 100.16
100.0(30) 0.1111 100.07 100.12
99.0(30) 0.1111 100.04 100.09
95.0(30) 0.1111 100.00 100.05
97.0(30) 0.1111 99.97 100.01
92(4) 0.0625 99.9 100.0
97(4) 0.0625 99.9 99.9
100.0(30) 0.1111 99.87 99.91
100.0(30) 0.1111 99.83 99.87
95.0(30) 0.1111 99.80 99.84
93.0(30) 0.1111 99.76 99.76
93.0(30) 0.1111 99.73 99.73
98.0(30) 0.1111 99.70 99.70
96(4) 0.0625 99.7 99.7
94(4) 0.0625 99.6 99.6
94.0(30) 0.1111 99.60 99.60
96.0(30) 0.1111 99.56 99.57
97.0(30) 0.1111 99.53 99.53
98.0(30) 0.1111 99.50 99.50
94.0(30) 0.1111 99.46 99.47
100.0(30) 0.1111 99.43 99.43
105.0(30) 0.1111 99.40 99.40
96.0(30) 0.1111 99.37 99.37
95.0(30) 0.1111 99.33 99.34
95.0(30) 0.1111 99.30 99.30
102.0(30) 0.1111 99.27 99.27
97.0(30) 0.1111 99.24 99.24
98.0(30) 0.1111 99.20 99.21
97.0(30) 0.1111 99.17 99.17
98.0(30) 0.1111 99.14 99.14
96.0(30) 0.1111 99.11 99.11
94.0(30) 0.1111 99.07 99.08
94.0(30) 0.1111 99.04 99.04
98.0(30) 0.1111 99.01 99.01
100.0(30) 0.1111 98.98 98.98
96.0(30) 0.1111 98.95 98.95
93.0(30) 0.1111 98.91 98.92
98(4) 0.0625 98.9 98.9
96.0(30) 0.1111 98.85 98.85
96.0(30) 0.1111 98.82 98.82
97.0(30) 0.1111 98.79 98.79
96.0(30) 0.1111 98.75 98.76
94.0(30) 0.1111 98.72 98.73
98.0(30) 0.1111 98.69 98.70
99.0(30) 0.1111 98.66 98.67
96.0(30) 0.1111 98.63 98.64
96.0(30) 0.1111 98.60 98.61
94.0(30) 0.1111 98.57 98.58
95.0(30) 0.1111 98.54 98.55
100.0(30) 0.1111 98.50 98.52
98.0(30) 0.1111 98.47 98.49
99.0(30) 0.1111 98.44 98.46
88.0(30) 0.1111 98.41 98.43
93.0(30) 0.1111 98.38 98.40
99.0(30) 0.1111 98.35 98.37
102.0(30) 0.1111 98.32 98.34
93.0(30) 0.1111 98.29 98.32
100.0(30) 0.1111 98.26 98.30
96.0(30) 0.1111 98.23 98.28
98.0(30) 0.1111 98.20 98.27
94.0(30) 0.1111 98.17 98.29
100.0(30) 0.1111 98.14 98.36
102.0(30) 0.1111 98.11 98.49
99.0(30) 0.1111 98.08 98.71
99.0(30) 0.1111 98.05 99.01
99.0(30) 0.1111 98.02 99.36
94.0(30) 0.1111 97.99 99.65
92.0(30) 0.1111 97.96 99.79
91.0(30) 0.1111 97.93 99.70
94.0(30) 0.1111 97.90 99.41
97.0(30) 0.1111 97.87 99.01
100.0(30) 0.1111 97.84 98.61
101.0(30) 0.1111 97.81 98.29
96.0(30) 0.1111 97.78 98.06
96.0(30) 0.1111 97.75 97.91
92.0(30) 0.1111 97.72 97.82
97.0(30) 0.1111 97.69 97.76
96.0(30) 0.1111 97.66 97.72
103.0(30) 0.1111 97.63 97.68
104.0(30) 0.1111 97.61 97.65
99.0(30) 0.1111 97.58 97.62
100.0(30) 0.1111 97.55 97.59
97.0(30) 0.1111 97.52 97.56
98.0(30) 0.1111 97.49 97.53
95.0(30) 0.1111 97.46 97.50
94.0(30) 0.1111 97.43 97.47
93.0(30) 0.1111 97.40 97.44
99.0(30) 0.1111 97.38 97.41
100.0(30) 0.1111 97.35 97.39
101.0(30) 0.1111 97.32 97.36
101.0(30) 0.1111 97.29 97.33
94.0(30) 0.1111 97.26 97.31
95.0(30) 0.1111 97.23 97.28
95.0(30) 0.1111 97.21 97.25
97.0(30) 0.1111 97.18 97.23
92.0(30) 0.1111 97.15 97.20
96.0(30) 0.1111 97.12 97.18
98(4) 0.0625 97.1 97.2
97.0(30) 0.1111 97.07 97.14
96.0(30) 0.1111 97.04 97.12
99.0(30) 0.1111 97.01 97.10
103(4) 0.0625 97.0 97.1
102(4) 0.0625 97.0 97.1
99.0(30) 0.1111 96.93 97.05
97.0(30) 0.1111 96.90 97.04
96.0(30) 0.1111 96.88 97.03
99.0(30) 0.1111 96.85 97.03
99.0(30) 0.1111 96.82 97.04
99.0(30) 0.1111 96.79 97.07
93.0(30) 0.1111 96.77 97.15
98.0(30) 0.1111 96.74 97.35
103.0(30) 0.1111 96.71 97.75
105(4) 0.0625 96.7 98.5
104.0(30) 0.1111 96.66 99.89
104(4) 0.0625 96.6 101.8
105(4) 0.0625 96.6 104.2
106(4) 0.0625 96.6 106.7
117(4) 0.0625 96.6 108.5
112(4) 0.0625 96.5 108.9
108(4) 0.0625 96.5 107.7
104(4) 0.0625 96.5 105.4
103.0(30) 0.1111 96.45 102.81
108.0(30) 0.1111 96.42 100.51
101(4) 0.0625 96.4 98.8
98.0(30) 0.1111 96.37 97.77
104(4) 0.0625 96.3 97.2
99(4) 0.0625 96.3 96.9
103(4) 0.0625 96.3 96.7
97.0(30) 0.1111 96.27 96.61
96.0(30) 0.1111 96.24 96.55
100.0(30) 0.1111 96.22 96.50
99.0(30) 0.1111 96.19 96.45
93.0(30) 0.1111 96.16 96.42
99(4) 0.0625 96.1 96.4
102(4) 0.0625 96.1 96.4
104(4) 0.0625 96.1 96.3
101(4) 0.0625 96.1 96.3
101(4) 0.0625 96.0 96.3
100.0(30) 0.1111 96.01 96.27
100(4) 0.0625 96.0 96.3
100.0(30) 0.1111 95.96 96.24
107.0(30) 0.1111 95.94 96.23
96.0(30) 0.1111 95.91 96.22
93.0(30) 0.1111 95.89 96.22
96.0(30) 0.1111 95.86 96.21
99.0(30) 0.1111 95.84 96.22
99.0(30) 0.1111 95.82 96.23
98.0(30) 0.1111 95.79 96.24
99.0(30) 0.1111 95.77 96.26
95.0(30) 0.1111 95.74 96.29
99.0(30) 0.1111 95.72 96.33
100.0(30) 0.1111 95.69 96.38
96(4) 0.0625 95.7 96.4
98.0(30) 0.1111 95.64 96.54
101.0(30) 0.1111 95.62 96.66
104.0(30) 0.1111 95.60 96.84
102(4) 0.0625 95.6 97.1
98(4) 0.0625 95.5 97.7
101.0(30) 0.1111 95.53 98.70
106(4) 0.0625 95.5 100.8
109(4) 0.0625 95.5 104.9
110.0(30) 0.1111 95.45 112.01
119(4) 0.0625 95.4 122.8
136(4) 0.0625 95.4 136.8
155(4) 0.0625 95.4 151.7
170(4) 0.0625 95.4 163.5
177(4) 0.0625 95.3 167.9
168(4) 0.0625 95.3 162.6
154(4) 0.0625 95.3 149.9
143(4) 0.0625 95.3 134.5
126(4) 0.0625 95.2 120.6
113(4) 0.0625 95.2 110.2
111(4) 0.0625 95.2 103.6
106(4) 0.0625 95.2 99.9
106(4) 0.0625 95.2 98.0
102(4) 0.0625 95.1 97.1
98.0(30) 0.1111 95.11 96.57
97.0(30) 0.1111 95.08 96.27
102.0(30) 0.1111 95.06 96.07
103.0(30) 0.1111 95.04 95.90
100.0(30) 0.1111 95.02 95.77
97.0(30) 0.1111 94.99 95.66
105.0(30) 0.1111 94.97 95.56
102(4) 0.0625 95.0 95.5
99.0(30) 0.1111 94.93 95.40
98.0(30) 0.1111 94.91 95.33
98.0(30) 0.1111 94.88 95.27
98.0(30) 0.1111 94.86 95.22
96(4) 0.0625 94.8 95.2
100.0(30) 0.1111 94.82 95.12
95(4) 0.0625 94.8 95.1
93.0(30) 0.1111 94.77 95.04
96.0(30) 0.1111 94.75 95.01
96.0(30) 0.1111 94.73 94.97
94.0(30) 0.1111 94.71 94.94
89.0(30) 0.1111 94.69 94.91
95.0(30) 0.1111 94.67 94.88
98(4) 0.0625 94.6 94.9
95.0(30) 0.1111 94.62 94.83
97(4) 0.0625 94.6 94.8
94.0(30) 0.1111 94.58 94.79
95.0(30) 0.1111 94.56 94.78
94(4) 0.0625 94.5 94.8
94(4) 0.0625 94.5 94.8
96(4) 0.0625 94.5 95.3
98(4) 0.0625 94.5 95.5
95.0(30) 0.1111 94.45 95.77
93.0(30) 0.1111 94.43 96.28
97.0(30) 0.1111 94.41 97.08
97(4) 0.0625 94.4 98.2
99(4) 0.0625 94.4 99.4
103(4) 0.0625 94.3 100.4
102.0(30) 0.1111 94.33 100.96
103.0(30) 0.1111 94.31 100.70
105.0(30) 0.1111 94.29 99.77
102(4) 0.0625 94.3 98.6
99.0(30) 0.1111 94.25 97.42
96.0(30) 0.1111 94.23 96.54
99.0(30) 0.1111 94.21 95.98
102(4) 0.0625 94.2 95.6
100.0(30) 0.1111 94.16 95.48
94.0(30) 0.1111 94.14 95.43
92.0(30) 0.1111 94.12 95.43
91.0(30) 0.1111 94.10 95.46
98(4) 0.0625 94.1 95.5
98(4) 0.0625 94.1 95.5
95(4) 0.0625 94.0 95.6
98(4) 0.0625 94.0 95.7
97(4) 0.0625 94.0 95.8
98(4) 0.0625 94.0 95.9
97(4) 0.0625 94.0 96.0
98(4) 0.0625 93.9 96.1
101(4) 0.0625 93.9 96.3
98.0(30) 0.1111 93.91 96.44
96.0(30) 0.1111 93.89 96.64
104.0(30) 0.1111 93.87 96.87
100.0(30) 0.1111 93.85 97.14
99.0(30) 0.1111 93.83 97.45
97.0(30) 0.1111 93.81 97.82
101(4) 0.0625 93.8 98.3
102.0(30) 0.1111 93.77 98.76
97(4) 0.0625 93.8 99.4
99(4) 0.0625 93.7 100.1
101(4) 0.0625 93.7 101.0
107(4) 0.0625 93.7 102.1
103(4) 0.0625 93.7 103.6
107(4) 0.0625 93.7 105.6
115(4) 0.0625 93.6 109.1
123(4) 0.0625 93.6 114.5
142(4) 0.0625 93.6 125.0
170(4) 0.0625 93.6 145.9
219(5) 0.0400 93.6 185.0
270(5) 0.0400 93.5 250.9
341(6) 0.02778 93.5 348.2
442(7) 0.02041 93.5 470.1
567(8) 0.01563 93.5 593.7
671(8) 0.01563 93.5 681.8
711(8) 0.01563 93.4 697.9
643(8) 0.01563 93.4 633.0
507(7) 0.02041 93.4 516.1
361(6) 0.02778 93.4 388.6
268(5) 0.0400 93.4 280.2
200(5) 0.0400 93.4 203.1
153(4) 0.0625 93.3 155.8
127(4) 0.0625 93.3 130.1
121(4) 0.0625 93.3 117.2
117(4) 0.0625 93.3 110.7
110(4) 0.0625 93.3 107.3
106(4) 0.0625 93.2 105.1
106(4) 0.0625 93.2 103.6
110(4) 0.0625 93.2 102.4
104.0(30) 0.1111 93.19 101.55
102.0(30) 0.1111 93.18 100.85
100(4) 0.0625 93.2 100.3
100(4) 0.0625 93.1 99.9
101.0(30) 0.1111 93.12 99.55
103.0(30) 0.1111 93.10 99.32
100(4) 0.0625 93.1 99.2
98.0(30) 0.1111 93.07 99.10
97(4) 0.0625 93.1 99.1
103.0(30) 0.1111 93.03 99.18
101.0(30) 0.1111 93.02 99.34
100(4) 0.0625 93.0 99.6
103(4) 0.0625 93.0 99.9
110(4) 0.0625 93.0 100.4
101(4) 0.0625 92.9 101.0
97(4) 0.0625 92.9 101.8
103(4) 0.0625 92.9 102.8
100(4) 0.0625 92.9 104.1
104(4) 0.0625 92.9 107.3
111(4) 0.0625 92.9 110.1
117(4) 0.0625 92.8 115.1
135(4) 0.0625 92.8 124.8
162(4) 0.0625 92.8 144.4
200(5) 0.0400 92.8 182.2
259(5) 0.0400 92.8 248.1
356(6) 0.02778 92.8 348.3
454(7) 0.02041 92.7 477.5
582(8) 0.01563 92.7 612.8
706(8) 0.01563 92.7 713.8
763(9) 0.01235 92.7 739.0
693(8) 0.01563 92.7 674.7
548(7) 0.02041 92.7 550.8
399(6) 0.02778 92.6 413.2
286(5) 0.0400 92.6 295.4
209(5) 0.0400 92.6 211.7
158(4) 0.0625 92.6 160.7
129(4) 0.0625 92.6 133.3
117(4) 0.0625 92.6 119.8
105(4) 0.0625 92.5 113.3
99(4) 0.0625 92.5 109.4
105(4) 0.0625 92.5 107.4
99(4) 0.0625 92.5 106.0
98(4) 0.0625 92.5 105.1
97(4) 0.0625 92.5 104.4
96(4) 0.0625 92.4 103.9
103(4) 0.0625 92.4 103.7
105(4) 0.0625 92.4 103.6
106(4) 0.0625 92.4 103.7
97(4) 0.0625 92.4 103.9
99(4) 0.0625 92.4 104.2
101.0(30) 0.1111 92.34 104.71
94(4) 0.0625 92.3 105.4
91.0(30) 0.1111 92.30 106.22
97(4) 0.0625 92.3 107.3
102(4) 0.0625 92.3 108.6
101(4) 0.0625 92.3 110.2
106.0(30) 0.1111 92.24 112.23
110.0(30) 0.1111 92.22 114.72
109.0(30) 0.1111 92.20 117.85
116(4) 0.0625 92.2 121.9
122(4) 0.0625 92.2 127.4
137(4) 0.0625 92.2 135.9
172(4) 0.0625 92.1 150.8
215(5) 0.0400 92.1 180.2
276(5) 0.0400 92.1 239.7
399(6) 0.02778 92.1 353.1
558(7) 0.02041 92.1 547.4
816(9) 0.01235 92.1 836.6
1157(11) 0.00826 92.0 1199.9
1521(12) 0.00694 92.0 1565.0
1814(13) 0.00592 92.0 1815.2
1921(14) 0.00510 92.0 1840.3
1699(13) 0.00592 92.0 1624.6
1303(11) 0.00826 92.0 1267.6
892(9) 0.01235 91.9 894.5
581(8) 0.01563 91.9 587.7
375(6) 0.02778 91.9 376.6
242(5) 0.0400 91.9 251.4
172(4) 0.0625 91.9 185.3
141(4) 0.0625 91.9 152.6
124(4) 0.0625 91.8 136.3
112(4) 0.0625 91.8 127.2
111.0(30) 0.1111 91.82 120.73
109(4) 0.0625 91.8 116.4
105.0(30) 0.1111 91.79 112.99
101.0(30) 0.1111 91.77 110.25
100.0(30) 0.1111 91.75 108.00
96.0(30) 0.1111 91.74 106.13
96.0(30) 0.1111 91.72 104.56
94.0(30) 0.1111 91.71 103.22
93.0(30) 0.1111 91.69 102.08
91.0(30) 0.1111 91.67 101.09
92.0(30) 0.1111 91.66 100.23
94.0(30) 0.1111 91.64 99.48
96.0(30) 0.1111 91.63 98.82
98.0(30) 0.1111 91.61 98.24
98.0(30) 0.1111 91.59 97.72
95.0(30) 0.1111 91.58 97.25
91.0(30) 0.1111 91.56 97.00
92.0(30) 0.1111 91.55 96.63
92.0(30) 0.1111 91.53 96.29
89.0(30) 0.1111 91.52 95.99
88(4) 0.0625 91.5 95.7
96.0(30) 0.1111 91.48 95.47
86.0(30) 0.1111 91.47 95.24
90.0(30) 0.1111 91.45 95.03
92.0(30) 0.1111 91.44 94.84
87.0(30) 0.1111 91.42 94.66
90.0(30) 0.1111 91.41 94.50
92.0(30) 0.1111 91.39 94.35
94.0(30) 0.1111 91.37 94.21
87.0(30) 0.1111 91.36 94.08
89.0(30) 0.1111 91.34 93.97
88(4) 0.0625 91.3 93.9
87.0(30) 0.1111 91.31 93.76
90.0(30) 0.1111 91.29 93.67
89.0(30) 0.1111 91.28 93.59
90.0(30) 0.1111 91.26 93.51
97.0(30) 0.1111 91.25 93.44
96.0(30) 0.1111 91.23 93.38
95.0(30) 0.1111 91.22 93.32
92.0(30) 0.1111 91.20 93.28
100(4) 0.0625 91.2 93.2
100.0(30) 0.1111 91.17 93.20
102.0(30) 0.1111 91.15 91.77
95.0(30) 0.1111 91.14 91.80
95.0(30) 0.1111 91.12 91.84
98.0(30) 0.1111 91.11 91.89
94.0(30) 0.1111 91.09 91.94
91.0(30) 0.1111 91.07 92.00
91.0(30) 0.1111 91.06 92.07
93.0(30) 0.1111 91.04 92.16
87.0(30) 0.1111 91.03 92.26
92.0(30) 0.1111 91.01 92.38
93.0(30) 0.1111 91.00 92.52
91(4) 0.0625 91.0 92.7
85.0(30) 0.1111 90.96 92.91
93.0(30) 0.1111 90.95 93.46
97.0(30) 0.1111 90.93 93.79
102.0(30) 0.1111 90.92 94.21
99.0(30) 0.1111 90.90 94.75
100.0(30) 0.1111 90.89 95.52
97.0(30) 0.1111 90.87 96.74
100(4) 0.0625 90.9 99.0
112(4) 0.0625 90.8 103.8
120(4) 0.0625 90.8 113.5
132(4) 0.0625 90.8 131.5
163(4) 0.0625 90.8 161.2
204(5) 0.0400 90.8 202.7
239(5) 0.0400 90.8 250.4
289(5) 0.0400 90.7 291.6
326(6) 0.02778 90.7 309.7
311(6) 0.02778 90.7 295.6
267(5) 0.0400 90.7 256.3
203(5) 0.0400 90.7 208.4
161(4) 0.0625 90.7 165.5
132(4) 0.0625 90.6 134.3
118(4) 0.0625 90.6 115.0
109(4) 0.0625 90.6 104.6
92.0(30) 0.1111 90.60 99.58
91.0(30) 0.1111 90.58 97.17
94.0(30) 0.1111 90.57 95.92
96.0(30) 0.1111 90.55 95.18
93.0(30) 0.1111 90.54 94.68
95.0(30) 0.1111 90.52 94.32
92.0(30) 0.1111 90.50 94.06
92.0(30) 0.1111 90.49 93.88
92.0(30) 0.1111 90.47 93.75
88.0(30) 0.1111 90.46 93.68
87.0(30) 0.1111 90.44 93.66
90.0(30) 0.1111 90.42 93.69
87(4) 0.0625 90.4 93.8
88.0(30) 0.1111 90.39 93.90
88.0(30) 0.1111 90.38 94.09
93.0(30) 0.1111 90.36 94.34
91.0(30) 0.1111 90.34 94.85
92.0(30) 0.1111 90.33 95.28
98.0(30) 0.1111 90.31 95.83
93.0(30) 0.1111 90.30 96.55
96.0(30) 0.1111 90.28 97.51
94(4) 0.0625 90.3 98.9
101(4) 0.0625 90.2 101.1
105(4) 0.0625 90.2 105.4
118(4) 0.0625 90.2 114.2
132(4) 0.0625 90.2 132.0
166(4) 0.0625 90.2 165.0
210(5) 0.0400 90.2 218.3
271(5) 0.0400 90.1 291.7
348(6) 0.02778 90.1 374.1
426(7) 0.02041 90.1 442.3
466(7) 0.02041 90.1 467.9
457(7) 0.02041 90.1 437.2
375(6) 0.02778 90.1 365.9
285(5) 0.0400 90.1 283.2
216(5) 0.0400 90.0 211.4
163(4) 0.0625 90.0 160.2
134(4) 0.0625 90.0 129.1
114(4) 0.0625 90.0 112.6
103(4) 0.0625 90.0 104.5
100(4) 0.0625 90.0 100.5
97.0(30) 0.1111 89.94 98.40
101(4) 0.0625 89.9 97.1
97.0(30) 0.1111 89.90 96.13
96.0(30) 0.1111 89.89 95.41
97.0(30) 0.1111 89.87 94.68
93.0(30) 0.1111 89.85 94.24
90.0(30) 0.1111 89.84 93.90
91.0(30) 0.1111 89.82 93.64
95.0(30) 0.1111 89.80 93.44
92.0(30) 0.1111 89.79 93.30
93.0(30) 0.1111 89.77 93.22
95.0(30) 0.1111 89.75 93.19
97.0(30) 0.1111 89.74 93.21
92.0(30) 0.1111 89.72 93.30
97.0(30) 0.1111 89.70 93.45
94.0(30) 0.1111 89.69 93.68
88.0(30) 0.1111 89.67 94.00
94.0(30) 0.1111 89.65 94.47
91.0(30) 0.1111 89.64 95.17
95.0(30) 0.1111 89.62 96.32
98.0(30) 0.1111 89.60 98.52
106(4) 0.0625 89.6 103.1
119(4) 0.0625 89.6 112.7
131(4) 0.0625 89.6 130.8
155(4) 0.0625 89.5 161.2
191(4) 0.0625 89.5 204.4
242(5) 0.0400 89.5 254.7
286(6) 0.02778 89.5 298.6
320(6) 0.02778 89.5 318.3
314(6) 0.02778 89.5 303.4
275(5) 0.0400 89.4 261.6
228(5) 0.0400 89.4 211.0
178(4) 0.0625 89.4 166.1
138(4) 0.0625 89.4 133.7
119(4) 0.0625 89.4 113.9
112(4) 0.0625 89.3 103.3
98.0(30) 0.1111 89.33 98.14
100.0(30) 0.1111 89.32 95.63
104.0(30) 0.1111 89.30 94.27
102(4) 0.0625 89.3 93.4
104(4) 0.0625 89.3 92.8
103(4) 0.0625 89.2 92.3
98.0(30) 0.1111 89.23 91.92
97.0(30) 0.1111 89.21 91.30
93.0(30) 0.1111 89.19 91.04
93.0(30) 0.1111 89.18 90.82
90.0(30) 0.1111 89.16 90.63
93.0(30) 0.1111 89.14 90.46
93.0(30) 0.1111 89.13 90.32
92.0(30) 0.1111 89.11 90.24
91.0(30) 0.1111 89.09 90.13
90.0(30) 0.1111 89.07 90.03
91(4) 0.0625 89.1 89.9
91.0(30) 0.1111 89.04 89.87
87.0(30) 0.1111 89.02 89.80
90.0(30) 0.1111 89.00 89.73
93.0(30) 0.1111 88.99 89.67
90.0(30) 0.1111 88.97 89.62
93.0(30) 0.1111 88.95 89.57
91.0(30) 0.1111 88.93 89.53
89.0(30) 0.1111 88.92 89.51
83.0(30) 0.1111 88.90 89.51
88.0(30) 0.1111 88.88 89.52
94.0(30) 0.1111 88.86 89.56
85.0(30) 0.1111 88.85 89.59
85.0(30) 0.1111 88.83 89.61
93.0(30) 0.1111 88.81 89.58
93.0(30) 0.1111 88.79 89.50
91.0(30) 0.1111 88.78 89.41
93.0(30) 0.1111 88.76 89.31
91.0(30) 0.1111 88.74 89.23
94.0(30) 0.1111 88.72 89.17
92.0(30) 0.1111 88.70 89.13
89.0(30) 0.1111 88.69 89.10
90.0(30) 0.1111 88.67 89.08
91.0(30) 0.1111 88.65 89.06
90.0(30) 0.1111 88.63 89.05
92.0(30) 0.1111 88.62 89.04
100.0(30) 0.1111 88.60 89.03
95.0(30) 0.1111 88.58 89.02
91.0(30) 0.1111 88.56 89.02
93.0(30) 0.1111 88.54 88.85
96(4) 0.0625 88.5 88.9
93.0(30) 0.1111 88.51 88.88
85.0(30) 0.1111 88.49 88.90
89.0(30) 0.1111 88.47 88.93
93.0(30) 0.1111 88.45 89.01
94.0(30) 0.1111 88.44 89.06
95.0(30) 0.1111 88.42 89.12
90.0(30) 0.1111 88.40 89.20
87.0(30) 0.1111 88.38 89.31
89.0(30) 0.1111 88.36 89.44
89.0(30) 0.1111 88.35 89.63
91(4) 0.0625 88.3 89.9
90.0(30) 0.1111 88.31 90.43
89.0(30) 0.1111 88.29 91.45
91.0(30) 0.1111 88.27 93.56
92(4) 0.0625 88.3 97.7
96(4) 0.0625 88.2 104.9
106(4) 0.0625 88.2 115.6
127(4) 0.0625 88.2 129.0
147(4) 0.0625 88.2 141.9
156(4) 0.0625 88.2 149.5
156(4) 0.0625 88.1 148.0
150(4) 0.0625 88.1 138.1
125(4) 0.0625 88.1 124.6
113(4) 0.0625 88.1 111.8
104(4) 0.0625 88.1 102.1
99.0(30) 0.1111 88.05 95.93
93(4) 0.0625 88.0 92.5
93.0(30) 0.1111 88.02 90.84
94.0(30) 0.1111 88.00 90.01
89.0(30) 0.1111 87.98 89.57
92(4) 0.0625 88.0 89.3
95(4) 0.0625 87.9 89.1
91(4) 0.0625 87.9 89.0
91(4) 0.0625 87.9 88.9
84.0(30) 0.1111 87.89 88.77
90.0(30) 0.1111 87.87 88.70
90.0(30) 0.1111 87.85 88.65
87(4) 0.0625 87.8 88.6
86.0(30) 0.1111 87.81 88.63
93(4) 0.0625 87.8 88.6
95.0(30) 0.1111 87.78 88.63
95.0(30) 0.1111 87.76 88.65
93.0(30) 0.1111 87.74 88.69
89.0(30) 0.1111 87.72 88.75
90(4) 0.0625 87.7 88.8
89.0(30) 0.1111 87.68 88.96
89.0(30) 0.1111 87.67 89.16
89.0(30) 0.1111 87.65 89.51
89.0(30) 0.1111 87.63 90.19
90.0(30) 0.1111 87.61 91.63
93.0(30) 0.1111 87.59 94.50
97(4) 0.0625 87.6 99.7
102(4) 0.0625 87.6 107.9
115(4) 0.0625 87.5 118.7
130(4) 0.0625 87.5 130.1
141(4) 0.0625 87.5 138.3
143(4) 0.0625 87.5 139.4
128(4) 0.0625 87.5 132.7
122(4) 0.0625 87.4 121.6
113(4) 0.0625 87.4 110.4
100(4) 0.0625 87.4 101.4
99(4) 0.0625 87.4 95.4
94.0(30) 0.1111 87.37 91.94
92.0(30) 0.1111 87.35 90.18
92.0(30) 0.1111 87.33 89.32
92.0(30) 0.1111 87.31 88.87
86.0(30) 0.1111 87.29 88.61
89.0(30) 0.1111 87.28 88.42
88(4) 0.0625 87.3 88.3
87(4) 0.0 87.2 .
94.0(30) 0.0 87.22 .
91.0(30) 0.0 87.20 .
96.0(30) 0.0 87.18 .
98.0(30) 0.0 87.16 .
100.0(30) 0.0 87.14 .
109.0(30) 0.0 87.13 .
104.0(30) 0.0 87.11 .
113(4) 0.0 87.1 .
116(4) 0.0 87.1 .
108(4) 0.0 87.1 .
104(4) 0.0 87.0 .
98(4) 0.0 87.0 .
99.0(30) 0.0 87.00 .
100(4) 0.0 87.0 .
93.0(30) 0.1111 86.96 89.65
95.0(30) 0.1111 86.94 91.29
96.0(30) 0.1111 86.92 94.52
100.0(30) 0.1111 86.90 100.24
115(4) 0.0625 86.9 109.0
118(4) 0.0625 86.9 120.1
128(4) 0.0625 86.8 131.2
139(4) 0.0625 86.8 138.3
141(4) 0.0625 86.8 137.7
133(4) 0.0625 86.8 129.8
123(4) 0.0625 86.8 118.4
111(4) 0.0625 86.8 107.4
96(4) 0.0625 86.7 99.1
91.0(30) 0.1111 86.72 93.67
90.0(30) 0.1111 86.70 90.66
85.0(30) 0.1111 86.68 89.14
87.0(30) 0.1111 86.66 88.38
92.0(30) 0.1111 86.64 87.97
91.0(30) 0.1111 86.62 87.71
85.0(30) 0.1111 86.60 87.53
88.0(30) 0.1111 86.59 87.38
88.0(30) 0.1111 86.57 87.26
83.0(30) 0.1111 86.55 87.16
88.0(30) 0.1111 86.53 87.07
91.0(30) 0.1111 86.51 86.99
91.0(30) 0.1111 86.49 86.89
86.0(30) 0.1111 86.47 86.83
87.0(30) 0.1111 86.46 86.78
88.0(30) 0.1111 86.44 86.73
86.0(30) 0.1111 86.42 86.69
87.0(30) 0.1111 86.40 86.65
88.0(30) 0.1111 86.38 86.61
92.0(30) 0.1111 86.36 86.57
89.0(30) 0.1111 86.35 86.54
86.0(30) 0.1111 86.33 86.51
81.0(30) 0.1111 86.31 86.48
87.0(30) 0.1111 86.29 86.45
90.0(30) 0.1111 86.27 86.42
89.0(30) 0.1111 86.25 86.40
90.0(30) 0.1111 86.24 86.37
86.0(30) 0.1111 86.22 86.34
85.0(30) 0.1111 86.20 86.32
86.0(30) 0.1111 86.18 86.30
82.0(30) 0.1111 86.16 86.27
87.0(30) 0.1111 86.14 86.25
87(4) 0.0625 86.1 86.2
88.0(30) 0.1111 86.11 86.21
88.0(30) 0.1111 86.09 86.19
84.0(30) 0.1111 86.07 86.17
86.0(30) 0.1111 86.05 86.15
81.0(30) 0.1111 86.04 86.13
82.0(30) 0.1111 86.02 86.11
83.0(30) 0.1111 86.00 86.09
84.0(30) 0.1111 85.98 86.07
86.0(30) 0.1111 85.96 86.05
89.0(30) 0.1111 85.95 86.03
89.0(30) 0.1111 85.93 86.02
86.0(30) 0.1111 85.91 86.00
81.0(30) 0.1111 85.89 85.98
87.0(30) 0.1111 85.87 86.03
86.0(30) 0.1111 85.86 85.97
83.0(30) 0.1111 85.84 85.96
82.0(30) 0.1111 85.82 85.96
83.0(30) 0.1111 85.80 85.95
87.0(30) 0.1111 85.79 85.95
83.0(30) 0.1111 85.77 85.94
83.0(30) 0.1111 85.75 85.95
85.0(30) 0.1111 85.73 85.95
91.0(30) 0.1111 85.71 85.97
91.0(30) 0.1111 85.70 86.00
89.0(30) 0.1111 85.68 86.07
85.0(30) 0.1111 85.66 86.23
87.0(30) 0.1111 85.64 86.57
85.0(30) 0.1111 85.63 87.20
86.0(30) 0.1111 85.61 88.23
91.0(30) 0.1111 85.59 89.66
87.0(30) 0.1111 85.58 91.24
89.0(30) 0.1111 85.56 92.50
92(4) 0.0625 85.5 92.8
96.0(30) 0.1111 85.52 92.02
93.0(30) 0.1111 85.51 90.53
95.0(30) 0.1111 85.49 88.95
86.0(30) 0.1111 85.47 87.66
87.0(30) 0.1111 85.45 86.79
89.0(30) 0.1111 85.44 86.29
83.0(30) 0.1111 85.42 86.03
86.0(30) 0.1111 85.40 85.90
83.0(30) 0.1111 85.39 85.84
82.0(30) 0.1111 85.37 85.81
91.0(30) 0.1111 85.35 85.79
90.0(30) 0.1111 85.34 85.78
91.0(30) 0.1111 85.32 85.78
93.0(30) 0.1111 85.30 85.79
94.0(30) 0.1111 85.29 85.81
99.0(30) 0.1111 85.27 85.87
90.0(30) 0.1111 85.25 85.91
91.0(30) 0.1111 85.24 85.96
84.0(30) 0.1111 85.22 86.02
85.0(30) 0.1111 85.20 86.09
85.0(30) 0.1111 85.19 86.19
85.0(30) 0.1111 85.17 86.32
88.0(30) 0.1111 85.15 86.49
86.0(30) 0.1111 85.14 86.71
85.0(30) 0.1111 85.12 87.04
89.0(30) 0.1111 85.10 87.59
87.0(30) 0.1111 85.09 88.66
88.0(30) 0.1111 85.07 90.87
93.0(30) 0.1111 85.06 95.30
101.0(30) 0.1111 85.04 103.30
109.0(30) 0.1111 85.02 115.74
131(4) 0.0625 85.0 131.8
144(4) 0.0625 85.0 148.1
160(4) 0.0625 85.0 158.6
159(4) 0.0625 85.0 157.7
149(4) 0.0625 84.9 146.0
129(4) 0.0625 84.9 129.4
115(4) 0.0625 84.9 113.6
103(4) 0.0625 84.9 101.8
93.0(30) 0.1111 84.88 94.36
89.0(30) 0.1111 84.87 90.31
83(4) 0.0625 84.9 88.3
83.0(30) 0.1111 84.84 87.32
87.0(30) 0.1111 84.82 86.80
83.0(30) 0.1111 84.80 86.47
86.0(30) 0.1111 84.79 86.24
83.0(30) 0.1111 84.77 86.07
82.0(30) 0.1111 84.76 85.94
78.0(30) 0.1111 84.74 85.84
85.0(30) 0.1111 84.73 85.76
89.0(30) 0.1111 84.71 85.71
84.0(30) 0.1111 84.70 85.67
86.0(30) 0.1111 84.68 85.65
85.0(30) 0.1111 84.67 85.65
89.0(30) 0.1111 84.65 85.67
82.0(30) 0.1111 84.64 85.72
77.0(30) 0.1111 84.63 85.79
78.0(30) 0.1111 84.61 85.90
84.0(30) 0.1111 84.60 86.07
88.0(30) 0.1111 84.58 86.36
87.0(30) 0.1111 84.57 86.91
83.0(30) 0.1111 84.55 88.08
88.0(30) 0.1111 84.54 90.50
94.0(30) 0.1111 84.52 95.13
101.0(30) 0.1111 84.51 102.79
107(4) 0.0625 84.5 113.5
111(4) 0.0625 84.5 125.4
133(4) 0.0625 84.5 134.9
135(4) 0.0625 84.5 137.3
131(4) 0.0625 84.4 131.1
119(4) 0.0625 84.4 119.9
102.0(30) 0.1111 84.41 108.15
98.0(30) 0.1111 84.40 98.70
96.0(30) 0.1111 84.39 92.45
93.0(30) 0.1111 84.37 88.90
89.0(30) 0.1111 84.36 87.11
90.0(30) 0.1111 84.35 86.23
86.0(30) 0.1111 84.33 85.78
85.0(30) 0.1111 84.32 85.50
83.0(30) 0.1111 84.31 85.31
84.0(30) 0.1111 84.29 85.16
86.0(30) 0.1111 84.28 85.03
84.0(30) 0.1111 84.27 84.93
87.0(30) 0.1111 84.25 84.85
83.0(30) 0.1111 84.24 84.78
83.0(30) 0.1111 84.23 84.72
82.0(30) 0.1111 84.22 84.60
85.0(30) 0.1111 84.20 84.56
85.0(30) 0.1111 84.19 84.52
81.0(30) 0.1111 84.18 84.49
87.0(30) 0.1111 84.17 84.46
83.0(30) 0.1111 84.15 84.44
83.0(30) 0.1111 84.14 84.42
86.0(30) 0.1111 84.13 84.41
87.0(30) 0.1111 84.12 84.42
86.0(30) 0.1111 84.10 84.47
87.0(30) 0.1111 84.09 84.59
88.0(30) 0.1111 84.08 84.84
84.0(30) 0.1111 84.07 85.28
89.0(30) 0.1111 84.06 85.89
89.0(30) 0.1111 84.05 86.60
86.0(30) 0.1111 84.03 87.18
87.0(30) 0.1111 84.02 87.35
87.0(30) 0.1111 84.01 87.00
88.0(30) 0.1111 84.00 86.32
87.0(30) 0.1111 83.99 85.58
87.0(30) 0.1111 83.98 84.98
86.0(30) 0.1111 83.97 84.57
79.0(30) 0.1111 83.96 84.33
82.0(30) 0.1111 83.95 84.19
83.0(30) 0.1111 83.93 84.12
80.0(30) 0.1111 83.92 84.08
80.0(30) 0.1111 83.91 84.05
86.0(30) 0.1111 83.90 84.02
85.0(30) 0.1111 83.89 84.00
87.0(30) 0.1111 83.88 83.98
83.0(30) 0.1111 83.87 84.13
80.0(30) 0.1111 83.86 84.12
83.0(30) 0.1111 83.85 84.12
86.0(30) 0.1111 83.84 84.11
83.0(30) 0.1111 83.83 84.10
86.0(30) 0.1111 83.82 84.05
88.0(30) 0.1111 83.81 84.05
86.0(30) 0.1111 83.80 84.05
88.0(30) 0.1111 83.79 84.05
88.0(30) 0.1111 83.78 84.05
83.0(30) 0.1111 83.77 84.05
85.0(30) 0.1111 83.76 84.05
86.0(30) 0.1111 83.75 84.05
83.0(30) 0.1111 83.74 84.06
84.0(30) 0.1111 83.74 84.06
86.0(30) 0.1111 83.73 84.07
82.0(30) 0.1111 83.72 84.08
82.0(30) 0.1111 83.71 84.09
89.0(30) 0.1111 83.70 84.10
82.0(30) 0.1111 83.69 84.11
80.0(30) 0.1111 83.68 84.13
87.0(30) 0.1111 83.67 84.15
84.0(30) 0.1111 83.67 84.17
77.0(30) 0.1111 83.66 84.19
81.0(30) 0.1111 83.65 84.22
84.0(30) 0.1111 83.64 84.25
82.0(30) 0.1111 83.63 84.29
79.0(30) 0.1111 83.63 84.33
81.0(30) 0.1111 83.62 84.38
85.0(30) 0.1111 83.61 84.44
87.0(30) 0.1111 83.60 84.50
85.0(30) 0.1111 83.59 84.57
89.0(30) 0.1111 83.59 84.65
87.0(30) 0.1111 83.58 84.75
83.0(30) 0.1111 83.57 84.87
81.0(30) 0.1111 83.57 85.01
88.0(30) 0.1111 83.56 85.16
85.0(30) 0.1111 83.55 85.35
85.0(30) 0.1111 83.54 85.58
86.0(30) 0.1111 83.54 85.85
88.0(30) 0.1111 83.53 86.18
88.0(30) 0.1111 83.52 86.59
86.0(30) 0.1111 83.52 87.12
86.0(30) 0.1111 83.51 87.81
85.0(30) 0.1111 83.50 88.79
93.0(30) 0.1111 83.50 90.37
88.0(30) 0.1111 83.49 93.37
97(4) 0.0625 83.5 99.5
111(4) 0.0625 83.5 111.7
126(4) 0.0625 83.5 133.6
153(4) 0.0625 83.5 167.6
198(4) 0.0625 83.5 211.5
249(5) 0.0400 83.5 255.7
284(5) 0.0400 83.5 283.1
285(5) 0.0400 83.4 278.4
256(5) 0.0400 83.4 244.6
212(5) 0.0400 83.4 199.1
164(4) 0.0625 83.4 157.3
132(4) 0.0625 83.4 126.5
107(4) 0.0625 83.4 107.5
95.0(30) 0.1111 83.42 97.32
93.0(30) 0.1111 83.41 92.28
93.0(30) 0.1111 83.41 89.78
88.0(30) 0.1111 83.40 88.40
83(4) 0.0625 83.4 87.5
83.0(30) 0.1111 83.39 86.87
88.0(30) 0.1111 83.39 86.37
85.0(30) 0.1111 83.39 85.97
85.0(30) 0.1111 83.38 85.65
83.0(30) 0.1111 83.38 85.39
84.0(30) 0.1111 83.37 85.17
80.0(30) 0.1111 83.37 84.99
79.0(30) 0.1111 83.37 84.84
78.0(30) 0.1111 83.36 84.71
84.0(30) 0.1111 83.36 84.61
86.0(30) 0.1111 83.36 84.52
86.0(30) 0.1111 83.35 84.45
82.0(30) 0.1111 83.35 84.40
88.0(30) 0.1111 83.35 84.38
90.0(30) 0.1111 83.34 84.39
85.0(30) 0.1111 83.34 84.49
83.0(30) 0.1111 83.34 84.76
82.0(30) 0.1111 83.34 85.33
85.0(30) 0.1111 83.33 86.32
88.0(30) 0.1111 83.33 87.75
90.0(30) 0.1111 83.33 89.40
93.0(30) 0.1111 83.33 90.79
93.0(30) 0.1111 83.33 91.22
91.0(30) 0.1111 83.32 90.41
87.0(30) 0.1111 83.32 88.83
91.0(30) 0.1111 83.32 87.14
86.0(30) 0.1111 83.32 85.77
93.0(30) 0.1111 83.32 84.84
88.0(30) 0.1111 83.32 84.30
88.0(30) 0.1111 83.31 84.02
87.0(30) 0.1111 83.31 83.87
86.0(30) 0.1111 83.31 83.79
80.0(30) 0.1111 83.31 83.74
83.0(30) 0.1111 83.31 83.70
84.0(30) 0.1111 83.31 83.67
88.0(30) 0.1111 83.31 83.70
89.0(30) 0.1111 83.31 83.68
87.0(30) 0.1111 83.31 83.66
80.0(30) 0.1111 83.31 83.64
85.0(30) 0.1111 83.31 83.63
82.0(30) 0.1111 83.31 83.62
82.0(30) 0.1111 83.31 83.43
85.0(30) 0.1111 83.31 83.43
87.0(30) 0.1111 83.31 83.43
89.0(30) 0.1111 83.31 83.43
79.0(30) 0.1111 83.31 83.43
86.0(30) 0.1111 83.31 83.43
85.0(30) 0.1111 83.31 83.43
86.0(30) 0.1111 83.31 83.44
92.0(30) 0.1111 83.31 83.44
83.0(30) 0.1111 83.31 83.45
76.0(30) 0.1111 83.31 83.45
80.0(30) 0.1111 83.31 83.46
80.0(30) 0.1111 83.31 83.47
79.0(30) 0.1111 83.32 83.47
80.0(30) 0.1111 83.32 83.48
85.0(30) 0.1111 83.32 83.49
84.0(30) 0.1111 83.32 83.50
85.0(30) 0.1111 83.32 83.51
86.0(30) 0.1111 83.32 83.53
86.0(30) 0.1111 83.33 83.54
84.0(30) 0.1111 83.33 83.56
83.0(30) 0.1111 83.33 83.58
80.0(30) 0.1111 83.33 83.60
85.0(30) 0.1111 83.33 83.62
85.0(30) 0.1111 83.34 83.65
82.0(30) 0.1111 83.34 83.67
84.0(30) 0.1111 83.34 83.71
84.0(30) 0.1111 83.34 83.74
87.0(30) 0.1111 83.35 83.79
86.0(30) 0.1111 83.35 83.84
80.0(30) 0.1111 83.35 83.90
89.0(30) 0.1111 83.36 83.96
89.0(30) 0.1111 83.36 84.04
82.0(30) 0.1111 83.36 84.14
81.0(30) 0.1111 83.37 84.25
88.0(30) 0.1111 83.37 84.39
85.0(30) 0.1111 83.37 84.57
83.0(30) 0.1111 83.38 84.80
87.0(30) 0.1111 83.38 85.11
89.0(30) 0.1111 83.39 85.61
85.0(30) 0.1111 83.39 86.51
90.0(30) 0.1111 83.39 88.34
97.0(30) 0.1111 83.40 92.08
99.0(30) 0.1111 83.40 99.07
112.0(30) 0.1111 83.41 110.34
121(4) 0.0625 83.4 125.5
133(4) 0.0625 83.4 141.5
157(4) 0.0625 83.4 152.5
156(4) 0.0625 83.4 152.5
148(4) 0.0625 83.4 141.4
132(4) 0.0625 83.4 125.4
114(4) 0.0625 83.4 110.2
102.0(30) 0.1111 83.45 99.02
93(4) 0.0625 83.5 92.1
89.0(30) 0.1111 83.46 88.38
90.0(30) 0.1111 83.46 86.57
91.0(30) 0.1111 83.47 85.69
89.0(30) 0.1111 83.48 85.21
86.0(30) 0.1111 83.48 84.90
85.0(30) 0.1111 83.49 84.68
86.0(30) 0.1111 83.49 84.52
88.0(30) 0.1111 83.50 86.13
85.0(30) 0.1111 83.51 86.09
79.0(30) 0.1111 83.51 86.08
83.0(30) 0.1111 83.52 86.08
89.0(30) 0.1111 83.53 86.11
88.0(30) 0.1111 83.53 86.15
86.0(30) 0.1111 83.54 86.20
90.0(30) 0.1111 83.55 86.27
82.0(30) 0.1111 83.55 86.35
84.0(30) 0.1111 83.56 86.44
87.0(30) 0.1111 83.57 86.55
90.0(30) 0.1111 83.57 86.67
89.0(30) 0.1111 83.58 86.81
84.0(30) 0.1111 83.59 86.98
85.0(30) 0.1111 83.60 87.20
85.0(30) 0.1111 83.60 87.50
87.0(30) 0.1111 83.61 87.90
86.0(30) 0.1111 83.62 88.41
85.0(30) 0.1111 83.63 88.97
94.0(30) 0.1111 83.64 89.47
90.0(30) 0.1111 83.64 89.78
87.0(30) 0.1111 83.65 89.86
87.0(30) 0.1111 83.66 89.84
89.0(30) 0.1111 83.67 89.85
92.0(30) 0.1111 83.68 89.98
89.0(30) 0.1111 83.69 90.23
91.0(30) 0.1111 83.69 90.61
91.0(30) 0.1111 83.70 91.09
92.0(30) 0.1111 83.71 91.65
92.0(30) 0.1111 83.72 92.30
96.0(30) 0.1111 83.73 93.05
94.0(30) 0.1111 83.74 93.89
91.0(30) 0.1111 83.75 94.86
94.0(30) 0.1111 83.76 96.51
94.0(30) 0.1111 83.77 97.82
94.0(30) 0.1111 83.78 99.35
101.0(30) 0.1111 83.79 101.15
104.0(30) 0.1111 83.80 103.28
107(4) 0.0625 83.8 105.8
106(4) 0.0625 83.8 108.9
117(4) 0.0625 83.8 112.6
121(4) 0.0625 83.8 117.4
123(4) 0.0625 83.8 123.4
120(4) 0.0625 83.9 131.5
127(4) 0.0625 83.9 143.5
150(4) 0.0625 83.9 164.0
195(5) 0.0400 83.9 203.8
273(5) 0.0400 83.9 284.1
418(6) 0.02778 83.9 436.5
652(8) 0.01563 83.9 691.7
993(10) 0.01000 83.9 1054.5
1452(12) 0.00694 83.9 1473.4
1824(14) 0.00510 84.0 1821.7
1972(14) 0.00510 84.0 1928.2
1786(13) 0.00592 84.0 1724.8
1354(12) 0.00694 84.0 1334.7
918(10) 0.01000 84.0 924.4
589(8) 0.01563 84.0 595.1
395(6) 0.02778 84.0 376.7
275(5) 0.0400 84.0 252.4
211(5) 0.0400 84.0 188.8
177(4) 0.0625 84.1 157.4
153(4) 0.0625 84.1 140.8
144(4) 0.0625 84.1 130.7
135(4) 0.0625 84.1 123.7
133(4) 0.0625 84.1 118.5
121(4) 0.0625 84.1 115.3
114.0(30) 0.1111 84.13 112.22
113(4) 0.0625 84.1 109.9
104(4) 0.0625 84.1 108.1
102.0(30) 0.1111 84.16 106.76
104.0(30) 0.1111 84.17 105.88
92(4) 0.0625 84.2 105.4
100.0(30) 0.1111 84.20 105.36
91.0(30) 0.1111 84.21 105.75
97.0(30) 0.1111 84.22 106.66
96.0(30) 0.1111 84.24 108.27
116.0(30) 0.1111 84.25 111.06
113.0(30) 0.1111 84.26 116.26
123(4) 0.0625 84.3 126.8
153(4) 0.0625 84.3 148.7
193(4) 0.0625 84.3 191.4
256(5) 0.0400 84.3 264.7
370(6) 0.02778 84.3 371.8
503(7) 0.02041 84.3 499.9
605(8) 0.01563 84.4 612.8
679(8) 0.01563 84.4 657.7
625(8) 0.01563 84.4 606.0
490(7) 0.02041 84.4 490.0
348(6) 0.02778 84.4 362.3
248(5) 0.0400 84.4 257.1
190(4) 0.0625 84.4 185.9
147(4) 0.0625 84.5 144.8
127(4) 0.0625 84.5 123.6
123(4) 0.0625 84.5 113.2
111(4) 0.0625 84.5 107.8
108.0(30) 0.1111 84.51 104.71
107.0(30) 0.1111 84.52 102.64
100.0(30) 0.1111 84.54 101.20
103(4) 0.0625 84.6 100.3
101.0(30) 0.1111 84.56 99.61
99.0(30) 0.1111 84.58 99.25
95.0(30) 0.1111 84.59 99.15
97.0(30) 0.1111 84.61 99.32
98.0(30) 0.1111 84.62 99.75
98.0(30) 0.1111 84.64 100.48
101.0(30) 0.1111 84.65 99.83
97.0(30) 0.1111 84.67 101.38
107.0(30) 0.1111 84.68 103.47
101.0(30) 0.1111 84.70 106.35
105(4) 0.0625 84.7 110.6
110(4) 0.0625 84.7 117.7
127(4) 0.0625 84.7 131.3
168(4) 0.0625 84.8 159.1
219(5) 0.0400 84.8 213.9
307(6) 0.02778 84.8 310.5
450(7) 0.02041 84.8 456.1
629(8) 0.01563 84.8 636.4
789(9) 0.01235 84.8 805.1
861(9) 0.01235 84.8 887.3
824(9) 0.01235 84.9 832.1
664(8) 0.01563 84.9 674.9
462(7) 0.02041 84.9 491.8
332(6) 0.02778 84.9 336.7
236(5) 0.0400 84.9 229.7
176(4) 0.0625 84.9 168.4
148(4) 0.0625 85.0 136.0
130(4) 0.0625 85.0 120.1
113.0(30) 0.1111 84.99 111.93
113(4) 0.0625 85.0 107.1
113(4) 0.0625 85.0 103.9
106(4) 0.0625 85.0 101.4
104.0(30) 0.1111 85.05 99.57
99.0(30) 0.1111 85.07 98.33
99.0(30) 0.1111 85.08 97.17
99.0(30) 0.1111 85.10 96.24
97.0(30) 0.1111 85.12 95.51
96.0(30) 0.1111 85.13 94.94
97.0(30) 0.1111 85.15 94.51
91.0(30) 0.1111 85.17 93.67
92.0(30) 0.1111 85.18 93.49
101.0(30) 0.1111 85.20 93.43
98.0(30) 0.1111 85.21 93.49
94.0(30) 0.1111 85.23 93.71
93.0(30) 0.1111 85.25 94.21
94.0(30) 0.1111 85.26 95.27
94.0(30) 0.1111 85.28 97.54
103.0(30) 0.1111 85.30 102.13
106(4) 0.0625 85.3 110.4
123(4) 0.0625 85.3 123.4
134(4) 0.0625 85.3 140.1
149(4) 0.0625 85.4 156.8
164(4) 0.0625 85.4 166.7
161(4) 0.0625 85.4 164.0
146(4) 0.0625 85.4 150.6
128(4) 0.0625 85.4 133.6
109(4) 0.0625 85.4 118.6
99.0(30) 0.1111 85.46 108.07
105(4) 0.0625 85.5 101.9
98.0(30) 0.1111 85.50 98.95
98.0(30) 0.1111 85.51 97.76
94(4) 0.0625 85.5 97.5
94.0(30) 0.1111 85.55 97.67
98.0(30) 0.1111 85.57 98.11
93.0(30) 0.1111 85.58 98.76
96.0(30) 0.1111 85.60 99.59
93.0(30) 0.1111 85.62 100.63
99.0(30) 0.1111 85.63 101.90
103.0(30) 0.1111 85.65 103.43
97.0(30) 0.1111 85.67 105.28
100.0(30) 0.1111 85.69 107.52
104.0(30) 0.1111 85.70 110.24
105.0(30) 0.1111 85.72 112.84
112.0(30) 0.1111 85.74 117.00
114(4) 0.0625 85.8 122.2
117(4) 0.0625 85.8 129.0
121(4) 0.0625 85.8 138.3
135(4) 0.0625 85.8 152.6
176(4) 0.0625 85.8 177.8
239(5) 0.0400 85.8 227.2
346(6) 0.02778 85.9 324.5
540(7) 0.02041 85.9 502.0
822(9) 0.01235 85.9 784.7
1228(11) 0.00826 85.9 1164.3
1631(13) 0.00592 85.9 1569.9
1916(14) 0.00510 85.9 1857.3
1866(14) 0.00510 86.0 1867.1
1534(12) 0.00694 86.0 1593.0
1122(11) 0.00826 86.0 1189.7
737(9) 0.01235 86.0 805.8
480(7) 0.02041 86.0 516.3
337(6) 0.02778 86.0 332.9
249(5) 0.0400 86.1 231.8
202(5) 0.0400 86.1 180.3
173(4) 0.0625 86.1 154.1
164(4) 0.0625 86.1 139.4
152(4) 0.0625 86.1 129.9
138(4) 0.0625 86.2 123.0
131(4) 0.0625 86.2 117.6
119(4) 0.0625 86.2 113.4
112(4) 0.0625 86.2 110.0
110(4) 0.0625 86.2 107.2
109.0(30) 0.1111 86.24 104.88
97.0(30) 0.1111 86.26 102.94
96(4) 0.0625 86.3 101.3
95.0(30) 0.1111 86.29 99.82
95.0(30) 0.1111 86.31 98.63
99.0(30) 0.1111 86.33 97.59
96.0(30) 0.1111 86.34 96.70
96.0(30) 0.1111 86.36 95.92
93(4) 0.0625 86.4 95.2
94(4) 0.0625 86.4 94.6
97.0(30) 0.1111 86.41 94.11
94.0(30) 0.1111 86.43 93.65
99.0(30) 0.1111 86.45 93.23
93.0(30) 0.1111 86.46 92.87
92.0(30) 0.1111 86.48 92.55
90.0(30) 0.1111 86.50 92.26
90.0(30) 0.1111 86.52 92.01
91.0(30) 0.1111 86.53 91.79
93.0(30) 0.1111 86.55 91.59
90.0(30) 0.1111 86.57 91.42
89.0(30) 0.1111 86.59 91.28
85.0(30) 0.1111 86.60 91.16
93(4) 0.0625 86.6 91.1
90.0(30) 0.1111 86.64 91.14
87.0(30) 0.1111 86.65 91.09
92.0(30) 0.1111 86.67 91.06
92.0(30) 0.1111 86.69 91.05
87.0(30) 0.1111 86.71 91.06
90.0(30) 0.1111 86.72 91.10
89.0(30) 0.1111 86.74 91.16
92.0(30) 0.1111 86.76 91.25
89.0(30) 0.1111 86.77 91.38
90.0(30) 0.1111 86.79 91.55
88.0(30) 0.1111 86.81 91.76
95.0(30) 0.1111 86.82 92.03
95.0(30) 0.1111 86.84 92.36
98.0(30) 0.1111 86.86 92.78
92.0(30) 0.1111 86.88 93.31
96.0(30) 0.1111 86.89 93.97
96.0(30) 0.1111 86.91 94.82
102.0(30) 0.1111 86.93 95.94
106(4) 0.0625 86.9 97.5
112.0(30) 0.1111 86.96 100.01
113(4) 0.0625 87.0 104.5
115(4) 0.0625 87.0 112.1
134(4) 0.0625 87.0 129.7
174(4) 0.0625 87.0 161.2
219(5) 0.0400 87.0 210.0
292(5) 0.0400 87.1 273.3
354(6) 0.02778 87.1 337.3
378(6) 0.02778 87.1 376.8
349(6) 0.02778 87.1 368.6
303(6) 0.02778 87.1 318.1
241(5) 0.0400 87.1 252.1
186(4) 0.0625 87.2 192.7
139(4) 0.0625 87.2 149.7
125(4) 0.0625 87.2 123.3
110(4) 0.0625 87.2 109.2
98.0(30) 0.1111 87.22 102.07
97(4) 0.0625 87.2 98.5
96(4) 0.0625 87.3 96.4
96.0(30) 0.1111 87.27 95.11
94.0(30) 0.1111 87.29 94.18
94.0(30) 0.1111 87.31 93.50
98.0(30) 0.1111 87.32 93.00
92.0(30) 0.1111 87.34 92.64
96.0(30) 0.1111 87.35 92.41
89.0(30) 0.1111 87.37 92.28
88.0(30) 0.1111 87.39 92.24
85.0(30) 0.1111 87.40 92.31
88.0(30) 0.1111 87.42 92.47
94.0(30) 0.1111 87.43 92.75
87.0(30) 0.1111 87.45 93.17
87.0(30) 0.1111 87.46 93.76
90.0(30) 0.1111 87.48 94.61
92.0(30) 0.1111 87.50 95.90
94(4) 0.0625 87.5 98.1
103.0(30) 0.1111 87.53 102.36
116.0(30) 0.1111 87.54 110.80
133(4) 0.0625 87.6 126.7
153(4) 0.0625 87.6 153.6
192(5) 0.0400 87.6 192.5
242(5) 0.0400 87.6 238.8
284(5) 0.0400 87.6 279.5
294(5) 0.0400 87.6 295.6
272(5) 0.0400 87.6 276.8
225(5) 0.0400 87.7 234.9
177(4) 0.0625 87.7 188.8
138(4) 0.0625 87.7 150.8
127(4) 0.0625 87.7 124.8
109(4) 0.0625 87.7 109.5
105.0(30) 0.1111 87.74 101.47
100.0(30) 0.1111 87.75 97.37
99.0(30) 0.1111 87.77 95.16
93(4) 0.0625 87.8 93.8
95.0(30) 0.1111 87.80 92.87
94.0(30) 0.1111 87.81 92.16
94.0(30) 0.1111 87.83 91.61
95.0(30) 0.1111 87.84 91.16
94.0(30) 0.1111 87.86 90.79
93.0(30) 0.1111 87.87 90.49
92.0(30) 0.1111 87.89 90.24
90.0(30) 0.1111 87.90 90.03
94.0(30) 0.1111 87.91 89.85
90.0(30) 0.1111 87.93 89.70
88.0(30) 0.1111 87.94 89.57
89.0(30) 0.1111 87.96 89.46
93.0(30) 0.1111 87.97 89.37
92.0(30) 0.1111 87.99 89.28
93.0(30) 0.1111 88.00 89.21
100.0(30) 0.1111 88.01 89.15
94.0(30) 0.1111 88.03 88.89
85.0(30) 0.1111 88.04 88.87
88.0(30) 0.1111 88.05 88.88
96.0(30) 0.1111 88.07 88.92
94.0(30) 0.1111 88.08 89.00
93.0(30) 0.1111 88.10 89.09
91.0(30) 0.1111 88.11 89.17
91.0(30) 0.1111 88.12 89.18
89.0(30) 0.1111 88.14 89.10
94.0(30) 0.1111 88.15 88.97
88.0(30) 0.1111 88.16 88.84
87.0(30) 0.1111 88.18 88.74
82.0(30) 0.1111 88.19 88.67
82.0(30) 0.1111 88.20 88.63
87.0(30) 0.1111 88.21 88.61
86.0(30) 0.1111 88.23 88.62
83.0(30) 0.1111 88.24 88.61
88.0(30) 0.1111 88.25 88.60
93.0(30) 0.1111 88.27 88.60
86.0(30) 0.1111 88.28 88.60
83.0(30) 0.1111 88.29 88.60
88.0(30) 0.1111 88.30 88.60
86.0(30) 0.1111 88.32 88.61
86.0(30) 0.1111 88.33 88.61
91.0(30) 0.1111 88.34 88.61
85.0(30) 0.1111 88.35 88.62
86.0(30) 0.1111 88.37 88.62
86.0(30) 0.1111 88.38 88.63
96.0(30) 0.1111 88.39 88.64
86.0(30) 0.1111 88.40 88.65
91.0(30) 0.1111 88.41 88.65
99(4) 0.0625 88.4 88.7
92(4) 0.0625 88.4 88.7
103(4) 0.0625 88.5 88.5
105.0(30) 0.1111 88.46 88.55
106(4) 0.0625 88.5 88.6
101.0(30) 0.1111 88.49 88.64
95.0(30) 0.1111 88.50 88.72
93.0(30) 0.1111 88.51 88.82
91.0(30) 0.1111 88.52 88.94
90.0(30) 0.1111 88.53 89.04
96.0(30) 0.1111 88.54 89.07
91.0(30) 0.1111 88.55 89.04
83.0(30) 0.1111 88.57 88.96
94.0(30) 0.1111 88.58 88.87
93.0(30) 0.1111 88.59 88.81
94.0(30) 0.1111 88.60 88.77
92.0(30) 0.1111 88.61 88.75
90.0(30) 0.1111 88.62 88.76
92.0(30) 0.1111 88.63 88.86
93.0(30) 0.1111 88.64 88.88
91.0(30) 0.1111 88.65 88.90
93(4) 0.0625 88.7 88.9
92.0(30) 0.1111 88.67 88.95
90.0(30) 0.1111 88.68 88.98
92.0(30) 0.1111 88.69 89.01
93.0(30) 0.1111 88.70 89.04
91.0(30) 0.1111 88.72 89.08
83.0(30) 0.1111 88.73 89.12
90.0(30) 0.1111 88.74 89.17
89.0(30) 0.1111 88.75 89.22
89.0(30) 0.1111 88.76 89.28
84.0(30) 0.1111 88.77 89.36
89.0(30) 0.1111 88.78 89.44
83.0(30) 0.1111 88.79 89.55
87.0(30) 0.1111 88.79 89.68
87.0(30) 0.1111 88.80 89.87
89.0(30) 0.1111 88.81 90.16
85.0(30) 0.1111 88.82 90.69
90.0(30) 0.1111 88.83 91.68
90.0(30) 0.1111 88.84 93.51
95.0(30) 0.1111 88.85 96.57
98.0(30) 0.1111 88.86 100.98
106.0(30) 0.1111 88.87 106.31
116(4) 0.0625 88.9 111.2
112(4) 0.0625 88.9 113.5
114(4) 0.0625 88.9 111.8
107(4) 0.0625 88.9 107.2
98.0(30) 0.1111 88.92 101.91
102.0(30) 0.1111 88.92 97.36
93.0(30) 0.1111 88.93 94.15
90.0(30) 0.1111 88.94 92.22
91.0(30) 0.1111 88.95 91.18
87.0(30) 0.1111 88.96 90.67
85.0(30) 0.1111 88.97 90.47
88(4) 0.0625 89.0 90.3
96.0(30) 0.1111 88.98 90.28
93.0(30) 0.1111 88.99 90.26
92.0(30) 0.1111 89.00 90.26
95.0(30) 0.1111 89.01 90.28
93.0(30) 0.1111 89.02 90.33
90.0(30) 0.1111 89.03 90.40
90.0(30) 0.1111 89.03 90.49
89.0(30) 0.1111 89.04 90.61
90.0(30) 0.1111 89.05 90.76
84.0(30) 0.1111 89.06 90.94
89.0(30) 0.1111 89.06 91.17
91.0(30) 0.1111 89.07 91.45
94.0(30) 0.1111 89.08 91.81
91.0(30) 0.1111 89.09 92.28
97(4) 0.0625 89.1 92.9
97.0(30) 0.1111 89.10 93.88
98.0(30) 0.1111 89.11 95.55
94.0(30) 0.1111 89.12 98.68
100.0(30) 0.1111 89.12 104.63
111(4) 0.0625 89.1 115.1
129(4) 0.0625 89.1 131.6
153(4) 0.0625 89.1 153.7
176(4) 0.0625 89.2 177.7
188(4) 0.0625 89.2 195.7
197(4) 0.0625 89.2 198.4
182(4) 0.0625 89.2 184.1
155(4) 0.0625 89.2 161.0
136(4) 0.0625 89.2 137.8
113(4) 0.0625 89.2 119.5
109(4) 0.0625 89.2 107.4
100.0(30) 0.1111 89.21 100.27
97.0(30) 0.1111 89.21 96.48
95.0(30) 0.1111 89.22 94.51
88.0(30) 0.1111 89.22 93.42
91.0(30) 0.1111 89.23 92.73
93.0(30) 0.1111 89.24 92.26
94.0(30) 0.1111 89.24 91.91
91.0(30) 0.1111 89.25 91.64
92.0(30) 0.1111 89.26 91.44
92.0(30) 0.1111 89.26 91.29
85.0(30) 0.1111 89.27 91.18
89.0(30) 0.1111 89.27 91.11
88.0(30) 0.1111 89.28 91.07
90.0(30) 0.1111 89.29 91.07
88.0(30) 0.1111 89.29 91.09
89.0(30) 0.1111 89.30 91.16
86.0(30) 0.1111 89.30 91.26
86.0(30) 0.1111 89.31 91.41
85.0(30) 0.1111 89.31 91.64
96.0(30) 0.1111 89.32 91.97
91.0(30) 0.1111 89.32 92.49
89.0(30) 0.1111 89.33 93.46
94.0(30) 0.1111 89.33 95.32
101.0(30) 0.1111 89.34 98.83
100.0(30) 0.1111 89.35 104.94
110(4) 0.0625 89.4 114.3
132(4) 0.0625 89.4 126.6
147(4) 0.0625 89.4 139.5
152(4) 0.0625 89.4 148.7
158(4) 0.0625 89.4 149.2
142(4) 0.0625 89.4 140.8
129(4) 0.0625 89.4 128.1
115.0(30) 0.1111 89.38 115.55
104.0(30) 0.1111 89.39 105.79
97.0(30) 0.1111 89.39 99.32
97.0(30) 0.1111 89.40 95.54
96.0(30) 0.1111 89.40 93.51
92.0(30) 0.1111 89.41 92.44
98.0(30) 0.1111 89.41 91.83
96.0(30) 0.1111 89.42 91.44
98.0(30) 0.1111 89.42 91.16
93.0(30) 0.1111 89.43 90.94
92.0(30) 0.1111 89.43 90.78
88.0(30) 0.1111 89.43 90.64
88.0(30) 0.1111 89.44 90.53
89.0(30) 0.1111 89.44 90.44
94.0(30) 0.1111 89.45 90.36
90.0(30) 0.1111 89.45 90.30
89.0(30) 0.1111 89.46 90.25
87.0(30) 0.1111 89.46 90.21
83.0(30) 0.1111 89.46 90.17
87.0(30) 0.1111 89.47 90.14
90.0(30) 0.1111 89.47 90.11
94.0(30) 0.1111 89.48 90.09
90.0(30) 0.1111 89.48 89.98
88.0(30) 0.1111 89.48 89.96
90.0(30) 0.1111 89.49 89.96
94.0(30) 0.1111 89.49 89.95
92.0(30) 0.1111 89.50 89.95
86.0(30) 0.1111 89.50 89.95
83.0(30) 0.1111 89.50 89.95
88.0(30) 0.1111 89.51 89.96
91.0(30) 0.1111 89.51 89.96
94.0(30) 0.1111 89.51 89.97
91.0(30) 0.1111 89.52 89.98
89.0(30) 0.1111 89.52 89.99
89.0(30) 0.1111 89.52 90.01
96.0(30) 0.1111 89.53 90.03
92.0(30) 0.1111 89.53 90.05
90.0(30) 0.1111 89.54 90.07
89.0(30) 0.1111 89.54 90.10
93.0(30) 0.1111 89.54 90.13
90.0(30) 0.1111 89.55 90.16
85.0(30) 0.1111 89.55 90.20
90.0(30) 0.1111 89.55 90.24
96.0(30) 0.1111 89.56 90.29
95.0(30) 0.1111 89.56 90.34
93.0(30) 0.1111 89.56 90.40
90.0(30) 0.1111 89.57 90.47
86.0(30) 0.1111 89.57 90.55
93.0(30) 0.1111 89.57 90.64
94.0(30) 0.1111 89.57 90.75
91.0(30) 0.1111 89.58 90.87
90.0(30) 0.1111 89.58 91.02
91(4) 0.0625 89.6 91.2
89.0(30) 0.1111 89.59 91.40
91.0(30) 0.1111 89.59 91.66
92.0(30) 0.1111 89.59 91.97
89.0(30) 0.1111 89.60 92.37
94.0(30) 0.1111 89.60 92.83
93.0(30) 0.1111 89.60 93.55
100.0(30) 0.1111 89.61 94.67
95.0(30) 0.1111 89.61 96.62
101.0(30) 0.1111 89.61 100.18
110(4) 0.0625 89.6 106.6
117(4) 0.0625 89.6 117.3
130(4) 0.0625 89.6 133.0
150(4) 0.0625 89.6 153.1
168(4) 0.0625 89.6 173.8
174(4) 0.0625 89.6 188.1
184(4) 0.0625 89.6 188.6
177(4) 0.0625 89.6 175.1
159(4) 0.0625 89.6 154.6
139(4) 0.0625 89.6 134.4
122(4) 0.0625 89.6 118.3
103(4) 0.0625 89.6 107.3
98.0(30) 0.1111 89.65 100.66
97.0(30) 0.1111 89.65 96.93
99.0(30) 0.1111 89.66 94.91
98.0(30) 0.1111 89.66 93.75
92.0(30) 0.1111 89.66 93.01
94.0(30) 0.1111 89.67 92.49
95.0(30) 0.1111 89.67 92.10
95.0(30) 0.1111 89.67 91.79
93.0(30) 0.1111 89.68 91.54
93.0(30) 0.1111 89.68 91.34
90.0(30) 0.1111 89.68 91.18
91.0(30) 0.1111 89.68 91.04
87.0(30) 0.1111 89.69 90.93
87.0(30) 0.1111 89.69 90.84
86(4) 0.0625 89.7 90.8
92(4) 0.0625 89.7 90.7
91.0(30) 0.1111 89.70 90.66
87.0(30) 0.1111 89.70 90.63
89.0(30) 0.1111 89.71 90.61
98.0(30) 0.1111 89.71 90.61
90.0(30) 0.1111 89.71 90.63
97.0(30) 0.1111 89.72 90.67
94.0(30) 0.1111 89.72 90.79
89.0(30) 0.1111 89.72 91.02
90.0(30) 0.1111 89.73 91.46
93.0(30) 0.1111 89.73 92.23
95.0(30) 0.1111 89.73 93.40
98.0(30) 0.1111 89.73 94.95
95.0(30) 0.1111 89.74 96.61
92(4) 0.0625 89.7 97.9
94.0(30) 0.1111 89.74 98.12
96(4) 0.0625 89.7 97.2
92(4) 0.0625 89.8 95.6
92.0(30) 0.1111 89.76 93.98
94(4) 0.0625 89.8 92.6
94(4) 0.0625 89.8 91.7
90(4) 0.0625 89.8 91.1
91(4) 0.0625 89.8 90.8
92.0(30) 0.1111 89.77 90.60
91.0(30) 0.1111 89.78 90.51
91.0(30) 0.1111 89.78 90.46
92.0(30) 0.1111 89.78 90.43
90.0(30) 0.1111 89.79 90.42
88.0(30) 0.1111 89.79 90.41
91.0(30) 0.1111 89.80 90.42
94.0(30) 0.1111 89.80 90.43
95.0(30) 0.1111 89.80 90.45
92.0(30) 0.1111 89.81 90.48
89.0(30) 0.1111 89.81 90.51
92.0(30) 0.1111 89.81 90.56
92(4) 0.0625 89.8 90.6
92(4) 0.0625 89.8 90.7
89.0(30) 0.1111 89.83 90.77
85.0(30) 0.1111 89.83 90.88
92.0(30) 0.1111 89.84 91.02
94.0(30) 0.1111 89.84 91.19
94.0(30) 0.1111 89.84 91.43
95.0(30) 0.1111 89.85 91.76
91.0(30) 0.1111 89.85 92.30
94.0(30) 0.1111 89.86 93.24
94(4) 0.0625 89.9 95.0
96(4) 0.0625 89.9 98.0
106.0(30) 0.1111 89.87 102.88
108(4) 0.0625 89.9 110.0
110(4) 0.0625 89.9 118.7
127(4) 0.0625 89.9 127.3
139(4) 0.0625 89.9 132.8
133(4) 0.0625 89.9 132.2
126(4) 0.0625 89.9 126.0
116(4) 0.0625 89.9 117.2
106.0(30) 0.1111 89.91 108.72
96.0(30) 0.1111 89.91 101.98
100.0(30) 0.1111 89.92 97.38
94.0(30) 0.1111 89.92 94.59
90.0(30) 0.1111 89.93 93.03
86(4) 0.0625 89.9 92.2
91.0(30) 0.1111 89.94 91.69
90.0(30) 0.1111 89.95 91.38
85.0(30) 0.1111 89.95 91.16
84.0(30) 0.1111 89.96 91.00
92.0(30) 0.1111 89.96 90.87
91.0(30) 0.1111 89.97 90.77
87.0(30) 0.1111 89.97 90.69
87.0(30) 0.1111 89.98 90.62
86.0(30) 0.1111 89.99 90.57
90.0(30) 0.1111 89.99 90.53
89.0(30) 0.1111 90.00 90.49
92.0(30) 0.1111 90.00 90.47
89.0(30) 0.1111 90.01 90.45
90.0(30) 0.1111 90.02 90.43
88.0(30) 0.1111 90.02 90.43
88.0(30) 0.1111 90.03 90.42
93.0(30) 0.1111 90.04 90.43
90.0(30) 0.1111 90.04 90.44
90.0(30) 0.1111 90.05 90.47
94.0(30) 0.1111 90.06 90.51
92.0(30) 0.1111 90.06 90.60
93.0(30) 0.1111 90.07 90.76
96.0(30) 0.1111 90.08 91.06
91.0(30) 0.1111 90.08 91.55
90.0(30) 0.1111 90.09 92.29
93.0(30) 0.1111 90.10 93.24
99.0(30) 0.1111 90.11 94.24
94.0(30) 0.1111 90.11 95.00
98.0(30) 0.1111 90.12 95.15
99.0(30) 0.1111 90.13 94.62
96.0(30) 0.1111 90.14 93.69
95(4) 0.0625 90.1 92.7
93.0(30) 0.1111 90.15 91.86
87.0(30) 0.1111 90.16 91.26
88.0(30) 0.1111 90.17 90.88
95.0(30) 0.1111 90.18 90.67
93.0(30) 0.1111 90.19 90.66
89.0(30) 0.1111 90.19 90.60
92.0(30) 0.1111 90.20 90.57
89.0(30) 0.1111 90.21 90.55
88.0(30) 0.1111 90.22 90.54
94.0(30) 0.1111 90.23 90.54
88.0(30) 0.1111 90.24 90.53
88.0(30) 0.1111 90.25 90.53
85.0(30) 0.1111 90.25 90.54
88.0(30) 0.1111 90.26 90.54
93(4) 0.0625 90.3 90.5
92.0(30) 0.1111 90.28 90.56
93.0(30) 0.1111 90.29 90.57
97.0(30) 0.1111 90.30 90.58
91.0(30) 0.1111 90.31 90.59
90.0(30) 0.1111 90.32 90.60
93.0(30) 0.1111 90.33 90.62
89.0(30) 0.1111 90.34 90.64
92.0(30) 0.1111 90.35 90.65
89.0(30) 0.1111 90.36 90.67
84.0(30) 0.1111 90.37 90.70
91.0(30) 0.1111 90.38 90.72
92.0(30) 0.1111 90.39 90.76
93.0(30) 0.1111 90.40 90.77
94.0(30) 0.1111 90.41 90.85
96.0(30) 0.1111 90.42 90.96
96.0(30) 0.1111 90.44 91.11
92.0(30) 0.1111 90.45 91.29
89(4) 0.0625 90.5 91.5
92.0(30) 0.1111 90.47 91.63
92.0(30) 0.1111 90.48 91.68
97.0(30) 0.1111 90.49 91.86
90.0(30) 0.1111 90.50 91.74
83.0(30) 0.1111 90.52 91.62
90.0(30) 0.1111 90.53 91.52
91.0(30) 0.1111 90.54 91.46
89(4) 0.0625 90.6 91.4
88(4) 0.0625 90.6 91.5
89.0(30) 0.1111 90.58 91.49
93(4) 0.0625 90.6 91.6
92(4) 0.0625 90.6 91.7
93.0(30) 0.1111 90.61 91.72
91.0(30) 0.1111 90.63 91.80
86.0(30) 0.1111 90.64 91.88
83.0(30) 0.1111 90.65 91.97
92.0(30) 0.1111 90.67 92.07
95.0(30) 0.1111 90.68 92.18
94.0(30) 0.1111 90.69 92.30
91.0(30) 0.1111 90.71 92.44
87.0(30) 0.1111 90.72 92.60
89.0(30) 0.1111 90.74 92.78
93.0(30) 0.1111 90.75 92.99
92.0(30) 0.1111 90.76 93.23
96.0(30) 0.1111 90.78 93.51
92.0(30) 0.1111 90.79 93.84
94.0(30) 0.1111 90.81 94.24
97.0(30) 0.1111 90.82 94.72
97.0(30) 0.1111 90.84 95.34
99(4) 0.0625 90.9 96.2
94(4) 0.0625 90.9 97.4
93(4) 0.0625 90.9 99.3
96.0(30) 0.1111 90.90 102.63
106.0(30) 0.1111 90.91 108.38
119(4) 0.0625 90.9 117.9
133(4) 0.0625 90.9 132.2
158(4) 0.0625 91.0 151.6
179(4) 0.0625 91.0 174.3
194(4) 0.0625 91.0 195.7
205(5) 0.0400 91.0 208.6
198(5) 0.0400 91.0 206.9
192(5) 0.0400 91.0 191.6
170(4) 0.0625 91.1 169.6
152(4) 0.0625 91.1 147.6
132(4) 0.0625 91.1 129.4
113(4) 0.0625 91.1 116.3
107(4) 0.0625 91.1 107.9
106(4) 0.0625 91.1 102.9
101(4) 0.0625 91.2 100.1
102.0(30) 0.1111 91.18 98.53
102.0(30) 0.1111 91.20 97.60
96.0(30) 0.1111 91.22 97.02
98.0(30) 0.1111 91.23 96.65
97.0(30) 0.1111 91.25 96.41
99(4) 0.0625 91.3 96.3
94(4) 0.0625 91.3 96.2
89.0(30) 0.1111 91.31 96.25
93.0(30) 0.1111 91.33 96.34
96(4) 0.0625 91.3 96.5
93.0(30) 0.1111 91.37 96.75
91.0(30) 0.1111 91.38 97.06
93(4) 0.0625 91.4 97.5
98(4) 0.0625 91.4 98.0
96(4) 0.0625 91.4 98.6
98.0(30) 0.1111 91.46 99.34
102(4) 0.0625 91.5 100.3
101.0(30) 0.1111 91.50 101.45
99.0(30) 0.1111 91.52 102.94
100.0(30) 0.1111 91.55 104.94
102.0(30) 0.1111 91.57 107.81
99(4) 0.0625 91.6 112.3
112(4) 0.0625 91.6 119.9
128(4) 0.0625 91.6 133.1
150(4) 0.0625 91.7 155.3
189(4) 0.0625 91.7 190.0
244(5) 0.0400 91.7 239.2
311(6) 0.02778 91.7 300.9
362(6) 0.02778 91.7 366.4
407(6) 0.02778 91.8 418.9
417(7) 0.02041 91.8 437.6
399(6) 0.02778 91.8 413.6
357(6) 0.02778 91.8 358.8
296(5) 0.0400 91.9 293.4
240(5) 0.0400 91.9 233.2
191(4) 0.0625 91.9 185.7
158(4) 0.0625 91.9 152.6
135(4) 0.0625 91.9 131.6
122(4) 0.0625 92.0 119.1
116(4) 0.0625 92.0 111.9
108.0(30) 0.1111 92.01 107.54
111(4) 0.0625 92.0 104.8
109(4) 0.0625 92.1 102.8
105.0(30) 0.1111 92.09 101.34
103.0(30) 0.1111 92.11 100.17
104.0(30) 0.1111 92.14 99.22
105.0(30) 0.1111 92.16 98.44
106(4) 0.0625 92.2 97.8
102.0(30) 0.1111 92.21 97.24
101.0(30) 0.1111 92.24 96.78
95.0(30) 0.1111 92.26 96.39
100.0(30) 0.1111 92.29 96.05
100.0(30) 0.1111 92.31 95.76
95.0(30) 0.1111 92.34 95.50
95.0(30) 0.1111 92.36 95.28
93.0(30) 0.1111 92.39 95.09
96.0(30) 0.1111 92.42 94.92
98.0(30) 0.1111 92.44 94.78
92.0(30) 0.1111 92.47 94.65
96(4) 0.0625 92.5 94.4
95.0(30) 0.1111 92.52 94.32
98.0(30) 0.1111 92.55 94.24
97.0(30) 0.1111 92.58 94.16
96.0(30) 0.1111 92.61 94.10
93.0(30) 0.1111 92.63 94.04
97.0(30) 0.1111 92.66 93.99
92.0(30) 0.1111 92.69 93.94
92.0(30) 0.1111 92.72 93.91
95.0(30) 0.1111 92.75 93.87
93.0(30) 0.1111 92.78 93.85
94.0(30) 0.1111 92.80 93.82
93.0(30) 0.1111 92.83 93.80
95.0(30) 0.1111 92.86 93.79
92.0(30) 0.1111 92.89 93.77
89.0(30) 0.1111 92.92 93.76
91.0(30) 0.1111 92.95 93.76
91.0(30) 0.1111 92.98 93.75
93.0(30) 0.1111 93.01 93.75
99.0(30) 0.1111 93.04 93.75
96.0(30) 0.1111 93.07 93.76
98.0(30) 0.1111 93.10 93.76
92.0(30) 0.1111 93.13 93.76
92.0(30) 0.1111 93.16 93.77
96.0(30) 0.1111 93.19 93.78
93.0(30) 0.1111 93.22 93.79
90.0(30) 0.1111 93.25 93.80
88.0(30) 0.1111 93.29 93.81
88.0(30) 0.1111 93.32 93.83
93.0(30) 0.1111 93.35 93.84
96.0(30) 0.1111 93.38 93.86
95.0(30) 0.1111 93.41 93.87
94(4) 0.0625 93.4 93.9
93.0(30) 0.1111 93.48 93.91
90.0(30) 0.1111 93.51 93.93
93.0(30) 0.1111 93.54 93.95
93(4) 0.0625 93.6 94.0
87.0(30) 0.1111 93.61 93.99
88.0(30) 0.1111 93.64 94.02
92.0(30) 0.1111 93.67 94.04
94.0(30) 0.1111 93.71 94.06
96.0(30) 0.1111 93.74 94.09
96.0(30) 0.1111 93.77 94.11
95.0(30) 0.1111 93.81 94.14
96.0(30) 0.1111 93.84 94.17
95.0(30) 0.1111 93.88 94.20
96.0(30) 0.1111 93.91 94.23
94.0(30) 0.1111 93.95 94.26
96.0(30) 0.1111 93.98 94.02
92.0(30) 0.1111 94.01 94.07
92.0(30) 0.1111 94.05 94.12
94.0(30) 0.1111 94.08 94.17
93.0(30) 0.1111 94.12 94.22
94.0(30) 0.1111 94.16 94.26
93.0(30) 0.1111 94.19 94.35
97.0(30) 0.1111 94.23 94.37
98.0(30) 0.1111 94.26 94.39
98.0(30) 0.1111 94.30 94.42
95.0(30) 0.1111 94.33 94.44
97.0(30) 0.1111 94.37 94.47
97.0(30) 0.1111 94.41 94.50
94.0(30) 0.1111 94.44 94.54
97.0(30) 0.1111 94.48 94.58
97(4) 0.0625 94.5 94.6
100.0(30) 0.1111 94.56 94.65
99.0(30) 0.1111 94.59 94.69
98(4) 0.0625 94.6 94.7
94.0(30) 0.1111 94.67 94.78
100.0(30) 0.1111 94.71 94.82
98.0(30) 0.1111 94.74 94.86
92.0(30) 0.1111 94.78 94.90
94.0(30) 0.1111 94.82 94.95
94.0(30) 0.1111 94.86 94.99
102.0(30) 0.1111 94.90 95.04
102.0(30) 0.1111 94.94 95.08
94.0(30) 0.1111 94.97 95.13
95.0(30) 0.1111 95.01 95.18
96.0(30) 0.1111 95.05 95.23
100.0(30) 0.1111 95.09 95.28
98.0(30) 0.1111 95.13 95.33
94.0(30) 0.1111 95.17 95.38
95(4) 0.0625 95.2 95.4
94(4) 0.0625 95.3 95.5
92.0(30) 0.1111 95.29 95.57
95.0(30) 0.1111 95.33 95.64
97(4) 0.0625 95.4 95.7
96.0(30) 0.1111 95.41 95.83
93.0(30) 0.1111 95.45 95.97
97.0(30) 0.1111 95.49 96.17
98.0(30) 0.1111 95.53 96.47
92.0(30) 0.1111 95.57 96.91
91.0(30) 0.1111 95.62 97.51
94.0(30) 0.1111 95.66 98.27
99.0(30) 0.1111 95.70 99.14
100.0(30) 0.1111 95.74 99.99
99(4) 0.0625 95.8 100.6
98.0(30) 0.1111 95.82 100.81
101(4) 0.0625 95.9 100.5
102.0(30) 0.1111 95.91 99.88
103.0(30) 0.1111 95.95 99.11
98.0(30) 0.1111 95.99 98.42
101.0(30) 0.1111 96.04 97.83
98.0(30) 0.1111 96.08 97.40
99.0(30) 0.1111 96.12 97.13
100.0(30) 0.1111 96.16 96.97
100.0(30) 0.1111 96.21 96.90
98.0(30) 0.1111 96.25 96.89
100.0(30) 0.1111 96.29 96.90
101.0(30) 0.1111 96.34 96.93
98.0(30) 0.1111 96.38 96.98
99.0(30) 0.1111 96.43 97.03
96.0(30) 0.1111 96.47 97.09
96.0(30) 0.1111 96.51 97.15
100.0(30) 0.1111 96.56 97.22
97.0(30) 0.1111 96.60 97.30
97.0(30) 0.1111 96.65 97.38
99.0(30) 0.1111 96.69 97.47
100.0(30) 0.1111 96.74 97.57
96.0(30) 0.1111 96.78 97.68
93.0(30) 0.1111 96.83 97.79
97.0(30) 0.1111 96.87 97.92
97.0(30) 0.1111 96.92 98.06
99.0(30) 0.1111 96.96 98.22
98.0(30) 0.1111 97.01 98.39
96.0(30) 0.1111 97.06 98.60
97.0(30) 0.1111 97.10 98.83
98.0(30) 0.1111 97.15 99.10
100.0(30) 0.1111 97.19 99.44
100.0(30) 0.1111 97.24 99.86
103.0(30) 0.1111 97.29 100.45
102.0(30) 0.1111 97.33 101.31
100.0(30) 0.1111 97.38 102.65
104(4) 0.0625 97.4 104.8
110(4) 0.0625 97.5 108.1
116(4) 0.0625 97.5 113.0
124(4) 0.0625 97.6 119.9
131(4) 0.0625 97.6 128.6
131(4) 0.0625 97.7 138.7
137(4) 0.0625 97.7 148.6
149(4) 0.0625 97.8 156.3
156(4) 0.0625 97.8 159.1
157(4) 0.0625 97.9 156.2
155(4) 0.0625 97.9 148.7
147(4) 0.0625 98.0 138.9
128(4) 0.0625 98.0 129.1
119(4) 0.0625 98.0 120.5
120(4) 0.0625 98.1 113.7
117(4) 0.0625 98.1 108.9
108(4) 0.0625 98.2 105.7
107.0(30) 0.1111 98.24 103.66
99.0(30) 0.1111 98.29 102.41
96.0(30) 0.1111 98.34 101.65
101(4) 0.0625 98.4 101.2
104(4) 0.0625 98.4 100.8
101(4) 0.0625 98.5 100.6
101.0(30) 0.1111 98.54 100.46
100.0(30) 0.1111 98.59 100.34
102.0(30) 0.1111 98.64 100.25
102(4) 0.0625 98.7 100.2
96.0(30) 0.1111 98.74 100.15
101.0(30) 0.1111 98.79 100.14
101.0(30) 0.1111 98.84 100.13
105(4) 0.0625 98.9 100.1
109(4) 0.0625 98.9 100.2
101.0(30) 0.1111 98.99 100.21
96.0(30) 0.1111 99.04 100.27
102.0(30) 0.1111 99.09 100.33
101.0(30) 0.1111 99.14 100.42
102.0(30) 0.1111 99.20 100.51
100.0(30) 0.1111 99.25 100.63
99.0(30) 0.1111 99.30 100.76
99.0(30) 0.1111 99.35 100.92
94.0(30) 0.1111 99.40 101.12
100(4) 0.0625 99.5 101.4
98(4) 0.0625 99.5 101.7
103(4) 0.0625 99.6 102.2
102(4) 0.0625 99.6 102.9
103(4) 0.0625 99.7 104.0
109(4) 0.0625 99.7 105.7
117(4) 0.0625 99.8 108.2
117(4) 0.0625 99.8 111.8
118(4) 0.0625 99.9 116.5
124(4) 0.0625 99.9 122.2
130(4) 0.0625 100.0 128.5
134(4) 0.0625 100.0 134.3
135(4) 0.0625 100.1 138.4
136(4) 0.0625 100.1 139.5
134(4) 0.0625 100.2 137.2
135(4) 0.0625 100.2 132.5
129(4) 0.0625 100.3 126.5
122(4) 0.0625 100.4 120.5
121(4) 0.0625 100.4 115.2
115(4) 0.0625 100.5 111.0
111(4) 0.0625 100.5 108.0
108.0(30) 0.1111 100.57 105.84
109.0(30) 0.1111 100.62 104.47
110.0(30) 0.1111 100.68 103.61
110(4) 0.0625 100.7 103.1
109(4) 0.0625 100.8 102.7
108.0(30) 0.1111 100.84 102.52
110(4) 0.0625 100.9 102.4
107(4) 0.0625 101.0 102.3
109(4) 0.0625 101.0 102.2
99(4) 0.0625 101.1 102.1
101(4) 0.0625 101.1 102.1
110.0(30) 0.1111 101.17 102.08
108.0(30) 0.1111 101.23 102.07
105.0(30) 0.1111 101.29 102.07
99.0(30) 0.1111 101.34 102.07
105(4) 0.0625 101.4 102.1
105(4) 0.0625 101.5 102.1
106(4) 0.0625 101.5 102.1
110(4) 0.0625 101.6 102.2
105.0(30) 0.1111 101.62 102.18
107(4) 0.0625 101.7 102.2
104(4) 0.0625 101.7 102.2
103(4) 0.0625 101.8 102.3
99(4) 0.0625 101.8 102.3
102(4) 0.0625 101.9 102.4
108(4) 0.0625 102.0 102.4
106(4) 0.0625 102.0 102.5
97(4) 0.0625 102.1 102.5
103(4) 0.0625 102.1 102.6
109(4) 0.0625 102.2 102.6
109(4) 0.0625 102.2 102.7
105(4) 0.0625 102.3 102.7
104(4) 0.0625 102.4 102.7
100(4) 0.0625 102.4 102.8
100(4) 0.0625 102.5 102.8
103(4) 0.0625 102.5 102.9
105(4) 0.0625 102.6 102.9
104(4) 0.0625 102.7 103.4
102.0(30) 0.1111 102.71 103.44
103.0(30) 0.1111 102.77 103.51
104(4) 0.0625 102.8 103.6
99.0(30) 0.1111 102.89 103.65
100.0(30) 0.1111 102.95 103.72
103.0(30) 0.1111 103.01 103.80
105(4) 0.0625 103.1 103.9
100.0(30) 0.1111 103.13 103.95
96.0(30) 0.1111 103.19 104.03
102.0(30) 0.1111 103.25 104.11
106.0(30) 0.1111 103.31 104.19
100.0(30) 0.1111 103.37 104.27
102(4) 0.0625 103.4 104.4
104.0(30) 0.1111 103.49 104.45
101(4) 0.0625 103.5 104.5
106.0(30) 0.1111 103.61 104.63
105(4) 0.0625 103.7 104.7
105(4) 0.0625 103.7 104.8
113(4) 0.0625 103.8 104.9
105(4) 0.0625 103.8 105.0
102(4) 0.0625 103.9 105.1
102.0(30) 0.1111 103.97 105.24
104.0(30) 0.1111 104.03 105.36
108(4) 0.0625 104.1 105.5
106.0(30) 0.1111 104.16 105.61
100.0(30) 0.1111 104.22 105.74
100.0(30) 0.1111 104.28 105.89
104.0(30) 0.1111 104.34 106.04
109(4) 0.0625 104.4 106.2
109(4) 0.0625 104.5 106.4
102(4) 0.0625 104.5 106.6
101.0(30) 0.1111 104.59 106.75
107(4) 0.0625 104.7 107.0
108(4) 0.0625 104.7 107.2
103(4) 0.0625 104.8 107.5
104.0(30) 0.1111 104.84 107.79
109(4) 0.0625 104.9 108.1
110(4) 0.0625 105.0 108.6
109(4) 0.0625 105.0 109.1
112(4) 0.0625 105.1 109.8
111(4) 0.0625 105.2 110.8
107.0(30) 0.1111 105.22 112.20
109(4) 0.0625 105.3 114.3
114(4) 0.0625 105.3 117.4
118(4) 0.0625 105.4 121.7
121(4) 0.0625 105.5 127.6
131(4) 0.0625 105.5 135.1
143(4) 0.0625 105.6 144.2
150(4) 0.0625 105.7 154.1
158(4) 0.0625 105.7 164.0
172(4) 0.0625 105.8 172.1
174(4) 0.0625 105.9 176.8
172(4) 0.0625 105.9 176.9
172(4) 0.0625 106.0 172.4
164(4) 0.0625 106.1 164.5
159(4) 0.0625 106.1 155.1
147(4) 0.0625 106.2 145.5
127(4) 0.0625 106.3 136.7
129(4) 0.0625 106.3 129.5
125(4) 0.0625 106.4 123.8
126(4) 0.0625 106.5 119.7
114(4) 0.0625 106.5 116.8
109(4) 0.0625 106.6 114.9
108(4) 0.0625 106.7 113.7
112(4) 0.0625 106.7 113.0
110.0(30) 0.1111 106.80 112.52
113(4) 0.0625 106.9 112.3
114(4) 0.0625 106.9 112.1
112(4) 0.0625 107.0 112.1
110(4) 0.0625 107.1 112.1
111(4) 0.0625 107.1 112.2
108(4) 0.0625 107.2 112.3
111(4) 0.0625 107.3 112.4
113(4) 0.0625 107.3 112.6
107(4) 0.0625 107.4 112.8
110(4) 0.0625 107.5 113.1
111(4) 0.0625 107.5 113.4
109(4) 0.0625 107.6 113.7
109(4) 0.0625 107.7 114.1
112(4) 0.0625 107.8 114.6
113(4) 0.0625 107.8 115.1
111.0(30) 0.1111 107.90 115.68
107.0(30) 0.1111 107.97 116.33
110.0(30) 0.1111 108.04 117.07
115(4) 0.0625 108.1 117.9
120(4) 0.0625 108.2 118.9
120(4) 0.0625 108.3 120.0
121(4) 0.0625 108.3 121.4
118(4) 0.0625 108.4 123.0
117(4) 0.0625 108.5 125.0
113.0(30) 0.1111 108.54 127.71
120(4) 0.0625 108.6 131.4
126(4) 0.0625 108.7 136.6
130(4) 0.0625 108.8 144.1
144(4) 0.0625 108.8 155.1
163(4) 0.0625 108.9 170.7
189(5) 0.0400 109.0 192.5
226(5) 0.0400 109.0 221.5
265(5) 0.0400 109.1 258.3
304(6) 0.02778 109.2 302.6
360(6) 0.02778 109.3 352.4
403(6) 0.02778 109.3 403.9
450(7) 0.02041 109.4 451.1
477(7) 0.02041 109.5 486.1
502(7) 0.02041 109.6 501.6
498(7) 0.02041 109.6 494.0
473(7) 0.02041 109.7 465.7
439(7) 0.02041 109.8 423.0
374(6) 0.02778 109.9 373.2
322(6) 0.02778 109.9 322.9
281(5) 0.0400 110.0 276.6
240(5) 0.0400 110.1 237.0
212(5) 0.0400 110.2 205.1
188(4) 0.0625 110.3 180.7
166(4) 0.0625 110.3 162.8
151(4) 0.0625 110.4 150.1
147(4) 0.0625 110.5 141.3
144(4) 0.0625 110.6 135.3
133(4) 0.0625 110.6 131.1
129(4) 0.0625 110.7 128.1
132(4) 0.0625 110.8 125.9
126(4) 0.0625 110.9 124.2
122(4) 0.0625 111.0 122.9
121(4) 0.0625 111.0 121.8
128(4) 0.0625 111.1 120.9
132(4) 0.0625 111.2 120.1
123(4) 0.0625 111.3 119.4
123(4) 0.0625 111.4 118.8
125(4) 0.0625 111.4 118.3
130(4) 0.0625 111.5 117.9
122(4) 0.0625 111.6 117.5
125(4) 0.0625 111.7 117.2
124(4) 0.0625 111.8 116.9
118(4) 0.0625 111.8 116.6
116(4) 0.0625 111.9 116.4
119(4) 0.0625 112.0 116.2
125(4) 0.0625 112.1 116.1
116(4) 0.0625 112.2 115.9
117(4) 0.0625 112.3 115.8
121(4) 0.0625 112.3 115.7
117(4) 0.0625 112.4 115.6
114(4) 0.0625 112.5 115.5
116(4) 0.0625 112.6 115.4
118(4) 0.0625 112.7 115.4
114(4) 0.0625 112.8 115.3
118(4) 0.0625 112.8 115.3
118(4) 0.0625 112.9 115.3
118(4) 0.0625 113.0 115.3
114(4) 0.0625 113.1 115.3
116(4) 0.0625 113.2 115.3
121(4) 0.0625 113.3 115.3
117(4) 0.0625 113.4 115.4
117(4) 0.0625 113.5 115.4
119(4) 0.0625 113.5 115.4
117(4) 0.0625 113.6 115.4
120(4) 0.0625 113.7 115.4
120(4) 0.0625 113.8 115.5
122(4) 0.0625 113.9 115.5
127(4) 0.0625 114.0 115.5
118(4) 0.0625 114.1 115.5
119(4) 0.0625 114.2 115.6
120(4) 0.0625 114.3 115.6
120(4) 0.0625 114.3 115.7
118(4) 0.0625 114.4 115.7
113(4) 0.0625 114.5 115.8
117(4) 0.0625 114.6 115.9
120(4) 0.0625 114.7 115.9
119(4) 0.0625 114.8 116.0
115(4) 0.0625 114.9 116.0
114(4) 0.0625 115.0 116.1
115(4) 0.0625 115.1 116.2
116(4) 0.0625 115.2 116.2
118(4) 0.0625 115.3 116.3
121(4) 0.0625 115.4 116.4
118(4) 0.0625 115.4 116.5
118(4) 0.0625 115.5 116.5
122(4) 0.0625 115.6 116.6
114(4) 0.0625 115.7 116.7
118(4) 0.0625 115.8 116.8
109(4) 0.0625 115.9 116.9
113(4) 0.0625 116.0 117.0
114(4) 0.0625 116.1 117.0
115(4) 0.0625 116.2 117.1
116(4) 0.0625 116.3 117.2
118(4) 0.0625 116.4 117.3
115(4) 0.0625 116.5 117.4
114(4) 0.0625 116.6 117.5
118(4) 0.0625 116.7 117.6
115(4) 0.0625 116.8 117.7
112(4) 0.0625 116.9 117.8
113(4) 0.0625 117.0 117.9
116(4) 0.0625 117.1 118.0
115(4) 0.0625 117.2 118.1
115(4) 0.0625 117.3 118.2
112(4) 0.0625 117.4 118.3
124(4) 0.0625 117.5 118.4
123(4) 0.0625 117.6 118.5
119(4) 0.0625 117.7 119.0
112(4) 0.0625 117.8 119.1
112(4) 0.0625 117.9 119.2
115(4) 0.0625 118.0 119.4
118(4) 0.0625 118.1 119.5
121(4) 0.0625 118.2 119.6
123(4) 0.0625 118.3 119.8
119(4) 0.0625 118.4 119.9
117(4) 0.0625 118.5 120.1
115(4) 0.0625 118.6 120.3
116(4) 0.0625 118.7 120.6
118(4) 0.0625 118.8 120.9
120(4) 0.0625 118.9 121.3
118(4) 0.0625 119.0 121.4
123(4) 0.0625 119.1 122.1
117(4) 0.0625 119.2 122.8
116(4) 0.0625 119.3 123.7
115(4) 0.0625 119.5 124.7
122(4) 0.0625 119.6 125.8
125(4) 0.0625 119.7 127.0
126(4) 0.0625 119.8 128.2
133(4) 0.0625 119.9 129.3
128(4) 0.0625 120.0 130.1
127(4) 0.0625 120.1 130.6
128(4) 0.0625 120.2 130.7
125(4) 0.0625 120.3 130.5
127(4) 0.0625 120.4 129.9
130(4) 0.0625 120.5 129.1
129(4) 0.0625 120.6 128.2
130(4) 0.0625 120.7 127.3
131(4) 0.0625 120.8 126.4
129(4) 0.0625 121.0 125.7
128(4) 0.0625 121.1 125.0
123(4) 0.0625 121.2 124.6
128(4) 0.0625 121.3 124.2
128(4) 0.0625 121.4 124.0
128(4) 0.0625 121.5 123.8
124(4) 0.0625 121.6 123.7
124(4) 0.0625 121.7 123.7
121(4) 0.0625 121.8 123.8
129(4) 0.0625 122.0 123.8
126(4) 0.0625 122.1 123.9
121(4) 0.0625 122.2 124.0
117(4) 0.0625 122.3 124.2
120(4) 0.0625 122.4 124.3
125(4) 0.0625 122.5 124.4
126(4) 0.0625 122.6 124.6
119(4) 0.0625 122.7 124.7
121(4) 0.0625 122.8 124.9
117(4) 0.0625 123.0 125.0
120(4) 0.0625 123.1 125.2
124(4) 0.0625 123.2 125.4
127(4) 0.0625 123.3 125.6
120(4) 0.0625 123.4 125.8
124(4) 0.0625 123.5 125.9
126(4) 0.0625 123.6 126.1
123(4) 0.0625 123.7 126.4
122(4) 0.0625 123.9 126.6
127(4) 0.0625 124.0 126.8
127(4) 0.0625 124.1 127.1
131(4) 0.0625 124.2 127.3
129(4) 0.0625 124.3 127.6
134(4) 0.0625 124.4 127.9
135(4) 0.0625 124.5 128.2
134(4) 0.0625 124.7 128.5
135(4) 0.0625 124.8 128.8
135(4) 0.0625 124.9 129.2
138(4) 0.0625 125.0 129.6
139(4) 0.0625 125.1 130.1
142(4) 0.0625 125.2 130.6
148(4) 0.0625 125.3 131.3
146(4) 0.0625 125.4 132.1
148(4) 0.0625 125.6 133.1
152(5) 0.0400 125.7 134.3
159(5) 0.0400 125.8 135.9
156(5) 0.0400 125.9 137.9
151(5) 0.0400 126.0 140.6
159(5) 0.0400 126.1 143.9
168(5) 0.0400 126.2 148.1
169(5) 0.0400 126.3 153.3
168(5) 0.0400 126.5 159.6
177(5) 0.0400 126.6 166.9
188(5) 0.0400 126.7 175.2
194(5) 0.0400 126.8 184.3
208(6) 0.02778 126.9 194.0
210(6) 0.02778 127.0 203.7
209(6) 0.02778 127.1 212.8
222(6) 0.02778 127.2 220.6
236(6) 0.02778 127.3 226.3
230(6) 0.02778 127.5 229.3
225(6) 0.02778 127.6 229.1
234(6) 0.02778 127.7 225.9
225(6) 0.02778 127.8 220.2
213(6) 0.02778 127.9 212.7
205(5) 0.0400 128.0 204.0
189(5) 0.0400 128.1 194.7
187(5) 0.0400 128.2 185.6
176(5) 0.0400 128.3 176.9
162(5) 0.0400 128.4 169.1
161(5) 0.0400 128.5 162.3
153(5) 0.0400 128.6 156.5
147(5) 0.0400 128.7 151.7
154(5) 0.0400 128.8 147.9
141(5) 0.0400 128.9 145.0
136(5) 0.0400 129.0 142.7
143(5) 0.0400 129.1 141.0
144(5) 0.0400 129.2 139.8
141(5) 0.0400 129.3 138.9
136(5) 0.0400 129.4 138.3
131(5) 0.0400 129.5 137.8
137(5) 0.0400 129.6 137.5
134(5) 0.0400 129.7 137.4
128(5) 0.0400 129.8 137.3
131(5) 0.0400 129.9 137.2
132(5) 0.0400 130.0 137.2
129(5) 0.0400 130.1 137.3
143(5) 0.0400 130.2 137.3
138(5) 0.0400 130.3 137.5
132(5) 0.0400 130.4 137.6
133(5) 0.0400 130.5 137.8
138(5) 0.0400 130.6 137.9
138(5) 0.0400 130.7 138.2
130(5) 0.0400 130.8 138.4
131(5) 0.0400 130.8 138.7
136(5) 0.0400 130.9 139.0
141(5) 0.0400 131.0 139.3
135(5) 0.0400 131.1 139.7
128(5) 0.0400 131.2 140.0
126(5) 0.0400 131.3 140.5
126(5) 0.0400 131.3 140.9
132(5) 0.0400 131.4 141.4
137(5) 0.0400 131.5 142.0
138(5) 0.0400 131.6 142.6
140(5) 0.0400 131.6 143.2
139(5) 0.0400 131.7 144.0
133(5) 0.0400 131.8 144.8
132(5) 0.0400 131.8 145.7
134(5) 0.0400 131.9 146.7
135(5) 0.0400 132.0 147.9
129(5) 0.0400 132.0 149.2
134(5) 0.0400 132.1 150.9
143(5) 0.0400 132.2 152.9
141(5) 0.0400 132.2 155.4
139(5) 0.0400 132.3 158.5
160(6) 0.02778 132.3 162.4
160(6) 0.02778 132.4 167.5
161(6) 0.02778 132.4 173.8
170(6) 0.02778 132.5 181.9
177(6) 0.02778 132.5 192.1
193(7) 0.02041 132.6 204.7
204(7) 0.02041 132.6 220.1
231(7) 0.02041 132.7 238.6
255(8) 0.01563 132.7 260.4
287(8) 0.01563 132.7 285.6
319(9) 0.01235 132.8 314.0
358(9) 0.01235 132.8 345.4
393(10) 0.01000 132.8 378.9
415(10) 0.01000 132.9 413.7
460(11) 0.00826 132.9 448.5
495(11) 0.00826 132.9 481.6
510(11) 0.00826 132.9 510.9
525(12) 0.00694 133.0 534.4
544(12) 0.00694 133.0 550.1
561(12) 0.00694 133.0 556.6
567(12) 0.00694 133.0 553.4
556(12) 0.00694 133.0 540.9
543(12) 0.00694 133.0 520.4
520(12) 0.00694 133.0 493.6
510(11) 0.00826 133.0 462.4
450(11) 0.00826 133.0 428.7
411(11) 0.00826 133.0 394.2
355(10) 0.01000 133.0 360.4
325(10) 0.01000 133.0 328.3
311(9) 0.01235 132.9 298.8
276(9) 0.01235 132.9 272.3
254(9) 0.01235 132.9 249.1
222(8) 0.01563 132.9 229.1
208(8) 0.01563 132.8 212.4
215(8) 0.01563 132.8 198.5
200(8) 0.01563 132.7 187.2
178(7) 0.02041 132.7 178.1
171(7) 0.02041 132.7 170.8
162(7) 0.02041 132.6 165.1
165(7) 0.02041 132.6 160.6
161(7) 0.02041 132.5 157.0
152(7) 0.02041 132.4 154.1
148(7) 0.02041 132.4 151.8
148(7) 0.02041 132.3 149.9
150(7) 0.02041 132.2 148.4
147(7) 0.02041 132.1 147.0
148(7) 0.02041 132.0 145.9
146(7) 0.02041 132.0 144.8
147(7) 0.02041 131.9 143.9
143(7) 0.02041 131.8 143.1
143(7) 0.02041 131.7 142.3
144(7) 0.02041 131.6 141.6
140(7) 0.02041 131.4 140.9
146(7) 0.02041 131.3 140.3
141(7) 0.02041 131.2 139.8
153(8) 0.01563 131.1 139.2
147(8) 0.01563 130.9 138.7
141(8) 0.01563 130.8 138.2
139(8) 0.01563 130.7 137.7
146(8) 0.01563 130.5 137.2
145(8) 0.01563 130.3 136.8
147(8) 0.01563 130.2 136.4
149(8) 0.01563 130.0 136.0
140(8) 0.01563 129.8 135.6
149(9) 0.01235 129.7 135.2
161(9) 0.01235 129.5 134.8
143(8) 0.01563 129.3 134.4
139(8) 0.01563 129.1 134.0
145(8) 0.01563 128.9 133.6
132(8) 0.01563 128.7 133.3
136(8) 0.01563 128.5 132.9
147(9) 0.01235 128.2 132.5
144(9) 0.01235 128.0 132.2
150(9) 0.01235 127.8 131.8
142(9) 0.01235 127.5 131.5
143(9) 0.01235 127.3 131.1
135(9) 0.01235 127.0 130.7
141(9) 0.01235 126.7 130.4
135(9) 0.01235 126.5 130.0
142(10) 0.01000 126.2 129.6
149(10) 0.01000 125.9 129.3
136(10) . . .
145(10) . . .
143(10) . . .
125(10) . . .
132(10) . . .
138(11) . . .
150(12) . . .
139(12) . . .
159(12) . . .
152(12) . . .
145(12) . . .
165(13) . . .
154(12) . . .
149(12) . . .
163(13) . . .
135(12) . . .
146(13) . . .
147(13) . . .
131(12) . . .
128(13) . . .
146(14) . . .
157(15) . . .
125(13) . . .
122(14) . . .
149(16) . . .
140(16) . . .
140(17) . . .
121(16) . . .
107(16) . . .
101(17) . . .
65(15) . . .
0.0(10) . . .
loop_
_refln_index_h
_refln_index_k
_refln_index_l
_refln_observed_status
_refln_F_squared_meas
_refln_F_squared_calc
_refln_phase_calc
_refln_d_spacing
_gsas_i100_meas
1 1 0 o 0.042 0.105 0.00 7.05531 0.34
1 1 1 o 0.293 0.146 0.00 5.76064 1.08
2 0 0 o 1.648 0.898 180.00 4.98886 3.45
2 1 0 o 0.176 0.184 180.00 4.46217 0.59
2 0 1 o 1.449 1.519 0.00 4.46217 4.89
2 1 1 o 1.070 0.929 180.00 4.07339 6.06
2 2 0 o 0.000 0.094 180.00 3.52766 0.00
2 2 1 o 0.000 0.000 180.00 3.32591 0.00
3 0 0 o 2.507 1.394 0.00 3.32591 2.42
3 0 1 o 1.280 0.938 180.00 3.15523 2.25
3 1 0 o 4.792 3.548 180.00 3.15523 8.41
3 1 1 o 0.266 0.198 0.00 3.00840 0.86
2 2 2 o 67.786 66.753 180.00 2.88032 67.26
3 0 2 o 24.534 24.704 0.00 2.76732 34.01
3 2 0 o 24.966 25.131 180.00 2.76732 34.60
3 1 2 o 33.569 33.902 0.00 2.66666 87.19
3 2 1 o 38.501 38.847 0.00 2.66666 100.00
4 0 0 o 40.124 39.279 0.00 2.49443 23.22
3 2 2 o 0.627 0.641 0.00 2.41995 1.38
4 0 1 o 21.441 21.916 0.00 2.41995 23.58
4 1 0 o 12.289 12.557 180.00 2.41995 13.52
4 1 1 o 0.657 0.613 180.00 2.35177 1.38
3 3 0 o 22.713 21.229 0.00 2.35177 23.82
3 3 1 o 0.034 0.017 180.00 2.28905 0.07
4 2 0 o 2.813 2.447 0.00 2.23109 2.71
4 0 2 o 4.866 4.202 0.00 2.23109 4.69
4 2 1 o 0.755 0.732 180.00 2.17732 1.40
4 1 2 o 2.266 2.193 0.00 2.17732 4.20
3 3 2 o 3.233 3.025 180.00 2.12726 5.78
4 2 2 o 0.455 0.441 0.00 2.03669 0.76
4 0 3 o 3.509 3.602 180.00 1.99554 2.85
5 0 0 o 0.519 0.533 180.00 1.99554 0.21
4 3 0 o 5.366 5.502 0.00 1.99554 4.36
4 1 3 o 0.046 0.055 0.00 1.95679 0.07
4 3 1 o 0.419 0.490 180.00 1.95679 0.66
5 1 0 o 1.929 2.252 180.00 1.95679 1.52
5 0 1 o 2.941 3.440 180.00 1.95679 2.32
3 3 3 o 0.474 0.373 0.00 1.92021 0.24
5 1 1 o 0.116 0.091 0.00 1.92021 0.18
4 3 2 o 4.591 4.670 0.00 1.85282 6.74
4 2 3 o 1.159 1.180 180.00 1.85282 1.70
5 0 2 o 9.877 10.047 0.00 1.85282 7.26
5 2 0 o 6.144 6.243 180.00 1.85282 4.51
5 2 1 o 0.087 0.063 180.00 1.82167 0.13
5 1 2 o 0.653 0.467 0.00 1.82167 0.94
4 4 0 o 11.329 10.231 0.00 1.76383 7.84
5 2 2 o 0.022 0.025 0.00 1.73690 0.03
4 4 1 o 0.075 0.088 0.00 1.73690 0.10
4 3 3 o 42.704 42.716 180.00 1.71116 57.19
5 3 0 o 83.067 83.074 180.00 1.71116 55.62
5 0 3 o 113.763 113.794 180.00 1.71116 76.17
5 1 3 o 16.296 16.281 180.00 1.68654 21.51
5 3 1 o 27.629 27.598 0.00 1.68654 36.46
6 0 0 o 161.667 163.536 0.00 1.66295 52.63
4 4 2 o 21.255 21.488 0.00 1.66295 27.68
6 0 1 o 5.378 5.881 0.00 1.64033 3.46
6 1 0 o 5.495 6.008 180.00 1.64033 3.54
5 2 3 o 51.333 51.045 0.00 1.61860 65.33
5 3 2 o 77.521 77.088 0.00 1.61860 98.65
6 1 1 o 19.488 19.385 0.00 1.61860 24.80
6 2 0 o 23.508 23.206 180.00 1.57762 14.69
6 0 2 o 25.331 24.985 180.00 1.57762 15.83
6 1 2 o 3.404 3.421 0.00 1.55826 4.22
6 2 1 o 1.752 1.761 180.00 1.55826 2.17
5 0 4 o 11.558 11.609 180.00 1.55826 7.17
5 4 0 o 12.799 12.873 0.00 1.55826 7.94
4 4 3 o 0.008 0.008 0.00 1.55826 0.01
5 1 4 o 0.004 0.001 0.00 1.53960 0.00
5 4 1 o 0.124 0.044 0.00 1.53960 0.15
5 3 3 o 0.691 0.041 180.00 1.52159 0.85
6 2 2 o 2.406 2.121 180.00 1.50420 2.94
6 3 0 o 3.922 4.184 0.00 1.48739 2.39
6 0 3 o 0.000 0.001 180.00 1.48739 0.00
5 4 2 o 4.303 4.595 0.00 1.48739 5.25
5 2 4 o 2.857 3.054 180.00 1.48739 3.49
6 1 3 o 3.213 3.180 0.00 1.47113 3.92
6 3 1 o 2.264 2.236 0.00 1.47113 2.76
4 4 4 o 28.168 28.071 0.00 1.44016 11.47
6 2 3 o 0.351 0.384 0.00 1.42539 0.43
6 3 2 o 0.190 0.209 180.00 1.42539 0.23
7 0 0 o 0.530 0.590 0.00 1.42539 0.16
5 4 3 o 1.838 2.056 180.00 1.41106 2.27
7 1 0 o 0.002 0.002 180.00 1.41106 0.00
5 5 0 o 1.002 1.114 0.00 1.41106 0.62
7 0 1 o 2.305 2.568 0.00 1.41106 1.42
5 3 4 o 0.136 0.153 180.00 1.41106 0.17
5 5 1 o 0.334 0.238 0.00 1.39716 0.42
7 1 1 o 0.315 0.224 0.00 1.39716 0.39
6 0 4 o 0.024 0.017 180.00 1.38366 0.02
6 4 0 o 0.195 0.139 0.00 1.38366 0.12
7 2 0 o 0.312 0.319 180.00 1.37055 0.20
7 0 2 o 3.334 3.411 0.00 1.37055 2.11
6 1 4 o 6.607 6.765 0.00 1.37055 8.36
6 4 1 o 2.791 2.854 180.00 1.37055 3.53
5 5 2 o 11.267 11.455 0.00 1.35780 14.45
7 1 2 o 2.657 2.702 0.00 1.35780 3.41
6 3 3 o 14.174 14.411 0.00 1.35780 18.18
7 2 1 o 5.307 5.386 0.00 1.35780 6.81
6 4 2 o 0.019 0.006 180.00 1.33333 0.03
6 2 4 o 0.014 0.004 0.00 1.33333 0.02
5 4 4 o 0.013 0.010 180.00 1.32158 0.02
7 2 2 o 0.587 0.481 0.00 1.32158 0.80
7 3 0 o 3.681 3.395 0.00 1.31014 2.56
7 0 3 o 10.221 9.371 0.00 1.31014 7.11
7 1 3 o 2.092 1.693 0.00 1.29899 3.00
5 5 3 o 1.599 1.293 0.00 1.29899 2.29
7 3 1 o 1.461 1.190 180.00 1.29899 2.09
6 0 5 o 4.705 5.150 0.00 1.27752 3.63
6 3 4 o 0.005 0.006 180.00 1.27752 0.01
6 5 0 o 8.495 9.261 180.00 1.27752 6.56
6 4 3 o 0.490 0.535 0.00 1.27752 0.76
7 3 2 o 2.902 2.878 0.00 1.26717 4.71
7 2 3 o 5.916 5.868 0.00 1.26717 9.59
6 5 1 o 21.272 21.099 0.00 1.26717 34.50
6 1 5 o 14.924 14.805 0.00 1.26717 24.20
8 0 0 o 3.385 4.538 0.00 1.24721 1.56
6 2 5 o 9.355 8.444 0.00 1.23758 18.93
7 0 4 o 0.101 0.091 180.00 1.23758 0.10
6 5 2 o 2.586 2.340 180.00 1.23758 5.23
8 1 0 o 2.565 2.326 0.00 1.23758 2.59
7 4 0 o 1.239 1.123 0.00 1.23758 1.25
8 0 1 o 0.000 0.000 180.00 1.23758 0.00
7 1 4 o 1.144 1.121 180.00 1.22817 2.61
5 5 4 o 15.175 14.873 0.00 1.22817 34.61
7 4 1 o 0.037 0.036 180.00 1.22817 0.08
8 1 1 o 38.940 38.147 180.00 1.22817 88.82
