#------------------------------------------------------------------------------
#$Date: 2016-03-23 20:59:17 +0200 (Wed, 23 Mar 2016) $
#$Revision: 179434 $
#$URL: svn://www.crystallography.net/cod/cif/4/33/31/4333154.cif $
#------------------------------------------------------------------------------
#
# This file is available in the Crystallography Open Database (COD),
# http://www.crystallography.net/. The original data for this entry
# were provided the Crystal Eye server at
# http://wwmm.ch.cam.ac.uk/crystaleye/, created by Nick Day at the
# Peter Murray-Rust laboratory.
#
# The file may be used within the scientific community so long as
# proper attribution is given to the journal article from which the
# data were obtained.
#
data_4333154
loop_
_publ_author_name
'Orosel, Denis'
'Dinnebier, Robert'
'Jansen, Martin'
_publ_section_title
;
 High-Pressure Synthesis and Structure Determination of K6(SeO4)(SeO5),
 the First Potassium Orthoselenate(VI)
;
_journal_issue                   26
_journal_name_full               'Inorganic Chemistry'
_journal_page_first              10947
_journal_page_last               10950
_journal_paper_doi               10.1021/ic061548v
_journal_volume                  45
_journal_year                    2006
_chemical_formula_analytical     K6_O9_Se2
_chemical_formula_structural     K6(SeO4)(SeO5)
_chemical_formula_sum            'K6 O9 Se2'
_chemical_formula_weight         536.50
_chemical_name_common            'potassium orthoselenate(VI)'
_space_group_IT_number           92
_symmetry_cell_setting           tetragonal
_symmetry_Int_Tables_number      92
_symmetry_space_group_name_Hall  'P 4abw 2nw'
_symmetry_space_group_name_H-M   'P 41 21 2'
_audit_creation_date             2006-08-15T12:33
_audit_creation_method           'from EXP file using GSAS2CIF'
_audit_update_record
' 2006-08-15T12:33  Initial CIF as created by GSAS2CIF'
_cell_angle_alpha                90.0
_cell_angle_beta                 90.0
_cell_angle_gamma                90.0
_cell_formula_units_Z            4
_cell_length_a                   8.1259(1)
_cell_length_b                   8.1259
_cell_length_c                   17.4953(2)
_cell_volume                     1155.219(19)
_computing_structure_refinement  GSAS
_diffrn_ambient_temperature      298
_diffrn_radiation_polarisn_ratio 0.03
_diffrn_radiation_probe          x-ray
_diffrn_radiation_wavelength     0.64895
_diffrn_source                   synchrotron
_diffrn_source_type              'NSLS beamline X3B1'
_exptl_absorpt_process_details
;   GSAS Absorption/surface roughness correction: function number 0
 Debye-Scherrer absorption correction
Term (= MU.r/wave) =      1.3000    
Correction is not refined.
;
_pd_block_id                     2006-08-15T12:33|K6Se2O9||
_pd_calc_method                  'Rietveld Refinement'
_pd_instr_location               ' ?'
_pd_meas_2theta_range_inc        0.003
_pd_meas_2theta_range_max        44.026
_pd_meas_2theta_range_min        4.0
_pd_meas_number_of_points        13343
_pd_phase_name                   K6(SeO4)(SeO5)
_pd_proc_2theta_range_inc        0.003
_pd_proc_2theta_range_max        44.02384
_pd_proc_2theta_range_min        3.997837
_pd_proc_info_datetime           2006-08-15T12:33:08
_pd_proc_info_excluded_regions   ' ?'
_pd_proc_ls_background_function
;   GSAS Background function number 1 with 14 terms.
 Shifted Chebyshev function of 1st kind
      1:    86.8560     2:   -67.5766     3:    35.5264     4:   -19.9229    
      5:    8.09833     6:   -4.05008     7:    6.09283     8:   -5.79945    
      9:    2.98035    10:  -0.611263    11:   -2.02869    12:   0.930289    
     13:    1.30515    14:   -1.70622    
;
_pd_proc_ls_peak_cutoff          0.00100
_pd_proc_ls_profile_function
;
 CW Profile function number 4 with  16 terms
 Pseudovoigt profile coefficients as parameterized in
 P. Thompson, D.E. Cox & J.B. Hastings (1987). J. Appl. Cryst.,20,79-83.
 Asymmetry correction of L.W. Finger, D.E. Cox & A. P. Jephcoat (1994).
 J. Appl. Cryst.,27,892-900.
 Microstrain broadening by P.W. Stephens,  (1999). J. Appl. Cryst.,32,281-289.
 Peak tails are ignored  where the intensity is below 0.0010 times the peak
   Aniso. broadening axis   0.0   0.0   1.0
;
_pd_proc_ls_prof_R_factor        0.0751
_pd_proc_ls_prof_wR_expected     0.0658
_pd_proc_ls_prof_wR_factor       0.0972
_pd_proc_number_of_points        13343
_pd_spec_mounting                ' ?'
_refine_ls_goodness_of_fit_all   1.48
_refine_ls_matrix_type           full
_refine_ls_number_parameters     41
_refine_ls_number_restraints     8
_refine_ls_R_Fsqd_factor         0.07964
_refine_ls_shift/su_max          0.04
_refine_ls_shift/su_mean         0.01
_reflns_d_resolution_high        0.885
_reflns_d_resolution_low         7.370
_reflns_limit_h_max              9
_reflns_limit_h_min              0
_reflns_limit_k_max              6
_reflns_limit_k_min              0
_reflns_limit_l_max              19
_reflns_limit_l_min              0
_reflns_number_total             564
_cod_data_source_file            ic061548vsup1.cif
_cod_data_source_block           K6Se2O9
_cod_depositor_comments
;
The following automatic conversions were performed:

'_geom_bond_publ_flag' value 'N' changed to 'n' according to
/home/saulius/struct/CIF-dictionaries/cif_core.dic dictionary named
'cif_core.dic' version 2.4.2 from 2011-04-26 (119
times).

'_geom_angle_publ_flag' value 'N' changed to 'n' according
to /home/saulius/struct/CIF-dictionaries/cif_core.dic dictionary
named 'cif_core.dic' version 2.4.2 from 2011-04-26 (662 times).

Automatic conversion script
Id: cif_fix_values 1891 2012-01-12 08:04:46Z andrius 
;
_cod_original_cell_volume        1155.21(3)
_cod_database_code               4333154
loop_
_symmetry_equiv_pos_site_id
_symmetry_equiv_pos_as_xyz
1 +x,+y,+z
2 -y+1/2,+x+1/2,+z+1/4
3 -x,-y,+z+1/2
4 +y+1/2,-x+1/2,+z+3/4
5 -x+1/2,+y+1/2,-z+1/4
6 -y,-x,-z+1/2
7 +x+1/2,-y+1/2,-z+3/4
8 +y,+x,-z
loop_
_atom_site_type_symbol
_atom_site_label
_atom_site_fract_x
_atom_site_fract_y
_atom_site_fract_z
_atom_site_occupancy
_atom_site_thermal_displace_type
_atom_site_U_iso_or_equiv
_atom_site_symmetry_multiplicity
Se Se1 0.23811(31) 0.23811(31) 0.0 1.0 Uiso 0.00176(30) 4
Se Se2 0.25296(29) 0.25296(29) 0.5 1.0 Uiso 0.00176(30) 4
K K1 -0.0032(9) 0.4760(10) 0.3731(7) 1.0 Uiso 0.0167(13) 8
K K2 0.2225(6) 0.2120(6) 0.24551(34) 1.0 Uiso 0.0218(12) 8
K K3 -0.0013(6) 0.0419(8) 0.39569(19) 1.0 Uiso 0.0119(15) 8
O O1 0.2597(23) 0.0384(6) 0.0133(9) 1.0 Uiso 0.028(4) 8
O O2 0.2973(25) 0.3349(20) 0.0771(5) 1.0 Uiso 0.065(6) 8
O O3 0.2558(22) 0.2556(23) 0.39927(26) 1.0 Uiso 0.0088(25) 8
O O4 0.0581(6) 0.3069(13) 0.4985(13) 1.0 Uiso 0.011(4) 8
O O5 0.6047(6) 0.6047(6) 0.0 1.0 Uiso 0.022(5) 4
loop_
_atom_type_symbol
_atom_type_number_in_cell
_atom_type_scat_dispersion_real
_atom_type_scat_dispersion_imag
_atom_type_scat_Cromer_Mann_a1
_atom_type_scat_Cromer_Mann_a2
_atom_type_scat_Cromer_Mann_a3
_atom_type_scat_Cromer_Mann_a4
_atom_type_scat_Cromer_Mann_b1
_atom_type_scat_Cromer_Mann_b2
_atom_type_scat_Cromer_Mann_b3
_atom_type_scat_Cromer_Mann_b4
_atom_type_scat_Cromer_Mann_c
_atom_type_scat_source
K 24.0 0.000 0.000 8.21860 12.7949 7.43980 0.77480 1.05190 213.187 0.86590
41.6841 1.42280 International_Tables_Vol_C
Se 8.0 0.000 0.000 17.0006 2.40980 5.81960 0.27260 3.97310 15.2372 4.35430
43.8163 2.84090 International_Tables_Vol_C
O 36.0 0.000 0.000 3.04850 13.2771 2.28680 5.70110 1.54630 0.32390 0.86700
32.9089 0.25080 International_Tables_Vol_C
loop_
_geom_angle_atom_site_label_1
_geom_angle_atom_site_label_2
_geom_angle_atom_site_label_3
_geom_angle
_geom_angle_site_symmetry_1
_geom_angle_site_symmetry_3
_geom_angle_publ_flag
K1 K1 K1 174.86(20) 2_555 4_454 n
K1 K1 Se1 121.80(25) 2_555 2_555 n
K1 K1 Se1 53.77(17) 2_555 3_565 n
K1 K1 K2 128.05(26) 2_555 1_555 n
K1 K1 K2 51.73(22) 2_555 2_555 n
K1 K1 K2 124.60(26) 2_555 6_565 n
K1 K1 K2 53.25(20) 2_555 7_455 n
K1 K1 O3 79.84(32) 2_555 1_555 n
K1 K1 O3 101.81(32) 2_555 7_455 n
K1 K1 K3 85.81(25) 2_555 1_555 n
K1 K1 K3 82.87(20) 2_555 1_565 n
K1 K1 K3 97.60(22) 2_555 7_455 n
K1 K1 K3 91.79(24) 2_555 7_555 n
K1 K1 O2 101.96(33) 2_555 2_555 n
K1 K1 O1 136.1(4) 2_555 5_555 n
K1 K1 O1 45.7(4) 2_555 6_565 n
K1 K1 Se2 50.55(19) 2_555 1_555 n
K1 K1 Se2 132.01(25) 2_555 4_454 n
K1 K1 O4 34.9(4) 2_555 1_555 n
K1 K1 O4 147.5(4) 2_555 4_454 n
K1 K1 Se1 54.21(18) 4_454 2_555 n
K1 K1 Se1 122.81(25) 4_454 3_565 n
K1 K1 K2 55.29(20) 4_454 1_555 n
K1 K1 K2 124.38(26) 4_454 2_555 n
K1 K1 K2 51.52(21) 4_454 6_565 n
K1 K1 K2 130.10(27) 4_454 7_455 n
K1 K1 O3 102.96(33) 4_454 1_555 n
K1 K1 O3 82.23(32) 4_454 7_455 n
K1 K1 K3 99.29(25) 4_454 1_555 n
K1 K1 K3 92.03(19) 4_454 1_565 n
K1 K1 K3 83.26(24) 4_454 7_455 n
K1 K1 K3 87.71(22) 4_454 7_555 n
K1 K1 O2 73.23(30) 4_454 2_555 n
K1 K1 O1 42.1(4) 4_454 5_555 n
K1 K1 O1 129.3(4) 4_454 6_565 n
K1 K1 Se2 132.38(26) 4_454 1_555 n
K1 K1 Se2 52.07(20) 4_454 4_454 n
K1 K1 O4 149.8(5) 4_454 1_555 n
K1 K1 O4 34.2(4) 4_454 4_454 n
Se1 K1 Se1 106.50(19) 2_555 3_565 n
Se1 K1 K2 71.75(20) 2_555 1_555 n
Se1 K1 K2 70.17(16) 2_555 2_555 n
Se1 K1 K2 63.45(18) 2_555 6_565 n
Se1 K1 K2 170.51(28) 2_555 7_455 n
Se1 K1 O3 91.47(28) 2_555 1_555 n
Se1 K1 O3 136.4(4) 2_555 7_455 n
Se1 K1 K3 129.16(29) 2_555 1_555 n
Se1 K1 K3 58.45(11) 2_555 1_565 n
Se1 K1 K3 123.43(29) 2_555 7_455 n
Se1 K1 K3 52.88(15) 2_555 7_555 n
Se1 K1 O2 25.62(13) 2_555 2_555 n
Se1 K1 O1 26.14(11) 2_555 5_555 n
Se1 K1 O1 91.69(35) 2_555 6_565 n
Se1 K1 Se2 108.41(19) 2_555 1_555 n
Se1 K1 Se2 106.19(32) 2_555 4_454 n
Se1 K1 O4 132.17(30) 2_555 1_555 n
Se1 K1 O4 85.5(4) 2_555 4_454 n
Se1 K1 K2 177.91(33) 3_565 1_555 n
Se1 K1 K2 69.68(20) 3_565 2_555 n
Se1 K1 K2 71.43(17) 3_565 6_565 n
Se1 K1 K2 64.01(18) 3_565 7_455 n
Se1 K1 O3 133.2(4) 3_565 1_555 n
Se1 K1 O3 98.43(30) 3_565 7_455 n
Se1 K1 K3 123.62(31) 3_565 1_555 n
Se1 K1 K3 48.06(13) 3_565 1_565 n
Se1 K1 K3 64.00(15) 3_565 7_455 n
Se1 K1 K3 125.35(28) 3_565 7_555 n
Se1 K1 O2 81.60(22) 3_565 2_555 n
Se1 K1 O1 132.28(27) 3_565 5_555 n
Se1 K1 O1 25.14(13) 3_565 6_565 n
Se1 K1 Se2 104.23(31) 3_565 1_555 n
Se1 K1 Se2 114.24(19) 3_565 4_454 n
Se1 K1 O4 85.8(5) 3_565 1_555 n
Se1 K1 O4 104.65(35) 3_565 4_454 n
K2 K1 K2 110.45(19) 1_555 2_555 n
K2 K1 K2 106.61(31) 1_555 6_565 n
K2 K1 K2 117.74(22) 1_555 7_455 n
K2 K1 O3 48.49(22) 1_555 1_555 n
K2 K1 O3 82.32(32) 1_555 7_455 n
K2 K1 K3 58.29(17) 1_555 1_555 n
K2 K1 K3 130.20(24) 1_555 1_565 n
K2 K1 K3 115.85(29) 1_555 7_455 n
K2 K1 K3 54.64(16) 1_555 7_555 n
K2 K1 O2 96.78(27) 1_555 2_555 n
K2 K1 O1 45.89(17) 1_555 5_555 n
K2 K1 O1 154.75(28) 1_555 6_565 n
K2 K1 Se2 77.54(18) 1_555 1_555 n
K2 K1 Se2 65.55(20) 1_555 4_454 n
K2 K1 O4 96.3(4) 1_555 1_555 n
K2 K1 O4 74.2(4) 1_555 4_454 n
K2 K1 K2 105.04(21) 2_555 6_565 n
K2 K1 K2 104.78(31) 2_555 7_455 n
K2 K1 O3 77.00(30) 2_555 1_555 n
K2 K1 O3 153.3(5) 2_555 7_455 n
K2 K1 K3 117.53(29) 2_555 1_555 n
K2 K1 K3 54.52(13) 2_555 1_565 n
K2 K1 K3 133.68(31) 2_555 7_455 n
K2 K1 K3 55.87(15) 2_555 7_555 n
K2 K1 O2 54.15(29) 2_555 2_555 n
K2 K1 O1 87.16(31) 2_555 5_555 n
K2 K1 O1 44.65(19) 2_555 6_565 n
K2 K1 Se2 63.04(19) 2_555 1_555 n
K2 K1 Se2 175.56(33) 2_555 4_454 n
K2 K1 O4 71.7(4) 2_555 1_555 n
K2 K1 O4 151.3(4) 2_555 4_454 n
K2 K1 K2 111.54(20) 6_565 7_455 n
K2 K1 O3 151.1(4) 6_565 1_555 n
K2 K1 O3 92.75(32) 6_565 7_455 n
K2 K1 K3 137.41(31) 6_565 1_555 n
K2 K1 K3 51.56(13) 6_565 1_565 n
K2 K1 K3 60.83(16) 6_565 7_455 n
K2 K1 K3 116.33(29) 6_565 7_555 n
K2 K1 O2 58.81(32) 6_565 2_555 n
K2 K1 O1 75.6(4) 6_565 5_555 n
K2 K1 O1 81.3(4) 6_565 6_565 n
K2 K1 Se2 167.94(27) 6_565 1_555 n
K2 K1 Se2 74.94(23) 6_565 4_454 n
K2 K1 O4 156.3(5) 6_565 1_555 n
K2 K1 O4 48.50(22) 6_565 4_454 n
K2 K1 O3 95.21(34) 7_455 1_555 n
K2 K1 O3 49.36(22) 7_455 7_455 n
K2 K1 K3 60.18(18) 7_455 1_555 n
K2 K1 K3 112.06(25) 7_455 1_565 n
K2 K1 K3 53.92(15) 7_455 7_455 n
K2 K1 K3 131.50(32) 7_455 7_555 n
K2 K1 O2 145.07(34) 7_455 2_555 n
K2 K1 O1 163.24(31) 7_455 5_555 n
K2 K1 O1 79.4(4) 7_455 6_565 n
K2 K1 Se2 75.09(23) 7_455 1_555 n
K2 K1 Se2 79.19(18) 7_455 4_454 n
K2 K1 O4 49.84(23) 7_455 1_555 n
K2 K1 O4 96.9(4) 7_455 4_454 n
O3 K1 O3 96.95(24) 1_555 7_455 n
O3 K1 K3 48.94(29) 1_555 1_555 n
O3 K1 K3 128.35(34) 1_555 1_565 n
O3 K1 K3 137.6(4) 1_555 7_455 n
O3 K1 K3 40.70(26) 1_555 7_555 n
O3 K1 O2 104.7(4) 1_555 2_555 n
O3 K1 O1 75.8(4) 1_555 5_555 n
O3 K1 O1 115.4(5) 1_555 6_565 n
O3 K1 Se2 29.41(17) 1_555 1_555 n
O3 K1 Se2 100.82(32) 1_555 4_454 n
O3 K1 O4 52.32(31) 1_555 1_555 n
O3 K1 O4 119.9(5) 1_555 4_454 n
O3 K1 K3 48.50(28) 7_455 1_555 n
O3 K1 K3 134.3(4) 7_455 1_565 n
O3 K1 K3 41.67(26) 7_455 7_455 n
O3 K1 K3 132.5(4) 7_455 7_555 n
O3 K1 O2 150.2(5) 7_455 2_555 n
O3 K1 O1 116.9(5) 7_455 5_555 n
O3 K1 O1 121.9(4) 7_455 6_565 n
O3 K1 Se2 99.08(33) 7_455 1_555 n
O3 K1 Se2 30.20(16) 7_455 4_454 n
O3 K1 O4 84.0(4) 7_455 1_555 n
O3 K1 O4 53.36(30) 7_455 4_454 n
K3 K1 K3 168.7(4) 1_555 1_565 n
K3 K1 K3 88.73(22) 1_555 7_455 n
K3 K1 K3 88.23(25) 1_555 7_555 n
K3 K1 O2 151.23(35) 1_555 2_555 n
K3 K1 O1 104.02(28) 1_555 5_555 n
K3 K1 O1 130.6(5) 1_555 6_565 n
K3 K1 Se2 54.49(17) 1_555 1_555 n
K3 K1 Se2 62.52(15) 1_555 4_454 n
K3 K1 O4 52.31(35) 1_555 1_555 n
K3 K1 O4 89.44(25) 1_555 4_454 n
K3 K1 K3 92.64(24) 1_565 7_455 n
K3 K1 K3 92.23(21) 1_565 7_555 n
K3 K1 O2 33.86(15) 1_565 2_555 n
K3 K1 O1 84.39(19) 1_565 5_555 n
K3 K1 O1 38.2(4) 1_565 6_565 n
K3 K1 Se2 117.01(25) 1_565 1_555 n
K3 K1 Se2 126.13(25) 1_565 4_454 n
K3 K1 O4 116.6(5) 1_565 1_555 n
K3 K1 O4 100.05(27) 1_565 4_454 n
K3 K1 K3 169.9(4) 7_455 7_555 n
K3 K1 O2 117.1(4) 7_455 2_555 n
K3 K1 O1 124.9(5) 7_455 5_555 n
K3 K1 O1 89.08(25) 7_455 6_565 n
K3 K1 Se2 128.15(29) 7_455 1_555 n
K3 K1 Se2 50.31(14) 7_455 4_454 n
K3 K1 O4 103.70(31) 7_455 1_555 n
K3 K1 O4 50.1(4) 7_455 4_454 n
K3 K1 O2 64.11(26) 7_555 2_555 n
K3 K1 O1 46.95(33) 7_555 5_555 n
K3 K1 O1 100.20(27) 7_555 6_565 n
K3 K1 Se2 56.41(14) 7_555 1_555 n
K3 K1 Se2 120.02(29) 7_555 4_454 n
K3 K1 O4 81.95(26) 7_555 1_555 n
K3 K1 O4 120.3(5) 7_555 4_454 n
O2 K1 O1 51.69(19) 2_555 5_555 n
O2 K1 O1 66.3(4) 2_555 6_565 n
O2 K1 Se2 109.8(4) 2_555 1_555 n
O2 K1 Se2 123.4(4) 2_555 4_454 n
O2 K1 O4 125.4(5) 2_555 1_555 n
O2 K1 O4 97.6(5) 2_555 4_454 n
O1 K1 O1 117.2(4) 5_555 6_565 n
O1 K1 Se2 100.88(34) 5_555 1_555 n
O1 K1 Se2 88.5(4) 5_555 4_454 n
O1 K1 O4 126.7(4) 5_555 1_555 n
O1 K1 O4 76.2(6) 5_555 4_454 n
O1 K1 Se2 90.4(4) 6_565 1_555 n
O1 K1 Se2 139.12(27) 6_565 4_454 n
O1 K1 O4 80.6(6) 6_565 1_555 n
O1 K1 O4 124.6(4) 6_565 4_454 n
Se2 K1 Se2 116.77(22) 1_555 4_454 n
Se2 K1 O4 25.92(18) 1_555 1_555 n
Se2 K1 O4 142.53(33) 1_555 4_454 n
Se2 K1 O4 110.2(4) 4_454 1_555 n
Se2 K1 O4 27.38(16) 4_454 4_454 n
O4 K1 O4 136.9(4) 1_555 4_454 n
K1 Se1 K1 72.02(9) 3_564 4_454 n
K1 Se1 K1 107.94(10) 3_564 5_545 n
K1 Se1 K1 171.01(25) 3_564 6_655 n
K1 Se1 K3 79.24(12) 3_564 3_554 n
K1 Se1 K3 108.66(18) 3_564 6_555 n
K1 Se1 O2 110.0(8) 3_564 1_555 n
K1 Se1 O2 64.7(8) 3_564 8_555 n
K1 Se1 O1 138.6(6) 3_564 1_555 n
K1 Se1 O1 49.2(6) 3_564 8_555 n
K1 Se1 K1 179.4699(22) 4_454 5_545 n
K1 Se1 K1 107.94(10) 4_454 6_655 n
K1 Se1 K3 111.37(16) 4_454 3_554 n
K1 Se1 K3 69.11(14) 4_454 6_555 n
K1 Se1 O2 53.9(8) 4_454 1_555 n
K1 Se1 O2 125.7(8) 4_454 8_555 n
K1 Se1 O1 123.3(6) 4_454 1_555 n
K1 Se1 O1 57.1(6) 4_454 8_555 n
K1 Se1 K1 72.02(9) 5_545 6_655 n
K1 Se1 K3 69.11(14) 5_545 3_554 n
K1 Se1 K3 111.37(16) 5_545 6_555 n
K1 Se1 O2 125.7(8) 5_545 1_555 n
K1 Se1 O2 53.9(8) 5_545 8_555 n
K1 Se1 O1 57.1(6) 5_545 1_555 n
K1 Se1 O1 123.3(6) 5_545 8_555 n
K1 Se1 K3 108.66(18) 6_655 3_554 n
K1 Se1 K3 79.24(12) 6_655 6_555 n
K1 Se1 O2 64.7(8) 6_655 1_555 n
K1 Se1 O2 110.0(8) 6_655 8_555 n
K1 Se1 O1 49.2(6) 6_655 1_555 n
K1 Se1 O1 138.6(6) 6_655 8_555 n
K3 Se1 K3 63.61(16) 3_554 6_555 n
K3 Se1 O2 155.0(5) 3_554 1_555 n
K3 Se1 O2 91.5(5) 3_554 8_555 n
K3 Se1 O1 59.4(6) 3_554 1_555 n
K3 Se1 O1 56.9(7) 3_554 8_555 n
K3 Se1 O2 91.5(5) 6_555 1_555 n
K3 Se1 O2 155.0(5) 6_555 8_555 n
K3 Se1 O1 56.9(7) 6_555 1_555 n
K3 Se1 O1 59.4(6) 6_555 8_555 n
O2 Se1 O2 113.5(9) 1_555 8_555 n
O2 Se1 O1 109.0(9) 1_555 1_555 n
O2 Se1 O1 110.8(10) 1_555 8_555 n
O2 Se1 O1 110.8(10) 8_555 1_555 n
O2 Se1 O1 109.0(9) 8_555 8_555 n
O1 Se1 O1 103.3(13) 1_555 8_555 n
K1 K2 K1 72.98(15) 1_555 4_454 n
K1 K2 K1 167.65(12) 1_555 6_655 n
K1 K2 K1 100.08(18) 1_555 7_555 n
K1 K2 O3 50.3(5) 1_555 1_555 n
K1 K2 K3 60.15(17) 1_555 1_555 n
K1 K2 K3 104.88(15) 1_555 4_554 n
K1 K2 K3 113.25(20) 1_555 6_555 n
K1 K2 K3 69.79(18) 1_555 7_555 n
K1 K2 O2 119.1(4) 1_555 1_555 n
K1 K2 O1 58.0(4) 1_555 5_555 n
K1 K2 O4 121.2(5) 1_555 7_555 n
K1 K2 O5 71.59(20) 1_555 2_545 n
K1 K2 K1 109.10(18) 4_454 6_655 n
K1 K2 K1 166.57(15) 4_454 7_555 n
K1 K2 O3 122.1(6) 4_454 1_555 n
K1 K2 K3 113.62(22) 4_454 1_555 n
K1 K2 K3 73.84(13) 4_454 4_554 n
K1 K2 K3 66.54(18) 4_454 6_555 n
K1 K2 K3 106.64(18) 4_454 7_555 n
K1 K2 O2 51.4(5) 4_454 1_555 n
K1 K2 O1 50.9(4) 4_454 5_555 n
K1 K2 O4 126.0(4) 4_454 7_555 n
K1 K2 O5 72.95(21) 4_454 2_545 n
K1 K2 K1 75.24(16) 6_655 7_555 n
K1 K2 O3 123.9(5) 6_655 1_555 n
K1 K2 K3 126.74(22) 6_655 1_555 n
K1 K2 K3 65.05(15) 6_655 4_554 n
K1 K2 K3 78.10(18) 6_655 6_555 n
K1 K2 K3 98.20(19) 6_655 7_555 n
K1 K2 O2 59.1(5) 6_655 1_555 n
K1 K2 O1 113.3(4) 6_655 5_555 n
K1 K2 O4 47.3(5) 6_655 7_555 n
K1 K2 O5 120.75(21) 6_655 2_545 n
K1 K2 O3 49.8(5) 7_555 1_555 n
K1 K2 K3 70.62(21) 7_555 1_555 n
K1 K2 K3 97.53(17) 7_555 4_554 n
K1 K2 K3 126.80(19) 7_555 6_555 n
K1 K2 K3 59.93(13) 7_555 7_555 n
K1 K2 O2 128.1(5) 7_555 1_555 n
K1 K2 O1 115.6(4) 7_555 5_555 n
K1 K2 O4 47.5(5) 7_555 7_555 n
K1 K2 O5 116.39(23) 7_555 2_545 n
O3 K2 K3 50.13(26) 1_555 1_555 n
O3 K2 K3 107.23(27) 1_555 4_554 n
O3 K2 K3 141.05(29) 1_555 6_555 n
O3 K2 K3 48.43(26) 1_555 7_555 n
O3 K2 O2 148.98(32) 1_555 1_555 n
O3 K2 O1 85.5(5) 1_555 5_555 n
O3 K2 O4 82.6(6) 1_555 7_555 n
O3 K2 O5 96.15(34) 1_555 2_545 n
K3 K2 K3 157.18(19) 1_555 4_554 n
K3 K2 K3 90.97(11) 1_555 6_555 n
K3 K2 K3 98.56(17) 1_555 7_555 n
K3 K2 O2 157.94(33) 1_555 1_555 n
K3 K2 O1 117.9(5) 1_555 5_555 n
K3 K2 O4 118.0(5) 1_555 7_555 n
K3 K2 O5 50.14(11) 1_555 2_545 n
K3 K2 K3 111.45(17) 4_554 6_555 n
K3 K2 K3 58.85(10) 4_554 7_555 n
K3 K2 O2 43.01(20) 4_554 1_555 n
K3 K2 O1 48.6(4) 4_554 5_555 n
K3 K2 O4 52.3(4) 4_554 7_555 n
K3 K2 O5 146.07(23) 4_554 2_545 n
K3 K2 K3 170.06(21) 6_555 7_555 n
K3 K2 O2 68.66(21) 6_555 1_555 n
K3 K2 O1 117.0(4) 6_555 5_555 n
K3 K2 O4 125.4(5) 6_555 7_555 n
K3 K2 O5 47.32(11) 6_555 2_545 n
K3 K2 O2 101.49(20) 7_555 1_555 n
K3 K2 O1 55.7(4) 7_555 5_555 n
K3 K2 O4 51.8(4) 7_555 7_555 n
K3 K2 O5 139.40(23) 7_555 2_545 n
O2 K2 O1 67.8(5) 1_555 5_555 n
O2 K2 O4 82.1(6) 1_555 7_555 n
O2 K2 O5 107.84(35) 1_555 2_545 n
O1 K2 O4 90.2(4) 5_555 7_555 n
O1 K2 O5 111.3(5) 5_555 2_545 n
O4 K2 O5 158.29(32) 7_555 2_545 n
K1 O3 K1 162.06(22) 1_555 7_555 n
K1 O3 K2 81.2(5) 1_555 1_555 n
K1 O3 K3 80.0(5) 1_555 1_555 n
K1 O3 K3 96.5(6) 1_555 7_555 n
K1 O3 Se2 99.3(9) 1_555 1_555 n
K1 O3 K2 80.9(5) 7_555 1_555 n
K1 O3 K3 96.2(6) 7_555 1_555 n
K1 O3 K3 81.6(5) 7_555 7_555 n
K1 O3 Se2 98.3(9) 7_555 1_555 n
K2 O3 K3 79.50(26) 1_555 1_555 n
K2 O3 K3 82.18(21) 1_555 7_555 n
K2 O3 Se2 169.6(6) 1_555 1_555 n
K3 O3 K3 161.66(21) 1_555 7_555 n
K3 O3 Se2 90.3(4) 1_555 1_555 n
K3 O3 Se2 108.0(5) 7_555 1_555 n
K1 K3 K1 168.7(4) 1_545 1_555 n
K1 K3 K1 87.38(23) 1_545 7_455 n
K1 K3 K1 87.75(20) 1_545 7_555 n
K1 K3 Se1 52.71(15) 1_545 3_555 n
K1 K3 K2 109.43(18) 1_545 1_555 n
K1 K3 K2 51.64(16) 1_545 2_545 n
K1 K3 K2 50.34(18) 1_545 6_555 n
K1 K3 K2 127.13(20) 1_545 7_455 n
K1 K3 O3 129.9(5) 1_545 1_555 n
K1 K3 O3 125.6(5) 1_545 7_455 n
K1 K3 K3 89.44(19) 1_545 8_556 n
K1 K3 O2 39.3(5) 1_545 2_545 n
K1 K3 O1 80.81(21) 1_545 3_555 n
K1 K3 O1 38.3(4) 1_545 6_555 n
K1 K3 Se2 125.21(18) 1_545 1_555 n
K1 K3 Se2 113.22(18) 1_545 4_454 n
K1 K3 O4 143.9(4) 1_545 1_555 n
K1 K3 O4 95.49(19) 1_545 8_556 n
K1 K3 O5 96.03(22) 1_545 2_545 n
K1 K3 K1 91.26(23) 1_555 7_455 n
K1 K3 K1 91.78(26) 1_555 7_555 n
K1 K3 Se1 134.65(22) 1_555 3_555 n
K1 K3 K2 61.56(24) 1_555 1_555 n
K1 K3 K2 135.36(24) 1_555 2_545 n
K1 K3 K2 120.09(24) 1_555 6_555 n
K1 K3 K2 59.89(22) 1_555 7_455 n
K1 K3 O3 51.0(5) 1_555 1_555 n
K1 K3 O3 49.9(5) 1_555 7_455 n
K1 K3 K3 101.86(24) 1_555 8_556 n
K1 K3 O2 133.5(4) 1_555 2_545 n
K1 K3 O1 106.76(25) 1_555 3_555 n
K1 K3 O1 152.74(35) 1_555 6_555 n
K1 K3 Se2 62.64(20) 1_555 1_555 n
K1 K3 Se2 57.64(19) 1_555 4_454 n
K1 K3 O4 47.1(5) 1_555 1_555 n
K1 K3 O4 91.58(24) 1_555 8_556 n
K1 K3 O5 73.09(24) 1_555 2_545 n
K1 K3 K1 169.9(4) 7_455 7_555 n
K1 K3 Se1 58.01(18) 7_455 3_555 n
K1 K3 K2 118.28(22) 7_455 1_555 n
K1 K3 K2 127.63(27) 7_455 2_545 n
K1 K3 K2 57.59(19) 7_455 6_555 n
K1 K3 K2 55.56(20) 7_455 7_455 n
K1 K3 O3 142.2(6) 7_455 1_555 n
K1 K3 O3 42.8(5) 7_455 7_455 n
K1 K3 K3 99.85(21) 7_455 8_556 n
K1 K3 O2 116.0(5) 7_455 2_545 n
K1 K3 O1 49.7(4) 7_455 3_555 n
K1 K3 O1 84.92(24) 7_455 6_555 n
K1 K3 Se2 134.25(23) 7_455 1_555 n
K1 K3 Se2 54.12(18) 7_455 4_454 n
K1 K3 O4 104.27(24) 7_455 1_555 n
K1 K3 O4 148.2(4) 7_455 8_556 n
K1 K3 O5 68.00(23) 7_455 2_545 n
K1 K3 Se1 124.57(23) 7_555 3_555 n
K1 K3 K2 55.46(21) 7_555 1_555 n
K1 K3 K2 54.12(17) 7_555 2_545 n
K1 K3 K2 112.75(23) 7_555 6_555 n
K1 K3 K2 133.77(26) 7_555 7_455 n
K1 K3 O3 42.2(5) 7_555 1_555 n
K1 K3 O3 136.9(5) 7_555 7_455 n
K1 K3 K3 88.96(24) 7_555 8_556 n
K1 K3 O2 55.7(5) 7_555 2_545 n
K1 K3 O1 137.9(4) 7_555 3_555 n
K1 K3 O1 96.67(23) 7_555 6_555 n
K1 K3 Se2 55.29(19) 7_555 1_555 n
K1 K3 Se2 120.40(22) 7_555 4_454 n
K1 K3 O4 84.80(24) 7_555 1_555 n
K1 K3 O4 41.3(4) 7_555 8_556 n
K1 K3 O5 103.75(23) 7_555 2_545 n
Se1 K3 K2 160.10(19) 3_555 1_555 n
Se1 K3 K2 70.48(13) 3_555 2_545 n
Se1 K3 K2 73.46(15) 3_555 6_555 n
Se1 K3 K2 74.88(13) 3_555 7_455 n
Se1 K3 O3 145.84(20) 3_555 1_555 n
Se1 K3 O3 98.5(5) 3_555 7_455 n
Se1 K3 K3 58.19(8) 3_555 8_556 n
Se1 K3 O2 91.6(5) 3_555 2_545 n
Se1 K3 O1 28.13(10) 3_555 3_555 n
Se1 K3 O1 28.03(11) 3_555 6_555 n
Se1 K3 Se2 113.63(10) 3_555 1_555 n
Se1 K3 Se2 111.19(15) 3_555 4_454 n
Se1 K3 O4 104.8(4) 3_555 1_555 n
Se1 K3 O4 99.20(32) 3_555 8_556 n
Se1 K3 O5 116.07(19) 3_555 2_545 n
K2 K3 K2 106.64(20) 1_555 2_545 n
K2 K3 K2 88.18(10) 1_555 6_555 n
K2 K3 K2 120.67(19) 1_555 7_455 n
K2 K3 O3 50.37(15) 1_555 1_555 n
K2 K3 O3 85.4(4) 1_555 7_455 n
K2 K3 K3 137.38(12) 1_555 8_556 n
K2 K3 O2 72.2(4) 1_555 2_545 n
K2 K3 O1 164.99(31) 1_555 3_555 n
K2 K3 O1 142.53(27) 1_555 6_555 n
K2 K3 Se2 83.24(16) 1_555 1_555 n
K2 K3 Se2 64.94(13) 1_555 4_454 n
K2 K3 O4 95.1(4) 1_555 1_555 n
K2 K3 O4 90.7(4) 1_555 8_556 n
K2 K3 O5 51.85(13) 1_555 2_545 n
K2 K3 K2 101.01(17) 2_545 6_555 n
K2 K3 K2 120.86(10) 2_545 7_455 n
K2 K3 O3 87.2(5) 2_545 1_555 n
K2 K3 O3 167.9(4) 2_545 7_455 n
K2 K3 K3 55.76(15) 2_545 8_556 n
K2 K3 O2 53.57(29) 2_545 2_545 n
K2 K3 O1 88.29(30) 2_545 3_555 n
K2 K3 O1 42.82(15) 2_545 6_555 n
K2 K3 Se2 73.58(12) 2_545 1_555 n
K2 K3 Se2 160.97(16) 2_545 4_454 n
K2 K3 O4 96.76(31) 2_545 1_555 n
K2 K3 O4 43.98(14) 2_545 8_556 n
K2 K3 O5 136.47(22) 2_545 2_545 n
K2 K3 K2 113.09(22) 6_555 7_455 n
K2 K3 O3 138.01(22) 6_555 1_555 n
K2 K3 O3 79.6(4) 6_555 7_455 n
K2 K3 K3 130.64(13) 6_555 8_556 n
K2 K3 O2 60.3(4) 6_555 2_545 n
K2 K3 O1 90.45(34) 6_555 3_555 n
K2 K3 O1 80.19(33) 6_555 6_555 n
K2 K3 Se2 167.95(17) 6_555 1_555 n
K2 K3 Se2 62.87(12) 6_555 4_454 n
K2 K3 O4 160.20(25) 6_555 1_555 n
K2 K3 O4 142.56(26) 6_555 8_556 n
K2 K3 O5 48.87(13) 6_555 2_545 n
K2 K3 O3 96.5(5) 7_455 1_555 n
K2 K3 O3 49.39(18) 7_455 7_455 n
K2 K3 K3 65.39(15) 7_455 8_556 n
K2 K3 O2 166.4(5) 7_455 2_545 n
K2 K3 O1 46.87(15) 7_455 3_555 n
K2 K3 O1 96.56(26) 7_455 6_555 n
K2 K3 Se2 78.69(15) 7_455 1_555 n
K2 K3 Se2 76.78(14) 7_455 4_454 n
K2 K3 O4 49.00(17) 7_455 1_555 n
K2 K3 O4 99.53(34) 7_455 8_556 n
K2 K3 O5 101.55(22) 7_455 2_545 n
O3 K3 O3 100.38(21) 1_555 7_455 n
O3 K3 K3 87.98(13) 1_555 8_556 n
O3 K3 O2 95.5(6) 1_555 2_545 n
O3 K3 O1 131.2(4) 1_555 3_555 n
O3 K3 O1 126.8(4) 1_555 6_555 n
O3 K3 Se2 32.88(12) 1_555 1_555 n
O3 K3 Se2 98.4(4) 1_555 4_454 n
O3 K3 O4 51.1(4) 1_555 1_555 n
O3 K3 O4 48.8(4) 1_555 8_556 n
O3 K3 O5 97.97(24) 1_555 2_545 n
O3 K3 K3 114.73(26) 7_455 8_556 n
O3 K3 O2 133.8(4) 7_455 2_545 n
O3 K3 O1 79.7(4) 7_455 3_555 n
O3 K3 O1 126.4(5) 7_455 6_555 n
O3 K3 Se2 108.0(5) 7_455 1_555 n
O3 K3 Se2 27.40(13) 7_455 4_454 n
O3 K3 O4 81.2(4) 7_455 1_555 n
O3 K3 O4 137.6(5) 7_455 8_556 n
O3 K3 O5 52.17(20) 7_455 2_545 n
K3 K3 O2 108.90(35) 8_556 2_545 n
K3 K3 O1 50.9(4) 8_556 3_555 n
K3 K3 O1 52.66(32) 8_556 6_555 n
K3 K3 Se2 55.44(9) 8_556 1_555 n
K3 K3 Se2 142.13(23) 8_556 4_454 n
K3 K3 O4 55.2(4) 8_556 1_555 n
K3 K3 O4 48.6(4) 8_556 8_556 n
K3 K3 O5 166.31(28) 8_556 2_545 n
O2 K3 O1 119.7(5) 2_545 3_555 n
O2 K3 O1 71.1(4) 2_545 6_555 n
O2 K3 Se2 108.8(4) 2_545 1_555 n
O2 K3 Se2 107.58(26) 2_545 4_454 n
O2 K3 O4 139.1(4) 2_545 1_555 n
O2 K3 O4 83.8(4) 2_545 8_556 n
O2 K3 O5 82.90(28) 2_545 2_545 n
O1 K3 O1 51.50(29) 3_555 6_555 n
O1 K3 Se2 100.02(30) 3_555 1_555 n
O1 K3 Se2 101.25(34) 3_555 4_454 n
O1 K3 O4 81.4(4) 3_555 1_555 n
O1 K3 O4 99.4(5) 3_555 8_556 n
O1 K3 O5 117.6(4) 3_555 2_545 n
O1 K3 Se2 101.62(29) 6_555 1_555 n
O1 K3 Se2 134.80(27) 6_555 4_454 n
O1 K3 O4 107.8(5) 6_555 1_555 n
O1 K3 O4 78.23(28) 6_555 8_556 n
O1 K3 O5 129.0(4) 6_555 2_545 n
Se2 K3 Se2 120.04(19) 1_555 4_454 n
Se2 K3 O4 30.39(10) 1_555 1_555 n
Se2 K3 O4 29.84(10) 1_555 8_556 n
Se2 K3 O5 128.43(21) 1_555 2_545 n
Se2 K3 O4 100.90(34) 4_454 1_555 n
Se2 K3 O4 146.81(29) 4_454 8_556 n
Se2 K3 O5 24.89(13) 4_454 2_545 n
O4 K3 O4 57.08(20) 1_555 8_556 n
O4 K3 O5 120.0(4) 1_555 2_545 n
O4 K3 O5 142.5(4) 8_556 2_545 n
K1 O2 Se1 100.5(9) 4_454 1_555 n
K1 O2 K2 74.5(4) 4_454 1_555 n
K1 O2 K3 106.8(5) 4_454 4_554 n
Se1 O2 K2 124.0(6) 1_555 1_555 n
Se1 O2 K3 146.0(9) 1_555 4_554 n
K2 O2 K3 83.42(25) 1_555 4_554 n
K1 O1 K1 92.2(5) 5_545 6_655 n
K1 O1 Se1 96.8(7) 5_545 1_555 n
K1 O1 K2 76.2(4) 5_545 5_545 n
K1 O1 K3 83.4(4) 5_545 3_554 n
K1 O1 K3 157.0(5) 5_545 6_555 n
K1 O1 Se1 105.6(7) 6_655 1_555 n
K1 O1 K2 84.4(4) 6_655 5_545 n
K1 O1 K3 161.83(27) 6_655 3_554 n
K1 O1 K3 103.5(5) 6_655 6_555 n
Se1 O1 K2 168.1(9) 1_555 5_545 n
Se1 O1 K3 92.4(6) 1_555 3_554 n
Se1 O1 K3 95.1(7) 1_555 6_555 n
K2 O1 K3 77.4(4) 5_545 3_554 n
K2 O1 K3 88.5(4) 5_545 6_555 n
K3 O1 K3 76.5(5) 3_554 6_555 n
K1 Se2 K1 77.39(12) 1_555 2_555 n
K1 Se2 K1 102.77(11) 1_555 7_555 n
K1 Se2 K1 173.84(26) 1_555 8_556 n
K1 Se2 O3 51.3(8) 1_555 1_555 n
K1 Se2 O3 128.8(8) 1_555 8_556 n
K1 Se2 K3 62.87(12) 1_555 1_555 n
K1 Se2 K3 115.28(21) 1_555 2_555 n
K1 Se2 K3 69.47(16) 1_555 7_555 n
K1 Se2 K3 111.57(20) 1_555 8_556 n
K1 Se2 O4 44.6(8) 1_555 1_555 n
K1 Se2 O4 131.3(7) 1_555 8_556 n
K1 Se2 O5 93.08(13) 1_555 3_665 n
K1 Se2 K1 177.18(26) 2_555 7_555 n
K1 Se2 K1 102.77(11) 2_555 8_556 n
K1 Se2 O3 128.4(8) 2_555 1_555 n
K1 Se2 O3 51.5(8) 2_555 8_556 n
K1 Se2 K3 108.03(18) 2_555 1_555 n
K1 Se2 K3 59.84(13) 2_555 2_555 n
K1 Se2 K3 117.86(19) 2_555 7_555 n
K1 Se2 K3 74.40(16) 2_555 8_556 n
K1 Se2 O4 48.7(8) 2_555 1_555 n
K1 Se2 O4 133.2(8) 2_555 8_556 n
K1 Se2 O5 88.59(13) 2_555 3_665 n
K1 Se2 K1 77.39(12) 7_555 8_556 n
K1 Se2 O3 51.5(8) 7_555 1_555 n
K1 Se2 O3 128.4(8) 7_555 8_556 n
K1 Se2 K3 74.40(16) 7_555 1_555 n
K1 Se2 K3 117.86(19) 7_555 2_555 n
K1 Se2 K3 59.84(13) 7_555 7_555 n
K1 Se2 K3 108.03(18) 7_555 8_556 n
K1 Se2 O4 133.2(8) 7_555 1_555 n
K1 Se2 O4 48.7(8) 7_555 8_556 n
K1 Se2 O5 88.59(13) 7_555 3_665 n
K1 Se2 O3 128.8(8) 8_556 1_555 n
K1 Se2 O3 51.3(8) 8_556 8_556 n
K1 Se2 K3 111.57(20) 8_556 1_555 n
K1 Se2 K3 69.47(16) 8_556 2_555 n
K1 Se2 K3 115.28(21) 8_556 7_555 n
K1 Se2 K3 62.87(12) 8_556 8_556 n
K1 Se2 O4 131.3(7) 8_556 1_555 n
K1 Se2 O4 44.6(8) 8_556 8_556 n
K1 Se2 O5 93.08(13) 8_556 3_665 n
O3 Se2 O3 177.9(8) 1_555 8_556 n
O3 Se2 K3 56.8(4) 1_555 1_555 n
O3 Se2 K3 133.4(4) 1_555 2_555 n
O3 Se2 K3 44.6(4) 1_555 7_555 n
O3 Se2 K3 125.2(4) 1_555 8_556 n
O3 Se2 O4 89.7(11) 1_555 1_555 n
O3 Se2 O4 91.4(11) 1_555 8_556 n
O3 Se2 O5 89.0(4) 1_555 3_665 n
O3 Se2 K3 125.2(4) 8_556 1_555 n
O3 Se2 K3 44.6(4) 8_556 2_555 n
O3 Se2 K3 133.4(4) 8_556 7_555 n
O3 Se2 K3 56.8(4) 8_556 8_556 n
O3 Se2 O4 91.4(11) 8_556 1_555 n
O3 Se2 O4 89.7(11) 8_556 8_556 n
O3 Se2 O5 89.0(4) 8_556 3_665 n
K3 Se2 K3 167.00(14) 1_555 2_555 n
K3 Se2 K3 101.38(9) 1_555 7_555 n
K3 Se2 K3 69.13(18) 1_555 8_556 n
K3 Se2 O4 61.2(6) 1_555 1_555 n
K3 Se2 O4 70.7(6) 1_555 8_556 n
K3 Se2 O5 145.44(9) 1_555 3_665 n
K3 Se2 K3 89.31(15) 2_555 7_555 n
K3 Se2 K3 101.38(9) 2_555 8_556 n
K3 Se2 O4 107.8(7) 2_555 1_555 n
K3 Se2 O4 113.3(7) 2_555 8_556 n
K3 Se2 O5 44.65(8) 2_555 3_665 n
K3 Se2 K3 167.00(14) 7_555 8_556 n
K3 Se2 O4 113.3(7) 7_555 1_555 n
K3 Se2 O4 107.8(7) 7_555 8_556 n
K3 Se2 O5 44.65(8) 7_555 3_665 n
K3 Se2 O4 70.7(6) 8_556 1_555 n
K3 Se2 O4 61.2(6) 8_556 8_556 n
K3 Se2 O5 145.44(9) 8_556 3_665 n
O4 Se2 O4 121.0(8) 1_555 8_556 n
O4 Se2 O5 119.5(4) 1_555 3_665 n
O4 Se2 O5 119.5(4) 8_556 3_665 n
K1 O4 K1 110.9(4) 1_555 2_555 n
K1 O4 K2 82.7(4) 1_555 7_455 n
K1 O4 K3 80.6(7) 1_555 1_555 n
K1 O4 K3 154.8(7) 1_555 8_556 n
K1 O4 Se2 109.5(9) 1_555 1_555 n
K1 O4 K2 84.2(5) 2_555 7_455 n
K1 O4 K3 158.5(6) 2_555 1_555 n
K1 O4 K3 88.6(7) 2_555 8_556 n
K1 O4 Se2 103.9(9) 2_555 1_555 n
K2 O4 K3 79.2(4) 7_455 1_555 n
K2 O4 K3 83.7(4) 7_455 8_556 n
K2 O4 Se2 161.1(6) 7_455 1_555 n
K3 O4 K3 76.14(31) 1_555 8_556 n
K3 O4 Se2 88.4(6) 1_555 1_555 n
K3 O4 Se2 79.5(6) 8_556 1_555 n
K2 O5 K2 126.34(34) 4_554 5_555 n
K2 O5 K3 78.01(20) 4_554 4_554 n
K2 O5 K3 83.82(20) 4_554 5_555 n
K2 O5 Se2 116.83(17) 4_554 3_664 n
K2 O5 K3 83.82(20) 5_555 4_554 n
K2 O5 K3 78.01(20) 5_555 5_555 n
K2 O5 Se2 116.83(17) 5_555 3_664 n
K3 O5 K3 139.08(33) 4_554 5_555 n
K3 O5 Se2 110.46(17) 4_554 3_664 n
K3 O5 Se2 110.46(17) 5_555 3_664 n
loop_
_geom_bond_atom_site_label_1
_geom_bond_atom_site_label_2
_geom_bond_distance
_geom_bond_site_symmetry_2
_geom_bond_publ_flag
K1 K1 4.3826(7) 2_555 n
K1 K1 4.3826(7) 4_454 n
K1 Se1 3.717(9) 2_555 n
K1 Se1 3.738(10) 3_565 n
K1 K2 3.598(12) 1_555 n
K1 K2 3.768(10) 2_555 n
K1 K2 3.631(11) 6_565 n
K1 K2 3.548(12) 7_455 n
K1 O3 2.801(23) 1_555 n
K1 O3 2.744(23) 7_455 n
K1 K3 3.549(5) 1_555 n
K1 K3 4.615(5) 1_565 n
K1 K3 4.063(10) 7_455 n
K1 K3 4.094(10) 7_555 n
K1 O2 3.055(24) 2_555 n
K1 O2 3.379(25) 6_565 n
K1 O1 3.141(20) 5_555 n
K1 O1 2.940(20) 6_565 n
K1 Se2 3.542(10) 1_555 n
K1 Se2 3.468(10) 4_454 n
K1 O4 2.637(25) 1_555 n
K1 O4 2.684(25) 4_454 n
Se1 K1 3.738(10) 3_564 n
Se1 K1 3.717(9) 4_454 n
Se1 K1 3.717(9) 5_545 n
Se1 K1 3.738(10) 6_655 n
Se1 K2 3.865(5) 4_554 n
Se1 K2 3.865(5) 5_555 n
Se1 K3 3.495(7) 3_554 n
Se1 K3 4.143(5) 4_554 n
Se1 K3 4.143(5) 5_555 n
Se1 K3 3.495(7) 6_555 n
Se1 O2 1.634(4) 1_555 n
Se1 O2 1.634(4) 8_555 n
Se1 O1 1.649(4) 1_555 n
Se1 O1 1.649(4) 8_555 n
K2 K1 3.598(12) 1_555 n
K2 K1 3.768(10) 4_454 n
K2 K1 3.631(11) 6_655 n
K2 K1 3.548(12) 7_555 n
K2 Se1 3.865(5) 2_545 n
K2 K2 4.995(6) 6_555 n
K2 O3 2.727(8) 1_555 n
K2 K3 3.481(7) 1_555 n
K2 K3 3.913(6) 4_554 n
K2 K3 3.694(7) 6_555 n
K2 K3 3.558(7) 7_555 n
K2 O2 3.170(13) 1_555 n
K2 O2 3.321(18) 5_545 n
K2 O1 2.661(7) 5_555 n
K2 Se2 3.827(6) 4_454 n
K2 O4 2.734(8) 7_555 n
K2 O5 2.799(5) 2_545 n
O3 K1 2.801(23) 1_555 n
O3 K1 2.744(23) 7_555 n
O3 K2 2.727(8) 1_555 n
O3 K3 2.717(13) 1_555 n
O3 K3 2.687(12) 7_555 n
O3 Se2 1.763(5) 1_555 n
K3 K1 4.615(5) 1_545 n
K3 K1 3.549(5) 1_555 n
K3 K1 4.094(10) 7_455 n
K3 K1 4.063(10) 7_555 n
K3 Se1 4.143(5) 2_545 n
K3 Se1 3.495(7) 3_555 n
K3 K2 3.481(7) 1_555 n
K3 K2 3.913(6) 2_545 n
K3 K2 3.694(7) 6_555 n
K3 K2 3.558(7) 7_455 n
K3 O3 2.717(13) 1_555 n
K3 O3 2.687(12) 7_455 n
K3 K3 5.119(7) 6_555 n
K3 K3 3.684(7) 8_556 n
K3 O2 2.687(12) 2_545 n
K3 O1 3.012(17) 3_555 n
K3 O1 2.938(20) 6_555 n
K3 Se2 3.246(6) 1_555 n
K3 Se2 3.642(5) 4_454 n
K3 O4 2.847(18) 1_555 n
K3 O4 3.117(17) 8_556 n
K3 O5 2.732(4) 2_545 n
O2 K1 3.055(24) 4_454 n
O2 K1 3.379(25) 6_655 n
O2 Se1 1.634(4) 1_555 n
O2 K2 3.170(13) 1_555 n
O2 K2 3.321(18) 5_555 n
O2 K3 2.687(12) 4_554 n
O1 K1 3.141(20) 5_545 n
O1 K1 2.940(20) 6_655 n
O1 Se1 1.649(4) 1_555 n
O1 K2 2.661(7) 5_545 n
O1 K3 3.012(17) 3_554 n
O1 K3 2.938(20) 6_555 n
Se2 K1 3.542(10) 1_555 n
Se2 K1 3.468(10) 2_555 n
Se2 K1 3.468(10) 7_555 n
Se2 K1 3.542(10) 8_556 n
Se2 K2 3.827(6) 2_555 n
Se2 K2 3.827(6) 7_555 n
Se2 O3 1.763(5) 1_555 n
Se2 O3 1.763(5) 8_556 n
Se2 K3 3.246(6) 1_555 n
Se2 K3 3.642(5) 2_555 n
Se2 K3 3.642(5) 7_555 n
Se2 K3 3.246(6) 8_556 n
Se2 O4 1.643(4) 1_555 n
Se2 O4 1.643(4) 8_556 n
Se2 O5 1.636(6) 3_665 n
O4 K1 2.637(25) 1_555 n
O4 K1 2.684(25) 2_555 n
O4 K2 2.734(8) 7_455 n
O4 K3 2.847(18) 1_555 n
O4 K3 3.117(17) 8_556 n
O4 Se2 1.643(4) 1_555 n
O5 K2 2.799(5) 4_554 n
O5 K2 2.799(5) 5_555 n
O5 K3 2.732(4) 4_554 n
O5 K3 2.732(4) 5_555 n
O5 Se2 1.636(6) 3_664 n
loop_
_pd_meas_intensity_total
_pd_proc_ls_weight
_pd_proc_intensity_bkg_calc
_pd_calc_intensity_total
235(11) 0.0 255.0 .
257(11) 0.0 254.7 .
244(11) 0.0 254.4 .
268(11) 0.0 254.2 .
256(11) 0.0 253.9 .
260(11) 0.0 253.6 .
256(11) 0.0 253.3 .
240(11) 0.0 253.0 .
249(11) 0.0 252.8 .
261(11) 0.0 252.5 .
255(11) 0.0 252.2 .
242(11) 0.0 251.9 .
252(11) 0.0 251.6 .
250(11) 0.0 251.4 .
229(11) 0.0 251.1 .
251(11) 0.0 250.8 .
237(11) 0.0 250.5 .
219(10) 0.0 250.3 .
259(11) 0.0 250.0 .
262(11) 0.0 249.7 .
242(11) 0.0 249.4 .
248(11) 0.0 249.2 .
232(11) 0.0 248.9 .
229(11) 0.0 248.6 .
233(11) 0.0 248.4 .
229(11) 0.0 248.1 .
252(11) 0.0 247.8 .
248(11) 0.0 247.6 .
228(11) 0.0 247.3 .
248(11) 0.0 247.0 .
249(11) 0.0 246.8 .
245(11) 0.0 246.5 .
227(11) 0.0 246.3 .
248(11) 0.0 246.0 .
238(11) 0.0 245.7 .
231(11) 0.0 245.5 .
242(11) 0.0 245.2 .
247(11) 0.0 245.0 .
245(11) 0.0 244.7 .
240(11) 0.0 244.4 .
234(11) 0.0 244.2 .
250(11) 0.0 243.9 .
248(11) 0.0 243.7 .
243(11) 0.0 243.4 .
242(11) 0.0 243.2 .
252(11) 0.0 242.9 .
248(11) 0.0 242.7 .
243(11) 0.0 242.4 .
237(11) 0.0 242.2 .
236(11) 0.0 241.9 .
249(11) 0.0 241.7 .
244(11) 0.0 241.4 .
260(11) 0.0 241.2 .
224(10) 0.0 240.9 .
236(11) 0.0 240.7 .
245(11) 0.0 240.4 .
246(11) 0.0 240.2 .
243(11) 0.0 240.0 .
234(11) 0.0 239.7 .
224(10) 0.0 239.5 .
240(11) 0.0 239.2 .
249(11) 0.0 239.0 .
238(11) 0.0 238.8 .
238(11) 0.0 238.5 .
220(10) 0.0 238.3 .
250(11) 0.0 238.0 .
232(11) 0.0 237.8 .
235(11) 0.00873 237.6 237.6
235(11) 0.00873 237.3 237.3
235(11) 0.00873 237.1 237.1
237(11) 0.00857 236.9 236.9
244(11) 0.00842 236.6 236.6
244(11) 0.00842 236.4 236.4
253(11) 0.00812 236.2 236.2
228(11) 0.00907 235.9 235.9
226(11) 0.00907 235.7 235.7
246(11) 0.00826 235.5 235.5
241(11) 0.00857 235.2 235.2
221(10) 0.00925 235.0 235.0
234(11) 0.00873 234.8 234.8
216(10) 0.00961 234.6 234.6
214(10) 0.00961 234.3 234.3
230(11) 0.00890 234.1 234.1
234(11) 0.00873 233.9 233.9
254(11) 0.00812 233.7 233.7
200(10) 0.01020 233.4 233.4
239(11) 0.00857 233.2 233.2
221(10) 0.00925 233.0 233.0
235(11) 0.00873 232.8 232.8
261(11) 0.00783 232.5 232.5
217(10) 0.00943 232.3 232.3
231(11) 0.00890 232.1 232.1
226(11) 0.00907 231.9 231.9
227(11) 0.00907 231.7 231.7
225(11) 0.00907 231.4 231.4
215(10) 0.00943 231.2 231.2
224(10) 0.00925 231.0 231.0
219(10) 0.00943 230.8 230.8
217(10) 0.00943 230.6 230.6
238(11) 0.00857 230.4 230.4
218(10) 0.00943 230.1 230.1
222(10) 0.00925 229.9 229.9
243(11) 0.00842 229.7 229.7
237(11) 0.00857 229.5 229.5
228(11) 0.00890 229.3 229.3
217(10) 0.00943 229.1 229.1
223(10) 0.00925 228.9 228.9
234(11) 0.00873 228.7 228.7
206(10) 0.01000 228.4 228.4
201(10) 0.01020 228.2 228.2
253(11) 0.00812 228.0 228.0
212(10) 0.00961 227.8 227.8
234(11) 0.00873 227.6 227.6
215(10) 0.00943 227.4 227.4
219(10) 0.00943 227.2 227.2
220(10) 0.00925 227.0 227.0
234(11) 0.00873 226.8 226.8
226(11) 0.00907 226.6 226.6
222(10) 0.00925 226.4 226.4
217(10) 0.00943 226.2 226.2
233(11) 0.00873 226.0 226.0
227(11) 0.00907 225.8 225.8
227(11) 0.00907 225.6 225.6
234(11) 0.00873 225.4 225.4
228(11) 0.00907 225.2 225.2
227(11) 0.00907 225.0 225.0
227(11) 0.00907 224.8 224.8
232(11) 0.00890 224.6 224.6
223(11) 0.00907 224.4 224.4
235(11) 0.00873 224.2 224.2
199(10) 0.01020 224.0 224.0
232(11) 0.00873 223.8 223.8
232(11) 0.00890 223.6 223.6
230(11) 0.00890 223.4 223.4
227(11) 0.00890 223.2 223.2
207(10) 0.00980 223.0 223.0
226(11) 0.00907 222.8 222.8
206(10) 0.01000 222.6 222.6
229(11) 0.00890 222.4 222.4
236(11) 0.00873 222.2 222.2
239(11) 0.00857 222.0 222.0
218(10) 0.00943 221.8 221.8
222(10) 0.00925 221.6 221.6
214(10) 0.00961 221.4 221.4
207(10) 0.01000 221.2 221.2
211(10) 0.00980 221.1 221.1
194(10) 0.01063 220.9 220.9
214(10) 0.00961 220.7 220.7
210(10) 0.00980 220.5 220.5
224(10) 0.00925 220.3 220.3
218(10) 0.00943 220.1 220.1
225(11) 0.00907 219.9 219.9
227(11) 0.00890 219.7 219.7
211(10) 0.00961 219.6 219.6
241(11) 0.00842 219.4 219.4
224(11) 0.00907 219.2 219.2
220(10) 0.00925 219.0 219.0
224(11) 0.00907 218.8 218.8
225(11) 0.00907 218.6 218.6
217(10) 0.00943 218.4 218.4
217(10) 0.00943 218.3 218.3
216(10) 0.00943 218.1 218.1
204(10) 0.01000 217.9 217.9
209(10) 0.00980 217.7 217.7
219(10) 0.00925 217.5 217.5
233(11) 0.00873 217.4 217.4
220(10) 0.00925 217.2 217.2
212(10) 0.00961 217.0 217.0
208(10) 0.00980 216.8 216.8
204(10) 0.01000 216.6 216.6
215(10) 0.00943 216.5 216.5
229(11) 0.00890 216.3 216.3
222(10) 0.00925 216.1 216.1
210(10) 0.00980 215.9 215.9
203(10) 0.01000 215.8 215.8
211(10) 0.00961 215.6 215.6
215(10) 0.00943 215.4 215.4
210(10) 0.00961 215.2 215.2
233(11) 0.00873 215.1 215.1
235(11) 0.00873 214.9 214.9
206(10) 0.00980 214.7 214.7
217(10) 0.00943 214.5 214.5
223(10) 0.00925 214.4 214.4
211(10) 0.00961 214.2 214.2
214(10) 0.00961 214.0 214.0
215(10) 0.00943 213.9 213.9
228(11) 0.00907 213.7 213.7
214(10) 0.00943 213.5 213.5
229(11) 0.00890 213.3 213.3
213(10) 0.00961 213.2 213.2
214(10) 0.00961 213.0 213.0
217(10) 0.00943 212.8 212.8
208(10) 0.00980 212.7 212.7
217(10) 0.00943 212.5 212.5
215(10) 0.00943 212.3 212.3
211(10) 0.00961 212.2 212.2
235(11) 0.00873 212.0 212.0
207(10) 0.00980 211.8 211.8
212(10) 0.00961 211.7 211.7
214(10) 0.00961 211.5 211.5
220(10) 0.00925 211.3 211.3
208(10) 0.00980 211.2 211.2
229(11) 0.00890 211.0 211.0
220(10) 0.00925 210.8 210.8
227(11) 0.00890 210.7 210.7
202(10) 0.01000 210.5 210.5
195(10) 0.01041 210.4 210.4
208(10) 0.00980 210.2 210.2
230(11) 0.00890 210.0 210.0
209(10) 0.00980 209.9 209.9
218(10) 0.00925 209.7 209.7
221(10) 0.00925 209.5 209.5
212(10) 0.00961 209.4 209.4
189(10) 0.01085 209.2 209.2
209(10) 0.00980 209.1 209.1
197(10) 0.01041 208.9 208.9
199(10) 0.01020 208.8 208.8
213(10) 0.00961 208.6 208.6
202(10) 0.01000 208.4 208.4
200(10) 0.01020 208.3 208.3
214(10) 0.00943 208.1 208.1
180(9) 0.01132 208.0 208.0
201(10) 0.01020 207.8 207.8
187(10) 0.01085 207.7 207.8
214(10) 0.00961 207.5 207.6
201(10) 0.01020 207.3 207.5
193(10) 0.01063 207.2 207.3
204(10) 0.01000 207.0 207.2
227(11) 0.00890 206.9 207.0
216(10) 0.00943 206.7 206.9
212(10) 0.00961 206.6 206.7
215(10) 0.00943 206.4 206.6
214(10) 0.00943 206.3 206.4
217(10) 0.00943 206.1 206.3
231(11) 0.00873 206.0 206.1
193(10) 0.01063 205.8 206.0
204(10) 0.01000 205.7 205.8
205(10) 0.01000 205.5 205.7
215(10) 0.00943 205.4 205.6
212(10) 0.00961 205.2 205.4
221(10) 0.00925 205.1 205.3
221(10) 0.00925 204.9 205.1
219(10) 0.00925 204.8 205.0
219(10) 0.00925 204.6 204.8
203(10) 0.01000 204.5 204.7
211(10) 0.00961 204.3 204.5
203(10) 0.01000 204.2 204.4
219(10) 0.00925 204.0 204.3
197(10) 0.01041 203.9 204.1
227(11) 0.00907 203.7 204.0
203(10) 0.01000 203.6 203.9
210(10) 0.00961 203.4 203.7
204(10) 0.01000 203.3 203.6
196(10) 0.01041 203.1 203.4
192(10) 0.01063 203.0 203.3
213(10) 0.00961 202.9 203.2
197(10) 0.01020 202.7 203.0
219(10) 0.00925 202.6 202.9
224(11) 0.00907 202.4 202.8
202(10) 0.01000 202.3 202.7
210(10) 0.00961 202.1 202.5
194(10) 0.01041 202.0 202.4
205(10) 0.01000 201.9 202.3
208(10) 0.00980 201.7 202.2
206(10) 0.00980 201.6 202.1
209(10) 0.00980 201.4 201.9
200(10) 0.01020 201.3 201.9
203(10) 0.01000 201.2 201.8
192(10) 0.01063 201.0 201.7
218(10) 0.00925 200.9 201.7
218(10) 0.00925 200.7 201.8
210(10) 0.00961 200.6 201.8
199(10) 0.01020 200.5 201.8
214(10) 0.00961 200.3 202.0
215(10) 0.00943 200.2 202.0
186(10) 0.01085 200.0 202.1
205(10) 0.00980 199.9 202.4
216(10) 0.00943 199.8 202.5
213(10) 0.00943 199.6 202.4
195(10) 0.01041 199.5 202.8
211(10) 0.00961 199.4 203.0
207(10) 0.00980 199.2 202.8
210(10) 0.00961 199.1 203.2
214(10) 0.00943 198.9 203.5
212(10) 0.00961 198.8 203.3
216(10) 0.00943 198.7 203.7
199(10) 0.01020 198.5 204.2
216(10) 0.00943 198.4 203.9
202(10) 0.01000 198.3 204.2
222(11) 0.00907 198.1 204.9
189(10) 0.01085 198.0 204.6
214(10) 0.00943 197.9 204.9
209(10) 0.00980 197.7 205.7
196(10) 0.01041 197.6 205.3
207(10) 0.00980 197.5 205.6
216(10) 0.00943 197.3 206.6
194(10) 0.01041 197.2 206.2
199(10) 0.01020 197.1 206.5
207(10) 0.00980 196.9 207.6
217(10) 0.00925 196.8 207.1
209(10) 0.00961 196.7 207.6
208(10) 0.00980 196.6 208.6
193(10) 0.01041 196.4 208.1
224(11) 0.00907 196.3 208.9
213(10) 0.00943 196.2 209.8
228(11) 0.00890 196.0 209.3
200(10) 0.01020 195.9 210.4
211(10) 0.00961 195.8 211.1
223(11) 0.00907 195.6 210.7
225(11) 0.00907 195.5 212.2
216(10) 0.00925 195.4 212.4
216(10) 0.00943 195.3 212.5
226(11) 0.00890 195.1 214.1
219(10) 0.00925 195.0 213.8
227(11) 0.00890 194.9 214.8
238(11) 0.00857 194.8 216.0
216(10) 0.00943 194.6 215.7
221(11) 0.00907 194.5 217.6
232(11) 0.00873 194.4 217.8
219(10) 0.00925 194.2 218.6
211(10) 0.00961 194.1 220.2
217(10) 0.00925 194.0 220.1
243(11) 0.00826 193.9 222.2
227(11) 0.00890 193.7 222.5
236(11) 0.00857 193.6 224.1
234(11) 0.00873 193.5 225.4
225(11) 0.00907 193.4 226.4
236(11) 0.00857 193.3 228.4
234(11) 0.00873 193.1 229.2
239(11) 0.00857 193.0 231.7
245(11) 0.00826 192.9 232.7
247(11) 0.00826 192.8 235.4
236(11) 0.00857 192.6 236.8
243(11) 0.00826 192.5 239.8
259(11) 0.00783 192.4 241.7
267(12) 0.00756 192.3 245.0
269(12) 0.00756 192.2 247.8
233(11) 0.00873 192.0 251.4
266(12) 0.00756 191.9 255.3
285(12) 0.00706 191.8 259.6
269(12) 0.00756 191.7 264.9
282(12) 0.00718 191.5 270.7
280(12) 0.00718 191.4 277.5
310(12) 0.00650 191.3 285.8
316(13) 0.00640 191.2 295.8
328(13) 0.00620 191.1 308.2
337(13) 0.00601 191.0 323.8
368(14) 0.00549 190.8 342.9
393(14) 0.00518 190.7 362.6
414(14) 0.00489 190.6 366.8
362(13) 0.00557 190.5 328.6
279(12) 0.00731 190.4 274.7
250(11) 0.00812 190.2 240.6
287(12) 0.00706 190.1 222.6
250(11) 0.00812 190.0 212.8
265(12) 0.00756 189.9 206.9
248(11) 0.00812 189.8 203.0
252(11) 0.00812 189.7 200.2
252(11) 0.00797 189.5 198.2
248(11) 0.00812 189.4 196.7
234(11) 0.00857 189.3 195.5
207(10) 0.00961 189.2 194.6
228(11) 0.00890 189.1 193.8
223(11) 0.00907 189.0 193.1
205(10) 0.00980 188.8 192.5
203(10) 0.01000 188.7 192.0
187(10) 0.01085 188.6 191.6
184(10) 0.01085 188.5 191.2
182(10) 0.01108 188.4 190.9
195(10) 0.01041 188.3 190.5
185(10) 0.01085 188.2 190.2
193(10) 0.01041 188.0 190.0
201(10) 0.01000 187.9 189.7
201(10) 0.01000 187.8 189.5
188(10) 0.01085 187.7 189.3
181(10) 0.01108 187.6 189.0
172(9) 0.01181 187.5 188.8
194(10) 0.01041 187.4 188.6
199(10) 0.01020 187.3 188.5
204(10) 0.00980 187.1 188.3
205(10) 0.00980 187.0 188.1
197(10) 0.01020 186.9 187.9
191(10) 0.01063 186.8 187.8
189(10) 0.01063 186.7 187.6
180(10) 0.01108 186.6 187.5
183(10) 0.01108 186.5 187.3
189(10) 0.01063 186.4 187.2
194(10) 0.01041 186.3 187.0
196(10) 0.01020 186.2 186.9
191(10) 0.01063 186.0 186.7
197(10) 0.01020 185.9 186.6
173(9) 0.01156 185.8 186.4
173(9) 0.01156 185.7 186.3
194(10) 0.01041 185.6 186.2
185(10) 0.01085 185.5 186.0
184(10) 0.01108 185.4 185.9
186(10) 0.01085 185.3 185.8
180(9) 0.01132 185.2 185.7
195(10) 0.01041 185.1 185.5
171(9) 0.01181 185.0 185.4
192(10) 0.01041 184.8 185.3
197(10) 0.01020 184.7 185.2
194(10) 0.01041 184.6 185.0
176(9) 0.01156 184.5 184.9
180(9) 0.01132 184.4 184.8
188(10) 0.01063 184.3 184.7
192(10) 0.01041 184.2 184.6
184(10) 0.01108 184.1 184.4
196(10) 0.01041 184.0 184.3
188(10) 0.01085 183.9 184.2
188(10) 0.01085 183.8 184.1
184(10) 0.01085 183.7 184.0
167(9) 0.01208 183.6 183.9
191(10) 0.01063 183.5 183.8
179(9) 0.01132 183.4 183.6
189(10) 0.01063 183.3 183.5
173(9) 0.01156 183.1 183.4
190(10) 0.01063 183.0 183.3
170(9) 0.01181 182.9 183.2
175(9) 0.01156 182.8 183.1
177(9) 0.01132 182.7 183.0
184(10) 0.01108 182.6 182.9
186(10) 0.01085 182.5 182.8
180(9) 0.01132 182.4 182.6
173(9) 0.01156 182.3 182.5
184(10) 0.01108 182.2 182.4
174(9) 0.01156 182.1 182.3
179(9) 0.01132 182.0 182.2
188(10) 0.01063 181.9 182.1
170(9) 0.01181 181.8 182.0
182(10) 0.01108 181.7 181.9
192(10) 0.01041 181.6 181.8
181(10) 0.01108 181.5 181.7
169(9) 0.01208 181.4 181.6
168(9) 0.01181 181.3 181.5
174(9) 0.01156 181.2 181.4
201(10) 0.01000 181.1 181.3
182(10) 0.01108 181.0 181.2
181(10) 0.01108 180.9 181.0
177(9) 0.01132 180.8 180.9
195(10) 0.01041 180.7 180.8
183(10) 0.01108 180.6 180.7
175(9) 0.01156 180.5 180.6
179(10) 0.01108 180.4 180.5
178(9) 0.01132 180.3 180.4
166(9) 0.01208 180.2 180.3
175(9) 0.01156 180.1 180.2
176(9) 0.01156 180.0 180.1
184(10) 0.01085 179.9 180.0
182(10) 0.01108 179.8 179.9
177(9) 0.01132 179.7 179.8
177(9) 0.01132 179.6 179.7
181(10) 0.01108 179.5 179.6
190(10) 0.01063 179.4 179.5
178(9) 0.01132 179.3 179.4
184(10) 0.01085 179.2 179.3
168(9) 0.01181 179.1 179.2
178(9) 0.01132 179.0 179.1
169(9) 0.01181 178.9 179.0
182(10) 0.01108 178.8 178.9
178(9) 0.01132 178.7 178.8
196(10) 0.01020 178.6 178.7
181(10) 0.01108 178.5 178.6
187(10) 0.01085 178.4 178.5
163(9) 0.01235 178.3 178.4
177(9) 0.01132 178.2 178.3
175(9) 0.01156 178.1 178.2
176(9) 0.01132 178.0 178.1
169(9) 0.01181 177.9 178.0
172(9) 0.01156 177.8 177.9
171(9) 0.01181 177.7 177.8
182(10) 0.01108 177.6 177.7
178(9) 0.01132 177.5 177.6
185(10) 0.01085 177.5 177.5
166(9) 0.01208 177.4 177.4
165(9) 0.01208 177.3 177.3
194(10) 0.01041 177.2 177.2
175(9) 0.01132 177.1 177.1
173(9) 0.01156 177.0 177.0
169(9) 0.01181 176.9 176.9
165(9) 0.01208 176.8 176.8
180(10) 0.01108 176.7 176.7
192(10) 0.01041 176.6 176.6
158(9) 0.01262 176.5 176.5
164(9) 0.01235 176.4 176.4
191(10) 0.01063 176.3 176.3
191(10) 0.01063 176.2 176.2
184(10) 0.01085 176.1 176.1
178(9) 0.01132 176.0 176.0
174(9) 0.01156 175.9 175.9
191(10) 0.01041 175.9 175.9
171(9) 0.01181 175.8 175.8
171(9) 0.01181 175.7 175.7
180(10) 0.01108 175.6 175.6
180(10) 0.01108 175.5 175.5
171(9) 0.01181 175.4 175.4
166(9) 0.01208 175.3 175.3
177(9) 0.01132 175.2 175.2
171(9) 0.01181 175.1 175.1
176(9) 0.01132 175.0 175.0
167(9) 0.01208 174.9 174.9
187(10) 0.01063 174.8 174.8
165(9) 0.01208 174.7 174.7
170(9) 0.01181 174.7 174.7
189(10) 0.01063 174.6 174.6
167(9) 0.01208 174.5 174.5
177(9) 0.01132 174.4 174.4
179(9) 0.01132 174.3 174.3
186(10) 0.01085 174.2 174.2
167(9) 0.01208 174.1 174.1
172(9) 0.01156 174.0 174.0
171(9) 0.01181 173.9 173.9
155(9) 0.01291 173.8 173.8
168(9) 0.01181 173.7 173.7
175(9) 0.01132 173.7 173.7
179(10) 0.01108 173.6 173.6
187(10) 0.01063 173.5 173.5
178(9) 0.01132 173.4 173.4
164(9) 0.01235 173.3 173.3
172(9) 0.01181 173.2 173.2
159(9) 0.01262 173.1 173.1
178(9) 0.01132 173.0 173.0
174(9) 0.01156 172.9 172.9
171(9) 0.01181 172.9 172.9
165(9) 0.01208 172.8 172.8
166(9) 0.01208 172.7 172.7
185(10) 0.01085 172.6 172.6
182(10) 0.01108 172.5 172.5
170(9) 0.01181 172.4 172.4
166(9) 0.01208 172.3 172.3
164(9) 0.01208 172.2 172.2
185(10) 0.01085 172.1 172.1
162(9) 0.01235 172.1 172.1
164(9) 0.01235 172.0 172.0
166(9) 0.01208 171.9 171.9
183(10) 0.01085 171.8 171.8
186(10) 0.01085 171.7 171.7
171(9) 0.01181 171.6 171.6
160(9) 0.01235 171.5 171.5
161(9) 0.01235 171.4 171.4
187(10) 0.01063 171.4 171.4
163(9) 0.01235 171.3 171.3
168(9) 0.01208 171.2 171.2
177(9) 0.01132 171.1 171.1
160(9) 0.01262 171.0 171.0
167(9) 0.01208 170.9 170.9
172(9) 0.01156 170.8 170.8
165(9) 0.01208 170.8 170.8
179(10) 0.01108 170.7 170.7
185(10) 0.01085 170.6 170.6
166(9) 0.01208 170.5 170.5
158(9) 0.01262 170.4 170.4
167(9) 0.01208 170.3 170.3
157(9) 0.01262 170.2 170.2
168(9) 0.01181 170.2 170.2
167(9) 0.01208 170.1 170.1
184(10) 0.01085 170.0 170.0
165(9) 0.01208 169.9 169.9
185(10) 0.01085 169.8 169.8
156(9) 0.01291 169.7 169.7
149(9) 0.01352 169.6 169.6
192(10) 0.01041 169.6 169.6
170(9) 0.01181 169.5 169.5
167(9) 0.01208 169.4 169.4
174(9) 0.01156 169.3 169.3
174(9) 0.01156 169.2 169.2
162(9) 0.01235 169.1 169.1
179(10) 0.01108 169.1 169.1
176(9) 0.01132 169.0 169.0
159(9) 0.01262 168.9 168.9
177(9) 0.01132 168.8 168.8
172(9) 0.01156 168.7 168.7
156(9) 0.01291 168.6 168.6
160(9) 0.01262 168.6 168.6
168(9) 0.01208 168.5 168.5
163(9) 0.01235 168.4 168.4
157(9) 0.01291 168.3 168.3
170(9) 0.01181 168.2 168.2
150(9) 0.01352 168.1 168.1
162(9) 0.01262 168.1 168.1
149(9) 0.01352 168.0 168.0
166(9) 0.01235 167.9 167.9
168(9) 0.01208 167.8 167.8
160(9) 0.01262 167.7 167.7
159(9) 0.01262 167.7 167.7
150(9) 0.01352 167.6 167.6
169(9) 0.01181 167.5 167.5
169(9) 0.01181 167.4 167.4
152(9) 0.01321 167.3 167.3
157(9) 0.01291 167.2 167.2
151(9) 0.01321 167.2 167.2
160(9) 0.01262 167.1 167.1
166(9) 0.01208 167.0 167.0
163(9) 0.01235 166.9 166.9
164(9) 0.01208 166.8 166.8
159(9) 0.01262 166.8 166.8
174(9) 0.01156 166.7 166.7
175(9) 0.01132 166.6 166.6
176(9) 0.01156 166.5 166.5
168(9) 0.01208 166.4 166.4
142(8) 0.01417 166.4 166.4
165(9) 0.01235 166.3 166.3
164(9) 0.01235 166.2 166.2
177(9) 0.01132 166.1 166.1
155(9) 0.01291 166.0 166.0
162(9) 0.01235 166.0 166.0
164(9) 0.01235 165.9 165.9
153(9) 0.01321 165.8 165.8
161(9) 0.01262 165.7 165.7
169(9) 0.01181 165.6 165.6
170(9) 0.01181 165.6 165.6
142(8) 0.01417 165.5 165.5
177(9) 0.01132 165.4 165.4
162(9) 0.01235 165.3 165.3
180(9) 0.01132 165.2 165.2
168(9) 0.01208 165.2 165.2
168(9) 0.01181 165.1 165.1
152(9) 0.01321 165.0 165.0
168(9) 0.01181 164.9 164.9
174(9) 0.01156 164.8 164.8
166(9) 0.01208 164.8 164.8
160(9) 0.01262 164.7 164.7
165(9) 0.01208 164.6 164.6
143(8) 0.01417 164.5 164.5
168(9) 0.01208 164.4 164.5
174(9) 0.01156 164.4 164.4
159(9) 0.01262 164.3 164.3
162(9) 0.01262 164.2 164.2
147(9) 0.01352 164.1 164.2
163(9) 0.01235 164.1 164.1
169(9) 0.01181 164.0 164.0
165(9) 0.01235 163.9 163.9
159(9) 0.01262 163.8 163.9
163(9) 0.01235 163.7 163.8
152(9) 0.01321 163.7 163.7
164(9) 0.01235 163.6 163.6
153(9) 0.01321 163.5 163.5
150(9) 0.01352 163.4 163.5
161(9) 0.01262 163.4 163.4
141(8) 0.01417 163.3 163.3
149(9) 0.01352 163.2 163.2
146(9) 0.01384 163.1 163.2
158(9) 0.01291 163.1 163.1
157(9) 0.01291 163.0 163.0
168(9) 0.01208 162.9 162.9
157(9) 0.01291 162.8 162.9
149(9) 0.01352 162.8 162.8
160(9) 0.01262 162.7 162.7
156(9) 0.01291 162.6 162.6
168(9) 0.01208 162.5 162.6
157(9) 0.01291 162.4 162.5
152(9) 0.01321 162.4 162.4
160(9) 0.01262 162.3 162.3
164(9) 0.01208 162.2 162.3
153(9) 0.01321 162.1 162.2
164(9) 0.01235 162.1 162.1
157(9) 0.01291 162.0 162.0
151(9) 0.01321 161.9 162.0
152(9) 0.01321 161.8 161.9
148(9) 0.01352 161.8 161.8
168(9) 0.01208 161.7 161.7
142(8) 0.01417 161.6 161.7
157(9) 0.01291 161.5 161.6
150(9) 0.01352 161.5 161.5
158(9) 0.01262 161.4 161.5
141(8) 0.01417 161.3 161.4
154(9) 0.01321 161.2 161.3
161(9) 0.01235 161.2 161.2
161(9) 0.01235 161.1 161.2
166(9) 0.01208 161.0 161.1
167(9) 0.01208 160.9 161.0
152(9) 0.01321 160.9 160.9
151(9) 0.01321 160.8 160.9
152(9) 0.01321 160.7 160.8
149(9) 0.01352 160.7 160.7
141(8) 0.01417 160.6 160.7
144(9) 0.01384 160.5 160.6
155(9) 0.01321 160.4 160.5
162(9) 0.01235 160.4 160.5
151(9) 0.01321 160.3 160.4
153(9) 0.01321 160.2 160.3
170(9) 0.01181 160.1 160.3
166(9) 0.01208 160.1 160.2
147(9) 0.01384 160.0 160.1
160(9) 0.01262 159.9 160.1
153(9) 0.01291 159.8 160.0
172(9) 0.01156 159.8 160.0
150(9) 0.01321 159.7 160.0
160(9) 0.01235 159.6 160.0
157(9) 0.01291 159.6 159.9
166(9) 0.01208 159.5 160.0
174(9) 0.01156 159.4 160.0
158(9) 0.01262 159.3 159.9
164(9) 0.01208 159.3 160.0
163(9) 0.01208 159.2 160.0
135(8) 0.01487 159.1 159.9
164(9) 0.01235 159.0 160.0
154(9) 0.01291 159.0 160.1
163(9) 0.01235 158.9 160.0
148(9) 0.01352 158.8 160.0
154(9) 0.01291 158.8 160.1
166(9) 0.01208 158.7 160.1
149(9) 0.01352 158.6 160.0
152(9) 0.01321 158.5 160.2
168(9) 0.01181 158.5 160.3
139(8) 0.01452 158.4 160.1
155(9) 0.01291 158.3 160.3
171(9) 0.01181 158.3 160.5
156(9) 0.01262 158.2 160.3
154(9) 0.01291 158.1 160.4
167(9) 0.01208 158.0 160.7
166(9) 0.01208 158.0 160.5
145(9) 0.01384 157.9 160.6
165(9) 0.01208 157.8 160.9
167(9) 0.01181 157.8 160.7
153(9) 0.01321 157.7 160.8
148(9) 0.01352 157.6 161.2
150(9) 0.01352 157.6 161.0
153(9) 0.01291 157.5 161.1
169(9) 0.01181 157.4 161.6
158(9) 0.01262 157.3 161.4
162(9) 0.01235 157.3 161.6
166(9) 0.01208 157.2 162.0
167(9) 0.01208 157.1 161.8
154(9) 0.01291 157.1 162.2
161(9) 0.01235 157.0 162.4
146(9) 0.01384 156.9 162.4
159(9) 0.01262 156.9 163.0
152(9) 0.01321 156.8 163.0
147(9) 0.01352 156.7 163.3
158(9) 0.01262 156.6 163.8
141(8) 0.01417 156.6 163.8
162(9) 0.01235 156.5 164.5
148(9) 0.01352 156.4 164.6
173(9) 0.01156 156.4 165.3
172(9) 0.01156 156.3 165.6
159(9) 0.01262 156.2 166.2
174(9) 0.01132 156.2 166.9
169(9) 0.01181 156.1 167.5
180(10) 0.01108 156.0 168.3
178(10) 0.01108 156.0 169.2
172(9) 0.01181 155.9 170.3
173(9) 0.01156 155.8 171.6
169(9) 0.01181 155.7 173.0
178(10) 0.01108 155.7 174.8
172(9) 0.01156 155.6 177.0
162(9) 0.01235 155.5 179.7
159(9) 0.01262 155.5 183.2
185(10) 0.01085 155.4 187.4
189(10) 0.01063 155.3 190.7
174(9) 0.01156 155.3 188.0
185(10) 0.01085 155.2 177.2
159(9) 0.01262 155.1 168.0
155(9) 0.01291 155.1 162.9
145(9) 0.01384 155.0 160.3
158(9) 0.01262 154.9 158.7
160(9) 0.01262 154.9 157.8
143(9) 0.01384 154.8 157.1
155(9) 0.01291 154.7 156.6
159(9) 0.01262 154.7 156.2
160(9) 0.01262 154.6 155.9
159(9) 0.01262 154.5 155.6
153(9) 0.01291 154.5 155.4
155(9) 0.01291 154.4 155.2
165(9) 0.01208 154.3 155.1
152(9) 0.01321 154.3 154.9
152(9) 0.01291 154.2 154.8
148(9) 0.01352 154.1 154.7
148(9) 0.01352 154.1 154.6
138(8) 0.01452 154.0 154.5
151(9) 0.01321 153.9 154.4
140(8) 0.01417 153.9 154.3
140(8) 0.01417 153.8 154.2
154(9) 0.01321 153.7 154.1
153(9) 0.01321 153.7 154.0
149(9) 0.01352 153.6 153.9
150(9) 0.01352 153.5 153.9
159(9) 0.01262 153.5 153.8
146(9) 0.01352 153.4 153.7
159(9) 0.01262 153.3 153.6
123(8) 0.01644 153.3 153.6
142(9) 0.01384 153.2 153.5
154(9) 0.01291 153.1 153.4
158(9) 0.01262 153.1 153.4
157(9) 0.01262 153.0 153.3
151(9) 0.01321 152.9 153.2
140(8) 0.01417 152.9 153.2
163(9) 0.01235 152.8 153.1
155(9) 0.01291 152.7 153.0
163(9) 0.01235 152.7 153.0
147(9) 0.01352 152.6 152.9
148(9) 0.01352 152.5 152.9
160(9) 0.01235 152.5 152.8
140(8) 0.01417 152.4 152.8
135(8) 0.01487 152.3 152.7
153(9) 0.01291 152.3 152.6
148(9) 0.01352 152.2 152.6
140(8) 0.01417 152.2 152.5
160(9) 0.01235 152.1 152.5
146(9) 0.01384 152.0 152.4
135(8) 0.01487 152.0 152.4
140(8) 0.01417 151.9 152.3
136(8) 0.01452 151.8 152.3
129(8) 0.01524 151.8 152.2
151(9) 0.01321 151.7 152.2
140(8) 0.01417 151.6 152.2
148(9) 0.01352 151.6 152.1
145(9) 0.01384 151.5 152.1
133(8) 0.01487 151.4 152.0
141(8) 0.01417 151.4 152.0
150(9) 0.01321 151.3 152.0
152(9) 0.01321 151.3 152.0
156(9) 0.01262 151.2 151.9
160(9) 0.01235 151.1 151.9
154(9) 0.01291 151.1 151.9
147(9) 0.01352 151.0 151.9
145(9) 0.01352 150.9 151.9
146(9) 0.01352 150.9 151.9
154(9) 0.01291 150.8 152.0
153(9) 0.01291 150.7 152.0
148(9) 0.01352 150.7 152.1
140(8) 0.01417 150.6 152.2
146(9) 0.01352 150.6 152.3
139(8) 0.01417 150.5 152.5
142(9) 0.01384 150.4 152.7
155(9) 0.01262 150.4 152.6
142(8) 0.01417 150.3 152.1
147(9) 0.01352 150.2 151.3
136(8) 0.01452 150.2 150.9
158(9) 0.01262 150.1 150.6
142(9) 0.01384 150.1 150.4
148(9) 0.01352 150.0 150.3
142(9) 0.01384 149.9 150.1
166(9) 0.01208 149.9 150.0
153(9) 0.01291 149.8 149.9
140(8) 0.01417 149.7 149.8
148(9) 0.01352 149.7 149.8
142(9) 0.01384 149.6 149.7
135(8) 0.01487 149.6 149.6
148(9) 0.01321 149.5 149.6
146(9) 0.01352 149.4 149.5
143(9) 0.01384 149.4 149.4
142(9) 0.01384 149.3 149.4
148(9) 0.01352 149.2 149.3
154(9) 0.01291 149.2 149.2
149(9) 0.01321 149.1 149.2
133(8) 0.01487 149.1 149.1
138(8) 0.01452 149.0 149.0
136(8) 0.01452 148.9 149.0
158(9) 0.01262 148.9 148.9
146(9) 0.01352 148.8 148.8
149(9) 0.01321 148.8 148.8
138(8) 0.01452 148.7 148.7
160(9) 0.01235 148.6 148.7
146(9) 0.01352 148.6 148.6
141(8) 0.01417 148.5 148.5
147(9) 0.01352 148.4 148.5
146(9) 0.01352 148.4 148.4
138(8) 0.01452 148.3 148.3
148(9) 0.01352 148.3 148.3
147(9) 0.01352 148.2 148.2
136(8) 0.01452 148.1 148.2
148(9) 0.01321 148.1 148.1
137(8) 0.01452 148.0 148.0
150(9) 0.01321 148.0 148.0
152(9) 0.01321 147.9 147.9
156(9) 0.01262 147.8 147.9
136(8) 0.01452 147.8 147.8
148(9) 0.01352 147.7 147.7
151(9) 0.01321 147.7 147.7
160(9) 0.01235 147.6 147.6
149(9) 0.01321 147.5 147.6
141(8) 0.01417 147.5 147.5
138(8) 0.01452 147.4 147.4
144(9) 0.01384 147.4 147.4
150(9) 0.01321 147.3 147.3
157(9) 0.01262 147.2 147.3
147(9) 0.01352 147.2 147.2
158(9) 0.01262 147.1 147.2
142(8) 0.01417 147.1 147.1
147(9) 0.01352 147.0 147.0
150(9) 0.01321 146.9 147.0
138(8) 0.01417 146.9 146.9
140(8) 0.01417 146.8 146.9
137(8) 0.01452 146.8 146.8
136(8) 0.01452 146.7 146.8
151(9) 0.01291 146.7 146.7
149(9) 0.01321 146.6 146.7
145(9) 0.01352 146.5 146.6
152(9) 0.01321 146.5 146.6
145(9) 0.01352 146.4 146.5
146(9) 0.01352 146.4 146.5
149(9) 0.01321 146.3 146.4
147(9) 0.01352 146.2 146.4
148(9) 0.01321 146.2 146.4
140(8) 0.01417 146.1 146.3
148(9) 0.01321 146.1 146.3
151(9) 0.01321 146.0 146.2
145(9) 0.01384 146.0 146.2
156(9) 0.01291 145.9 146.1
137(8) 0.01452 145.8 146.1
147(9) 0.01352 145.8 146.0
156(9) 0.01262 145.7 146.0
159(9) 0.01235 145.7 146.0
144(9) 0.01384 145.6 145.9
172(9) 0.01156 145.5 145.9
151(9) 0.01321 145.5 145.8
146(9) 0.01352 145.4 145.8
152(9) 0.01291 145.4 145.8
126(8) 0.01563 145.3 145.7
140(8) 0.01417 145.3 145.7
155(9) 0.01291 145.2 145.7
145(9) 0.01352 145.1 145.6
144(9) 0.01384 145.1 145.6
150(9) 0.01321 145.0 145.6
138(8) 0.01452 145.0 145.6
164(9) 0.01208 144.9 145.6
152(9) 0.01291 144.9 145.5
148(9) 0.01321 144.8 145.5
154(9) 0.01291 144.7 145.5
163(9) 0.01208 144.7 145.5
166(9) 0.01208 144.6 145.5
162(9) 0.01208 144.6 145.5
159(9) 0.01235 144.5 145.5
154(9) 0.01291 144.5 145.5
159(9) 0.01235 144.4 145.5
156(9) 0.01262 144.4 145.5
142(9) 0.01384 144.3 145.5
157(9) 0.01262 144.2 145.6
166(9) 0.01208 144.2 145.6
156(9) 0.01262 144.1 145.7
147(9) 0.01352 144.1 145.8
155(9) 0.01262 144.0 145.9
145(9) 0.01352 144.0 146.1
150(9) 0.01321 143.9 146.3
139(8) 0.01417 143.8 146.5
133(8) 0.01487 143.8 146.8
144(9) 0.01384 143.7 147.2
165(9) 0.01208 143.7 147.5
158(9) 0.01262 143.6 147.1
144(9) 0.01384 143.6 145.9
140(8) 0.01417 143.5 144.9
140(8) 0.01417 143.5 144.3
158(9) 0.01235 143.4 144.0
144(9) 0.01384 143.3 143.8
138(8) 0.01417 143.3 143.6
121(8) 0.01644 143.2 143.5
153(9) 0.01291 143.2 143.4
145(9) 0.01352 143.1 143.3
144(9) 0.01384 143.1 143.2
152(9) 0.01291 143.0 143.1
150(9) 0.01321 143.0 143.1
138(8) 0.01417 142.9 143.0
131(8) 0.01487 142.9 142.9
135(8) 0.01452 142.8 142.9
148(9) 0.01321 142.7 142.8
152(9) 0.01291 142.7 142.8
139(8) 0.01417 142.6 142.7
138(8) 0.01452 142.6 142.6
146(9) 0.01352 142.5 142.6
143(9) 0.01384 142.5 142.5
136(8) 0.01452 142.4 142.5
135(8) 0.01452 142.4 142.4
148(9) 0.01321 142.3 142.3
142(9) 0.01384 142.3 142.3
151(9) 0.01291 142.2 142.2
140(8) 0.01417 142.1 142.2
152(9) 0.01291 142.1 142.1
151(9) 0.01321 142.0 142.1
144(8) 0.01417 142.0 142.0
152(9) 0.01291 141.9 142.0
134(8) 0.01452 141.9 141.9
146(9) 0.01352 141.8 141.8
154(9) 0.01291 141.8 141.8
142(9) 0.01384 141.7 141.7
129(8) 0.01524 141.7 141.7
120(8) 0.01644 141.6 141.6
143(9) 0.01352 141.6 141.6
133(8) 0.01487 141.5 141.5
140(9) 0.01384 141.5 141.5
123(8) 0.01602 141.4 141.4
154(9) 0.01291 141.3 141.4
154(9) 0.01291 141.3 141.3
144(9) 0.01352 141.2 141.3
132(8) 0.01487 141.2 141.2
137(8) 0.01417 141.1 141.1
141(8) 0.01417 141.1 141.1
133(8) 0.01487 141.0 141.0
152(9) 0.01291 141.0 141.0
151(9) 0.01291 140.9 140.9
134(8) 0.01452 140.9 140.9
142(9) 0.01384 140.8 140.8
146(9) 0.01352 140.8 140.8
131(8) 0.01524 140.7 140.7
145(9) 0.01352 140.7 140.7
135(8) 0.01452 140.6 140.6
144(9) 0.01384 140.6 140.6
135(8) 0.01452 140.5 140.5
142(9) 0.01384 140.5 140.5
144(9) 0.01352 140.4 140.4
157(9) 0.01262 140.4 140.4
141(9) 0.01384 140.3 140.3
148(9) 0.01321 140.3 140.3
141(9) 0.01384 140.2 140.2
142(9) 0.01384 140.1 140.2
140(8) 0.01417 140.1 140.1
154(9) 0.01291 140.0 140.1
138(8) 0.01417 140.0 140.0
150(9) 0.01321 139.9 139.9
147(9) 0.01352 139.9 139.9
135(8) 0.01452 139.8 139.8
136(8) 0.01452 139.8 139.8
153(9) 0.01291 139.7 139.7
143(9) 0.01384 139.7 139.7
140(8) 0.01417 139.6 139.6
145(9) 0.01352 139.6 139.6
133(8) 0.01487 139.5 139.5
143(9) 0.01352 139.5 139.5
152(9) 0.01291 139.4 139.4
145(9) 0.01352 139.4 139.4
142(9) 0.01384 139.3 139.3
142(9) 0.01384 139.3 139.3
137(8) 0.01452 139.2 139.2
136(8) 0.01452 139.2 139.2
141(9) 0.01384 139.1 139.1
140(8) 0.01417 139.1 139.1
146(9) 0.01352 139.0 139.0
144(9) 0.01352 139.0 139.0
149(9) 0.01321 138.9 138.9
149(9) 0.01321 138.9 138.9
146(9) 0.01352 138.8 138.8
135(8) 0.01452 138.8 138.8
133(8) 0.01487 138.7 138.7
144(9) 0.01384 138.7 138.7
159(9) 0.01235 138.6 138.6
145(9) 0.01352 138.6 138.6
137(8) 0.01417 138.5 138.5
139(8) 0.01417 138.5 138.5
135(8) 0.01452 138.4 138.4
140(8) 0.01417 138.4 138.4
152(9) 0.01291 138.3 138.3
149(9) 0.01321 138.3 138.3
130(8) 0.01524 138.2 138.2
143(9) 0.01352 138.2 138.2
160(9) 0.01235 138.1 138.1
166(9) 0.01181 138.1 138.1
153(9) 0.01291 138.0 138.0
146(9) 0.01352 138.0 138.0
168(9) 0.01181 137.9 137.9
142(8) 0.01417 137.9 137.9
157(9) 0.01235 137.8 137.8
138(8) 0.01417 137.8 137.8
139(8) 0.01417 137.8 137.8
127(8) 0.01563 137.7 137.7
139(8) 0.01417 137.7 137.7
147(9) 0.01321 137.6 137.6
131(8) 0.01487 137.6 137.6
142(9) 0.01384 137.5 137.5
142(9) 0.01384 137.5 137.5
139(8) 0.01417 137.4 137.4
133(8) 0.01487 137.4 137.4
134(8) 0.01487 137.3 137.3
130(8) 0.01487 137.3 137.3
146(9) 0.01352 137.2 137.2
128(8) 0.01524 137.2 137.2
136(8) 0.01417 137.1 137.1
138(8) 0.01417 137.1 137.1
128(8) 0.01563 137.0 137.0
123(8) 0.01602 137.0 137.0
145(9) 0.01352 136.9 136.9
134(8) 0.01452 136.9 136.9
138(8) 0.01417 136.8 136.8
137(8) 0.01417 136.8 136.8
128(8) 0.01524 136.7 136.7
132(8) 0.01487 136.7 136.7
137(8) 0.01417 136.7 136.7
130(8) 0.01487 136.6 136.6
132(8) 0.01487 136.6 136.6
127(8) 0.01563 136.5 136.5
148(9) 0.01321 136.5 136.5
139(8) 0.01417 136.4 136.4
141(9) 0.01384 136.4 136.4
121(8) 0.01602 136.3 136.3
143(9) 0.01352 136.3 136.3
145(9) 0.01352 136.2 136.2
128(8) 0.01524 136.2 136.2
136(8) 0.01452 136.1 136.1
131(8) 0.01487 136.1 136.1
139(8) 0.01417 136.0 136.0
127(8) 0.01563 136.0 136.0
135(8) 0.01452 136.0 136.0
138(8) 0.01417 135.9 135.9
133(8) 0.01487 135.9 135.9
144(9) 0.01352 135.8 135.8
139(8) 0.01417 135.8 135.8
135(8) 0.01452 135.7 135.7
147(9) 0.01352 135.7 135.7
139(8) 0.01417 135.6 135.6
133(8) 0.01487 135.6 135.6
140(9) 0.01384 135.5 135.5
124(8) 0.01563 135.5 135.5
125(8) 0.01563 135.4 135.4
140(9) 0.01384 135.4 135.4
141(9) 0.01384 135.4 135.4
126(8) 0.01563 135.3 135.3
155(9) 0.01262 135.3 135.3
139(8) 0.01417 135.2 135.2
145(9) 0.01352 135.2 135.2
141(9) 0.01384 135.1 135.1
139(8) 0.01417 135.1 135.1
149(9) 0.01291 135.0 135.0
128(8) 0.01524 135.0 135.0
142(9) 0.01384 135.0 135.0
125(8) 0.01563 134.9 134.9
133(8) 0.01487 134.9 134.9
118(8) 0.01644 134.8 134.8
137(8) 0.01452 134.8 134.8
143(9) 0.01384 134.7 134.7
138(8) 0.01417 134.7 134.7
131(8) 0.01487 134.6 134.6
128(8) 0.01524 134.6 134.6
125(8) 0.01563 134.6 134.6
135(8) 0.01452 134.5 134.5
123(8) 0.01602 134.5 135.8
117(8) 0.01644 134.4 135.7
127(8) 0.01524 134.4 135.7
149(9) 0.01321 134.3 135.7
138(8) 0.01417 134.3 135.7
139(8) 0.01417 134.2 135.7
151(9) 0.01291 134.2 135.6
133(8) 0.01487 134.2 135.6
137(8) 0.01417 134.1 135.6
143(9) 0.01352 134.1 135.6
147(9) 0.01321 134.0 135.6
143(9) 0.01384 134.0 135.6
141(9) 0.01384 133.9 135.6
148(9) 0.01321 133.9 135.6
134(8) 0.01452 133.9 135.5
131(8) 0.01487 133.8 135.5
129(8) 0.01524 133.8 135.5
141(9) 0.01384 133.7 135.5
127(8) 0.01524 133.7 135.5
160(9) 0.01235 133.6 135.5
141(9) 0.01384 133.6 135.5
133(8) 0.01452 133.6 135.5
127(8) 0.01563 133.5 135.5
140(9) 0.01384 133.5 135.5
143(9) 0.01384 133.4 135.5
167(9) 0.01156 133.4 135.5
140(9) 0.01384 133.3 135.5
131(8) 0.01487 133.3 135.5
128(8) 0.01524 133.3 135.5
130(8) 0.01487 133.2 135.6
134(8) 0.01452 133.2 135.6
125(8) 0.01563 133.1 135.6
126(8) 0.01563 133.1 135.6
132(8) 0.01487 133.0 135.6
134(8) 0.01452 133.0 135.7
148(9) 0.01321 133.0 135.7
132(8) 0.01487 132.9 135.7
134(8) 0.01452 132.9 135.8
131(8) 0.01487 132.8 135.8
139(8) 0.01417 132.8 135.8
131(8) 0.01487 132.7 135.9
139(8) 0.01417 132.7 135.9
140(9) 0.01384 132.7 136.0
137(8) 0.01417 132.6 136.0
147(9) 0.01321 132.6 136.1
140(9) 0.01384 132.5 136.2
142(9) 0.01384 132.5 136.2
131(8) 0.01487 132.5 136.3
130(8) 0.01487 132.4 136.4
146(9) 0.01321 132.4 136.5
150(9) 0.01291 132.3 136.6
128(8) 0.01524 132.3 136.7
150(9) 0.01291 132.3 136.8
135(8) 0.01452 132.2 136.9
137(8) 0.01417 132.2 137.1
144(9) 0.01352 132.1 137.2
139(9) 0.01384 132.1 137.4
141(9) 0.01384 132.0 137.5
148(9) 0.01321 132.0 137.7
150(9) 0.01291 132.0 137.9
139(8) 0.01417 131.9 138.1
146(9) 0.01321 131.9 138.4
161(9) 0.01208 131.8 138.6
146(9) 0.01321 131.8 138.9
142(9) 0.01384 131.8 139.3
165(9) 0.01181 131.7 139.6
159(9) 0.01208 131.7 140.0
136(8) 0.01417 131.6 140.5
139(9) 0.01384 131.6 141.0
140(9) 0.01384 131.6 141.6
146(9) 0.01321 131.5 142.3
139(8) 0.01417 131.5 143.1
149(9) 0.01291 131.4 144.2
166(9) 0.01181 131.4 145.6
150(9) 0.01291 131.4 147.5
164(9) 0.01181 131.3 150.5
163(9) 0.01208 131.3 155.0
177(10) 0.01085 131.2 159.6
174(9) 0.01132 131.2 163.5
188(10) 0.01041 131.2 171.1
184(10) 0.01063 131.1 180.2
186(10) 0.01041 131.1 183.4
196(10) 0.01000 131.1 190.6
208(10) 0.00925 131.0 203.9
211(10) 0.00925 131.0 207.6
236(11) 0.00826 130.9 212.8
244(11) 0.00797 130.9 229.6
247(11) 0.00783 130.9 235.9
270(12) 0.00718 130.8 238.4
267(12) 0.00718 130.8 257.7
290(12) 0.00672 130.7 267.8
274(12) 0.00706 130.7 268.0
269(12) 0.00731 130.7 289.4
322(13) 0.00601 130.6 303.4
307(13) 0.00630 130.6 302.3
300(12) 0.00650 130.5 326.4
356(14) 0.00549 130.5 342.9
355(14) 0.00549 130.5 341.8
383(14) 0.00503 130.4 370.4
406(15) 0.00476 130.4 386.9
385(14) 0.00503 130.4 388.4
423(15) 0.00457 130.3 423.6
440(15) 0.00444 130.3 435.9
475(16) 0.00411 130.2 445.7
483(16) 0.00406 130.2 486.5
491(16) 0.00391 130.2 492.4
500(16) 0.00386 130.1 520.0
515(16) 0.00376 130.1 556.5
591(17) 0.003303 130.1 565.5
625(18) 0.003086 130.0 614.4
670(19) 0.002891 130.0 634.5
688(19) 0.002829 129.9 673.3
694(19) 0.002799 129.9 717.5
738(20) 0.002630 129.9 749.8
824(21) 0.002380 129.8 810.9
833(21) 0.002334 129.8 850.4
930(22) 0.002066 129.8 923.3
974(22) 0.001993 129.7 980.1
1085(24) 0.001795 129.7 1067.9
1143(24) 0.001708 129.6 1152.5
1232(25) 0.001587 129.6 1263.5
1420(27) 0.001372 129.6 1393.4
1573(28) 0.001240 129.5 1550.0
1761(30) 0.001104 129.5 1749.5
2088(33) 0.000924 129.5 1997.5
2373(35) 0.000821 129.4 2282.9
2773(38) 0.000696 129. 2485.
2399(35) 0.000807 129. 2244.
1300(26) 0.001491 129.3 1531.1
790(20) 0.002451 129.3 958.4
591(18) 0.003265 129.2 645.2
456(15) 0.00427 129.2 478.6
347(13) 0.00557 129.2 383.0
324(13) 0.00601 129.1 322.9
286(12) 0.00672 129.1 282.6
238(11) 0.00812 129.1 254.1
234(11) 0.00826 129.0 233.1
197(10) 0.00980 129.0 217.4
217(11) 0.00890 129.0 205.0
200(10) 0.00980 128.9 195.4
195(10) 0.00980 128.9 187.6
193(10) 0.01000 128.8 181.1
193(10) 0.01000 128.8 175.9
173(9) 0.01132 128.8 171.5
162(9) 0.01181 128.7 167.8
167(9) 0.01156 128.7 164.7
170(9) 0.01132 128.7 161.9
171(9) 0.01132 128.6 159.7
159(9) 0.01208 128.6 157.7
153(9) 0.01262 128.6 156.1
157(9) 0.01235 128.5 154.7
159(9) 0.01208 128.5 153.5
157(9) 0.01235 128.5 152.5
147(9) 0.01321 128.4 151.7
153(9) 0.01262 128.4 151.1
152(9) 0.01291 128.4 150.8
157(9) 0.01235 128.3 150.6
177(10) 0.01108 128.3 150.7
136(8) 0.01417 128.2 151.0
158(9) 0.01235 128.2 151.7
153(9) 0.01262 128.2 152.6
138(8) 0.01417 128.1 153.3
160(9) 0.01208 128.1 152.1
141(9) 0.01384 128.1 148.0
138(9) 0.01384 128.0 143.8
148(9) 0.01321 128.0 141.0
130(8) 0.01487 128.0 139.2
152(9) 0.01262 127.9 138.1
137(8) 0.01417 127.9 137.2
145(9) 0.01321 127.9 136.5
139(8) 0.01417 127.8 136.0
141(9) 0.01384 127.8 135.5
121(8) 0.01602 127.8 135.0
123(8) 0.01602 127.7 134.7
123(8) 0.01563 127.7 134.3
142(9) 0.01384 127.7 134.0
135(8) 0.01452 127.6 133.7
142(9) 0.01384 127.6 133.4
141(9) 0.01384 127.6 133.1
126(8) 0.01524 127.5 132.9
143(9) 0.01352 127.5 132.7
126(8) 0.01524 127.5 132.4
123(8) 0.01563 127.4 132.2
139(9) 0.01384 127.4 132.0
137(8) 0.01417 127.4 131.9
143(9) 0.01352 127.3 131.7
129(8) 0.01524 127.3 131.5
138(9) 0.01384 127.3 131.3
121(8) 0.01602 127.2 131.2
129(8) 0.01524 127.2 131.0
129(8) 0.01487 127.2 130.9
130(8) 0.01487 127.1 130.7
132(8) 0.01452 127.1 130.6
129(8) 0.01487 127.1 130.5
123(8) 0.01563 127.0 130.3
131(8) 0.01487 127.0 130.2
121(8) 0.01602 127.0 130.1
119(8) 0.01602 126.9 130.0
133(8) 0.01452 126.9 129.9
128(8) 0.01524 126.9 129.8
137(8) 0.01417 126.8 129.6
136(8) 0.01417 126.8 129.5
126(8) 0.01524 126.8 129.4
134(8) 0.01452 126.7 129.3
139(9) 0.01384 126.7 129.3
135(8) 0.01452 126.7 129.2
126(8) 0.01524 126.6 129.1
118(8) 0.01644 126.6 129.0
133(8) 0.01452 126.6 128.9
117(8) 0.01644 126.6 128.8
126(8) 0.01524 126.5 128.7
125(8) 0.01524 126.5 126.5
132(8) 0.01452 126.5 126.5
136(8) 0.01417 126.4 126.5
129(8) 0.01487 126.4 126.4
138(8) 0.01417 126.4 126.4
115(8) 0.01687 126.3 126.4
141(9) 0.01384 126.3 126.3
130(8) 0.01487 126.3 126.3
127(8) 0.01524 126.2 126.3
132(8) 0.01487 126.2 126.2
135(8) 0.01417 126.2 126.2
112(8) 0.01731 126.1 126.2
130(8) 0.01487 126.1 126.1
121(8) 0.01563 126.1 126.1
124(8) 0.01563 126.1 126.1
123(8) 0.01563 126.0 126.0
132(8) 0.01452 126.0 126.0
138(8) 0.01417 126.0 126.0
118(8) 0.01644 125.9 126.0
118(8) 0.01644 125.9 125.9
123(8) 0.01563 125.9 125.9
130(8) 0.01487 125.8 125.9
136(8) 0.01417 125.8 125.8
125(8) 0.01524 125.8 125.8
128(8) 0.01487 125.7 125.8
124(8) 0.01563 125.7 125.7
128(8) 0.01487 125.7 125.7
137(8) 0.01417 125.7 125.7
124(8) 0.01524 125.6 125.6
130(8) 0.01487 125.6 125.6
136(8) 0.01417 125.6 125.6
130(8) 0.01487 125.5 125.6
118(8) 0.01644 125.5 125.5
113(8) 0.01731 125.5 125.5
125(8) 0.01563 125.4 125.5
137(9) 0.01384 125.4 125.4
127(8) 0.01524 125.4 125.4
126(8) 0.01524 125.4 125.4
129(8) 0.01487 125.3 125.3
131(8) 0.01487 125.3 125.3
143(9) 0.01352 125.3 125.3
143(9) 0.01352 125.2 125.3
138(9) 0.01384 125.2 125.6
147(9) 0.01321 125.2 125.6
146(9) 0.01321 125.2 125.5
150(9) 0.01291 125.1 125.5
142(9) 0.01352 125.1 125.5
156(9) 0.01235 125.1 125.5
161(9) 0.01181 125.0 125.4
142(9) 0.01352 125.0 125.4
148(9) 0.01291 125.0 125.4
145(9) 0.01321 125.0 125.4
148(9) 0.01291 124.9 125.4
164(9) 0.01181 124.9 125.3
143(9) 0.01352 124.9 125.3
151(9) 0.01262 124.8 125.3
122(8) 0.01563 124.8 125.3
153(9) 0.01262 124.8 125.3
149(9) 0.01291 124.7 125.2
146(9) 0.01321 124.7 125.2
146(9) 0.01321 124.7 125.2
140(9) 0.01384 124.7 125.2
135(8) 0.01417 124.6 125.2
130(8) 0.01487 124.6 125.1
127(8) 0.01524 124.6 125.1
131(8) 0.01487 124.6 125.1
123(8) 0.01563 124.5 125.1
127(8) 0.01524 124.5 125.1
131(8) 0.01487 124.5 125.1
125(8) 0.01524 124.4 125.0
113(8) 0.01731 124.4 125.0
129(8) 0.01487 124.4 125.0
119(8) 0.01644 124.4 125.0
126(8) 0.01524 124.3 125.0
120(8) 0.01602 124.3 125.0
132(8) 0.01487 124.3 125.0
145(9) 0.01321 124.2 125.0
115(8) 0.01687 124.2 124.9
126(8) 0.01524 124.2 124.9
121(8) 0.01602 124.2 124.9
106(7) 0.01826 124.1 124.9
115(8) 0.01687 124.1 124.9
129(8) 0.01487 124.1 124.9
135(8) 0.01417 124.1 124.9
113(8) 0.01731 124.0 124.9
120(8) 0.01602 124.0 124.9
126(8) 0.01524 124.0 124.9
123(8) 0.01563 123.9 124.9
124(8) 0.01524 123.9 124.9
122(8) 0.01563 123.9 124.9
117(8) 0.01644 123.9 124.9
117(8) 0.01644 123.8 124.9
114(8) 0.01687 123.8 124.9
120(8) 0.01602 123.8 124.9
124(8) 0.01563 123.8 124.9
126(8) 0.01524 123.7 124.9
125(8) 0.01524 123.7 125.0
133(8) 0.01417 123.7 125.0
132(8) 0.01452 123.7 125.0
126(8) 0.01524 123.6 125.0
118(8) 0.01644 123.6 125.1
117(8) 0.01644 123.6 125.1
133(8) 0.01452 123.5 125.1
118(8) 0.01644 123.5 125.2
128(8) 0.01487 123.5 125.2
134(8) 0.01417 123.5 125.2
144(9) 0.01321 123.4 125.3
111(8) 0.01731 123.4 125.4
140(9) 0.01384 123.4 125.4
129(8) 0.01487 123.4 125.5
122(8) 0.01602 123.3 125.6
117(8) 0.01644 123.3 125.7
121(8) 0.01602 123.3 125.8
127(8) 0.01487 123.3 125.9
132(8) 0.01452 123.2 126.0
116(8) 0.01644 123.2 126.2
127(8) 0.01487 123.2 126.4
125(8) 0.01524 123.2 126.6
124(8) 0.01563 123.1 126.8
132(8) 0.01452 123.1 127.1
131(8) 0.01452 123.1 127.5
133(8) 0.01452 123.1 128.0
141(9) 0.01352 123.0 128.7
149(9) 0.01291 123.0 129.7
143(9) 0.01321 123.0 131.0
152(9) 0.01262 123.0 132.2
131(8) 0.01452 122.9 133.0
137(9) 0.01384 122.9 134.1
127(8) 0.01524 122.9 136.2
132(8) 0.01452 122.9 138.9
135(8) 0.01417 122.8 141.0
147(9) 0.01291 122.8 141.6
153(9) 0.01262 122.8 142.7
155(9) 0.01235 122.8 145.7
143(9) 0.01321 122.7 149.8
152(9) 0.01262 122.7 151.9
156(9) 0.01235 122.7 152.0
153(9) 0.01262 122.7 153.7
176(10) 0.01085 122.6 158.5
164(9) 0.01156 122.6 163.6
162(9) 0.01181 122.6 164.8
171(10) 0.01108 122.6 165.0
170(9) 0.01132 122.5 169.0
190(10) 0.01000 122.5 176.0
174(10) 0.01085 122.5 180.1
195(10) 0.00980 122.5 180.1
198(10) 0.00961 122.4 183.1
180(10) 0.01063 122.4 191.3
208(11) 0.00907 122.4 198.1
195(10) 0.00980 122.4 199.1
216(11) 0.00890 122.4 202.6
204(10) 0.00943 122.3 212.4
225(11) 0.00857 122.3 220.7
232(11) 0.00826 122.3 223.2
241(11) 0.00797 122.3 229.8
242(11) 0.00783 122.2 242.5
286(12) 0.00672 122.2 250.9
259(12) 0.00743 122.2 257.2
267(12) 0.00718 122.2 271.0
317(13) 0.00601 122.1 285.3
298(13) 0.00640 122.1 296.2
349(13) 0.00557 122.1 314.0
336(13) 0.00565 122.1 333.9
364(14) 0.00518 122.1 353.6
390(14) 0.00482 122.0 380.8
444(15) 0.00427 122.0 410.0
453(15) 0.00422 122.0 444.3
516(17) 0.00367 122.0 479.5
576(17) 0.003303 121.9 504.8
589(18) 0.003265 121.9 495.5
485(16) 0.00396 121.9 432.4
377(14) 0.00503 121.9 345.6
282(12) 0.00672 121.8 275.7
271(12) 0.00706 121.8 229.7
230(11) 0.00826 121.8 200.5
227(11) 0.00842 121.8 181.5
203(10) 0.00943 121.8 168.7
214(11) 0.00890 121.7 159.7
202(10) 0.00943 121.7 153.0
201(10) 0.00943 121.7 148.0
201(10) 0.00961 121.7 144.1
200(10) 0.00943 121.6 141.1
196(10) 0.00961 121.6 138.6
196(10) 0.00980 121.6 136.6
183(10) 0.01041 121.6 134.9
191(10) 0.01000 121.6 133.5
178(10) 0.01063 121.5 132.3
152(9) 0.01262 121.5 131.2
173(10) 0.01108 121.5 130.3
155(9) 0.01235 121.5 129.6
147(9) 0.01291 121.4 128.9
144(9) 0.01321 121.4 128.3
153(9) 0.01262 121.4 127.7
142(9) 0.01352 121.4 127.3
145(9) 0.01321 121.4 126.8
130(8) 0.01487 121.3 126.4
139(9) 0.01384 121.3 126.1
138(9) 0.01384 121.3 125.8
143(9) 0.01352 121.3 125.5
144(9) 0.01321 121.2 125.2
130(8) 0.01452 121.2 125.0
141(9) 0.01352 121.2 124.7
129(8) 0.01487 121.2 124.5
145(9) 0.01321 121.2 124.3
117(8) 0.01644 121.1 124.1
126(8) 0.01487 121.1 124.0
133(8) 0.01452 121.1 123.8
131(8) 0.01452 121.1 123.7
147(9) 0.01291 121.1 123.5
112(8) 0.01731 121.0 123.8
144(9) 0.01321 121.0 123.6
134(8) 0.01452 121.0 123.5
130(8) 0.01452 121.0 123.4
122(8) 0.01563 121.0 123.3
127(8) 0.01487 120.9 123.2
135(8) 0.01417 120.9 123.1
125(8) 0.01524 120.9 123.0
135(8) 0.01417 120.9 123.0
116(8) 0.01644 120.9 122.9
127(8) 0.01524 120.8 122.8
127(8) 0.01524 120.8 122.7
138(9) 0.01384 120.8 122.7
135(8) 0.01417 120.8 122.6
142(9) 0.01352 120.7 122.5
144(9) 0.01321 120.7 122.5
137(9) 0.01384 120.7 122.4
126(8) 0.01524 120.7 122.4
119(8) 0.01602 120.7 122.3
130(8) 0.01452 120.6 122.3
121(8) 0.01563 120.6 122.2
129(8) 0.01487 120.6 122.2
133(8) 0.01417 120.6 122.1
121(8) 0.01563 120.6 122.1
134(8) 0.01417 120.5 122.0
112(8) 0.01687 120.5 122.0
108(8) 0.01778 120.5 121.9
136(9) 0.01384 120.5 121.9
138(9) 0.01384 120.5 121.9
129(8) 0.01487 120.4 121.8
128(8) 0.01487 120.4 121.8
118(8) 0.01644 120.4 121.8
118(8) 0.01602 120.4 121.7
122(8) 0.01563 120.4 121.7
125(8) 0.01524 120.4 121.7
124(8) 0.01563 120.3 121.6
131(8) 0.01452 120.3 121.6
129(8) 0.01452 120.3 121.6
132(8) 0.01417 120.3 121.6
119(8) 0.01602 120.3 121.5
119(8) 0.01602 120.2 121.5
126(8) 0.01524 120.2 121.5
128(8) 0.01487 120.2 121.5
123(8) 0.01524 120.2 121.4
113(8) 0.01687 120.2 121.4
127(8) 0.01487 120.1 121.4
120(8) 0.01602 120.1 121.4
132(8) 0.01417 120.1 121.3
121(8) 0.01563 120.1 121.3
123(8) 0.01563 120.1 121.3
124(8) 0.01524 120.0 121.3
129(8) 0.01487 120.0 121.3
121(8) 0.01563 120.0 121.3
145(9) 0.01321 120.0 121.2
127(8) 0.01487 120.0 121.2
115(8) 0.01644 120.0 121.2
127(8) 0.01487 119.9 121.2
119(8) 0.01602 119.9 121.2
125(8) 0.01524 119.9 121.2
132(8) 0.01417 119.9 121.2
137(9) 0.01384 119.9 121.2
112(8) 0.01687 119.8 121.1
115(8) 0.01644 119.8 121.1
124(8) 0.01524 119.8 121.1
116(8) 0.01644 119.8 121.1
126(8) 0.01524 119.8 121.1
143(9) 0.01321 119.8 121.1
120(8) 0.01602 119.7 121.1
115(8) 0.01687 119.7 121.1
121(8) 0.01563 119.7 121.1
114(8) 0.01644 119.7 121.1
124(8) 0.01524 119.7 121.1
114(8) 0.01644 119.6 121.1
114(8) 0.01687 119.6 121.1
131(8) 0.01452 119.6 121.1
129(8) 0.01452 119.6 121.1
115(8) 0.01644 119.6 121.1
119(8) 0.01602 119.6 121.1
111(8) 0.01731 119.5 121.1
128(8) 0.01487 119.5 121.1
136(8) 0.01417 119.5 121.1
115(8) 0.01644 119.5 121.1
110(8) 0.01731 119.5 121.1
119(8) 0.01602 119.4 121.1
125(8) 0.01524 119.4 121.2
116(8) 0.01644 119.4 121.2
126(8) 0.01524 119.4 120.9
110(8) 0.01731 119.4 120.9
115(8) 0.01644 119.4 120.9
106(8) 0.01778 119.3 121.0
121(8) 0.01563 119.3 121.0
125(8) 0.01524 119.3 121.0
116(8) 0.01644 119.3 121.1
106(8) 0.01778 119.3 121.1
126(8) 0.01487 119.3 121.1
111(8) 0.01731 119.2 121.2
111(8) 0.01687 119.2 121.2
112(8) 0.01731 119.2 121.2
111(8) 0.01687 119.2 121.3
133(8) 0.01487 119.2 121.3
127(8) 0.01487 119.2 121.4
106(8) 0.01778 119.1 121.4
111(8) 0.01687 119.1 121.5
121(8) 0.01563 119.1 121.5
129(8) 0.01452 119.1 121.6
136(9) 0.01384 119.1 121.7
126(8) 0.01487 119.1 121.8
122(8) 0.01524 119.0 121.8
117(8) 0.01602 119.0 121.9
140(9) 0.01352 119.0 122.0
124(8) 0.01524 119.0 122.1
113(8) 0.01644 119.0 122.2
131(8) 0.01452 119.0 122.3
117(8) 0.01602 118.9 122.5
123(8) 0.01524 118.9 122.6
125(8) 0.01487 118.9 122.8
128(8) 0.01452 118.9 122.9
125(8) 0.01487 118.9 123.1
120(8) 0.01563 118.9 123.3
116(8) 0.01602 118.8 123.5
135(9) 0.01384 118.8 123.8
129(8) 0.01452 118.8 124.0
123(8) 0.01524 118.8 124.3
139(9) 0.01352 118.8 124.6
122(8) 0.01524 118.8 124.9
127(8) 0.01487 118.7 125.3
126(8) 0.01487 118.7 125.7
146(9) 0.01291 118.7 126.2
134(9) 0.01384 118.7 126.7
137(9) 0.01352 118.7 127.3
125(8) 0.01524 118.7 128.0
138(9) 0.01352 118.7 128.8
140(9) 0.01352 118.6 129.9
129(8) 0.01452 118.6 131.2
146(9) 0.01291 118.6 132.8
126(8) 0.01487 118.6 134.9
126(8) 0.01487 118.6 137.6
143(9) 0.01321 118.6 140.3
156(9) 0.01208 118.5 142.5
139(9) 0.01352 118.5 144.4
156(9) 0.01208 118.5 146.9
155(9) 0.01208 118.5 151.0
173(10) 0.01085 118.5 156.6
172(10) 0.01085 118.5 162.5
170(10) 0.01108 118.5 166.1
168(10) 0.01108 118.4 167.7
171(10) 0.01085 118.4 170.2
179(10) 0.01041 118.4 175.8
175(10) 0.01063 118.4 184.5
211(11) 0.00890 118.4 193.4
196(10) 0.00961 118.4 198.0
211(11) 0.00890 118.3 199.6
199(10) 0.00943 118.3 203.5
229(11) 0.00826 118.3 212.9
241(11) 0.00783 118.3 226.1
236(11) 0.00797 118.3 236.3
232(11) 0.00797 118.3 238.7
257(12) 0.00731 118.3 239.7
283(12) 0.00661 118.2 247.6
244(11) 0.00769 118.2 262.9
264(12) 0.00706 118.2 277.8
292(13) 0.00640 118.2 285.0
298(13) 0.00630 118.2 290.6
331(13) 0.00565 118.2 304.3
337(13) 0.00557 118.2 325.8
346(14) 0.00541 118.1 344.6
371(14) 0.00503 118.1 356.5
370(14) 0.00503 118.1 373.0
420(15) 0.00444 118.1 400.1
442(15) 0.00422 118.1 428.6
464(16) 0.00401 118.1 452.6
468(16) 0.00401 118.1 483.3
518(17) 0.00359 118.0 523.5
551(17) 0.003380 118.0 563.8
629(18) 0.002954 118.0 606.3
678(19) 0.002770 118.0 650.7
751(20) 0.002475 118.0 681.7
735(20) 0.002551 118.0 680.6
701(19) 0.002657 118.0 627.0
530(17) 0.003501 117.9 530.3
422(15) 0.00444 117.9 428.9
354(14) 0.00533 117.9 348.1
308(13) 0.00610 117.9 290.4
228(11) 0.00826 117.9 250.4
231(11) 0.00812 117.9 222.4
227(11) 0.00826 117.9 202.3
180(10) 0.01041 117.8 187.5
198(10) 0.00943 117.8 176.3
175(10) 0.01063 117.8 167.7
187(10) 0.01000 117.8 160.8
166(9) 0.01132 117.8 155.3
163(9) 0.01156 117.8 150.8
179(10) 0.01041 117.8 147.1
174(10) 0.01063 117.7 144.0
166(9) 0.01132 117.7 141.3
154(9) 0.01208 117.7 139.1
174(10) 0.01063 117.7 137.1
159(9) 0.01181 117.7 135.4
155(9) 0.01208 117.7 134.0
156(9) 0.01208 117.7 132.7
158(9) 0.01181 117.6 131.5
174(10) 0.01085 117.6 130.5
158(9) 0.01181 117.6 129.6
173(10) 0.01085 117.6 128.8
160(9) 0.01156 117.6 128.1
177(10) 0.01063 117.6 127.4
167(9) 0.01132 117.6 126.8
177(10) 0.01063 117.6 126.3
166(10) 0.01108 117.5 125.8
176(10) 0.01063 117.5 125.3
177(10) 0.01063 117.5 124.9
161(9) 0.01156 117.5 124.5
153(9) 0.01235 117.5 124.2
160(9) 0.01156 117.5 123.9
177(10) 0.01041 117.5 123.6
180(10) 0.01041 117.4 123.3
183(10) 0.01020 117.4 123.1
169(10) 0.01108 117.4 122.9
160(9) 0.01156 117.4 122.7
172(10) 0.01085 117.4 122.6
184(10) 0.01020 117.4 122.4
174(10) 0.01063 117.4 122.3
157(9) 0.01181 117.4 122.2
142(9) 0.01321 117.3 122.1
139(9) 0.01352 117.3 122.1
141(9) 0.01321 117.3 122.1
134(9) 0.01384 117.3 122.1
141(9) 0.01321 117.3 122.0
134(8) 0.01417 117.3 121.9
125(8) 0.01487 117.3 121.9
118(8) 0.01563 117.3 122.0
128(8) 0.01452 117.2 122.2
126(8) 0.01487 117.2 122.2
137(9) 0.01352 117.2 122.2
125(8) 0.01487 117.2 122.1
118(8) 0.01563 117.2 122.3
118(8) 0.01602 117.2 122.6
115(8) 0.01602 117.2 122.8
113(8) 0.01644 117.2 122.8
122(8) 0.01524 117.1 122.8
121(8) 0.01563 117.1 123.0
124(8) 0.01524 117.1 123.4
130(8) 0.01417 117.1 123.8
121(8) 0.01524 117.1 123.9
137(9) 0.01352 117.1 124.0
130(8) 0.01417 117.1 124.4
126(8) 0.01487 117.1 125.0
129(8) 0.01452 117.0 125.4
127(8) 0.01487 117.0 125.7
121(8) 0.01524 117.0 126.2
99(7) 0.01877 117.0 127.0
118(8) 0.01563 117.0 127.8
131(8) 0.01417 117.0 128.4
133(8) 0.01417 117.0 129.4
138(9) 0.01352 117.0 130.6
128(8) 0.01452 116.9 131.7
125(8) 0.01487 116.9 133.0
138(9) 0.01352 116.9 134.1
148(9) 0.01262 116.9 134.6
154(9) 0.01208 116.9 133.7
124(8) 0.01487 116.9 131.3
123(8) 0.01524 116.9 128.2
128(8) 0.01452 116.9 125.5
126(8) 0.01487 116.9 123.6
122(8) 0.01524 116.8 122.2
117(8) 0.01602 116.8 121.2
112(8) 0.01644 116.8 120.5
110(8) 0.01687 116.8 120.0
111(8) 0.01687 116.8 119.6
121(8) 0.01524 116.8 119.3
134(9) 0.01384 116.8 119.1
110(8) 0.01687 116.8 118.9
120(8) 0.01563 116.7 118.7
112(8) 0.01644 116.7 118.6
110(8) 0.01687 116.7 118.5
120(8) 0.01563 116.7 118.3
110(8) 0.01687 116.7 118.2
95(7) 0.01929 116.7 118.2
121(8) 0.01524 116.7 118.1
93(7) 0.01984 116.7 118.0
110(8) 0.01687 116.7 117.9
124(8) 0.01487 116.6 117.9
110(8) 0.01687 116.6 117.8
116(8) 0.01602 116.6 117.8
100(7) 0.01877 116.6 117.7
115(8) 0.01602 116.6 117.7
109(8) 0.01687 116.6 117.6
116(8) 0.01602 116.6 117.6
117(8) 0.01602 116.6 117.6
125(8) 0.01487 116.6 117.5
92(7) 0.02041 116.5 117.5
110(8) 0.01687 116.5 117.4
109(8) 0.01731 116.5 117.4
120(8) 0.01563 116.5 117.4
113(8) 0.01644 116.5 117.3
105(8) 0.01778 116.5 117.3
98(7) 0.01929 116.5 117.3
104(8) 0.01778 116.5 117.3
114(8) 0.01644 116.5 117.2
118(8) 0.01563 116.4 117.2
115(8) 0.01602 116.4 117.2
101(7) 0.01877 116.4 117.1
107(8) 0.01731 116.4 117.1
114(8) 0.01644 116.4 117.1
108(8) 0.01731 116.4 117.1
114(8) 0.01644 116.4 117.1
110(8) 0.01687 116.4 117.0
98(7) 0.01877 116.4 117.0
114(8) 0.01644 116.3 117.0
121(8) 0.01524 116.3 117.0
100(7) 0.01877 116.3 116.9
107(8) 0.01731 116.3 116.9
101(7) 0.01826 116.3 116.9
116(8) 0.01602 116.3 116.9
114(8) 0.01644 116.3 116.9
110(8) 0.01687 116.3 116.8
112(8) 0.01644 116.3 116.8
113(8) 0.01644 116.2 116.8
120(8) 0.01563 116.2 116.8
104(8) 0.01778 116.2 116.8
113(8) 0.01644 116.2 116.7
101(7) 0.01826 116.2 116.7
113(8) 0.01644 116.2 116.7
106(8) 0.01731 116.2 116.7
123(8) 0.01524 116.2 116.7
107(8) 0.01731 116.2 116.7
110(8) 0.01687 116.2 116.6
111(8) 0.01687 116.1 116.6
109(8) 0.01687 116.1 116.6
125(8) 0.01487 116.1 116.6
116(8) 0.01602 116.1 116.6
99(7) 0.01877 116.1 116.6
107(8) 0.01731 116.1 116.5
107(8) 0.01731 116.1 116.5
117(8) 0.01563 116.1 116.5
106(8) 0.01778 116.1 116.5
108(8) 0.01731 116.0 116.5
117(8) 0.01602 116.0 116.5
109(8) 0.01687 116.0 116.4
120(8) 0.01524 116.0 116.4
124(8) 0.01487 116.0 116.4
124(8) 0.01487 116.0 116.4
106(8) 0.01731 116.0 116.4
103(8) 0.01778 116.0 116.4
114(8) 0.01644 116.0 116.4
104(8) 0.01778 116.0 116.3
105(8) 0.01778 115.9 116.3
121(8) 0.01524 115.9 116.3
116(8) 0.01602 115.9 116.3
115(8) 0.01602 115.9 116.3
105(8) 0.01778 115.9 116.3
99(7) 0.01877 115.9 116.3
103(8) 0.01778 115.9 115.9
105(8) 0.01778 115.9 115.9
109(8) 0.01687 115.9 115.9
118(8) 0.01563 115.9 115.9
101(7) 0.01826 115.8 115.9
106(8) 0.01731 115.8 115.9
116(8) 0.01602 115.8 115.9
116(8) 0.01602 115.8 115.9
116(8) 0.01602 115.8 115.8
109(8) 0.01687 115.8 115.8
107(8) 0.01731 115.8 115.8
105(8) 0.01778 115.8 115.8
120(8) 0.01524 115.8 115.8
92(7) 0.01984 115.8 115.8
103(8) 0.01778 115.7 115.8
121(8) 0.01524 115.7 115.8
110(8) 0.01687 115.7 115.8
100(7) 0.01877 115.7 115.8
121(8) 0.01524 115.7 115.8
101(7) 0.01826 115.7 115.8
120(8) 0.01524 115.7 115.7
118(8) 0.01563 115.7 115.7
110(8) 0.01687 115.7 115.7
109(8) 0.01687 115.7 115.7
109(8) 0.01687 115.6 115.7
107(8) 0.01731 115.6 115.7
122(8) 0.01524 115.6 115.7
98(7) 0.01877 115.6 115.7
95(7) 0.01929 115.6 115.7
110(8) 0.01687 115.6 115.7
104(8) 0.01778 115.6 115.7
109(8) 0.01687 115.6 115.6
108(8) 0.01731 115.6 115.6
119(8) 0.01563 115.6 115.6
97(7) 0.01877 115.5 115.6
119(8) 0.01563 115.5 115.6
108(8) 0.01731 115.5 115.6
116(8) 0.01602 115.5 115.6
99(7) 0.01877 115.5 115.6
109(8) 0.01687 115.5 115.6
112(8) 0.01644 115.5 115.6
122(8) 0.01524 115.5 115.6
107(8) 0.01731 115.5 115.5
103(8) 0.01778 115.5 115.5
91(7) 0.02041 115.5 115.5
107(8) 0.01731 115.4 115.5
108(8) 0.01731 115.4 115.5
103(8) 0.01778 115.4 115.5
111(8) 0.01644 115.4 115.5
112(8) 0.01644 115.4 115.5
104(8) 0.01778 115.4 115.5
113(8) 0.01644 115.4 115.5
104(8) 0.01778 115.4 115.5
92(7) 0.01984 115.4 115.5
108(8) 0.01687 115.4 115.4
96(7) 0.01929 115.4 115.4
115(8) 0.01602 115.3 115.4
102(7) 0.01826 115.3 115.4
98(7) 0.01877 115.3 115.4
105(8) 0.01778 115.3 115.4
114(8) 0.01602 115.3 115.4
108(8) 0.01731 115.3 115.4
116(8) 0.01602 115.3 115.4
97(7) 0.01877 115.3 115.4
115(8) 0.01602 115.3 115.4
114(8) 0.01644 115.3 115.4
115(8) 0.01602 115.2 115.4
114(8) 0.01602 115.2 115.4
116(8) 0.01602 115.2 115.4
122(8) 0.01524 115.2 115.3
106(8) 0.01731 115.2 115.3
109(8) 0.01687 115.2 115.3
121(8) 0.01524 115.2 115.3
134(9) 0.01384 115.2 115.3
125(8) 0.01487 115.2 115.3
114(8) 0.01602 115.2 115.3
107(8) 0.01731 115.2 115.3
119(8) 0.01563 115.1 115.3
131(8) 0.01417 115.1 115.3
119(8) 0.01563 115.1 115.3
128(8) 0.01452 115.1 115.3
138(9) 0.01321 115.1 115.3
120(8) 0.01524 115.1 115.3
130(8) 0.01417 115.1 115.3
116(8) 0.01602 115.1 115.3
135(9) 0.01384 115.1 115.3
135(9) 0.01352 115.1 115.3
116(8) 0.01602 115.1 115.3
134(9) 0.01384 115.0 115.3
129(8) 0.01452 115.0 115.3
140(9) 0.01321 115.0 115.3
116(8) 0.01602 115.0 115.3
124(8) 0.01487 115.0 115.3
133(9) 0.01384 115.0 115.3
130(8) 0.01417 115.0 115.3
128(8) 0.01452 115.0 115.3
106(8) 0.01731 115.0 115.3
119(8) 0.01563 115.0 115.4
102(7) 0.01826 115.0 115.4
109(8) 0.01687 114.9 115.4
119(8) 0.01563 114.9 115.5
120(8) 0.01524 114.9 115.6
107(8) 0.01731 114.9 115.6
103(8) 0.01778 114.9 115.7
118(8) 0.01563 114.9 115.8
113(8) 0.01644 114.9 115.9
101(7) 0.01826 114.9 116.0
106(8) 0.01731 114.9 116.2
104(8) 0.01778 114.9 116.4
108(8) 0.01687 114.9 116.6
110(8) 0.01687 114.9 116.7
107(8) 0.01731 114.8 116.7
107(8) 0.01731 114.8 116.9
105(8) 0.01731 114.8 117.3
110(8) 0.01687 114.8 117.6
93(7) 0.01984 114.8 117.7
115(8) 0.01602 114.8 117.8
114(8) 0.01602 114.8 118.0
88(7) 0.02100 114.8 118.4
104(8) 0.01778 114.8 118.9
102(8) 0.01778 114.8 119.1
101(7) 0.01826 114.8 119.2
120(8) 0.01524 114.7 119.6
116(8) 0.01602 114.7 120.2
103(8) 0.01778 114.7 120.7
119(8) 0.01524 114.7 121.0
113(8) 0.01644 114.7 121.4
99(7) 0.01877 114.7 122.1
105(8) 0.01731 114.7 122.9
102(7) 0.01826 114.7 123.5
118(8) 0.01563 114.7 124.1
113(8) 0.01602 114.7 125.1
104(8) 0.01778 114.7 126.2
101(7) 0.01826 114.6 127.2
120(8) 0.01524 114.6 128.5
112(8) 0.01644 114.6 130.2
104(8) 0.01778 114.6 131.8
127(8) 0.01452 114.6 133.5
128(8) 0.01452 114.6 134.9
119(8) 0.01524 114.6 135.2
111(8) 0.01644 114.6 133.5
128(8) 0.01417 114.6 129.9
108(8) 0.01687 114.6 126.0
117(8) 0.01563 114.6 123.0
108(8) 0.01687 114.6 120.9
108(8) 0.01731 114.5 119.5
97(7) 0.01877 114.5 118.5
104(8) 0.01778 114.5 117.9
98(7) 0.01877 114.5 117.5
99(7) 0.01826 114.5 117.2
94(7) 0.01929 114.5 117.0
117(8) 0.01563 114.5 116.9
117(8) 0.01563 114.5 116.9
101(7) 0.01826 114.5 116.8
98(7) 0.01877 114.5 116.8
114(8) 0.01602 114.5 116.9
82(7) 0.02228 114.4 117.1
112(8) 0.01644 114.4 117.4
97(7) 0.01877 114.4 117.5
105(8) 0.01731 114.4 117.5
105(8) 0.01731 114.4 117.6
113(8) 0.01644 114.4 117.9
104(8) 0.01778 114.4 118.4
92(7) 0.01984 114.4 118.8
104(8) 0.01778 114.4 118.9
108(8) 0.01687 114.4 118.9
115(8) 0.01602 114.4 119.2
115(8) 0.01602 114.4 119.8
117(8) 0.01563 114.3 120.5
109(8) 0.01687 114.3 120.9
111(8) 0.01644 114.3 121.0
125(8) 0.01487 114.3 121.4
102(8) 0.01778 114.3 122.2
104(8) 0.01778 114.3 123.2
112(8) 0.01644 114.3 123.8
110(8) 0.01687 114.3 124.2
108(8) 0.01687 114.3 125.0
113(8) 0.01644 114.3 126.4
114(8) 0.01602 114.3 127.5
119(8) 0.01524 114.2 128.4
104(8) 0.01778 114.2 129.8
115(8) 0.01602 114.2 131.7
129(8) 0.01417 114.2 133.5
136(9) 0.01352 114.2 135.5
138(9) 0.01352 114.2 137.8
135(9) 0.01352 114.2 139.7
137(9) 0.01352 114.2 140.6
137(9) 0.01352 114.2 139.1
136(9) 0.01352 114.2 134.9
117(8) 0.01563 114.2 129.8
119(8) 0.01524 114.2 125.5
113(8) 0.01602 114.1 122.5
99(7) 0.01877 114.1 120.4
103(8) 0.01778 114.1 119.0
123(8) 0.01487 114.1 118.0
106(8) 0.01731 114.1 117.3
99(7) 0.01877 114.1 116.8
97(7) 0.01877 114.1 116.4
100(7) 0.01826 114.1 116.1
110(8) 0.01687 114.1 115.8
108(8) 0.01687 114.1 115.6
98(7) 0.01877 114.1 115.4
103(8) 0.01778 114.0 115.3
113(8) 0.01644 114.0 115.1
91(7) 0.01984 114.0 115.0
114(8) 0.01602 114.0 114.9
103(8) 0.01778 114.0 114.9
103(8) 0.01778 114.0 114.8
93(7) 0.01984 114.0 114.7
97(7) 0.01877 114.0 114.7
107(8) 0.01731 114.0 114.6
100(7) 0.01826 114.0 114.6
90(7) 0.02041 114.0 114.5
85(7) 0.02163 114.0 114.5
101(7) 0.01826 113.9 114.5
101(7) 0.01826 113.9 114.4
92(7) 0.01984 113.9 114.4
96(7) 0.01929 113.9 114.4
89(7) 0.02041 113.9 114.4
94(7) 0.01929 113.9 114.3
99(7) 0.01826 113.9 114.3
91(7) 0.01984 113.9 114.3
114(8) 0.01602 113.9 114.3
108(8) 0.01687 113.9 114.3
86(7) 0.02163 113.9 114.3
87(7) 0.02100 113.8 114.3
95(7) 0.01929 113.8 114.3
107(8) 0.01731 113.8 114.3
93(7) 0.01984 113.8 114.3
93(7) 0.01984 113.8 114.3
98(7) 0.01877 113.8 114.4
89(7) 0.02041 113.8 114.4
119(8) 0.01524 113.8 114.4
104(8) 0.01778 113.8 114.4
84(7) 0.02163 113.8 114.4
93(7) 0.01984 113.8 114.5
102(8) 0.01778 113.8 114.6
94(7) 0.01929 113.7 114.6
99(7) 0.01826 113.7 114.6
95(7) 0.01929 113.7 114.7
90(7) 0.02041 113.7 114.7
104(8) 0.01731 113.7 114.8
109(8) 0.01687 113.7 114.9
100(7) 0.01826 113.7 115.0
108(8) 0.01687 113.7 115.0
112(8) 0.01602 113.7 115.1
90(7) 0.02041 113.7 115.3
108(8) 0.01687 113.7 115.4
109(8) 0.01687 113.6 115.5
94(7) 0.01929 113.6 115.6
106(8) 0.01731 113.6 115.8
100(7) 0.01826 113.6 116.0
102(8) 0.01778 113.6 116.2
116(8) 0.01563 113.6 116.4
99(7) 0.01826 113.6 116.7
106(8) 0.01731 113.6 117.0
97(7) 0.01877 113.6 117.4
99(7) 0.01877 113.6 117.8
101(7) 0.01826 113.6 118.1
100(7) 0.01826 113.6 118.3
99(7) 0.01826 113.5 118.1
107(8) 0.01687 113.5 117.4
106(8) 0.01731 113.5 116.4
102(8) 0.01778 113.5 115.6
96(7) 0.01877 113.5 115.1
103(8) 0.01778 113.5 114.7
112(8) 0.01644 113.5 114.4
86(7) 0.02100 113.5 114.2
105(8) 0.01731 113.5 114.1
90(7) 0.02041 113.5 114.0
109(8) 0.01687 113.5 113.9
98(7) 0.01877 113.4 113.8
95(7) 0.01929 113.4 113.8
95(7) 0.01929 113.4 113.7
96(7) 0.01929 113.4 113.7
95(7) 0.01929 113.4 113.7
99(7) 0.01826 113.4 113.6
94(7) 0.01929 113.4 113.6
91(7) 0.02041 113.4 113.6
101(7) 0.01826 113.4 113.6
105(8) 0.01731 113.4 113.6
101(7) 0.01826 113.4 113.5
103(8) 0.01778 113.3 113.5
97(7) 0.01877 113.3 113.5
94(7) 0.01929 113.3 113.5
88(7) 0.02100 113.3 113.5
102(8) 0.01778 113.3 113.5
97(7) 0.01877 113.3 113.5
105(8) 0.01731 113.3 113.4
96(7) 0.01929 113.3 113.4
90(7) 0.02041 113.3 113.4
96(7) 0.01929 113.3 113.4
99(7) 0.01826 113.3 113.4
93(7) 0.01984 113.2 113.4
85(7) 0.02100 113.2 113.4
87(7) 0.02100 113.2 113.4
94(7) 0.01929 113.2 113.4
92(7) 0.01984 113.2 113.4
96(7) 0.01877 113.2 113.4
113(8) 0.01602 113.2 113.4
99(7) 0.01826 113.2 113.4
89(7) 0.02041 113.2 113.4
102(8) 0.01778 113.2 113.4
101(8) 0.01778 113.2 113.4
93(7) 0.01929 113.1 113.5
103(8) 0.01778 113.1 113.5
104(8) 0.01731 113.1 113.5
93(7) 0.01929 113.1 113.6
106(8) 0.01687 113.1 113.6
104(8) 0.01731 113.1 113.7
105(8) 0.01731 113.1 113.7
101(7) 0.01826 113.1 113.8
89(7) 0.02041 113.1 113.9
110(8) 0.01644 113.1 113.9
99(7) 0.01826 113.1 113.9
99(7) 0.01826 113.0 114.0
95(7) 0.01929 113.0 114.2
94(7) 0.01929 113.0 114.3
93(7) 0.01984 113.0 114.3
108(8) 0.01687 113.0 114.4
93(7) 0.01929 113.0 114.6
95(7) 0.01929 113.0 114.7
99(7) 0.01826 113.0 114.7
100(7) 0.01826 113.0 114.9
99(7) 0.01826 113.0 115.2
101(8) 0.01778 113.0 115.3
97(7) 0.01877 112.9 115.4
106(8) 0.01731 112.9 115.8
106(8) 0.01731 112.9 116.0
108(8) 0.01687 112.9 116.2
104(8) 0.01778 112.9 116.6
113(8) 0.01644 112.9 117.0
105(8) 0.01731 112.9 117.4
104(8) 0.01731 112.9 118.0
121(8) 0.01487 112.9 118.7
106(8) 0.01731 112.9 119.4
119(8) 0.01563 112.8 120.3
114(8) 0.01602 112.8 121.0
106(8) 0.01731 112.8 121.1
103(8) 0.01778 112.8 119.8
108(8) 0.01687 112.8 117.8
110(8) 0.01687 112.8 116.1
95(7) 0.01929 112.8 115.0
106(8) 0.01731 112.8 114.4
97(7) 0.01877 112.8 114.0
103(8) 0.01778 112.8 113.7
106(8) 0.01731 112.8 113.5
107(8) 0.01731 112.7 113.4
111(8) 0.01644 112.7 113.2
106(8) 0.01731 112.7 113.2
93(7) 0.01984 112.7 113.1
83(7) 0.02228 112.7 113.0
101(7) 0.01826 112.7 113.0
104(8) 0.01778 112.7 112.9
105(8) 0.01731 112.7 112.9
89(7) 0.02041 112.7 112.9
109(8) 0.01687 112.7 112.8
97(7) 0.01877 112.6 112.8
107(8) 0.01731 112.6 112.8
100(7) 0.01826 112.6 112.8
91(7) 0.01984 112.6 112.8
102(7) 0.01826 112.6 112.7
92(7) 0.01984 112.6 112.7
89(7) 0.02041 112.6 112.7
104(8) 0.01778 112.6 112.7
92(7) 0.01984 112.6 112.7
94(7) 0.01929 112.6 112.6
90(7) 0.02041 112.5 112.6
107(8) 0.01687 112.5 112.6
105(8) 0.01778 112.5 112.6
117(8) 0.01563 112.5 112.6
95(7) 0.01929 112.5 112.6
103(8) 0.01778 112.5 112.6
104(8) 0.01778 112.5 112.6
101(7) 0.01826 112.5 112.6
99(7) 0.01877 112.5 112.5
85(7) 0.02163 112.5 112.5
103(8) 0.01778 112.4 112.5
103(8) 0.01778 112.4 112.5
98(7) 0.01877 112.4 112.5
99(7) 0.01826 112.4 112.5
104(8) 0.01778 112.4 112.5
98(7) 0.01877 112.4 112.5
105(8) 0.01731 112.4 112.4
99(7) 0.01826 112.4 112.4
113(8) 0.01644 112.4 112.4
103(8) 0.01778 112.4 112.4
91(7) 0.02041 112.3 112.4
109(8) 0.01687 112.3 112.4
114(8) 0.01644 112.3 112.4
87(7) 0.02100 112.3 112.4
109(8) 0.01687 112.3 112.4
95(7) 0.01929 112.3 112.3
102(7) 0.01826 112.3 112.3
97(7) 0.01877 112.3 112.3
93(7) 0.01984 112.3 112.3
102(7) 0.01826 112.3 112.3
100(7) 0.01826 112.2 112.3
99(7) 0.01826 112.2 112.3
105(8) 0.01731 112.2 112.3
100(7) 0.01826 112.2 112.3
107(8) 0.01731 112.2 112.3
109(8) 0.01687 112.2 112.2
90(7) 0.02041 112.2 112.2
92(7) 0.01984 112.2 112.2
109(8) 0.01687 112.2 112.2
97(7) 0.01877 112.2 112.2
108(8) 0.01687 112.1 112.2
119(8) 0.01524 112.1 112.2
90(7) 0.02041 112.1 112.2
96(7) 0.01877 112.1 112.2
99(7) 0.01826 112.1 112.2
92(7) 0.01984 112.1 112.1
104(8) 0.01778 112.1 112.1
100(7) 0.01826 112.1 112.1
104(8) 0.01778 112.1 112.1
94(7) 0.01929 112.0 112.1
107(8) 0.01731 112.0 112.1
83(7) 0.02228 112.0 112.1
93(7) 0.01984 112.0 112.1
101(7) 0.01826 112.0 112.1
96(7) 0.01877 112.0 112.1
96(7) 0.01929 112.0 112.1
105(8) 0.01731 112.0 112.0
83(7) 0.02228 112.0 112.0
105(8) 0.01731 112.0 112.0
103(8) 0.01778 111.9 112.0
97(7) 0.01877 111.9 112.0
91(7) 0.02041 111.9 112.0
100(7) 0.01826 111.9 112.0
112(8) 0.01602 111.9 112.0
94(7) 0.01929 111.9 112.0
104(8) 0.01731 111.9 112.0
102(8) 0.01778 111.9 112.0
111(8) 0.01644 111.9 112.0
105(8) 0.01731 111.8 112.0
93(7) 0.01984 111.8 112.0
94(7) 0.01929 111.8 112.0
112(8) 0.01602 111.8 112.0
101(8) 0.01778 111.8 112.0
100(7) 0.01826 111.8 112.0
109(8) 0.01687 111.8 112.0
90(7) 0.02041 111.8 112.0
123(8) 0.01487 111.8 112.0
114(8) 0.01602 111.7 112.0
112(8) 0.01644 111.7 112.0
98(7) 0.01877 111.7 112.0
97(7) 0.01877 111.7 112.0
96(7) 0.01877 111.7 112.1
120(8) 0.01524 111.7 112.1
104(8) 0.01778 111.7 112.1
108(8) 0.01687 111.7 112.1
97(7) 0.01877 111.7 112.1
103(8) 0.01778 111.6 112.2
94(7) 0.01984 111.6 112.2
98(7) 0.01877 111.6 112.3
95(7) 0.01929 111.6 112.3
80(7) 0.02296 111.6 112.4
97(7) 0.01877 111.6 112.4
110(8) 0.01687 111.6 112.5
114(8) 0.01602 111.6 112.6
96(7) 0.01877 111.6 112.7
116(8) 0.01563 111.5 112.9
100(7) 0.01826 111.5 113.0
102(8) 0.01778 111.5 113.1
115(8) 0.01602 111.5 113.3
93(7) 0.01984 111.5 113.5
101(7) 0.01826 111.5 113.8
98(7) 0.01877 111.5 114.2
110(8) 0.01644 111.5 114.4
102(8) 0.01778 111.5 114.5
98(7) 0.01877 111.4 114.5
108(8) 0.01687 111.4 114.3
98(7) 0.01877 111.4 114.3
99(7) 0.01877 111.4 114.2
110(8) 0.01644 111.4 114.1
104(8) 0.01731 111.4 114.1
113(8) 0.01602 111.4 114.3
113(8) 0.01602 111.4 114.6
120(8) 0.01524 111.3 114.9
88(7) 0.02041 111.3 114.9
113(8) 0.01602 111.3 115.1
104(8) 0.01778 111.3 115.6
100(7) 0.01826 111.3 116.1
107(8) 0.01687 111.3 116.4
95(7) 0.01877 111.3 116.7
101(8) 0.01778 111.3 117.3
99(7) 0.01877 111.3 118.0
112(8) 0.01644 111.2 118.6
105(8) 0.01731 111.2 119.3
97(7) 0.01877 111.2 120.3
124(8) 0.01487 111.2 121.3
108(8) 0.01687 111.2 122.4
114(8) 0.01602 111.2 123.6
119(8) 0.01524 111.2 124.6
120(8) 0.01524 111.2 124.7
106(8) 0.01731 111.1 123.4
110(8) 0.01644 111.1 120.8
109(8) 0.01687 111.1 118.1
101(7) 0.01826 111.1 116.1
100(7) 0.01826 111.1 114.8
109(8) 0.01687 111.1 113.9
109(8) 0.01687 111.1 113.3
99(7) 0.01826 111.1 112.8
96(7) 0.01929 111.1 112.5
93(7) 0.01984 111.0 112.2
107(8) 0.01687 111.0 112.1
99(7) 0.01826 111.0 111.9
101(8) 0.01778 111.0 111.8
101(7) 0.01826 111.0 111.7
102(8) 0.01778 111.0 111.6
100(7) 0.01826 111.0 111.5
110(8) 0.01644 111.0 111.5
96(7) 0.01877 110.9 111.4
109(8) 0.01687 110.9 111.4
100(7) 0.01826 110.9 111.3
92(7) 0.01984 110.9 111.3
107(8) 0.01731 110.9 111.2
95(7) 0.01877 110.9 111.2
119(8) 0.01524 110.9 111.2
88(7) 0.02100 110.9 111.1
100(7) 0.01826 110.8 111.1
108(8) 0.01687 110.8 111.1
110(8) 0.01644 110.8 111.1
97(7) 0.01877 110.8 111.0
100(7) 0.01826 110.8 111.0
100(7) 0.01826 110.8 111.0
106(8) 0.01731 110.8 111.0
110(8) 0.01644 110.8 110.9
92(7) 0.01984 110.7 110.9
106(8) 0.01731 110.7 110.9
87(7) 0.02100 110.7 110.9
101(8) 0.01778 110.7 110.9
109(8) 0.01687 110.7 110.9
112(8) 0.01644 110.7 110.8
111(8) 0.01644 110.7 110.8
102(8) 0.01778 110.7 110.8
89(7) 0.02041 110.6 110.8
114(8) 0.01602 110.6 110.8
104(8) 0.01731 110.6 110.8
114(8) 0.01602 110.6 110.7
94(7) 0.01929 110.6 110.7
102(8) 0.01778 110.6 110.7
113(8) 0.01602 110.6 110.7
96(7) 0.01877 110.6 110.7
108(8) 0.01687 110.5 110.7
113(8) 0.01602 110.5 110.7
105(8) 0.01731 110.5 110.6
117(8) 0.01563 110.5 110.6
107(8) 0.01687 110.5 110.6
109(8) 0.01644 110.5 110.6
114(8) 0.01602 110.5 110.6
108(8) 0.01687 110.4 110.6
96(7) 0.01877 110.4 110.6
96(7) 0.01877 110.4 110.6
105(8) 0.01731 110.4 110.5
110(8) 0.01644 110.4 110.5
102(8) 0.01778 110.4 110.5
103(8) 0.01778 110.4 110.5
103(8) 0.01778 110.4 110.5
118(8) 0.01524 110.3 110.5
98(7) 0.01877 110.3 110.5
126(8) 0.01417 110.3 110.5
98(7) 0.01826 110.3 110.5
108(8) 0.01687 110.3 110.4
95(7) 0.01877 110.3 110.4
93(7) 0.01929 110.3 110.4
120(8) 0.01487 110.2 110.4
106(8) 0.01731 110.2 110.4
118(8) 0.01524 110.2 110.4
109(8) 0.01687 110.2 110.4
116(8) 0.01563 110.2 110.4
128(8) 0.01417 110.2 110.4
98(7) 0.01826 110.2 110.4
117(8) 0.01563 110.2 110.3
99(7) 0.01826 110.1 110.3
109(8) 0.01687 110.1 110.3
112(8) 0.01602 110.1 110.3
118(8) 0.01524 110.1 110.3
111(8) 0.01644 110.1 110.3
115(8) 0.01563 110.1 110.3
126(8) 0.01452 110.1 110.3
132(9) 0.01384 110.0 110.3
121(8) 0.01487 110.0 110.3
113(8) 0.01602 110.0 110.3
130(9) 0.01384 110.0 110.3
139(9) 0.01321 110.0 110.3
124(8) 0.01452 110.0 110.3
136(9) 0.01321 110.0 110.3
149(9) 0.01208 109.9 110.3
124(8) 0.01452 109.9 110.3
124(8) 0.01452 109.9 110.3
133(9) 0.01352 109.9 110.3
133(9) 0.01352 109.9 110.3
134(9) 0.01352 109.9 110.4
115(8) 0.01563 109.9 110.4
131(9) 0.01384 109.8 110.4
141(9) 0.01262 109.8 110.5
126(8) 0.01417 109.8 110.5
136(9) 0.01321 109.8 110.6
126(8) 0.01452 109.8 110.7
146(9) 0.01235 109.8 110.8
118(8) 0.01524 109.8 111.0
106(8) 0.01687 109.7 111.2
120(8) 0.01524 109.7 111.4
119(8) 0.01524 109.7 111.5
111(8) 0.01644 109.7 111.7
119(8) 0.01524 109.7 111.9
107(8) 0.01687 109.7 112.4
122(8) 0.01487 109.7 112.9
127(8) 0.01417 109.6 113.3
121(8) 0.01487 109.6 113.5
134(9) 0.01352 109.6 113.6
114(8) 0.01563 109.6 114.0
121(8) 0.01487 109.6 114.8
104(8) 0.01731 109.6 115.6
121(8) 0.01487 109.6 116.0
123(8) 0.01452 109.5 116.2
117(8) 0.01563 109.5 116.6
116(8) 0.01563 109.5 117.7
111(8) 0.01602 109.5 118.9
121(8) 0.01487 109.5 119.6
123(8) 0.01487 109.5 119.9
122(8) 0.01487 109.5 120.8
115(8) 0.01563 109.4 122.4
128(8) 0.01417 109.4 124.0
140(9) 0.01291 109.4 125.0
130(9) 0.01384 109.4 126.3
133(9) 0.01352 109.4 128.5
131(9) 0.01384 109.4 130.9
132(9) 0.01352 109.4 133.0
131(9) 0.01384 109.3 135.8
142(9) 0.01262 109.3 138.9
133(9) 0.01352 109.3 141.5
135(9) 0.01352 109.3 142.9
160(9) 0.01132 109.3 141.1
126(8) 0.01452 109.3 135.5
127(8) 0.01417 109.2 128.8
143(9) 0.01262 109.2 123.3
125(8) 0.01452 109.2 119.4
123(8) 0.01487 109.2 116.8
125(8) 0.01452 109.2 115.1
112(8) 0.01602 109.2 113.8
123(8) 0.01487 109.2 113.0
116(8) 0.01563 109.1 112.3
116(8) 0.01563 109.1 111.8
125(8) 0.01452 109.1 111.4
111(8) 0.01644 109.1 111.1
115(8) 0.01563 109.1 110.8
121(8) 0.01487 109.1 110.6
124(8) 0.01452 109.0 110.4
116(8) 0.01563 109.0 110.2
122(8) 0.01487 109.0 110.1
115(8) 0.01563 109.0 110.0
132(9) 0.01352 109.0 109.9
125(8) 0.01452 109.0 109.8
99(7) 0.01826 109.0 109.7
110(8) 0.01644 108.9 109.6
113(8) 0.01602 108.9 109.6
131(9) 0.01384 108.9 109.5
111(8) 0.01644 108.9 109.4
124(8) 0.01487 108.9 109.4
115(8) 0.01563 108.9 109.3
115(8) 0.01563 108.8 109.3
115(8) 0.01602 108.8 109.3
115(8) 0.01563 108.8 109.2
112(8) 0.01602 108.8 109.2
100(8) 0.01778 108.8 109.1
116(8) 0.01563 108.8 109.1
103(8) 0.01778 108.8 109.1
123(8) 0.01487 108.7 109.0
110(8) 0.01644 108.7 109.0
114(8) 0.01563 108.7 109.0
98(7) 0.01877 108.7 109.0
119(8) 0.01524 108.7 108.9
115(8) 0.01563 108.7 108.9
101(8) 0.01778 108.6 108.9
108(8) 0.01644 108.6 108.9
91(7) 0.01984 108.6 108.8
105(8) 0.01731 108.6 108.8
111(8) 0.01602 108.6 108.8
107(8) 0.01687 108.6 108.8
104(8) 0.01731 108.5 108.7
118(8) 0.01524 108.5 108.7
115(8) 0.01563 108.5 108.7
117(8) 0.01524 108.5 108.7
101(8) 0.01778 108.5 108.6
130(9) 0.01384 108.5 108.6
117(8) 0.01563 108.4 108.6
108(8) 0.01687 108.4 108.6
111(8) 0.01602 108.4 108.6
118(8) 0.01524 108.4 108.5
110(8) 0.01644 108.4 108.5
110(8) 0.01644 108.4 108.5
105(8) 0.01731 108.3 108.5
133(9) 0.01352 108.3 108.5
115(8) 0.01563 108.3 108.4
120(8) 0.01487 108.3 108.4
118(8) 0.01524 108.3 108.4
105(8) 0.01731 108.3 108.4
114(8) 0.01602 108.2 108.4
104(8) 0.01731 108.2 108.3
117(8) 0.01524 108.2 108.3
107(8) 0.01687 108.2 108.3
110(8) 0.01644 108.2 108.3
125(8) 0.01452 108.2 108.3
125(8) 0.01452 108.1 108.2
109(8) 0.01644 108.1 108.2
109(8) 0.01644 108.1 108.2
125(8) 0.01417 108.1 108.2
122(8) 0.01452 108.1 108.2
118(8) 0.01524 108.1 108.2
111(8) 0.01644 108.0 108.1
123(8) 0.01487 108.0 108.1
107(8) 0.01687 108.0 108.1
117(8) 0.01524 108.0 108.1
121(8) 0.01487 108.0 108.1
121(8) 0.01487 108.0 108.0
124(8) 0.01452 107.9 108.0
120(8) 0.01487 107.9 108.0
118(8) 0.01524 107.9 108.0
112(8) 0.01602 107.9 108.0
128(8) 0.01417 107.9 108.0
140(9) 0.01291 107.9 107.9
121(8) 0.01487 107.8 107.9
118(8) 0.01524 107.8 107.9
127(8) 0.01417 107.8 107.9
108(8) 0.01687 107.8 107.9
106(8) 0.01687 107.8 107.9
110(8) 0.01644 107.8 107.8
123(8) 0.01452 107.7 107.8
119(8) 0.01524 107.7 107.8
115(8) 0.01563 107.7 107.8
105(8) 0.01687 107.7 107.8
122(8) 0.01487 107.7 107.7
119(8) 0.01524 107.6 107.7
117(8) 0.01524 107.6 107.7
113(8) 0.01602 107.6 107.7
123(8) 0.01452 107.6 107.7
109(8) 0.01644 107.6 107.7
117(8) 0.01524 107.6 107.6
125(8) 0.01417 107.5 107.6
120(8) 0.01487 107.5 107.6
120(8) 0.01487 107.5 107.6
122(8) 0.01487 107.5 107.6
125(8) 0.01452 107.5 107.6
117(8) 0.01563 107.5 107.6
121(8) 0.01487 107.4 107.5
121(8) 0.01487 107.4 107.5
119(8) 0.01524 107.4 107.5
115(8) 0.01563 107.4 107.5
117(8) 0.01524 107.4 107.5
139(9) 0.01291 107.3 107.5
124(8) 0.01417 107.3 107.5
126(8) 0.01417 107.3 107.4
139(9) 0.01291 107.3 107.4
124(8) 0.01452 107.3 107.4
141(9) 0.01262 107.3 107.4
125(8) 0.01452 107.2 107.4
133(9) 0.01352 107.2 107.4
125(8) 0.01417 107.2 107.4
134(9) 0.01321 107.2 107.4
119(8) 0.01487 107.2 107.4
135(9) 0.01321 107.1 107.4
129(9) 0.01384 107.1 107.4
131(9) 0.01352 107.1 107.4
127(8) 0.01417 107.1 107.4
141(9) 0.01262 107.1 107.5
136(9) 0.01321 107.1 107.6
133(9) 0.01352 107.0 107.6
140(9) 0.01291 107.0 107.6
142(9) 0.01262 107.0 107.7
129(8) 0.01417 107.0 107.8
125(8) 0.01452 107.0 108.0
135(9) 0.01352 106.9 108.1
139(9) 0.01291 106.9 108.1
121(8) 0.01487 106.9 108.2
131(9) 0.01384 106.9 108.3
151(9) 0.01181 106.9 108.6
147(9) 0.01208 106.8 108.8
147(9) 0.01208 106.8 108.9
143(9) 0.01262 106.8 109.0
140(9) 0.01291 106.8 109.2
150(9) 0.01208 106.8 109.6
156(9) 0.01156 106.8 109.9
132(9) 0.01352 106.7 110.0
153(9) 0.01181 106.7 110.2
141(9) 0.01262 106.7 110.6
152(9) 0.01181 106.7 111.2
142(9) 0.01235 106.7 111.6
156(9) 0.01156 106.6 111.9
158(9) 0.01132 106.6 112.6
152(9) 0.01181 106.6 113.4
154(9) 0.01181 106.6 114.1
146(9) 0.01208 106.6 115.0
176(10) 0.01020 106.5 116.0
160(10) 0.01108 106.5 116.9
172(10) 0.01041 106.5 117.3
169(10) 0.01063 106.5 116.5
174(10) 0.01020 106.5 114.6
192(10) 0.00925 106.4 112.3
173(10) 0.01020 106.4 110.6
173(10) 0.01041 106.4 109.4
186(10) 0.00961 106.4 108.6
175(10) 0.01020 106.4 108.1
183(10) 0.00980 106.3 107.7
182(10) 0.00980 106.3 107.5
179(10) 0.01000 106.3 107.3
165(10) 0.01085 106.3 107.1
176(10) 0.01020 106.3 107.0
164(10) 0.01085 106.3 106.9
168(10) 0.01063 106.2 106.8
162(10) 0.01108 106.2 106.7
163(10) 0.01108 106.2 106.6
161(10) 0.01108 106.2 106.6
159(10) 0.01108 106.2 106.5
157(9) 0.01132 106.1 106.5
149(9) 0.01208 106.1 110.7
156(9) 0.01156 106.1 110.7
144(9) 0.01235 106.1 110.7
150(9) 0.01181 106.1 110.8
140(9) 0.01262 106.0 110.8
155(9) 0.01156 106.0 110.8
153(9) 0.01156 106.0 110.9
146(9) 0.01235 106.0 110.9
138(9) 0.01291 106.0 111.0
129(9) 0.01384 105.9 111.1
144(9) 0.01235 105.9 111.1
133(9) 0.01352 105.9 111.2
152(9) 0.01181 105.9 111.3
148(9) 0.01208 105.9 111.3
153(9) 0.01181 105.8 111.4
154(9) 0.01156 105.8 111.5
144(9) 0.01235 105.8 111.6
120(8) 0.01487 105.8 111.7
132(9) 0.01352 105.8 111.8
141(9) 0.01262 105.7 111.8
147(9) 0.01208 105.7 111.9
148(9) 0.01208 105.7 112.0
147(9) 0.01208 105.7 112.1
145(9) 0.01235 105.7 112.3
141(9) 0.01262 105.6 112.4
153(9) 0.01156 105.6 112.5
139(9) 0.01291 105.6 112.6
135(9) 0.01321 105.6 112.7
143(9) 0.01235 105.6 112.9
146(9) 0.01208 105.5 113.0
134(9) 0.01352 105.5 113.2
145(9) 0.01235 105.5 113.3
138(9) 0.01291 105.5 113.5
137(9) 0.01291 105.4 113.6
154(9) 0.01156 105.4 113.8
161(10) 0.01108 105.4 114.0
151(9) 0.01181 105.4 114.2
142(9) 0.01262 105.4 114.3
135(9) 0.01321 105.3 114.5
155(9) 0.01132 105.3 114.7
141(9) 0.01262 105.3 115.0
146(9) 0.01235 105.3 115.2
146(9) 0.01235 105.3 115.4
141(9) 0.01262 105.2 115.7
147(9) 0.01208 105.2 115.9
146(9) 0.01208 105.2 116.2
128(9) 0.01384 105.2 116.5
148(9) 0.01208 105.2 116.8
140(9) 0.01291 105.1 117.1
154(9) 0.01156 105.1 117.4
148(9) 0.01208 105.1 117.7
146(9) 0.01208 105.1 118.1
149(9) 0.01181 105.1 118.4
138(9) 0.01291 105.0 118.8
139(9) 0.01262 105.0 119.2
169(10) 0.01041 105.0 119.7
161(10) 0.01108 105.0 120.1
138(9) 0.01291 104.9 120.6
147(9) 0.01208 104.9 121.1
134(9) 0.01321 104.9 121.6
160(10) 0.01108 104.9 122.2
153(9) 0.01156 104.9 122.7
144(9) 0.01235 104.8 123.4
147(9) 0.01208 104.8 124.0
159(9) 0.01132 104.8 124.7
150(9) 0.01181 104.8 125.4
172(10) 0.01041 104.8 126.2
148(9) 0.01208 104.7 127.0
147(9) 0.01208 104.7 127.9
136(9) 0.01321 104.7 128.9
164(10) 0.01085 104.7 129.9
154(9) 0.01156 104.6 131.0
164(10) 0.01085 104.6 132.1
161(10) 0.01108 104.6 133.3
160(10) 0.01108 104.6 134.7
156(9) 0.01132 104.6 136.1
175(10) 0.01020 104.5 137.7
185(10) 0.00961 104.5 139.4
143(9) 0.01262 104.5 141.3
175(10) 0.01041 104.5 143.4
186(10) 0.00961 104.5 145.7
170(10) 0.01041 104.4 148.2
181(10) 0.00980 104.4 150.9
173(10) 0.01041 104.4 153.9
207(11) 0.00857 104.4 157.2
192(10) 0.00925 104.3 161.0
179(10) 0.01000 104.3 165.4
187(10) 0.00943 104.3 170.2
213(11) 0.00826 104.3 175.3
210(11) 0.00842 104.3 181.2
224(11) 0.00797 104.2 188.3
224(11) 0.00797 104.2 196.9
223(11) 0.00797 104.2 207.2
243(12) 0.00731 104.2 219.2
270(12) 0.00661 104.1 234.4
293(13) 0.00601 104.1 254.9
320(13) 0.00557 104.1 282.3
339(14) 0.00525 104.1 316.2
401(15) 0.00444 104.1 351.0
415(15) 0.00422 104.0 379.7
455(16) 0.00391 104.0 409.5
482(16) 0.00372 104.0 456.6
558(18) 0.003156 104.0 524.5
585(18) 0.003019 103.9 602.1
653(19) 0.002713 103.9 657.0
679(20) 0.002630 103.9 687.8
748(21) 0.002356 103.9 738.3
824(22) 0.002143 103.9 835.5
891(22) 0.001993 103.8 958.5
933(23) 0.001907 103.8 1044.7
1049(24) 0.001694 103.8 1083.9
1143(25) 0.001550 103.8 1150.0
1253(27) 0.001413 103.7 1287.0
1366(28) 0.001303 103.7 1449.6
1543(30) 0.001149 103.7 1551.7
1566(30) 0.001141 103.7 1632.6
1723(31) 0.001027 103.6 1799.0
1880(33) 0.000947 103.6 2038.7
2039(34) 0.000875 103.6 2237.1
2235(36) 0.000789 104. 2412.
2462(37) 0.000719 104. 2691.
2791(40) 0.000631 104. 3037.
2954(41) 0.000601 104. 3358.
3462(44) 0.000514 103. 3741.
3852(47) 0.000459 103. 4170.
4344(49) 0.000410 103. 4509.
4723(52) 0.000374 103. 4617.
4505(50) 0.000394 103. 4247.
3411(44) 0.000517 103. 3427.
2300(36) 0.000772 103. 2543.
1691(31) 0.001041 103.3 1857.4
1293(27) 0.001372 103.3 1386.7
1000(24) 0.001780 103.3 1071.0
861(22) 0.002066 103.3 856.0
742(21) 0.002380 103.2 705.1
610(19) 0.002891 103.2 595.7
594(18) 0.002986 103.2 513.9
529(17) 0.003380 103.2 451.2
469(16) 0.00376 103.1 402.0
424(15) 0.00422 103.1 362.8
416(15) 0.00427 103.1 330.9
357(14) 0.00489 103.1 304.7
365(14) 0.00482 103.0 282.9
333(14) 0.00533 103.0 264.5
336(14) 0.00525 103.0 248.9
308(13) 0.00574 103.0 235.5
273(12) 0.00650 103.0 223.9
266(12) 0.00661 102.9 213.8
266(12) 0.00672 102.9 205.0
265(12) 0.00672 102.9 197.2
270(12) 0.00661 102.9 190.4
263(12) 0.00672 102.8 184.2
259(12) 0.00683 102.8 178.8
230(11) 0.00769 102.8 173.9
244(12) 0.00718 102.8 169.4
263(12) 0.00672 102.7 165.4
255(12) 0.00694 102.7 161.8
247(12) 0.00718 102.7 158.5
248(12) 0.00706 102.7 155.5
251(12) 0.00706 102.6 152.8
246(12) 0.00718 102.6 150.2
220(11) 0.00797 102.6 147.9
223(11) 0.00797 102.6 145.8
241(12) 0.00731 102.5 143.8
222(11) 0.00797 102.5 142.0
243(12) 0.00731 102.5 140.3
243(12) 0.00731 102.5 138.7
240(12) 0.00743 102.5 137.3
215(11) 0.00826 102.4 135.9
196(11) 0.00907 102.4 134.7
222(11) 0.00797 102.4 133.5
199(11) 0.00890 102.4 132.4
209(11) 0.00842 102.3 131.4
173(10) 0.01020 102.3 130.4
197(11) 0.00890 102.3 129.5
171(10) 0.01041 102.3 128.7
172(10) 0.01041 102.2 127.9
153(9) 0.01156 102.2 127.2
159(10) 0.01108 102.2 126.5
166(10) 0.01063 102.2 125.8
145(9) 0.01208 102.1 125.2
143(9) 0.01235 102.1 124.7
152(9) 0.01156 102.1 124.1
162(10) 0.01085 102.1 123.6
145(9) 0.01208 102.0 123.2
147(9) 0.01208 102.0 122.7
148(9) 0.01181 102.0 122.3
155(9) 0.01156 102.0 121.9
146(9) 0.01208 101.9 121.6
161(10) 0.01108 101.9 121.2
129(9) 0.01384 101.9 120.9
130(9) 0.01352 101.9 120.6
138(9) 0.01262 101.8 120.4
143(9) 0.01235 101.8 120.1
145(9) 0.01235 101.8 119.9
136(9) 0.01291 101.8 119.7
136(9) 0.01291 101.7 119.6
128(9) 0.01384 101.7 119.4
124(8) 0.01417 101.7 119.3
132(9) 0.01321 101.7 119.1
140(9) 0.01262 101.6 119.0
138(9) 0.01291 101.6 118.9
117(8) 0.01487 101.6 118.9
130(9) 0.01352 101.6 118.8
138(9) 0.01291 101.5 118.8
133(9) 0.01321 101.5 118.8
128(9) 0.01384 101.5 118.8
136(9) 0.01291 101.5 118.8
130(9) 0.01352 101.4 118.9
124(8) 0.01417 101.4 119.0
133(9) 0.01321 101.4 119.1
114(8) 0.01563 101.4 119.2
134(9) 0.01321 101.3 119.3
141(9) 0.01262 101.3 119.5
137(9) 0.01291 101.3 119.7
129(9) 0.01352 101.3 119.9
135(9) 0.01321 101.2 120.1
121(8) 0.01452 101.2 120.4
124(8) 0.01417 101.2 120.7
129(9) 0.01352 101.2 121.0
120(8) 0.01452 101.1 121.4
131(9) 0.01352 101.1 121.8
118(8) 0.01524 101.1 122.3
142(9) 0.01235 101.1 122.8
131(9) 0.01352 101.0 123.3
126(9) 0.01384 101.0 123.9
144(9) 0.01235 101.0 124.6
130(9) 0.01384 101.0 125.3
128(9) 0.01384 100.9 126.1
164(10) 0.01085 100.9 126.9
129(9) 0.01384 100.9 127.9
135(9) 0.01321 100.9 128.9
134(9) 0.01321 100.8 130.0
134(9) 0.01321 100.8 131.3
136(9) 0.01291 100.8 132.7
138(9) 0.01291 100.8 134.2
132(9) 0.01352 100.7 135.9
129(9) 0.01352 100.7 137.8
139(9) 0.01262 100.7 140.0
153(9) 0.01156 100.7 142.4
134(9) 0.01321 100.6 145.2
151(9) 0.01181 100.6 148.4
159(10) 0.01108 100.6 152.2
174(10) 0.01020 100.6 156.6
165(10) 0.01063 100.5 161.8
176(10) 0.01000 100.5 168.2
172(10) 0.01020 100.5 176.2
184(10) 0.00961 100.5 186.5
199(11) 0.00890 100.4 199.8
232(12) 0.00756 100.4 216.9
231(11) 0.00769 100.4 237.2
241(12) 0.00731 100.3 257.1
281(13) 0.00620 100.3 269.9
298(13) 0.00592 100.3 288.0
351(14) 0.00503 100.3 315.5
375(15) 0.00469 100.2 355.4
406(15) 0.00433 100.2 401.6
441(16) 0.00401 100.2 437.8
464(16) 0.00381 100.2 458.8
497(17) 0.00354 100.1 484.3
524(17) 0.003341 100.1 533.0
569(18) 0.003086 100.1 604.0
653(19) 0.002713 100.1 672.1
675(20) 0.002603 100.0 712.9
693(20) 0.002551 100.0 747.7
818(22) 0.002163 100.0 814.9
872(22) 0.002011 100.0 919.0
905(23) 0.001941 99.9 1021.5
1040(24) 0.001694 99.9 1092.9
1166(26) 0.001514 99.9 1173.4
1225(26) 0.001435 99.8 1306.5
1326(28) 0.001322 99.8 1467.0
1480(29) 0.001189 99.8 1609.3
1656(31) 0.001061 99.8 1764.6
1795(32) 0.000983 99.7 1970.1
2082(34) 0.000845 99.7 2178.8
2330(36) 0.000755 100. 2353.
2591(38) 0.000682 100. 2453.
2730(40) 0.000641 100. 2365.
2284(36) 0.000767 100. 2045.
1694(31) 0.001041 99.6 1612.6
1160(26) 0.001514 99.6 1222.5
877(22) 0.001993 99.5 931.5
648(19) 0.002713 99.5 728.1
529(17) 0.003341 99.5 586.8
475(17) 0.00367 99.4 487.1
350(14) 0.00503 99.4 414.8
330(14) 0.00533 99.4 361.0
287(13) 0.00610 99.4 320.0
275(13) 0.00640 99.3 287.9
257(12) 0.00683 99.3 262.4
226(11) 0.00769 99.3 241.8
206(11) 0.00857 99.3 224.9
202(11) 0.00873 99.2 210.9
211(11) 0.00826 99.2 199.1
175(10) 0.01000 99.2 189.1
164(10) 0.01063 99.2 180.5
181(10) 0.00961 99.1 173.2
162(10) 0.01085 99.1 166.8
149(9) 0.01181 99.1 161.2
147(9) 0.01181 99.0 156.2
146(9) 0.01208 99.0 151.9
164(10) 0.01063 99.0 148.0
136(9) 0.01291 99.0 144.5
157(10) 0.01108 98.9 141.5
135(9) 0.01291 98.9 138.7
141(9) 0.01262 98.9 136.2
121(8) 0.01452 98.9 133.9
139(9) 0.01262 98.8 131.8
130(9) 0.01352 98.8 129.9
131(9) 0.01321 98.8 128.1
120(8) 0.01452 98.7 126.5
126(9) 0.01384 98.7 125.1
131(9) 0.01352 98.7 123.7
117(8) 0.01487 98.7 122.5
126(9) 0.01384 98.6 121.3
122(8) 0.01452 98.6 120.3
116(8) 0.01524 98.6 119.3
109(8) 0.01602 98.6 118.3
120(8) 0.01452 98.5 117.5
119(8) 0.01487 98.5 116.7
117(8) 0.01487 98.5 115.9
112(8) 0.01563 98.4 115.2
110(8) 0.01602 98.4 114.6
100(8) 0.01731 98.4 114.0
118(8) 0.01487 98.4 113.4
105(8) 0.01644 98.3 112.9
102(8) 0.01731 98.3 112.3
112(8) 0.01563 98.3 111.9
120(8) 0.01487 98.3 111.4
116(8) 0.01524 98.2 111.0
108(8) 0.01644 98.2 110.7
117(8) 0.01487 98.2 110.3
109(8) 0.01602 98.1 110.0
119(8) 0.01487 98.1 109.7
106(8) 0.01644 98.1 109.4
106(8) 0.01644 98.1 109.0
105(8) 0.01687 98.0 108.7
109(8) 0.01602 98.0 108.3
114(8) 0.01524 98.0 107.9
109(8) 0.01602 97.9 107.6
102(8) 0.01731 97.9 107.3
111(8) 0.01563 97.9 107.0
110(8) 0.01602 97.9 106.8
110(8) 0.01602 97.8 106.5
103(8) 0.01687 97.8 106.3
106(8) 0.01644 97.8 106.1
103(8) 0.01687 97.7 106.0
98(8) 0.01778 97.7 105.8
90(7) 0.01984 97.7 105.7
106(8) 0.01644 97.7 105.5
108(8) 0.01644 97.6 105.4
110(8) 0.01602 97.6 105.3
113(8) 0.01563 97.6 105.2
106(8) 0.01644 97.6 105.1
108(8) 0.01602 97.5 105.0
120(8) 0.01452 97.5 105.0
90(7) 0.01929 97.5 104.9
99(8) 0.01778 97.4 104.9
107(8) 0.01644 97.4 104.9
101(8) 0.01731 97.4 104.9
107(8) 0.01644 97.4 105.0
112(8) 0.01563 97.3 105.1
112(8) 0.01563 97.3 105.2
106(8) 0.01644 97.3 105.3
108(8) 0.01644 97.2 105.5
114(8) 0.01524 97.2 105.8
101(8) 0.01731 97.2 106.2
111(8) 0.01563 97.2 106.7
120(8) 0.01452 97.1 107.5
113(8) 0.01563 97.1 108.5
104(8) 0.01687 97.1 109.9
119(8) 0.01487 97.0 111.6
125(8) 0.01417 97.0 113.0
110(8) 0.01602 97.0 114.1
120(8) 0.01452 97.0 115.5
130(9) 0.01352 96.9 118.1
126(9) 0.01384 96.9 122.0
115(8) 0.01524 96.9 125.8
120(8) 0.01452 96.8 127.7
134(9) 0.01321 96.8 128.7
122(8) 0.01417 96.8 131.4
127(9) 0.01384 96.8 137.0
138(9) 0.01262 96.7 143.6
129(9) 0.01352 96.7 147.6
153(9) 0.01132 96.7 149.2
141(9) 0.01235 96.6 153.3
163(10) 0.01063 96.6 161.8
134(9) 0.01291 96.6 171.5
155(9) 0.01132 96.6 177.2
179(10) 0.00980 96.5 182.3
183(10) 0.00961 96.5 192.9
225(11) 0.00783 96.5 207.4
185(10) 0.00943 96.4 219.1
235(12) 0.00743 96.4 231.4
221(11) 0.00783 96.4 250.0
242(12) 0.00718 96.4 269.1
266(12) 0.00650 96.3 285.5
298(13) 0.00583 96.3 296.0
271(12) 0.00650 96.3 287.3
238(12) 0.00743 96.2 255.0
206(11) 0.00842 96.2 214.1
176(10) 0.01000 96.2 180.6
171(10) 0.01020 96.2 157.6
146(9) 0.01181 96.1 140.1
124(8) 0.01417 96.1 129.9
124(8) 0.01417 96.1 122.8
123(8) 0.01417 96.0 117.8
117(8) 0.01487 96.0 114.1
118(8) 0.01487 96.0 111.2
107(8) 0.01644 95.9 109.0
116(8) 0.01487 95.9 107.2
119(8) 0.01487 95.9 105.8
106(8) 0.01644 95.9 104.6
112(8) 0.01563 95.8 103.7
121(8) 0.01452 95.8 102.9
114(8) 0.01524 95.8 102.2
112(8) 0.01563 95.7 101.6
105(8) 0.01644 95.7 101.0
114(8) 0.01524 95.7 100.7
112(8) 0.01563 95.7 100.3
113(8) 0.01524 95.6 99.9
102(8) 0.01687 95.6 99.6
111(8) 0.01563 95.6 99.3
112(8) 0.01563 95.5 99.1
119(8) 0.01452 95.5 98.9
103(8) 0.01687 95.5 98.7
111(8) 0.01563 95.4 98.5
109(8) 0.01602 95.4 98.3
99(8) 0.01778 95.4 98.2
119(8) 0.01452 95.4 98.1
101(8) 0.01731 95.3 98.0
103(8) 0.01687 95.3 97.8
105(8) 0.01687 95.3 97.7
109(8) 0.01602 95.2 97.7
103(8) 0.01687 95.2 97.6
113(8) 0.01524 95.2 97.5
108(8) 0.01602 95.2 97.5
108(8) 0.01602 95.1 97.4
92(7) 0.01877 95.1 97.4
107(8) 0.01602 95.1 97.3
110(8) 0.01563 95.0 97.3
118(8) 0.01487 95.0 97.3
104(8) 0.01687 95.0 97.3
109(8) 0.01602 94.9 97.3
106(8) 0.01644 94.9 97.4
99(8) 0.01778 94.9 97.4
102(8) 0.01687 94.9 97.5
111(8) 0.01563 94.8 97.6
109(8) 0.01602 94.8 97.7
98(8) 0.01778 94.8 97.9
121(8) 0.01452 94.7 98.1
111(8) 0.01563 94.7 98.4
100(8) 0.01731 94.7 98.8
113(8) 0.01563 94.6 99.4
113(8) 0.01524 94.6 100.0
102(8) 0.01687 94.6 100.6
124(9) 0.01384 94.6 101.1
107(8) 0.01602 94.5 101.6
117(8) 0.01487 94.5 102.4
112(8) 0.01563 94.5 103.7
126(9) 0.01384 94.4 105.2
122(8) 0.01417 94.4 106.5
111(8) 0.01563 94.4 107.3
115(8) 0.01524 94.3 108.0
120(8) 0.01452 94.3 109.3
121(8) 0.01452 94.3 111.4
130(9) 0.01352 94.3 113.9
135(9) 0.01291 94.2 116.0
125(9) 0.01384 94.2 117.3
128(9) 0.01352 94.2 118.9
144(9) 0.01208 94.1 121.8
141(9) 0.01235 94.1 125.6
120(8) 0.01452 94.1 129.2
150(9) 0.01156 94.0 132.1
152(9) 0.01132 94.0 135.8
159(10) 0.01085 94.0 141.1
164(10) 0.01063 94.0 146.7
179(10) 0.00980 93.9 151.6
179(10) 0.00961 93.9 156.4
180(10) 0.00961 93.9 159.4
188(10) 0.00925 93.8 157.7
184(10) 0.00943 93.8 150.3
160(10) 0.01085 93.8 139.2
163(10) 0.01063 93.7 128.5
155(10) 0.01108 93.7 120.0
149(9) 0.01181 93.7 113.8
123(8) 0.01417 93.7 109.5
128(9) 0.01352 93.6 106.4
129(9) 0.01352 93.6 104.1
124(9) 0.01384 93.6 102.4
127(9) 0.01352 93.5 101.1
112(8) 0.01563 93.5 100.0
131(9) 0.01321 93.5 99.2
130(9) 0.01321 93.4 98.6
124(9) 0.01384 93.4 98.0
115(8) 0.01524 93.4 97.6
126(9) 0.01384 93.4 97.2
125(9) 0.01384 93.3 96.9
107(8) 0.01644 93.3 96.6
106(8) 0.01644 93.3 96.4
108(8) 0.01602 93.2 96.2
106(8) 0.01644 93.2 96.0
121(8) 0.01417 93.2 95.9
99(8) 0.01731 93.1 95.8
103(8) 0.01687 93.1 95.7
104(8) 0.01687 93.1 95.5
110(8) 0.01563 93.0 95.4
108(8) 0.01602 93.0 95.1
94(7) 0.01877 93.0 95.0
98(8) 0.01778 93.0 94.8
90(7) 0.01929 92.9 94.7
93(7) 0.01877 92.9 94.5
105(8) 0.01644 92.9 94.5
101(8) 0.01731 92.8 94.4
97(8) 0.01778 92.8 94.3
96(7) 0.01826 92.8 94.2
88(7) 0.01984 92.7 94.1
87(7) 0.01984 92.7 94.1
94(7) 0.01826 92.7 94.0
98(8) 0.01778 92.6 94.0
104(8) 0.01687 92.6 93.9
91(7) 0.01929 92.6 93.9
90(7) 0.01929 92.6 93.8
102(8) 0.01687 92.5 93.6
83(7) 0.02100 92.5 93.6
92(7) 0.01877 92.5 93.6
91(7) 0.01929 92.4 93.5
91(7) 0.01929 92.4 93.5
94(7) 0.01826 92.4 93.5
90(7) 0.01929 92.3 93.5
75(7) 0.02296 92.3 93.4
94(7) 0.01826 92.3 93.4
110(8) 0.01563 92.2 93.4
82(7) 0.02100 92.2 93.4
93(7) 0.01877 92.2 93.4
98(8) 0.01778 92.2 93.3
86(7) 0.02041 92.1 93.3
91(7) 0.01929 92.1 93.3
86(7) 0.01984 92.1 93.3
91(7) 0.01929 92.0 93.3
108(8) 0.01602 92.0 93.3
89(7) 0.01929 92.0 93.3
98(8) 0.01778 91.9 93.3
81(7) 0.02163 91.9 93.3
94(7) 0.01826 91.9 93.3
100(8) 0.01731 91.8 93.4
97(8) 0.01778 91.8 93.4
90(7) 0.01929 91.8 93.4
92(7) 0.01877 91.8 93.4
80(7) 0.02163 91.7 93.5
89(7) 0.01984 91.7 93.5
110(8) 0.01563 91.7 93.6
89(7) 0.01984 91.6 93.6
90(7) 0.01929 91.6 93.7
94(7) 0.01826 91.6 93.8
83(7) 0.02100 91.5 93.8
100(8) 0.01731 91.5 94.0
91(7) 0.01929 91.5 94.1
80(7) 0.02163 91.4 94.2
83(7) 0.02100 91.4 94.4
91(7) 0.01929 91.4 94.6
98(8) 0.01778 91.3 94.8
96(7) 0.01826 91.3 95.0
80(7) 0.02163 91.3 95.3
98(8) 0.01778 91.3 95.7
93(7) 0.01877 91.2 96.1
95(7) 0.01826 91.2 96.6
87(7) 0.01984 91.2 97.3
96(7) 0.01826 91.1 98.1
97(8) 0.01778 91.1 99.1
98(8) 0.01778 91.1 100.2
112(8) 0.01524 91.0 101.4
105(8) 0.01644 91.0 102.4
115(8) 0.01487 91.0 103.4
99(8) 0.01731 90.9 104.3
125(9) 0.01384 90.9 105.5
125(9) 0.01384 90.9 107.3
105(8) 0.01644 90.8 109.6
124(9) 0.01384 90.8 112.5
120(8) 0.01452 90.8 115.7
119(8) 0.01452 90.8 118.2
143(9) 0.01208 90.7 120.1
116(8) 0.01487 90.7 121.8
137(9) 0.01262 90.7 124.1
141(9) 0.01235 90.6 127.7
149(9) 0.01156 90.6 132.4
138(9) 0.01262 90.6 137.8
151(9) 0.01132 90.5 142.8
153(9) 0.01132 90.5 146.9
161(10) 0.01085 90.5 151.0
155(10) 0.01108 90.4 156.2
167(10) 0.01041 90.4 162.6
184(10) 0.00943 90.4 168.7
187(10) 0.00925 90.3 172.8
206(11) 0.00842 90.3 173.9
191(11) 0.00907 90.3 171.3
197(11) 0.00873 90.2 164.4
181(10) 0.00961 90.2 154.2
168(10) 0.01020 90.2 143.1
156(10) 0.01108 90.2 133.1
139(9) 0.01235 90.1 125.0
145(9) 0.01181 90.1 118.6
139(9) 0.01235 90.1 113.8
137(9) 0.01262 90.0 110.0
122(8) 0.01417 90.0 107.2
120(8) 0.01452 90.0 105.0
113(8) 0.01524 89.9 103.2
125(9) 0.01384 89.9 101.9
104(8) 0.01644 89.9 100.8
108(8) 0.01602 89.8 100.0
113(8) 0.01524 89.8 99.4
107(8) 0.01602 89.8 99.0
98(8) 0.01778 89.7 98.8
112(8) 0.01563 89.7 98.8
94(7) 0.01826 89.7 99.1
104(8) 0.01644 89.6 99.5
88(7) 0.01984 89.6 99.8
99(8) 0.01731 89.6 100.1
103(8) 0.01687 89.6 100.5
87(7) 0.01984 89.5 101.4
95(7) 0.01826 89.5 102.9
95(7) 0.01826 89.5 104.6
99(8) 0.01731 89.4 105.8
108(8) 0.01602 89.4 106.3
100(8) 0.01731 89.4 107.1
100(8) 0.01731 89.3 109.0
98(8) 0.01778 89.3 112.0
117(8) 0.01487 89.3 114.8
101(8) 0.01731 89.2 116.4
131(9) 0.01321 89.2 117.8
116(8) 0.01487 89.2 120.6
116(8) 0.01487 89.1 125.2
119(8) 0.01452 89.1 129.8
118(8) 0.01452 89.1 133.1
127(9) 0.01352 89.0 137.1
141(9) 0.01208 89.0 143.4
154(9) 0.01132 89.0 150.4
148(9) 0.01156 89.0 156.5
167(10) 0.01041 88.9 162.6
159(10) 0.01085 88.9 166.7
148(9) 0.01156 88.9 164.3
149(9) 0.01156 88.8 154.1
142(9) 0.01208 88.8 139.7
111(8) 0.01563 88.8 126.7
112(8) 0.01563 88.7 117.0
103(8) 0.01687 88.7 110.3
103(8) 0.01687 88.7 105.7
103(8) 0.01687 88.6 102.4
107(8) 0.01602 88.6 100.1
92(7) 0.01877 88.6 98.3
95(7) 0.01826 88.5 97.0
90(7) 0.01929 88.5 95.9
79(7) 0.02163 88.5 95.1
100(8) 0.01731 88.4 94.4
85(7) 0.02041 88.4 93.9
90(7) 0.01984 88.4 93.4
81(7) 0.02100 88.3 93.0
83(7) 0.02100 88.3 92.6
79(8) 0.01778 88.3 92.3
81(5) 0.03429 88.3 92.1
80(5) 0.0356 88.2 91.9
76(5) 0.0370 88.2 91.7
76(5) 0.0370 88.2 91.5
78(5) 0.0356 88.1 91.4
95(6) 0.02973 88.1 91.2
91(6) 0.03189 88.1 91.1
81(5) 0.03429 88.0 91.0
73(5) 0.0384 88.0 90.9
78(5) 0.0356 88.0 90.8
87(6) 0.03189 87.9 90.7
75(5) 0.0370 87.9 90.7
86(6) 0.03306 87.9 90.6
83(5) 0.03429 87.8 90.6
81(5) 0.03429 87.8 90.5
76(5) 0.0370 87.8 90.5
79(5) 0.0356 87.7 90.4
75(5) 0.0370 87.7 90.4
86(6) 0.03306 87.7 90.4
80(5) 0.03429 87.6 90.4
72(5) 0.0384 87.6 90.4
85(6) 0.03306 87.6 90.4
77(5) 0.0370 87.5 90.4
87(6) 0.03189 87.5 90.4
87(6) 0.03189 87.5 90.4
90(6) 0.03078 87.5 90.4
93(6) 0.02973 87.4 90.4
82(5) 0.03429 87.4 90.4
81(5) 0.03429 87.4 90.5
93(6) 0.02973 87.3 90.5
94(6) 0.02973 87.3 90.6
78(5) 0.0356 87.3 90.6
88(6) 0.03189 87.2 90.7
86(6) 0.03189 87.2 90.8
87(6) 0.03189 87.2 90.9
86(6) 0.03306 87.1 91.0
86(6) 0.03306 87.1 91.1
82(5) 0.03429 87.1 91.2
81(5) 0.03429 87.0 91.4
78(5) 0.0356 87.0 91.5
86(6) 0.03189 87.0 91.7
86(6) 0.03306 86.9 91.9
80(5) 0.0356 86.9 92.2
87(6) 0.03189 86.9 92.5
88(6) 0.03189 86.8 92.9
83(5) 0.03429 86.8 93.3
92(6) 0.03078 86.8 93.9
85(6) 0.03306 86.7 94.6
91(6) 0.03078 86.7 95.5
90(6) 0.03078 86.7 96.5
96(6) 0.02873 86.7 97.5
95(6) 0.02873 86.6 98.3
103(6) 0.02687 86.6 99.3
97(6) 0.02873 86.6 100.8
93(6) 0.02973 86.5 102.8
99(6) 0.02873 86.5 105.1
106(6) 0.02601 86.5 106.8
105(6) 0.02687 86.4 108.1
100(6) 0.02778 86.4 109.8
101(6) 0.02778 86.4 112.5
118(7) 0.02367 86.3 116.1
113(6) 0.02441 86.3 119.6
113(6) 0.02441 86.3 122.2
131(7) 0.02100 86.2 124.8
131(7) 0.02163 86.2 129.1
124(7) 0.02228 86.2 134.9
139(7) 0.02041 86.1 140.6
144(7) 0.01929 86.1 145.8
157(8) 0.01778 86.1 152.3
161(8) 0.01731 86.0 161.0
167(8) 0.01687 86.0 170.2
180(8) 0.01563 86.0 179.2
198(8) 0.01417 85.9 187.9
214(9) 0.01321 85.9 193.3
204(9) 0.01352 85.9 191.6
185(8) 0.01524 85.9 182.8
180(8) 0.01563 85.8 171.6
154(8) 0.01778 85.8 162.7
157(8) 0.01778 85.8 158.2
161(8) 0.01731 85.7 158.1
151(7) 0.01826 85.7 161.8
158(8) 0.01778 85.7 168.1
162(8) 0.01731 85.6 175.2
179(8) 0.01563 85.6 181.0
172(8) 0.01644 85.6 185.4
182(8) 0.01524 85.5 190.6
213(9) 0.01321 85.5 199.1
197(8) 0.01417 85.5 212.0
221(9) 0.01262 85.4 228.2
245(9) 0.01132 85.4 244.6
252(10) 0.01108 85.4 258.5
275(10) 0.01000 85.3 271.2
270(10) 0.01020 85.3 286.7
293(10) 0.00961 85.3 306.3
316(11) 0.00873 85.2 326.3
331(11) 0.00842 85.2 340.7
360(11) 0.00769 85.2 345.7
387(12) 0.00718 85.1 338.8
355(11) 0.00783 85.1 317.9
324(11) 0.00857 85.1 285.7
277(10) 0.01000 85.0 250.2
231(9) 0.01208 85.0 218.4
209(9) 0.01321 85.0 192.8
188(8) 0.01487 85.0 173.2
158(8) 0.01778 84.9 158.5
158(8) 0.01778 84.9 147.1
143(7) 0.01929 84.9 138.4
138(7) 0.01984 84.8 132.0
132(7) 0.02100 84.8 127.3
124(7) 0.02228 84.8 123.7
121(7) 0.02296 84.7 120.7
108(6) 0.02601 84.7 118.5
119(7) 0.02367 84.7 117.3
114(6) 0.02441 84.6 116.7
115(6) 0.02441 84.6 116.2
108(6) 0.02601 84.6 116.1
106(6) 0.02601 84.5 115.4
111(6) 0.02520 84.5 113.4
106(6) 0.02601 84.5 110.1
105(6) 0.02601 84.4 106.7
98(6) 0.02778 84.4 104.0
100(6) 0.02778 84.4 102.3
91(6) 0.03078 84.3 101.2
93(6) 0.02973 84.3 100.4
95(6) 0.02873 84.3 99.8
87(6) 0.03189 84.2 99.4
87(6) 0.03189 84.2 99.3
94(6) 0.02973 84.2 99.3
91(6) 0.03078 84.2 99.4
92(6) 0.02973 84.1 99.2
78(5) 0.0356 84.1 98.7
92(6) 0.02973 84.1 97.8
93(6) 0.02973 84.0 96.5
88(6) 0.03189 84.0 95.0
85(6) 0.03306 84.0 93.6
93(6) 0.02973 83.9 92.3
91(6) 0.03078 83.9 91.3
71(5) 0.0384 83.9 90.5
86(6) 0.03189 83.8 89.8
83(6) 0.03306 83.8 89.3
87(6) 0.03189 83.8 88.8
95(6) 0.02873 83.7 88.4
83(6) 0.03306 83.7 88.1
84(6) 0.03306 83.7 87.8
96(6) 0.02873 83.6 87.5
68(5) 0.0400 83.6 87.2
83(6) 0.03306 83.6 87.0
73(5) 0.0384 83.5 86.8
86(6) 0.03189 83.5 86.6
75(5) 0.0370 83.5 86.5
89(6) 0.03078 83.4 86.3
81(5) 0.03429 83.4 86.2
77(5) 0.0356 83.4 86.0
82(6) 0.03306 83.4 85.9
104(6) 0.02687 83.3 85.8
83(6) 0.03306 83.3 85.7
91(6) 0.02973 83.3 85.6
85(6) 0.03189 83.2 85.5
88(6) 0.03078 83.2 85.4
82(6) 0.03306 83.2 85.5
90(6) 0.03078 83.1 85.4
91(6) 0.03078 83.1 85.4
93(6) 0.02973 83.1 85.3
94(6) 0.02973 83.0 85.2
96(6) 0.02873 83.0 85.2
102(6) 0.02687 83.0 85.1
98(6) 0.02778 82.9 85.1
98(6) 0.02778 82.9 85.1
86(6) 0.03189 82.9 85.0
91(6) 0.02973 82.8 85.0
89(6) 0.03078 82.8 85.0
89(6) 0.03078 82.8 84.9
87(6) 0.03189 82.7 84.9
89(6) 0.03078 82.7 84.9
83(6) 0.03306 82.7 85.0
78(5) 0.0356 82.6 85.0
88(6) 0.03078 82.6 85.0
91(6) 0.02973 82.6 85.0
87(6) 0.03189 82.6 85.1
82(6) 0.03306 82.5 85.1
84(6) 0.03189 82.5 85.2
80(5) 0.03429 82.5 85.2
77(5) 0.0356 82.4 85.1
77(5) 0.0356 82.4 85.0
75(5) 0.0370 82.4 84.8
73(5) 0.0370 82.3 84.6
77(5) 0.0356 82.3 84.3
76(5) 0.0356 82.3 84.1
72(5) 0.0384 82.2 84.0
74(5) 0.0370 82.2 83.8
76(5) 0.0370 82.2 83.7
78(5) 0.0356 82.1 83.6
73(5) 0.0370 82.1 83.5
69(5) 0.0400 82.1 83.4
76(5) 0.0356 82.0 83.3
76(5) 0.0356 82.0 83.3
74(5) 0.0370 82.0 83.2
73(5) 0.0370 81.9 83.2
81(6) 0.03306 81.9 83.1
71(5) 0.0384 81.9 83.0
79(5) 0.03429 81.9 82.9
62(5) 0.0453 81.8 82.9
77(5) 0.0356 81.8 82.8
81(5) 0.03429 81.8 82.8
75(5) 0.0370 81.7 82.8
68(5) 0.0400 81.7 82.7
66(5) 0.0416 81.7 82.7
68(5) 0.0400 81.6 82.6
76(5) 0.0356 81.6 82.6
69(5) 0.0400 81.6 82.6
73(5) 0.0370 81.5 82.5
72(5) 0.0384 81.5 82.5
66(5) 0.0416 81.5 82.5
74(5) 0.0370 81.4 82.4
78(5) 0.0356 81.4 82.4
65(5) 0.0416 81.4 82.4
73(5) 0.0370 81.3 82.3
82(6) 0.03306 81.3 82.3
69(5) 0.0400 81.3 82.3
63(5) 0.0434 81.2 82.3
63(5) 0.0434 81.2 82.2
79(5) 0.03429 81.2 82.2
74(5) 0.0370 81.2 82.2
73(5) 0.0370 81.1 82.2
67(5) 0.0400 81.1 82.1
61(5) 0.0453 81.1 82.1
70(5) 0.0384 81.0 82.1
72(5) 0.0384 81.0 82.0
66(5) 0.0416 81.0 82.0
72(5) 0.0370 80.9 82.0
72(5) 0.0384 80.9 81.9
71(5) 0.0384 80.9 81.9
78(5) 0.03429 80.8 81.9
73(5) 0.0370 80.8 81.8
70(5) 0.0384 80.8 81.8
68(5) 0.0400 80.7 81.8
68(5) 0.0400 80.7 81.8
72(5) 0.0370 80.7 81.7
64(5) 0.0416 80.6 81.7
78(5) 0.03429 80.6 81.7
72(5) 0.0384 80.6 81.7
76(5) 0.0356 80.6 81.6
67(5) 0.0400 80.5 81.6
72(5) 0.0370 80.5 81.6
73(5) 0.0370 80.5 81.6
79(5) 0.03429 80.4 81.6
71(5) 0.0384 80.4 81.6
69(5) 0.0400 80.4 81.5
73(5) 0.0370 80.3 81.5
71(5) 0.0384 80.3 81.5
82(6) 0.03306 80.3 81.5
76(5) 0.0356 80.2 81.5
70(5) 0.0384 80.2 81.5
68(5) 0.0400 80.2 81.5
66(5) 0.0416 80.1 81.4
76(5) 0.0356 80.1 81.4
74(5) 0.0370 80.1 81.4
71(5) 0.0384 80.1 81.4
72(5) 0.0370 80.0 81.4
68(5) 0.0400 80.0 81.4
67(5) 0.0400 80.0 81.4
68(5) 0.0400 79.9 81.4
72(5) 0.0384 79.9 81.4
75(5) 0.0356 79.9 81.4
75(5) 0.0370 79.8 81.4
73(5) 0.0370 79.8 81.4
70(5) 0.0384 79.8 81.4
70(5) 0.0384 79.7 81.4
73(5) 0.0370 79.7 81.5
62(5) 0.0434 79.7 81.5
67(5) 0.0400 79.6 81.5
65(5) 0.0416 79.6 81.5
65(5) 0.0416 79.6 81.3
73(5) 0.0370 79.5 81.4
75(5) 0.0370 79.5 81.4
60(5) 0.0453 79.5 81.4
74(5) 0.0370 79.5 81.5
67(5) 0.0400 79.4 81.5
79(5) 0.03429 79.4 81.6
80(5) 0.03429 79.4 81.6
77(5) 0.0356 79.3 81.7
80(5) 0.03429 79.3 81.7
78(5) 0.03429 79.3 81.8
79(5) 0.03429 79.2 81.9
78(5) 0.03429 79.2 82.0
76(5) 0.0356 79.2 82.0
70(5) 0.0384 79.1 82.1
66(5) 0.0416 79.1 82.3
78(5) 0.03429 79.1 82.4
71(5) 0.0384 79.1 82.5
81(6) 0.03306 79.0 82.6
74(5) 0.0370 79.0 82.8
73(5) 0.0370 79.0 83.0
79(5) 0.03429 78.9 83.2
83(6) 0.03306 78.9 83.4
70(5) 0.0384 78.9 83.6
80(5) 0.03429 78.8 83.9
77(5) 0.03429 78.8 84.1
80(5) 0.03429 78.8 84.5
78(5) 0.03429 78.7 84.8
75(5) 0.0356 78.7 85.2
89(6) 0.03078 78.7 85.7
83(6) 0.03306 78.6 86.2
89(6) 0.03078 78.6 86.8
81(6) 0.03306 78.6 87.5
93(6) 0.02873 78.6 88.3
79(5) 0.03429 78.5 89.2
70(5) 0.0384 78.5 90.3
81(6) 0.03306 78.5 91.7
83(6) 0.03189 78.4 93.3
95(6) 0.02873 78.4 95.4
79(5) 0.03429 78.4 97.9
95(6) 0.02873 78.3 101.0
99(6) 0.02687 78.3 104.6
103(6) 0.02601 78.3 108.5
100(6) 0.02687 78.2 112.2
113(7) 0.02367 78.2 115.4
109(6) 0.02520 78.2 118.9
122(7) 0.02228 78.2 123.4
122(7) 0.02228 78.1 129.8
132(7) 0.02041 78.1 138.3
127(7) 0.02100 78.1 148.0
156(8) 0.01731 78.0 157.3
146(7) 0.01826 78.0 164.4
157(8) 0.01731 78.0 170.3
152(8) 0.01778 77.9 177.9
178(8) 0.01524 77.9 189.3
180(8) 0.01487 77.9 205.0
206(9) 0.01321 77.8 222.4
225(9) 0.01208 77.8 238.2
244(10) 0.01108 77.8 251.8
276(10) 0.00980 77.8 266.8
277(10) 0.00980 77.7 286.0
290(10) 0.00925 77.7 306.6
308(11) 0.00873 77.7 322.3
347(11) 0.00783 77.6 328.2
333(11) 0.00812 77.6 321.7
350(11) 0.00769 77.6 300.7
316(11) 0.00857 77.5 268.4
240(9) 0.01132 77.5 233.7
199(9) 0.01352 77.5 203.1
178(8) 0.01524 77.4 178.8
168(8) 0.01602 77.4 160.2
145(7) 0.01877 77.4 146.2
132(7) 0.02041 77.4 136.0
124(7) 0.02163 77.3 128.7
116(7) 0.02296 77.3 123.4
123(7) 0.02228 77.3 119.4
123(7) 0.02228 77.2 116.3
116(7) 0.02296 77.2 113.9
118(7) 0.02296 77.2 112.4
120(7) 0.02228 77.1 111.6
108(6) 0.02520 77.1 110.9
117(7) 0.02296 77.1 109.9
112(7) 0.02367 77.1 108.3
119(7) 0.02296 77.0 105.8
126(7) 0.02163 77.0 102.5
104(6) 0.02601 77.0 99.0
95(6) 0.02873 76.9 95.8
99(6) 0.02687 76.9 93.1
93(6) 0.02873 76.9 90.9
87(6) 0.03078 76.8 89.1
84(6) 0.03189 76.8 87.7
91(6) 0.02973 76.8 86.6
81(6) 0.03306 76.8 85.6
87(6) 0.03078 76.7 84.8
89(6) 0.03078 76.7 84.1
82(6) 0.03306 76.7 83.5
80(6) 0.03306 76.6 83.0
83(6) 0.03189 76.6 82.5
90(6) 0.02973 76.6 82.1
86(6) 0.03078 76.5 81.7
96(6) 0.02778 76.5 81.4
84(6) 0.03189 76.5 81.1
87(6) 0.03078 76.5 80.8
96(6) 0.02778 76.4 80.5
95(6) 0.02873 76.4 80.3
94(6) 0.02873 76.4 80.1
86(6) 0.03078 76.3 79.9
87(6) 0.03078 76.3 79.7
97(6) 0.02778 76.3 79.5
88(6) 0.03078 76.2 79.3
85(6) 0.03189 76.2 79.1
102(6) 0.02601 76.2 79.0
110(6) 0.02441 76.2 78.9
92(6) 0.02973 76.1 78.7
85(6) 0.03189 76.1 78.6
85(6) 0.03189 76.1 78.5
93(6) 0.02873 76.0 78.3
89(6) 0.02973 76.0 78.2
89(6) 0.03078 76.0 78.1
92(6) 0.02973 75.9 78.0
85(6) 0.03189 75.9 77.9
84(6) 0.03189 75.9 77.8
70(5) 0.0384 75.9 77.7
75(5) 0.0356 75.8 77.6
77(5) 0.03429 75.8 77.6
71(5) 0.0370 75.8 77.5
74(5) 0.0370 75.7 77.4
76(5) 0.0356 75.7 77.3
71(5) 0.0370 75.7 77.2
78(5) 0.03429 75.6 77.2
77(5) 0.03429 75.6 77.1
66(5) 0.0416 75.6 77.0
76(5) 0.0356 75.6 77.0
75(5) 0.0356 75.5 76.9
76(5) 0.0356 75.5 76.8
67(5) 0.0400 75.5 76.8
78(5) 0.03429 75.4 76.7
68(5) 0.0400 75.4 76.7
67(5) 0.0400 75.4 76.6
71(5) 0.0384 75.3 76.6
67(5) 0.0400 75.3 76.5
71(5) 0.0384 75.3 76.5
70(5) 0.0384 75.3 76.4
72(5) 0.0370 75.2 76.4
71(5) 0.0370 75.2 76.3
67(5) 0.0400 75.2 76.3
65(5) 0.0416 75.1 76.2
77(5) 0.0356 75.1 76.2
66(5) 0.0400 75.1 76.1
62(5) 0.0434 75.1 76.1
70(5) 0.0384 75.0 76.0
69(5) 0.0384 75.0 76.0
67(5) 0.0400 75.0 75.9
72(5) 0.0370 74.9 75.9
58(5) 0.0473 74.9 75.9
68(5) 0.0400 74.9 75.8
65(5) 0.0416 74.8 75.8
70(5) 0.0384 74.8 75.8
65(5) 0.0416 74.8 75.7
71(5) 0.0370 74.8 75.7
67(5) 0.0400 74.7 75.6
65(5) 0.0416 74.7 75.6
69(5) 0.0384 74.7 75.6
72(5) 0.0370 74.6 75.6
71(5) 0.0384 74.6 75.5
68(5) 0.0400 74.6 75.5
73(5) 0.0370 74.6 75.5
72(5) 0.0370 74.5 75.4
57(5) 0.0473 74.5 75.4
72(5) 0.0370 74.5 75.4
73(5) 0.0370 74.4 75.4
64(5) 0.0416 74.4 75.3
71(5) 0.0384 74.4 75.3
71(5) 0.0384 74.4 75.3
72(5) 0.0370 74.3 75.3
64(5) 0.0416 74.3 75.3
68(5) 0.0400 74.3 75.3
66(5) 0.0400 74.2 75.3
65(5) 0.0416 74.2 75.3
61(5) 0.0434 74.2 75.3
71(5) 0.0370 74.2 75.3
66(5) 0.0416 74.1 75.4
65(5) 0.0416 74.1 75.4
66(5) 0.0400 74.1 75.4
71(5) 0.0384 74.0 75.5
67(5) 0.0400 74.0 75.5
62(5) 0.0434 74.0 75.6
68(5) 0.0400 73.9 75.7
68(5) 0.0400 73.9 75.8
72(5) 0.0370 73.9 75.8
67(5) 0.0400 73.9 75.9
61(5) 0.0434 73.8 76.0
72(5) 0.0370 73.8 76.2
75(5) 0.0356 73.8 76.4
62(5) 0.0434 73.7 76.6
68(5) 0.0384 73.7 76.8
64(5) 0.0416 73.7 77.1
71(5) 0.0384 73.7 77.4
73(5) 0.0370 73.6 77.7
68(5) 0.0400 73.6 78.0
65(5) 0.0416 73.6 78.2
73(5) 0.0370 73.5 78.2
72(5) 0.0370 73.5 78.1
64(5) 0.0416 73.5 78.3
72(5) 0.0370 73.5 78.6
71(5) 0.0384 73.4 79.1
70(5) 0.0384 73.4 79.6
81(6) 0.03306 73.4 80.1
74(5) 0.0356 73.4 80.5
75(5) 0.0356 73.3 81.2
71(5) 0.0384 73.3 82.1
74(5) 0.0356 73.3 83.5
77(5) 0.0356 73.2 85.2
83(6) 0.03189 73.2 86.9
88(6) 0.03078 73.2 88.1
76(5) 0.0356 73.2 89.1
87(6) 0.03078 73.1 90.3
81(6) 0.03306 73.1 92.3
91(6) 0.02973 73.1 95.1
109(6) 0.02441 73.0 98.3
94(6) 0.02873 73.0 101.0
105(6) 0.02520 73.0 103.3
121(7) 0.02228 73.0 106.0
117(7) 0.02296 72.9 109.6
125(7) 0.02163 72.9 113.3
127(7) 0.02100 72.9 115.8
129(7) 0.02100 72.8 116.2
137(7) 0.01929 72.8 114.0
130(7) 0.02041 72.8 109.0
122(7) 0.02163 72.8 102.5
91(6) 0.02973 72.7 96.2
104(6) 0.02601 72.7 91.0
88(6) 0.03078 72.7 87.1
71(5) 0.0384 72.6 84.2
76(5) 0.0356 72.6 82.0
90(6) 0.02973 72.6 80.4
84(6) 0.03189 72.6 79.1
83(6) 0.03189 72.5 78.2
86(6) 0.03078 72.5 77.4
89(6) 0.02973 72.5 76.6
77(5) 0.03429 72.5 76.1
91(6) 0.02973 72.4 75.6
85(6) 0.03189 72.4 75.3
84(6) 0.03189 72.4 75.0
77(5) 0.03429 72.3 74.7
76(5) 0.0356 72.3 74.5
89(6) 0.02973 72.3 74.3
75(5) 0.0356 72.3 74.1
85(6) 0.03189 72.2 74.0
93(6) 0.02873 72.2 73.9
81(6) 0.03306 72.2 73.8
93(6) 0.02873 72.1 73.7
79(5) 0.03429 72.1 73.6
81(6) 0.03306 72.1 73.5
82(6) 0.03306 72.1 73.5
70(5) 0.0384 72.0 73.5
80(6) 0.03306 72.0 73.5
78(5) 0.03429 72.0 73.4
90(6) 0.02973 72.0 73.4
92(6) 0.02873 71.9 73.4
77(5) 0.03429 71.9 73.5
70(5) 0.0384 71.9 73.5
75(5) 0.0356 71.8 73.6
71(5) 0.0384 71.8 73.6
77(5) 0.03429 71.8 73.7
76(5) 0.0356 71.8 73.9
73(5) 0.0370 71.7 74.0
71(5) 0.0370 71.7 74.1
71(5) 0.0370 71.7 74.3
67(5) 0.0400 71.7 74.4
72(5) 0.0370 71.6 74.5
71(5) 0.0370 71.6 74.4
79(5) 0.03429 71.6 74.1
67(5) 0.0400 71.5 73.6
66(5) 0.0400 71.5 73.2
74(5) 0.0356 71.5 72.8
57(5) 0.0473 71.5 72.6
61(5) 0.0434 71.4 72.4
67(5) 0.0400 71.4 72.2
67(5) 0.0400 71.4 72.1
70(5) 0.0384 71.4 72.0
61(5) 0.0434 71.3 72.0
63(5) 0.0416 71.3 71.9
74(5) 0.0356 71.3 71.9
65(5) 0.0416 71.3 71.8
82(6) 0.03306 71.2 71.8
64(5) 0.0416 71.2 71.8
69(5) 0.0384 71.2 71.7
67(5) 0.0400 71.1 71.7
65(5) 0.0400 71.1 71.7
67(5) 0.0400 71.1 71.7
69(5) 0.0384 71.1 71.7
67(5) 0.0400 71.0 71.7
60(5) 0.0453 71.0 71.7
72(5) 0.0370 71.0 71.8
62(5) 0.0434 71.0 71.8
73(5) 0.0370 70.9 71.9
58(5) 0.0453 70.9 71.9
68(5) 0.0384 70.9 71.9
67(5) 0.0400 70.9 72.0
65(5) 0.0416 70.8 72.0
62(5) 0.0434 70.8 72.1
69(5) 0.0384 70.8 72.3
67(5) 0.0400 70.7 72.4
68(5) 0.0384 70.7 72.5
58(5) 0.0453 70.7 72.6
84(6) 0.03189 70.7 72.8
67(5) 0.0400 70.6 72.9
62(5) 0.0434 70.6 73.0
68(5) 0.0400 70.6 73.1
67(5) 0.0400 70.6 73.0
65(5) 0.0400 70.5 72.7
72(5) 0.0370 70.5 72.4
61(5) 0.0434 70.5 72.0
65(5) 0.0416 70.5 71.8
73(5) 0.0370 70.4 71.6
59(5) 0.0453 70.4 71.4
74(5) 0.0370 70.4 71.2
57(5) 0.0473 70.4 71.1
65(5) 0.0416 70.3 71.0
65(5) 0.0416 70.3 70.9
71(5) 0.0384 70.3 70.8
61(5) 0.0434 70.2 70.8
59(5) 0.0453 70.2 70.7
68(5) 0.0400 70.2 70.7
63(5) 0.0416 70.2 70.6
68(5) 0.0400 70.1 70.6
72(5) 0.0370 70.1 70.5
74(5) 0.0370 70.1 70.5
64(5) 0.0416 70.1 70.5
71(5) 0.0384 70.0 70.4
66(5) 0.0416 70.0 70.4
63(5) 0.0434 70.0 70.4
71(5) 0.0384 70.0 70.3
62(5) 0.0434 69.9 70.3
66(5) 0.0416 69.9 70.3
73(5) 0.0370 69.9 70.2
64(5) 0.0416 69.9 70.2
65(5) 0.0416 69.8 70.2
58(5) 0.0453 69.8 70.2
64(5) 0.0416 69.8 70.1
58(5) 0.0473 69.8 70.1
64(5) 0.0416 69.7 70.1
68(5) 0.0400 69.7 70.1
69(5) 0.0384 69.7 70.0
73(5) 0.0370 69.7 70.0
74(5) 0.0356 69.6 70.0
66(5) 0.0400 69.6 70.0
61(5) 0.0434 69.6 69.9
63(5) 0.0416 69.6 69.9
66(5) 0.0416 69.5 69.9
57(5) 0.0473 69.5 69.9
66(5) 0.0416 69.5 69.8
69(5) 0.0384 69.4 69.8
67(5) 0.0400 69.4 69.8
70(5) 0.0384 69.4 69.8
59(5) 0.0453 69.4 69.7
67(5) 0.0400 69.3 69.7
76(5) 0.0356 69.3 69.7
63(5) 0.0416 69.3 69.7
72(5) 0.0370 69.3 69.7
66(5) 0.0400 69.2 69.6
73(5) 0.0370 69.2 69.6
65(5) 0.0416 69.2 69.6
59(5) 0.0453 69.2 69.6
70(5) 0.0384 69.1 69.6
63(5) 0.0434 69.1 69.6
61(5) 0.0434 69.1 69.6
65(5) 0.0416 69.1 69.5
66(5) 0.0400 69.0 69.5
62(5) 0.0434 69.0 69.5
79(5) 0.03429 69.0 69.5
59(5) 0.0453 69.0 69.5
60(5) 0.0453 68.9 69.5
74(5) 0.0370 68.9 69.4
68(5) 0.0400 68.9 69.4
67(5) 0.0400 68.9 69.4
67(5) 0.0400 68.8 69.4
58(5) 0.0453 68.8 69.4
72(5) 0.0370 68.8 69.4
68(5) 0.0400 68.8 69.3
55(5) 0.0473 68.7 69.3
55(5) 0.0494 68.7 69.3
69(5) 0.0384 68.7 69.3
63(5) 0.0434 68.7 69.3
68(5) 0.0400 68.7 69.3
65(5) 0.0400 68.6 69.3
60(5) 0.0453 68.6 69.3
74(5) 0.0370 68.6 69.3
61(5) 0.0434 68.6 69.2
70(5) 0.0384 68.5 69.2
66(5) 0.0400 68.5 69.2
60(5) 0.0453 68.5 69.2
67(5) 0.0400 68.5 69.2
74(5) 0.0356 68.4 69.2
73(5) 0.0370 68.4 69.2
67(5) 0.0400 68.4 69.2
61(5) 0.0434 68.4 69.2
63(5) 0.0416 68.3 69.2
65(5) 0.0400 68.3 69.2
61(5) 0.0434 68.3 69.3
62(5) 0.0434 68.3 69.3
62(5) 0.0434 68.2 69.3
59(5) 0.0453 68.2 69.3
68(5) 0.0400 68.2 69.3
69(5) 0.0384 68.2 69.3
76(5) 0.0356 68.1 69.4
65(5) 0.0416 68.1 69.4
64(5) 0.0416 68.1 69.5
56(5) 0.0473 68.1 69.5
66(5) 0.0400 68.0 69.7
72(5) 0.0370 68.0 69.8
78(5) 0.03429 68.0 69.8
64(5) 0.0434 68.0 69.9
65(5) 0.0416 67.9 70.0
72(5) 0.0370 67.9 70.1
60(5) 0.0453 67.9 70.3
71(5) 0.0370 67.9 70.4
69(5) 0.0384 67.9 70.5
70(5) 0.0384 67.8 70.7
65(5) 0.0416 67.8 70.9
76(5) 0.0356 67.8 71.0
81(6) 0.03306 67.8 71.2
55(5) 0.0494 67.7 71.3
76(5) 0.0356 67.7 71.3
68(5) 0.0400 67.7 71.4
75(5) 0.0356 67.7 71.5
71(5) 0.0370 67.6 71.8
72(5) 0.0370 67.6 72.1
72(5) 0.0370 67.6 72.4
75(5) 0.0356 67.6 72.7
70(5) 0.0384 67.5 73.0
75(5) 0.0356 67.5 73.5
66(5) 0.0400 67.5 74.2
83(6) 0.03189 67.5 75.1
62(5) 0.0434 67.5 76.1
78(5) 0.03429 67.4 76.9
80(6) 0.03306 67.4 77.5
74(5) 0.0356 67.4 78.2
83(6) 0.03306 67.4 79.3
76(5) 0.0356 67.3 80.8
87(6) 0.03078 67.3 82.6
92(6) 0.02973 67.3 84.2
93(6) 0.02873 67.3 85.6
84(6) 0.03189 67.2 87.2
93(6) 0.02873 67.2 89.3
97(6) 0.02778 67.2 91.4
97(6) 0.02778 67.2 92.7
98(6) 0.02778 67.2 92.8
99(6) 0.02687 67.1 91.3
88(6) 0.03078 67.1 88.4
84(6) 0.03189 67.1 85.0
89(6) 0.02973 67.1 81.9
69(5) 0.0384 67.0 79.6
83(6) 0.03306 67.0 78.0
79(5) 0.03429 67.0 76.9
77(5) 0.03429 67.0 76.2
84(6) 0.03189 66.9 75.7
80(6) 0.03306 66.9 75.5
79(5) 0.03429 66.9 75.5
81(6) 0.03306 66.9 75.6
81(6) 0.03306 66.9 75.9
76(5) 0.0356 66.8 76.3
82(6) 0.03306 66.8 76.9
88(6) 0.03078 66.8 77.7
89(6) 0.03078 66.8 78.7
83(6) 0.03189 66.7 80.1
95(6) 0.02873 66.7 82.0
86(6) 0.03078 66.7 84.4
94(6) 0.02873 66.7 87.4
89(6) 0.02973 66.7 91.0
86(6) 0.03078 66.6 94.4
105(6) 0.02520 66.6 97.4
109(6) 0.02441 66.6 101.0
101(6) 0.02601 66.6 106.5
110(6) 0.02441 66.5 114.1
128(7) 0.02100 66.5 122.5
123(7) 0.02163 66.5 129.3
136(7) 0.01929 66.5 134.2
132(7) 0.01984 66.5 140.8
155(8) 0.01731 66.4 151.7
164(8) 0.01644 66.4 166.1
172(8) 0.01524 66.4 179.4
180(8) 0.01452 66.4 189.8
191(9) 0.01384 66.3 202.5
204(9) 0.01291 66.3 221.8
226(9) 0.01181 66.3 244.4
272(10) 0.00980 66.3 264.8
280(10) 0.00943 66.3 285.0
308(11) 0.00857 66.2 305.8
315(11) 0.00842 66.2 317.0
321(11) 0.00826 66.2 308.0
292(11) 0.00907 66.2 276.1
219(9) 0.01208 66.1 232.2
183(8) 0.01452 66.1 191.5
156(8) 0.01687 66.1 160.3
133(7) 0.01984 66.1 138.0
119(7) 0.02228 66.1 122.4
103(6) 0.02601 66.0 111.2
116(7) 0.02296 66.0 103.1
96(6) 0.02778 66.0 97.1
100(6) 0.02687 66.0 92.5
99(6) 0.02687 65.9 88.9
80(6) 0.03306 65.9 86.1
76(5) 0.03429 65.9 83.8
80(6) 0.03306 65.9 82.0
73(5) 0.0356 65.9 80.5
80(6) 0.03306 65.8 79.3
77(5) 0.03429 65.8 78.3
80(6) 0.03306 65.8 77.4
73(5) 0.0370 65.8 76.8
76(5) 0.03429 65.8 76.2
72(5) 0.0370 65.7 75.8
71(5) 0.0370 65.7 75.5
79(6) 0.03306 65.7 75.3
70(5) 0.0370 65.7 75.3
77(5) 0.03429 65.6 75.3
76(5) 0.0356 65.6 75.6
79(5) 0.03429 65.6 76.0
77(5) 0.03429 65.6 76.6
81(6) 0.03306 65.6 77.4
77(5) 0.03429 65.5 78.4
85(6) 0.03078 65.5 79.4
80(6) 0.03306 65.5 80.3
79(6) 0.03306 65.5 81.0
70(5) 0.0384 65.5 81.7
74(5) 0.0356 65.4 83.0
83(6) 0.03189 65.4 84.9
75(5) 0.0356 65.4 87.6
92(6) 0.02873 65.4 90.9
96(6) 0.02778 65.4 94.3
95(6) 0.02778 65.3 96.9
92(6) 0.02873 65.3 98.8
92(6) 0.02873 65.3 101.2
104(6) 0.02520 65.3 104.4
103(6) 0.02601 65.2 109.2
119(7) 0.02228 65.2 115.0
123(7) 0.02163 65.2 120.4
122(7) 0.02163 65.2 124.1
136(7) 0.01929 65.2 126.4
137(7) 0.01929 65.1 127.3
120(7) 0.02228 65.1 125.5
128(7) 0.02100 65.1 119.9
115(7) 0.02296 65.1 111.7
93(6) 0.02873 65.1 103.3
88(6) 0.02973 65.0 96.2
86(6) 0.03078 65.0 90.7
74(5) 0.0356 65.0 86.5
71(5) 0.0370 65.0 83.4
78(5) 0.03429 65.0 81.2
74(5) 0.0356 64.9 79.4
78(5) 0.03429 64.9 78.2
79(6) 0.03306 64.9 77.2
75(5) 0.0356 64.9 76.5
76(5) 0.03429 64.9 76.0
69(5) 0.0384 64.8 75.7
77(5) 0.03429 64.8 75.6
71(5) 0.0370 64.8 75.6
76(5) 0.0356 64.8 75.7
74(5) 0.0356 64.8 76.0
76(5) 0.03429 64.7 76.4
73(5) 0.0356 64.7 77.0
79(6) 0.03306 64.7 77.9
80(6) 0.03306 64.7 79.0
78(5) 0.03429 64.7 80.5
69(5) 0.0384 64.6 82.4
86(6) 0.03078 64.6 84.9
89(6) 0.02973 64.6 87.8
80(6) 0.03306 64.6 90.7
90(6) 0.02973 64.6 93.2
91(6) 0.02873 64.5 95.3
108(6) 0.02441 64.5 97.5
99(6) 0.02687 64.5 100.7
101(6) 0.02601 64.5 105.6
109(6) 0.02441 64.5 112.3
119(7) 0.02228 64.4 120.6
116(7) 0.02296 64.4 129.1
120(7) 0.02228 64.4 135.9
135(7) 0.01984 64.4 140.6
132(7) 0.01984 64.4 145.6
156(8) 0.01687 64.3 153.5
174(8) 0.01524 64.3 165.4
160(8) 0.01644 64.3 179.8
194(9) 0.01352 64.3 192.9
221(9) 0.01181 64.3 202.0
212(9) 0.01235 64.2 207.4
219(9) 0.01208 64.2 209.4
230(9) 0.01156 64.2 204.3
212(9) 0.01235 64.2 189.6
167(8) 0.01563 64.2 168.9
140(7) 0.01877 64.1 148.3
123(7) 0.02163 64.1 130.9
101(6) 0.02601 64.1 117.4
90(6) 0.02973 64.1 107.2
87(6) 0.02973 64.1 99.6
93(6) 0.02873 64.1 93.8
85(6) 0.03078 64.0 89.3
83(6) 0.03189 64.0 85.8
74(5) 0.0356 64.0 83.1
74(5) 0.0356 64.0 80.9
67(5) 0.0400 64.0 79.1
82(6) 0.03189 63.9 77.6
66(5) 0.0400 63.9 76.3
76(5) 0.03429 63.9 75.3
69(5) 0.0384 63.9 74.4
70(5) 0.0384 63.9 73.7
72(5) 0.0370 63.8 73.0
75(5) 0.0356 63.8 72.5
72(5) 0.0370 63.8 72.0
63(5) 0.0416 63.8 71.6
64(5) 0.0416 63.8 71.3
64(5) 0.0416 63.8 71.0
64(5) 0.0416 63.7 70.8
65(5) 0.0400 63.7 70.7
66(5) 0.0400 63.7 70.5
67(5) 0.0384 63.7 70.5
81(6) 0.03189 63.7 70.5
67(5) 0.0384 63.6 70.6
59(5) 0.0453 63.6 70.6
61(5) 0.0434 63.6 70.7
64(5) 0.0416 63.6 70.8
67(5) 0.0400 63.6 71.0
63(5) 0.0416 63.5 71.3
67(5) 0.0400 63.5 71.8
74(5) 0.0356 63.5 72.0
65(5) 0.0416 63.5 72.4
60(5) 0.0434 63.5 72.7
68(5) 0.0384 63.5 73.1
75(5) 0.03429 63.4 73.7
74(5) 0.0356 63.4 74.6
73(5) 0.0356 63.4 75.5
66(5) 0.0400 63.4 76.3
67(5) 0.0400 63.4 77.1
72(5) 0.0356 63.3 78.1
72(5) 0.0370 63.3 79.2
70(5) 0.0384 63.3 79.9
78(5) 0.03429 63.3 80.1
81(6) 0.03306 63.3 79.5
79(6) 0.03306 63.3 78.1
77(5) 0.03429 63.2 76.3
74(5) 0.0356 63.2 74.6
68(5) 0.0384 63.2 73.1
69(5) 0.0384 63.2 72.1
62(5) 0.0416 63.2 71.3
74(5) 0.0356 63.2 70.7
59(5) 0.0453 63.1 70.3
66(5) 0.0400 63.1 70.1
63(5) 0.0416 63.1 69.9
65(5) 0.0400 63.1 69.8
64(5) 0.0416 63.1 69.7
62(5) 0.0434 63.0 69.7
69(5) 0.0384 63.0 69.7
65(5) 0.0400 63.0 69.7
61(5) 0.0434 63.0 69.8
62(5) 0.0416 63.0 69.9
66(5) 0.0400 63.0 70.0
74(5) 0.0356 62.9 70.2
57(5) 0.0453 62.9 70.3
67(5) 0.0384 62.9 70.5
61(5) 0.0434 62.9 70.7
75(5) 0.0356 62.9 71.0
70(5) 0.0370 62.9 71.2
67(5) 0.0384 62.8 71.5
79(6) 0.03306 62.8 71.8
65(5) 0.0400 62.8 72.2
64(5) 0.0416 62.8 72.5
69(5) 0.0384 62.8 72.9
72(5) 0.0370 62.8 73.4
70(5) 0.0370 62.7 73.9
65(5) 0.0400 62.7 74.4
75(5) 0.03429 62.7 75.0
79(6) 0.03306 62.7 75.7
77(5) 0.03429 62.7 76.4
79(6) 0.03306 62.7 77.2
77(5) 0.03429 62.6 78.0
73(5) 0.0356 62.6 79.0
79(6) 0.03306 62.6 80.1
73(5) 0.0356 62.6 81.3
82(6) 0.03189 62.6 82.7
80(6) 0.03306 62.6 84.3
86(6) 0.03078 62.5 86.0
82(6) 0.03189 62.5 88.1
88(6) 0.02973 62.5 90.4
84(6) 0.03078 62.5 93.1
92(6) 0.02873 62.5 96.4
94(6) 0.02778 62.5 100.2
98(6) 0.02687 62.4 104.8
105(6) 0.02520 62.4 110.5
110(7) 0.02367 62.4 117.4
108(6) 0.02441 62.4 125.9
117(7) 0.02228 62.4 136.2
135(7) 0.01929 62.4 148.2
154(8) 0.01687 62.3 160.9
147(8) 0.01778 62.3 173.1
172(8) 0.01524 62.3 184.2
175(8) 0.01487 62.3 195.6
197(9) 0.01321 62.3 210.1
210(9) 0.01262 62.3 230.1
225(9) 0.01156 62.2 256.6
273(10) 0.00961 62.2 288.6
285(10) 0.00925 62.2 322.2
329(11) 0.00797 62.2 352.1
351(12) 0.00743 62.2 376.8
369(12) 0.00718 62.2 402.0
412(13) 0.00640 62.1 435.7
456(13) 0.00574 62.1 481.0
521(14) 0.00503 62.1 533.3
562(15) 0.00463 62.1 581.3
611(15) 0.00427 62.1 616.0
663(16) 0.00396 62.1 635.9
717(17) 0.00367 62.0 638.5
774(17) 0.003380 62.0 614.1
645(16) 0.00406 62.0 558.7
498(14) 0.00525 62.0 484.5
410(13) 0.00640 62.0 409.2
341(11) 0.00769 62.0 343.9
278(10) 0.00943 62.0 292.0
239(10) 0.01108 61.9 252.3
226(9) 0.01156 61.9 222.3
213(9) 0.01235 61.9 199.1
206(9) 0.01262 61.9 180.9
158(8) 0.01644 61.9 166.3
166(8) 0.01563 61.9 154.2
156(8) 0.01687 61.8 143.4
142(7) 0.01877 61.8 133.3
137(7) 0.01929 61.8 124.2
124(7) 0.02100 61.8 116.4
134(7) 0.01984 61.8 109.8
123(7) 0.02163 61.8 104.4
114(7) 0.02296 61.8 99.9
114(7) 0.02296 61.7 96.1
101(6) 0.02601 61.7 92.9
115(7) 0.02296 61.7 90.1
107(6) 0.02441 61.7 87.7
106(6) 0.02441 61.7 85.6
103(6) 0.02520 61.7 83.8
113(7) 0.02296 61.6 82.2
110(7) 0.02367 61.6 80.7
103(6) 0.02520 61.6 79.4
114(7) 0.02296 61.6 78.2
107(6) 0.02441 61.6 77.2
90(6) 0.02973 61.6 76.2
89(6) 0.02973 61.6 75.3
91(6) 0.02873 61.5 74.5
97(6) 0.02687 61.5 73.8
93(6) 0.02778 61.5 73.1
97(6) 0.02687 61.5 72.5
97(6) 0.02687 61.5 71.9
93(6) 0.02873 61.5 71.4
87(6) 0.02973 61.5 70.9
85(6) 0.03078 61.4 70.4
87(6) 0.02973 61.4 70.0
88(6) 0.02973 61.4 69.6
73(5) 0.0356 61.4 69.3
69(5) 0.0384 61.4 68.9
77(5) 0.03429 61.4 68.6
84(6) 0.03078 61.3 68.3
75(5) 0.03429 61.3 68.0
75(5) 0.03429 61.3 67.7
76(5) 0.03429 61.3 67.5
71(5) 0.0370 61.3 67.2
74(5) 0.0356 61.3 67.0
71(5) 0.0370 61.3 66.7
78(5) 0.03429 61.2 66.5
76(5) 0.03429 61.2 66.3
64(5) 0.0416 61.2 66.1
66(5) 0.0400 61.2 65.9
67(5) 0.0384 61.2 65.8
68(5) 0.0384 61.2 65.6
71(5) 0.0370 61.2 65.4
67(5) 0.0384 61.1 65.3
72(5) 0.0356 61.1 65.2
62(5) 0.0416 61.1 65.0
71(5) 0.0370 61.1 64.9
74(5) 0.0356 61.1 64.8
69(5) 0.0384 61.1 64.7
72(5) 0.0356 61.1 64.6
72(5) 0.0370 61.0 64.5
63(5) 0.0416 61.0 64.3
71(5) 0.0370 61.0 64.3
77(5) 0.03429 61.0 64.2
71(5) 0.0370 61.0 64.1
62(5) 0.0416 61.0 64.0
67(5) 0.0384 61.0 63.9
66(5) 0.0400 61.0 63.8
66(5) 0.0400 60.9 63.7
72(5) 0.0370 60.9 63.7
68(5) 0.0384 60.9 63.6
70(5) 0.0370 60.9 63.5
68(5) 0.0384 60.9 63.5
65(5) 0.0400 60.9 63.4
69(5) 0.0384 60.9 63.3
63(5) 0.0416 60.8 63.3
62(5) 0.0416 60.8 63.2
65(5) 0.0400 60.8 63.2
59(5) 0.0453 60.8 63.1
69(5) 0.0384 60.8 63.1
70(5) 0.0370 60.8 63.0
63(5) 0.0416 60.8 63.0
71(5) 0.0370 60.8 62.9
56(5) 0.0473 60.7 62.9
63(5) 0.0416 60.7 62.8
66(5) 0.0400 60.7 62.8
75(5) 0.03429 60.7 62.8
60(5) 0.0434 60.7 62.7
63(5) 0.0416 60.7 62.7
68(5) 0.0384 60.7 62.7
71(5) 0.0370 60.6 62.7
65(5) 0.0400 60.6 62.7
53(5) 0.0494 60.6 62.7
69(5) 0.0384 60.6 62.7
65(5) 0.0400 60.6 62.7
58(5) 0.0453 60.6 62.7
70(5) 0.0370 60.6 62.7
65(5) 0.0400 60.6 62.8
68(5) 0.0384 60.5 62.8
53(5) 0.0494 60.5 62.8
65(5) 0.0400 60.5 62.9
60(5) 0.0434 60.5 62.9
58(5) 0.0453 60.5 63.1
62(5) 0.0416 60.5 63.2
58(5) 0.0453 60.5 63.4
71(5) 0.0370 60.5 63.5
66(5) 0.0400 60.4 63.6
65(5) 0.0400 60.4 63.7
61(5) 0.0434 60.4 63.9
62(5) 0.0416 60.4 64.1
70(5) 0.0370 60.4 64.4
66(5) 0.0400 60.4 64.7
69(5) 0.0384 60.4 64.8
75(5) 0.03429 60.4 64.9
63(5) 0.0416 60.3 64.9
67(5) 0.0384 60.3 64.7
65(5) 0.0400 60.3 64.4
63(5) 0.0416 60.3 64.0
60(5) 0.0434 60.3 63.6
62(5) 0.0416 60.3 63.4
68(5) 0.0384 60.3 63.2
70(5) 0.0370 60.3 63.1
64(5) 0.0416 60.2 63.1
67(5) 0.0384 60.2 63.1
64(5) 0.0416 60.2 63.1
63(5) 0.0416 60.2 63.2
57(5) 0.0453 60.2 63.4
66(5) 0.0400 60.2 63.6
67(5) 0.0384 60.2 63.9
66(5) 0.0400 60.2 64.3
66(5) 0.0400 60.1 64.8
62(5) 0.0416 60.1 65.4
67(5) 0.0400 60.1 66.0
75(5) 0.03429 60.1 66.6
69(5) 0.0384 60.1 67.2
70(5) 0.0370 60.1 67.9
68(5) 0.0384 60.1 69.1
72(5) 0.0370 60.1 70.5
85(6) 0.03078 60.1 72.0
82(6) 0.03189 60.0 73.4
82(6) 0.03189 60.0 74.5
78(6) 0.03306 60.0 75.8
79(6) 0.03306 60.0 77.9
73(5) 0.0356 60.0 80.5
89(6) 0.02973 60.0 83.2
85(6) 0.03078 60.0 85.5
89(6) 0.02973 60.0 88.0
96(6) 0.02687 59.9 90.9
93(6) 0.02778 59.9 93.9
104(6) 0.02520 59.9 95.7
108(6) 0.02441 59.9 95.4
94(6) 0.02778 59.9 92.7
93(6) 0.02778 59.9 87.9
93(6) 0.02778 59.9 82.4
84(6) 0.03078 59.9 77.6
81(6) 0.03189 59.9 73.8
69(5) 0.0384 59.8 71.0
75(5) 0.0356 59.8 68.9
82(6) 0.03189 59.8 67.4
87(6) 0.03078 59.8 66.2
78(6) 0.03306 59.8 65.3
75(5) 0.03429 59.8 64.6
78(6) 0.03306 59.8 64.1
89(6) 0.02973 59.8 63.7
75(5) 0.03429 59.8 63.3
94(6) 0.02778 59.7 63.0
70(5) 0.0370 59.7 62.7
68(5) 0.0384 59.7 62.5
79(6) 0.03306 59.7 61.9
77(5) 0.03429 59.7 61.8
72(5) 0.0356 59.7 61.6
67(5) 0.0384 59.7 61.5
75(5) 0.03429 59.7 61.5
75(5) 0.03429 59.7 61.4
77(5) 0.03429 59.6 61.4
83(6) 0.03189 59.6 61.3
77(5) 0.03429 59.6 61.3
73(5) 0.0356 59.6 61.4
73(5) 0.0356 59.6 61.4
83(6) 0.03189 59.6 61.5
83(6) 0.03189 59.6 61.5
76(5) 0.03429 59.6 61.6
77(5) 0.03429 59.6 61.6
68(5) 0.0384 59.6 61.7
66(5) 0.0400 59.5 61.8
73(5) 0.0356 59.5 62.0
61(5) 0.0434 59.5 62.2
64(5) 0.0416 59.5 62.5
66(5) 0.0400 59.5 62.8
69(5) 0.0384 59.5 63.0
75(5) 0.0356 59.5 63.2
70(5) 0.0370 59.5 63.5
64(5) 0.0400 59.5 63.8
68(5) 0.0384 59.4 64.2
76(5) 0.03429 59.4 64.7
58(5) 0.0453 59.4 65.0
64(5) 0.0400 59.4 65.3
76(5) 0.03429 59.4 65.9
70(5) 0.0370 59.4 65.9
68(5) 0.0384 59.4 65.7
68(5) 0.0384 59.4 65.4
71(5) 0.0370 59.4 65.1
62(5) 0.0416 59.4 65.0
65(5) 0.0400 59.3 65.0
71(5) 0.0370 59.3 65.3
71(5) 0.0370 59.3 65.8
64(5) 0.0416 59.3 66.5
71(5) 0.0370 59.3 67.3
64(5) 0.0416 59.3 68.0
73(5) 0.0356 59.3 68.6
67(5) 0.0400 59.3 69.3
69(5) 0.0384 59.3 70.3
75(5) 0.03429 59.3 71.8
72(5) 0.0356 59.2 73.9
72(5) 0.0356 59.2 76.4
80(6) 0.03306 59.2 78.8
67(5) 0.0384 59.2 80.7
84(6) 0.03078 59.2 82.1
72(5) 0.0356 59.2 84.0
85(6) 0.03078 59.2 87.1
88(6) 0.02973 59.2 91.2
89(6) 0.02873 59.2 95.3
100(6) 0.02601 59.2 98.3
96(6) 0.02687 59.2 100.1
111(7) 0.02367 59.1 100.7
94(6) 0.02778 59.1 99.2
98(6) 0.02601 59.1 94.7
72(5) 0.0356 59.1 88.6
64(5) 0.0400 59.1 82.5
70(5) 0.0370 59.1 77.6
66(5) 0.0400 59.1 73.8
63(5) 0.0416 59.1 71.0
71(5) 0.0370 59.1 68.9
59(5) 0.0434 59.1 67.3
65(5) 0.0400 59.1 66.1
65(5) 0.0400 59.0 65.2
64(5) 0.0400 59.0 64.5
63(5) 0.0416 59.0 63.9
61(5) 0.0434 59.0 63.4
60(5) 0.0434 59.0 63.0
63(5) 0.0416 59.0 62.6
65(5) 0.0400 59.0 62.4
60(5) 0.0434 59.0 62.1
63(5) 0.0416 59.0 61.9
63(5) 0.0416 59.0 61.7
56(5) 0.0453 59.0 61.6
59(5) 0.0434 58.9 61.5
59(5) 0.0434 58.9 61.3
63(5) 0.0416 58.9 61.2
62(5) 0.0416 58.9 61.2
57(5) 0.0453 58.9 61.1
57(5) 0.0453 58.9 61.0
62(5) 0.0416 58.9 60.9
65(5) 0.0400 58.9 60.9
56(5) 0.0453 58.9 60.8
69(5) 0.0370 58.9 60.8
54(5) 0.0473 58.9 60.8
68(5) 0.0384 58.9 60.7
69(5) 0.0384 58.8 60.7
59(5) 0.0434 58.8 60.7
64(5) 0.0400 58.8 60.6
62(5) 0.0416 58.8 60.6
64(5) 0.0400 58.8 60.6
63(5) 0.0416 58.8 60.6
67(5) 0.0384 58.8 60.6
67(5) 0.0384 58.8 60.6
71(5) 0.0370 58.8 60.6
63(5) 0.0416 58.8 60.6
61(5) 0.0416 58.8 60.6
71(5) 0.0370 58.8 60.6
59(5) 0.0434 58.7 60.6
63(5) 0.0416 58.7 60.6
64(5) 0.0400 58.7 60.6
66(5) 0.0400 58.7 60.6
69(5) 0.0384 58.7 60.6
65(5) 0.0400 58.7 60.6
67(5) 0.0400 58.7 60.7
53(5) 0.0494 58.7 60.7
64(5) 0.0400 58.7 60.7
67(5) 0.0384 58.7 60.7
64(5) 0.0400 58.7 60.8
67(5) 0.0384 58.7 60.8
59(5) 0.0453 58.6 60.9
61(5) 0.0434 58.6 60.9
64(5) 0.0400 58.6 61.0
68(5) 0.0384 58.6 61.1
62(5) 0.0416 58.6 61.2
63(5) 0.0416 58.6 61.3
56(5) 0.0473 58.6 61.4
60(5) 0.0434 58.6 61.5
61(5) 0.0434 58.6 61.7
65(5) 0.0400 58.6 61.9
71(5) 0.0370 58.6 62.2
63(5) 0.0416 58.6 62.5
64(5) 0.0400 58.6 62.9
72(5) 0.0356 58.5 63.4
57(5) 0.0453 58.5 64.0
66(5) 0.0400 58.5 64.6
63(5) 0.0416 58.5 65.2
64(5) 0.0416 58.5 65.7
64(5) 0.0400 58.5 66.2
74(5) 0.03429 58.5 67.0
66(5) 0.0400 58.5 68.1
72(5) 0.0370 58.5 69.7
73(5) 0.0356 58.5 71.4
72(5) 0.0356 58.5 72.9
69(5) 0.0370 58.5 74.0
75(5) 0.03429 58.5 75.1
73(5) 0.0356 58.5 76.6
73(5) 0.0356 58.4 79.0
86(6) 0.03078 58.4 81.8
77(5) 0.03429 58.4 84.2
80(6) 0.03306 58.4 85.9
84(6) 0.03078 58.4 86.8
98(6) 0.02687 58.4 86.7
91(6) 0.02873 58.4 84.8
86(6) 0.02973 58.4 81.3
75(5) 0.03429 58.4 77.2
65(5) 0.0400 58.4 73.6
70(5) 0.0370 58.4 70.8
76(5) 0.03429 58.4 68.8
63(5) 0.0416 58.4 67.2
74(5) 0.03429 58.4 66.1
74(5) 0.0356 58.3 65.2
65(5) 0.0400 58.3 64.6
73(5) 0.0356 58.3 64.1
64(5) 0.0400 58.3 63.7
66(5) 0.0400 58.3 63.4
75(5) 0.03429 58.3 63.2
63(5) 0.0416 58.3 63.0
62(5) 0.0416 58.3 62.9
63(5) 0.0416 58.3 62.8
69(5) 0.0370 58.3 62.8
65(5) 0.0400 58.3 62.7
68(5) 0.0384 58.3 62.7
72(5) 0.0370 58.3 62.7
55(5) 0.0473 58.3 62.7
81(6) 0.03189 58.3 62.8
61(5) 0.0434 58.3 62.8
58(5) 0.0453 58.2 62.9
66(5) 0.0384 58.2 62.9
58(5) 0.0453 58.2 63.0
64(5) 0.0400 58.2 63.2
56(5) 0.0473 58.2 63.4
65(5) 0.0400 58.2 63.5
65(5) 0.0400 58.2 63.7
65(5) 0.0400 58.2 63.8
63(5) 0.0416 58.2 64.0
68(5) 0.0384 58.2 64.2
69(5) 0.0370 58.2 64.2
67(5) 0.0384 58.2 64.2
70(5) 0.0370 58.2 64.2
62(5) 0.0416 58.2 64.1
59(5) 0.0434 58.2 64.0
69(5) 0.0370 58.2 64.0
55(5) 0.0473 58.1 64.1
62(5) 0.0416 58.1 64.2
69(5) 0.0370 58.1 64.3
73(5) 0.0356 58.1 64.4
66(5) 0.0400 58.1 64.5
79(6) 0.03306 58.1 64.7
70(5) 0.0370 58.1 64.9
62(5) 0.0416 58.1 65.1
72(5) 0.0356 58.1 65.3
67(5) 0.0384 58.1 65.6
68(5) 0.0384 58.1 65.8
75(5) 0.03429 58.1 66.1
66(5) 0.0384 58.1 66.5
70(5) 0.0370 58.1 66.9
75(5) 0.03429 58.1 67.3
79(6) 0.03306 58.1 67.8
75(5) 0.03429 58.1 68.2
83(6) 0.03078 58.0 68.8
65(5) 0.0400 58.0 69.4
82(6) 0.03189 58.0 70.2
79(6) 0.03306 58.0 71.1
72(5) 0.0356 58.0 72.0
82(6) 0.03189 58.0 73.0
78(6) 0.03306 58.0 74.0
69(5) 0.0370 58.0 75.1
84(6) 0.03078 58.0 76.4
79(6) 0.03306 58.0 77.8
89(6) 0.02873 58.0 79.4
82(6) 0.03189 58.0 81.1
96(6) 0.02687 58.0 83.3
77(6) 0.03306 58.0 85.6
97(6) 0.02687 58.0 87.8
106(6) 0.02441 58.0 89.3
101(6) 0.02520 58.0 90.4
100(6) 0.02601 58.0 91.3
103(6) 0.02520 58.0 92.5
97(6) 0.02687 57.9 94.1
105(6) 0.02441 57.9 95.9
108(7) 0.02367 57.9 97.4
106(6) 0.02441 57.9 98.7
112(7) 0.02296 57.9 99.4
103(6) 0.02520 57.9 99.2
116(7) 0.02228 57.9 98.5
96(6) 0.02687 57.9 97.7
108(7) 0.02367 57.9 97.3
104(6) 0.02520 57.9 97.7
115(7) 0.02228 57.9 98.7
109(7) 0.02367 57.9 100.4
124(7) 0.02100 57.9 102.7
109(7) 0.02367 57.9 105.6
128(7) 0.02041 57.9 109.2
126(7) 0.02041 57.9 113.5
132(7) 0.01929 57.9 118.6
130(7) 0.01984 57.9 124.7
141(7) 0.01826 57.9 132.0
159(8) 0.01602 57.9 140.6
156(8) 0.01644 57.8 150.9
166(8) 0.01563 57.8 163.2
187(9) 0.01384 57.8 177.8
196(9) 0.01321 57.8 194.6
219(9) 0.01181 57.8 213.6
254(10) 0.01020 57.8 233.7
262(10) 0.00980 57.8 254.0
285(11) 0.00907 57.8 273.6
292(11) 0.00890 57.8 293.3
328(11) 0.00783 57.8 315.2
347(12) 0.00743 57.8 341.8
375(12) 0.00683 57.8 375.5
432(13) 0.00601 57.8 416.9
467(14) 0.00549 57.8 464.8
499(14) 0.00518 57.8 515.1
535(14) 0.00482 57.8 562.6
583(15) 0.00444 57.8 603.0
618(15) 0.00422 57.8 636.0
691(16) 0.00376 57.8 664.3
744(17) 0.003501 57.8 688.2
790(18) 0.003265 57.8 702.3
841(18) 0.003052 57.8 697.0
753(17) 0.003420 57.8 665.9
663(16) 0.00391 57.7 611.4
573(15) 0.00450 57.7 543.8
489(14) 0.00525 57.7 474.3
415(13) 0.00620 57.7 410.2
343(12) 0.00756 57.7 354.9
308(11) 0.00842 57.7 308.8
263(10) 0.00980 57.7 271.0
244(10) 0.01063 57.7 240.2
219(9) 0.01181 57.7 215.0
192(9) 0.01352 57.7 194.4
175(8) 0.01487 57.7 177.4
170(8) 0.01524 57.7 163.3
153(8) 0.01687 57.7 151.5
149(8) 0.01731 57.7 141.6
129(7) 0.01984 57.7 133.1
123(7) 0.02100 57.7 125.9
131(7) 0.01984 57.7 119.7
123(7) 0.02100 57.7 114.3
104(6) 0.02520 57.7 109.6
108(7) 0.02367 57.7 105.5
130(7) 0.01984 57.7 102.0
104(6) 0.02441 57.7 98.8
98(6) 0.02601 57.7 96.0
100(6) 0.02601 57.7 93.6
98(6) 0.02601 57.7 91.4
90(6) 0.02873 57.7 89.5
102(6) 0.02520 57.6 87.7
89(6) 0.02873 57.6 86.2
93(6) 0.02778 57.6 84.8
102(6) 0.02520 57.6 83.6
90(6) 0.02873 57.6 82.5
100(6) 0.02601 57.6 81.7
92(6) 0.02778 57.6 80.9
98(6) 0.02601 57.6 80.3
80(6) 0.03189 57.6 79.7
83(6) 0.03078 57.6 79.1
86(6) 0.02973 57.6 78.6
86(6) 0.02973 57.6 78.1
88(6) 0.02973 57.6 77.6
85(6) 0.03078 57.6 77.0
98(6) 0.02687 57.6 76.4
82(6) 0.03189 57.6 75.6
90(6) 0.02873 57.6 74.7
93(6) 0.02778 57.6 73.8
88(6) 0.02973 57.6 72.9
85(6) 0.03078 57.6 72.2
95(6) 0.02778 57.6 71.5
87(6) 0.02973 57.6 71.0
73(5) 0.0356 57.6 70.5
91(6) 0.02873 57.6 70.1
81(6) 0.03189 57.6 69.7
92(6) 0.02873 57.6 69.5
89(6) 0.02973 57.6 69.2
86(6) 0.03078 57.6 69.1
84(6) 0.03078 57.6 69.0
82(6) 0.03189 57.6 68.9
76(5) 0.03429 57.6 68.9
80(6) 0.03306 57.6 69.0
80(6) 0.03189 57.5 69.1
94(6) 0.02778 57.5 69.4
85(6) 0.03078 57.5 69.7
77(5) 0.03429 57.5 70.1
84(6) 0.03078 57.5 70.7
79(6) 0.03306 57.5 71.5
95(6) 0.02687 57.5 72.6
95(6) 0.02778 57.5 74.0
86(6) 0.03078 57.5 75.9
86(6) 0.03078 57.5 78.2
82(6) 0.03189 57.5 80.8
98(6) 0.02687 57.5 83.5
99(6) 0.02601 57.5 85.7
95(6) 0.02778 57.5 87.8
95(6) 0.02778 57.5 90.7
103(6) 0.02520 57.5 95.1
109(7) 0.02367 57.5 101.2
119(7) 0.02163 57.5 108.7
117(7) 0.02228 57.5 116.1
132(7) 0.01984 57.5 121.7
141(7) 0.01877 57.5 126.5
150(8) 0.01731 57.5 132.9
166(8) 0.01563 57.5 142.7
159(8) 0.01644 57.5 155.0
162(8) 0.01602 57.5 166.3
183(8) 0.01417 57.5 173.9
203(9) 0.01291 57.5 177.8
182(8) 0.01417 57.5 177.0
181(8) 0.01417 57.5 168.0
173(8) 0.01487 57.5 151.6
133(7) 0.01929 57.5 133.1
114(7) 0.02296 57.5 117.0
103(6) 0.02520 57.5 104.4
90(6) 0.02873 57.5 95.1
92(6) 0.02873 57.5 88.1
83(6) 0.03078 57.5 82.9
80(6) 0.03306 57.5 79.0
79(6) 0.03306 57.5 76.0
85(6) 0.03078 57.5 73.6
71(5) 0.0370 57.5 71.7
74(5) 0.0356 57.5 70.2
70(5) 0.0370 57.4 68.9
72(5) 0.0356 57.4 67.8
71(5) 0.0370 57.4 66.9
68(5) 0.0384 57.4 66.2
68(5) 0.0384 57.4 65.5
67(5) 0.0384 57.4 65.0
68(5) 0.0384 57.4 64.5
62(5) 0.0416 57.4 64.0
69(5) 0.0370 57.4 63.6
67(5) 0.0384 57.4 63.3
55(5) 0.0473 57.4 63.0
59(5) 0.0434 57.4 62.7
63(5) 0.0416 57.4 62.5
72(5) 0.0356 57.4 62.2
60(5) 0.0434 57.4 62.0
68(5) 0.0384 57.4 61.8
59(5) 0.0434 57.4 61.7
62(5) 0.0416 57.4 61.5
67(5) 0.0384 57.4 61.4
66(5) 0.0400 57.4 61.2
73(5) 0.0356 57.4 61.1
61(5) 0.0434 57.4 61.0
64(5) 0.0400 57.4 60.9
63(5) 0.0416 57.4 60.8
70(5) 0.0370 57.4 60.7
64(5) 0.0400 57.4 60.6
72(5) 0.0370 57.4 60.5
70(5) 0.0370 57.4 60.4
64(5) 0.0400 57.4 60.4
61(5) 0.0416 57.4 60.3
59(5) 0.0453 57.4 60.3
56(5) 0.0473 57.4 60.2
58(5) 0.0453 57.4 60.2
61(5) 0.0434 57.4 60.1
69(5) 0.0384 57.4 60.1
62(5) 0.0416 57.4 60.0
63(5) 0.0416 57.4 60.0
67(5) 0.0384 57.4 60.0
65(5) 0.0400 57.4 60.0
65(5) 0.0400 57.4 59.9
65(5) 0.0400 57.4 59.9
55(5) 0.0473 57.4 59.9
53(5) 0.0494 57.4 59.9
64(5) 0.0400 57.4 59.9
53(5) 0.0494 57.4 60.0
60(5) 0.0434 57.4 60.0
63(5) 0.0416 57.4 60.0
67(5) 0.0384 57.4 60.0
68(5) 0.0384 57.4 60.1
58(5) 0.0453 57.4 60.1
59(5) 0.0434 57.4 60.1
55(5) 0.0473 57.4 60.2
54(5) 0.0473 57.4 60.2
61(5) 0.0434 57.4 60.3
61(5) 0.0434 57.4 60.4
61(5) 0.0416 57.4 60.6
56(5) 0.0473 57.4 60.7
58(5) 0.0453 57.4 60.9
62(5) 0.0416 57.4 61.1
53(5) 0.0494 57.4 61.2
64(5) 0.0400 57.4 61.3
52(5) 0.0494 57.4 61.4
62(5) 0.0416 57.4 61.5
65(5) 0.0400 57.4 61.6
59(5) 0.0434 57.4 61.6
73(5) 0.0356 57.4 61.5
66(5) 0.0400 57.4 61.3
62(5) 0.0416 57.4 61.1
63(5) 0.0416 57.4 60.9
68(5) 0.0384 57.4 60.7
63(5) 0.0416 57.4 60.6
59(5) 0.0453 57.4 60.6
62(5) 0.0416 57.4 60.6
65(5) 0.0400 57.4 60.6
65(5) 0.0400 57.4 60.7
66(5) 0.0400 57.4 60.7
63(5) 0.0400 57.4 60.8
61(5) 0.0434 57.4 60.9
72(5) 0.0356 57.4 61.0
64(5) 0.0400 57.4 61.2
65(5) 0.0400 57.4 61.4
59(5) 0.0434 57.4 61.7
66(5) 0.0400 57.4 62.0
63(5) 0.0416 57.4 62.3
54(5) 0.0473 57.4 62.6
59(5) 0.0434 57.4 62.8
59(5) 0.0434 57.4 63.0
57(5) 0.0453 57.3 63.2
60(5) 0.0434 57.3 63.3
62(5) 0.0416 57.3 63.4
60(5) 0.0434 57.3 63.3
74(5) 0.03429 57.3 63.0
64(5) 0.0400 57.3 62.6
59(5) 0.0434 57.3 62.2
55(5) 0.0473 57.3 61.9
66(5) 0.0400 57.3 61.6
59(5) 0.0434 57.3 61.3
58(5) 0.0453 57.3 61.1
62(5) 0.0416 57.3 61.0
64(5) 0.0400 57.3 61.0
68(5) 0.0384 57.3 61.0
63(5) 0.0416 57.3 61.0
67(5) 0.0384 57.3 61.0
59(5) 0.0434 57.3 61.1
68(5) 0.0384 57.3 61.3
68(5) 0.0370 57.3 61.5
60(5) 0.0434 57.3 61.7
66(5) 0.0400 57.3 62.0
61(5) 0.0416 57.3 62.3
65(5) 0.0400 57.3 62.7
67(5) 0.0384 57.3 63.3
71(5) 0.0370 57.3 63.9
71(5) 0.0370 57.3 64.7
67(5) 0.0384 57.3 65.5
62(5) 0.0416 57.3 66.5
72(5) 0.0356 57.3 67.4
76(5) 0.03429 57.3 68.4
69(5) 0.0370 57.3 69.3
76(5) 0.03429 57.3 70.3
86(6) 0.02973 57.3 71.6
86(6) 0.02973 57.3 73.2
78(6) 0.03306 57.3 75.1
90(6) 0.02873 57.3 77.4
82(6) 0.03078 57.3 79.8
90(6) 0.02873 57.3 82.1
81(6) 0.03189 57.3 84.0
109(7) 0.02367 57.3 85.5
93(6) 0.02778 57.3 86.8
93(6) 0.02778 57.3 87.9
91(6) 0.02873 57.3 88.3
89(6) 0.02873 57.4 87.7
94(6) 0.02687 57.4 85.8
86(6) 0.02973 57.4 82.9
89(6) 0.02873 57.4 79.1
83(6) 0.03078 57.4 75.8
77(6) 0.03306 57.4 73.0
79(6) 0.03306 57.4 70.6
70(5) 0.0370 57.4 68.6
68(5) 0.0384 57.4 67.0
73(5) 0.0356 57.4 65.7
65(5) 0.0400 57.4 64.6
54(5) 0.0473 57.4 63.8
62(5) 0.0416 57.4 63.1
60(5) 0.0434 57.4 62.5
64(5) 0.0400 57.4 62.0
62(5) 0.0416 57.4 61.6
61(5) 0.0434 57.4 61.3
72(5) 0.0356 57.4 61.0
60(5) 0.0434 57.4 60.7
61(5) 0.0416 57.4 60.5
74(5) 0.03429 57.4 60.3
67(5) 0.0384 57.4 60.1
65(5) 0.0400 57.4 60.0
62(5) 0.0416 57.4 59.9
67(5) 0.0384 57.4 59.8
66(5) 0.0384 57.4 59.7
63(5) 0.0416 57.4 59.6
76(5) 0.03429 57.4 59.5
63(5) 0.0416 57.4 59.5
74(5) 0.03429 57.4 59.4
65(5) 0.0400 57.4 59.4
60(5) 0.0416 57.4 59.3
65(5) 0.0400 57.4 59.3
69(5) 0.0370 57.4 59.2
69(5) 0.0370 57.4 59.2
73(5) 0.0356 57.4 59.2
67(5) 0.0384 57.4 59.2
60(5) 0.0434 57.4 59.2
58(5) 0.0453 57.4 59.2
71(5) 0.0356 57.4 59.2
73(5) 0.0356 57.4 59.2
59(5) 0.0434 57.4 59.2
61(5) 0.0416 57.4 59.2
63(5) 0.0416 57.4 59.3
65(5) 0.0400 57.4 59.2
66(5) 0.0400 57.4 59.2
67(5) 0.0384 57.4 59.2
67(5) 0.0384 57.4 59.3
67(5) 0.0384 57.4 59.3
61(5) 0.0416 57.4 59.3
68(5) 0.0370 57.4 59.4
59(5) 0.0434 57.4 59.4
70(5) 0.0370 57.4 59.5
67(5) 0.0384 57.4 59.5
60(5) 0.0434 57.4 59.6
67(5) 0.0384 57.4 59.6
65(5) 0.0400 57.4 59.7
63(5) 0.0400 57.4 59.8
56(5) 0.0453 57.4 59.9
64(5) 0.0400 57.4 59.9
57(5) 0.0453 57.4 60.0
60(5) 0.0434 57.4 60.1
65(5) 0.0400 57.4 60.2
57(5) 0.0453 57.4 60.3
65(5) 0.0400 57.4 60.5
69(5) 0.0370 57.4 60.6
66(5) 0.0384 57.4 60.7
62(5) 0.0416 57.4 60.9
61(5) 0.0416 57.4 61.1
63(5) 0.0416 57.4 61.3
58(5) 0.0434 57.4 61.5
68(5) 0.0384 57.4 61.7
64(5) 0.0400 57.4 62.0
58(5) 0.0434 57.4 62.3
58(5) 0.0453 57.4 62.6
57(5) 0.0453 57.4 62.9
57(5) 0.0453 57.4 63.4
65(5) 0.0400 57.4 63.8
64(5) 0.0416 57.4 64.4
62(5) 0.0416 57.4 65.0
77(5) 0.03429 57.4 65.7
67(5) 0.0384 57.4 66.6
71(5) 0.0370 57.4 67.6
67(5) 0.0384 57.4 68.9
76(5) 0.03429 57.4 70.4
66(5) 0.0384 57.4 72.2
83(6) 0.03078 57.4 74.2
83(6) 0.03189 57.4 76.3
83(6) 0.03189 57.4 78.6
83(6) 0.03189 57.4 81.3
86(6) 0.02973 57.4 84.9
91(6) 0.02873 57.4 89.6
90(6) 0.02973 57.4 95.2
94(6) 0.02778 57.4 101.3
109(7) 0.02367 57.4 107.0
120(7) 0.02163 57.5 112.3
122(7) 0.02163 57.5 118.3
128(7) 0.02041 57.5 126.3
130(7) 0.01984 57.5 136.6
158(8) 0.01644 57.5 148.0
179(8) 0.01452 57.5 158.9
169(8) 0.01524 57.5 167.9
186(9) 0.01384 57.5 173.8
183(8) 0.01417 57.5 177.2
176(8) 0.01487 57.5 180.4
172(8) 0.01524 57.5 185.3
180(8) 0.01452 57.5 191.3
200(9) 0.01291 57.5 196.0
212(9) 0.01208 57.5 197.8
223(9) 0.01156 57.5 195.8
205(9) 0.01262 57.5 187.7
181(8) 0.01452 57.5 173.6
138(7) 0.01877 57.5 156.9
130(7) 0.01984 57.5 141.6
117(7) 0.02228 57.5 129.1
106(6) 0.02441 57.5 119.5
97(6) 0.02687 57.5 112.4
101(6) 0.02601 57.5 107.3
106(6) 0.02441 57.5 103.4
118(7) 0.02228 57.5 100.2
92(6) 0.02873 57.5 97.1
95(6) 0.02778 57.5 94.0
90(6) 0.02873 57.5 91.0
91(6) 0.02873 57.5 88.3
83(6) 0.03189 57.5 86.3
80(6) 0.03189 57.5 85.0
77(5) 0.03429 57.5 84.3
76(5) 0.03429 57.5 84.1
83(6) 0.03189 57.5 84.2
83(6) 0.03189 57.5 84.3
93(6) 0.02778 57.5 84.5
71(5) 0.0370 57.5 84.7
78(6) 0.03306 57.5 84.8
104(6) 0.02520 57.5 84.6
91(6) 0.02873 57.5 84.1
99(6) 0.02601 57.5 83.2
85(6) 0.03078 57.5 82.0
86(6) 0.02973 57.5 80.9
88(6) 0.02973 57.5 80.0
71(5) 0.0370 57.5 79.1
83(6) 0.03078 57.5 78.3
85(6) 0.03078 57.5 77.6
84(6) 0.03078 57.5 77.2
81(6) 0.03189 57.5 76.9
90(6) 0.02873 57.6 76.5
77(6) 0.03306 57.6 75.4
81(6) 0.03189 57.6 73.7
89(6) 0.02873 57.6 71.6
87(6) 0.02973 57.6 69.7
83(6) 0.03078 57.6 68.0
75(5) 0.03429 57.6 66.6
84(6) 0.03189 57.6 65.5
73(5) 0.0370 57.6 64.7
94(6) 0.02778 57.6 64.0
73(5) 0.0356 57.6 63.4
84(6) 0.03078 57.6 63.0
70(5) 0.0370 57.6 62.6
77(6) 0.03306 57.6 62.3
68(5) 0.0384 57.6 62.0
76(5) 0.03429 57.6 61.8
82(6) 0.03078 57.6 61.6
79(6) 0.03306 57.6 61.4
72(5) 0.0356 57.6 61.3
78(6) 0.03306 57.6 61.2
73(5) 0.0356 57.6 61.1
70(5) 0.0370 57.6 61.0
72(5) 0.0356 57.6 61.0
66(5) 0.0384 57.6 60.9
57(5) 0.0453 57.6 60.9
69(5) 0.0370 57.6 60.9
69(5) 0.0370 57.6 60.9
67(5) 0.0384 57.6 60.9
53(5) 0.0473 57.6 60.9
62(5) 0.0416 57.6 61.0
58(5) 0.0453 57.6 61.0
57(5) 0.0453 57.6 61.1
64(5) 0.0400 57.6 61.2
56(5) 0.0453 57.6 61.4
57(5) 0.0453 57.6 61.5
53(5) 0.0494 57.6 61.7
67(5) 0.0384 57.6 61.8
62(5) 0.0434 57.6 61.9
59(5) 0.0434 57.6 62.0
62(5) 0.0416 57.6 62.2
63(5) 0.0400 57.7 62.2
56(5) 0.0453 57.7 62.2
59(5) 0.0434 57.7 62.2
60(5) 0.0416 57.7 62.1
67(5) 0.0384 57.7 62.1
59(5) 0.0434 57.7 62.2
66(5) 0.0384 57.7 62.3
50(4) 0.0517 57.7 62.6
62(5) 0.0416 57.7 62.8
53(5) 0.0473 57.7 63.2
61(5) 0.0416 57.7 63.7
67(5) 0.0384 57.7 64.3
67(5) 0.0384 57.7 65.1
64(5) 0.0400 57.7 66.1
66(5) 0.0384 57.7 67.4
72(5) 0.0356 57.7 69.0
75(5) 0.03429 57.7 70.8
72(5) 0.0356 57.7 72.6
60(5) 0.0434 57.7 74.2
77(6) 0.03306 57.7 75.9
76(6) 0.03306 57.7 78.2
75(5) 0.03429 57.7 81.5
85(6) 0.02973 57.7 85.9
85(6) 0.02973 57.7 90.8
90(6) 0.02873 57.7 95.2
91(6) 0.02873 57.7 98.8
108(7) 0.02367 57.7 102.7
108(7) 0.02367 57.7 108.4
118(7) 0.02163 57.7 115.9
118(7) 0.02163 57.7 123.2
131(7) 0.01929 57.7 128.4
125(7) 0.02041 57.7 131.1
128(7) 0.01984 57.7 130.5
110(7) 0.02296 57.7 124.9
103(6) 0.02441 57.8 114.9
101(6) 0.02520 57.8 104.0
95(6) 0.02687 57.8 94.7
76(6) 0.03306 57.8 87.6
78(6) 0.03306 57.8 82.5
80(6) 0.03189 57.8 79.0
81(6) 0.03189 57.8 76.5
81(6) 0.03189 57.8 74.7
69(5) 0.0370 57.8 73.3
72(5) 0.0356 57.8 72.3
82(6) 0.03078 57.8 71.5
69(5) 0.0370 57.8 70.9
77(6) 0.03306 57.8 70.3
74(5) 0.03429 57.8 69.5
73(5) 0.0356 57.8 68.6
60(5) 0.0434 57.8 67.5
71(5) 0.0356 57.8 66.5
66(5) 0.0384 57.8 65.7
56(5) 0.0453 57.8 65.0
65(5) 0.0400 57.8 64.6
65(5) 0.0400 57.8 64.3
61(5) 0.0416 57.8 64.1
63(5) 0.0400 57.8 63.9
62(5) 0.0416 57.8 63.8
63(5) 0.0400 57.8 63.8
67(5) 0.0384 57.8 63.8
55(5) 0.0453 57.8 64.0
60(5) 0.0434 57.8 64.2
60(5) 0.0434 57.8 64.4
68(5) 0.0370 57.8 64.4
60(5) 0.0416 57.8 64.3
55(5) 0.0473 57.8 64.0
51(4) 0.0517 57.9 63.6
56(5) 0.0453 57.9 63.1
61(5) 0.0416 57.9 62.7
62(5) 0.0416 57.9 62.4
56(5) 0.0453 57.9 62.2
54(5) 0.0473 57.9 62.1
47(4) 0.0541 57.9 62.1
60(5) 0.0434 57.9 62.1
68(5) 0.0370 57.9 62.1
65(5) 0.0384 57.9 62.2
53(5) 0.0473 57.9 62.3
62(5) 0.0416 57.9 62.4
63(5) 0.0416 57.9 62.6
63(5) 0.0400 57.9 62.8
56(5) 0.0453 57.9 63.0
57(5) 0.0453 57.9 63.4
54(5) 0.0473 57.9 63.7
54(5) 0.0473 57.9 64.1
58(5) 0.0434 57.9 64.6
58(5) 0.0434 57.9 65.2
62(5) 0.0416 57.9 65.9
64(5) 0.0400 57.9 66.8
65(5) 0.0400 57.9 67.8
70(5) 0.0356 57.9 69.1
66(5) 0.0384 57.9 70.6
64(5) 0.0400 57.9 72.2
72(5) 0.0356 57.9 73.8
77(6) 0.03306 57.9 75.6
70(5) 0.0370 57.9 77.7
74(5) 0.03429 58.0 80.5
79(6) 0.03189 58.0 84.1
76(6) 0.03306 58.0 88.3
83(6) 0.03078 58.0 92.8
92(6) 0.02778 58.0 97.4
95(6) 0.02687 58.0 102.4
110(7) 0.02296 58.0 108.5
107(7) 0.02367 58.0 115.5
121(7) 0.02100 58.0 122.2
121(7) 0.02100 58.0 127.6
142(8) 0.01778 58.0 131.6
140(7) 0.01826 58.0 134.7
136(7) 0.01877 58.0 136.6
136(7) 0.01877 58.0 137.8
133(7) 0.01929 58.0 139.3
133(7) 0.01929 58.0 141.7
134(7) 0.01877 58.0 143.8
135(7) 0.01877 58.0 145.1
151(8) 0.01687 58.0 146.7
158(8) 0.01602 58.0 149.4
165(8) 0.01563 58.0 152.3
162(8) 0.01563 58.0 151.9
146(8) 0.01731 58.0 145.8
134(7) 0.01877 58.0 135.0
110(7) 0.02296 58.0 122.9
112(7) 0.02228 58.0 112.0
98(6) 0.02601 58.0 103.4
87(6) 0.02873 58.0 97.0
87(6) 0.02973 58.1 92.4
79(6) 0.03306 58.1 89.1
84(6) 0.03078 58.1 86.6
77(6) 0.03306 58.1 84.7
81(6) 0.03078 58.1 83.2
72(5) 0.0356 58.1 82.0
70(5) 0.0356 58.1 80.9
76(6) 0.03306 58.1 79.6
70(5) 0.0356 58.1 77.9
74(5) 0.03429 58.1 76.0
64(5) 0.0400 58.1 73.9
74(5) 0.03429 58.1 72.0
62(5) 0.0416 58.1 70.2
56(5) 0.0453 58.1 68.8
68(5) 0.0370 58.1 67.6
67(5) 0.0384 58.1 66.5
59(5) 0.0434 58.1 65.7
65(5) 0.0384 58.1 65.0
62(5) 0.0416 58.1 64.4
63(5) 0.0400 58.1 63.9
55(5) 0.0453 58.1 63.5
52(5) 0.0494 58.1 63.1
58(5) 0.0434 58.1 62.8
62(5) 0.0400 58.1 62.5
57(5) 0.0453 58.1 62.2
52(5) 0.0494 58.1 62.0
55(5) 0.0453 58.2 61.8
54(5) 0.0473 58.2 61.6
48(4) 0.0541 58.2 61.5
57(5) 0.0453 58.2 61.3
57(5) 0.0453 58.2 61.2
58(5) 0.0434 58.2 61.1
53(5) 0.0473 58.2 61.0
47(4) 0.0541 58.2 60.9
62(5) 0.0416 58.2 60.8
54(5) 0.0473 58.2 60.8
60(5) 0.0416 58.2 60.7
59(5) 0.0434 58.2 60.6
51(5) 0.0494 58.2 60.6
61(5) 0.0416 58.2 60.5
60(5) 0.0434 58.2 60.5
60(5) 0.0434 58.2 60.5
53(5) 0.0473 58.2 60.4
58(5) 0.0434 58.2 60.4
60(5) 0.0416 58.2 60.4
57(5) 0.0453 58.2 60.4
56(5) 0.0453 58.2 60.3
57(5) 0.0453 58.2 60.3
52(5) 0.0494 58.2 60.3
62(5) 0.0400 58.2 60.3
52(5) 0.0494 58.2 60.3
56(5) 0.0453 58.2 60.3
59(5) 0.0434 58.3 60.3
47(4) 0.0541 58.3 60.3
52(5) 0.0494 58.3 60.4
49(4) 0.0517 58.3 60.4
52(5) 0.0494 58.3 60.4
61(5) 0.0416 58.3 60.5
53(5) 0.0473 58.3 60.5
53(5) 0.0473 58.3 60.5
60(5) 0.0416 58.3 60.5
59(5) 0.0434 58.3 60.6
57(5) 0.0453 58.3 60.7
57(5) 0.0453 58.3 60.7
60(5) 0.0416 58.3 60.8
52(5) 0.0494 58.3 60.9
60(5) 0.0416 58.3 61.0
58(5) 0.0434 58.3 61.2
54(5) 0.0473 58.3 61.3
49(4) 0.0517 58.3 61.5
66(5) 0.0384 58.3 61.7
56(5) 0.0453 58.3 61.9
58(5) 0.0434 58.3 62.1
57(5) 0.0453 58.3 62.4
63(5) 0.0400 58.3 62.8
58(5) 0.0434 58.3 63.2
55(5) 0.0453 58.3 63.7
59(5) 0.0434 58.4 64.3
67(5) 0.0384 58.4 65.0
76(6) 0.03306 58.4 65.8
60(5) 0.0416 58.4 66.8
64(5) 0.0400 58.4 68.0
69(5) 0.0370 58.4 69.3
64(5) 0.0400 58.4 70.7
62(5) 0.0416 58.4 72.1
59(5) 0.0434 58.4 73.5
67(5) 0.0370 58.4 74.9
76(6) 0.03306 58.4 76.7
78(6) 0.03306 58.4 78.9
82(6) 0.03078 58.4 81.7
81(6) 0.03078 58.4 84.9
83(6) 0.03078 58.4 88.3
87(6) 0.02973 58.4 91.4
90(6) 0.02778 58.4 94.0
105(6) 0.02441 58.4 96.2
95(6) 0.02687 58.4 98.0
107(7) 0.02367 58.4 99.2
104(6) 0.02441 58.4 99.2
100(6) 0.02520 58.4 97.5
92(6) 0.02778 58.4 94.2
101(6) 0.02520 58.4 90.0
83(6) 0.03078 58.4 85.8
71(5) 0.0356 58.5 82.1
62(5) 0.0400 58.5 79.0
68(5) 0.0370 58.5 76.6
66(5) 0.0384 58.5 74.7
63(5) 0.0400 58.5 73.2
77(6) 0.03306 58.5 72.0
65(5) 0.0384 58.5 71.2
58(5) 0.0434 58.5 70.9
68(5) 0.0370 58.5 71.0
66(5) 0.0384 58.5 71.5
61(5) 0.0416 58.5 72.2
67(5) 0.0370 58.5 72.8
64(5) 0.0400 58.5 73.1
61(5) 0.0416 58.5 73.4
61(5) 0.0416 58.5 73.8
69(5) 0.0370 58.5 74.2
63(5) 0.0400 58.5 74.2
68(5) 0.0370 58.5 73.2
76(6) 0.03306 58.5 71.4
56(5) 0.0453 58.5 69.5
61(5) 0.0416 58.5 67.7
58(5) 0.0434 58.5 66.3
57(5) 0.0453 58.5 65.2
59(5) 0.0434 58.5 64.3
57(5) 0.0453 58.6 63.6
61(5) 0.0416 58.6 63.1
52(5) 0.0494 58.6 62.7
53(5) 0.0473 58.6 62.4
56(5) 0.0453 58.6 62.2
57(5) 0.0453 58.6 61.9
57(5) 0.0434 58.6 61.8
52(5) 0.0473 58.6 61.6
57(5) 0.0434 58.6 61.5
58(5) 0.0434 58.6 61.4
58(5) 0.0434 58.6 61.4
67(5) 0.0384 58.6 61.3
52(5) 0.0494 58.6 61.3
61(5) 0.0416 58.6 61.2
65(5) 0.0384 58.6 61.2
55(5) 0.0453 58.6 61.2
51(5) 0.0494 58.6 61.2
60(5) 0.0434 58.6 61.2
59(5) 0.0434 58.6 61.2
54(5) 0.0473 58.6 61.2
58(5) 0.0434 58.6 61.3
55(5) 0.0453 58.6 61.3
54(5) 0.0473 58.6 61.4
56(5) 0.0453 58.6 61.5
62(5) 0.0416 58.7 61.5
70(5) 0.0356 58.7 61.6
57(5) 0.0434 58.7 61.7
61(5) 0.0416 58.7 61.8
57(5) 0.0453 58.7 61.9
66(5) 0.0384 58.7 62.1
56(5) 0.0453 58.7 62.2
56(5) 0.0453 58.7 62.4
58(5) 0.0434 58.7 62.6
54(5) 0.0473 58.7 62.8
58(5) 0.0434 58.7 63.0
61(5) 0.0416 58.7 63.3
62(5) 0.0400 58.7 63.6
54(5) 0.0473 58.7 64.0
62(5) 0.0416 58.7 64.4
69(5) 0.0370 58.7 64.9
60(5) 0.0416 58.7 65.5
57(5) 0.0434 58.7 66.2
61(5) 0.0416 58.7 67.0
57(5) 0.0434 58.7 67.8
59(5) 0.0434 58.7 68.8
67(5) 0.0384 58.7 69.9
65(5) 0.0384 58.7 71.1
55(5) 0.0453 58.7 72.6
62(5) 0.0400 58.8 74.4
61(5) 0.0416 58.8 76.8
80(6) 0.03189 58.8 79.6
73(5) 0.03429 58.8 82.8
81(6) 0.03078 58.8 86.1
83(6) 0.03078 58.8 89.4
84(6) 0.02973 58.8 92.7
89(6) 0.02873 58.8 95.9
99(6) 0.02520 58.8 99.3
93(6) 0.02687 58.8 102.9
109(7) 0.02296 58.8 106.7
106(7) 0.02367 58.8 111.2
117(7) 0.02163 58.8 116.4
116(7) 0.02163 58.8 121.9
115(7) 0.02163 58.8 127.0
120(7) 0.02100 58.8 131.2
121(7) 0.02100 58.8 134.7
152(8) 0.01644 58.8 137.4
136(7) 0.01877 58.8 138.7
133(7) 0.01877 58.8 137.3
132(7) 0.01929 58.8 132.3
124(7) 0.02041 58.8 124.5
100(6) 0.02520 58.8 115.4
99(6) 0.02520 58.8 106.6
85(6) 0.02973 58.9 98.8
80(6) 0.03078 58.9 92.3
71(5) 0.0356 58.9 87.1
77(6) 0.03306 58.9 82.8
62(5) 0.0416 58.9 79.4
75(6) 0.03306 58.9 76.7
73(5) 0.03429 58.9 74.5
63(5) 0.0400 58.9 72.6
72(5) 0.0356 58.9 71.2
67(5) 0.0370 58.9 69.9
59(5) 0.0434 58.9 68.9
65(5) 0.0384 58.9 68.1
66(5) 0.0384 58.9 67.3
52(5) 0.0494 58.9 66.8
61(5) 0.0416 58.9 66.3
61(5) 0.0416 58.9 65.9
58(5) 0.0434 58.9 65.6
61(5) 0.0416 58.9 65.3
53(5) 0.0473 58.9 65.2
60(5) 0.0416 58.9 65.0
56(5) 0.0453 58.9 64.9
49(4) 0.0517 58.9 64.8
66(5) 0.0384 58.9 64.8
54(5) 0.0473 59.0 64.9
50(4) 0.0517 59.0 65.0
59(5) 0.0434 59.0 65.2
63(5) 0.0400 59.0 65.4
60(5) 0.0416 59.0 65.6
56(5) 0.0453 59.0 65.8
61(5) 0.0416 59.0 66.0
62(5) 0.0400 59.0 66.1
67(5) 0.0370 59.0 66.2
61(5) 0.0416 59.0 66.1
63(5) 0.0400 59.0 65.9
58(5) 0.0434 59.0 65.5
58(5) 0.0434 59.0 65.0
61(5) 0.0416 59.0 64.5
62(5) 0.0416 59.0 64.1
61(5) 0.0416 59.0 63.8
54(5) 0.0473 59.0 63.5
57(5) 0.0434 59.0 63.4
59(5) 0.0434 59.0 63.2
60(5) 0.0416 59.0 63.1
61(5) 0.0416 59.0 63.1
67(5) 0.0370 59.0 63.1
69(5) 0.0370 59.0 63.2
60(5) 0.0416 59.0 63.3
58(5) 0.0434 59.0 63.4
53(5) 0.0473 59.1 63.6
52(5) 0.0494 59.1 63.8
58(5) 0.0434 59.1 64.1
64(5) 0.0384 59.1 64.5
62(5) 0.0416 59.1 64.9
78(6) 0.03189 59.1 65.5
76(6) 0.03306 59.1 66.1
64(5) 0.0400 59.1 67.0
60(5) 0.0416 59.1 68.0
69(5) 0.0370 59.1 69.2
68(5) 0.0370 59.1 70.5
81(6) 0.03078 59.1 71.9
61(5) 0.0416 59.1 73.4
75(5) 0.03429 59.1 74.8
76(6) 0.03306 59.1 76.4
61(5) 0.0416 59.1 78.2
78(6) 0.03189 59.1 80.6
85(6) 0.02973 59.1 83.6
83(6) 0.02973 59.1 87.0
80(6) 0.03189 59.1 90.4
85(6) 0.02973 59.1 93.5
83(6) 0.03078 59.1 96.0
85(6) 0.02973 59.1 98.0
99(6) 0.02520 59.1 99.6
105(6) 0.02441 59.2 100.4
96(6) 0.02601 59.2 99.6
102(6) 0.02441 59.2 96.9
89(6) 0.02873 59.2 92.9
80(6) 0.03078 59.2 88.3
80(6) 0.03189 59.2 84.0
86(6) 0.02973 59.2 80.3
76(6) 0.03306 59.2 77.3
72(5) 0.03429 59.2 75.0
72(5) 0.03429 59.2 73.2
62(5) 0.0416 59.2 71.7
63(5) 0.0400 59.2 70.6
70(5) 0.0356 59.2 69.8
62(5) 0.0400 59.2 69.4
64(5) 0.0400 59.2 69.3
73(5) 0.03429 59.2 69.4
74(5) 0.03429 59.2 69.6
71(5) 0.0356 59.2 69.6
65(5) 0.0384 59.2 69.6
70(5) 0.0356 59.2 69.7
73(5) 0.03429 59.2 69.9
69(5) 0.0370 59.2 69.8
65(5) 0.0384 59.2 69.3
59(5) 0.0434 59.2 68.3
57(5) 0.0434 59.3 67.3
58(5) 0.0434 59.3 66.3
63(5) 0.0400 59.3 65.6
62(5) 0.0400 59.3 65.1
70(5) 0.0356 59.3 64.7
58(5) 0.0434 59.3 64.5
61(5) 0.0416 59.3 64.4
61(5) 0.0416 59.3 64.4
57(5) 0.0434 59.3 64.4
65(5) 0.0384 59.3 64.6
63(5) 0.0400 59.3 64.8
67(5) 0.0370 59.3 65.2
52(5) 0.0494 59.3 65.7
65(5) 0.0384 59.3 66.4
64(5) 0.0384 59.3 67.4
73(5) 0.03429 59.3 68.5
55(5) 0.0453 59.3 69.8
83(6) 0.03078 59.3 71.1
71(5) 0.0356 59.3 72.4
71(5) 0.0356 59.3 73.8
77(6) 0.03306 59.3 75.9
72(5) 0.0356 59.3 78.7
82(6) 0.03078 59.3 82.0
90(6) 0.02778 59.3 85.3
82(6) 0.03078 59.3 88.2
77(6) 0.03306 59.3 91.2
91(6) 0.02778 59.4 95.1
103(6) 0.02441 59.4 100.0
96(6) 0.02601 59.4 104.8
102(6) 0.02441 59.4 108.7
107(7) 0.02367 59.4 110.1
110(7) 0.02296 59.4 109.0
110(7) 0.02296 59.4 104.5
87(6) 0.02873 59.4 97.7
98(6) 0.02601 59.4 90.9
78(6) 0.03189 59.4 85.2
66(5) 0.0384 59.4 80.9
75(6) 0.03306 59.4 77.8
69(5) 0.0370 59.4 75.7
62(5) 0.0400 59.4 74.4
85(6) 0.02973 59.4 73.7
67(5) 0.0370 59.4 73.4
72(5) 0.0356 59.4 73.2
77(6) 0.03189 59.4 73.1
68(5) 0.0370 59.4 73.0
74(5) 0.03429 59.4 72.9
69(5) 0.0370 59.4 72.7
68(5) 0.0370 59.4 72.3
79(6) 0.03189 59.4 71.4
69(5) 0.0370 59.4 70.3
68(5) 0.0370 59.4 69.0
69(5) 0.0370 59.5 67.8
62(5) 0.0400 59.5 66.7
65(5) 0.0384 59.5 65.8
55(5) 0.0453 59.5 65.1
63(5) 0.0400 59.5 64.5
67(5) 0.0370 59.5 64.0
61(5) 0.0416 59.5 63.6
51(5) 0.0494 59.5 63.3
68(5) 0.0370 59.5 63.0
62(5) 0.0400 59.5 62.8
69(5) 0.0356 59.5 62.6
60(5) 0.0416 59.5 62.4
62(5) 0.0400 59.5 62.3
76(6) 0.03306 59.5 62.2
63(5) 0.0400 59.5 62.1
62(5) 0.0400 59.5 62.0
50(5) 0.0494 59.5 61.9
61(5) 0.0416 59.5 61.8
61(5) 0.0416 59.5 61.8
58(5) 0.0434 59.5 61.7
68(5) 0.0370 59.5 61.7
67(5) 0.0384 59.5 61.6
65(5) 0.0384 59.5 61.6
59(5) 0.0416 59.5 61.6
62(5) 0.0400 59.5 61.6
56(5) 0.0453 59.5 61.5
61(5) 0.0416 59.5 61.5
65(5) 0.0384 59.6 61.5
57(5) 0.0434 59.6 61.5
52(5) 0.0473 59.6 61.5
51(5) 0.0494 59.6 61.5
60(5) 0.0416 59.6 61.5
63(5) 0.0400 59.6 61.5
58(5) 0.0434 59.6 61.5
63(5) 0.0400 59.6 61.5
57(5) 0.0434 59.6 61.5
55(5) 0.0453 59.6 61.5
61(5) 0.0416 59.6 61.5
61(5) 0.0416 59.6 61.5
59(5) 0.0434 59.6 61.5
57(5) 0.0434 59.6 61.6
56(5) 0.0453 59.6 61.6
56(5) 0.0453 59.6 61.6
72(5) 0.0356 59.6 61.6
57(5) 0.0434 59.6 61.7
54(5) 0.0473 59.6 61.7
63(5) 0.0400 59.6 61.7
61(5) 0.0416 59.6 61.8
68(5) 0.0370 59.6 61.8
61(5) 0.0416 59.6 61.8
63(5) 0.0400 59.6 61.9
61(5) 0.0416 59.6 61.9
53(5) 0.0473 59.6 62.0
65(5) 0.0384 59.6 62.0
59(5) 0.0434 59.7 62.1
63(5) 0.0400 59.7 62.1
63(5) 0.0400 59.7 62.2
63(5) 0.0400 59.7 62.3
64(5) 0.0384 59.7 62.3
63(5) 0.0400 59.7 62.4
63(5) 0.0400 59.7 62.5
61(5) 0.0416 59.7 62.6
71(5) 0.0356 59.7 62.7
63(5) 0.0400 59.7 62.8
64(5) 0.0400 59.7 63.0
63(5) 0.0400 59.7 63.1
62(5) 0.0400 59.7 63.3
70(5) 0.0356 59.7 63.5
65(5) 0.0384 59.7 63.7
66(5) 0.0384 59.7 63.9
62(5) 0.0400 59.7 64.2
65(5) 0.0384 59.7 64.5
66(5) 0.0384 59.7 64.9
57(5) 0.0434 59.7 65.3
65(5) 0.0384 59.7 65.7
59(5) 0.0434 59.7 66.2
56(5) 0.0453 59.7 66.8
71(5) 0.0356 59.7 67.5
57(5) 0.0434 59.7 68.4
74(5) 0.03429 59.7 69.4
59(5) 0.0434 59.7 70.6
75(6) 0.03306 59.7 71.9
80(6) 0.03078 59.7 73.2
73(5) 0.03429 59.8 74.4
81(6) 0.03078 59.8 75.5
81(6) 0.03078 59.8 76.5
61(5) 0.0416 59.8 77.7
73(5) 0.03429 59.8 79.2
81(6) 0.03078 59.8 81.1
82(6) 0.03078 59.8 83.5
86(6) 0.02973 59.8 85.8
85(6) 0.02973 59.8 87.8
91(6) 0.02778 59.8 89.3
94(6) 0.02687 59.8 90.9
94(6) 0.02687 59.8 92.5
95(6) 0.02601 59.8 93.3
93(6) 0.02687 59.8 92.3
89(6) 0.02778 59.8 89.5
87(6) 0.02873 59.8 85.9
88(6) 0.02873 59.8 82.5
82(6) 0.03078 59.8 79.5
84(6) 0.02973 59.8 77.1
70(5) 0.0356 59.8 75.1
73(5) 0.03429 59.8 73.6
71(5) 0.0356 59.8 72.5
74(5) 0.03429 59.8 71.7
71(5) 0.0356 59.8 71.2
66(5) 0.0384 59.8 70.8
73(5) 0.03429 59.8 70.6
74(5) 0.03429 59.8 70.5
69(5) 0.0370 59.8 70.5
76(6) 0.03306 59.8 70.6
82(6) 0.03078 59.8 70.7
82(6) 0.03078 59.9 71.0
72(5) 0.03429 59.9 71.3
71(5) 0.0356 59.9 71.7
86(6) 0.02973 59.9 72.1
74(6) 0.03306 59.9 72.6
78(6) 0.03189 59.9 73.2
77(6) 0.03189 59.9 73.9
86(6) 0.02873 59.9 74.6
82(6) 0.03078 59.9 75.5
94(6) 0.02687 59.9 76.4
93(6) 0.02687 59.9 77.5
92(6) 0.02778 59.9 78.8
95(6) 0.02601 59.9 80.1
93(6) 0.02687 59.9 81.7
96(6) 0.02601 59.9 83.5
99(6) 0.02520 59.9 85.6
102(6) 0.02441 59.9 88.0
101(6) 0.02520 59.9 90.7
120(7) 0.02100 59.9 94.0
109(7) 0.02296 59.9 97.9
124(7) 0.02041 59.9 102.5
128(7) 0.01984 59.9 108.1
132(7) 0.01877 59.9 115.0
140(8) 0.01778 59.9 123.7
154(8) 0.01602 59.9 134.6
174(8) 0.01452 59.9 148.6
177(8) 0.01417 59.9 166.2
196(9) 0.01262 59.9 187.5
221(9) 0.01132 59.9 211.3
223(9) 0.01132 59.9 233.9
267(10) 0.00943 59.9 252.9
298(11) 0.00842 59.9 270.9
322(11) 0.00783 59.9 294.7
362(12) 0.00694 60.0 330.7
401(13) 0.00620 60.0 381.6
466(14) 0.00533 60.0 445.7
529(15) 0.00476 60.0 512.7
583(15) 0.00433 60.0 567.4
648(16) 0.00386 60.0 605.9
739(17) 0.003380 60.0 640.3
822(18) 0.003052 60.0 678.2
812(18) 0.003086 60.0 702.4
748(17) 0.003341 60.0 682.2
589(15) 0.00427 60.0 610.3
424(13) 0.00592 60.0 513.1
345(12) 0.00731 60.0 419.4
300(11) 0.00826 60.0 342.3
255(10) 0.00980 60.0 283.2
209(9) 0.01208 60.0 238.7
199(9) 0.01262 60.0 205.4
182(9) 0.01352 60.0 180.1
155(8) 0.01602 60.0 160.7
152(8) 0.01644 60.0 145.6
137(7) 0.01826 60.0 133.6
135(7) 0.01877 60.0 123.9
119(7) 0.02100 60.0 116.0
115(7) 0.02163 60.0 109.5
114(7) 0.02228 60.0 104.1
114(7) 0.02163 60.0 99.5
113(7) 0.02228 60.0 95.6
99(6) 0.02520 60.0 92.3
111(7) 0.02228 60.0 89.4
99(6) 0.02520 60.0 86.9
91(6) 0.02778 60.0 84.7
88(6) 0.02873 60.0 82.8
98(6) 0.02520 60.0 81.1
83(6) 0.03078 60.0 79.5
88(6) 0.02873 60.0 78.2
82(6) 0.03078 60.1 76.9
82(6) 0.03078 60.1 75.8
82(6) 0.03078 60.1 74.8
72(5) 0.03429 60.1 73.9
76(5) 0.03429 60.1 73.1
81(6) 0.03078 60.1 72.4
72(5) 0.0356 60.1 71.7
80(6) 0.03078 60.1 71.6
85(6) 0.02973 60.1 71.0
70(5) 0.0356 60.1 70.5
81(6) 0.03078 60.1 70.0
76(6) 0.03306 60.1 69.6
67(5) 0.0370 60.1 69.2
78(6) 0.03189 60.1 68.8
75(6) 0.03306 60.1 68.5
74(5) 0.03429 60.1 68.2
75(6) 0.03306 60.1 67.9
75(6) 0.03306 60.1 67.6
76(5) 0.03429 60.1 67.3
78(6) 0.03189 60.1 67.1
74(5) 0.03429 60.1 66.9
64(5) 0.0384 60.1 66.7
75(6) 0.03306 60.1 66.5
75(6) 0.03306 60.1 66.3
71(5) 0.0356 60.1 66.1
79(6) 0.03189 60.1 66.0
74(6) 0.03306 60.1 65.9
70(5) 0.0356 60.1 65.8
68(5) 0.0370 60.1 65.7
77(6) 0.03306 60.1 65.5
76(6) 0.03306 60.1 65.4
59(5) 0.0416 60.1 65.4
66(5) 0.0384 60.1 65.3
68(5) 0.0370 60.1 65.2
69(5) 0.0356 60.1 65.1
70(5) 0.0356 60.1 65.1
77(6) 0.03189 60.1 65.0
71(5) 0.0356 60.1 65.0
68(5) 0.0370 60.1 64.9
68(5) 0.0370 60.2 64.9
74(6) 0.03306 60.2 64.9
59(5) 0.0434 60.2 64.9
58(5) 0.0434 60.2 64.9
63(5) 0.0400 60.2 64.9
82(6) 0.03078 60.2 65.0
64(5) 0.0384 60.2 65.0
69(5) 0.0370 60.2 65.1
62(5) 0.0400 60.2 65.2
64(5) 0.0384 60.2 65.3
57(5) 0.0434 60.2 65.5
65(5) 0.0384 60.2 65.7
68(5) 0.0370 60.2 65.9
69(5) 0.0356 60.2 66.2
69(5) 0.0356 60.2 66.6
64(5) 0.0384 60.2 67.0
60(5) 0.0416 60.2 67.6
66(5) 0.0370 60.2 68.2
70(5) 0.0356 60.2 68.9
67(5) 0.0370 60.2 69.7
64(5) 0.0384 60.2 70.4
69(5) 0.0356 60.2 71.2
68(5) 0.0370 60.2 72.1
71(5) 0.0356 60.2 73.3
72(5) 0.03429 60.2 74.8
69(5) 0.0356 60.2 76.4
75(6) 0.03306 60.2 78.1
71(5) 0.0356 60.2 79.6
65(5) 0.0384 60.2 80.9
77(6) 0.03189 60.2 81.9
76(6) 0.03306 60.2 82.6
68(5) 0.0370 60.2 82.8
71(5) 0.03429 60.2 82.2
74(6) 0.03306 60.2 80.7
71(5) 0.03429 60.2 78.6
68(5) 0.0370 60.2 76.5
69(5) 0.0356 60.2 74.6
74(6) 0.03306 60.2 73.1
66(5) 0.0384 60.2 71.9
69(5) 0.0356 60.2 71.1
78(6) 0.03189 60.2 70.5
74(6) 0.03306 60.2 70.2
69(5) 0.0356 60.2 70.1
71(5) 0.0356 60.2 70.1
68(5) 0.0370 60.2 70.4
69(5) 0.0356 60.2 70.8
66(5) 0.0384 60.3 71.3
85(6) 0.02973 60.3 72.0
73(5) 0.03429 60.3 72.7
67(5) 0.0370 60.3 73.5
80(6) 0.03078 60.3 74.4
77(6) 0.03306 60.3 75.4
84(6) 0.02973 60.3 76.8
80(6) 0.03078 60.3 78.4
80(6) 0.03078 60.3 80.4
89(6) 0.02778 60.3 82.5
87(6) 0.02873 60.3 84.5
92(6) 0.02687 60.3 86.1
85(6) 0.02873 60.3 87.4
83(6) 0.02973 60.3 88.4
96(6) 0.02601 60.3 88.7
89(6) 0.02778 60.3 88.1
74(6) 0.03306 60.3 86.4
81(6) 0.03078 60.3 83.8
82(6) 0.03078 60.3 80.9
74(6) 0.03306 60.3 78.0
74(6) 0.03306 60.3 75.6
63(5) 0.0400 60.3 73.5
66(5) 0.0370 60.3 71.8
64(5) 0.0384 60.3 70.5
64(5) 0.0384 60.3 69.4
74(6) 0.03306 60.3 68.6
63(5) 0.0400 60.3 67.9
68(5) 0.0370 60.3 67.3
78(6) 0.03189 60.3 66.8
73(5) 0.03429 60.3 66.4
77(6) 0.03189 60.3 66.1
66(5) 0.0384 60.3 65.8
73(5) 0.03429 60.3 65.6
67(5) 0.0370 60.3 65.4
59(5) 0.0416 60.3 65.2
59(5) 0.0416 60.3 65.1
57(5) 0.0434 60.3 65.0
69(5) 0.0356 60.3 64.9
58(5) 0.0434 60.3 64.8
67(5) 0.0370 60.3 64.7
75(6) 0.03306 60.3 64.7
63(5) 0.0400 60.3 64.6
66(5) 0.0384 60.3 64.6
65(5) 0.0384 60.3 64.6
76(6) 0.03306 60.3 64.5
60(5) 0.0416 60.3 64.5
81(6) 0.03078 60.3 64.5
71(5) 0.03429 60.3 64.5
69(5) 0.0356 60.3 64.5
66(5) 0.0370 60.3 64.5
56(5) 0.0434 60.3 64.5
69(5) 0.0356 60.3 64.5
62(5) 0.0400 60.3 64.6
76(6) 0.03306 60.3 64.6
72(5) 0.03429 60.3 64.6
60(5) 0.0416 60.3 64.6
69(5) 0.0370 60.3 64.7
75(6) 0.03306 60.3 64.7
62(5) 0.0400 60.3 64.7
57(5) 0.0434 60.4 64.8
74(6) 0.03306 60.4 64.8
68(5) 0.0370 60.4 64.9
60(5) 0.0416 60.4 64.9
60(5) 0.0416 60.4 65.0
65(5) 0.0384 60.4 65.1
65(5) 0.0384 60.4 65.1
62(5) 0.0400 60.4 65.2
71(5) 0.0356 60.4 65.3
65(5) 0.0384 60.4 65.4
68(5) 0.0370 60.4 65.4
69(5) 0.0356 60.4 65.5
77(6) 0.03189 60.4 65.6
69(5) 0.0356 60.4 65.7
67(5) 0.0370 60.4 65.8
67(5) 0.0370 60.4 65.9
87(6) 0.02873 60.4 66.0
73(5) 0.03429 60.4 66.1
67(5) 0.0370 60.4 66.3
76(6) 0.03306 60.4 66.4
62(5) 0.0400 60.4 66.5
76(6) 0.03189 60.4 66.6
67(5) 0.0370 60.4 66.8
61(5) 0.0400 60.4 66.9
81(6) 0.03078 60.4 67.1
65(5) 0.0384 60.4 67.3
67(5) 0.0370 60.4 67.4
72(5) 0.03429 60.4 67.6
68(5) 0.0370 60.4 67.8
80(6) 0.03078 60.4 68.0
74(6) 0.03306 60.4 68.2
62(5) 0.0400 60.4 68.4
66(5) 0.0370 60.4 68.6
74(6) 0.03306 60.4 68.9
81(6) 0.03078 60.4 69.1
69(5) 0.0356 60.4 69.4
72(5) 0.03429 60.4 69.7
80(6) 0.03078 60.4 69.9
81(6) 0.03078 60.4 70.3
78(6) 0.03189 60.4 70.6
82(6) 0.02973 60.4 70.9
85(6) 0.02873 60.4 71.3
81(6) 0.03078 60.4 71.7
69(5) 0.0356 60.4 72.1
86(6) 0.02873 60.4 72.5
77(6) 0.03189 60.4 72.9
74(6) 0.03306 60.4 73.4
89(6) 0.02778 60.4 73.9
80(6) 0.03078 60.4 74.5
86(6) 0.02873 60.4 75.0
83(6) 0.02973 60.4 75.7
89(6) 0.02778 60.4 76.3
95(6) 0.02601 60.4 77.0
89(6) 0.02778 60.4 77.8
95(6) 0.02601 60.4 78.6
96(6) 0.02601 60.4 79.5
93(6) 0.02687 60.4 80.4
87(6) 0.02873 60.4 81.4
94(6) 0.02601 60.4 82.5
97(6) 0.02520 60.4 83.7
97(6) 0.02520 60.4 85.0
96(6) 0.02601 60.4 86.4
99(6) 0.02520 60.4 87.9
104(7) 0.02367 60.4 89.6
99(6) 0.02520 60.4 91.5
111(7) 0.02228 60.4 93.5
105(7) 0.02367 60.4 95.7
119(7) 0.02100 60.4 98.2
107(7) 0.02296 60.4 101.0
114(7) 0.02163 60.4 104.2
117(7) 0.02100 60.4 107.7
121(7) 0.02041 60.4 111.7
125(7) 0.01984 60.4 116.2
131(7) 0.01877 60.4 121.4
151(8) 0.01644 60.4 127.4
160(8) 0.01524 60.4 134.3
163(8) 0.01524 60.4 142.5
170(8) 0.01452 60.4 152.0
181(9) 0.01352 60.4 163.1
208(9) 0.01181 60.4 176.6
227(10) 0.01085 60.4 192.8
230(10) 0.01063 60.4 212.6
254(10) 0.00980 60.4 236.6
277(11) 0.00890 60.4 265.4
317(11) 0.00783 60.4 298.9
346(12) 0.00718 60.4 335.6
388(13) 0.00640 60.4 373.9
439(13) 0.00565 60.4 412.5
447(13) 0.00557 60.4 453.1
520(15) 0.00476 60.4 500.4
583(15) 0.00422 60.4 559.1
669(17) 0.00367 60.4 631.5
694(17) 0.00354 60.4 714.1
750(17) 0.003303 60.4 797.8
862(19) 0.002860 60.4 871.9
938(20) 0.002630 60.4 931.8
1075(21) 0.002289 60.4 979.3
1068(21) 0.002311 60.4 1010.6
1088(21) 0.002268 60.4 1010.9
1030(20) 0.002403 60.4 965.5
868(19) 0.002829 60.4 877.7
683(17) 0.00363 60.4 768.1
569(15) 0.00439 60.4 659.5
471(14) 0.00525 60.4 564.7
420(13) 0.00583 60.4 487.8
377(12) 0.00661 60.4 428.2
329(12) 0.00756 60.4 382.3
319(11) 0.00769 60.4 347.0
284(11) 0.00873 60.4 319.4
261(10) 0.00943 60.4 297.7
260(10) 0.00943 60.4 281.7
268(10) 0.00925 60.4 271.3
290(11) 0.00857 60.4 266.3
267(10) 0.00925 60.4 265.7
262(10) 0.00943 60.4 268.1
283(11) 0.00873 60.4 271.1
301(11) 0.00826 60.4 271.1
302(11) 0.00826 60.4 264.2
274(11) 0.00907 60.4 249.2
225(10) 0.01108 60.4 228.5
187(9) 0.01321 60.4 206.4
182(9) 0.01352 60.4 185.9
152(8) 0.01602 60.4 168.4
160(8) 0.01524 60.4 154.0
142(8) 0.01731 60.4 142.2
127(7) 0.01929 60.4 132.6
121(7) 0.02041 60.4 124.7
115(7) 0.02163 60.4 118.2
128(7) 0.01929 60.4 112.7
113(7) 0.02163 60.4 108.2
104(7) 0.02367 60.5 104.3
98(6) 0.02520 60.5 101.0
100(6) 0.02520 60.5 98.2
101(6) 0.02441 60.5 95.7
103(7) 0.02367 60.5 93.6
98(6) 0.02520 60.5 91.8
106(7) 0.02296 60.5 90.3
93(6) 0.02687 60.5 89.0
104(7) 0.02367 60.5 87.9
100(6) 0.02441 60.5 87.1
92(6) 0.02687 60.5 86.5
92(6) 0.02687 60.5 86.2
101(6) 0.02441 60.5 86.0
82(6) 0.02973 60.5 86.0
93(6) 0.02687 60.5 85.9
101(6) 0.02441 60.5 85.9
95(6) 0.02601 60.5 86.1
99(6) 0.02520 60.5 86.5
94(6) 0.02601 60.4 87.1
99(6) 0.02520 60.4 87.9
100(6) 0.02520 60.4 88.5
90(6) 0.02778 60.4 88.8
90(6) 0.02687 60.4 88.8
101(6) 0.02441 60.4 88.8
102(6) 0.02441 60.4 88.6
84(6) 0.02973 60.4 87.8
89(6) 0.02778 60.4 86.1
85(6) 0.02873 60.4 83.7
87(6) 0.02873 60.4 81.0
77(6) 0.03189 60.4 78.6
77(6) 0.03189 60.4 76.6
77(6) 0.03189 60.4 75.0
74(6) 0.03306 60.4 73.6
77(6) 0.03189 60.4 72.6
64(5) 0.0384 60.4 71.7
74(6) 0.03306 60.4 71.0
79(6) 0.03078 60.4 70.4
73(5) 0.03429 60.4 69.8
71(5) 0.03429 60.4 69.4
83(6) 0.02973 60.4 68.9
75(6) 0.03306 60.4 68.6
77(6) 0.03189 60.4 68.2
66(5) 0.0370 60.4 67.9
68(5) 0.0356 60.4 67.6
73(6) 0.03306 60.4 67.4
81(6) 0.03078 60.4 67.1
72(5) 0.03429 60.4 66.9
63(5) 0.0384 60.4 66.7
69(5) 0.0356 60.4 66.5
65(5) 0.0384 60.4 66.3
74(6) 0.03306 60.4 66.2
69(5) 0.0356 60.4 66.0
72(5) 0.03429 60.4 65.8
61(5) 0.0400 60.4 65.7
61(5) 0.0400 60.4 65.5
71(5) 0.03429 60.4 65.4
71(5) 0.03429 60.4 65.3
72(5) 0.03429 60.4 65.2
61(5) 0.0400 60.4 65.0
64(5) 0.0384 60.4 64.9
73(5) 0.03429 60.4 64.8
74(6) 0.03306 60.4 64.7
69(5) 0.0356 60.4 64.6
68(5) 0.0370 60.4 64.5
67(5) 0.0370 60.4 64.4
72(5) 0.03429 60.4 64.3
61(5) 0.0400 60.4 64.2
69(5) 0.0356 60.4 64.2
58(5) 0.0416 60.4 64.1
60(5) 0.0416 60.4 64.0
61(5) 0.0400 60.4 63.9
64(5) 0.0384 60.4 63.9
72(5) 0.03429 60.4 63.8
60(5) 0.0416 60.4 63.7
60(5) 0.0416 60.4 63.7
70(5) 0.0356 60.4 63.6
67(5) 0.0370 60.4 63.5
61(5) 0.0400 60.4 63.5
59(5) 0.0416 60.4 63.4
65(5) 0.0384 60.4 63.4
62(5) 0.0400 60.4 63.3
59(5) 0.0416 60.4 63.3
59(5) 0.0416 60.4 63.2
62(5) 0.0400 60.4 63.2
67(5) 0.0370 60.4 63.1
67(5) 0.0370 60.4 63.1
59(5) 0.0416 60.4 63.0
58(5) 0.0416 60.4 63.0
63(5) 0.0384 60.4 62.9
52(5) 0.0473 60.4 62.9
53(5) 0.0473 60.4 62.8
56(5) 0.0434 60.4 62.8
59(5) 0.0416 60.4 62.8
59(5) 0.0416 60.4 62.7
51(5) 0.0473 60.4 62.7
55(5) 0.0453 60.4 62.7
55(5) 0.0453 60.4 62.6
61(5) 0.0400 60.4 62.6
57(5) 0.0434 60.4 62.6
65(5) 0.0370 60.4 62.6
59(5) 0.0416 60.4 62.5
53(5) 0.0473 60.4 62.5
57(5) 0.0434 60.4 62.5
61(5) 0.0400 60.4 62.4
66(5) 0.0384 60.4 62.4
65(5) 0.0384 60.4 62.4
56(5) 0.0434 60.4 62.4
59(5) 0.0416 60.4 62.3
65(5) 0.0370 60.4 62.3
46(4) 0.0541 60.4 62.3
56(5) 0.0453 60.4 62.3
52(5) 0.0473 60.4 62.3
57(5) 0.0434 60.4 62.2
56(5) 0.0434 60.4 62.2
57(5) 0.0434 60.4 62.2
53(5) 0.0453 60.4 62.2
58(5) 0.0416 60.4 62.2
58(5) 0.0416 60.4 62.1
59(5) 0.0416 60.4 62.1
66(5) 0.0370 60.4 62.1
63(5) 0.0384 60.4 62.1
64(5) 0.0384 60.4 62.1
54(5) 0.0453 60.4 62.1
62(5) 0.0400 60.4 62.0
62(5) 0.0400 60.4 62.0
54(5) 0.0453 60.4 62.0
57(5) 0.0434 60.4 62.0
58(5) 0.0416 60.4 62.0
55(5) 0.0453 60.4 62.0
57(5) 0.0434 60.4 62.0
58(5) 0.0416 60.4 62.0
59(5) 0.0416 60.4 61.9
57(5) 0.0434 60.4 61.9
62(5) 0.0400 60.4 61.9
57(5) 0.0434 60.4 61.9
53(5) 0.0473 60.4 61.9
55(5) 0.0453 60.4 61.9
58(5) 0.0416 60.4 61.9
48(4) 0.0517 60.4 61.9
57(5) 0.0434 60.4 61.9
55(5) 0.0453 60.4 61.9
56(5) 0.0434 60.4 61.9
66(5) 0.0370 60.4 61.9
59(5) 0.0416 60.4 61.9
66(5) 0.0370 60.4 61.0
56(5) 0.0434 60.4 61.0
60(5) 0.0416 60.4 61.0
65(5) 0.0384 60.3 61.1
61(5) 0.0400 60.3 61.1
61(5) 0.0400 60.3 61.1
54(5) 0.0453 60.3 61.1
58(5) 0.0416 60.3 61.2
55(5) 0.0434 60.3 61.2
56(5) 0.0434 60.3 61.3
59(5) 0.0416 60.3 61.3
66(5) 0.0370 60.3 61.4
55(5) 0.0453 60.3 61.5
63(5) 0.0384 60.3 61.5
58(5) 0.0434 60.3 61.6
63(5) 0.0384 60.3 61.8
59(5) 0.0416 60.3 61.9
66(5) 0.0370 60.3 62.1
61(5) 0.0400 60.3 62.3
58(5) 0.0416 60.3 62.4
57(5) 0.0434 60.3 62.7
54(5) 0.0453 60.3 63.0
56(5) 0.0434 60.3 63.3
60(5) 0.0400 60.3 63.6
71(5) 0.03429 60.3 64.0
60(5) 0.0416 60.3 64.4
60(5) 0.0416 60.3 65.0
64(5) 0.0384 60.3 65.6
65(5) 0.0370 60.3 66.1
66(5) 0.0370 60.3 66.6
59(5) 0.0416 60.3 66.9
64(5) 0.0384 60.3 67.2
66(5) 0.0370 60.3 67.3
75(6) 0.03306 60.3 67.1
68(5) 0.0356 60.3 66.5
60(5) 0.0400 60.3 65.8
54(5) 0.0453 60.3 65.1
56(5) 0.0434 60.3 64.4
67(5) 0.0370 60.3 63.9
66(5) 0.0370 60.3 63.4
55(5) 0.0453 60.3 63.1
62(5) 0.0400 60.3 62.8
61(5) 0.0400 60.3 62.6
64(5) 0.0384 60.3 62.5
68(5) 0.0356 60.3 62.4
60(5) 0.0416 60.3 62.3
51(5) 0.0473 60.3 62.3
62(5) 0.0400 60.3 62.3
66(5) 0.0370 60.3 62.4
63(5) 0.0384 60.3 62.4
64(5) 0.0384 60.3 62.5
63(5) 0.0384 60.3 62.7
58(5) 0.0434 60.3 62.8
59(5) 0.0416 60.3 63.0
69(5) 0.0356 60.3 63.3
55(5) 0.0453 60.3 63.7
63(5) 0.0384 60.3 64.1
67(5) 0.0370 60.3 64.5
71(5) 0.03429 60.3 65.0
59(5) 0.0416 60.3 65.5
79(6) 0.03078 60.2 65.9
76(6) 0.03189 60.2 66.2
76(6) 0.03189 60.2 66.6
68(5) 0.0356 60.2 67.1
73(5) 0.03429 60.2 67.8
80(6) 0.03078 60.2 68.6
77(6) 0.03189 60.2 69.4
81(6) 0.02973 60.2 70.1
77(6) 0.03189 60.2 70.3
84(6) 0.02873 60.2 70.0
87(6) 0.02778 60.2 69.3
77(6) 0.03189 60.2 68.3
76(6) 0.03189 60.2 67.4
74(6) 0.03306 60.2 66.6
79(6) 0.03078 60.2 65.9
73(6) 0.03306 60.2 65.4
75(6) 0.03306 60.2 65.0
60(5) 0.0416 60.2 64.8
74(6) 0.03306 60.2 64.7
74(6) 0.03306 60.2 64.6
80(6) 0.03078 60.2 64.6
73(6) 0.03306 60.2 64.7
69(5) 0.0356 60.2 64.9
74(6) 0.03306 60.2 65.1
78(6) 0.03189 60.2 65.4
72(5) 0.03429 60.2 65.8
74(6) 0.03306 60.2 66.3
71(5) 0.03429 60.2 66.9
74(6) 0.03306 60.2 67.6
72(6) 0.03306 60.2 68.5
70(5) 0.0356 60.2 69.4
78(6) 0.03189 60.2 70.3
66(5) 0.0370 60.2 71.3
70(5) 0.0356 60.2 72.2
70(5) 0.03429 60.2 73.2
75(6) 0.03306 60.2 74.1
68(5) 0.0356 60.2 75.1
77(6) 0.03189 60.2 76.3
79(6) 0.03078 60.2 77.5
90(6) 0.02687 60.2 78.8
82(6) 0.02973 60.2 79.8
73(6) 0.03306 60.2 80.3
79(6) 0.03078 60.2 80.1
70(5) 0.0356 60.1 79.3
76(6) 0.03189 60.1 78.0
77(6) 0.03189 60.1 76.4
78(6) 0.03078 60.1 74.8
67(5) 0.0370 60.1 73.4
76(6) 0.03306 60.1 72.1
74(6) 0.03306 60.1 71.0
68(5) 0.0356 60.1 70.2
73(5) 0.03429 60.1 69.7
73(6) 0.03306 60.1 69.3
69(5) 0.0356 60.1 69.2
65(5) 0.0384 60.1 69.2
63(5) 0.0384 60.1 69.5
72(5) 0.03429 60.1 69.9
75(6) 0.03306 60.1 70.5
73(6) 0.03306 60.1 71.3
74(6) 0.03306 60.1 72.3
79(6) 0.03078 60.1 73.2
69(5) 0.0356 60.1 74.3
76(6) 0.03189 60.1 75.7
79(6) 0.03078 60.1 77.6
83(6) 0.02973 60.1 79.7
75(6) 0.03306 60.1 81.9
85(6) 0.02873 60.1 84.0
87(6) 0.02778 60.1 85.7
88(6) 0.02778 60.1 87.1
93(6) 0.02601 60.1 88.2
87(6) 0.02778 60.1 88.3
87(6) 0.02778 60.1 87.3
78(6) 0.03078 60.1 85.3
84(6) 0.02873 60.1 83.0
82(6) 0.02973 60.1 81.0
79(6) 0.03078 60.1 79.6
78(6) 0.03189 60.1 78.9
79(6) 0.03078 60.1 78.7
82(6) 0.02973 60.1 78.8
86(6) 0.02873 60.1 78.8
79(6) 0.03078 60.1 78.9
69(5) 0.0356 60.0 78.9
67(5) 0.0370 60.0 78.7
77(6) 0.03189 60.0 77.7
68(5) 0.0356 60.0 76.1
70(5) 0.03429 60.0 74.1
58(5) 0.0416 60.0 72.1
60(5) 0.0400 60.0 70.5
60(5) 0.0400 60.0 69.2
68(5) 0.0356 60.0 68.2
59(5) 0.0416 60.0 67.5
69(5) 0.0356 60.0 66.9
57(5) 0.0434 60.0 66.5
62(5) 0.0384 60.0 66.2
60(5) 0.0400 60.0 66.1
62(5) 0.0384 60.0 66.0
52(5) 0.0473 60.0 66.0
67(5) 0.0370 60.0 65.8
64(5) 0.0384 60.0 65.6
57(5) 0.0434 60.0 65.3
55(5) 0.0453 60.0 65.1
62(5) 0.0400 60.0 64.9
59(5) 0.0416 60.0 64.7
64(5) 0.0384 60.0 64.6
53(5) 0.0473 60.0 64.6
59(5) 0.0416 60.0 64.7
67(5) 0.0370 60.0 64.8
60(5) 0.0400 60.0 65.0
53(5) 0.0453 60.0 65.2
63(5) 0.0384 60.0 65.6
58(5) 0.0416 60.0 66.1
67(5) 0.0370 60.0 66.7
72(5) 0.03429 60.0 67.5
64(5) 0.0384 60.0 68.5
67(5) 0.0356 59.9 69.8
69(5) 0.0356 59.9 71.2
76(6) 0.03306 59.9 72.6
76(6) 0.03189 59.9 74.0
85(6) 0.02873 59.9 75.5
82(6) 0.02973 59.9 77.3
84(6) 0.02973 59.9 79.9
97(6) 0.02520 59.9 83.2
80(6) 0.03078 59.9 87.0
92(6) 0.02687 59.9 90.6
98(6) 0.02520 59.9 93.5
114(7) 0.02163 59.9 95.9
106(7) 0.02296 59.9 98.1
102(6) 0.02441 59.9 99.4
114(7) 0.02163 59.9 98.6
91(6) 0.02778 59.9 95.5
84(6) 0.02973 59.9 91.5
84(6) 0.02973 59.9 87.7
83(6) 0.02973 59.9 84.7
81(6) 0.03078 59.9 82.6
87(6) 0.02778 59.9 81.0
78(6) 0.03189 59.9 80.1
77(6) 0.03189 59.9 79.7
83(6) 0.02973 59.9 79.9
69(5) 0.0356 59.9 80.5
71(5) 0.03429 59.9 81.4
78(6) 0.03189 59.9 82.2
83(6) 0.02973 59.9 82.3
83(6) 0.02973 59.9 81.5
76(6) 0.03189 59.9 79.8
73(5) 0.03429 59.8 77.7
72(5) 0.03429 59.8 75.4
80(6) 0.03078 59.8 73.4
69(5) 0.0356 59.8 71.7
62(5) 0.0400 59.8 70.2
66(5) 0.0370 59.8 69.0
67(5) 0.0356 59.8 68.1
58(5) 0.0416 59.8 67.3
62(5) 0.0400 59.8 66.7
68(5) 0.0370 59.8 66.2
66(5) 0.0370 59.8 65.8
65(5) 0.0384 59.8 65.5
59(5) 0.0416 59.8 65.3
65(5) 0.0384 59.8 65.1
71(5) 0.03429 59.8 64.9
64(5) 0.0384 59.8 64.8
63(5) 0.0400 59.8 64.7
61(5) 0.0400 59.8 64.6
63(5) 0.0400 59.8 64.5
56(5) 0.0453 59.8 64.4
61(5) 0.0400 59.8 64.2
48(4) 0.0517 59.8 63.9
52(5) 0.0473 59.8 63.7
61(5) 0.0400 59.8 63.5
60(5) 0.0416 59.8 63.3
56(5) 0.0434 59.8 63.1
68(5) 0.0356 59.8 63.0
59(5) 0.0416 59.8 62.9
51(5) 0.0494 59.7 62.8
53(5) 0.0473 59.7 62.7
57(5) 0.0434 59.7 62.6
62(5) 0.0400 59.7 62.6
58(5) 0.0434 59.7 62.6
64(5) 0.0384 59.7 62.6
57(5) 0.0434 59.7 62.6
52(5) 0.0473 59.7 62.7
52(5) 0.0473 59.7 62.7
52(5) 0.0473 59.7 62.8
54(5) 0.0453 59.7 62.9
55(5) 0.0453 59.7 63.1
67(5) 0.0370 59.7 63.2
57(5) 0.0434 59.7 63.4
54(5) 0.0453 59.7 63.5
58(5) 0.0416 59.7 63.7
47(4) 0.0517 59.7 63.9
58(5) 0.0434 59.7 64.0
50(5) 0.0494 59.7 64.2
65(5) 0.0384 59.7 64.4
57(5) 0.0434 59.7 64.6
55(5) 0.0453 59.7 64.8
65(5) 0.0384 59.7 65.0
62(5) 0.0400 59.7 65.0
66(5) 0.0370 59.7 65.0
60(5) 0.0416 59.7 64.8
69(5) 0.0356 59.6 64.6
64(5) 0.0384 59.6 64.3
68(5) 0.0356 59.6 64.0
61(5) 0.0400 59.6 63.8
60(5) 0.0416 59.6 63.6
63(5) 0.0384 59.6 63.4
58(5) 0.0416 59.6 63.3
53(5) 0.0453 59.6 63.2
69(5) 0.0356 59.6 63.2
55(5) 0.0453 59.6 63.1
60(5) 0.0416 59.6 63.1
65(5) 0.0370 59.6 63.1
61(5) 0.0400 59.6 63.1
68(5) 0.0356 59.6 63.2
61(5) 0.0400 59.6 63.3
58(5) 0.0434 59.6 63.3
61(5) 0.0416 59.6 63.4
64(5) 0.0384 59.6 63.5
54(5) 0.0453 59.6 63.7
68(5) 0.0356 59.6 63.9
74(6) 0.03306 59.6 64.1
74(6) 0.03306 59.6 64.3
55(5) 0.0453 59.6 64.6
68(5) 0.0356 59.6 64.9
59(5) 0.0416 59.6 65.3
57(5) 0.0434 59.5 65.8
68(5) 0.0356 59.5 66.3
55(5) 0.0434 59.5 66.8
56(5) 0.0453 59.5 67.3
63(5) 0.0384 59.5 68.0
73(5) 0.03429 59.5 68.8
62(5) 0.0400 59.5 69.7
65(5) 0.0384 59.5 70.8
69(5) 0.0356 59.5 71.9
70(5) 0.0356 59.5 72.9
72(5) 0.03429 59.5 73.9
77(6) 0.03189 59.5 75.0
72(5) 0.03429 59.5 75.9
70(5) 0.0356 59.5 76.7
72(5) 0.03429 59.5 77.3
80(6) 0.03078 59.5 78.0
70(5) 0.03429 59.5 78.8
72(5) 0.03429 59.5 79.7
66(5) 0.0370 59.5 80.6
70(5) 0.03429 59.5 81.4
86(6) 0.02873 59.5 82.3
75(6) 0.03306 59.5 83.6
90(6) 0.02687 59.5 85.5
89(6) 0.02778 59.5 88.0
103(7) 0.02367 59.4 90.8
100(6) 0.02441 59.4 93.3
100(6) 0.02441 59.4 94.6
87(6) 0.02873 59.4 94.0
91(6) 0.02687 59.4 91.7
80(6) 0.03078 59.4 88.5
84(6) 0.02973 59.4 85.4
76(6) 0.03189 59.4 82.6
82(6) 0.02973 59.4 80.4
83(6) 0.02973 59.4 78.7
75(6) 0.03306 59.4 77.5
76(6) 0.03189 59.4 76.8
74(6) 0.03306 59.4 76.3
75(6) 0.03306 59.4 76.1
71(5) 0.03429 59.4 76.2
80(6) 0.03078 59.4 76.5
74(6) 0.03306 59.4 77.0
73(6) 0.03306 59.4 77.6
84(6) 0.02873 59.4 78.5
90(6) 0.02778 59.4 79.6
89(6) 0.02778 59.4 81.0
76(6) 0.03189 59.4 82.6
83(6) 0.02973 59.4 84.6
87(6) 0.02778 59.3 87.0
86(6) 0.02873 59.3 89.8
93(6) 0.02687 59.3 93.2
105(7) 0.02367 59.3 97.2
103(6) 0.02441 59.3 101.7
103(7) 0.02367 59.3 106.6
103(7) 0.02367 59.3 112.0
118(7) 0.02100 59.3 118.5
137(8) 0.01778 59.3 126.5
132(7) 0.01826 59.3 136.2
147(8) 0.01687 59.3 147.4
154(8) 0.01602 59.3 159.5
160(8) 0.01524 59.3 171.5
173(8) 0.01417 59.3 183.3
207(9) 0.01181 59.3 194.7
197(9) 0.01262 59.3 204.9
210(9) 0.01156 59.3 212.6
220(10) 0.01108 59.3 218.0
222(10) 0.01108 59.3 222.7
233(10) 0.01041 59.3 228.5
233(10) 0.01041 59.3 235.6
238(10) 0.01020 59.2 242.8
269(11) 0.00907 59.2 247.8
280(11) 0.00890 59.2 248.7
266(10) 0.00925 59.2 244.2
256(10) 0.00961 59.2 234.7
234(10) 0.01041 59.2 221.9
219(10) 0.01108 59.2 207.6
200(9) 0.01235 59.2 193.6
184(9) 0.01352 59.2 181.0
185(9) 0.01321 59.2 170.5
160(8) 0.01524 59.2 162.3
161(8) 0.01524 59.2 156.2
151(8) 0.01602 59.2 151.5
150(8) 0.01644 59.2 147.1
153(8) 0.01602 59.2 141.9
155(8) 0.01602 59.2 135.3
123(7) 0.01984 59.2 127.8
121(7) 0.02041 59.2 120.0
113(7) 0.02163 59.2 112.7
107(7) 0.02296 59.2 106.3
99(6) 0.02520 59.2 100.7
95(6) 0.02520 59.2 96.0
86(6) 0.02873 59.1 92.1
90(6) 0.02687 59.1 88.8
93(6) 0.02601 59.1 86.0
76(6) 0.03189 59.1 83.7
84(6) 0.02873 59.1 81.7
76(6) 0.03189 59.1 80.1
77(6) 0.03189 59.1 78.7
74(6) 0.03306 59.1 77.6
74(6) 0.03306 59.1 76.5
68(5) 0.0356 59.1 75.6
77(6) 0.03189 59.1 74.9
61(5) 0.0400 59.1 74.2
70(5) 0.0356 59.1 73.7
76(6) 0.03189 59.1 73.3
69(5) 0.0356 59.1 73.0
77(6) 0.03189 59.1 72.7
68(5) 0.0356 59.1 72.2
69(5) 0.0356 59.1 71.6
71(5) 0.03429 59.1 70.8
65(5) 0.0384 59.1 70.0
67(5) 0.0370 59.0 69.2
71(5) 0.03429 59.0 68.4
67(5) 0.0370 59.0 67.7
60(5) 0.0416 59.0 67.1
71(5) 0.03429 59.0 66.6
60(5) 0.0400 59.0 66.1
70(5) 0.03429 59.0 65.7
64(5) 0.0384 59.0 65.4
62(5) 0.0400 59.0 65.1
64(5) 0.0384 59.0 64.8
64(5) 0.0384 59.0 64.5
71(5) 0.03429 59.0 64.3
65(5) 0.0384 59.0 64.1
59(5) 0.0416 59.0 63.9
62(5) 0.0384 59.0 63.7
66(5) 0.0370 59.0 63.6
64(5) 0.0370 59.0 63.4
51(5) 0.0473 59.0 63.3
62(5) 0.0400 59.0 63.2
57(5) 0.0434 59.0 63.1
57(5) 0.0434 58.9 63.0
65(5) 0.0370 58.9 62.9
64(5) 0.0384 58.9 62.8
58(5) 0.0416 58.9 62.8
63(5) 0.0384 58.9 62.7
63(5) 0.0384 58.9 62.7
66(5) 0.0370 58.9 62.7
64(5) 0.0384 58.9 62.7
58(5) 0.0416 58.9 62.7
62(5) 0.0400 58.9 62.7
64(5) 0.0384 58.9 62.7
56(5) 0.0434 58.9 62.8
60(5) 0.0416 58.9 62.9
53(5) 0.0473 58.9 63.0
62(5) 0.0400 58.9 63.2
58(5) 0.0416 58.9 63.4
62(5) 0.0400 58.9 63.7
61(5) 0.0400 58.9 64.0
59(5) 0.0416 58.9 64.5
63(5) 0.0384 58.9 65.1
57(5) 0.0434 58.8 65.7
67(5) 0.0370 58.8 66.5
70(5) 0.0356 58.8 67.2
71(5) 0.03429 58.8 68.0
73(6) 0.03306 58.8 68.9
62(5) 0.0384 58.8 70.1
68(5) 0.0356 58.8 71.6
65(5) 0.0370 58.8 73.2
74(6) 0.03306 58.8 74.8
76(6) 0.03189 58.8 76.1
72(5) 0.03429 58.8 77.2
79(6) 0.03078 58.8 77.9
81(6) 0.02973 58.8 78.0
69(5) 0.0356 58.8 77.3
73(5) 0.03429 58.8 75.7
67(5) 0.0370 58.8 73.5
58(5) 0.0416 58.8 71.4
69(5) 0.0356 58.8 69.6
68(5) 0.0356 58.8 68.1
62(5) 0.0384 58.7 66.9
62(5) 0.0400 58.7 66.0
59(5) 0.0416 58.7 65.3
72(5) 0.03429 58.7 64.8
64(5) 0.0384 58.7 64.5
65(5) 0.0384 58.7 64.3
61(5) 0.0400 58.7 64.1
64(5) 0.0384 58.7 63.9
68(5) 0.0356 58.7 63.6
62(5) 0.0400 58.7 63.3
60(5) 0.0400 58.7 62.9
60(5) 0.0400 58.7 62.7
67(5) 0.0370 58.7 62.4
56(5) 0.0434 58.7 62.3
60(5) 0.0416 58.7 62.1
58(5) 0.0416 58.7 62.1
56(5) 0.0434 58.7 62.1
64(5) 0.0384 58.7 62.1
67(5) 0.0370 58.7 62.2
54(5) 0.0453 58.6 62.3
60(5) 0.0416 58.6 62.5
58(5) 0.0416 58.6 62.7
56(5) 0.0434 58.6 63.1
53(5) 0.0453 58.6 63.6
59(5) 0.0416 58.6 64.1
60(5) 0.0400 58.6 64.8
63(5) 0.0384 58.6 65.6
64(5) 0.0384 58.6 66.4
61(5) 0.0400 58.6 67.0
60(5) 0.0400 58.6 67.5
61(5) 0.0400 58.6 68.1
57(5) 0.0416 58.6 68.8
61(5) 0.0400 58.6 69.9
59(5) 0.0416 58.6 71.2
63(5) 0.0384 58.6 72.7
73(5) 0.03429 58.6 73.7
68(5) 0.0356 58.6 73.9
77(6) 0.03189 58.5 73.1
61(5) 0.0400 58.5 71.5
60(5) 0.0400 58.5 69.7
64(5) 0.0384 58.5 67.9
67(5) 0.0356 58.5 66.4
58(5) 0.0416 58.5 65.3
62(5) 0.0400 58.5 64.3
67(5) 0.0370 58.5 63.6
67(5) 0.0370 58.5 63.1
68(5) 0.0356 58.5 62.7
68(5) 0.0356 58.5 62.4
60(5) 0.0416 58.5 62.1
54(5) 0.0453 58.5 62.0
55(5) 0.0434 58.5 61.9
58(5) 0.0416 58.5 61.9
59(5) 0.0416 58.5 61.8
56(5) 0.0434 58.5 61.9
58(5) 0.0416 58.5 61.9
68(5) 0.0356 58.4 61.9
57(5) 0.0434 58.4 62.0
64(5) 0.0370 58.4 62.1
49(5) 0.0494 58.4 62.2
59(5) 0.0416 58.4 62.3
68(5) 0.0356 58.4 62.4
67(5) 0.0370 58.4 62.4
59(5) 0.0416 58.4 62.4
55(5) 0.0453 58.4 62.2
58(5) 0.0416 58.4 62.0
59(5) 0.0416 58.4 61.7
45(4) 0.0541 58.4 61.4
59(5) 0.0416 58.4 61.1
60(5) 0.0400 58.4 60.9
62(5) 0.0384 58.4 60.6
50(5) 0.0494 58.4 60.5
52(5) 0.0473 58.4 60.3
55(5) 0.0434 58.4 60.2
50(5) 0.0494 58.3 60.0
60(5) 0.0416 58.3 59.9
56(5) 0.0434 58.3 59.9
52(5) 0.0473 58.3 59.8
56(5) 0.0434 58.3 59.7
51(5) 0.0473 58.3 59.7
59(5) 0.0416 58.3 59.6
54(5) 0.0453 58.3 59.6
59(5) 0.0416 58.3 59.5
53(5) 0.0473 58.3 59.5
57(5) 0.0434 58.3 59.5
56(5) 0.0434 58.3 59.5
55(5) 0.0434 58.3 59.4
52(5) 0.0473 58.3 59.4
53(5) 0.0453 58.3 59.4
54(5) 0.0453 58.3 59.4
52(5) 0.0473 58.3 59.4
46(4) 0.0517 58.3 59.4
53(5) 0.0453 58.2 59.4
54(5) 0.0453 58.2 59.4
58(5) 0.0416 58.2 59.4
59(5) 0.0416 58.2 59.4
49(5) 0.0494 58.2 59.4
57(5) 0.0434 58.2 59.4
62(5) 0.0400 58.2 59.4
53(5) 0.0453 58.2 59.6
56(5) 0.0434 58.2 59.7
53(5) 0.0453 58.2 59.7
63(5) 0.0384 58.2 59.7
58(5) 0.0434 58.2 59.7
62(5) 0.0400 58.2 59.8
56(5) 0.0434 58.2 59.8
53(5) 0.0453 58.2 59.9
54(5) 0.0453 58.2 59.9
51(5) 0.0473 58.2 60.0
49(5) 0.0494 58.2 60.1
51(5) 0.0473 58.1 60.2
51(5) 0.0473 58.1 60.3
64(5) 0.0384 58.1 60.4
54(5) 0.0453 58.1 60.5
56(5) 0.0434 58.1 60.6
51(5) 0.0473 58.1 60.8
61(5) 0.0400 58.1 61.0
52(5) 0.0453 58.1 61.2
69(5) 0.03429 58.1 61.5
63(5) 0.0384 58.1 61.9
69(5) 0.0356 58.1 62.3
59(5) 0.0416 58.1 62.7
59(5) 0.0416 58.1 63.3
76(6) 0.03189 58.1 64.0
73(6) 0.03306 58.1 64.9
62(5) 0.0400 58.1 66.0
63(5) 0.0384 58.1 67.4
62(5) 0.0384 58.0 68.9
75(6) 0.03189 58.0 70.6
73(6) 0.03306 58.0 72.2
76(6) 0.03189 58.0 73.7
67(5) 0.0356 58.0 75.0
78(6) 0.03078 58.0 76.3
76(6) 0.03189 58.0 78.0
83(6) 0.02973 58.0 80.2
80(6) 0.03078 58.0 82.9
94(6) 0.02601 58.0 85.4
85(6) 0.02873 58.0 87.3
97(6) 0.02520 58.0 87.6
93(6) 0.02601 58.0 85.9
91(6) 0.02687 58.0 82.8
90(6) 0.02687 58.0 79.2
83(6) 0.02973 58.0 75.7
80(6) 0.03078 58.0 72.8
73(6) 0.03306 57.9 70.4
79(6) 0.03078 57.9 68.5
71(5) 0.03429 57.9 67.0
74(6) 0.03306 57.9 65.9
72(6) 0.03306 57.9 64.9
74(6) 0.03306 57.9 64.2
68(5) 0.0356 57.9 63.7
79(6) 0.03078 57.9 63.3
71(5) 0.03429 57.9 63.0
77(6) 0.03189 57.9 62.8
70(5) 0.03429 57.9 62.6
78(6) 0.03078 57.9 62.3
71(5) 0.03429 57.9 62.1
79(6) 0.03078 57.9 61.8
74(6) 0.03306 57.9 61.4
66(5) 0.0370 57.9 61.1
75(6) 0.03189 57.9 60.7
74(6) 0.03306 57.8 60.5
66(5) 0.0370 57.8 60.2
63(5) 0.0384 57.8 60.0
66(5) 0.0370 57.8 59.9
64(5) 0.0384 57.8 59.7
64(5) 0.0384 57.8 59.6
56(5) 0.0434 57.8 59.5
65(5) 0.0370 57.8 59.5
69(5) 0.03429 57.8 59.4
67(5) 0.0356 57.8 59.3
59(5) 0.0416 57.8 59.3
68(5) 0.0356 57.8 59.2
61(5) 0.0400 57.8 59.1
59(5) 0.0416 57.8 59.1
62(5) 0.0400 57.8 59.1
62(5) 0.0384 57.8 59.0
58(5) 0.0416 57.8 59.0
57(5) 0.0416 57.7 59.0
59(5) 0.0416 57.7 58.9
66(5) 0.0370 57.7 58.9
56(5) 0.0434 57.7 58.9
59(5) 0.0400 57.7 58.9
48(5) 0.0494 57.7 58.9
68(5) 0.0356 57.7 58.9
59(5) 0.0400 57.7 58.9
63(5) 0.0384 57.7 58.9
57(5) 0.0434 57.7 58.9
64(5) 0.0370 57.7 58.9
58(5) 0.0416 57.7 58.9
65(5) 0.0370 57.7 58.9
71(5) 0.03429 57.7 58.9
65(5) 0.0370 57.7 58.9
69(5) 0.0356 57.7 58.9
62(5) 0.0384 57.7 58.9
58(5) 0.0416 57.6 58.9
66(5) 0.0370 57.6 58.9
64(5) 0.0370 57.6 58.9
55(5) 0.0453 57.6 58.9
58(5) 0.0416 57.6 59.0
58(5) 0.0416 57.6 59.0
55(5) 0.0434 57.6 59.0
66(5) 0.0370 57.6 59.0
61(5) 0.0400 57.6 59.1
63(5) 0.0384 57.6 59.1
54(5) 0.0453 57.6 59.2
54(5) 0.0453 57.6 59.3
64(5) 0.0384 57.6 59.3
62(5) 0.0384 57.6 59.4
60(5) 0.0400 57.6 59.5
60(5) 0.0400 57.6 59.6
59(5) 0.0416 57.5 59.7
64(5) 0.0384 57.5 59.7
62(5) 0.0400 57.5 59.8
64(5) 0.0384 57.5 59.9
60(5) 0.0400 57.5 60.0
63(5) 0.0384 57.5 60.1
65(5) 0.0370 57.5 60.2
67(5) 0.0356 57.5 60.2
62(5) 0.0384 57.5 60.2
69(5) 0.0356 57.5 60.2
51(5) 0.0473 57.5 60.1
64(5) 0.0384 57.5 60.1
66(5) 0.0370 57.5 60.1
52(5) 0.0473 57.5 60.0
60(5) 0.0400 57.5 60.1
55(5) 0.0434 57.5 60.1
56(5) 0.0434 57.5 60.1
59(5) 0.0416 57.4 60.2
64(5) 0.0384 57.4 60.3
60(5) 0.0416 57.4 60.4
68(5) 0.0356 57.4 60.6
65(5) 0.0370 57.4 60.8
64(5) 0.0384 57.4 61.0
72(6) 0.03306 57.4 61.3
57(5) 0.0416 57.4 61.6
61(5) 0.0400 57.4 62.0
52(5) 0.0473 57.4 62.5
51(5) 0.0473 57.4 63.0
63(5) 0.0384 57.4 63.5
61(5) 0.0400 57.4 64.1
73(6) 0.03306 57.4 64.6
60(5) 0.0400 57.4 65.1
62(5) 0.0384 57.4 65.7
66(5) 0.0370 57.3 66.3
65(5) 0.0370 57.3 66.9
66(5) 0.0370 57.3 67.5
62(5) 0.0400 57.3 68.1
59(5) 0.0416 57.3 68.5
61(5) 0.0400 57.3 68.5
73(6) 0.03306 57.3 68.2
64(5) 0.0370 57.3 67.6
63(5) 0.0384 57.3 66.8
64(5) 0.0370 57.3 66.0
62(5) 0.0384 57.3 65.2
62(5) 0.0384 57.3 64.4
69(5) 0.03429 57.3 63.8
70(5) 0.03429 57.3 63.3
62(5) 0.0384 57.3 62.8
67(5) 0.0356 57.3 62.5
58(5) 0.0416 57.3 62.2
67(5) 0.0356 57.2 62.0
50(5) 0.0473 57.2 61.8
66(5) 0.0356 57.2 61.7
61(5) 0.0400 57.2 61.6
59(5) 0.0416 57.2 61.5
68(5) 0.0356 57.2 61.5
58(5) 0.0416 57.2 61.5
65(5) 0.0370 57.2 61.6
50(5) 0.0473 57.2 61.6
57(5) 0.0416 57.2 61.6
64(5) 0.0370 57.2 61.7
63(5) 0.0384 57.2 61.8
65(5) 0.0370 57.2 61.9
65(5) 0.0370 57.2 62.0
64(5) 0.0370 57.2 62.1
62(5) 0.0384 57.2 62.2
56(5) 0.0434 57.1 62.4
57(5) 0.0416 57.1 62.6
56(5) 0.0416 57.1 62.8
70(5) 0.03429 57.1 62.9
67(5) 0.0356 57.1 63.1
74(6) 0.03306 57.1 63.3
67(5) 0.0356 57.1 63.5
65(5) 0.0370 57.1 63.7
73(6) 0.03306 57.1 63.8
69(5) 0.03429 57.1 64.0
59(5) 0.0400 57.1 64.1
63(5) 0.0370 57.1 64.3
60(5) 0.0400 57.1 64.5
60(5) 0.0400 57.1 64.8
65(5) 0.0370 57.1 65.1
60(5) 0.0400 57.1 65.4
71(6) 0.03306 57.1 65.7
72(6) 0.03306 57.0 66.1
73(6) 0.03306 57.0 66.5
63(5) 0.0384 57.0 67.0
76(6) 0.03189 57.0 67.5
69(5) 0.03429 57.0 68.1
75(6) 0.03189 57.0 68.7
64(5) 0.0370 57.0 69.4
80(6) 0.02973 57.0 70.2
80(6) 0.02973 57.0 70.9
78(6) 0.03078 57.0 71.8
75(6) 0.03189 57.0 72.8
68(5) 0.03429 57.0 73.8
76(6) 0.03189 57.0 75.1
76(6) 0.03078 57.0 76.4
78(6) 0.03078 57.0 78.0
88(6) 0.02687 57.0 79.8
87(6) 0.02778 56.9 81.8
89(6) 0.02687 56.9 84.2
101(7) 0.02367 56.9 86.9
94(6) 0.02520 56.9 90.0
99(6) 0.02441 56.9 93.7
111(7) 0.02163 56.9 98.1
109(7) 0.02228 56.9 103.3
115(7) 0.02100 56.9 109.6
114(7) 0.02100 56.9 117.3
129(7) 0.01877 56.9 126.6
149(8) 0.01602 56.9 138.0
158(8) 0.01524 56.9 152.0
168(8) 0.01417 56.9 168.9
183(9) 0.01291 56.9 188.8
201(9) 0.01181 56.9 211.1
240(10) 0.01000 56.9 233.8
253(10) 0.00943 56.9 255.1
274(11) 0.00873 56.8 274.0
308(11) 0.00769 56.8 292.7
319(12) 0.00743 56.8 314.9
367(12) 0.00650 56.8 343.3
414(13) 0.00583 56.8 377.5
450(14) 0.00533 56.8 412.4
461(14) 0.00525 56.8 438.0
482(14) 0.00496 56.8 443.4
429(13) 0.00557 56.8 424.1
398(13) 0.00601 56.8 385.9
323(12) 0.00743 56.8 339.8
274(11) 0.00873 56.8 294.8
227(10) 0.01063 56.8 255.4
219(10) 0.01085 56.8 222.9
180(9) 0.01321 56.8 196.6
171(9) 0.01384 56.8 175.4
142(8) 0.01687 56.7 158.2
157(8) 0.01524 56.7 144.0
129(7) 0.01877 56.7 132.4
129(7) 0.01826 56.7 122.6
113(7) 0.02100 56.7 114.5
103(7) 0.02296 56.7 107.8
115(7) 0.02041 56.7 102.1
106(7) 0.02228 56.7 97.2
103(7) 0.02367 56.7 93.1
96(6) 0.02520 56.7 89.6
83(6) 0.02873 56.7 86.6
96(6) 0.02520 56.7 84.0
90(6) 0.02601 56.7 81.8
84(6) 0.02873 56.7 79.8
74(6) 0.03189 56.7 78.0
68(5) 0.0356 56.7 76.5
76(6) 0.03189 56.7 75.1
70(5) 0.03429 56.6 73.9
78(6) 0.03078 56.6 72.8
70(5) 0.03429 56.6 71.9
81(6) 0.02973 56.6 71.0
81(6) 0.02973 56.6 70.3
83(6) 0.02873 56.6 69.6
72(6) 0.03306 56.6 68.9
68(5) 0.03429 56.6 68.4
75(6) 0.03189 56.6 67.9
77(6) 0.03078 56.6 67.4
73(6) 0.03306 56.6 67.0
70(5) 0.03429 56.6 66.6
76(6) 0.03189 56.6 66.3
72(6) 0.03306 56.6 66.0
62(5) 0.0384 56.6 65.7
69(5) 0.03429 56.6 65.5
72(6) 0.03306 56.6 65.2
67(5) 0.0356 56.5 65.0
78(6) 0.03078 56.5 64.8
64(5) 0.0370 56.5 64.5
67(5) 0.0356 56.5 64.3
60(5) 0.0400 56.5 64.1
59(5) 0.0400 56.5 64.0
65(5) 0.0370 56.5 63.9
55(5) 0.0434 56.5 63.7
66(5) 0.0370 56.5 63.7
55(5) 0.0434 56.5 63.6
66(5) 0.0370 56.5 63.6
66(5) 0.0356 56.5 63.6
59(5) 0.0400 56.5 63.6
73(6) 0.03306 56.5 63.6
69(5) 0.03429 56.5 63.7
65(5) 0.0370 56.5 63.8
64(5) 0.0370 56.4 64.0
62(5) 0.0384 56.4 64.1
58(5) 0.0416 56.4 64.4
63(5) 0.0384 56.4 64.6
67(5) 0.0356 56.4 64.9
71(6) 0.03306 56.4 65.3
54(5) 0.0434 56.4 65.8
68(5) 0.0356 56.4 66.4
78(6) 0.03078 56.4 67.0
65(5) 0.0370 56.4 67.9
73(6) 0.03306 56.4 68.8
68(5) 0.0356 56.4 70.0
68(5) 0.0356 56.4 71.3
68(5) 0.0356 56.4 72.9
67(5) 0.0356 56.4 74.7
74(6) 0.03189 56.4 76.7
67(5) 0.0356 56.4 78.6
88(6) 0.02687 56.3 80.6
76(6) 0.03078 56.3 82.5
82(6) 0.02873 56.3 84.5
80(6) 0.02973 56.3 86.7
84(6) 0.02873 56.3 89.2
91(6) 0.02601 56.3 91.8
87(6) 0.02778 56.3 94.1
92(6) 0.02601 56.3 95.7
84(6) 0.02873 56.3 96.2
93(6) 0.02520 56.3 95.6
88(6) 0.02687 56.3 94.2
80(6) 0.02973 56.3 92.3
85(6) 0.02778 56.3 90.5
83(6) 0.02873 56.3 88.9
87(6) 0.02687 56.3 88.0
88(6) 0.02687 56.3 87.8
87(6) 0.02778 56.3 88.5
87(6) 0.02778 56.2 89.8
87(6) 0.02778 56.2 91.5
91(6) 0.02601 56.2 93.2
88(6) 0.02687 56.2 94.5
90(6) 0.02601 56.2 95.9
99(7) 0.02367 56.2 97.9
98(6) 0.02441 56.2 100.6
100(7) 0.02367 56.2 103.7
104(7) 0.02296 56.2 106.8
109(7) 0.02163 56.2 109.7
105(7) 0.02296 56.2 112.7
109(7) 0.02163 56.2 116.6
114(7) 0.02100 56.2 122.0
126(7) 0.01877 56.2 128.8
119(7) 0.01984 56.2 135.7
141(8) 0.01687 56.2 140.6
145(8) 0.01644 56.2 141.0
134(8) 0.01778 56.1 136.2
99(7) 0.02367 56.1 127.6
112(7) 0.02163 56.1 117.5
92(6) 0.02601 56.1 108.0
95(6) 0.02520 56.1 99.8
86(6) 0.02778 56.1 93.0
83(6) 0.02873 56.1 87.7
88(6) 0.02687 56.1 83.5
78(6) 0.03078 56.1 80.1
74(6) 0.03189 56.1 77.5
77(6) 0.03078 56.1 75.5
73(6) 0.03306 56.1 73.9
73(6) 0.03189 56.1 72.7
70(5) 0.03429 56.1 71.8
75(6) 0.03189 56.1 71.1
68(5) 0.0356 56.1 70.7
68(5) 0.03429 56.1 70.5
83(6) 0.02873 56.0 70.5
77(6) 0.03078 56.0 70.8
69(5) 0.03429 56.0 71.3
77(6) 0.03078 56.0 72.2
77(6) 0.03078 56.0 73.3
74(6) 0.03306 56.0 74.6
78(6) 0.03078 56.0 76.1
70(5) 0.03429 56.0 77.5
82(6) 0.02873 56.0 78.8
80(6) 0.02973 56.0 80.1
88(6) 0.02687 56.0 81.7
83(6) 0.02873 56.0 83.7
88(6) 0.02687 56.0 86.2
91(6) 0.02601 56.0 88.9
95(6) 0.02520 56.0 91.0
103(7) 0.02296 56.0 91.8
97(6) 0.02441 56.0 90.8
94(6) 0.02520 55.9 88.6
95(6) 0.02520 55.9 85.9
87(6) 0.02687 55.9 83.4
93(6) 0.02601 55.9 81.5
89(6) 0.02687 55.9 80.3
93(6) 0.02520 55.9 79.6
80(6) 0.02973 55.9 79.6
90(6) 0.02601 55.9 80.0
82(6) 0.02873 55.9 80.7
91(6) 0.02601 55.9 81.7
83(6) 0.02873 55.9 82.8
74(6) 0.03189 55.9 84.0
94(6) 0.02520 55.9 85.5
91(6) 0.02601 55.9 87.3
87(6) 0.02687 55.9 89.2
90(6) 0.02601 55.9 91.0
104(7) 0.02296 55.9 92.4
98(6) 0.02441 55.9 93.1
101(7) 0.02367 55.8 92.9
99(6) 0.02441 55.8 92.0
96(6) 0.02441 55.8 90.7
90(6) 0.02601 55.8 89.6
88(6) 0.02687 55.8 88.8
90(6) 0.02687 55.8 88.5
94(6) 0.02520 55.8 88.7
76(6) 0.03078 55.8 89.4
91(6) 0.02601 55.8 90.4
98(6) 0.02441 55.8 91.6
93(6) 0.02520 55.8 93.0
85(6) 0.02778 55.8 94.7
107(7) 0.02228 55.8 96.7
111(7) 0.02163 55.8 99.0
105(7) 0.02228 55.8 101.2
110(7) 0.02163 55.8 102.8
94(6) 0.02520 55.8 103.2
98(6) 0.02441 55.8 102.2
98(6) 0.02441 55.7 99.8
98(6) 0.02441 55.7 96.5
88(6) 0.02687 55.7 92.9
93(6) 0.02601 55.7 88.8
86(6) 0.02778 55.7 85.2
79(6) 0.02973 55.7 81.9
83(6) 0.02873 55.7 78.8
77(6) 0.03078 55.7 76.1
70(5) 0.03429 55.7 73.8
70(5) 0.03429 55.7 71.9
71(6) 0.03306 55.7 70.2
64(5) 0.0370 55.7 68.9
66(5) 0.0356 55.7 67.8
78(6) 0.03078 55.7 66.9
64(5) 0.0370 55.7 66.1
73(6) 0.03189 55.7 65.4
77(6) 0.03078 55.7 64.9
67(5) 0.0356 55.7 64.5
71(6) 0.03306 55.6 64.1
62(5) 0.0384 55.6 63.8
65(5) 0.0370 55.6 63.6
66(5) 0.0356 55.6 63.4
67(5) 0.0356 55.6 63.3
63(5) 0.0384 55.6 63.3
75(6) 0.03189 55.6 63.3
76(6) 0.03078 55.6 63.3
84(6) 0.02778 55.6 63.4
65(5) 0.0370 55.6 63.6
57(5) 0.0416 55.6 63.9
62(5) 0.0384 55.6 64.2
68(5) 0.03429 55.6 64.6
59(5) 0.0400 55.6 65.1
59(5) 0.0400 55.6 65.7
71(6) 0.03306 55.6 66.5
73(6) 0.03189 55.6 67.3
60(5) 0.0400 55.6 68.2
74(6) 0.03189 55.5 69.1
78(6) 0.03078 55.5 70.0
68(5) 0.03429 55.5 71.0
70(5) 0.03429 55.5 72.0
78(6) 0.03078 55.5 73.1
71(6) 0.03306 55.5 74.3
70(5) 0.03429 55.5 75.4
78(6) 0.03078 55.5 76.4
82(6) 0.02873 55.5 77.0
83(6) 0.02873 55.5 77.2
75(6) 0.03189 55.5 76.8
63(5) 0.0384 55.5 76.3
82(6) 0.02873 55.5 75.6
79(6) 0.03078 55.5 75.2
84(6) 0.02778 55.5 75.0
72(6) 0.03306 55.5 75.1
82(6) 0.02873 55.5 75.7
97(6) 0.02441 55.5 76.7
75(6) 0.03189 55.4 78.2
86(6) 0.02778 55.4 80.4
80(6) 0.02973 55.4 83.2
77(6) 0.03078 55.4 86.9
102(7) 0.02367 55.4 91.4
99(6) 0.02441 55.4 96.8
104(7) 0.02296 55.4 102.8
96(6) 0.02520 55.4 108.8
123(7) 0.01929 55.4 114.2
130(7) 0.01826 55.4 119.3
133(8) 0.01778 55.4 124.6
147(8) 0.01602 55.4 131.3
154(8) 0.01563 55.4 139.7
166(8) 0.01417 55.4 149.1
192(9) 0.01235 55.4 157.3
181(9) 0.01321 55.4 161.1
199(9) 0.01181 55.4 158.2
168(8) 0.01417 55.4 149.3
134(8) 0.01778 55.4 137.0
120(7) 0.01984 55.3 124.4
115(7) 0.02041 55.3 113.0
103(7) 0.02296 55.3 103.5
83(6) 0.02873 55.3 95.8
93(6) 0.02520 55.3 89.7
74(6) 0.03189 55.3 84.9
81(6) 0.02873 55.3 81.1
76(6) 0.03078 55.3 78.0
70(5) 0.03429 55.3 75.6
79(6) 0.02973 55.3 73.6
76(6) 0.03189 55.3 72.0
83(6) 0.02873 55.3 70.7
68(5) 0.0356 55.3 69.6
63(5) 0.0370 55.3 68.7
67(5) 0.0356 55.3 68.0
82(6) 0.02873 55.3 67.4
61(5) 0.0384 55.3 66.9
58(5) 0.0400 55.3 66.6
64(5) 0.0370 55.3 66.3
69(5) 0.03429 55.2 66.1
61(5) 0.0384 55.2 66.0
58(5) 0.0400 55.2 66.0
62(5) 0.0384 55.2 66.0
69(5) 0.03429 55.2 66.1
65(5) 0.0370 55.2 66.2
72(6) 0.03306 55.2 66.5
66(5) 0.0356 55.2 66.8
72(6) 0.03306 55.2 67.2
73(6) 0.03306 55.2 67.6
69(5) 0.03429 55.2 68.2
70(5) 0.03429 55.2 68.8
71(6) 0.03306 55.2 69.6
76(6) 0.03189 55.2 70.5
72(6) 0.03306 55.2 71.5
63(5) 0.0370 55.2 72.8
69(5) 0.03429 55.2 74.2
75(6) 0.03189 55.2 76.0
79(6) 0.02973 55.2 78.1
80(6) 0.02973 55.2 80.6
98(6) 0.02441 55.1 83.5
84(6) 0.02778 55.1 87.1
94(6) 0.02520 55.1 91.5
90(6) 0.02601 55.1 96.8
96(6) 0.02441 55.1 103.1
116(7) 0.02041 55.1 110.7
121(7) 0.01984 55.1 119.4
119(7) 0.01984 55.1 129.0
127(7) 0.01877 55.1 139.0
138(8) 0.01731 55.1 148.7
158(8) 0.01487 55.1 158.1
168(8) 0.01417 55.1 167.4
182(9) 0.01321 55.1 177.8
194(9) 0.01208 55.1 189.8
208(9) 0.01132 55.1 202.7
228(10) 0.01041 55.1 214.2
230(10) 0.01020 55.1 221.0
232(10) 0.01020 55.1 220.0
222(10) 0.01063 55.1 210.7
195(9) 0.01208 55.1 195.2
167(8) 0.01417 55.0 177.0
150(8) 0.01563 55.0 159.1
133(8) 0.01778 55.0 143.0
109(7) 0.02163 55.0 129.4
97(6) 0.02441 55.0 118.1
102(7) 0.02296 55.0 108.8
94(6) 0.02520 55.0 101.2
94(6) 0.02520 55.0 95.1
84(6) 0.02778 55.0 90.1
81(6) 0.02873 55.0 86.0
78(6) 0.03078 55.0 82.6
83(6) 0.02873 55.0 79.7
77(6) 0.03078 55.0 77.4
66(5) 0.0370 55.0 75.4
76(6) 0.03078 55.0 73.8
72(6) 0.03306 55.0 72.5
64(5) 0.0370 55.0 71.4
73(6) 0.03189 55.0 70.5
61(5) 0.0384 55.0 69.8
68(5) 0.03429 55.0 69.1
71(6) 0.03306 54.9 68.6
65(5) 0.0370 54.9 68.2
62(5) 0.0384 54.9 67.8
71(6) 0.03306 54.9 67.6
82(6) 0.02873 54.9 67.5
75(6) 0.03189 54.9 67.3
68(5) 0.0356 54.9 67.1
64(5) 0.0370 54.9 66.6
52(5) 0.0453 54.9 65.9
66(5) 0.0356 54.9 65.1
68(5) 0.0356 54.9 64.3
55(5) 0.0434 54.9 63.5
59(5) 0.0400 54.9 62.8
63(5) 0.0370 54.9 62.2
56(5) 0.0416 54.9 61.6
68(5) 0.03429 54.9 61.2
63(5) 0.0370 54.9 60.8
63(5) 0.0370 54.9 60.5
56(5) 0.0416 54.9 60.2
47(4) 0.0517 54.9 59.9
63(5) 0.0370 54.9 59.7
52(5) 0.0453 54.8 59.6
45(4) 0.0517 54.8 59.4
50(5) 0.0473 54.8 59.3
58(5) 0.0400 54.8 59.2
54(5) 0.0434 54.8 59.1
59(5) 0.0400 54.8 59.1
57(5) 0.0416 54.8 59.1
67(5) 0.0356 54.8 59.1
63(5) 0.0370 54.8 59.1
64(5) 0.0370 54.8 59.1
64(5) 0.0370 54.8 59.2
59(5) 0.0400 54.8 59.3
58(5) 0.0400 54.8 59.3
65(5) 0.0370 54.8 59.4
64(5) 0.0370 54.8 59.5
59(5) 0.0400 54.8 59.6
56(5) 0.0416 54.8 59.7
59(5) 0.0400 54.8 59.7
66(5) 0.0356 54.8 59.7
64(5) 0.0370 54.8 59.5
62(5) 0.0384 54.8 59.3
49(5) 0.0494 54.8 59.1
59(5) 0.0400 54.7 58.8
56(5) 0.0416 54.7 58.5
65(5) 0.0356 54.7 58.3
63(5) 0.0384 54.7 58.1
51(5) 0.0473 54.7 58.0
60(5) 0.0400 54.7 57.9
54(5) 0.0434 54.7 57.7
70(5) 0.03429 54.7 57.6
60(5) 0.0400 54.7 57.6
54(5) 0.0434 54.7 57.5
57(5) 0.0416 54.7 57.5
62(5) 0.0384 54.7 57.4
64(5) 0.0370 54.7 57.4
67(5) 0.0356 54.7 57.4
60(5) 0.0400 54.7 57.4
66(5) 0.0356 54.7 57.4
67(5) 0.0356 54.7 57.5
62(5) 0.0384 54.7 57.5
60(5) 0.0384 54.7 57.6
59(5) 0.0400 54.7 57.6
53(5) 0.0453 54.7 57.7
52(5) 0.0453 54.7 57.8
50(5) 0.0473 54.6 58.0
56(5) 0.0416 54.6 58.2
49(5) 0.0473 54.6 58.4
47(5) 0.0494 54.6 58.7
68(5) 0.03429 54.6 59.0
52(5) 0.0453 54.6 59.4
65(5) 0.0370 54.6 59.9
57(5) 0.0416 54.6 60.4
62(5) 0.0384 54.6 61.0
56(5) 0.0416 54.6 61.5
63(5) 0.0370 54.6 62.1
65(5) 0.0356 54.6 62.7
65(5) 0.0370 54.6 63.2
64(5) 0.0370 54.6 63.9
62(5) 0.0384 54.6 64.6
65(5) 0.0356 54.6 65.2
57(5) 0.0416 54.6 65.7
58(5) 0.0400 54.6 65.8
70(6) 0.03306 54.6 65.5
67(5) 0.0356 54.6 64.9
60(5) 0.0400 54.6 64.0
61(5) 0.0384 54.6 63.0
63(5) 0.0370 54.6 62.1
50(5) 0.0473 54.5 61.3
57(5) 0.0416 54.5 60.7
58(5) 0.0400 54.5 60.1
53(5) 0.0434 54.5 59.7
65(5) 0.0370 54.5 59.4
60(5) 0.0384 54.5 59.1
58(5) 0.0400 54.5 58.9
60(5) 0.0400 54.5 58.7
60(5) 0.0400 54.5 58.6
62(5) 0.0384 54.5 58.4
54(5) 0.0434 54.5 58.3
56(5) 0.0416 54.5 58.3
62(5) 0.0384 54.5 58.2
56(5) 0.0416 54.5 58.2
62(5) 0.0384 54.5 58.2
54(5) 0.0434 54.5 58.3
54(5) 0.0434 54.5 58.4
53(5) 0.0453 54.5 58.6
58(5) 0.0416 54.5 58.8
60(5) 0.0384 54.5 59.1
65(5) 0.0370 54.5 59.4
60(5) 0.0384 54.5 59.8
67(5) 0.0356 54.5 60.3
64(5) 0.0370 54.5 60.9
64(5) 0.0370 54.4 61.6
63(5) 0.0370 54.4 62.4
64(5) 0.0370 54.4 63.2
60(5) 0.0400 54.4 64.0
70(5) 0.03429 54.4 64.8
75(6) 0.03078 54.4 65.7
73(6) 0.03189 54.4 66.5
66(5) 0.0356 54.4 67.5
69(5) 0.03429 54.4 68.4
69(5) 0.03429 54.4 69.3
64(5) 0.0370 54.4 69.8
66(5) 0.0356 54.4 69.8
66(5) 0.0356 54.4 69.2
60(5) 0.0400 54.4 68.1
65(5) 0.0370 54.4 66.7
63(5) 0.0370 54.4 65.3
58(5) 0.0400 54.4 64.0
67(5) 0.0356 54.4 62.9
63(5) 0.0370 54.4 62.0
63(5) 0.0370 54.4 61.1
64(5) 0.0370 54.4 60.5
53(5) 0.0434 54.4 59.9
61(5) 0.0384 54.4 59.5
61(5) 0.0384 54.4 59.1
53(5) 0.0453 54.4 58.8
51(5) 0.0453 54.3 58.5
56(5) 0.0416 54.3 58.3
55(5) 0.0416 54.3 58.2
61(5) 0.0384 54.3 58.0
55(5) 0.0416 54.3 57.9
52(5) 0.0453 54.3 57.8
63(5) 0.0370 54.3 57.8
54(5) 0.0434 54.3 57.7
54(5) 0.0434 54.3 57.7
53(5) 0.0453 54.3 57.7
59(5) 0.0400 54.3 57.7
53(5) 0.0434 54.3 57.7
55(5) 0.0434 54.3 57.7
61(5) 0.0384 54.3 57.7
64(5) 0.0370 54.3 57.8
62(5) 0.0384 54.3 57.9
62(5) 0.0384 54.3 57.9
64(5) 0.0370 54.3 58.0
65(5) 0.0370 54.3 58.1
61(5) 0.0384 54.3 58.3
57(5) 0.0416 54.3 58.6
58(5) 0.0400 54.3 58.8
60(5) 0.0384 54.3 59.0
53(5) 0.0434 54.3 59.2
56(5) 0.0416 54.3 59.5
61(5) 0.0384 54.3 59.8
66(5) 0.0370 54.3 60.2
71(6) 0.03306 54.2 60.7
67(5) 0.0356 54.2 61.2
59(5) 0.0400 54.2 61.9
65(5) 0.0356 54.2 62.7
74(6) 0.03306 54.2 63.7
65(5) 0.0370 54.2 64.8
68(5) 0.03429 54.2 65.9
67(5) 0.0356 54.2 67.0
71(6) 0.03306 54.2 68.0
78(6) 0.03078 54.2 69.0
80(6) 0.02973 54.2 70.2
77(6) 0.03078 54.2 71.6
71(5) 0.03429 54.2 73.2
64(5) 0.0370 54.2 74.6
84(6) 0.02778 54.2 75.4
80(6) 0.02973 54.2 75.4
81(6) 0.02973 54.2 74.5
70(5) 0.03429 54.2 73.0
68(5) 0.03429 54.2 71.3
68(5) 0.03429 54.2 69.8
78(6) 0.03078 54.2 68.6
77(6) 0.03078 54.2 67.7
74(6) 0.03189 54.2 67.0
67(5) 0.0356 54.2 66.6
66(5) 0.0356 54.2 66.4
74(6) 0.03189 54.2 66.4
72(6) 0.03306 54.2 66.5
79(6) 0.02973 54.2 66.8
79(6) 0.02973 54.1 67.2
75(6) 0.03189 54.1 67.8
75(6) 0.03189 54.1 68.4
87(6) 0.02687 54.1 69.3
74(6) 0.03189 54.1 70.3
80(6) 0.02973 54.1 71.5
87(6) 0.02687 54.1 72.8
80(6) 0.02973 54.1 74.5
88(6) 0.02687 54.1 76.4
96(6) 0.02441 54.1 78.7
83(6) 0.02873 54.1 81.4
92(6) 0.02601 54.1 84.6
89(6) 0.02687 54.1 88.4
93(6) 0.02520 54.1 92.9
106(7) 0.02228 54.1 98.2
105(7) 0.02296 54.1 104.5
123(7) 0.01929 54.1 111.6
142(8) 0.01687 54.1 119.5
125(7) 0.01877 54.1 128.2
137(8) 0.01731 54.1 137.3
145(8) 0.01644 54.1 147.2
168(8) 0.01417 54.1 158.3
171(9) 0.01384 54.1 170.4
191(9) 0.01262 54.1 183.0
222(10) 0.01063 54.1 194.7
223(10) 0.01063 54.1 204.1
229(10) 0.01041 54.1 210.1
230(10) 0.01020 54.1 213.2
221(10) 0.01063 54.1 214.5
242(10) 0.00980 54.1 215.0
230(10) 0.01041 54.0 214.3
222(10) 0.01063 54.0 210.3
209(9) 0.01132 54.0 201.0
205(9) 0.01156 54.0 186.5
178(9) 0.01321 54.0 169.4
157(8) 0.01524 54.0 152.7
140(8) 0.01687 54.0 137.9
119(7) 0.01984 54.0 125.7
111(7) 0.02100 54.0 116.0
107(7) 0.02228 54.0 108.5
90(6) 0.02687 54.0 102.7
103(7) 0.02296 54.0 98.3
94(6) 0.02520 54.0 94.9
99(7) 0.02367 54.0 92.3
89(6) 0.02601 54.0 90.5
86(6) 0.02778 54.0 89.3
83(6) 0.02778 54.0 88.6
94(6) 0.02520 54.0 88.5
105(7) 0.02296 54.0 88.6
91(6) 0.02601 54.0 88.7
95(6) 0.02520 54.0 88.3
95(6) 0.02520 54.0 87.6
91(6) 0.02601 54.0 86.6
86(6) 0.02778 54.0 85.5
83(6) 0.02873 54.0 84.6
82(6) 0.02873 54.0 83.8
81(6) 0.02973 54.0 83.2
84(6) 0.02873 54.0 82.3
85(6) 0.02778 54.0 81.1
76(6) 0.03078 54.0 79.5
89(6) 0.02687 54.0 77.6
76(6) 0.03078 54.0 75.6
74(6) 0.03189 54.0 73.7
64(5) 0.0370 53.9 72.0
72(6) 0.03306 53.9 70.5
72(6) 0.03306 53.9 69.3
72(6) 0.03306 53.9 68.2
70(5) 0.03429 53.9 67.4
76(6) 0.03078 53.9 66.8
59(5) 0.0400 53.9 66.3
72(6) 0.03306 53.9 65.9
68(5) 0.03429 53.9 65.6
70(5) 0.03429 53.9 65.3
79(6) 0.02973 53.9 65.0
63(5) 0.0370 53.9 64.8
72(6) 0.03306 53.9 64.7
62(5) 0.0384 53.9 64.7
62(5) 0.0384 53.9 64.8
66(5) 0.0356 53.9 65.0
65(5) 0.0356 53.9 65.2
74(6) 0.03189 53.9 65.4
76(6) 0.03078 53.9 65.7
70(5) 0.03429 53.9 66.1
70(5) 0.03429 53.9 66.5
68(5) 0.03429 53.9 66.9
68(5) 0.0356 53.9 67.2
63(5) 0.0370 53.9 67.3
69(5) 0.03429 53.9 67.1
71(6) 0.03306 53.9 66.7
62(5) 0.0384 53.9 66.0
63(5) 0.0370 53.9 65.3
71(6) 0.03306 53.9 64.5
61(5) 0.0384 53.9 63.9
66(5) 0.0356 53.9 63.3
67(5) 0.0356 53.9 62.9
64(5) 0.0370 53.9 62.6
61(5) 0.0384 53.9 62.4
58(5) 0.0400 53.9 62.4
68(5) 0.03429 53.9 62.4
69(5) 0.03429 53.8 62.6
64(5) 0.0370 53.8 62.8
68(5) 0.03429 53.8 63.1
78(6) 0.03078 53.8 63.5
53(5) 0.0453 53.8 63.9
68(5) 0.03429 53.8 64.3
70(5) 0.03429 53.8 64.8
69(5) 0.03429 53.8 65.2
65(5) 0.0356 53.8 65.8
84(6) 0.02778 53.8 66.3
65(5) 0.0370 53.8 66.7
78(6) 0.03078 53.8 66.9
68(5) 0.0356 53.8 66.8
69(5) 0.03429 53.8 66.3
72(6) 0.03306 53.8 65.7
73(6) 0.03189 53.8 65.0
70(5) 0.03429 53.8 64.3
70(5) 0.03429 53.8 63.8
59(5) 0.0400 53.8 63.3
70(5) 0.03429 53.8 63.0
72(6) 0.03306 53.8 62.8
62(5) 0.0384 53.8 62.7
64(5) 0.0370 53.8 62.7
66(5) 0.0356 53.8 62.8
62(5) 0.0384 53.8 62.9
67(5) 0.0356 53.8 63.1
74(6) 0.03189 53.8 63.5
65(5) 0.0356 53.8 63.8
70(5) 0.03429 53.8 64.2
78(6) 0.02973 53.8 64.6
62(5) 0.0384 53.8 65.0
71(6) 0.03306 53.8 65.6
74(6) 0.03189 53.8 66.2
67(5) 0.0356 53.8 67.0
69(5) 0.03429 53.8 67.7
74(6) 0.03189 53.8 68.1
74(6) 0.03189 53.8 68.1
71(6) 0.03306 53.8 67.7
64(5) 0.0370 53.8 67.1
71(6) 0.03306 53.8 66.5
74(6) 0.03189 53.8 66.0
75(6) 0.03189 53.8 65.8
64(5) 0.0370 53.7 65.6
73(6) 0.03189 53.7 65.6
67(5) 0.03429 53.7 65.8
62(5) 0.0384 53.7 66.1
71(6) 0.03306 53.7 66.4
71(6) 0.03306 53.7 66.9
61(5) 0.0384 53.7 67.5
77(6) 0.03078 53.7 68.2
68(5) 0.03429 53.7 69.0
71(6) 0.03306 53.7 70.0
74(6) 0.03189 53.7 71.0
80(6) 0.02973 53.7 72.3
80(6) 0.02973 53.7 73.8
88(6) 0.02687 53.7 75.5
79(6) 0.02973 53.7 77.4
90(6) 0.02601 53.7 79.8
97(6) 0.02441 53.7 82.5
86(6) 0.02778 53.7 85.7
97(6) 0.02441 53.7 89.5
102(7) 0.02296 53.7 93.9
108(7) 0.02163 53.7 99.1
110(7) 0.02163 53.7 105.0
107(7) 0.02228 53.7 111.7
115(7) 0.02041 53.7 118.9
120(7) 0.01984 53.7 126.2
141(8) 0.01687 53.7 133.7
131(8) 0.01778 53.7 141.1
154(8) 0.01524 53.7 148.7
157(8) 0.01487 53.7 156.8
169(8) 0.01417 53.7 164.9
201(9) 0.01181 53.7 172.3
187(9) 0.01262 53.7 177.3
192(9) 0.01235 53.7 178.6
165(8) 0.01417 53.7 175.6
171(9) 0.01384 53.7 169.0
151(8) 0.01563 53.7 160.3
141(8) 0.01687 53.7 151.2
151(8) 0.01563 53.7 142.9
126(7) 0.01877 53.7 135.9
110(7) 0.02163 53.7 130.6
129(7) 0.01826 53.7 127.0
115(7) 0.02041 53.7 125.1
120(7) 0.01984 53.7 124.8
119(7) 0.01984 53.7 126.1
132(8) 0.01778 53.7 129.1
136(8) 0.01731 53.7 133.8
133(8) 0.01778 53.7 140.3
149(8) 0.01602 53.7 148.8
165(8) 0.01417 53.7 159.1
187(9) 0.01262 53.6 171.1
192(9) 0.01235 53.6 184.2
198(9) 0.01181 53.6 197.7
211(10) 0.01108 53.6 211.2
244(10) 0.00961 53.6 224.8
251(10) 0.00943 53.6 239.1
272(11) 0.00857 53.6 254.5
308(11) 0.00769 53.6 270.0
317(12) 0.00743 53.6 283.2
337(12) 0.00694 53.6 290.4
313(12) 0.00756 53.6 288.4
274(11) 0.00857 53.6 276.6
255(10) 0.00925 53.6 257.3
204(9) 0.01156 53.6 234.2
179(9) 0.01321 53.6 210.8
167(8) 0.01417 53.6 189.0
156(8) 0.01524 53.6 169.8
132(8) 0.01778 53.6 153.4
123(7) 0.01929 53.6 139.6
120(7) 0.01929 53.6 128.1
111(7) 0.02100 53.6 118.5
99(7) 0.02367 53.6 110.6
98(7) 0.02367 53.6 104.0
113(7) 0.02100 53.6 98.5
98(7) 0.02367 53.6 93.8
84(6) 0.02778 53.6 89.9
79(6) 0.02973 53.6 86.5
76(6) 0.03078 53.6 83.6
85(6) 0.02778 53.6 81.1
99(7) 0.02367 53.6 79.0
78(6) 0.02973 53.6 77.1
70(5) 0.03429 53.6 75.5
83(6) 0.02873 53.6 74.0
87(6) 0.02687 53.6 72.8
76(6) 0.03078 53.6 71.7
74(6) 0.03189 53.6 70.7
75(6) 0.03078 53.6 69.9
78(6) 0.03078 53.6 69.2
75(6) 0.03078 53.6 68.5
74(6) 0.03189 53.6 68.0
66(5) 0.0356 53.6 67.6
75(6) 0.03078 53.6 67.3
74(6) 0.03189 53.6 67.0
69(5) 0.03429 53.6 66.9
72(6) 0.03306 53.6 66.9
82(6) 0.02873 53.6 67.0
75(6) 0.03078 53.6 67.2
78(6) 0.02973 53.6 67.7
82(6) 0.02873 53.6 68.3
77(6) 0.03078 53.6 69.1
85(6) 0.02778 53.6 70.2
79(6) 0.02973 53.6 71.5
82(6) 0.02873 53.6 73.0
80(6) 0.02973 53.6 74.6
77(6) 0.03078 53.6 76.1
80(6) 0.02973 53.6 77.7
93(6) 0.02520 53.6 79.3
89(6) 0.02601 53.6 81.1
83(6) 0.02873 53.6 83.2
100(7) 0.02296 53.6 85.3
94(6) 0.02520 53.6 86.7
95(6) 0.02441 53.6 87.0
77(6) 0.03078 53.6 85.8
101(7) 0.02296 53.6 83.5
78(6) 0.02973 53.6 80.6
75(6) 0.03078 53.6 77.6
72(6) 0.03189 53.5 74.9
72(6) 0.03189 53.5 72.6
87(6) 0.02687 53.5 70.9
77(6) 0.03078 53.5 69.5
77(6) 0.03078 53.5 68.3
76(6) 0.03078 53.5 67.5
70(6) 0.03306 53.5 66.9
73(6) 0.03189 53.5 66.5
86(6) 0.02778 53.5 66.3
83(6) 0.02873 53.5 66.1
80(6) 0.02873 53.5 65.9
74(6) 0.03189 53.5 65.4
74(6) 0.03189 53.5 64.7
68(5) 0.03429 53.5 63.8
76(6) 0.03078 53.5 62.9
76(6) 0.03078 53.5 62.0
72(6) 0.03306 53.5 61.3
73(6) 0.03189 53.5 60.7
61(5) 0.0384 53.5 60.1
68(5) 0.03429 53.5 59.7
56(5) 0.0416 53.5 59.3
73(6) 0.03189 53.5 59.0
71(6) 0.03306 53.5 58.8
53(5) 0.0434 53.5 58.5
68(5) 0.03429 53.5 58.4
68(5) 0.03429 53.5 58.2
60(5) 0.0400 53.5 58.1
46(4) 0.0517 53.5 58.0
57(5) 0.0416 53.5 57.9
62(5) 0.0384 53.5 57.8
66(5) 0.0356 53.5 57.8
73(6) 0.03189 53.5 57.7
56(5) 0.0416 53.5 57.7
65(5) 0.0356 53.5 57.7
76(6) 0.03078 53.5 57.7
66(5) 0.0356 53.5 57.8
60(5) 0.0384 53.5 57.8
56(5) 0.0416 53.5 57.9
54(5) 0.0434 53.5 58.0
70(6) 0.03306 53.5 58.1
53(5) 0.0434 53.5 58.2
66(5) 0.0356 53.5 58.4
57(5) 0.0416 53.5 58.6
57(5) 0.0416 53.5 58.8
60(5) 0.0384 53.5 59.1
74(6) 0.03189 53.5 59.4
66(5) 0.0356 53.5 59.8
65(5) 0.0370 53.5 60.2
52(5) 0.0453 53.5 60.8
58(5) 0.0400 53.5 61.4
70(6) 0.03306 53.5 62.1
52(5) 0.0453 53.5 62.8
64(5) 0.0356 53.5 63.7
72(6) 0.03306 53.5 64.6
59(5) 0.0400 53.5 65.7
74(6) 0.03189 53.5 66.9
67(5) 0.0356 53.5 68.2
63(5) 0.0370 53.5 69.5
78(6) 0.02973 53.5 70.9
70(6) 0.03306 53.5 72.2
82(6) 0.02873 53.5 73.3
73(6) 0.03189 53.5 74.1
74(6) 0.03189 53.5 74.5
75(6) 0.03078 53.5 74.6
74(6) 0.03189 53.5 74.3
77(6) 0.03078 53.5 73.7
73(6) 0.03189 53.5 72.9
82(6) 0.02873 53.5 72.1
77(6) 0.03078 53.5 71.2
69(5) 0.03429 53.5 70.4
71(6) 0.03306 53.5 69.7
60(5) 0.0384 53.5 69.2
71(6) 0.03306 53.5 68.8
74(6) 0.03189 53.5 68.6
67(5) 0.03429 53.5 68.3
59(5) 0.0400 53.5 68.0
60(5) 0.0384 53.5 67.6
74(6) 0.03189 53.5 67.1
65(5) 0.0356 53.5 66.5
65(5) 0.0356 53.5 65.9
56(5) 0.0416 53.5 65.2
54(5) 0.0434 53.5 64.4
61(5) 0.0384 53.5 63.7
63(5) 0.0370 53.5 62.9
74(6) 0.03189 53.5 62.3
62(5) 0.0384 53.5 61.7
70(6) 0.03306 53.5 61.3
63(5) 0.0370 53.5 61.0
55(5) 0.0416 53.5 60.7
58(5) 0.0400 53.5 60.5
57(5) 0.0416 53.5 60.4
59(5) 0.0400 53.5 60.2
54(5) 0.0434 53.5 59.9
61(5) 0.0384 53.5 59.6
61(5) 0.0384 53.5 59.3
60(5) 0.0384 53.5 58.9
60(5) 0.0384 53.5 58.6
58(5) 0.0400 53.5 58.2
62(5) 0.0370 53.5 57.9
52(5) 0.0453 53.5 57.6
50(5) 0.0473 53.5 57.4
54(5) 0.0434 53.5 57.1
58(5) 0.0400 53.5 56.9
58(5) 0.0400 53.5 56.8
57(5) 0.0416 53.5 56.6
52(5) 0.0453 53.5 56.5
60(5) 0.0384 53.5 56.4
61(5) 0.0384 53.5 56.3
57(5) 0.0416 53.5 56.2
59(5) 0.0400 53.5 56.1
50(5) 0.0473 53.5 56.1
56(5) 0.0416 53.5 56.0
48(5) 0.0494 53.5 56.0
49(5) 0.0473 53.5 56.0
59(5) 0.0400 53.5 56.0
51(5) 0.0453 53.5 56.0
53(5) 0.0434 53.5 56.0
56(5) 0.0416 53.5 56.0
60(5) 0.0400 53.5 56.1
47(5) 0.0494 53.5 56.1
58(5) 0.0400 53.5 56.2
51(5) 0.0473 53.5 56.3
48(5) 0.0473 53.5 56.4
65(5) 0.0356 53.5 56.5
62(5) 0.0384 53.5 56.7
53(5) 0.0434 53.5 56.9
59(5) 0.0400 53.5 57.1
53(5) 0.0434 53.5 57.4
58(5) 0.0400 53.5 57.8
60(5) 0.0384 53.5 58.2
48(5) 0.0494 53.5 58.7
61(5) 0.0384 53.5 59.2
57(5) 0.0416 53.5 59.9
62(5) 0.0370 53.5 60.5
64(5) 0.0370 53.5 61.2
63(5) 0.0370 53.5 61.9
66(5) 0.0356 53.5 62.6
66(5) 0.0356 53.5 63.3
64(5) 0.0356 53.5 64.1
66(5) 0.0356 53.5 64.8
66(5) 0.0356 53.5 65.4
65(5) 0.0356 53.5 65.6
61(5) 0.0384 53.5 65.4
64(5) 0.0370 53.5 64.8
60(5) 0.0384 53.5 63.9
58(5) 0.0400 53.5 62.9
57(5) 0.0416 53.5 61.9
64(5) 0.0370 53.5 61.0
60(5) 0.0384 53.5 60.2
61(5) 0.0384 53.5 59.6
57(5) 0.0416 53.5 59.1
66(5) 0.0356 53.5 58.6
58(5) 0.0400 53.5 58.3
65(5) 0.0356 53.5 58.1
63(5) 0.0370 53.5 58.0
55(5) 0.0434 53.5 57.9
52(5) 0.0453 53.5 57.9
63(5) 0.0370 53.5 58.0
59(5) 0.0400 53.5 58.1
55(5) 0.0416 53.5 58.2
57(5) 0.0400 53.5 58.4
52(5) 0.0453 53.5 58.6
53(5) 0.0434 53.5 58.8
60(5) 0.0384 53.5 59.1
67(5) 0.0356 53.5 59.4
53(5) 0.0453 53.5 59.8
62(5) 0.0370 53.5 60.2
62(5) 0.0370 53.5 60.5
56(5) 0.0416 53.5 60.9
55(5) 0.0416 53.5 61.2
58(5) 0.0400 53.5 61.5
61(5) 0.0384 53.5 61.9
61(5) 0.0384 53.5 62.3
69(5) 0.03429 53.5 62.7
58(5) 0.0400 53.5 63.1
62(5) 0.0370 53.5 63.4
73(6) 0.03189 53.5 63.6
60(5) 0.0384 53.5 63.7
60(5) 0.0384 53.5 63.5
68(5) 0.03429 53.5 63.4
70(5) 0.03429 53.5 63.4
59(5) 0.0400 53.5 63.4
66(5) 0.0356 53.5 63.6
74(6) 0.03189 53.5 63.8
61(5) 0.0384 53.5 64.3
66(5) 0.0356 53.5 64.9
56(5) 0.0416 53.5 65.6
62(5) 0.0384 53.5 66.5
73(6) 0.03189 53.5 67.6
71(6) 0.03306 53.5 68.7
69(6) 0.03306 53.5 69.8
70(6) 0.03306 53.5 70.8
78(6) 0.02973 53.5 71.5
80(6) 0.02873 53.5 71.8
69(5) 0.03429 53.5 71.7
75(6) 0.03078 53.5 71.0
73(6) 0.03189 53.5 70.0
66(5) 0.0356 53.5 68.8
70(6) 0.03306 53.5 67.5
70(6) 0.03306 53.5 66.1
70(6) 0.03306 53.5 64.8
56(5) 0.0416 53.5 63.7
63(5) 0.0370 53.5 62.6
65(5) 0.0356 53.5 61.7
71(6) 0.03306 53.5 61.0
63(5) 0.0370 53.5 60.4
62(5) 0.0384 53.5 59.8
63(5) 0.0370 53.5 59.3
55(5) 0.0416 53.5 58.9
62(5) 0.0370 53.5 58.6
47(5) 0.0494 53.5 58.4
54(5) 0.0434 53.5 58.2
64(5) 0.0356 53.5 58.0
61(5) 0.0384 53.5 57.9
62(5) 0.0384 53.5 57.9
57(5) 0.0416 53.5 57.9
62(5) 0.0384 53.5 57.9
57(5) 0.0416 53.5 57.9
62(5) 0.0370 53.5 58.0
68(5) 0.03429 53.5 58.1
60(5) 0.0384 53.5 58.1
59(5) 0.0384 53.5 58.0
53(5) 0.0434 53.5 57.9
51(5) 0.0453 53.5 57.8
55(5) 0.0434 53.5 57.5
57(5) 0.0416 53.5 57.3
48(5) 0.0494 53.5 57.1
46(4) 0.0517 53.5 56.8
63(5) 0.0370 53.5 56.6
46(4) 0.0517 53.5 56.3
58(5) 0.0400 53.5 56.2
55(5) 0.0434 53.5 56.0
57(5) 0.0400 53.5 55.9
56(5) 0.0416 53.5 55.7
50(5) 0.0473 53.5 55.6
55(5) 0.0416 53.5 55.6
53(5) 0.0434 53.5 55.5
49(5) 0.0473 53.5 55.5
50(5) 0.0473 53.5 55.5
62(5) 0.0370 53.5 55.4
54(5) 0.0434 53.5 55.5
57(5) 0.0400 53.5 55.5
53(5) 0.0434 53.5 55.5
57(5) 0.0416 53.5 55.6
57(5) 0.0416 53.5 55.7
52(5) 0.0453 53.5 55.9
50(5) 0.0473 53.5 56.0
53(5) 0.0434 53.5 56.2
63(5) 0.0370 53.5 56.4
61(5) 0.0384 53.5 56.6
60(5) 0.0384 53.5 56.8
67(5) 0.03429 53.5 56.9
63(5) 0.0370 53.5 57.1
65(5) 0.0356 53.5 57.1
64(5) 0.0370 53.5 57.1
59(5) 0.0400 53.5 56.9
49(5) 0.0473 53.5 56.8
57(5) 0.0416 53.5 56.5
62(5) 0.0370 53.5 56.3
53(5) 0.0434 53.5 56.1
44(4) 0.0517 53.5 55.8
54(5) 0.0434 53.5 55.6
57(5) 0.0416 53.5 55.5
51(5) 0.0473 53.5 55.3
55(5) 0.0416 53.5 55.2
44(4) 0.0541 53.5 55.1
55(5) 0.0434 53.5 55.1
58(5) 0.0400 53.5 55.0
57(5) 0.0416 53.5 55.0
49(5) 0.0473 53.5 54.9
48(5) 0.0473 53.5 54.9
57(5) 0.0400 53.5 54.9
60(5) 0.0384 53.5 54.8
57(5) 0.0416 53.5 54.8
57(5) 0.0400 53.5 54.8
51(5) 0.0453 53.5 54.7
53(5) 0.0434 53.5 54.7
53(5) 0.0434 53.5 54.6
47(5) 0.0494 53.5 54.6
58(5) 0.0400 53.5 54.6
49(5) 0.0473 53.5 54.5
53(5) 0.0434 53.5 54.5
50(5) 0.0473 53.5 54.5
52(5) 0.0434 53.5 54.5
57(5) 0.0400 53.5 54.5
51(5) 0.0453 53.5 54.5
48(5) 0.0494 53.5 54.5
46(5) 0.0494 53.5 54.5
57(5) 0.0400 53.5 54.5
50(5) 0.0473 53.5 54.5
50(5) 0.0453 53.5 54.5
49(5) 0.0473 53.5 54.5
55(5) 0.0416 53.5 54.6
60(5) 0.0384 53.5 54.6
56(5) 0.0416 53.5 54.6
54(5) 0.0434 53.5 54.7
56(5) 0.0416 53.5 54.7
54(5) 0.0434 53.5 54.8
51(5) 0.0453 53.6 54.8
54(5) 0.0434 53.6 54.9
53(5) 0.0434 53.6 54.9
52(5) 0.0453 53.6 55.0
52(5) 0.0453 53.6 55.1
49(5) 0.0473 53.6 55.1
52(5) 0.0453 53.6 55.1
52(5) 0.0453 53.6 55.1
51(5) 0.0453 53.6 55.1
61(5) 0.0384 53.6 55.1
52(5) 0.0434 53.6 55.0
55(5) 0.0416 53.6 54.9
53(5) 0.0434 53.6 54.9
47(5) 0.0494 53.6 54.8
59(5) 0.0400 53.6 54.8
54(5) 0.0434 53.6 54.7
51(5) 0.0473 53.6 54.7
54(5) 0.0434 53.6 54.6
53(5) 0.0434 53.6 54.6
59(5) 0.0400 53.6 54.6
51(5) 0.0453 53.6 54.6
59(5) 0.0384 53.6 54.6
57(5) 0.0416 53.6 54.5
50(5) 0.0473 53.6 54.5
56(5) 0.0416 53.6 54.5
47(5) 0.0494 53.6 54.5
52(5) 0.0453 53.6 54.5
60(5) 0.0384 53.6 54.5
58(5) 0.0400 53.6 54.5
52(5) 0.0453 53.6 54.5
54(5) 0.0434 53.6 54.5
47(5) 0.0494 53.6 54.5
50(5) 0.0453 53.6 54.6
56(5) 0.0416 53.6 54.6
46(4) 0.0517 53.6 54.6
55(5) 0.0416 53.6 54.6
51(5) 0.0453 53.6 54.6
50(5) 0.0473 53.6 54.6
48(5) 0.0494 53.6 54.6
56(5) 0.0416 53.6 54.6
58(5) 0.0400 53.6 54.6
55(5) 0.0416 53.6 54.6
66(5) 0.0356 53.6 54.6
52(5) 0.0453 53.6 54.7
53(5) 0.0434 53.6 54.7
50(5) 0.0473 53.6 54.7
52(5) 0.0453 53.6 54.7
53(5) 0.0434 53.6 54.7
52(5) 0.0453 53.6 54.7
63(5) 0.0370 53.6 54.7
50(5) 0.0473 53.6 54.8
60(5) 0.0384 53.6 54.8
56(5) 0.0416 53.6 54.8
52(5) 0.0453 53.6 54.9
57(5) 0.0416 53.6 54.9
58(5) 0.0400 53.6 54.9
50(5) 0.0473 53.6 54.9
51(5) 0.0453 53.6 55.0
59(5) 0.0400 53.6 55.0
58(5) 0.0400 53.6 55.0
43(4) 0.0541 53.6 55.1
58(5) 0.0400 53.6 55.1
44(4) 0.0517 53.6 55.1
49(5) 0.0473 53.6 55.2
57(5) 0.0416 53.6 55.2
51(5) 0.0453 53.6 55.3
59(5) 0.0400 53.6 55.3
49(5) 0.0473 53.6 55.4
54(5) 0.0434 53.6 55.4
51(5) 0.0453 53.6 55.5
59(5) 0.0400 53.6 55.6
51(5) 0.0453 53.6 55.6
53(5) 0.0434 53.6 55.7
52(5) 0.0453 53.6 55.8
57(5) 0.0400 53.7 55.9
62(5) 0.0370 53.7 56.1
51(5) 0.0453 53.7 56.2
50(5) 0.0473 53.7 56.3
49(5) 0.0473 53.7 56.5
59(5) 0.0400 53.7 56.7
54(5) 0.0434 53.7 56.9
62(5) 0.0370 53.7 57.1
57(5) 0.0400 53.7 57.4
54(5) 0.0434 53.7 57.6
58(5) 0.0400 53.7 57.9
64(5) 0.0356 53.7 58.3
61(5) 0.0384 53.7 58.7
67(5) 0.03429 53.7 59.2
52(5) 0.0453 53.7 59.9
63(5) 0.0370 53.7 60.6
60(5) 0.0384 53.7 61.6
66(5) 0.0356 53.7 62.6
76(6) 0.03078 53.7 63.8
73(6) 0.03189 53.7 64.9
63(5) 0.0370 53.7 66.1
66(5) 0.03429 53.7 67.3
75(6) 0.03078 53.7 68.5
78(6) 0.02973 53.7 69.8
68(5) 0.03429 53.7 71.2
74(6) 0.03189 53.7 72.4
60(5) 0.0384 53.7 73.0
77(6) 0.02973 53.7 72.6
65(5) 0.0356 53.7 71.4
73(6) 0.03189 53.7 69.7
61(5) 0.0384 53.7 67.9
70(6) 0.03306 53.7 66.1
59(5) 0.0400 53.7 64.6
68(5) 0.03429 53.7 63.4
53(5) 0.0434 53.7 62.5
59(5) 0.0400 53.7 61.8
57(5) 0.0400 53.7 61.2
61(5) 0.0384 53.7 60.9
57(5) 0.0400 53.7 60.6
62(5) 0.0370 53.7 60.5
60(5) 0.0384 53.7 60.5
66(5) 0.0356 53.7 60.5
70(6) 0.03306 53.7 60.7
69(6) 0.03306 53.7 61.1
58(5) 0.0400 53.7 61.5
66(5) 0.03429 53.7 62.1
71(6) 0.03189 53.7 62.9
56(5) 0.0416 53.7 63.7
66(5) 0.03429 53.7 64.7
68(5) 0.03429 53.7 65.7
61(5) 0.0370 53.7 66.7
68(5) 0.03429 53.7 67.7
58(5) 0.0400 53.7 68.8
71(6) 0.03306 53.7 70.1
70(6) 0.03306 53.7 71.5
75(6) 0.03078 53.7 72.6
77(6) 0.03078 53.7 73.0
74(6) 0.03078 53.7 72.5
73(6) 0.03189 53.8 71.3
72(6) 0.03189 53.8 69.9
65(5) 0.0356 53.8 68.5
77(6) 0.03078 53.8 67.3
68(5) 0.03429 53.8 66.5
70(6) 0.03306 53.8 66.0
66(5) 0.0356 53.8 65.7
78(6) 0.02973 53.8 65.7
66(5) 0.0356 53.8 65.8
69(6) 0.03306 53.8 66.0
75(6) 0.03078 53.8 66.3
63(5) 0.0370 53.8 66.7
70(6) 0.03306 53.8 67.0
76(6) 0.03078 53.8 67.4
65(5) 0.0356 53.8 67.9
69(6) 0.03306 53.8 68.5
68(5) 0.03429 53.8 69.2
76(6) 0.03078 53.8 70.2
71(6) 0.03189 53.8 71.5
97(7) 0.02367 53.8 73.1
80(6) 0.02973 53.8 75.0
86(6) 0.02687 53.8 77.3
77(6) 0.02973 53.8 79.9
86(6) 0.02687 53.8 82.6
86(6) 0.02687 53.8 85.4
92(6) 0.02520 53.8 88.1
90(6) 0.02601 53.8 91.0
110(7) 0.02100 53.8 94.0
99(7) 0.02367 53.8 97.0
113(7) 0.02041 53.8 99.5
109(7) 0.02100 53.8 100.8
94(6) 0.02441 53.8 100.4
104(7) 0.02228 53.8 98.0
85(6) 0.02687 53.8 94.4
91(6) 0.02520 53.8 90.2
83(6) 0.02778 53.8 86.2
76(6) 0.03078 53.8 82.5
92(6) 0.02520 53.8 79.4
76(6) 0.03078 53.8 76.9
77(6) 0.03078 53.8 74.8
75(6) 0.03078 53.8 73.2
75(6) 0.03078 53.8 72.0
84(6) 0.02778 53.8 71.1
65(5) 0.0356 53.8 70.4
83(6) 0.02778 53.8 69.9
65(5) 0.0356 53.8 69.7
75(6) 0.03078 53.8 69.5
69(6) 0.03306 53.8 69.6
71(6) 0.03189 53.8 69.7
79(6) 0.02973 53.8 70.0
76(6) 0.03078 53.9 70.4
75(6) 0.03078 53.9 71.0
79(6) 0.02973 53.9 71.6
71(6) 0.03306 53.9 72.4
76(6) 0.03078 53.9 73.4
80(6) 0.02873 53.9 74.5
84(6) 0.02778 53.9 75.9
66(5) 0.03429 53.9 77.4
86(6) 0.02687 53.9 79.1
75(6) 0.03078 53.9 81.2
77(6) 0.02973 53.9 83.5
95(6) 0.02441 53.9 86.3
79(6) 0.02973 53.9 89.5
87(6) 0.02601 53.9 93.1
99(7) 0.02367 53.9 97.4
99(7) 0.02296 53.9 102.3
107(7) 0.02163 53.9 108.1
94(6) 0.02520 53.9 114.6
110(7) 0.02100 53.9 122.2
129(8) 0.01778 53.9 130.6
117(7) 0.01984 53.9 140.0
140(8) 0.01644 53.9 149.8
147(8) 0.01602 53.9 159.7
152(8) 0.01524 53.9 168.9
173(9) 0.01321 53.9 176.2
167(9) 0.01384 53.9 180.8
199(9) 0.01156 53.9 182.0
182(9) 0.01262 53.9 179.6
187(9) 0.01235 53.9 174.4
178(9) 0.01291 53.9 167.1
186(9) 0.01262 53.9 158.9
164(8) 0.01417 53.9 150.9
163(8) 0.01417 53.9 143.5
145(8) 0.01602 53.9 137.3
150(8) 0.01524 53.9 132.6
152(8) 0.01524 53.9 129.2
125(7) 0.01877 53.9 127.0
133(8) 0.01731 53.9 125.8
133(8) 0.01731 53.9 125.1
139(8) 0.01644 53.9 125.0
135(8) 0.01687 53.9 125.6
148(8) 0.01563 53.9 127.1
149(8) 0.01563 53.9 129.3
144(8) 0.01602 53.9 131.3
137(8) 0.01687 53.9 131.4
121(7) 0.01929 54.0 128.5
123(7) 0.01877 54.0 122.8
113(7) 0.02041 54.0 115.5
99(7) 0.02367 54.0 108.0
92(6) 0.02520 54.0 101.2
83(6) 0.02778 54.0 95.5
77(6) 0.02973 54.0 90.8
80(6) 0.02873 54.0 87.0
96(7) 0.02367 54.0 84.0
80(6) 0.02873 54.0 81.6
88(6) 0.02601 54.0 79.7
82(6) 0.02778 54.0 78.2
78(6) 0.02973 54.0 77.1
78(6) 0.02973 54.0 76.2
87(6) 0.02687 54.0 75.6
77(6) 0.02973 54.0 75.3
72(6) 0.03189 54.0 75.1
72(6) 0.03189 54.0 75.1
79(6) 0.02973 54.0 75.3
71(6) 0.03189 54.0 75.7
80(6) 0.02873 54.0 76.3
73(6) 0.03189 54.0 77.0
76(6) 0.03078 54.0 77.8
76(6) 0.03078 54.0 78.7
78(6) 0.02973 54.0 79.8
90(6) 0.02520 54.0 80.9
79(6) 0.02873 54.0 82.2
82(6) 0.02778 54.0 83.5
86(6) 0.02687 54.0 84.8
88(6) 0.02601 54.0 85.8
90(6) 0.02520 54.0 86.7
88(6) 0.02601 54.0 87.5
83(6) 0.02778 54.0 88.5
85(6) 0.02778 54.0 89.8
92(6) 0.02520 54.0 91.4
91(6) 0.02520 54.0 93.6
94(6) 0.02441 54.0 96.5
96(6) 0.02441 54.0 99.9
97(7) 0.02367 54.0 104.1
102(7) 0.02228 54.0 109.2
115(7) 0.01984 54.0 115.1
111(7) 0.02100 54.0 122.1
118(7) 0.01929 54.0 130.1
135(8) 0.01687 54.1 139.2
124(7) 0.01877 54.1 149.0
132(8) 0.01731 54.1 159.3
148(8) 0.01563 54.1 169.4
159(8) 0.01452 54.1 178.2
166(9) 0.01384 54.1 184.7
178(9) 0.01291 54.1 187.7
178(9) 0.01291 54.1 186.8
176(9) 0.01321 54.1 182.0
201(9) 0.01156 54.1 174.3
181(9) 0.01262 54.1 164.7
189(9) 0.01208 54.1 154.3
162(8) 0.01417 54.1 144.0
145(8) 0.01602 54.1 134.3
139(8) 0.01644 54.1 125.6
130(8) 0.01778 54.1 117.8
108(7) 0.02100 54.1 111.1
112(7) 0.02041 54.1 105.3
97(7) 0.02367 54.1 100.4
99(7) 0.02296 54.1 96.2
101(7) 0.02296 54.1 92.6
93(6) 0.02520 54.1 89.6
92(6) 0.02520 54.1 87.1
85(6) 0.02687 54.1 85.0
77(6) 0.02973 54.1 83.3
83(6) 0.02778 54.1 81.9
87(6) 0.02687 54.1 80.9
80(6) 0.02873 54.1 80.1
84(6) 0.02778 54.1 79.6
77(6) 0.03078 54.1 79.2
85(6) 0.02687 54.1 79.0
81(6) 0.02873 54.1 78.8
77(6) 0.02973 54.1 78.5
80(6) 0.02873 54.1 78.0
79(6) 0.02873 54.1 77.4
66(5) 0.03429 54.1 76.6
63(5) 0.0370 54.1 75.7
76(6) 0.03078 54.1 74.8
77(6) 0.02973 54.1 73.9
71(6) 0.03189 54.1 73.0
76(6) 0.02973 54.1 72.3
75(6) 0.03078 54.2 71.7
67(5) 0.03429 54.2 71.3
75(6) 0.03078 54.2 71.0
66(5) 0.03429 54.2 70.9
76(6) 0.02973 54.2 70.9
70(6) 0.03306 54.2 71.1
73(6) 0.03078 54.2 71.5
72(6) 0.03189 54.2 72.0
68(5) 0.03429 54.2 72.8
74(6) 0.03078 54.2 73.8
82(6) 0.02778 54.2 75.0
78(6) 0.02973 54.2 76.5
77(6) 0.02973 54.2 78.3
81(6) 0.02873 54.2 80.5
69(6) 0.03306 54.2 83.0
87(6) 0.02601 54.2 85.9
89(6) 0.02601 54.2 89.2
89(6) 0.02601 54.2 92.6
93(6) 0.02441 54.2 96.1
98(7) 0.02367 54.2 99.3
90(6) 0.02520 54.2 101.7
102(7) 0.02228 54.2 103.0
113(7) 0.02041 54.2 102.9
93(6) 0.02441 54.2 101.4
101(7) 0.02296 54.2 98.8
103(7) 0.02228 54.2 95.4
100(7) 0.02296 54.2 91.6
96(7) 0.02367 54.2 87.9
89(6) 0.02601 54.2 84.3
92(6) 0.02520 54.2 81.1
93(6) 0.02520 54.2 78.2
77(6) 0.02973 54.2 75.8
78(6) 0.02973 54.2 73.6
79(6) 0.02873 54.2 71.7
60(5) 0.0384 54.2 70.2
76(6) 0.02973 54.2 68.8
65(5) 0.0356 54.2 67.6
65(5) 0.0356 54.2 66.6
65(5) 0.0356 54.2 65.7
68(5) 0.03429 54.2 64.9
65(5) 0.0356 54.3 64.2
56(5) 0.0416 54.3 63.7
65(5) 0.0356 54.3 63.1
72(6) 0.03189 54.3 62.7
70(6) 0.03306 54.3 62.3
62(5) 0.0370 54.3 62.0
57(5) 0.0400 54.3 61.7
65(5) 0.0356 54.3 61.4
62(5) 0.0370 54.3 61.2
60(5) 0.0384 54.3 61.0
62(5) 0.0370 54.3 60.9
61(5) 0.0384 54.3 60.7
51(5) 0.0453 54.3 60.6
63(5) 0.0356 54.3 60.6
68(5) 0.03429 54.3 60.6
53(5) 0.0434 54.3 60.6
53(5) 0.0434 54.3 60.6
63(5) 0.0370 54.3 60.7
56(5) 0.0416 54.3 60.8
59(5) 0.0384 54.3 60.9
56(5) 0.0416 54.3 61.1
63(5) 0.0356 54.3 61.4
61(5) 0.0384 54.3 61.7
58(5) 0.0400 54.3 62.1
66(5) 0.03429 54.3 62.6
64(5) 0.0356 54.3 63.2
57(5) 0.0400 54.3 63.8
67(5) 0.03429 54.3 64.5
56(5) 0.0400 54.3 65.3
61(5) 0.0370 54.3 66.0
78(6) 0.02973 54.3 66.7
58(5) 0.0400 54.3 67.2
57(5) 0.0400 54.3 67.5
73(6) 0.03078 54.3 67.5
63(5) 0.0370 54.3 67.2
68(6) 0.03306 54.3 66.7
63(5) 0.0370 54.3 66.1
67(5) 0.03429 54.3 65.4
71(6) 0.03189 54.3 64.7
60(5) 0.0384 54.4 64.2
66(5) 0.03429 54.4 63.7
55(5) 0.0416 54.4 63.3
59(5) 0.0384 54.4 63.0
55(5) 0.0416 54.4 62.9
74(6) 0.03078 54.4 62.8
52(5) 0.0453 54.4 62.9
55(5) 0.0416 54.4 63.1
69(6) 0.03306 54.4 63.4
68(6) 0.03306 54.4 63.7
57(5) 0.0400 54.4 64.1
70(6) 0.03306 54.4 64.6
74(6) 0.03078 54.4 65.2
69(6) 0.03306 54.4 65.8
65(5) 0.0356 54.4 66.5
72(6) 0.03189 54.4 67.2
67(5) 0.03429 54.4 68.0
66(5) 0.0356 54.4 68.8
68(5) 0.03429 54.4 69.7
75(6) 0.03078 54.4 70.6
67(5) 0.03429 54.4 71.4
73(6) 0.03189 54.4 71.9
64(5) 0.0356 54.4 72.1
62(5) 0.0370 54.4 71.7
75(6) 0.03078 54.4 71.0
68(6) 0.03306 54.4 70.2
68(5) 0.03429 54.4 69.5
70(6) 0.03306 54.4 69.1
73(6) 0.03189 54.4 68.9
76(6) 0.02973 54.4 69.1
69(6) 0.03306 54.4 69.7
69(6) 0.03306 54.4 70.5
67(5) 0.03429 54.4 71.7
70(6) 0.03189 54.4 73.1
74(6) 0.03078 54.4 74.5
68(5) 0.03429 54.4 75.8
72(6) 0.03078 54.4 76.7
81(6) 0.02873 54.4 76.8
74(6) 0.03078 54.5 76.1
74(6) 0.03189 54.5 74.8
79(6) 0.02973 54.5 73.2
73(6) 0.03078 54.5 71.4
80(6) 0.02873 54.5 69.7
78(6) 0.02973 54.5 68.2
68(6) 0.03306 54.5 66.9
68(5) 0.03429 54.5 65.9
64(5) 0.0356 54.5 65.1
76(6) 0.02973 54.5 64.5
63(5) 0.0370 54.5 64.0
65(5) 0.0356 54.5 63.7
61(5) 0.0370 54.5 63.6
61(5) 0.0370 54.5 63.6
71(6) 0.03306 54.5 63.7
62(5) 0.0370 54.5 63.9
68(5) 0.03429 54.5 64.2
68(6) 0.03306 54.5 64.6
74(6) 0.03078 54.5 64.9
64(5) 0.0356 54.5 65.2
71(6) 0.03189 54.5 65.4
67(5) 0.03429 54.5 65.4
64(5) 0.0370 54.5 65.2
62(5) 0.0370 54.5 64.9
67(5) 0.03429 54.5 64.6
59(5) 0.0384 54.5 64.2
67(5) 0.03429 54.5 63.8
62(5) 0.0370 54.5 63.4
54(5) 0.0434 54.5 63.0
62(5) 0.0370 54.5 62.6
70(6) 0.03306 54.5 62.3
60(5) 0.0384 54.5 61.9
61(5) 0.0384 54.5 61.6
58(5) 0.0400 54.5 61.3
59(5) 0.0384 54.5 61.1
59(5) 0.0384 54.5 61.0
59(5) 0.0384 54.5 60.9
65(5) 0.0356 54.5 60.9
65(5) 0.0356 54.5 60.9
63(5) 0.0370 54.6 61.0
66(5) 0.03429 54.6 61.2
61(5) 0.0384 54.6 61.3
68(5) 0.03429 54.6 61.5
58(5) 0.0400 54.6 61.8
61(5) 0.0384 54.6 62.1
67(5) 0.03429 54.6 62.5
63(5) 0.0356 54.6 62.8
64(5) 0.0356 54.6 63.1
61(5) 0.0370 54.6 63.5
71(6) 0.03189 54.6 63.9
62(5) 0.0370 54.6 64.4
66(5) 0.03429 54.6 65.0
55(5) 0.0416 54.6 65.8
64(5) 0.0356 54.6 66.8
73(6) 0.03189 54.6 68.0
70(6) 0.03306 54.6 69.4
58(5) 0.0384 54.6 71.2
69(6) 0.03306 54.6 73.3
83(6) 0.02778 54.6 75.9
71(6) 0.03189 54.6 79.0
83(6) 0.02778 54.6 82.5
87(6) 0.02687 54.6 86.4
88(6) 0.02601 54.6 90.7
92(6) 0.02520 54.6 95.0
100(7) 0.02296 54.6 99.4
111(7) 0.02041 54.6 103.7
107(7) 0.02163 54.6 108.2
111(7) 0.02041 54.6 112.7
110(7) 0.02041 54.6 116.5
125(7) 0.01826 54.6 118.7
118(7) 0.01929 54.6 118.5
120(7) 0.01929 54.6 115.6
113(7) 0.02041 54.6 110.7
95(7) 0.02367 54.6 104.9
97(7) 0.02367 54.6 98.9
85(6) 0.02687 54.6 93.5
83(6) 0.02778 54.6 88.9
85(6) 0.02687 54.6 85.1
84(6) 0.02687 54.7 82.1
73(6) 0.03078 54.7 79.8
60(5) 0.0384 54.7 78.0
68(6) 0.03306 54.7 76.6
73(6) 0.03078 54.7 75.6
74(6) 0.03078 54.7 75.1
78(6) 0.02873 54.7 74.7
58(5) 0.0400 54.7 74.5
79(6) 0.02873 54.7 74.3
69(6) 0.03306 54.7 74.0
77(6) 0.02973 54.7 73.4
60(5) 0.0370 54.7 72.6
70(6) 0.03189 54.7 71.6
73(6) 0.03078 54.7 70.4
70(6) 0.03306 54.7 69.2
67(5) 0.03429 54.7 68.0
72(6) 0.03189 54.7 67.0
65(5) 0.03429 54.7 66.0
68(6) 0.03306 54.7 65.2
73(6) 0.03078 54.7 64.6
57(5) 0.0400 54.7 64.1
65(5) 0.03429 54.7 63.7
60(5) 0.0384 54.7 63.5
67(5) 0.03429 54.7 63.4
66(5) 0.03429 54.7 63.4
66(5) 0.03429 54.7 63.5
60(5) 0.0370 54.7 63.7
58(5) 0.0400 54.7 63.9
62(5) 0.0370 54.7 64.1
73(6) 0.03078 54.7 64.4
64(5) 0.0356 54.7 64.7
61(5) 0.0370 54.7 64.9
60(5) 0.0384 54.7 65.0
63(5) 0.0356 54.7 64.8
62(5) 0.0370 54.7 64.3
66(5) 0.03429 54.7 63.6
68(6) 0.03306 54.7 62.8
65(5) 0.0356 54.7 61.9
54(5) 0.0416 54.7 61.2
59(5) 0.0384 54.7 60.5
65(5) 0.03429 54.8 59.9
60(5) 0.0384 54.8 59.5
59(5) 0.0384 54.8 59.1
61(5) 0.0370 54.8 58.8
55(5) 0.0416 54.8 58.5
65(5) 0.0356 54.8 58.3
58(5) 0.0384 54.8 58.1
65(5) 0.0356 54.8 57.9
63(5) 0.0356 54.8 57.8
60(5) 0.0370 54.8 57.7
63(5) 0.0356 54.8 57.6
54(5) 0.0416 54.8 57.6
67(5) 0.03429 54.8 57.5
67(5) 0.03429 54.8 57.5
61(5) 0.0370 54.8 57.5
59(5) 0.0384 54.8 57.5
61(5) 0.0370 54.8 57.5
59(5) 0.0384 54.8 57.6
60(5) 0.0384 54.8 57.7
51(5) 0.0453 54.8 57.8
69(6) 0.03306 54.8 57.9
65(5) 0.0356 54.8 58.0
58(5) 0.0384 54.8 58.1
65(5) 0.0356 54.8 58.3
65(5) 0.0356 54.8 58.4
71(6) 0.03189 54.8 58.5
57(5) 0.0400 54.8 58.6
66(5) 0.03429 54.8 58.8
60(5) 0.0370 54.8 58.9
66(5) 0.03429 54.8 59.1
67(5) 0.03429 54.8 59.3
66(5) 0.03429 54.8 59.5
60(5) 0.0384 54.8 59.7
67(5) 0.03429 54.8 59.9
63(5) 0.0356 54.8 60.0
58(5) 0.0384 54.8 60.0
63(5) 0.0356 54.8 59.9
64(5) 0.0356 54.8 59.7
62(5) 0.0370 54.8 59.4
65(5) 0.03429 54.8 59.0
58(5) 0.0384 54.8 58.6
58(5) 0.0400 54.8 58.3
69(6) 0.03306 54.9 58.0
63(5) 0.0356 54.9 57.7
62(5) 0.0370 54.9 57.5
57(5) 0.0400 54.9 57.4
69(6) 0.03306 54.9 57.2
61(5) 0.0370 54.9 57.1
57(5) 0.0400 54.9 57.0
60(5) 0.0384 54.9 57.0
60(5) 0.0370 54.9 56.9
67(5) 0.03429 54.9 56.9
58(5) 0.0400 54.9 56.8
52(5) 0.0434 54.9 56.8
55(5) 0.0416 54.9 56.7
65(5) 0.03429 54.9 56.7
56(5) 0.0400 54.9 56.7
61(5) 0.0370 54.9 56.7
60(5) 0.0384 54.9 56.7
66(5) 0.03429 54.9 56.7
54(5) 0.0416 54.9 56.8
54(5) 0.0416 54.9 56.8
61(5) 0.0370 54.9 56.9
67(5) 0.03429 54.9 56.9
50(5) 0.0453 54.9 57.0
64(5) 0.0356 54.9 57.1
59(5) 0.0384 54.9 57.2
55(5) 0.0416 54.9 57.4
62(5) 0.0370 54.9 57.5
63(5) 0.0356 54.9 57.7
61(5) 0.0370 54.9 57.9
67(5) 0.03429 54.9 58.2
58(5) 0.0384 54.9 58.4
52(5) 0.0434 54.9 58.7
55(5) 0.0416 54.9 59.0
62(5) 0.0370 54.9 59.2
65(5) 0.0356 54.9 59.4
63(5) 0.0356 54.9 59.6
53(5) 0.0434 54.9 59.8
65(5) 0.03429 54.9 60.1
55(5) 0.0416 54.9 60.4
70(6) 0.03189 54.9 60.9
65(5) 0.03429 54.9 61.5
68(6) 0.03306 54.9 62.2
69(6) 0.03306 54.9 63.1
64(5) 0.0356 54.9 64.3
58(5) 0.0384 54.9 65.5
67(5) 0.03429 55.0 66.9
73(6) 0.03078 55.0 68.4
68(6) 0.03306 55.0 69.8
66(5) 0.03429 55.0 70.8
69(6) 0.03306 55.0 71.2
69(6) 0.03306 55.0 70.9
67(5) 0.03429 55.0 70.0
69(6) 0.03306 55.0 68.7
64(5) 0.0356 55.0 67.3
60(5) 0.0384 55.0 65.9
65(5) 0.03429 55.0 64.7
60(5) 0.0384 55.0 63.6
60(5) 0.0370 55.0 62.8
63(5) 0.0356 55.0 62.1
64(5) 0.0356 55.0 61.6
71(6) 0.03189 55.0 61.2
60(5) 0.0384 55.0 60.9
55(5) 0.0416 55.0 60.8
64(5) 0.0356 55.0 60.7
50(5) 0.0453 55.0 60.7
62(5) 0.0370 55.0 60.8
65(5) 0.0356 55.0 60.9
66(5) 0.03429 55.0 61.1
63(5) 0.0370 55.0 61.2
70(6) 0.03306 55.0 61.5
70(6) 0.03306 55.0 61.7
65(5) 0.0356 55.0 61.9
75(6) 0.02973 55.0 61.9
58(5) 0.0384 55.0 61.8
56(5) 0.0400 55.0 61.7
66(5) 0.03429 55.0 61.5
64(5) 0.0356 55.0 61.3
70(6) 0.03189 55.0 61.3
57(5) 0.0400 55.0 61.3
59(5) 0.0384 55.0 61.4
57(5) 0.0400 55.0 61.6
63(5) 0.0356 55.0 62.0
63(5) 0.0356 55.0 62.4
65(5) 0.0356 55.0 63.0
66(5) 0.03429 55.0 63.7
62(5) 0.0370 55.0 64.5
69(6) 0.03306 55.0 65.3
82(6) 0.02778 55.0 66.2
70(6) 0.03189 55.0 67.0
60(5) 0.0384 55.0 67.6
61(5) 0.0370 55.0 68.0
76(6) 0.02973 55.0 68.0
62(5) 0.0356 55.0 67.8
67(5) 0.03429 55.1 67.4
71(6) 0.03189 55.1 67.0
71(6) 0.03189 55.1 66.6
58(5) 0.0400 55.1 66.3
67(5) 0.03429 55.1 66.1
71(6) 0.03189 55.1 66.1
62(5) 0.0370 55.1 66.4
59(5) 0.0384 55.1 66.8
75(6) 0.03078 55.1 67.4
71(6) 0.03189 55.1 68.3
69(6) 0.03306 55.1 69.4
61(5) 0.0370 55.1 70.8
61(5) 0.0370 55.1 72.4
75(6) 0.02973 55.1 74.2
64(5) 0.0356 55.1 76.0
68(6) 0.03306 55.1 77.8
66(5) 0.03429 55.1 79.3
71(6) 0.03189 55.1 80.3
73(6) 0.03078 55.1 80.7
68(6) 0.03306 55.1 80.4
79(6) 0.02873 55.1 79.3
71(6) 0.03189 55.1 77.7
69(6) 0.03306 55.1 75.6
78(6) 0.02873 55.1 73.5
70(6) 0.03189 55.1 71.4
66(5) 0.03429 55.1 69.5
62(5) 0.0356 55.1 67.7
59(5) 0.0384 55.1 66.3
64(5) 0.0356 55.1 65.0
68(6) 0.03306 55.1 63.9
66(5) 0.03429 55.1 63.0
58(5) 0.0384 55.1 62.2
58(5) 0.0384 55.1 61.5
57(5) 0.0400 55.1 61.0
57(5) 0.0400 55.1 60.5
56(5) 0.0400 55.1 60.1
56(5) 0.0400 55.1 59.7
57(5) 0.0400 55.1 59.4
55(5) 0.0416 55.1 59.2
61(5) 0.0370 55.1 58.9
61(5) 0.0370 55.1 58.8
54(5) 0.0416 55.1 58.6
53(5) 0.0434 55.1 58.5
64(5) 0.0356 55.1 58.4
60(5) 0.0384 55.1 58.3
52(5) 0.0434 55.1 58.2
50(5) 0.0453 55.1 58.2
68(6) 0.03306 55.1 58.2
60(5) 0.0370 55.1 58.2
56(5) 0.0400 55.1 58.2
59(5) 0.0384 55.1 58.2
55(5) 0.0416 55.1 58.3
54(5) 0.0416 55.1 58.4
68(6) 0.03306 55.1 58.4
51(5) 0.0453 55.2 58.4
59(5) 0.0384 55.2 58.4
58(5) 0.0400 55.2 58.4
47(5) 0.0473 55.2 58.3
65(5) 0.03429 55.2 58.2
58(5) 0.0400 55.2 58.1
53(5) 0.0416 55.2 57.9
68(6) 0.03306 55.2 57.8
62(5) 0.0370 55.2 57.7
55(5) 0.0416 55.2 57.6
69(6) 0.03306 55.2 57.6
58(5) 0.0400 55.2 57.6
50(5) 0.0453 55.2 57.5
62(5) 0.0370 55.2 57.5
54(5) 0.0416 55.2 57.5
47(5) 0.0494 55.2 57.5
57(5) 0.0384 55.2 57.5
61(5) 0.0370 55.2 57.6
55(5) 0.0416 55.2 57.6
56(5) 0.0400 55.2 57.7
63(5) 0.0356 55.2 57.8
54(5) 0.0416 55.2 57.9
48(5) 0.0473 55.2 58.0
64(5) 0.0356 55.2 58.1
56(5) 0.0400 55.2 58.3
57(5) 0.0400 55.2 58.5
58(5) 0.0384 55.2 58.8
61(5) 0.0370 55.2 59.1
67(5) 0.03429 55.2 59.5
56(5) 0.0400 55.2 59.9
65(5) 0.03429 55.2 60.5
65(5) 0.0356 55.2 61.1
58(5) 0.0384 55.2 61.8
61(5) 0.0370 55.2 62.5
64(5) 0.0356 55.2 63.3
63(5) 0.0356 55.2 64.1
56(5) 0.0400 55.2 64.9
65(5) 0.03429 55.2 65.8
70(6) 0.03189 55.2 66.6
64(5) 0.0356 55.2 67.3
68(6) 0.03306 55.2 67.7
60(5) 0.0370 55.2 67.7
63(5) 0.0356 55.2 67.4
60(5) 0.0370 55.2 67.0
62(5) 0.0370 55.2 66.4
60(5) 0.0370 55.2 65.9
61(5) 0.0370 55.2 65.3
60(5) 0.0370 55.2 64.8
55(5) 0.0416 55.2 64.4
61(5) 0.0370 55.2 64.1
58(5) 0.0384 55.2 64.1
59(5) 0.0384 55.2 64.3
67(5) 0.03429 55.2 64.6
59(5) 0.0384 55.2 65.2
65(5) 0.03429 55.2 65.9
62(5) 0.0370 55.2 66.9
65(5) 0.0356 55.2 68.1
65(5) 0.03429 55.2 69.5
63(5) 0.0356 55.2 71.1
66(5) 0.03429 55.2 72.7
69(6) 0.03306 55.2 74.3
74(6) 0.02973 55.2 75.5
67(5) 0.03429 55.2 76.2
66(5) 0.03429 55.2 76.3
69(6) 0.03306 55.2 75.6
83(6) 0.02687 55.2 74.4
62(5) 0.0370 55.2 72.8
65(5) 0.03429 55.3 71.0
69(6) 0.03189 55.3 69.3
65(5) 0.0356 55.3 67.7
69(6) 0.03306 55.3 66.3
71(6) 0.03189 55.3 65.1
67(5) 0.03429 55.3 64.1
56(5) 0.0400 55.3 63.3
67(6) 0.03306 55.3 62.6
61(5) 0.0370 55.3 62.1
62(5) 0.0370 55.3 61.6
65(5) 0.03429 55.3 61.3
48(5) 0.0473 55.3 61.1
54(5) 0.0416 55.3 60.9
66(5) 0.03429 55.3 60.8
63(5) 0.0356 55.3 60.8
57(5) 0.0384 55.3 60.6
62(5) 0.0356 55.3 60.5
51(5) 0.0434 55.3 60.3
62(5) 0.0370 55.3 60.0
59(5) 0.0384 55.3 59.7
55(5) 0.0416 55.3 59.5
51(5) 0.0434 55.3 59.2
61(5) 0.0370 55.3 59.0
59(5) 0.0384 55.3 58.9
55(5) 0.0416 55.3 58.8
54(5) 0.0416 55.3 58.8
61(5) 0.0370 55.3 58.8
63(5) 0.0356 55.3 58.8
60(5) 0.0384 55.3 58.8
60(5) 0.0370 55.3 58.8
64(5) 0.0356 55.3 58.8
63(5) 0.0356 55.3 58.7
54(5) 0.0416 55.3 58.5
60(5) 0.0370 55.3 58.4
60(5) 0.0370 55.3 58.2
54(5) 0.0416 55.3 58.0
56(5) 0.0400 55.3 57.9
56(5) 0.0400 55.3 57.8
56(5) 0.0400 55.3 57.7
59(5) 0.0384 55.3 57.7
58(5) 0.0384 55.3 57.6
49(5) 0.0473 55.3 57.6
46(5) 0.0473 55.3 57.6
61(5) 0.0370 55.3 57.6
65(5) 0.03429 55.3 57.6
59(5) 0.0384 55.3 57.7
65(5) 0.03429 55.3 57.8
53(5) 0.0434 55.3 57.8
57(5) 0.0400 55.3 57.9
62(5) 0.0356 55.3 58.0
63(5) 0.0356 55.3 58.1
69(6) 0.03189 55.3 58.2
47(5) 0.0494 55.3 58.3
66(5) 0.03429 55.3 58.4
57(5) 0.0384 55.3 58.4
60(5) 0.0384 55.3 58.4
60(5) 0.0370 55.3 58.4
67(6) 0.03306 55.3 58.4
63(5) 0.0356 55.3 58.4
52(5) 0.0434 55.3 58.5
60(5) 0.0370 55.3 58.5
54(5) 0.0416 55.3 58.6
50(5) 0.0453 55.3 58.7
60(5) 0.0370 55.3 58.8
53(5) 0.0434 55.3 58.9
54(5) 0.0416 55.3 59.1
55(5) 0.0416 55.3 59.3
68(6) 0.03306 55.3 59.6
55(5) 0.0416 55.3 59.9
58(5) 0.0384 55.3 60.3
65(5) 0.03429 55.3 60.7
57(5) 0.0400 55.3 61.2
69(6) 0.03189 55.3 61.8
60(5) 0.0384 55.3 62.5
62(5) 0.0356 55.3 63.3
56(5) 0.0400 55.3 64.2
58(5) 0.0384 55.3 65.1
64(5) 0.0356 55.3 66.1
57(5) 0.0400 55.3 67.0
64(5) 0.0356 55.3 67.7
63(5) 0.0356 55.3 68.2
74(6) 0.03078 55.3 68.4
74(6) 0.03078 55.3 68.2
73(6) 0.03078 55.3 67.8
72(6) 0.03189 55.3 67.2
73(6) 0.03078 55.3 66.5
61(5) 0.0370 55.3 65.8
69(6) 0.03306 55.3 65.1
65(5) 0.03429 55.3 64.6
59(5) 0.0384 55.3 64.2
62(5) 0.0356 55.3 63.9
62(5) 0.0370 55.3 63.7
61(5) 0.0370 55.3 63.7
62(5) 0.0370 55.3 63.8
60(5) 0.0370 55.3 64.0
50(5) 0.0453 55.3 64.4
73(6) 0.03078 55.3 64.9
66(5) 0.03429 55.3 65.5
71(6) 0.03189 55.3 66.3
60(5) 0.0370 55.3 67.3
67(6) 0.03306 55.3 68.4
71(6) 0.03189 55.3 69.7
71(6) 0.03189 55.3 71.0
69(6) 0.03189 55.3 72.3
71(6) 0.03189 55.3 73.5
71(6) 0.03189 55.3 74.3
74(6) 0.03078 55.3 74.6
77(6) 0.02973 55.3 74.4
71(6) 0.03189 55.3 73.7
91(6) 0.02441 55.3 72.6
70(6) 0.03189 55.3 71.3
72(6) 0.03078 55.4 69.9
69(6) 0.03306 55.4 68.5
66(5) 0.03429 55.4 67.3
73(6) 0.03078 55.4 66.2
68(6) 0.03306 55.4 65.3
58(5) 0.0384 55.4 64.5
57(5) 0.0400 55.4 63.9
60(5) 0.0370 55.4 63.4
66(5) 0.03429 55.4 63.0
62(5) 0.0370 55.4 62.7
56(5) 0.0400 55.4 62.5
64(5) 0.03429 55.4 62.4
55(5) 0.0400 55.4 62.3
61(5) 0.0370 55.4 62.3
56(5) 0.0400 55.4 62.3
51(5) 0.0434 55.4 62.3
59(5) 0.0370 55.4 62.3
66(5) 0.03429 55.4 62.3
73(6) 0.03078 55.4 62.2
60(5) 0.0370 55.4 62.2
61(5) 0.0370 55.4 62.1
60(5) 0.0370 55.4 62.0
68(6) 0.03306 55.4 62.0
57(5) 0.0400 55.4 61.9
51(5) 0.0434 55.4 61.8
61(5) 0.0370 55.4 61.7
55(5) 0.0416 55.4 61.5
61(5) 0.0370 55.4 61.4
66(5) 0.03429 55.4 61.3
62(5) 0.0370 55.4 61.2
64(5) 0.0356 55.4 61.1
57(5) 0.0400 55.4 61.1
64(5) 0.0356 55.4 61.2
65(5) 0.03429 55.4 61.2
71(6) 0.03189 55.4 61.4
69(6) 0.03306 55.4 61.6
64(5) 0.0356 55.4 61.8
67(6) 0.03306 55.4 62.0
65(5) 0.03429 55.4 62.3
69(6) 0.03306 55.4 62.6
66(5) 0.03429 55.4 63.0
64(5) 0.0356 55.4 63.4
58(5) 0.0384 55.4 63.9
68(6) 0.03306 55.4 64.5
74(6) 0.02973 55.4 65.2
66(6) 0.03306 55.4 66.0
82(6) 0.02687 55.4 66.8
78(6) 0.02873 55.4 67.9
75(6) 0.02973 55.4 69.1
74(6) 0.02973 55.4 70.5
72(6) 0.03078 55.4 72.1
76(6) 0.02873 55.4 74.1
80(6) 0.02778 55.4 76.5
92(6) 0.02441 55.4 79.3
81(6) 0.02778 55.4 82.8
95(7) 0.02367 55.4 87.0
114(7) 0.01984 55.4 92.2
102(7) 0.02163 55.4 98.4
108(7) 0.02100 55.4 106.0
114(7) 0.01984 55.4 114.7
139(8) 0.01602 55.4 124.5
155(8) 0.01452 55.4 134.7
163(9) 0.01384 55.4 144.9
174(9) 0.01291 55.4 155.0
199(9) 0.01132 55.4 165.6
212(10) 0.01041 55.4 176.5
206(10) 0.01085 55.4 186.4
203(10) 0.01108 55.4 192.6
196(9) 0.01132 55.4 192.1
166(9) 0.01352 55.4 184.1
170(9) 0.01321 55.4 170.5
134(8) 0.01687 55.4 154.6
131(8) 0.01687 55.4 139.2
100(7) 0.02228 55.4 125.5
106(7) 0.02100 55.4 114.1
88(6) 0.02520 55.4 104.7
85(6) 0.02601 55.4 97.2
87(6) 0.02520 55.4 91.1
86(6) 0.02601 55.4 86.2
77(6) 0.02873 55.4 82.2
69(6) 0.03306 55.4 78.9
63(5) 0.0356 55.4 76.2
73(6) 0.03078 55.4 74.0
72(6) 0.03078 55.4 72.1
65(5) 0.03429 55.4 70.5
68(6) 0.03306 55.4 69.2
70(6) 0.03189 55.4 68.0
81(6) 0.02778 55.4 67.0
68(6) 0.03306 55.4 66.2
56(5) 0.0400 55.4 65.5
51(5) 0.0434 55.4 64.9
64(5) 0.03429 55.4 64.4
57(5) 0.0384 55.4 64.0
71(6) 0.03189 55.4 63.6
71(6) 0.03189 55.4 63.4
58(5) 0.0384 55.4 63.1
63(5) 0.0356 55.4 63.0
56(5) 0.0400 55.4 62.8
67(6) 0.03306 55.4 62.7
63(5) 0.0356 55.4 62.7
64(5) 0.0356 55.4 62.6
67(6) 0.03306 55.4 62.6
60(5) 0.0370 55.4 62.5
71(6) 0.03189 55.4 62.3
73(6) 0.03078 55.4 62.1
56(5) 0.0400 55.4 61.8
58(5) 0.0384 55.4 61.5
63(5) 0.0356 55.4 61.3
54(5) 0.0416 55.4 61.1
62(5) 0.0356 55.4 60.9
50(5) 0.0453 55.4 60.8
59(5) 0.0370 55.4 60.7
59(5) 0.0384 55.4 60.7
57(5) 0.0400 55.4 60.8
64(5) 0.0356 55.4 60.9
66(5) 0.03429 55.4 61.0
62(5) 0.0356 55.4 61.1
72(6) 0.03078 55.4 61.4
56(5) 0.0400 55.4 61.6
54(5) 0.0416 55.3 61.9
67(6) 0.03306 55.3 62.3
59(5) 0.0370 55.3 62.7
55(5) 0.0400 55.3 63.2
63(5) 0.0356 55.3 63.8
61(5) 0.0370 55.3 64.6
58(5) 0.0384 55.3 65.5
65(5) 0.03429 55.3 66.6
63(5) 0.0356 55.3 67.9
76(6) 0.02973 55.3 69.5
63(5) 0.0356 55.3 71.3
66(5) 0.03429 55.3 73.2
71(6) 0.03189 55.3 75.0
75(6) 0.02973 55.3 76.4
71(6) 0.03189 55.3 77.2
78(6) 0.02873 55.3 77.3
75(6) 0.02973 55.3 76.7
71(6) 0.03189 55.3 75.8
71(6) 0.03189 55.3 74.7
75(6) 0.02973 55.3 73.8
73(6) 0.03078 55.3 73.0
74(6) 0.03078 55.3 72.3
75(6) 0.02973 55.3 71.7
72(6) 0.03078 55.3 71.0
67(5) 0.03429 55.3 70.4
65(5) 0.03429 55.3 69.8
69(6) 0.03189 55.3 69.4
66(5) 0.03429 55.3 69.2
64(5) 0.03429 55.3 69.2
69(6) 0.03189 55.3 69.5
77(6) 0.02973 55.3 70.0
67(6) 0.03306 55.3 70.7
75(6) 0.02973 55.3 71.4
72(6) 0.03078 55.3 72.2
77(6) 0.02873 55.3 72.9
73(6) 0.03078 55.3 73.5
74(6) 0.02973 55.3 74.0
75(6) 0.02973 55.3 74.1
68(6) 0.03306 55.3 73.7
72(6) 0.03078 55.3 72.7
75(6) 0.02973 55.3 71.2
76(6) 0.02973 55.3 69.5
67(6) 0.03306 55.3 67.8
70(6) 0.03189 55.3 66.3
59(5) 0.0384 55.3 65.0
69(6) 0.03189 55.3 63.9
56(5) 0.0400 55.3 63.0
69(6) 0.03306 55.3 62.3
57(5) 0.0400 55.3 61.7
72(6) 0.03189 55.3 61.3
67(6) 0.03306 55.3 60.9
59(5) 0.0384 55.3 60.5
63(5) 0.0356 55.3 60.3
64(5) 0.0356 55.3 60.1
57(5) 0.0400 55.3 59.9
65(5) 0.03429 55.3 59.8
58(5) 0.0384 55.3 59.7
68(6) 0.03306 55.3 59.6
63(5) 0.0356 55.3 59.5
64(5) 0.03429 55.3 59.5
59(5) 0.0370 55.3 59.5
56(5) 0.0400 55.3 59.5
63(5) 0.0356 55.3 59.6
69(6) 0.03189 55.3 59.6
57(5) 0.0384 55.3 59.7
64(5) 0.03429 55.3 59.8
57(5) 0.0400 55.3 60.0
63(5) 0.0356 55.3 60.1
65(5) 0.03429 55.3 60.3
58(5) 0.0384 55.3 60.6
64(5) 0.03429 55.3 60.9
56(5) 0.0400 55.3 61.2
58(5) 0.0384 55.3 61.5
58(5) 0.0384 55.3 62.0
53(5) 0.0416 55.3 62.4
67(6) 0.03306 55.3 63.0
62(5) 0.0356 55.3 63.5
63(5) 0.0356 55.3 64.2
59(5) 0.0384 55.3 64.8
64(5) 0.03429 55.3 65.6
66(6) 0.03306 55.3 66.4
67(6) 0.03306 55.3 67.4
61(5) 0.0370 55.3 68.7
60(5) 0.0370 55.3 70.2
61(5) 0.0370 55.3 72.0
68(6) 0.03306 55.3 74.3
81(6) 0.02778 55.3 77.0
80(6) 0.02778 55.3 80.2
73(6) 0.03078 55.3 83.7
82(6) 0.02687 55.3 87.4
87(6) 0.02520 55.3 90.7
93(6) 0.02441 55.3 93.0
85(6) 0.02601 55.3 93.8
100(7) 0.02228 55.3 92.8
90(6) 0.02441 55.3 90.3
99(7) 0.02228 55.3 87.0
72(6) 0.03078 55.3 83.5
92(7) 0.02367 55.3 80.1
79(6) 0.02873 55.3 77.2
64(5) 0.03429 55.3 74.7
79(6) 0.02778 55.3 72.7
66(6) 0.03306 55.3 71.1
66(5) 0.03429 55.2 69.8
69(6) 0.03189 55.2 68.9
76(6) 0.02873 55.2 68.2
66(6) 0.03306 55.2 67.8
69(6) 0.03189 55.2 67.6
61(5) 0.0356 55.2 67.6
70(6) 0.03189 55.2 67.8
70(6) 0.03189 55.2 68.2
62(5) 0.0356 55.2 68.8
71(6) 0.03078 55.2 69.6
69(6) 0.03189 55.2 70.6
70(6) 0.03189 55.2 71.7
74(6) 0.02973 55.2 72.9
74(6) 0.02973 55.2 73.9
71(6) 0.03189 55.2 74.6
77(6) 0.02973 55.2 74.9
80(6) 0.02778 55.2 74.7
88(6) 0.02520 55.2 74.1
67(6) 0.03306 55.2 73.1
58(5) 0.0384 55.2 72.0
67(6) 0.03306 55.2 70.9
73(6) 0.03078 55.2 69.9
72(6) 0.03078 55.2 69.1
75(6) 0.02973 55.2 68.5
63(5) 0.0356 55.2 68.0
80(6) 0.02778 55.2 67.7
62(5) 0.0356 55.2 67.6
58(5) 0.0384 55.2 67.6
68(6) 0.03306 55.2 67.8
67(6) 0.03306 55.2 68.1
59(5) 0.0370 55.2 68.6
76(6) 0.02873 55.2 69.3
67(6) 0.03306 55.2 70.1
70(6) 0.03189 55.2 71.2
71(6) 0.03078 55.2 72.5
80(6) 0.02778 55.2 74.1
77(6) 0.02873 55.2 76.1
64(5) 0.03429 55.2 78.4
79(6) 0.02778 55.2 81.3
83(6) 0.02687 55.2 84.8
85(6) 0.02601 55.2 89.0
87(6) 0.02520 55.2 94.1
104(7) 0.02163 55.2 100.3
108(7) 0.02100 55.2 107.5
102(7) 0.02163 55.2 115.7
104(7) 0.02163 55.2 124.6
112(7) 0.01984 55.2 133.3
121(7) 0.01826 55.2 140.5
135(8) 0.01644 55.2 144.7
161(9) 0.01384 55.2 144.9
138(8) 0.01602 55.2 140.9
151(8) 0.01452 55.2 133.9
132(8) 0.01687 55.2 125.4
127(8) 0.01778 55.2 116.7
121(7) 0.01826 55.2 108.6
108(7) 0.02041 55.2 101.5
94(7) 0.02367 55.2 95.6
85(6) 0.02601 55.2 90.6
104(7) 0.02163 55.1 86.6
79(6) 0.02778 55.1 83.5
84(6) 0.02687 55.1 80.9
83(6) 0.02687 55.1 79.0
78(6) 0.02873 55.1 77.6
88(6) 0.02520 55.1 76.6
68(6) 0.03306 55.1 76.0
75(6) 0.02973 55.1 75.8
73(6) 0.02973 55.1 75.9
85(6) 0.02601 55.1 76.3
74(6) 0.02973 55.1 77.1
69(6) 0.03189 55.1 78.0
63(5) 0.0356 55.1 79.1
78(6) 0.02873 55.1 80.2
78(6) 0.02873 55.1 81.4
67(6) 0.03306 55.1 82.3
86(6) 0.02601 55.1 82.9
82(6) 0.02687 55.1 82.7
79(6) 0.02873 55.1 81.8
81(6) 0.02778 55.1 80.0
76(6) 0.02873 55.1 77.7
73(6) 0.02973 55.1 75.2
71(6) 0.03189 55.1 72.9
71(6) 0.03078 55.1 70.7
81(6) 0.02778 55.1 68.9
68(6) 0.03189 55.1 67.4
58(5) 0.0384 55.1 66.1
62(5) 0.0356 55.1 65.0
67(6) 0.03306 55.1 64.2
60(5) 0.0370 55.1 63.4
59(5) 0.0370 55.1 62.8
68(6) 0.03189 55.1 62.3
54(5) 0.0416 55.1 61.9
56(5) 0.0400 55.1 61.6
61(5) 0.0356 55.1 61.3
66(6) 0.03306 55.1 61.1
58(5) 0.0384 55.1 61.0
65(5) 0.03429 55.1 60.9
56(5) 0.0400 55.1 60.9
55(5) 0.0400 55.1 60.9
59(5) 0.0370 55.1 61.1
64(5) 0.0356 55.1 61.3
63(5) 0.0356 55.1 61.6
72(6) 0.03078 55.1 62.0
63(5) 0.0356 55.1 62.4
75(6) 0.02973 55.0 62.7
62(5) 0.0356 55.0 63.0
63(5) 0.03429 55.0 63.0
61(5) 0.0370 55.0 62.8
63(5) 0.0356 55.0 62.4
59(5) 0.0370 55.0 61.9
67(6) 0.03306 55.0 61.3
63(5) 0.0356 55.0 60.8
60(5) 0.0370 55.0 60.3
59(5) 0.0370 55.0 59.9
64(5) 0.03429 55.0 59.6
57(5) 0.0384 55.0 59.3
64(5) 0.03429 55.0 59.1
49(5) 0.0453 55.0 58.9
48(5) 0.0453 55.0 58.8
61(5) 0.0356 55.0 58.7
58(5) 0.0384 55.0 58.6
59(5) 0.0370 55.0 58.6
56(5) 0.0400 55.0 58.6
58(5) 0.0370 55.0 58.6
64(5) 0.0356 55.0 58.6
61(5) 0.0356 55.0 58.6
55(5) 0.0400 55.0 58.7
66(6) 0.03306 55.0 58.8
61(5) 0.0370 55.0 58.9
54(5) 0.0400 55.0 59.0
59(5) 0.0370 55.0 59.1
52(5) 0.0434 55.0 59.3
57(5) 0.0384 55.0 59.6
54(5) 0.0400 55.0 59.8
58(5) 0.0384 55.0 60.1
60(5) 0.0370 55.0 60.5
60(5) 0.0370 55.0 60.9
58(5) 0.0384 55.0 61.4
54(5) 0.0400 55.0 62.0
66(6) 0.03306 55.0 62.7
60(5) 0.0370 55.0 63.6
65(5) 0.03429 55.0 64.6
67(6) 0.03306 54.9 65.7
65(5) 0.03429 54.9 67.0
59(5) 0.0384 54.9 68.5
68(6) 0.03306 54.9 70.2
74(6) 0.03078 54.9 72.0
80(6) 0.02778 54.9 73.7
68(6) 0.03306 54.9 75.3
87(6) 0.02520 54.9 76.4
72(6) 0.03078 54.9 77.0
82(6) 0.02687 54.9 76.8
73(6) 0.02973 54.9 75.9
82(6) 0.02778 54.9 74.5
73(6) 0.03078 54.9 72.8
75(6) 0.02973 54.9 71.0
69(6) 0.03189 54.9 69.3
67(6) 0.03306 54.9 67.7
70(6) 0.03189 54.9 66.2
59(5) 0.0370 54.9 65.0
63(5) 0.0356 54.9 63.9
70(6) 0.03189 54.9 63.0
60(5) 0.0370 54.9 62.2
55(5) 0.0400 54.9 61.5
64(5) 0.03429 54.9 61.0
58(5) 0.0384 54.9 60.5
58(5) 0.0384 54.9 60.1
56(5) 0.0400 54.9 59.8
52(5) 0.0416 54.9 59.5
58(5) 0.0384 54.9 59.2
63(5) 0.0356 54.9 59.1
58(5) 0.0384 54.9 58.9
57(5) 0.0384 54.9 58.8
48(5) 0.0453 54.9 58.7
60(5) 0.0370 54.9 58.7
63(5) 0.03429 54.9 58.7
60(5) 0.0370 54.8 58.7
57(5) 0.0384 54.8 58.8
57(5) 0.0384 54.8 58.9
48(5) 0.0453 54.8 59.1
58(5) 0.0384 54.8 59.4
63(5) 0.0356 54.8 59.7
59(5) 0.0370 54.8 60.1
65(5) 0.03429 54.8 60.5
61(5) 0.0356 54.8 60.9
64(5) 0.03429 54.8 61.2
71(6) 0.03189 54.8 61.3
53(5) 0.0416 54.8 61.2
52(5) 0.0416 54.8 60.9
52(5) 0.0416 54.8 60.5
58(5) 0.0384 54.8 60.0
72(6) 0.03078 54.8 59.6
65(5) 0.03429 54.8 59.2
54(5) 0.0416 54.8 58.9
57(5) 0.0384 54.8 58.6
58(5) 0.0384 54.8 58.4
50(5) 0.0434 54.8 58.2
65(5) 0.03429 54.8 58.1
59(5) 0.0384 54.8 58.1
59(5) 0.0370 54.8 58.0
50(5) 0.0434 54.8 58.0
48(5) 0.0453 54.8 58.1
63(5) 0.03429 54.8 58.1
64(5) 0.03429 54.8 58.2
56(5) 0.0384 54.8 58.3
57(5) 0.0384 54.8 58.5
58(5) 0.0384 54.8 58.7
52(5) 0.0434 54.7 59.0
51(5) 0.0434 54.7 59.3
67(6) 0.03306 54.7 59.7
61(5) 0.0370 54.7 60.2
60(5) 0.0370 54.7 61.0
56(5) 0.0384 54.7 61.8
61(5) 0.0356 54.7 62.7
54(5) 0.0416 54.7 63.9
70(6) 0.03078 54.7 65.3
65(5) 0.03429 54.7 66.9
72(6) 0.03078 54.7 68.7
77(6) 0.02873 54.7 70.3
63(5) 0.0356 54.7 71.5
60(5) 0.0370 54.7 72.0
80(6) 0.02778 54.7 71.6
66(6) 0.03306 54.7 70.5
68(6) 0.03306 54.7 68.9
67(6) 0.03306 54.7 67.3
66(6) 0.03306 54.7 65.9
59(5) 0.0370 54.7 64.6
48(5) 0.0473 54.7 63.6
60(5) 0.0370 54.7 62.7
62(5) 0.0356 54.7 62.1
57(5) 0.0384 54.7 61.7
91(13) 0.00583 54.7 61.3
55(4) 0.0517 54.7 61.1
58(5) 0.0494 54.7 60.9
63(5) 0.0453 54.7 60.8
54(4) 0.0517 54.6 60.7
65(5) 0.0434 54.6 60.6
53(4) 0.0541 54.6 60.5
55(4) 0.0517 54.6 60.4
65(5) 0.0434 54.6 60.2
54(4) 0.0517 54.6 60.1
57(5) 0.0494 54.6 59.9
59(5) 0.0473 54.6 59.7
53(4) 0.0517 54.6 59.5
54(4) 0.0517 54.6 59.4
59(5) 0.0473 54.6 59.2
55(4) 0.0517 54.6 59.1
75(5) 0.0370 54.6 59.1
65(5) 0.0434 54.6 59.1
51(4) 0.0541 54.6 59.1
60(5) 0.0473 54.6 59.2
55(4) 0.0517 54.6 59.3
62(5) 0.0453 54.6 59.5
58(5) 0.0494 54.6 59.7
58(5) 0.0494 54.6 60.0
56(4) 0.0517 54.6 60.4
64(5) 0.0434 54.6 60.9
65(5) 0.0434 54.6 61.5
68(5) 0.0416 54.6 62.3
63(5) 0.0453 54.6 63.3
62(5) 0.0453 54.6 64.5
63(5) 0.0453 54.5 65.9
62(5) 0.0453 54.5 67.5
66(5) 0.0416 54.5 69.2
59(5) 0.0473 54.5 70.8
71(5) 0.0400 54.5 72.1
71(5) 0.0400 54.5 72.6
69(5) 0.0400 54.5 72.2
72(5) 0.0384 54.5 71.0
81(5) 0.03429 54.5 69.4
77(5) 0.0370 54.5 67.7
67(5) 0.0416 54.5 66.1
69(5) 0.0416 54.5 64.7
68(5) 0.0416 54.5 63.6
79(5) 0.0356 54.5 62.7
66(5) 0.0434 54.5 61.9
68(5) 0.0416 54.5 61.3
61(5) 0.0473 54.5 60.9
64(5) 0.0434 54.5 60.5
61(5) 0.0453 54.5 60.3
59(5) 0.0473 54.5 60.1
59(5) 0.0494 54.5 60.0
67(5) 0.0416 54.5 59.9
55(4) 0.0517 54.5 59.9
53(4) 0.0541 54.5 60.0
59(5) 0.0494 54.5 60.1
53(4) 0.0541 54.4 60.2
58(5) 0.0494 54.4 60.5
61(5) 0.0473 54.4 60.7
62(5) 0.0453 54.4 61.1
58(5) 0.0473 54.4 61.5
60(5) 0.0473 54.4 62.0
68(5) 0.0416 54.4 62.7
65(5) 0.0434 54.4 63.4
75(5) 0.0370 54.4 64.3
59(5) 0.0473 54.4 65.3
60(5) 0.0473 54.4 66.6
63(5) 0.0453 54.4 68.0
64(5) 0.0434 54.4 69.5
61(5) 0.0453 54.4 71.3
73(5) 0.0384 54.4 73.1
67(5) 0.0416 54.4 74.9
64(5) 0.0434 54.4 76.3
75(5) 0.0370 54.4 77.4
69(5) 0.0400 54.4 77.7
78(5) 0.0356 54.4 77.4
71(5) 0.0384 54.4 76.5
87(6) 0.03189 54.4 75.1
75(5) 0.0370 54.4 73.5
78(5) 0.0356 54.3 71.8
67(5) 0.0416 54.3 70.2
67(5) 0.0416 54.3 68.7
72(5) 0.0384 54.3 67.4
67(5) 0.0416 54.3 66.2
73(5) 0.0384 54.3 65.2
62(5) 0.0453 54.3 64.4
58(5) 0.0494 54.3 63.6
60(5) 0.0473 54.3 63.0
59(5) 0.0473 54.3 62.6
62(5) 0.0453 54.3 62.2
66(5) 0.0434 54.3 61.9
53(4) 0.0517 54.3 61.7
54(4) 0.0517 54.3 61.5
59(5) 0.0473 54.3 61.4
65(5) 0.0434 54.3 61.3
61(5) 0.0473 54.3 61.1
61(5) 0.0453 54.3 61.0
62(5) 0.0453 54.3 60.8
55(5) 0.0494 54.3 60.6
59(5) 0.0473 54.3 60.4
62(5) 0.0453 54.3 60.2
56(5) 0.0494 54.3 60.0
50(4) 0.0567 54.2 59.9
61(5) 0.0453 54.2 59.8
65(5) 0.0434 54.2 59.7
66(5) 0.0416 54.2 59.7
60(5) 0.0473 54.2 59.7
67(5) 0.0416 54.2 59.7
61(5) 0.0453 54.2 59.8
54(4) 0.0517 54.2 60.0
65(5) 0.0434 54.2 60.1
55(4) 0.0517 54.2 60.4
61(5) 0.0453 54.2 60.6
61(5) 0.0453 54.2 61.0
67(5) 0.0416 54.2 61.3
64(5) 0.0434 54.2 61.7
58(5) 0.0473 54.2 62.1
66(5) 0.0434 54.2 62.5
65(5) 0.0434 54.2 62.8
60(5) 0.0473 54.2 63.0
55(4) 0.0517 54.2 63.1
61(5) 0.0453 54.2 63.1
59(5) 0.0473 54.2 63.0
52(4) 0.0541 54.1 62.7
67(5) 0.0416 54.1 62.5
60(5) 0.0473 54.1 62.2
63(5) 0.0453 54.1 61.9
58(5) 0.0473 54.1 61.7
64(5) 0.0434 54.1 61.5
63(5) 0.0434 54.1 61.4
60(5) 0.0473 54.1 61.3
57(5) 0.0494 54.1 61.4
59(5) 0.0473 54.1 61.4
61(5) 0.0473 54.1 61.6
58(5) 0.0494 54.1 61.7
53(4) 0.0517 54.1 62.0
53(4) 0.0517 54.1 62.3
65(5) 0.0434 54.1 62.6
54(4) 0.0517 54.1 62.8
62(5) 0.0453 54.1 63.1
62(5) 0.0453 54.1 63.2
67(5) 0.0416 54.1 63.2
61(5) 0.0453 54.1 63.2
58(5) 0.0473 54.1 63.1
66(5) 0.0416 54.0 63.1
64(5) 0.0434 54.0 63.0
67(5) 0.0416 54.0 63.1
74(5) 0.0384 54.0 63.2
69(5) 0.0416 54.0 63.3
64(5) 0.0434 54.0 63.6
75(5) 0.0370 54.0 64.0
68(5) 0.0416 54.0 64.5
69(5) 0.0400 54.0 65.1
67(5) 0.0416 54.0 65.9
67(5) 0.0416 54.0 66.7
68(5) 0.0416 54.0 67.8
73(5) 0.0384 54.0 68.9
68(5) 0.0416 54.0 70.2
72(5) 0.0384 54.0 71.3
66(5) 0.0434 54.0 72.2
72(5) 0.0384 54.0 72.8
75(5) 0.0370 54.0 72.9
75(5) 0.0370 54.0 72.7
80(5) 0.03429 54.0 72.4
81(5) 0.03429 53.9 72.0
79(5) 0.0356 53.9 71.7
81(5) 0.03429 53.9 71.6
86(6) 0.03189 53.9 71.7
72(5) 0.0384 53.9 72.1
70(5) 0.0400 53.9 72.6
77(5) 0.0370 53.9 73.3
77(5) 0.0356 53.9 74.2
67(5) 0.0416 53.9 75.4
84(6) 0.03306 53.9 76.8
84(6) 0.03306 53.9 78.5
77(5) 0.0370 53.9 80.4
84(6) 0.03306 53.9 82.7
90(6) 0.03078 53.9 85.4
93(6) 0.03078 53.9 88.5
84(6) 0.03306 53.9 92.0
88(6) 0.03189 53.9 96.1
90(6) 0.03078 53.9 100.7
100(6) 0.02778 53.9 105.8
91(6) 0.03078 53.9 111.3
107(6) 0.02601 53.8 117.1
106(6) 0.02601 53.8 122.8
122(7) 0.02296 53.8 128.4
121(7) 0.02296 53.8 133.6
139(7) 0.02041 53.8 138.3
135(7) 0.02041 53.8 142.5
139(7) 0.01984 53.8 146.0
130(7) 0.02163 53.8 148.3
146(7) 0.01929 53.8 149.2
133(7) 0.02100 53.8 148.5
146(7) 0.01929 53.8 146.2
149(7) 0.01877 53.8 142.8
153(7) 0.01826 53.8 138.7
147(7) 0.01877 53.8 134.6
156(8) 0.01778 53.8 130.9
137(7) 0.02041 53.8 127.9
143(7) 0.01929 53.8 125.8
140(7) 0.01984 53.8 124.7
137(7) 0.02041 53.8 124.8
139(7) 0.01984 53.7 126.0
139(7) 0.01984 53.7 128.6
126(7) 0.02228 53.7 132.8
132(7) 0.02100 53.7 138.9
134(7) 0.02100 53.7 147.0
157(8) 0.01778 53.7 157.6
158(8) 0.01731 53.7 170.9
169(8) 0.01644 53.7 187.0
179(8) 0.01563 53.7 205.3
189(8) 0.01452 53.7 224.5
215(9) 0.01291 53.7 242.0
231(9) 0.01208 53.7 254.1
245(9) 0.01132 53.7 257.7
275(10) 0.01000 53.7 251.6
277(10) 0.01000 53.7 237.6
256(10) 0.01085 53.7 219.1
263(10) 0.01063 53.7 199.0
224(9) 0.01235 53.7 179.7
212(9) 0.01321 53.6 162.0
179(8) 0.01563 53.6 146.7
158(8) 0.01778 53.6 133.6
142(7) 0.01984 53.6 122.7
130(7) 0.02163 53.6 113.6
120(7) 0.02296 53.6 106.1
107(6) 0.02601 53.6 99.9
98(6) 0.02873 53.6 94.7
103(6) 0.02687 53.6 90.3
98(6) 0.02873 53.6 86.6
94(6) 0.02973 53.6 83.5
101(6) 0.02778 53.6 80.8
92(6) 0.03078 53.6 78.6
74(5) 0.0384 53.6 76.6
87(6) 0.03189 53.6 74.9
86(6) 0.03189 53.6 73.4
78(5) 0.0356 53.6 72.1
72(5) 0.0384 53.6 71.0
87(6) 0.03189 53.5 70.0
79(5) 0.0356 53.5 69.1
74(5) 0.0384 53.5 68.3
68(5) 0.0416 53.5 67.6
74(5) 0.0370 53.5 67.1
59(5) 0.0473 53.5 66.6
73(5) 0.0384 53.5 66.2
67(5) 0.0416 53.5 65.9
81(5) 0.03429 53.5 65.6
75(5) 0.0370 53.5 65.5
70(5) 0.0400 53.5 65.5
70(5) 0.0400 53.5 65.6
65(5) 0.0434 53.5 65.9
80(5) 0.03429 53.5 66.3
65(5) 0.0434 53.5 66.8
78(5) 0.0356 53.5 67.6
65(5) 0.0416 53.5 68.6
69(5) 0.0400 53.5 69.9
72(5) 0.0384 53.4 71.2
69(5) 0.0400 53.4 72.6
76(5) 0.0370 53.4 73.7
70(5) 0.0400 53.4 74.3
71(5) 0.0384 53.4 74.2
81(5) 0.03429 53.4 73.4
78(5) 0.0356 53.4 72.1
73(5) 0.0384 53.4 70.7
76(5) 0.0370 53.4 69.4
59(5) 0.0473 53.4 68.3
75(5) 0.0370 53.4 67.5
59(5) 0.0473 53.4 66.8
67(5) 0.0416 53.4 66.3
72(5) 0.0384 53.4 65.9
63(5) 0.0434 53.4 65.4
73(5) 0.0384 53.4 64.8
68(5) 0.0400 53.4 64.1
65(5) 0.0434 53.3 63.3
66(5) 0.0416 53.3 62.5
60(5) 0.0473 53.3 61.8
73(5) 0.0384 53.3 61.2
60(5) 0.0473 53.3 60.6
62(5) 0.0453 53.3 60.2
65(5) 0.0434 53.3 59.8
55(5) 0.0494 53.3 59.5
64(5) 0.0434 53.3 59.3
58(5) 0.0473 53.3 59.1
64(5) 0.0434 53.3 58.9
58(5) 0.0473 53.3 58.8
55(5) 0.0494 53.3 58.7
66(5) 0.0416 53.3 58.6
58(5) 0.0494 53.3 58.5
65(5) 0.0434 53.3 58.5
56(5) 0.0494 53.3 58.5
56(5) 0.0494 53.2 58.5
64(5) 0.0434 53.2 58.5
61(5) 0.0453 53.2 58.6
62(5) 0.0453 53.2 58.6
58(5) 0.0473 53.2 58.7
66(5) 0.0416 53.2 58.9
60(5) 0.0453 53.2 59.0
51(4) 0.0541 53.2 59.2
56(5) 0.0494 53.2 59.5
62(5) 0.0453 53.2 59.8
61(5) 0.0453 53.2 60.1
62(5) 0.0453 53.2 60.5
53(4) 0.0517 53.2 61.0
58(5) 0.0494 53.2 61.5
68(5) 0.0416 53.2 62.1
63(5) 0.0434 53.2 62.8
58(5) 0.0473 53.1 63.6
68(5) 0.0400 53.1 64.4
63(5) 0.0453 53.1 65.4
65(5) 0.0434 53.1 66.4
64(5) 0.0434 53.1 67.6
68(5) 0.0400 53.1 68.7
61(5) 0.0453 53.1 70.0
63(5) 0.0434 53.1 71.2
73(5) 0.0384 53.1 72.4
73(5) 0.0384 53.1 73.4
75(5) 0.0370 53.1 74.2
72(5) 0.0384 53.1 74.6
70(5) 0.0400 53.1 74.5
79(5) 0.0356 53.1 73.9
82(5) 0.03429 53.1 73.0
73(5) 0.0384 53.1 71.7
72(5) 0.0384 53.1 70.4
71(5) 0.0384 53.0 69.1
69(5) 0.0400 53.0 67.9
63(5) 0.0434 53.0 66.9
63(5) 0.0434 53.0 66.1
67(5) 0.0416 53.0 65.4
63(5) 0.0434 53.0 64.9
68(5) 0.0416 53.0 64.5
61(5) 0.0453 53.0 64.3
64(5) 0.0434 53.0 64.2
61(5) 0.0453 53.0 64.2
65(5) 0.0434 53.0 64.3
64(5) 0.0434 53.0 64.7
69(5) 0.0400 53.0 65.1
65(5) 0.0434 53.0 65.8
57(5) 0.0494 53.0 66.6
69(5) 0.0400 53.0 67.5
70(5) 0.0400 52.9 68.5
62(5) 0.0453 52.9 69.6
61(5) 0.0453 52.9 70.8
64(5) 0.0434 52.9 71.9
74(5) 0.0370 52.9 73.1
72(5) 0.0384 52.9 74.3
72(5) 0.0384 52.9 75.5
76(5) 0.0370 52.9 76.6
81(5) 0.03429 52.9 77.4
79(5) 0.0356 52.9 77.8
74(5) 0.0370 52.9 77.5
67(5) 0.0416 52.9 76.5
76(5) 0.0370 52.9 74.9
71(5) 0.0384 52.9 73.0
67(5) 0.0416 52.9 70.9
63(5) 0.0434 52.9 69.0
71(5) 0.0384 52.8 67.1
67(5) 0.0416 52.8 65.5
69(5) 0.0400 52.8 64.2
67(5) 0.0416 52.8 63.0
60(5) 0.0453 52.8 62.0
54(4) 0.0517 52.8 61.1
63(5) 0.0434 52.8 60.4
64(5) 0.0434 52.8 59.8
58(5) 0.0473 52.8 59.3
58(5) 0.0473 52.8 58.9
59(5) 0.0473 52.8 58.5
51(4) 0.0541 52.8 58.2
43(4) 0.0625 52.8 57.9
52(4) 0.0541 52.8 57.7
57(5) 0.0494 52.8 57.5
55(4) 0.0517 52.7 57.3
55(4) 0.0517 52.7 57.2
54(4) 0.0517 52.7 57.1
49(4) 0.0567 52.7 57.0
56(5) 0.0494 52.7 56.9
53(4) 0.0517 52.7 56.9
65(5) 0.0434 52.7 56.8
56(5) 0.0494 52.7 56.7
50(4) 0.0541 52.7 56.6
60(5) 0.0453 52.7 56.5
55(5) 0.0494 52.7 56.4
51(4) 0.0541 52.7 56.3
58(5) 0.0473 52.7 56.1
58(5) 0.0473 52.7 56.0
52(4) 0.0541 52.7 56.0
49(4) 0.0567 52.7 55.9
49(4) 0.0567 52.6 55.8
53(4) 0.0517 52.6 55.8
51(4) 0.0541 52.6 55.8
52(4) 0.0517 52.6 55.8
58(5) 0.0473 52.6 55.8
50(4) 0.0541 52.6 55.9
51(4) 0.0541 52.6 56.0
54(4) 0.0517 52.6 56.0
54(4) 0.0517 52.6 56.1
53(4) 0.0517 52.6 56.3
55(4) 0.0517 52.6 56.4
51(4) 0.0541 52.6 56.6
56(5) 0.0494 52.6 56.8
51(4) 0.0541 52.6 57.0
56(5) 0.0494 52.6 57.2
63(5) 0.0434 52.5 57.4
58(5) 0.0473 52.5 57.5
63(5) 0.0434 52.5 57.6
59(5) 0.0473 52.5 57.6
64(5) 0.0434 52.5 57.6
64(5) 0.0434 52.5 57.6
55(5) 0.0494 52.5 57.6
62(5) 0.0453 52.5 57.7
58(5) 0.0473 52.5 57.8
65(5) 0.0416 52.5 57.8
52(4) 0.0541 52.5 57.9
62(5) 0.0453 52.5 57.9
60(5) 0.0453 52.5 57.9
57(5) 0.0494 52.5 57.8
59(5) 0.0473 52.5 57.6
59(5) 0.0473 52.4 57.4
55(4) 0.0517 52.4 57.2
54(4) 0.0517 52.4 57.1
50(4) 0.0541 52.4 56.9
57(5) 0.0494 52.4 56.8
51(4) 0.0541 52.4 56.7
58(5) 0.0473 52.4 56.6
53(4) 0.0517 52.4 56.5
55(5) 0.0494 52.4 56.5
53(4) 0.0517 52.4 56.5
53(4) 0.0517 52.4 56.6
57(5) 0.0494 52.4 56.6
55(5) 0.0494 52.4 56.7
54(4) 0.0517 52.4 56.8
52(4) 0.0541 52.4 56.9
61(5) 0.0453 52.3 57.0
56(5) 0.0494 52.3 57.2
59(5) 0.0473 52.3 57.4
63(5) 0.0434 52.3 57.6
59(5) 0.0473 52.3 57.9
58(5) 0.0473 52.3 58.2
56(5) 0.0494 52.3 58.5
53(4) 0.0517 52.3 58.9
53(4) 0.0517 52.3 59.3
64(5) 0.0434 52.3 59.8
63(5) 0.0434 52.3 60.4
56(5) 0.0494 52.3 61.1
66(5) 0.0416 52.3 61.8
65(5) 0.0434 52.3 62.6
56(5) 0.0494 52.3 63.4
59(5) 0.0453 52.2 64.3
62(5) 0.0434 52.2 65.2
67(5) 0.0416 52.2 66.1
65(5) 0.0434 52.2 66.8
69(5) 0.0400 52.2 67.3
66(5) 0.0416 52.2 67.6
71(5) 0.0384 52.2 67.7
64(5) 0.0434 52.2 67.5
66(5) 0.0416 52.2 67.1
70(5) 0.0400 52.2 66.5
66(5) 0.0416 52.2 65.9
65(5) 0.0416 52.2 65.2
71(5) 0.0384 52.2 64.6
62(5) 0.0434 52.2 64.1
61(5) 0.0453 52.2 63.6
66(5) 0.0416 52.1 63.3
62(5) 0.0453 52.1 63.0
63(5) 0.0434 52.1 62.9
66(5) 0.0416 52.1 62.9
54(4) 0.0517 52.1 63.0
66(5) 0.0416 52.1 63.2
72(5) 0.0384 52.1 63.6
63(5) 0.0434 52.1 64.1
60(5) 0.0453 52.1 64.8
60(5) 0.0453 52.1 65.7
62(5) 0.0453 52.1 66.7
71(5) 0.0384 52.1 68.0
67(5) 0.0416 52.1 69.3
64(5) 0.0434 52.1 70.7
75(5) 0.0370 52.0 72.1
69(5) 0.0400 52.0 73.1
63(5) 0.0434 52.0 73.7
68(5) 0.0400 52.0 73.7
84(6) 0.03306 52.0 73.2
76(5) 0.0370 52.0 72.3
68(5) 0.0400 52.0 71.3
75(5) 0.0370 52.0 70.2
71(5) 0.0384 52.0 69.3
65(5) 0.0434 52.0 68.5
75(5) 0.0370 52.0 67.9
70(5) 0.0400 52.0 67.4
80(5) 0.03429 52.0 67.2
67(5) 0.0416 52.0 67.0
69(5) 0.0400 52.0 67.0
60(5) 0.0453 51.9 67.1
69(5) 0.0400 51.9 67.4
69(5) 0.0400 51.9 67.7
72(5) 0.0384 51.9 68.3
72(5) 0.0384 51.9 69.0
68(5) 0.0400 51.9 69.8
62(5) 0.0434 51.9 70.9
75(5) 0.0370 51.9 72.2
78(5) 0.0356 51.9 73.7
77(5) 0.0356 51.9 75.5
76(5) 0.0356 51.9 77.6
76(5) 0.0356 51.9 80.0
75(5) 0.0370 51.9 82.9
86(6) 0.03189 51.9 86.3
82(6) 0.03306 51.8 90.4
89(6) 0.03078 51.8 95.2
83(6) 0.03306 51.8 100.8
83(6) 0.03306 51.8 107.5
106(6) 0.02601 51.8 115.3
109(6) 0.02520 51.8 124.3
119(7) 0.02296 51.8 134.4
123(7) 0.02228 51.8 145.5
132(7) 0.02100 51.8 156.9
130(7) 0.02100 51.8 167.7
148(7) 0.01877 51.8 176.6
167(8) 0.01644 51.8 182.0
168(8) 0.01644 51.8 182.9
191(8) 0.01452 51.8 179.2
189(8) 0.01452 51.7 171.5
165(8) 0.01644 51.7 161.2
170(8) 0.01602 51.7 149.9
150(7) 0.01826 51.7 138.6
144(7) 0.01929 51.7 128.0
113(6) 0.02441 51.7 118.6
107(6) 0.02520 51.7 110.4
107(6) 0.02601 51.7 103.3
102(6) 0.02687 51.7 97.3
101(6) 0.02778 51.7 92.2
86(6) 0.03189 51.7 87.8
85(6) 0.03189 51.7 84.1
79(5) 0.03429 51.7 80.9
78(5) 0.0356 51.7 78.1
84(6) 0.03306 51.6 75.6
72(5) 0.0384 51.6 73.5
80(5) 0.03429 51.6 71.6
69(5) 0.0400 51.6 69.9
69(5) 0.0400 51.6 68.3
72(5) 0.0384 51.6 67.0
70(5) 0.0384 51.6 65.8
56(5) 0.0494 51.6 64.8
65(5) 0.0416 51.6 63.9
69(5) 0.0400 51.6 63.0
59(5) 0.0473 51.6 62.3
74(5) 0.0370 51.6 61.6
63(5) 0.0434 51.6 61.0
60(5) 0.0453 51.6 60.4
56(5) 0.0494 51.6 60.0
63(5) 0.0434 51.5 59.5
64(5) 0.0434 51.5 59.1
60(5) 0.0453 51.5 58.7
58(5) 0.0473 51.5 58.4
55(5) 0.0494 51.5 58.1
56(5) 0.0494 51.5 57.8
60(5) 0.0453 51.5 57.5
61(5) 0.0453 51.5 57.3
51(4) 0.0541 51.5 57.1
55(5) 0.0494 51.5 56.9
58(5) 0.0473 51.5 56.7
52(4) 0.0541 51.5 56.5
60(5) 0.0453 51.5 56.4
62(5) 0.0434 51.5 56.2
60(5) 0.0453 51.4 56.1
60(5) 0.0453 51.4 56.0
64(5) 0.0434 51.4 55.9
66(5) 0.0416 51.4 55.8
53(4) 0.0517 51.4 55.7
56(5) 0.0494 51.4 55.7
57(5) 0.0494 51.4 55.6
63(5) 0.0434 51.4 55.6
57(5) 0.0494 51.4 55.6
57(5) 0.0473 51.4 55.6
55(5) 0.0494 51.4 55.6
60(5) 0.0473 51.4 55.6
54(4) 0.0517 51.4 55.7
64(5) 0.0434 51.4 55.8
63(5) 0.0434 51.3 55.9
58(5) 0.0473 51.3 56.0
52(4) 0.0541 51.3 56.2
58(5) 0.0473 51.3 56.4
61(5) 0.0453 51.3 56.6
56(5) 0.0494 51.3 56.9
63(5) 0.0434 51.3 57.2
62(5) 0.0434 51.3 57.6
65(5) 0.0416 51.3 58.0
59(5) 0.0473 51.3 58.4
54(4) 0.0517 51.3 58.7
51(4) 0.0541 51.3 58.9
67(5) 0.0416 51.3 58.9
69(5) 0.0400 51.3 58.7
64(5) 0.0416 51.2 58.4
78(5) 0.0356 51.2 58.0
58(5) 0.0473 51.2 57.5
54(4) 0.0517 51.2 57.0
59(5) 0.0473 51.2 56.6
61(5) 0.0453 51.2 56.2
61(5) 0.0453 51.2 55.9
54(4) 0.0517 51.2 55.6
58(5) 0.0473 51.2 55.4
54(4) 0.0517 51.2 55.2
51(4) 0.0541 51.2 55.0
56(5) 0.0494 51.2 54.9
53(4) 0.0517 51.2 54.8
60(5) 0.0453 51.2 54.7
57(5) 0.0473 51.1 54.6
58(5) 0.0473 51.1 54.6
60(5) 0.0453 51.1 54.5
53(4) 0.0517 51.1 54.5
49(4) 0.0567 51.1 54.5
52(4) 0.0517 51.1 54.5
59(5) 0.0453 51.1 54.5
63(5) 0.0434 51.1 54.5
53(4) 0.0517 51.1 54.6
60(5) 0.0453 51.1 54.6
54(5) 0.0494 51.1 54.7
65(5) 0.0416 51.1 54.7
50(4) 0.0541 51.1 54.8
60(5) 0.0453 51.1 54.9
49(4) 0.0567 51.0 55.1
54(4) 0.0517 51.0 55.2
56(5) 0.0494 51.0 55.4
56(5) 0.0494 51.0 55.6
54(5) 0.0494 51.0 55.8
60(5) 0.0453 51.0 56.1
56(5) 0.0494 51.0 56.3
51(4) 0.0541 51.0 56.5
54(5) 0.0494 51.0 56.6
53(4) 0.0517 51.0 56.7
52(4) 0.0541 51.0 56.9
63(5) 0.0434 51.0 57.0
54(4) 0.0517 51.0 57.2
62(5) 0.0434 51.0 57.4
63(5) 0.0434 50.9 57.7
56(5) 0.0494 50.9 58.0
55(5) 0.0494 50.9 58.3
57(5) 0.0473 50.9 58.7
59(5) 0.0473 50.9 59.1
60(5) 0.0453 50.9 59.4
60(5) 0.0453 50.9 59.8
65(5) 0.0416 50.9 60.0
64(5) 0.0434 50.9 60.2
60(5) 0.0453 50.9 60.3
62(5) 0.0453 50.9 60.4
56(5) 0.0473 50.9 60.4
68(5) 0.0400 50.9 60.3
50(4) 0.0541 50.8 60.4
60(5) 0.0453 50.8 60.4
72(5) 0.0384 50.8 60.5
67(5) 0.0416 50.8 60.7
66(5) 0.0416 50.8 61.0
73(5) 0.0370 50.8 61.4
61(5) 0.0453 50.8 61.9
72(5) 0.0384 50.8 62.5
74(5) 0.0370 50.8 63.2
68(5) 0.0400 50.8 64.0
73(5) 0.0370 50.8 64.8
66(5) 0.0416 50.8 65.6
75(5) 0.0370 50.8 66.4
79(5) 0.03429 50.8 67.0
78(5) 0.03429 50.7 67.6
64(5) 0.0416 50.7 68.2
80(5) 0.03429 50.7 68.9
85(6) 0.03189 50.7 69.8
72(5) 0.0384 50.7 70.9
81(5) 0.03429 50.7 72.2
85(6) 0.03189 50.7 73.8
79(5) 0.03429 50.7 75.4
92(6) 0.02973 50.7 77.2
81(6) 0.03306 50.7 79.0
79(5) 0.03429 50.7 80.6
88(6) 0.03078 50.7 82.1
92(6) 0.02973 50.7 83.4
84(6) 0.03306 50.7 84.4
91(6) 0.02973 50.6 85.3
93(6) 0.02973 50.6 86.0
93(6) 0.02873 50.6 86.6
88(6) 0.03078 50.6 87.0
98(6) 0.02778 50.6 87.3
93(6) 0.02973 50.6 87.5
95(6) 0.02873 50.6 87.8
94(6) 0.02873 50.6 88.4
87(6) 0.03189 50.6 89.4
97(6) 0.02778 50.6 91.0
88(6) 0.03078 50.6 93.2
89(6) 0.03078 50.6 96.2
99(6) 0.02778 50.6 99.9
101(6) 0.02687 50.6 104.3
112(6) 0.02441 50.5 109.6
120(7) 0.02228 50.5 115.5
141(7) 0.01929 50.5 122.0
127(7) 0.02163 50.5 128.9
121(7) 0.02296 50.5 136.0
134(7) 0.02041 50.5 142.5
133(7) 0.02041 50.5 147.8
142(7) 0.01929 50.5 151.0
148(7) 0.01826 50.5 151.9
151(7) 0.01826 50.5 150.3
159(8) 0.01731 50.5 147.1
138(7) 0.01984 50.5 143.0
140(7) 0.01929 50.5 139.0
142(7) 0.01929 50.5 135.8
142(7) 0.01929 50.4 134.0
133(7) 0.02100 50.4 133.8
127(7) 0.02100 50.4 135.1
131(7) 0.02100 50.4 137.7
131(7) 0.02100 50.4 140.7
138(7) 0.01984 50.4 143.0
152(8) 0.01778 50.4 143.2
146(7) 0.01877 50.4 140.4
149(7) 0.01826 50.4 134.6
150(7) 0.01826 50.4 126.8
136(7) 0.01984 50.4 118.1
120(7) 0.02296 50.4 109.6
110(6) 0.02520 50.4 101.9
100(6) 0.02687 50.4 95.1
92(6) 0.02973 50.3 89.4
89(6) 0.03078 50.3 84.6
77(5) 0.0356 50.3 80.5
83(6) 0.03306 50.3 77.1
75(5) 0.0370 50.3 74.2
75(5) 0.0356 50.3 71.8
71(5) 0.0384 50.3 69.7
66(5) 0.0416 50.3 68.0
61(5) 0.0453 50.3 66.4
75(5) 0.0370 50.3 65.1
72(5) 0.0370 50.3 64.0
64(5) 0.0416 50.3 62.9
67(5) 0.0400 50.3 62.0
64(5) 0.0434 50.3 61.2
66(5) 0.0416 50.2 60.5
64(5) 0.0416 50.2 59.9
63(5) 0.0434 50.2 59.3
62(5) 0.0434 50.2 58.8
65(5) 0.0416 50.2 58.3
63(5) 0.0434 50.2 57.9
60(5) 0.0453 50.2 57.6
61(5) 0.0453 50.2 57.2
51(4) 0.0541 50.2 56.9
67(5) 0.0400 50.2 56.6
52(4) 0.0517 50.2 56.4
61(5) 0.0453 50.2 56.2
56(5) 0.0473 50.2 56.0
53(4) 0.0517 50.2 55.8
58(5) 0.0473 50.1 55.6
61(5) 0.0434 50.1 55.5
54(5) 0.0494 50.1 55.4
54(5) 0.0494 50.1 55.3
46(4) 0.0595 50.1 55.3
59(5) 0.0453 50.1 55.3
59(5) 0.0453 50.1 55.3
62(5) 0.0434 50.1 55.4
55(5) 0.0494 50.1 55.5
60(5) 0.0453 50.1 55.7
55(5) 0.0494 50.1 55.9
63(5) 0.0434 50.1 56.2
52(4) 0.0517 50.1 56.6
61(5) 0.0453 50.1 57.1
59(5) 0.0473 50.0 57.6
57(5) 0.0473 50.0 58.0
56(5) 0.0494 50.0 58.4
56(5) 0.0494 50.0 58.4
56(5) 0.0494 50.0 58.3
58(5) 0.0473 50.0 57.8
62(5) 0.0434 50.0 57.2
62(5) 0.0434 50.0 56.6
59(5) 0.0453 50.0 56.0
62(5) 0.0434 50.0 55.5
60(5) 0.0453 50.0 55.1
56(5) 0.0494 50.0 54.7
49(4) 0.0567 50.0 54.4
58(5) 0.0473 50.0 54.1
49(4) 0.0567 49.9 53.9
54(5) 0.0494 49.9 53.8
57(5) 0.0473 49.9 53.7
52(4) 0.0517 49.9 53.5
61(5) 0.0434 49.9 53.5
49(4) 0.0567 49.9 53.4
58(5) 0.0473 49.9 53.3
52(4) 0.0517 49.9 53.3
56(5) 0.0473 49.9 53.3
51(4) 0.0541 49.9 53.2
55(5) 0.0494 49.9 53.2
59(5) 0.0473 49.9 53.2
54(5) 0.0494 49.9 53.2
48(4) 0.0567 49.9 53.3
55(5) 0.0494 49.8 53.3
50(4) 0.0541 49.8 53.4
60(5) 0.0453 49.8 53.5
65(5) 0.0416 49.8 53.6
52(4) 0.0517 49.8 53.8
51(4) 0.0517 49.8 54.1
58(5) 0.0473 49.8 54.3
58(5) 0.0453 49.8 54.7
60(5) 0.0453 49.8 55.1
71(5) 0.0384 49.8 55.6
63(5) 0.0434 49.8 56.3
62(5) 0.0434 49.8 57.0
55(5) 0.0494 49.8 57.9
56(5) 0.0473 49.8 58.8
60(5) 0.0453 49.7 59.7
67(5) 0.0400 49.7 60.6
68(5) 0.0400 49.7 61.2
69(5) 0.0400 49.7 61.4
64(5) 0.0416 49.7 61.2
73(5) 0.0370 49.7 60.6
60(5) 0.0453 49.7 59.8
62(5) 0.0434 49.7 58.9
60(5) 0.0453 49.7 58.0
53(4) 0.0517 49.7 57.3
66(5) 0.0416 49.7 56.6
50(4) 0.0541 49.7 56.0
69(5) 0.0400 49.7 55.4
57(5) 0.0473 49.7 54.9
56(5) 0.0494 49.6 54.5
57(5) 0.0473 49.6 54.1
61(5) 0.0453 49.6 53.7
52(4) 0.0517 49.6 53.4
65(5) 0.0416 49.6 53.2
55(5) 0.0494 49.6 52.9
54(5) 0.0494 49.6 52.7
52(4) 0.0517 49.6 52.6
55(5) 0.0494 49.6 52.4
52(4) 0.0517 49.6 52.3
54(5) 0.0494 49.6 52.2
56(5) 0.0494 49.6 52.1
61(5) 0.0453 49.6 52.0
55(5) 0.0494 49.6 51.9
51(4) 0.0541 49.5 51.9
54(5) 0.0494 49.5 51.8
57(5) 0.0473 49.5 51.8
60(5) 0.0453 49.5 51.7
55(5) 0.0494 49.5 51.7
58(5) 0.0473 49.5 51.7
52(4) 0.0517 49.5 51.6
60(5) 0.0453 49.5 51.6
49(4) 0.0567 49.5 51.6
51(4) 0.0517 49.5 51.6
54(5) 0.0494 49.5 51.6
51(4) 0.0517 49.5 51.6
56(5) 0.0473 49.5 51.6
54(5) 0.0494 49.5 51.6
47(4) 0.0567 49.5 51.6
52(4) 0.0517 49.4 51.7
63(5) 0.0434 49.4 51.7
60(5) 0.0453 49.4 51.7
46(4) 0.0595 49.4 51.8
53(4) 0.0517 49.4 51.8
61(5) 0.0453 49.4 51.9
53(4) 0.0517 49.4 52.0
47(4) 0.0567 49.4 52.0
56(5) 0.0473 49.4 52.1
56(5) 0.0473 49.4 52.2
51(4) 0.0517 49.4 52.4
52(4) 0.0517 49.4 52.5
50(4) 0.0541 49.4 52.7
52(4) 0.0517 49.4 52.9
51(4) 0.0517 49.3 53.2
44(4) 0.0595 49.3 53.4
57(5) 0.0473 49.3 53.8
56(5) 0.0494 49.3 54.2
57(5) 0.0473 49.3 54.6
61(5) 0.0453 49.3 55.2
55(5) 0.0494 49.3 55.7
57(5) 0.0473 49.3 56.4
57(5) 0.0473 49.3 56.9
61(5) 0.0434 49.3 57.5
59(5) 0.0453 49.3 57.8
56(5) 0.0494 49.3 58.0
56(5) 0.0473 49.3 57.9
63(5) 0.0434 49.3 57.7
64(5) 0.0416 49.3 57.5
56(5) 0.0494 49.2 57.2
52(4) 0.0517 49.2 57.1
66(5) 0.0416 49.2 57.0
63(5) 0.0434 49.2 57.0
65(5) 0.0416 49.2 57.2
58(5) 0.0473 49.2 57.4
55(5) 0.0494 49.2 57.8
60(5) 0.0453 49.2 58.2
56(5) 0.0473 49.2 58.7
61(5) 0.0453 49.2 59.2
77(5) 0.0356 49.2 59.6
55(5) 0.0494 49.2 60.1
62(5) 0.0434 49.2 60.4
70(5) 0.0384 49.2 60.5
54(5) 0.0494 49.1 60.5
58(5) 0.0473 49.1 60.4
64(5) 0.0416 49.1 60.2
53(4) 0.0517 49.1 60.0
68(5) 0.0400 49.1 59.9
59(5) 0.0453 49.1 59.8
66(5) 0.0400 49.1 59.9
59(5) 0.0453 49.1 60.1
70(5) 0.0384 49.1 60.4
61(5) 0.0434 49.1 61.0
65(5) 0.0416 49.1 61.6
56(5) 0.0473 49.1 62.5
59(5) 0.0453 49.1 63.5
58(5) 0.0473 49.1 64.5
67(5) 0.0400 49.1 65.6
68(5) 0.0400 49.0 66.7
75(5) 0.0356 49.0 67.5
72(5) 0.0384 49.0 68.3
72(5) 0.0370 49.0 68.8
65(5) 0.0416 49.0 69.3
60(5) 0.0453 49.0 69.8
62(5) 0.0434 49.0 70.3
76(5) 0.0356 49.0 70.8
68(5) 0.0400 49.0 71.2
73(5) 0.0370 49.0 71.3
73(5) 0.0370 49.0 71.0
62(5) 0.0434 49.0 70.3
73(5) 0.0370 49.0 69.2
63(5) 0.0434 49.0 68.0
60(5) 0.0453 49.0 66.8
74(5) 0.0370 48.9 65.6
58(5) 0.0453 48.9 64.5
62(5) 0.0434 48.9 63.7
62(5) 0.0434 48.9 63.0
66(5) 0.0416 48.9 62.5
67(5) 0.0400 48.9 62.1
64(5) 0.0416 48.9 61.9
65(5) 0.0416 48.9 61.9
65(5) 0.0416 48.9 62.0
62(5) 0.0434 48.9 62.2
59(5) 0.0453 48.9 62.6
65(5) 0.0416 48.9 63.2
63(5) 0.0434 48.9 63.9
62(5) 0.0434 48.9 64.9
68(5) 0.0400 48.9 66.1
65(5) 0.0416 48.8 67.6
65(5) 0.0416 48.8 69.3
75(5) 0.0356 48.8 71.3
72(5) 0.0370 48.8 73.7
71(5) 0.0384 48.8 76.4
73(5) 0.0370 48.8 79.4
82(6) 0.03306 48.8 82.6
88(6) 0.03078 48.8 85.8
88(6) 0.03078 48.8 88.8
93(6) 0.02973 48.8 91.1
94(6) 0.02873 48.8 92.3
99(6) 0.02687 48.8 92.3
90(6) 0.03078 48.8 91.1
90(6) 0.02973 48.8 88.7
89(6) 0.03078 48.8 85.7
91(6) 0.02973 48.7 82.4
73(5) 0.0370 48.7 79.0
78(5) 0.03429 48.7 75.9
72(5) 0.0384 48.7 73.0
73(5) 0.0370 48.7 70.4
70(5) 0.0384 48.7 68.2
70(5) 0.0384 48.7 66.2
60(5) 0.0453 48.7 64.5
69(5) 0.0384 48.7 63.1
62(5) 0.0434 48.7 61.8
56(5) 0.0473 48.7 60.8
62(5) 0.0434 48.7 59.8
56(5) 0.0473 48.7 59.1
62(5) 0.0434 48.7 58.4
59(5) 0.0453 48.7 57.8
61(5) 0.0453 48.6 57.3
54(5) 0.0494 48.6 57.0
52(4) 0.0517 48.6 56.6
63(5) 0.0434 48.6 56.4
52(4) 0.0517 48.6 56.2
58(5) 0.0453 48.6 56.1
59(5) 0.0453 48.6 56.1
60(5) 0.0453 48.6 56.2
60(5) 0.0453 48.6 56.4
46(4) 0.0595 48.6 56.7
57(5) 0.0473 48.6 57.0
57(5) 0.0473 48.6 57.6
49(4) 0.0541 48.6 58.2
64(5) 0.0416 48.6 58.9
71(5) 0.0384 48.6 59.5
68(5) 0.0400 48.6 60.0
64(5) 0.0416 48.5 60.2
55(5) 0.0473 48.5 59.9
61(5) 0.0434 48.5 59.3
63(5) 0.0416 48.5 58.6
46(4) 0.0595 48.5 57.8
63(5) 0.0434 48.5 57.1
62(5) 0.0434 48.5 56.5
50(4) 0.0541 48.5 56.0
58(5) 0.0453 48.5 55.7
58(5) 0.0473 48.5 55.4
50(4) 0.0541 48.5 55.2
55(5) 0.0494 48.5 55.0
54(5) 0.0494 48.5 54.9
57(5) 0.0473 48.5 54.8
63(5) 0.0416 48.5 54.7
58(5) 0.0473 48.4 54.6
57(5) 0.0473 48.4 54.6
53(4) 0.0517 48.4 54.6
54(5) 0.0494 48.4 54.7
55(5) 0.0494 48.4 54.7
54(5) 0.0494 48.4 54.8
60(5) 0.0453 48.4 55.0
54(5) 0.0494 48.4 55.3
55(5) 0.0494 48.4 55.6
59(5) 0.0453 48.4 56.0
56(5) 0.0473 48.4 56.4
63(5) 0.0434 48.4 56.9
55(5) 0.0494 48.4 57.3
59(5) 0.0453 48.4 57.8
64(5) 0.0416 48.4 58.2
69(5) 0.0384 48.4 58.5
69(5) 0.0384 48.3 58.8
64(5) 0.0416 48.3 59.0
64(5) 0.0416 48.3 59.1
63(5) 0.0434 48.3 59.3
62(5) 0.0434 48.3 59.5
65(5) 0.0416 48.3 59.6
61(5) 0.0453 48.3 59.8
56(5) 0.0473 48.3 59.9
63(5) 0.0434 48.3 59.9
69(5) 0.0384 48.3 59.7
60(5) 0.0453 48.3 59.4
60(5) 0.0453 48.3 59.1
59(5) 0.0453 48.3 58.9
64(5) 0.0416 48.3 58.6
57(5) 0.0473 48.3 58.5
62(5) 0.0434 48.3 58.4
65(5) 0.0416 48.2 58.4
61(5) 0.0434 48.2 58.3
52(4) 0.0517 48.2 58.2
57(5) 0.0473 48.2 58.0
62(5) 0.0434 48.2 57.9
62(5) 0.0434 48.2 57.7
65(5) 0.0416 48.2 57.5
58(5) 0.0453 48.2 57.4
60(5) 0.0453 48.2 57.3
65(5) 0.0416 48.2 57.4
61(5) 0.0434 48.2 57.5
64(5) 0.0416 48.2 57.7
58(5) 0.0473 48.2 58.1
59(5) 0.0453 48.2 58.5
47(4) 0.0567 48.2 59.1
70(5) 0.0384 48.2 59.8
68(5) 0.0384 48.1 60.6
64(5) 0.0416 48.1 61.7
63(5) 0.0434 48.1 62.9
64(5) 0.0416 48.1 64.3
67(5) 0.0400 48.1 66.0
69(5) 0.0384 48.1 67.9
74(5) 0.0356 48.1 70.1
73(5) 0.0370 48.1 72.4
79(5) 0.03429 48.1 74.9
64(5) 0.0416 48.1 77.3
81(6) 0.03306 48.1 79.6
72(5) 0.0370 48.1 81.5
74(5) 0.0356 48.1 83.1
83(6) 0.03189 48.1 84.1
83(6) 0.03189 48.1 84.7
77(5) 0.03429 48.1 84.8
78(5) 0.03429 48.1 84.4
81(6) 0.03306 48.0 83.5
88(6) 0.03078 48.0 82.1
80(6) 0.03306 48.0 80.2
81(6) 0.03306 48.0 78.0
75(5) 0.0356 48.0 75.7
73(5) 0.0370 48.0 73.4
80(6) 0.03306 48.0 71.2
62(5) 0.0434 48.0 69.1
67(5) 0.0400 48.0 67.2
77(5) 0.0356 48.0 65.6
57(5) 0.0473 48.0 64.1
63(5) 0.0416 48.0 62.9
62(5) 0.0434 48.0 61.8
63(5) 0.0416 48.0 60.8
60(5) 0.0453 48.0 60.1
48(4) 0.0541 48.0 59.4
61(5) 0.0434 48.0 58.9
58(5) 0.0453 47.9 58.5
61(5) 0.0434 47.9 58.2
59(5) 0.0453 47.9 58.0
58(5) 0.0453 47.9 57.9
50(4) 0.0541 47.9 57.9
56(5) 0.0473 47.9 58.0
63(5) 0.0434 47.9 58.2
57(5) 0.0473 47.9 58.5
52(4) 0.0517 47.9 58.9
63(5) 0.0416 47.9 59.5
59(5) 0.0453 47.9 60.2
58(5) 0.0453 47.9 61.1
66(5) 0.0400 47.9 62.1
61(5) 0.0434 47.9 63.3
71(5) 0.0370 47.9 64.7
65(5) 0.0416 47.9 66.3
71(5) 0.0370 47.9 67.9
74(5) 0.0356 47.8 69.5
76(5) 0.0356 47.8 71.0
78(5) 0.03429 47.8 72.1
65(5) 0.0416 47.8 72.8
81(6) 0.03306 47.8 72.9
83(6) 0.03189 47.8 72.5
85(6) 0.03189 47.8 71.6
68(5) 0.0400 47.8 70.4
71(5) 0.0384 47.8 68.9
65(5) 0.0416 47.8 67.3
67(5) 0.0400 47.8 65.7
67(5) 0.0400 47.8 64.1
57(5) 0.0473 47.8 62.5
52(4) 0.0517 47.8 61.0
59(5) 0.0453 47.8 59.7
58(5) 0.0453 47.8 58.5
58(5) 0.0453 47.8 57.5
57(5) 0.0473 47.7 56.6
57(5) 0.0473 47.7 55.8
60(5) 0.0453 47.7 55.1
48(4) 0.0541 47.7 54.6
56(5) 0.0473 47.7 54.1
52(4) 0.0517 47.7 53.6
56(5) 0.0473 47.7 53.3
65(5) 0.0400 47.7 53.0
52(4) 0.0517 47.7 52.7
60(5) 0.0453 47.7 52.5
51(4) 0.0517 47.7 52.3
48(4) 0.0567 47.7 52.2
54(5) 0.0494 47.7 52.1
56(5) 0.0473 47.7 52.0
54(5) 0.0494 47.7 51.9
52(4) 0.0517 47.7 51.9
47(4) 0.0567 47.7 51.9
50(4) 0.0517 47.6 51.9
52(4) 0.0517 47.6 52.0
54(5) 0.0494 47.6 52.0
39(4) 0.0693 47.6 52.0
54(5) 0.0494 47.6 52.0
54(5) 0.0494 47.6 52.0
56(5) 0.0473 47.6 51.9
51(4) 0.0517 47.6 51.8
44(4) 0.0595 47.6 51.7
53(4) 0.0517 47.6 51.5
56(5) 0.0473 47.6 51.4
48(4) 0.0567 47.6 51.2
51(4) 0.0517 47.6 51.1
51(4) 0.0517 47.6 50.9
47(4) 0.0567 47.6 50.8
58(5) 0.0453 47.6 50.7
51(4) 0.0517 47.6 50.7
48(4) 0.0541 47.6 50.6
44(4) 0.0595 47.5 50.6
51(4) 0.0541 47.5 50.7
64(5) 0.0416 47.5 50.7
49(4) 0.0541 47.5 50.8
53(4) 0.0517 47.5 50.9
51(4) 0.0517 47.5 51.0
46(4) 0.0595 47.5 51.0
53(5) 0.0494 47.5 51.1
50(4) 0.0541 47.5 51.0
53(4) 0.0517 47.5 51.0
48(4) 0.0567 47.5 50.9
59(5) 0.0453 47.5 50.7
56(5) 0.0473 47.5 50.6
53(5) 0.0494 47.5 50.4
50(4) 0.0541 47.5 50.3
51(4) 0.0517 47.5 50.2
47(4) 0.0567 47.5 50.1
59(5) 0.0453 47.5 50.1
49(4) 0.0541 47.4 50.0
50(4) 0.0541 47.4 50.0
52(4) 0.0517 47.4 50.0
49(4) 0.0541 47.4 50.0
49(4) 0.0541 47.4 50.1
50(4) 0.0541 47.4 50.1
51(4) 0.0517 47.4 50.2
52(4) 0.0517 47.4 50.3
51(4) 0.0517 47.4 50.3
52(4) 0.0517 47.4 50.4
46(4) 0.0567 47.4 50.5
54(5) 0.0494 47.4 50.6
46(4) 0.0567 47.4 50.8
48(4) 0.0567 47.4 51.0
51(4) 0.0517 47.4 51.2
53(4) 0.0517 47.4 51.5
55(5) 0.0473 47.4 51.9
57(5) 0.0473 47.4 52.3
55(5) 0.0473 47.4 52.8
52(4) 0.0517 47.3 53.4
56(5) 0.0473 47.3 54.0
60(5) 0.0453 47.3 54.6
47(4) 0.0567 47.3 55.2
64(5) 0.0416 47.3 55.7
57(5) 0.0473 47.3 56.0
66(5) 0.0400 47.3 56.1
55(5) 0.0473 47.3 55.9
55(5) 0.0494 47.3 55.5
59(5) 0.0453 47.3 55.1
55(5) 0.0494 47.3 54.8
54(5) 0.0494 47.3 54.5
50(4) 0.0541 47.3 54.3
54(5) 0.0494 47.3 54.3
53(5) 0.0494 47.3 54.5
53(5) 0.0494 47.3 54.7
46(4) 0.0567 47.3 55.1
53(5) 0.0494 47.3 55.6
56(5) 0.0473 47.3 56.2
55(5) 0.0473 47.2 56.9
62(5) 0.0434 47.2 57.7
53(5) 0.0494 47.2 58.4
48(4) 0.0541 47.2 59.1
62(5) 0.0416 47.2 59.5
57(5) 0.0473 47.2 59.6
61(5) 0.0434 47.2 59.2
59(5) 0.0453 47.2 58.5
51(4) 0.0517 47.2 57.6
57(5) 0.0473 47.2 56.5
44(4) 0.0625 47.2 55.5
55(5) 0.0473 47.2 54.5
55(5) 0.0473 47.2 53.7
51(4) 0.0517 47.2 53.0
55(5) 0.0473 47.2 52.4
54(5) 0.0494 47.2 51.9
46(4) 0.0567 47.2 51.5
52(4) 0.0517 47.2 51.1
46(4) 0.0567 47.2 50.9
55(5) 0.0473 47.1 50.6
50(4) 0.0541 47.1 50.5
58(5) 0.0453 47.1 50.3
48(4) 0.0541 47.1 50.3
50(4) 0.0517 47.1 50.2
46(4) 0.0567 47.1 50.2
46(4) 0.0595 47.1 50.2
40(4) 0.0657 47.1 50.3
57(5) 0.0473 47.1 50.4
54(5) 0.0494 47.1 50.6
49(4) 0.0541 47.1 50.8
61(5) 0.0434 47.1 51.1
45(4) 0.0595 47.1 51.4
45(4) 0.0595 47.1 51.7
54(5) 0.0494 47.1 52.0
55(5) 0.0494 47.1 52.1
59(5) 0.0453 47.1 52.1
54(5) 0.0494 47.1 52.0
56(5) 0.0473 47.1 51.7
51(4) 0.0517 47.1 51.4
52(4) 0.0517 47.0 51.0
58(5) 0.0453 47.0 50.6
50(4) 0.0541 47.0 50.3
52(4) 0.0517 47.0 50.0
49(4) 0.0541 47.0 49.7
46(4) 0.0595 47.0 49.5
48(4) 0.0541 47.0 49.3
54(5) 0.0494 47.0 49.1
52(4) 0.0517 47.0 49.0
53(5) 0.0494 47.0 48.9
47(4) 0.0567 47.0 48.8
50(4) 0.0541 47.0 48.7
53(5) 0.0494 47.0 48.7
49(4) 0.0541 47.0 48.6
54(5) 0.0494 47.0 48.6
43(4) 0.0625 47.0 48.6
39(4) 0.0693 47.0 48.5
56(5) 0.0473 47.0 48.5
43(4) 0.0625 47.0 48.5
40(4) 0.0657 47.0 48.4
49(4) 0.0541 47.0 48.4
47(4) 0.0567 46.9 48.4
46(4) 0.0567 46.9 48.3
46(4) 0.0567 46.9 48.3
49(4) 0.0541 46.9 48.3
43(4) 0.0625 46.9 48.3
48(4) 0.0541 46.9 48.3
44(4) 0.0595 46.9 48.3
44(4) 0.0595 46.9 48.3
46(4) 0.0567 46.9 48.3
54(5) 0.0494 46.9 48.4
48(4) 0.0541 46.9 48.4
44(4) 0.0595 46.9 48.5
47(4) 0.0567 46.9 48.6
42(4) 0.0625 46.9 48.7
50(4) 0.0517 46.9 48.8
44(4) 0.0595 46.9 48.9
45(4) 0.0595 46.9 49.0
53(5) 0.0494 46.9 49.1
44(4) 0.0595 46.9 49.1
51(4) 0.0517 46.9 49.2
51(4) 0.0517 46.9 49.2
52(4) 0.0517 46.8 49.1
46(4) 0.0567 46.8 49.1
49(4) 0.0541 46.8 49.0
52(4) 0.0517 46.8 49.0
46(4) 0.0567 46.8 48.9
46(4) 0.0567 46.8 48.9
52(4) 0.0517 46.8 48.9
58(5) 0.0453 46.8 48.9
50(4) 0.0517 46.8 48.9
46(4) 0.0567 46.8 48.9
41(4) 0.0657 46.8 49.0
47(4) 0.0567 46.8 49.1
50(4) 0.0517 46.8 49.2
50(4) 0.0517 46.8 49.3
54(5) 0.0494 46.8 49.5
49(4) 0.0541 46.8 49.7
48(4) 0.0541 46.8 49.9
54(5) 0.0494 46.8 50.1
51(4) 0.0517 46.8 50.3
47(4) 0.0567 46.8 50.5
50(4) 0.0517 46.8 50.5
47(4) 0.0567 46.7 50.6
54(5) 0.0494 46.7 50.5
45(4) 0.0595 46.7 50.5
49(4) 0.0541 46.7 50.4
51(4) 0.0517 46.7 50.3
47(4) 0.0567 46.7 50.2
43(4) 0.0625 46.7 50.1
53(5) 0.0494 46.7 50.1
47(4) 0.0567 46.7 50.1
47(4) 0.0567 46.7 50.1
47(4) 0.0567 46.7 50.2
45(4) 0.0595 46.7 50.4
55(5) 0.0473 46.7 50.6
51(4) 0.0517 46.7 50.8
50(4) 0.0517 46.7 51.1
57(5) 0.0473 46.7 51.5
45(4) 0.0595 46.7 51.9
54(5) 0.0494 46.7 52.3
50(4) 0.0541 46.7 52.8
57(5) 0.0453 46.7 53.4
49(4) 0.0541 46.7 53.9
58(5) 0.0453 46.7 54.4
51(4) 0.0517 46.7 54.8
47(4) 0.0567 46.6 55.0
51(4) 0.0517 46.6 55.1
62(5) 0.0434 46.6 55.1
52(4) 0.0517 46.6 54.8
56(5) 0.0473 46.6 54.5
55(5) 0.0473 46.6 54.2
51(4) 0.0517 46.6 53.8
53(5) 0.0494 46.6 53.5
55(5) 0.0473 46.6 53.2
59(5) 0.0453 46.6 53.0
46(4) 0.0567 46.6 52.8
58(5) 0.0453 46.6 52.6
57(5) 0.0453 46.6 52.4
47(4) 0.0567 46.6 52.2
47(4) 0.0567 46.6 51.8
53(5) 0.0494 46.6 51.4
49(4) 0.0541 46.6 51.0
47(4) 0.0567 46.6 50.6
53(5) 0.0494 46.6 50.3
53(5) 0.0494 46.6 49.9
51(4) 0.0517 46.6 49.6
51(4) 0.0517 46.6 49.3
47(4) 0.0567 46.5 49.1
46(4) 0.0567 46.5 48.9
49(4) 0.0541 46.5 48.7
49(4) 0.0541 46.5 48.6
59(5) 0.0453 46.5 48.4
55(5) 0.0473 46.5 48.3
53(5) 0.0494 46.5 48.2
46(4) 0.0567 46.5 48.1
47(4) 0.0567 46.5 48.1
50(4) 0.0517 46.5 48.0
46(4) 0.0567 46.5 47.9
47(4) 0.0541 46.5 47.9
49(4) 0.0541 46.5 47.8
45(4) 0.0595 46.5 47.8
47(4) 0.0567 46.5 47.7
50(4) 0.0517 46.5 47.7
55(5) 0.0473 46.5 47.7
47(4) 0.0567 46.5 47.7
44(4) 0.0595 46.5 47.6
52(4) 0.0517 46.5 47.6
50(4) 0.0517 46.5 47.6
41(4) 0.0625 46.5 47.6
43(4) 0.0595 46.5 47.6
49(4) 0.0541 46.5 47.6
43(4) 0.0625 46.4 47.5
44(4) 0.0595 46.4 47.5
42(4) 0.0625 46.4 47.5
51(4) 0.0517 46.4 47.5
47(4) 0.0567 46.4 47.5
52(4) 0.0517 46.4 47.5
46(4) 0.0567 46.4 47.5
48(4) 0.0567 46.4 47.5
41(4) 0.0625 46.4 47.5
45(4) 0.0595 46.4 47.5
52(4) 0.0517 46.4 47.5
42(4) 0.0625 46.4 47.5
43(4) 0.0595 46.4 47.5
41(4) 0.0657 46.4 47.6
46(4) 0.0567 46.4 47.6
55(5) 0.0473 46.4 47.6
49(4) 0.0541 46.4 47.6
46(4) 0.0567 46.4 47.7
49(4) 0.0541 46.4 47.7
50(4) 0.0517 46.4 47.8
44(4) 0.0595 46.4 47.8
44(4) 0.0595 46.4 47.8
47(4) 0.0567 46.4 47.8
49(4) 0.0541 46.4 47.9
48(4) 0.0541 46.4 47.9
54(5) 0.0494 46.3 47.9
44(4) 0.0595 46.3 47.9
40(4) 0.0657 46.3 47.9
44(4) 0.0595 46.3 47.9
43(4) 0.0625 46.3 47.9
43(4) 0.0595 46.3 48.0
47(4) 0.0567 46.3 48.0
47(4) 0.0541 46.3 48.1
43(4) 0.0625 46.3 48.2
50(4) 0.0517 46.3 48.3
47(4) 0.0567 46.3 48.4
45(4) 0.0595 46.3 48.5
49(4) 0.0541 46.3 48.6
44(4) 0.0595 46.3 48.7
49(4) 0.0541 46.3 48.9
45(4) 0.0595 46.3 49.0
44(4) 0.0595 46.3 49.1
53(5) 0.0494 46.3 49.3
46(4) 0.0567 46.3 49.4
54(5) 0.0494 46.3 49.6
57(5) 0.0453 46.3 49.9
51(4) 0.0517 46.3 50.2
44(4) 0.0595 46.3 50.5
50(4) 0.0517 46.3 50.9
54(5) 0.0494 46.3 51.4
50(4) 0.0517 46.2 52.0
44(4) 0.0595 46.2 52.6
49(4) 0.0541 46.2 53.4
62(5) 0.0416 46.2 54.2
67(5) 0.0384 46.2 55.1
62(5) 0.0416 46.2 56.0
57(5) 0.0453 46.2 56.8
57(5) 0.0473 46.2 57.5
56(5) 0.0473 46.2 57.9
57(5) 0.0453 46.2 58.2
55(5) 0.0473 46.2 58.2
54(5) 0.0473 46.2 58.2
63(5) 0.0416 46.2 58.2
54(5) 0.0494 46.2 58.3
52(5) 0.0494 46.2 58.5
53(5) 0.0494 46.2 58.8
52(4) 0.0517 46.2 59.1
56(5) 0.0473 46.2 59.3
65(5) 0.0400 46.2 59.4
58(5) 0.0453 46.2 59.1
61(5) 0.0434 46.2 58.6
49(4) 0.0541 46.2 57.8
57(5) 0.0453 46.2 56.9
48(4) 0.0541 46.2 56.0
55(5) 0.0473 46.2 55.1
53(5) 0.0494 46.2 54.2
49(4) 0.0517 46.1 53.5
58(5) 0.0453 46.1 52.8
48(4) 0.0541 46.1 52.3
53(5) 0.0494 46.1 51.9
52(4) 0.0517 46.1 51.5
51(4) 0.0517 46.1 51.2
47(4) 0.0567 46.1 51.0
55(5) 0.0473 46.1 50.9
49(4) 0.0541 46.1 50.7
47(4) 0.0567 46.1 50.7
48(4) 0.0541 46.1 50.6
50(4) 0.0517 46.1 50.6
57(5) 0.0453 46.1 50.7
53(5) 0.0494 46.1 50.7
58(5) 0.0453 46.1 50.8
51(4) 0.0517 46.1 50.9
55(5) 0.0473 46.1 51.0
52(4) 0.0517 46.1 51.2
51(4) 0.0517 46.1 51.3
56(5) 0.0473 46.1 51.5
53(5) 0.0494 46.1 51.7
55(5) 0.0473 46.1 52.0
52(5) 0.0494 46.1 52.3
58(5) 0.0453 46.1 52.6
58(5) 0.0453 46.1 53.0
61(5) 0.0434 46.1 53.5
64(5) 0.0416 46.1 54.0
58(5) 0.0453 46.1 54.6
59(5) 0.0453 46.0 55.2
59(5) 0.0434 46.0 55.8
60(5) 0.0434 46.0 56.5
54(5) 0.0473 46.0 57.1
63(5) 0.0416 46.0 57.7
61(5) 0.0416 46.0 58.5
52(4) 0.0517 46.0 59.3
53(5) 0.0494 46.0 60.4
63(5) 0.0416 46.0 61.7
72(5) 0.0356 46.0 63.3
66(5) 0.0400 46.0 65.2
71(5) 0.0370 46.0 67.4
65(5) 0.0400 46.0 69.7
68(5) 0.0384 46.0 71.9
69(5) 0.0384 46.0 73.5
76(5) 0.03429 46.0 74.4
79(6) 0.03306 46.0 74.4
75(5) 0.03429 46.0 73.7
81(6) 0.03189 46.0 72.7
74(5) 0.0356 46.0 71.6
74(5) 0.03429 46.0 70.7
67(5) 0.0400 46.0 70.2
71(5) 0.0370 46.0 70.1
71(5) 0.0370 46.0 70.4
71(5) 0.0370 46.0 71.1
71(5) 0.0370 46.0 72.2
91(6) 0.02873 46.0 73.7
84(6) 0.03078 46.0 75.3
79(6) 0.03306 45.9 76.9
84(6) 0.03078 45.9 78.3
88(6) 0.02973 45.9 79.2
84(6) 0.03078 45.9 79.4
85(6) 0.03078 45.9 78.8
72(5) 0.0356 45.9 77.4
80(6) 0.03306 45.9 75.5
78(6) 0.03306 45.9 73.2
62(5) 0.0416 45.9 70.8
70(5) 0.0370 45.9 68.5
64(5) 0.0400 45.9 66.4
63(5) 0.0416 45.9 64.5
61(5) 0.0434 45.9 62.9
74(5) 0.0356 45.9 61.5
58(5) 0.0453 45.9 60.4
55(5) 0.0473 45.9 59.4
58(5) 0.0453 45.9 58.6
58(5) 0.0453 45.9 57.9
53(5) 0.0494 45.9 57.3
52(5) 0.0494 45.9 56.8
63(5) 0.0416 45.9 56.3
52(5) 0.0494 45.9 55.7
59(5) 0.0434 45.9 55.2
63(5) 0.0416 45.9 54.8
57(5) 0.0453 45.9 54.3
61(5) 0.0434 45.9 53.9
57(5) 0.0453 45.9 53.5
50(4) 0.0517 45.9 53.2
53(5) 0.0494 45.9 52.9
62(5) 0.0416 45.9 52.7
58(5) 0.0453 45.8 52.6
57(5) 0.0453 45.8 52.5
58(5) 0.0453 45.8 52.4
54(5) 0.0494 45.8 52.4
55(5) 0.0473 45.8 52.4
57(5) 0.0453 45.8 52.5
65(5) 0.0400 45.8 52.5
58(5) 0.0453 45.8 52.4
60(5) 0.0434 45.8 52.4
49(4) 0.0541 45.8 52.2
52(5) 0.0494 45.8 52.0
58(5) 0.0453 45.8 51.8
48(4) 0.0541 45.8 51.6
63(5) 0.0416 45.8 51.3
61(5) 0.0434 45.8 51.1
46(4) 0.0567 45.8 50.9
56(5) 0.0453 45.8 50.7
52(4) 0.0517 45.8 50.5
45(4) 0.0567 45.8 50.4
49(4) 0.0517 45.8 50.4
52(5) 0.0494 45.8 50.3
51(4) 0.0517 45.8 50.3
46(4) 0.0567 45.8 50.3
51(4) 0.0517 45.8 50.4
53(5) 0.0494 45.8 50.5
53(5) 0.0494 45.8 50.6
45(4) 0.0567 45.8 50.8
51(4) 0.0517 45.8 51.0
51(4) 0.0517 45.8 51.2
43(4) 0.0595 45.8 51.4
55(5) 0.0473 45.7 51.6
65(5) 0.0400 45.7 51.8
57(5) 0.0453 45.7 52.0
52(4) 0.0517 45.7 52.1
62(5) 0.0416 45.7 52.2
54(5) 0.0473 45.7 52.3
48(4) 0.0541 45.7 52.4
53(5) 0.0494 45.7 52.5
59(5) 0.0434 45.7 52.7
56(5) 0.0473 45.7 52.9
48(4) 0.0541 45.7 53.2
46(4) 0.0567 45.7 53.5
59(5) 0.0434 45.7 53.9
55(5) 0.0473 45.7 54.4
57(5) 0.0453 45.7 54.9
51(4) 0.0517 45.7 55.4
53(5) 0.0494 45.7 55.9
55(5) 0.0473 45.7 56.4
67(5) 0.0384 45.7 56.9
57(5) 0.0453 45.7 57.3
56(5) 0.0473 45.7 57.5
56(5) 0.0473 45.7 57.6
54(5) 0.0494 45.7 57.5
57(5) 0.0453 45.7 57.3
56(5) 0.0453 45.7 56.9
59(5) 0.0453 45.7 56.5
48(4) 0.0541 45.7 55.9
50(4) 0.0517 45.7 55.4
54(5) 0.0494 45.7 54.8
63(5) 0.0416 45.7 54.2
59(5) 0.0434 45.7 53.6
49(4) 0.0517 45.7 53.1
55(5) 0.0473 45.6 52.7
50(4) 0.0517 45.6 52.2
49(4) 0.0541 45.6 51.9
56(5) 0.0453 45.6 51.5
57(5) 0.0453 45.6 51.2
52(5) 0.0494 45.6 51.0
48(4) 0.0541 45.6 50.8
49(4) 0.0541 45.6 50.6
44(4) 0.0595 45.6 50.4
49(4) 0.0541 45.6 50.3
47(4) 0.0567 45.6 50.1
43(4) 0.0595 45.6 50.0
50(4) 0.0517 45.6 49.8
48(4) 0.0541 45.6 49.7
58(5) 0.0453 45.6 49.6
52(5) 0.0494 45.6 49.4
47(4) 0.0567 45.6 49.3
49(4) 0.0541 45.6 49.2
48(4) 0.0541 45.6 49.1
47(4) 0.0567 45.6 49.0
50(4) 0.0517 45.6 49.0
59(5) 0.0434 45.6 49.0
48(4) 0.0541 45.6 48.9
45(4) 0.0567 45.6 49.0
44(4) 0.0595 45.6 49.0
50(4) 0.0517 45.6 49.1
47(4) 0.0541 45.6 49.2
55(5) 0.0473 45.6 49.3
50(4) 0.0517 45.6 49.5
53(5) 0.0494 45.6 49.7
62(5) 0.0416 45.6 49.9
53(5) 0.0473 45.6 50.1
50(4) 0.0517 45.6 50.3
47(4) 0.0541 45.6 50.5
50(4) 0.0517 45.5 50.6
48(4) 0.0541 45.5 50.6
41(4) 0.0625 45.5 50.4
48(4) 0.0541 45.5 50.3
48(4) 0.0541 45.5 50.0
47(4) 0.0541 45.5 49.7
47(4) 0.0541 45.5 49.5
48(4) 0.0541 45.5 49.2
42(4) 0.0625 45.5 49.0
47(4) 0.0541 45.5 48.7
49(4) 0.0517 45.5 48.6
50(4) 0.0517 45.5 48.4
49(4) 0.0517 45.5 48.3
53(5) 0.0494 45.5 48.2
47(4) 0.0541 45.5 48.1
51(4) 0.0517 45.5 48.0
55(5) 0.0473 45.5 47.9
49(4) 0.0541 45.5 47.9
53(5) 0.0494 45.5 47.8
51(4) 0.0517 45.5 47.8
50(4) 0.0517 45.5 47.8
53(5) 0.0473 45.5 47.8
39(4) 0.0657 45.5 47.8
45(4) 0.0595 45.5 47.8
52(5) 0.0494 45.5 47.9
64(5) 0.0400 45.5 47.9
51(4) 0.0517 45.5 48.0
47(4) 0.0567 45.5 48.0
46(4) 0.0567 45.5 48.1
53(5) 0.0494 45.5 48.2
48(4) 0.0541 45.5 48.3
45(4) 0.0567 45.5 48.4
49(4) 0.0517 45.5 48.6
51(4) 0.0517 45.5 48.7
43(4) 0.0595 45.5 48.9
47(4) 0.0541 45.4 49.0
50(4) 0.0517 45.4 49.2
44(4) 0.0595 45.4 49.4
58(5) 0.0434 45.4 49.6
52(5) 0.0494 45.4 49.8
50(4) 0.0517 45.4 50.0
54(5) 0.0494 45.4 50.1
50(4) 0.0517 45.4 50.2
54(5) 0.0473 45.4 50.4
51(4) 0.0517 45.4 50.5
47(4) 0.0567 45.4 50.6
45(4) 0.0567 45.4 50.6
53(5) 0.0494 45.4 50.7
49(4) 0.0517 45.4 50.9
50(4) 0.0517 45.4 51.0
54(5) 0.0473 45.4 51.1
47(4) 0.0567 45.4 51.3
55(5) 0.0473 45.4 51.4
56(5) 0.0453 45.4 51.6
52(5) 0.0494 45.4 51.7
58(5) 0.0453 45.4 51.8
56(5) 0.0473 45.4 51.9
49(4) 0.0541 45.4 52.0
54(5) 0.0473 45.4 52.1
51(5) 0.0494 45.4 52.1
49(4) 0.0541 45.4 52.2
43(4) 0.0595 45.4 52.3
46(4) 0.0567 45.4 52.3
54(5) 0.0473 45.4 52.5
55(5) 0.0473 45.4 52.6
52(5) 0.0494 45.4 52.9
50(4) 0.0517 45.4 53.2
55(5) 0.0473 45.4 53.6
58(5) 0.0453 45.4 54.1
58(5) 0.0434 45.4 54.7
53(5) 0.0494 45.3 55.4
52(5) 0.0494 45.3 56.2
63(5) 0.0416 45.3 57.1
55(5) 0.0473 45.3 58.0
62(5) 0.0416 45.3 59.0
67(5) 0.0384 45.3 59.9
68(5) 0.0384 45.3 60.6
56(5) 0.0473 45.3 61.0
66(5) 0.0384 45.3 61.1
68(5) 0.0384 45.3 60.9
59(5) 0.0434 45.3 60.3
63(5) 0.0416 45.3 59.4
58(5) 0.0453 45.3 58.4
60(5) 0.0434 45.3 57.4
55(5) 0.0473 45.3 56.3
53(5) 0.0494 45.3 55.4
59(5) 0.0434 45.3 54.5
51(5) 0.0494 45.3 53.8
48(4) 0.0541 45.3 53.1
57(5) 0.0453 45.3 52.6
49(4) 0.0541 45.3 52.1
55(5) 0.0473 45.3 51.7
59(5) 0.0434 45.3 51.4
52(5) 0.0494 45.3 51.1
52(5) 0.0494 45.3 50.9
51(4) 0.0517 45.3 50.8
52(5) 0.0494 45.3 50.7
48(4) 0.0541 45.3 50.6
50(4) 0.0517 45.3 50.6
49(4) 0.0517 45.3 50.6
54(5) 0.0473 45.3 50.6
54(5) 0.0473 45.3 50.6
55(5) 0.0473 45.3 50.7
50(4) 0.0517 45.3 50.7
58(5) 0.0453 45.3 50.8
48(4) 0.0541 45.3 50.8
54(5) 0.0473 45.3 50.9
50(4) 0.0517 45.2 51.0
60(5) 0.0434 45.2 51.2
52(5) 0.0494 45.2 51.3
54(5) 0.0473 45.2 51.5
58(5) 0.0453 45.2 51.7
60(5) 0.0434 45.2 51.9
54(5) 0.0473 45.2 52.2
63(5) 0.0416 45.2 52.5
57(5) 0.0453 45.2 52.9
49(4) 0.0517 45.2 53.4
53(5) 0.0494 45.2 54.0
54(5) 0.0473 45.2 54.6
62(5) 0.0416 45.2 55.4
56(5) 0.0453 45.2 56.3
59(5) 0.0434 45.2 57.3
57(5) 0.0453 45.2 58.5
68(5) 0.0384 45.2 59.9
68(5) 0.0384 45.2 61.5
61(5) 0.0416 45.2 63.4
63(5) 0.0416 45.2 65.4
64(5) 0.0400 45.2 67.7
78(6) 0.03306 45.2 70.0
81(6) 0.03189 45.2 72.5
84(6) 0.03078 45.2 75.0
81(6) 0.03189 45.2 77.2
78(6) 0.03306 45.2 79.2
80(6) 0.03306 45.2 80.6
78(6) 0.03306 45.2 81.4
90(6) 0.02873 45.2 81.4
80(6) 0.03189 45.2 80.6
76(6) 0.03306 45.2 79.0
75(5) 0.03429 45.2 76.8
72(5) 0.0356 45.2 74.1
67(5) 0.0384 45.2 71.4
62(5) 0.0416 45.2 68.8
60(5) 0.0434 45.2 66.4
66(5) 0.0384 45.2 64.3
68(5) 0.0384 45.2 62.5
66(5) 0.0384 45.1 60.9
57(5) 0.0453 45.1 59.6
54(5) 0.0473 45.1 58.4
56(5) 0.0453 45.1 57.5
57(5) 0.0453 45.1 56.7
54(5) 0.0473 45.1 56.0
48(4) 0.0541 45.1 55.4
57(5) 0.0453 45.1 54.9
57(5) 0.0453 45.1 54.5
52(5) 0.0494 45.1 54.2
55(5) 0.0473 45.1 54.0
45(4) 0.0567 45.1 53.9
48(4) 0.0541 45.1 53.9
48(4) 0.0541 45.1 54.0
59(5) 0.0434 45.1 54.2
61(5) 0.0416 45.1 54.5
54(5) 0.0473 45.1 54.8
57(5) 0.0453 45.1 55.2
58(5) 0.0453 45.1 55.6
49(4) 0.0541 45.1 55.8
58(5) 0.0453 45.1 55.8
59(5) 0.0434 45.1 55.6
60(5) 0.0434 45.1 55.2
57(5) 0.0453 45.1 54.6
57(5) 0.0453 45.1 53.9
44(4) 0.0567 45.1 53.2
49(4) 0.0517 45.1 52.5
49(4) 0.0517 45.1 51.9
46(4) 0.0567 45.1 51.3
57(5) 0.0453 45.1 50.8
55(5) 0.0473 45.1 50.4
50(4) 0.0517 45.1 50.1
49(4) 0.0517 45.1 49.8
45(4) 0.0567 45.1 49.5
53(5) 0.0473 45.1 49.3
51(4) 0.0517 45.1 49.1
50(4) 0.0517 45.1 49.0
43(4) 0.0595 45.1 48.9
49(4) 0.0517 45.0 48.9
48(4) 0.0541 45.0 48.9
55(5) 0.0473 45.0 48.9
54(5) 0.0473 45.0 48.9
49(4) 0.0517 45.0 49.0
50(4) 0.0517 45.0 49.1
46(4) 0.0541 45.0 49.2
48(4) 0.0541 45.0 49.4
50(4) 0.0517 45.0 49.5
49(4) 0.0517 45.0 49.6
57(5) 0.0453 45.0 49.7
58(5) 0.0453 45.0 49.8
62(5) 0.0416 45.0 49.8
47(4) 0.0541 45.0 49.7
53(5) 0.0494 45.0 49.6
55(5) 0.0453 45.0 49.5
54(5) 0.0473 45.0 49.4
55(5) 0.0473 45.0 49.3
47(4) 0.0541 45.0 49.2
48(4) 0.0541 45.0 49.1
45(4) 0.0567 45.0 49.0
44(4) 0.0595 45.0 48.9
50(4) 0.0517 45.0 48.8
48(4) 0.0541 45.0 48.7
54(5) 0.0473 45.0 48.6
51(4) 0.0517 45.0 48.6
55(5) 0.0473 45.0 48.5
49(4) 0.0541 45.0 48.5
59(5) 0.0434 45.0 48.4
54(5) 0.0473 45.0 48.4
44(4) 0.0595 45.0 48.3
49(4) 0.0517 45.0 48.3
53(5) 0.0473 45.0 48.2
50(4) 0.0517 45.0 48.2
53(5) 0.0494 45.0 48.2
46(4) 0.0567 45.0 48.2
50(4) 0.0517 45.0 48.2
46(4) 0.0541 45.0 48.2
52(5) 0.0494 45.0 48.3
50(4) 0.0517 44.9 48.3
51(5) 0.0494 44.9 48.4
48(4) 0.0541 44.9 48.5
50(4) 0.0517 44.9 48.7
55(5) 0.0473 44.9 48.8
56(5) 0.0453 44.9 49.0
58(5) 0.0434 44.9 49.2
47(4) 0.0541 44.9 49.4
52(5) 0.0494 44.9 49.6
51(4) 0.0517 44.9 49.9
49(4) 0.0517 44.9 50.2
52(5) 0.0494 44.9 50.5
53(5) 0.0473 44.9 50.8
53(5) 0.0494 44.9 51.1
49(4) 0.0517 44.9 51.4
60(5) 0.0416 44.9 51.8
60(5) 0.0434 44.9 52.1
50(4) 0.0517 44.9 52.5
52(5) 0.0494 44.9 53.0
56(5) 0.0453 44.9 53.5
50(4) 0.0517 44.9 54.2
61(5) 0.0416 44.9 54.8
61(5) 0.0416 44.9 55.6
56(5) 0.0453 44.9 56.5
59(5) 0.0434 44.9 57.4
58(5) 0.0434 44.9 58.4
65(5) 0.0400 44.9 59.5
66(5) 0.0384 44.9 60.6
63(5) 0.0416 44.9 61.9
65(5) 0.0400 44.9 63.3
69(5) 0.0370 44.9 64.9
68(5) 0.0370 44.9 66.8
80(6) 0.03189 44.9 69.0
74(5) 0.03429 44.9 71.4
80(6) 0.03189 44.9 74.0
79(6) 0.03306 44.9 76.6
85(6) 0.02973 44.9 79.0
74(5) 0.03429 44.9 80.9
74(5) 0.0356 44.9 81.8
81(6) 0.03189 44.8 81.7
70(5) 0.0370 44.8 80.4
61(5) 0.0416 44.8 78.4
66(5) 0.0384 44.8 75.7
69(5) 0.0370 44.8 72.9
69(5) 0.0370 44.8 70.1
71(5) 0.0356 44.8 67.5
54(5) 0.0473 44.8 65.1
57(5) 0.0453 44.8 63.1
62(5) 0.0416 44.8 61.4
53(5) 0.0494 44.8 60.0
56(5) 0.0453 44.8 58.8
58(5) 0.0434 44.8 57.9
58(5) 0.0434 44.8 57.2
53(5) 0.0494 44.8 56.6
51(5) 0.0494 44.8 56.3
50(4) 0.0517 44.8 56.1
59(5) 0.0434 44.8 56.0
57(5) 0.0453 44.8 56.0
60(5) 0.0416 44.8 56.0
58(5) 0.0434 44.8 55.9
41(4) 0.0625 44.8 55.8
56(5) 0.0453 44.8 55.6
60(5) 0.0434 44.8 55.3
50(4) 0.0517 44.8 55.0
57(5) 0.0453 44.8 54.6
48(4) 0.0541 44.8 54.3
50(4) 0.0517 44.8 54.0
57(5) 0.0453 44.8 53.8
50(4) 0.0517 44.8 53.7
54(5) 0.0473 44.8 53.7
50(4) 0.0517 44.8 53.7
49(4) 0.0517 44.8 53.8
54(5) 0.0473 44.8 53.9
46(4) 0.0567 44.8 54.1
48(4) 0.0541 44.8 54.3
50(4) 0.0517 44.8 54.6
49(4) 0.0517 44.8 54.7
62(5) 0.0416 44.7 54.8
53(5) 0.0473 44.7 54.8
55(5) 0.0453 44.7 54.7
57(5) 0.0453 44.7 54.4
54(5) 0.0473 44.7 54.0
47(4) 0.0541 44.7 53.5
40(4) 0.0625 44.7 53.0
49(4) 0.0517 44.7 52.4
45(4) 0.0567 44.7 51.9
46(4) 0.0567 44.7 51.4
52(5) 0.0494 44.7 50.9
53(5) 0.0494 44.7 50.5
46(4) 0.0541 44.7 50.1
49(4) 0.0517 44.7 49.8
51(5) 0.0494 44.7 49.5
50(4) 0.0517 44.7 49.3
36(4) 0.0730 44.7 49.1
45(4) 0.0567 44.7 48.9
54(5) 0.0473 44.7 48.8
48(4) 0.0517 44.7 48.6
55(5) 0.0473 44.7 48.5
48(4) 0.0517 44.7 48.4
49(4) 0.0517 44.7 48.4
57(5) 0.0453 44.7 48.3
55(5) 0.0473 44.7 48.3
57(5) 0.0453 44.7 48.3
51(5) 0.0494 44.7 48.3
48(4) 0.0541 44.7 48.3
49(4) 0.0517 44.7 48.3
47(4) 0.0541 44.7 48.3
45(4) 0.0567 44.7 48.4
46(4) 0.0567 44.7 48.5
50(4) 0.0517 44.7 48.5
46(4) 0.0541 44.7 48.6
57(5) 0.0453 44.7 48.8
41(4) 0.0625 44.7 48.9
57(5) 0.0453 44.7 49.1
50(4) 0.0517 44.7 49.3
54(5) 0.0473 44.6 49.5
47(4) 0.0541 44.6 49.7
51(5) 0.0494 44.6 50.0
56(5) 0.0453 44.6 50.3
51(5) 0.0494 44.6 50.7
56(5) 0.0453 44.6 51.1
55(5) 0.0473 44.6 51.6
50(4) 0.0517 44.6 52.1
50(4) 0.0517 44.6 52.7
57(5) 0.0434 44.6 53.3
56(5) 0.0453 44.6 54.0
56(5) 0.0453 44.6 54.7
54(5) 0.0473 44.6 55.5
57(5) 0.0453 44.6 56.4
61(5) 0.0416 44.6 57.2
53(5) 0.0473 44.6 58.2
72(5) 0.0356 44.6 59.1
60(5) 0.0416 44.6 60.0
64(5) 0.0400 44.6 60.9
61(5) 0.0416 44.6 61.8
62(5) 0.0416 44.6 62.4
58(5) 0.0434 44.6 62.8
57(5) 0.0453 44.6 62.9
68(5) 0.0370 44.6 62.7
67(5) 0.0384 44.6 62.3
66(5) 0.0384 44.6 61.7
56(5) 0.0453 44.6 61.1
55(5) 0.0473 44.6 60.6
52(5) 0.0494 44.6 60.2
58(5) 0.0434 44.6 60.1
56(5) 0.0453 44.6 60.1
62(5) 0.0400 44.6 60.3
60(5) 0.0416 44.6 60.7
60(5) 0.0416 44.6 61.4
62(5) 0.0400 44.6 62.3
62(5) 0.0400 44.6 63.3
62(5) 0.0416 44.6 64.6
69(5) 0.0370 44.5 66.0
72(5) 0.0356 44.5 67.5
66(5) 0.0384 44.5 69.0
65(5) 0.0384 44.5 70.4
68(5) 0.0370 44.5 71.6
70(5) 0.0356 44.5 72.4
73(5) 0.03429 44.5 72.5
69(5) 0.0370 44.5 71.9
67(5) 0.0384 44.5 70.7
55(5) 0.0473 44.5 69.2
63(5) 0.0400 44.5 67.4
69(5) 0.0370 44.5 65.7
60(5) 0.0416 44.5 64.1
55(5) 0.0473 44.5 62.7
63(5) 0.0400 44.5 61.6
61(5) 0.0416 44.5 60.7
60(5) 0.0416 44.5 60.1
59(5) 0.0434 44.5 59.6
61(5) 0.0416 44.5 59.3
60(5) 0.0416 44.5 59.1
59(5) 0.0434 44.5 58.9
52(5) 0.0473 44.5 58.8
60(5) 0.0416 44.5 58.7
50(4) 0.0517 44.5 58.6
54(5) 0.0473 44.5 58.4
63(5) 0.0416 44.5 58.2
58(5) 0.0434 44.5 57.9
55(5) 0.0453 44.5 57.7
51(5) 0.0494 44.5 57.4
57(5) 0.0453 44.5 57.2
61(5) 0.0416 44.5 56.9
51(5) 0.0494 44.5 56.5
57(5) 0.0453 44.5 56.0
58(5) 0.0434 44.5 55.5
52(5) 0.0494 44.5 54.9
48(4) 0.0541 44.5 54.2
52(5) 0.0473 44.5 53.6
56(5) 0.0453 44.4 52.9
53(5) 0.0473 44.4 52.3
41(4) 0.0625 44.4 51.7
50(4) 0.0517 44.4 51.2
56(5) 0.0453 44.4 50.8
48(4) 0.0517 44.4 50.4
43(4) 0.0595 44.4 50.1
49(4) 0.0517 44.4 49.8
45(4) 0.0567 44.4 49.6
46(4) 0.0567 44.4 49.4
49(4) 0.0517 44.4 49.3
51(5) 0.0494 44.4 49.1
48(4) 0.0517 44.4 49.1
55(5) 0.0453 44.4 49.0
47(4) 0.0541 44.4 49.0
45(4) 0.0567 44.4 49.1
46(4) 0.0541 44.4 49.1
53(5) 0.0473 44.4 49.1
46(4) 0.0541 44.4 49.2
49(4) 0.0517 44.4 49.3
55(5) 0.0453 44.4 49.4
44(4) 0.0567 44.4 49.4
55(5) 0.0453 44.4 49.5
46(4) 0.0541 44.4 49.6
40(4) 0.0625 44.4 49.6
47(4) 0.0541 44.4 49.6
50(4) 0.0517 44.4 49.5
50(4) 0.0517 44.4 49.4
52(5) 0.0494 44.4 49.2
49(4) 0.0517 44.4 49.0
48(4) 0.0517 44.4 48.8
50(5) 0.0494 44.4 48.6
44(4) 0.0567 44.4 48.3
50(5) 0.0494 44.4 48.1
45(4) 0.0567 44.4 47.8
43(4) 0.0595 44.3 47.6
51(5) 0.0494 44.3 47.4
52(5) 0.0473 44.3 47.2
49(4) 0.0517 44.3 47.1
48(4) 0.0517 44.3 46.9
47(4) 0.0541 44.3 46.8
49(4) 0.0517 44.3 46.6
43(4) 0.0595 44.3 46.5
43(4) 0.0595 44.3 46.4
40(4) 0.0657 44.3 46.3
54(5) 0.0473 44.3 46.2
45(4) 0.0567 44.3 46.1
41(4) 0.0625 44.3 46.1
38(4) 0.0657 44.3 46.0
45(4) 0.0567 44.3 46.0
43(4) 0.0595 44.3 45.9
46(4) 0.0541 44.3 45.8
46(4) 0.0541 44.3 45.8
47(4) 0.0541 44.3 45.8
45(4) 0.0567 44.3 45.7
40(4) 0.0625 44.3 45.7
55(5) 0.0453 44.3 45.7
51(5) 0.0494 44.3 45.7
47(4) 0.0541 44.3 45.6
47(4) 0.0541 44.3 45.6
42(4) 0.0595 44.3 45.6
47(4) 0.0541 44.3 45.6
56(5) 0.0453 44.3 45.6
45(4) 0.0567 44.3 45.6
46(4) 0.0541 44.3 45.6
43(4) 0.0595 44.3 45.6
39(4) 0.0625 44.3 45.6
44(4) 0.0567 44.3 45.6
37(4) 0.0693 44.3 45.6
47(4) 0.0541 44.2 45.6
43(4) 0.0595 44.2 45.6
41(4) 0.0625 44.2 45.7
45(4) 0.0567 44.2 45.7
57(5) 0.0453 44.2 45.7
37(4) 0.0693 44.2 45.8
48(4) 0.0517 44.2 45.8
45(4) 0.0567 44.2 45.8
42(4) 0.0595 44.2 45.9
43(4) 0.0595 44.2 45.9
41(4) 0.0625 44.2 46.0
45(4) 0.0567 44.2 46.0
53(5) 0.0473 44.2 46.0
46(4) 0.0541 44.2 46.1
44(4) 0.0567 44.2 46.1
52(5) 0.0473 44.2 46.1
48(4) 0.0541 44.2 46.1
57(5) 0.0434 44.2 46.0
48(4) 0.0517 44.2 46.0
46(4) 0.0541 44.2 45.9
41(4) 0.0625 44.2 45.8
44(4) 0.0567 44.2 45.7
42(4) 0.0595 44.2 45.6
48(4) 0.0541 44.2 45.5
45(4) 0.0567 44.2 45.5
44(4) 0.0567 44.2 45.4
49(4) 0.0517 44.2 45.4
46(4) 0.0541 44.2 45.3
40(4) 0.0625 44.2 45.3
41(4) 0.0625 44.2 45.2
47(4) 0.0541 44.2 45.2
46(4) 0.0541 44.2 45.2
52(5) 0.0473 44.2 45.2
44(4) 0.0567 44.2 45.2
48(4) 0.0517 44.1 45.1
40(4) 0.0625 44.1 45.1
42(4) 0.0595 44.1 45.1
45(4) 0.0567 44.1 45.1
44(4) 0.0567 44.1 45.1
42(4) 0.0595 44.1 45.1
38(4) 0.0657 44.1 45.1
45(4) 0.0567 44.1 45.1
40(4) 0.0625 44.1 45.1
44(4) 0.0567 44.1 45.1
45(4) 0.0567 44.1 45.1
40(4) 0.0625 44.1 45.1
44(4) 0.0567 44.1 45.1
40(4) 0.0625 44.1 45.1
47(4) 0.0541 44.1 45.1
47(4) 0.0541 44.1 45.1
41(4) 0.0625 44.1 45.1
47(4) 0.0541 44.1 45.1
46(4) 0.0541 44.1 45.1
49(4) 0.0517 44.1 45.1
52(5) 0.0494 44.1 45.2
40(4) 0.0625 44.1 45.2
48(4) 0.0541 44.1 45.2
49(4) 0.0517 44.1 45.2
44(4) 0.0567 44.1 45.2
49(4) 0.0517 44.1 45.3
40(4) 0.0625 44.1 45.3
50(5) 0.0494 44.1 45.3
37(4) 0.0693 44.1 45.3
40(4) 0.0625 44.1 45.3
51(5) 0.0494 44.1 45.3
48(4) 0.0517 44.1 45.3
42(4) 0.0595 44.1 45.3
48(4) 0.0517 44.0 45.3
38(4) 0.0657 44.0 45.3
40(4) 0.0625 44.0 45.3
42(4) 0.0595 44.0 45.3
48(4) 0.0517 44.0 45.3
55(5) 0.0453 44.0 45.3
45(4) 0.0567 44.0 45.3
40(4) 0.0625 44.0 45.3
47(4) 0.0541 44.0 45.4
40(4) 0.0625 44.0 45.4
42(4) 0.0595 44.0 45.4
42(4) 0.0595 44.0 45.4
42(4) 0.0595 44.0 45.5
44(4) 0.0567 44.0 45.5
47(4) 0.0541 44.0 45.5
47(4) 0.0541 44.0 45.6
48(4) 0.0517 44.0 45.6
52(5) 0.0473 44.0 45.7
48(4) 0.0517 44.0 45.7
38(4) 0.0657 44.0 45.8
44(4) 0.0567 44.0 45.9
52(5) 0.0473 44.0 46.0
45(4) 0.0567 44.0 46.1
43(4) 0.0567 44.0 46.2
54(5) 0.0473 44.0 46.3
50(4) 0.0517 44.0 46.4
50(5) 0.0494 44.0 46.6
48(4) 0.0517 44.0 46.8
57(5) 0.0453 44.0 47.0
49(4) 0.0517 44.0 47.2
60(5) 0.0416 44.0 47.4
48(4) 0.0517 43.9 47.7
46(4) 0.0541 43.9 47.9
50(5) 0.0494 43.9 48.2
45(4) 0.0567 43.9 48.4
49(4) 0.0517 43.9 48.7
42(4) 0.0595 43.9 48.9
55(5) 0.0453 43.9 49.1
49(4) 0.0517 43.9 49.3
50(5) 0.0494 43.9 49.5
49(4) 0.0517 43.9 49.7
44(4) 0.0567 43.9 49.9
47(4) 0.0541 43.9 50.0
54(5) 0.0453 43.9 50.1
49(4) 0.0517 43.9 50.2
54(5) 0.0453 43.9 50.2
50(5) 0.0494 43.9 50.2
51(5) 0.0494 43.9 50.1
49(4) 0.0517 43.9 50.0
45(4) 0.0567 43.9 49.8
50(5) 0.0494 43.9 49.6
52(5) 0.0494 43.9 49.4
47(4) 0.0541 43.9 49.2
53(5) 0.0473 43.9 49.0
45(4) 0.0567 43.9 48.8
55(5) 0.0453 43.9 48.7
55(5) 0.0453 43.9 48.5
53(5) 0.0473 43.9 48.4
52(5) 0.0494 43.9 48.2
46(4) 0.0541 43.9 48.1
50(5) 0.0494 43.9 48.0
49(4) 0.0517 43.9 47.8
57(5) 0.0434 43.9 47.7
47(4) 0.0517 43.8 47.7
46(4) 0.0541 43.8 47.6
49(4) 0.0517 43.8 47.6
43(4) 0.0595 43.8 47.5
46(4) 0.0541 43.8 47.5
48(4) 0.0517 43.8 47.6
45(4) 0.0567 43.8 47.6
42(4) 0.0595 43.8 47.7
52(5) 0.0473 43.8 47.7
44(4) 0.0567 43.8 47.8
42(4) 0.0595 43.8 47.9
52(5) 0.0473 43.8 48.0
45(4) 0.0567 43.8 48.2
42(4) 0.0595 43.8 48.3
47(4) 0.0541 43.8 48.5
52(5) 0.0473 43.8 48.7
45(4) 0.0567 43.8 49.0
40(4) 0.0625 43.8 49.2
57(5) 0.0434 43.8 49.5
62(5) 0.0400 43.8 49.8
48(4) 0.0517 43.8 50.2
53(5) 0.0473 43.8 50.5
60(5) 0.0416 43.8 50.9
59(5) 0.0416 43.8 51.3
51(5) 0.0494 43.8 51.8
48(4) 0.0517 43.8 52.3
50(4) 0.0517 43.8 52.9
51(5) 0.0494 43.8 53.6
54(5) 0.0453 43.8 54.3
58(5) 0.0434 43.8 55.2
59(5) 0.0434 43.7 56.2
58(5) 0.0434 43.7 57.4
57(5) 0.0434 43.7 58.8
54(5) 0.0473 43.7 60.3
55(5) 0.0453 43.7 62.1
65(5) 0.0384 43.7 64.0
55(5) 0.0453 43.7 66.1
75(6) 0.03306 43.7 68.1
80(6) 0.03078 43.7 69.9
67(5) 0.0370 43.7 71.2
67(5) 0.0370 43.7 72.1
70(5) 0.0356 43.7 72.3
59(5) 0.0416 43.7 72.1
64(5) 0.0384 43.7 71.6
64(5) 0.0384 43.7 71.0
67(5) 0.0370 43.7 70.5
73(5) 0.03429 43.7 70.2
74(5) 0.03429 43.7 70.2
72(5) 0.03429 43.7 70.6
74(5) 0.03429 43.7 71.4
86(6) 0.02873 43.7 72.4
84(6) 0.02973 43.7 73.7
78(6) 0.03189 43.7 75.1
83(6) 0.02973 43.7 76.3
84(6) 0.02973 43.7 77.3
89(6) 0.02778 43.7 77.9
73(5) 0.03429 43.7 77.8
79(6) 0.03189 43.7 77.3
73(5) 0.03429 43.7 76.4
74(5) 0.03429 43.7 75.2
77(6) 0.03189 43.7 74.0
69(5) 0.0356 43.6 72.8
72(5) 0.03429 43.6 71.9
68(5) 0.0370 43.6 71.2
65(5) 0.0384 43.6 70.8
65(5) 0.0384 43.6 70.7
67(5) 0.0370 43.6 70.9
83(6) 0.02973 43.6 71.3
88(6) 0.02873 43.6 72.1
69(5) 0.0356 43.6 73.0
77(6) 0.03189 43.6 74.3
81(6) 0.03078 43.6 75.7
77(6) 0.03306 43.6 77.3
83(6) 0.02973 43.6 78.9
79(6) 0.03189 43.6 80.6
87(6) 0.02873 43.6 82.2
86(6) 0.02873 43.6 83.8
85(6) 0.02873 43.6 85.2
90(6) 0.02778 43.6 86.4
95(6) 0.02601 43.6 87.6
92(6) 0.02687 43.6 88.8
75(6) 0.03306 43.6 90.1
84(6) 0.02973 43.6 91.6
84(6) 0.02973 43.6 93.4
102(6) 0.02441 43.6 95.4
104(6) 0.02441 43.6 97.4
96(6) 0.02601 43.6 99.2
91(6) 0.02687 43.6 100.5
91(6) 0.02687 43.6 100.7
105(7) 0.02367 43.6 99.7
86(6) 0.02873 43.6 97.5
84(6) 0.02973 43.5 94.2
86(6) 0.02873 43.5 90.4
69(5) 0.0356 43.5 86.4
73(5) 0.03429 43.5 82.4
69(5) 0.0356 43.5 78.7
76(6) 0.03306 43.5 75.4
75(6) 0.03306 43.5 72.5
70(5) 0.0356 43.5 70.0
62(5) 0.0400 43.5 67.8
63(5) 0.0400 43.5 66.0
52(5) 0.0473 43.5 64.5
56(5) 0.0434 43.5 63.2
65(5) 0.0384 43.5 62.1
63(5) 0.0384 43.5 61.3
65(5) 0.0384 43.5 60.6
67(5) 0.0370 43.5 60.0
57(5) 0.0434 43.5 59.6
58(5) 0.0434 43.5 59.2
59(5) 0.0434 43.5 59.0
68(5) 0.0370 43.5 58.9
68(5) 0.0370 43.5 58.9
58(5) 0.0434 43.5 59.0
51(5) 0.0494 43.5 59.2
66(5) 0.0384 43.5 59.5
59(5) 0.0416 43.5 59.8
77(6) 0.03189 43.5 60.2
67(5) 0.0370 43.5 60.6
69(5) 0.0356 43.5 61.0
67(5) 0.0370 43.5 61.3
53(5) 0.0473 43.4 61.5
58(5) 0.0434 43.4 61.6
62(5) 0.0400 43.4 61.7
64(5) 0.0384 43.4 61.8
66(5) 0.0384 43.4 61.9
68(5) 0.0370 43.4 62.0
63(5) 0.0384 43.4 62.1
60(5) 0.0416 43.4 62.2
62(5) 0.0400 43.4 62.2
66(5) 0.0370 43.4 62.0
70(5) 0.0356 43.4 61.6
60(5) 0.0416 43.4 61.0
58(5) 0.0434 43.4 60.2
62(5) 0.0400 43.4 59.3
52(5) 0.0473 43.4 58.4
55(5) 0.0453 43.4 57.5
58(5) 0.0416 43.4 56.6
57(5) 0.0434 43.4 55.8
52(5) 0.0473 43.4 55.1
56(5) 0.0453 43.4 54.5
56(5) 0.0434 43.4 54.0
49(4) 0.0517 43.4 53.6
58(5) 0.0416 43.4 53.3
53(5) 0.0473 43.4 53.1
56(5) 0.0434 43.4 53.0
57(5) 0.0434 43.4 53.0
54(5) 0.0453 43.4 53.1
49(4) 0.0517 43.4 53.2
50(5) 0.0494 43.4 53.3
49(4) 0.0517 43.4 53.4
52(5) 0.0473 43.3 53.4
59(5) 0.0416 43.3 53.3
54(5) 0.0453 43.3 53.1
56(5) 0.0453 43.3 52.7
54(5) 0.0453 43.3 52.4
58(5) 0.0416 43.3 52.0
50(5) 0.0494 43.3 51.6
52(5) 0.0473 43.3 51.3
53(5) 0.0473 43.3 51.0
54(5) 0.0453 43.3 50.8
51(5) 0.0494 43.3 50.6
43(4) 0.0567 43.3 50.4
50(5) 0.0494 43.3 50.3
49(4) 0.0517 43.3 50.1
44(4) 0.0567 43.3 50.0
43(4) 0.0567 43.3 49.9
54(5) 0.0453 43.3 49.8
47(4) 0.0541 43.3 49.7
54(5) 0.0453 43.3 49.7
48(4) 0.0517 43.3 49.7
52(5) 0.0473 43.3 49.7
62(5) 0.0400 43.3 49.7
47(4) 0.0517 43.3 49.7
50(5) 0.0494 43.3 49.6
47(4) 0.0541 43.3 49.4
55(5) 0.0453 43.3 49.1
45(4) 0.0567 43.3 48.8
44(4) 0.0567 43.3 48.4
52(5) 0.0473 43.3 48.0
40(4) 0.0625 43.3 47.7
42(4) 0.0595 43.2 47.4
41(4) 0.0595 43.2 47.1
50(5) 0.0494 43.2 46.8
52(5) 0.0473 43.2 46.6
56(5) 0.0453 43.2 46.4
48(4) 0.0517 43.2 46.2
51(5) 0.0494 43.2 46.1
47(4) 0.0517 43.2 46.0
53(5) 0.0473 43.2 45.9
46(4) 0.0541 43.2 45.8
47(4) 0.0541 43.2 45.7
56(5) 0.0453 43.2 45.6
54(5) 0.0453 43.2 45.6
43(4) 0.0567 43.2 45.5
49(4) 0.0517 43.2 45.5
43(4) 0.0567 43.2 45.4
46(4) 0.0541 43.2 45.4
43(4) 0.0567 43.2 45.4
50(5) 0.0494 43.2 45.4
49(5) 0.0494 43.2 45.4
46(4) 0.0541 43.2 45.4
46(4) 0.0541 43.2 45.5
42(4) 0.0595 43.2 45.5
41(4) 0.0595 43.2 45.5
47(4) 0.0517 43.2 45.6
46(4) 0.0541 43.2 45.6
50(5) 0.0494 43.2 45.7
47(4) 0.0517 43.2 45.8
40(4) 0.0625 43.2 45.9
50(5) 0.0494 43.2 45.9
36(4) 0.0693 43.1 46.0
45(4) 0.0567 43.1 46.1
40(4) 0.0625 43.1 46.1
51(5) 0.0494 43.1 46.2
53(5) 0.0473 43.1 46.2
50(5) 0.0494 43.1 46.2
47(4) 0.0517 43.1 46.2
49(5) 0.0494 43.1 46.3
56(5) 0.0453 43.1 46.3
47(4) 0.0517 43.1 46.4
50(5) 0.0494 43.1 46.4
43(4) 0.0567 43.1 46.5
38(4) 0.0657 43.1 46.5
41(4) 0.0595 43.1 46.5
48(4) 0.0517 43.1 46.5
46(4) 0.0541 43.1 46.5
45(4) 0.0541 43.1 46.5
49(5) 0.0494 43.1 46.4
52(5) 0.0473 43.1 46.3
47(4) 0.0517 43.1 46.2
38(4) 0.0657 43.1 46.1
50(5) 0.0494 43.1 46.0
45(4) 0.0541 43.1 45.9
41(4) 0.0625 43.1 45.9
46(4) 0.0541 43.1 45.8
49(4) 0.0517 43.1 45.7
43(4) 0.0567 43.1 45.7
54(5) 0.0453 43.1 45.7
44(4) 0.0567 43.1 45.7
46(4) 0.0541 43.1 45.7
51(5) 0.0494 43.1 45.8
43(4) 0.0567 43.0 45.8
44(4) 0.0567 43.0 45.9
55(5) 0.0453 43.0 46.0
61(5) 0.0400 43.0 46.1
40(4) 0.0595 43.0 46.2
52(5) 0.0473 43.0 46.2
44(4) 0.0567 43.0 46.2
45(4) 0.0541 43.0 46.2
41(4) 0.0595 43.0 46.2
50(5) 0.0494 43.0 46.2
48(4) 0.0517 43.0 46.2
54(5) 0.0453 43.0 46.2
40(4) 0.0625 43.0 46.2
44(4) 0.0567 43.0 46.3
51(5) 0.0473 43.0 46.4
62(5) 0.0400 43.0 46.5
46(4) 0.0541 43.0 46.6
51(5) 0.0473 43.0 46.7
43(4) 0.0567 43.0 46.8
39(4) 0.0657 43.0 46.9
45(4) 0.0541 43.0 46.9
53(5) 0.0473 43.0 47.0
46(4) 0.0541 43.0 47.0
50(5) 0.0494 43.0 47.0
52(5) 0.0473 43.0 46.9
46(4) 0.0541 43.0 46.8
44(4) 0.0567 43.0 46.7
41(4) 0.0595 43.0 46.6
56(5) 0.0434 43.0 46.5
48(4) 0.0517 43.0 46.4
45(4) 0.0541 43.0 46.3
51(5) 0.0494 43.0 46.2
48(4) 0.0517 42.9 46.1
47(4) 0.0517 42.9 46.0
50(5) 0.0494 42.9 45.9
50(5) 0.0494 42.9 45.9
51(5) 0.0473 42.9 45.8
38(4) 0.0657 42.9 45.7
54(5) 0.0453 42.9 45.6
46(4) 0.0541 42.9 45.5
45(4) 0.0567 42.9 45.4
47(4) 0.0517 42.9 45.3
45(4) 0.0541 42.9 45.2
48(4) 0.0517 42.9 45.1
50(5) 0.0494 42.9 45.1
43(4) 0.0567 42.9 45.0
53(5) 0.0453 42.9 45.0
39(4) 0.0625 42.9 44.9
44(4) 0.0567 42.9 44.9
47(4) 0.0517 42.9 44.9
49(5) 0.0494 42.9 44.9
47(4) 0.0517 42.9 44.9
50(5) 0.0494 42.9 45.0
45(4) 0.0541 42.9 45.0
39(4) 0.0625 42.9 45.1
42(4) 0.0595 42.9 45.1
45(4) 0.0541 42.9 45.2
49(4) 0.0517 42.9 45.3
47(4) 0.0541 42.9 45.4
39(4) 0.0625 42.9 45.6
44(4) 0.0567 42.9 45.7
46(4) 0.0541 42.9 45.9
42(4) 0.0595 42.9 46.1
40(4) 0.0625 42.9 46.4
50(5) 0.0494 42.9 46.6
50(5) 0.0494 42.8 46.9
40(4) 0.0625 42.8 47.2
43(4) 0.0567 42.8 47.6
49(5) 0.0494 42.8 48.0
47(4) 0.0517 42.8 48.4
47(4) 0.0517 42.8 48.8
51(5) 0.0494 42.8 49.2
57(5) 0.0434 42.8 49.5
53(5) 0.0473 42.8 49.7
46(4) 0.0541 42.8 49.9
52(5) 0.0473 42.8 50.0
55(5) 0.0453 42.8 50.0
53(5) 0.0453 42.8 49.9
57(5) 0.0434 42.8 49.7
48(4) 0.0517 42.8 49.5
49(4) 0.0517 42.8 49.2
48(4) 0.0517 42.8 48.9
58(5) 0.0416 42.8 48.5
50(5) 0.0494 42.8 48.2
49(4) 0.0517 42.8 47.9
44(4) 0.0567 42.8 47.6
43(4) 0.0567 42.8 47.3
47(4) 0.0517 42.8 47.1
45(4) 0.0541 42.8 46.9
45(4) 0.0541 42.8 46.8
41(4) 0.0595 42.8 46.7
50(5) 0.0494 42.8 46.6
51(5) 0.0473 42.8 46.6
41(4) 0.0595 42.8 46.6
53(5) 0.0473 42.8 46.6
46(4) 0.0541 42.8 46.7
49(5) 0.0494 42.8 46.7
48(4) 0.0517 42.8 46.7
47(4) 0.0541 42.8 46.7
50(5) 0.0494 42.8 46.7
49(5) 0.0494 42.7 46.6
44(4) 0.0567 42.7 46.5
48(5) 0.0494 42.7 46.4
42(4) 0.0595 42.7 46.2
41(4) 0.0595 42.7 46.1
42(4) 0.0595 42.7 45.9
50(5) 0.0494 42.7 45.8
43(4) 0.0567 42.7 45.7
43(4) 0.0567 42.7 45.6
44(4) 0.0567 42.7 45.5
50(5) 0.0494 42.7 45.4
43(4) 0.0567 42.7 45.3
49(4) 0.0517 42.7 45.3
42(4) 0.0595 42.7 45.3
46(4) 0.0541 42.7 45.3
38(4) 0.0657 42.7 45.3
43(4) 0.0567 42.7 45.3
51(5) 0.0494 42.7 45.3
46(4) 0.0541 42.7 45.4
45(4) 0.0541 42.7 45.5
54(5) 0.0453 42.7 45.5
41(4) 0.0595 42.7 45.6
47(4) 0.0517 42.7 45.8
48(4) 0.0517 42.7 45.9
43(4) 0.0567 42.7 46.1
46(4) 0.0541 42.7 46.2
49(5) 0.0494 42.7 46.4
48(4) 0.0517 42.7 46.6
57(5) 0.0434 42.7 46.7
46(4) 0.0517 42.7 46.9
61(5) 0.0400 42.7 46.9
50(5) 0.0494 42.7 47.0
51(5) 0.0473 42.7 47.1
48(4) 0.0517 42.7 47.1
57(5) 0.0434 42.7 47.1
46(4) 0.0541 42.7 47.2
48(4) 0.0517 42.7 47.3
50(5) 0.0494 42.7 47.4
46(4) 0.0517 42.7 47.6
43(4) 0.0567 42.6 47.8
54(5) 0.0453 42.6 48.0
50(5) 0.0494 42.6 48.3
48(4) 0.0517 42.6 48.7
51(5) 0.0473 42.6 49.1
57(5) 0.0434 42.6 49.6
57(5) 0.0434 42.6 50.1
52(5) 0.0473 42.6 50.8
56(5) 0.0453 42.6 51.5
56(5) 0.0434 42.6 52.3
57(5) 0.0434 42.6 53.3
62(5) 0.0400 42.6 54.4
67(5) 0.0370 42.6 55.5
58(5) 0.0416 42.6 56.8
66(5) 0.0370 42.6 58.2
72(5) 0.03429 42.6 59.7
58(5) 0.0416 42.6 61.1
68(5) 0.0356 42.6 62.5
67(5) 0.0370 42.6 63.7
74(6) 0.03306 42.6 64.6
65(5) 0.0370 42.6 65.2
64(5) 0.0384 42.6 65.4
62(5) 0.0400 42.6 65.2
69(5) 0.0356 42.6 64.6
68(5) 0.0356 42.6 63.7
69(5) 0.0356 42.6 62.6
70(5) 0.03429 42.6 61.4
67(5) 0.0370 42.6 60.2
64(5) 0.0384 42.6 59.1
58(5) 0.0416 42.6 58.0
51(5) 0.0473 42.6 57.0
59(5) 0.0416 42.6 56.1
52(5) 0.0473 42.6 55.3
58(5) 0.0416 42.6 54.6
54(5) 0.0453 42.6 54.1
57(5) 0.0434 42.6 53.6
59(5) 0.0416 42.6 53.3
52(5) 0.0473 42.6 53.1
46(4) 0.0541 42.6 53.0
61(5) 0.0400 42.6 53.0
51(5) 0.0494 42.6 53.1
47(4) 0.0517 42.6 53.4
51(5) 0.0473 42.6 53.7
57(5) 0.0434 42.5 54.1
63(5) 0.0384 42.5 54.7
57(5) 0.0434 42.5 55.3
56(5) 0.0434 42.5 56.2
63(5) 0.0384 42.5 57.2
60(5) 0.0400 42.5 58.4
63(5) 0.0384 42.5 59.7
70(5) 0.03429 42.5 61.1
64(5) 0.0384 42.5 62.6
69(5) 0.0356 42.5 64.0
71(5) 0.03429 42.5 65.1
66(5) 0.0370 42.5 65.8
67(5) 0.0356 42.5 65.9
54(5) 0.0453 42.5 65.4
69(5) 0.0356 42.5 64.4
61(5) 0.0400 42.5 63.0
53(5) 0.0453 42.5 61.5
52(5) 0.0473 42.5 59.9
55(5) 0.0453 42.5 58.4
56(5) 0.0434 42.5 57.1
56(5) 0.0434 42.5 56.0
49(5) 0.0494 42.5 55.0
56(5) 0.0434 42.5 54.2
59(5) 0.0416 42.5 53.5
48(4) 0.0517 42.5 53.0
55(5) 0.0434 42.5 52.7
52(5) 0.0473 42.5 52.4
54(5) 0.0453 42.5 52.2
61(5) 0.0400 42.5 52.2
52(5) 0.0473 42.5 52.2
54(5) 0.0453 42.5 52.2
50(5) 0.0494 42.5 52.2
64(5) 0.0384 42.5 52.2
58(5) 0.0416 42.5 52.1
53(5) 0.0453 42.5 51.9
58(5) 0.0416 42.5 51.7
50(5) 0.0494 42.5 51.4
49(5) 0.0494 42.5 51.0
51(5) 0.0473 42.5 50.7
54(5) 0.0453 42.5 50.4
50(5) 0.0494 42.5 50.1
55(5) 0.0453 42.5 49.8
48(4) 0.0517 42.5 49.5
57(5) 0.0416 42.5 49.3
45(4) 0.0541 42.5 49.1
44(4) 0.0541 42.5 48.8
51(5) 0.0473 42.5 48.6
45(4) 0.0541 42.5 48.3
48(5) 0.0494 42.5 48.0
49(5) 0.0494 42.5 47.8
44(4) 0.0541 42.5 47.6
51(5) 0.0473 42.5 47.4
49(5) 0.0494 42.5 47.3
46(4) 0.0541 42.5 47.2
50(5) 0.0494 42.5 47.1
44(4) 0.0567 42.4 47.1
44(4) 0.0567 42.4 47.0
48(5) 0.0494 42.4 47.0
37(4) 0.0657 42.4 47.1
44(4) 0.0567 42.4 47.1
44(4) 0.0567 42.4 47.1
52(5) 0.0473 42.4 47.1
57(5) 0.0434 42.4 47.1
44(4) 0.0567 42.4 47.1
51(5) 0.0473 42.4 47.1
52(5) 0.0473 42.4 47.1
45(4) 0.0541 42.4 47.1
46(4) 0.0541 42.4 47.0
44(4) 0.0541 42.4 47.0
46(4) 0.0517 42.4 47.0
55(5) 0.0434 42.4 47.1
50(5) 0.0494 42.4 47.1
47(4) 0.0517 42.4 47.2
51(5) 0.0473 42.4 47.4
57(5) 0.0434 42.4 47.5
48(5) 0.0494 42.4 47.7
48(4) 0.0517 42.4 47.9
46(4) 0.0517 42.4 48.2
50(5) 0.0494 42.4 48.4
41(4) 0.0595 42.4 48.7
60(5) 0.0416 42.4 49.0
49(5) 0.0494 42.4 49.3
55(5) 0.0434 42.4 49.7
53(5) 0.0453 42.4 50.1
50(5) 0.0494 42.4 50.6
52(5) 0.0473 42.4 51.2
49(5) 0.0494 42.4 51.8
57(5) 0.0416 42.4 52.5
62(5) 0.0384 42.4 53.1
52(5) 0.0473 42.4 53.6
60(5) 0.0400 42.4 54.0
49(5) 0.0494 42.4 54.2
51(5) 0.0473 42.4 54.2
52(5) 0.0473 42.4 54.0
53(5) 0.0453 42.4 53.7
49(5) 0.0494 42.4 53.4
47(4) 0.0517 42.4 53.1
57(5) 0.0434 42.4 52.8
54(5) 0.0453 42.4 52.7
53(5) 0.0453 42.4 52.7
51(5) 0.0494 42.4 52.8
56(5) 0.0434 42.4 53.2
50(5) 0.0494 42.4 53.7
54(5) 0.0453 42.4 54.4
59(5) 0.0416 42.4 55.3
68(5) 0.0356 42.4 56.4
59(5) 0.0416 42.4 57.7
55(5) 0.0434 42.4 59.0
61(5) 0.0400 42.4 60.3
63(5) 0.0384 42.4 61.3
58(5) 0.0416 42.4 61.9
70(5) 0.03429 42.4 61.9
46(4) 0.0517 42.4 61.3
49(5) 0.0494 42.4 60.3
51(5) 0.0473 42.4 59.1
54(5) 0.0453 42.4 57.8
57(5) 0.0434 42.4 56.5
48(5) 0.0494 42.4 55.4
52(5) 0.0473 42.4 54.5
52(5) 0.0473 42.4 53.8
62(5) 0.0400 42.4 53.2
44(4) 0.0567 42.4 52.7
55(5) 0.0453 42.4 52.4
51(5) 0.0473 42.4 52.1
44(4) 0.0541 42.4 51.9
52(5) 0.0473 42.4 51.6
52(5) 0.0473 42.4 51.4
54(5) 0.0453 42.4 51.0
55(5) 0.0434 42.4 50.6
51(5) 0.0473 42.4 50.2
45(4) 0.0541 42.4 49.8
50(5) 0.0473 42.4 49.3
45(4) 0.0541 42.4 48.8
55(5) 0.0453 42.4 48.3
47(4) 0.0517 42.4 47.9
43(4) 0.0567 42.4 47.4
47(4) 0.0517 42.4 47.1
52(5) 0.0473 42.4 46.7
52(5) 0.0453 42.4 46.4
48(4) 0.0517 42.4 46.1
47(4) 0.0517 42.4 45.9
42(4) 0.0567 42.4 45.6
41(4) 0.0595 42.4 45.4
46(4) 0.0517 42.4 45.2
47(4) 0.0517 42.4 45.1
38(4) 0.0625 42.4 44.9
48(5) 0.0494 42.4 44.8
47(4) 0.0517 42.4 44.7
37(4) 0.0657 42.4 44.5
42(4) 0.0595 42.4 44.4
40(4) 0.0595 42.4 44.3
44(4) 0.0541 42.4 44.3
41(4) 0.0595 42.4 44.2
42(4) 0.0567 42.4 44.1
38(4) 0.0657 42.4 44.0
46(4) 0.0517 42.4 44.0
47(4) 0.0517 42.4 43.9
47(4) 0.0517 42.4 43.9
43(4) 0.0567 42.4 43.8
40(4) 0.0595 42.4 43.8
48(4) 0.0517 42.4 43.7
37(4) 0.0657 42.4 43.7
47(4) 0.0517 42.4 43.7
40(4) 0.0625 42.4 43.6
40(4) 0.0595 42.4 43.6
47(4) 0.0517 42.4 43.6
49(5) 0.0494 42.4 43.6
43(4) 0.0567 42.4 43.5
46(4) 0.0541 42.4 43.5
46(4) 0.0541 42.4 43.5
43(4) 0.0567 42.4 43.5
36(4) 0.0657 42.4 43.5
45(4) 0.0541 42.4 43.4
46(4) 0.0541 42.4 43.4
43(4) 0.0567 42.4 43.4
43(4) 0.0567 42.4 43.4
47(4) 0.0517 42.4 43.4
45(4) 0.0541 42.4 43.4
48(4) 0.0517 42.4 43.4
49(5) 0.0494 42.4 43.4
44(4) 0.0541 42.4 43.4
40(4) 0.0595 42.4 43.4
45(4) 0.0541 42.4 43.4
39(4) 0.0625 42.4 43.4
43(4) 0.0567 42.4 43.4
52(5) 0.0473 42.4 43.4
49(5) 0.0494 42.4 43.4
38(4) 0.0625 42.4 43.4
49(5) 0.0494 42.4 43.4
50(5) 0.0494 42.4 43.4
41(4) 0.0595 42.4 43.4
41(4) 0.0595 42.4 43.4
58(5) 0.0416 42.4 43.4
44(4) 0.0541 42.4 43.5
48(5) 0.0494 42.4 43.5
38(4) 0.0657 42.4 43.5
49(5) 0.0494 42.4 43.5
49(5) 0.0494 42.4 43.5
44(4) 0.0541 42.4 43.6
41(4) 0.0595 42.4 43.6
47(4) 0.0517 42.4 43.7
48(5) 0.0494 42.4 43.7
47(4) 0.0517 42.4 43.7
43(4) 0.0567 42.4 43.8
49(5) 0.0494 42.4 43.9
38(4) 0.0625 42.4 43.9
40(4) 0.0595 42.4 44.0
43(4) 0.0567 42.4 44.1
50(5) 0.0494 42.4 44.2
44(4) 0.0541 42.4 44.3
52(5) 0.0453 42.4 44.4
46(4) 0.0517 42.4 44.6
48(5) 0.0494 42.4 44.7
42(4) 0.0567 42.4 44.9
47(4) 0.0517 42.4 45.0
48(5) 0.0494 42.4 45.2
42(4) 0.0567 42.4 45.3
43(4) 0.0541 42.4 45.5
39(4) 0.0625 42.4 45.6
54(5) 0.0453 42.4 45.7
42(4) 0.0567 42.4 45.8
44(4) 0.0541 42.4 45.8
45(4) 0.0541 42.4 45.8
48(4) 0.0517 42.4 45.9
42(4) 0.0567 42.4 45.9
49(5) 0.0494 42.4 45.9
48(5) 0.0494 42.4 45.9
52(5) 0.0473 42.4 45.9
44(4) 0.0541 42.4 46.0
47(4) 0.0517 42.4 46.0
47(4) 0.0517 42.4 46.1
48(5) 0.0494 42.4 46.1
51(5) 0.0473 42.4 46.2
44(4) 0.0541 42.4 46.3
48(4) 0.0517 42.4 46.5
39(4) 0.0625 42.4 46.7
59(5) 0.0416 42.4 46.9
49(5) 0.0494 42.4 47.2
47(4) 0.0517 42.4 47.6
57(5) 0.0416 42.4 47.9
51(5) 0.0473 42.4 48.4
48(5) 0.0494 42.4 48.9
47(4) 0.0517 42.4 49.4
52(5) 0.0473 42.4 50.0
59(5) 0.0416 42.4 50.7
58(5) 0.0416 42.4 51.4
50(5) 0.0473 42.4 52.1
56(5) 0.0434 42.4 52.9
52(5) 0.0473 42.4 53.5
59(5) 0.0416 42.4 54.2
51(5) 0.0473 42.4 54.6
61(5) 0.0400 42.4 54.9
55(5) 0.0434 42.4 55.0
71(5) 0.03429 42.4 54.9
69(5) 0.0356 42.4 54.6
60(5) 0.0400 42.4 54.1
59(5) 0.0400 42.4 53.5
60(5) 0.0400 42.4 52.8
48(5) 0.0494 42.4 52.1
45(4) 0.0541 42.4 51.4
51(5) 0.0473 42.4 50.7
51(5) 0.0473 42.4 50.0
46(4) 0.0517 42.4 49.4
54(5) 0.0453 42.4 48.8
49(5) 0.0494 42.4 48.3
40(4) 0.0595 42.4 47.9
55(5) 0.0434 42.4 47.5
43(4) 0.0567 42.4 47.1
53(5) 0.0453 42.4 46.8
43(4) 0.0567 42.4 46.5
45(4) 0.0541 42.4 46.3
51(5) 0.0473 42.4 46.1
46(4) 0.0517 42.4 45.9
39(4) 0.0595 42.4 45.8
47(4) 0.0517 42.4 45.6
45(4) 0.0517 42.4 45.5
48(5) 0.0494 42.4 45.4
40(4) 0.0595 42.4 45.3
44(4) 0.0541 42.4 45.2
52(5) 0.0473 42.4 45.2
37(4) 0.0657 42.4 45.1
47(4) 0.0517 42.4 45.1
48(5) 0.0494 42.4 45.1
37(4) 0.0657 42.4 45.0
44(4) 0.0541 42.4 45.0
59(5) 0.0416 42.4 45.0
51(5) 0.0473 42.4 45.0
44(4) 0.0541 42.4 45.1
40(4) 0.0595 42.4 45.1
48(5) 0.0494 42.4 45.2
45(4) 0.0541 42.4 45.3
41(4) 0.0595 42.4 45.4
51(5) 0.0473 42.4 45.5
50(5) 0.0473 42.4 45.6
41(4) 0.0595 42.4 45.8
52(5) 0.0453 42.4 46.0
56(5) 0.0434 42.4 46.2
46(4) 0.0517 42.4 46.4
46(4) 0.0517 42.4 46.7
52(5) 0.0453 42.4 46.9
45(4) 0.0517 42.4 47.1
46(4) 0.0517 42.4 47.3
49(5) 0.0494 42.5 47.4
56(5) 0.0434 42.5 47.5
45(4) 0.0517 42.5 47.6
49(5) 0.0494 42.5 47.6
47(4) 0.0517 42.5 47.6
47(4) 0.0517 42.5 47.6
47(4) 0.0517 42.5 47.6
47(5) 0.0494 42.5 47.6
48(5) 0.0494 42.5 47.7
48(5) 0.0494 42.5 47.7
55(5) 0.0434 42.5 47.8
51(5) 0.0473 42.5 47.8
49(5) 0.0494 42.5 47.9
44(4) 0.0541 42.5 48.0
47(4) 0.0517 42.5 48.1
51(5) 0.0473 42.5 48.1
48(5) 0.0494 42.5 48.2
43(4) 0.0567 42.5 48.3
46(4) 0.0517 42.5 48.4
55(5) 0.0434 42.5 48.4
41(4) 0.0595 42.5 48.5
51(5) 0.0473 42.5 48.5
48(5) 0.0494 42.5 48.4
56(5) 0.0434 42.5 48.3
42(4) 0.0567 42.5 48.2
42(4) 0.0567 42.5 48.1
48(5) 0.0494 42.5 48.1
43(4) 0.0567 42.5 48.0
41(4) 0.0595 42.5 47.9
53(5) 0.0453 42.5 47.9
47(4) 0.0517 42.5 48.0
50(5) 0.0473 42.5 48.1
56(5) 0.0434 42.5 48.2
49(5) 0.0494 42.5 48.4
39(4) 0.0625 42.5 48.6
55(5) 0.0434 42.5 48.9
55(5) 0.0434 42.5 49.2
55(5) 0.0434 42.5 49.5
52(5) 0.0453 42.5 49.9
54(5) 0.0434 42.5 50.2
60(5) 0.0400 42.5 50.5
46(4) 0.0517 42.5 50.8
44(4) 0.0567 42.5 50.9
58(5) 0.0416 42.5 51.0
55(5) 0.0434 42.5 51.0
54(5) 0.0434 42.5 50.9
46(4) 0.0517 42.5 50.7
52(5) 0.0453 42.5 50.5
46(4) 0.0517 42.5 50.2
46(4) 0.0517 42.5 49.9
48(5) 0.0494 42.5 49.6
49(5) 0.0494 42.5 49.2
54(5) 0.0453 42.5 48.9
57(5) 0.0416 42.5 48.5
43(4) 0.0567 42.6 48.1
50(5) 0.0473 42.6 47.8
45(4) 0.0517 42.6 47.4
46(4) 0.0517 42.6 47.1
44(4) 0.0541 42.6 46.9
45(4) 0.0541 42.6 46.6
49(5) 0.0494 42.6 46.4
48(5) 0.0494 42.6 46.3
46(4) 0.0517 42.6 46.1
43(4) 0.0567 42.6 46.0
46(4) 0.0517 42.6 45.9
42(4) 0.0567 42.6 45.8
48(5) 0.0494 42.6 45.7
39(4) 0.0625 42.6 45.7
50(5) 0.0473 42.6 45.6
49(5) 0.0494 42.6 45.6
42(4) 0.0567 42.6 45.6
49(5) 0.0494 42.6 45.6
52(5) 0.0473 42.6 45.6
44(4) 0.0541 42.6 45.6
50(5) 0.0494 42.6 45.6
55(5) 0.0434 42.6 45.6
47(4) 0.0517 42.6 45.7
50(5) 0.0473 42.6 45.7
40(4) 0.0595 42.6 45.8
39(4) 0.0625 42.6 45.9
47(4) 0.0517 42.6 46.0
46(4) 0.0517 42.6 46.1
45(4) 0.0541 42.6 46.3
44(4) 0.0541 42.6 46.4
43(4) 0.0541 42.6 46.6
53(5) 0.0453 42.6 46.8
48(5) 0.0494 42.6 46.9
47(4) 0.0517 42.6 47.1
43(4) 0.0567 42.6 47.3
54(5) 0.0453 42.6 47.4
50(5) 0.0473 42.6 47.6
46(4) 0.0517 42.6 47.8
52(5) 0.0473 42.6 48.0
51(5) 0.0473 42.6 48.2
44(4) 0.0541 42.6 48.4
53(5) 0.0453 42.6 48.7
47(4) 0.0517 42.6 49.0
40(4) 0.0595 42.6 49.3
51(5) 0.0473 42.6 49.7
47(5) 0.0494 42.7 50.2
55(5) 0.0434 42.7 50.8
48(5) 0.0494 42.7 51.4
63(5) 0.0384 42.7 52.2
58(5) 0.0416 42.7 53.1
64(5) 0.0370 42.7 54.2
58(5) 0.0416 42.7 55.3
54(5) 0.0453 42.7 56.6
62(5) 0.0384 42.7 58.0
64(5) 0.0370 42.7 59.5
73(6) 0.03306 42.7 60.9
70(5) 0.03429 42.7 62.1
66(5) 0.0370 42.7 63.0
65(5) 0.0370 42.7 63.5
52(5) 0.0473 42.7 63.5
60(5) 0.0400 42.7 63.1
57(5) 0.0416 42.7 62.3
59(5) 0.0400 42.7 61.2
64(5) 0.0370 42.7 59.9
56(5) 0.0434 42.7 58.7
55(5) 0.0434 42.7 57.5
52(5) 0.0453 42.7 56.5
56(5) 0.0416 42.7 55.6
54(5) 0.0434 42.7 54.8
49(5) 0.0494 42.7 54.2
52(5) 0.0453 42.7 53.8
43(4) 0.0541 42.7 53.4
58(5) 0.0400 42.7 53.2
53(5) 0.0453 42.7 53.2
52(5) 0.0453 42.7 53.2
56(5) 0.0416 42.7 53.3
58(5) 0.0416 42.7 53.6
64(5) 0.0370 42.7 53.9
47(5) 0.0494 42.7 54.3
53(5) 0.0453 42.7 54.8
51(5) 0.0473 42.7 55.5
51(5) 0.0453 42.7 56.2
66(5) 0.0356 42.7 57.0
62(5) 0.0384 42.7 57.9
67(5) 0.0356 42.7 58.9
64(5) 0.0370 42.7 59.8
60(5) 0.0400 42.7 60.7
59(5) 0.0400 42.8 61.4
68(5) 0.03429 42.8 62.0
67(5) 0.0356 42.8 62.3
61(5) 0.0384 42.8 62.5
69(5) 0.03429 42.8 62.6
64(5) 0.0370 42.8 62.6
62(5) 0.0384 42.8 62.5
58(5) 0.0416 42.8 62.3
60(5) 0.0400 42.8 62.1
60(5) 0.0400 42.8 61.8
59(5) 0.0400 42.8 61.4
56(5) 0.0434 42.8 60.9
59(5) 0.0400 42.8 60.2
54(5) 0.0434 42.8 59.4
57(5) 0.0416 42.8 58.6
62(5) 0.0384 42.8 57.7
53(5) 0.0453 42.8 56.8
53(5) 0.0453 42.8 55.9
54(5) 0.0434 42.8 55.0
58(5) 0.0416 42.8 54.2
48(5) 0.0494 42.8 53.6
62(5) 0.0384 42.8 52.9
38(4) 0.0625 42.8 52.4
55(5) 0.0434 42.8 52.0
55(5) 0.0434 42.8 51.6
47(4) 0.0517 42.8 51.4
51(5) 0.0453 42.8 51.2
55(5) 0.0434 42.8 51.0
50(5) 0.0473 42.8 50.9
48(5) 0.0494 42.8 50.7
55(5) 0.0434 42.8 50.6
47(4) 0.0517 42.8 50.3
47(5) 0.0494 42.8 50.0
46(4) 0.0517 42.8 49.7
53(5) 0.0453 42.8 49.3
50(5) 0.0473 42.8 48.9
52(5) 0.0453 42.8 48.5
53(5) 0.0453 42.8 48.1
47(4) 0.0517 42.8 47.7
45(4) 0.0517 42.8 47.4
49(5) 0.0473 42.8 47.1
47(5) 0.0494 42.8 46.8
47(5) 0.0494 42.8 46.6
50(5) 0.0473 42.8 46.3
43(4) 0.0541 42.8 46.2
44(4) 0.0541 42.8 46.0
45(4) 0.0517 42.9 45.8
48(5) 0.0494 42.9 45.7
44(4) 0.0541 42.9 45.6
50(5) 0.0473 42.9 45.5
45(4) 0.0517 42.9 45.4
48(5) 0.0494 42.9 45.3
41(4) 0.0567 42.9 45.3
39(4) 0.0595 42.9 45.2
47(4) 0.0517 42.9 45.1
42(4) 0.0567 42.9 45.1
46(4) 0.0517 42.9 45.1
48(5) 0.0494 42.9 45.0
42(4) 0.0567 42.9 45.0
37(4) 0.0657 42.9 45.0
55(5) 0.0434 42.9 44.9
42(4) 0.0567 42.9 44.9
48(5) 0.0494 42.9 44.9
45(4) 0.0517 42.9 44.9
47(5) 0.0494 42.9 44.9
46(4) 0.0517 42.9 44.9
45(4) 0.0541 42.9 44.9
49(5) 0.0494 42.9 44.9
52(5) 0.0453 42.9 44.9
44(4) 0.0541 42.9 44.9
38(4) 0.0625 42.9 44.9
48(5) 0.0494 42.9 45.0
44(4) 0.0541 42.9 45.0
45(4) 0.0517 42.9 45.1
46(4) 0.0517 42.9 45.1
56(5) 0.0416 42.9 45.2
41(4) 0.0567 42.9 45.3
53(5) 0.0434 42.9 45.3
46(4) 0.0517 42.9 45.4
49(5) 0.0473 42.9 45.5
51(5) 0.0473 42.9 45.6
40(4) 0.0595 42.9 45.7
44(4) 0.0541 42.9 45.8
56(5) 0.0434 42.9 45.9
49(5) 0.0473 42.9 46.0
44(4) 0.0541 42.9 46.1
47(4) 0.0517 42.9 46.2
42(4) 0.0567 42.9 46.3
49(5) 0.0494 42.9 46.4
44(4) 0.0541 42.9 46.5
51(5) 0.0453 42.9 46.5
41(4) 0.0567 42.9 46.6
51(5) 0.0453 42.9 46.6
49(5) 0.0473 42.9 46.7
44(4) 0.0541 42.9 46.8
45(4) 0.0517 42.9 46.9
55(5) 0.0434 42.9 47.0
56(5) 0.0416 42.9 47.2
53(5) 0.0434 42.9 47.4
47(4) 0.0517 42.9 47.7
56(5) 0.0416 42.9 48.0
45(4) 0.0517 42.9 48.4
55(5) 0.0434 42.9 48.8
49(5) 0.0473 42.9 49.3
50(5) 0.0473 42.9 49.9
50(5) 0.0473 42.9 50.3
50(5) 0.0473 42.9 50.7
52(5) 0.0453 42.9 51.0
43(4) 0.0541 42.9 51.1
56(5) 0.0416 42.9 51.0
58(5) 0.0416 42.9 50.8
47(4) 0.0517 42.9 50.5
63(5) 0.0384 42.9 50.3
49(5) 0.0494 42.9 50.0
46(4) 0.0541 42.9 49.9
56(5) 0.0453 42.9 49.8
44(4) 0.0567 42.9 49.8
52(5) 0.0473 42.9 49.9
53(5) 0.0473 42.9 50.0
48(4) 0.0517 42.9 50.1
53(5) 0.0473 42.9 50.2
55(5) 0.0453 42.9 50.3
51(5) 0.0494 42.9 50.3
57(5) 0.0434 42.9 50.1
49(5) 0.0494 42.9 49.9
53(5) 0.0473 42.9 49.7
50(5) 0.0494 42.9 49.4
50(5) 0.0494 42.9 49.1
43(4) 0.0567 42.9 48.8
39(4) 0.0625 42.9 48.5
50(5) 0.0494 42.9 48.3
50(5) 0.0494 42.9 48.2
43(4) 0.0567 42.9 48.1
40(4) 0.0595 42.9 48.0
49(5) 0.0494 42.9 48.1
43(4) 0.0567 42.9 48.1
55(5) 0.0453 42.9 48.2
47(4) 0.0517 42.9 48.4
51(5) 0.0494 42.9 48.6
51(5) 0.0494 42.9 48.8
46(4) 0.0541 42.9 49.0
49(4) 0.0517 42.9 49.2
49(5) 0.0494 42.9 49.4
54(5) 0.0453 42.9 49.5
32(4) 0.0772 42.9 49.6
50(5) 0.0494 42.9 49.6
53(5) 0.0453 42.9 49.5
49(4) 0.0517 42.9 49.4
51(5) 0.0473 42.9 49.2
46(4) 0.0541 42.9 49.1
47(4) 0.0517 42.9 49.0
52(5) 0.0473 42.9 49.0
45(4) 0.0541 42.9 49.0
44(4) 0.0567 42.9 49.0
51(5) 0.0494 42.9 49.1
52(5) 0.0494 42.9 49.3
52(5) 0.0473 42.9 49.5
47(4) 0.0517 42.9 49.8
50(5) 0.0494 42.9 50.2
58(5) 0.0416 42.9 50.6
45(4) 0.0567 42.9 51.1
49(4) 0.0517 42.9 51.7
51(5) 0.0494 42.9 52.5
52(5) 0.0473 42.9 53.3
62(5) 0.0400 42.9 54.2
62(5) 0.0400 42.9 55.2
62(5) 0.0400 42.9 56.3
65(5) 0.0384 42.9 57.4
59(5) 0.0416 42.9 58.5
64(5) 0.0384 42.9 59.5
63(5) 0.0384 42.9 60.3
56(5) 0.0434 42.9 60.8
52(5) 0.0473 42.9 61.0
59(5) 0.0416 42.9 60.9
52(5) 0.0473 42.9 60.5
56(5) 0.0434 42.9 59.9
61(5) 0.0400 42.9 59.1
54(5) 0.0453 42.9 58.3
54(5) 0.0453 42.9 57.3
61(5) 0.0400 42.9 56.4
48(5) 0.0494 42.9 55.5
61(5) 0.0400 42.9 54.7
46(4) 0.0541 42.9 53.9
64(5) 0.0384 42.9 53.2
55(5) 0.0434 42.9 52.6
54(5) 0.0453 42.9 52.0
51(5) 0.0473 42.9 51.5
47(4) 0.0517 42.9 51.0
44(4) 0.0567 42.9 50.6
48(4) 0.0517 42.9 50.1
42(4) 0.0567 42.9 49.7
56(5) 0.0434 42.9 49.4
51(5) 0.0473 42.9 49.0
50(5) 0.0494 42.9 48.7
51(5) 0.0473 42.9 48.4
42(4) 0.0595 42.9 48.2
53(5) 0.0473 42.9 47.9
54(5) 0.0453 42.8 47.8
47(4) 0.0517 42.8 47.6
48(4) 0.0517 42.8 47.5
52(5) 0.0473 42.8 47.4
42(4) 0.0567 42.8 47.3
47(4) 0.0517 42.8 47.2
43(4) 0.0567 42.8 47.2
43(4) 0.0567 42.8 47.2
46(4) 0.0517 42.8 47.2
49(5) 0.0494 42.8 47.2
45(4) 0.0541 42.8 47.2
48(4) 0.0517 42.8 47.3
46(4) 0.0517 42.8 47.3
43(4) 0.0567 42.8 47.3
45(4) 0.0541 42.8 47.3
53(5) 0.0453 42.8 47.4
52(5) 0.0473 42.8 47.4
50(5) 0.0494 42.8 47.4
47(4) 0.0517 42.8 47.3
53(5) 0.0473 42.8 47.3
43(4) 0.0567 42.8 47.3
43(4) 0.0567 42.8 47.2
42(4) 0.0567 42.8 47.2
44(4) 0.0541 42.8 47.1
45(4) 0.0541 42.7 47.1
50(5) 0.0494 42.7 47.0
52(5) 0.0473 42.7 47.0
48(5) 0.0494 42.7 47.0
44(4) 0.0541 42.7 47.0
46(4) 0.0541 42.7 47.1
43(4) 0.0567 42.7 47.1
49(5) 0.0494 42.7 47.2
38(4) 0.0625 42.7 47.3
43(4) 0.0567 42.7 47.5
45(4) 0.0541 42.7 47.6
47(4) 0.0517 42.7 47.7
50(5) 0.0494 42.7 47.9
55(5) 0.0453 42.7 48.0
48(4) 0.0517 42.7 48.1
44(4) 0.0541 42.7 48.1
46(4) 0.0517 42.7 48.2
47(4) 0.0517 42.6 48.2
47(4) 0.0517 42.6 48.2
47(4) 0.0517 42.6 48.2
44(4) 0.0541 42.6 48.2
50(5) 0.0494 42.6 48.2
58(5) 0.0416 42.6 48.2
55(5) 0.0434 42.6 48.3
50(5) 0.0473 42.6 48.4
46(4) 0.0517 42.6 48.5
43(4) 0.0567 42.6 48.6
53(5) 0.0453 42.6 48.8
56(5) 0.0434 42.6 49.0
56(5) 0.0434 42.6 49.2
47(4) 0.0517 42.6 49.5
52(5) 0.0473 42.5 49.8
42(4) 0.0595 42.5 50.2
47(4) 0.0517 42.5 50.6
46(4) 0.0517 42.5 51.1
44(4) 0.0567 42.5 51.6
54(5) 0.0453 42.5 52.2
50(5) 0.0494 42.5 52.9
49(5) 0.0494 42.5 53.6
59(5) 0.0416 42.5 54.4
61(5) 0.0400 42.5 55.2
54(5) 0.0453 42.5 56.1
63(5) 0.0384 42.5 57.0
64(5) 0.0384 42.4 58.0
57(5) 0.0434 42.4 58.9
61(5) 0.0400 42.4 59.9
61(5) 0.0400 42.4 60.8
70(5) 0.03429 42.4 61.6
71(5) 0.03429 42.4 62.3
77(6) 0.03189 42.4 62.9
67(5) 0.0356 42.4 63.4
65(5) 0.0370 42.4 63.7
65(5) 0.0370 42.4 64.0
68(5) 0.0356 42.4 64.3
56(5) 0.0434 42.3 64.5
68(5) 0.0356 42.3 64.9
66(5) 0.0370 42.3 65.3
66(5) 0.0370 42.3 65.9
66(5) 0.0370 42.3 66.8
69(5) 0.0356 42.3 68.0
72(6) 0.03306 42.3 69.4
71(5) 0.03429 42.3 71.3
58(5) 0.0416 42.3 73.3
71(5) 0.03429 42.2 75.6
70(5) 0.03429 42.2 77.9
85(6) 0.02873 42.2 79.8
74(6) 0.03306 42.2 81.0
84(6) 0.02873 42.2 81.2
62(5) 0.0400 42.2 80.3
70(5) 0.03429 42.2 78.4
68(5) 0.0356 42.2 75.8
58(5) 0.0416 42.2 72.7
65(5) 0.0370 42.1 69.7
57(5) 0.0434 42.1 66.7
63(5) 0.0384 42.1 64.0
58(5) 0.0416 42.1 61.7
54(5) 0.0453 42.1 59.6
54(5) 0.0453 42.1 57.9
53(5) 0.0453 42.1 56.4
53(5) 0.0453 42.1 55.1
58(5) 0.0416 42.0 54.1
55(5) 0.0434 42.0 53.2
45(4) 0.0541 42.0 52.4
43(4) 0.0567 42.0 51.8
50(5) 0.0494 42.0 51.3
54(5) 0.0453 42.0 50.9
63(5) 0.0384 42.0 50.5
52(5) 0.0473 41.9 50.1
51(5) 0.0473 41.9 49.8
59(5) 0.0416 41.9 49.6
51(5) 0.0473 41.9 49.3
50(5) 0.0494 41.9 49.2
51(5) 0.0473 41.9 49.0
43(4) 0.0567 41.9 49.0
60(5) 0.0416 41.8 48.9
45(4) 0.0541 41.8 48.9
59(5) 0.0416 41.8 49.0
48(5) 0.0494 41.8 49.0
52(5) 0.0473 41.8 49.1
45(4) 0.0541 41.8 49.2
48(5) 0.0494 41.7 49.2
45(4) 0.0541 41.7 49.1
49(5) 0.0494 41.7 49.0
48(5) 0.0494 41.7 48.8
46(4) 0.0517 41.7 48.6
44(4) 0.0567 41.7 48.3
42(4) 0.0567 41.6 47.9
54(5) 0.0453 41.6 47.6
48(5) 0.0494 41.6 47.2
48(5) 0.0494 41.6 46.8
45(4) 0.0541 41.6 46.5
45(4) 0.0541 41.6 46.2
47(4) 0.0517 41.5 45.8
46(4) 0.0517 41.5 45.6
46(4) 0.0541 41.5 45.3
43(4) 0.0567 41.5 45.1
42(4) 0.0567 41.5 44.8
50(5) 0.0494 41.5 44.6
42(4) 0.0567 41.4 44.5
47(4) 0.0517 41.4 44.3
46(4) 0.0541 41.4 44.1
47(4) 0.0517 41.4 44.0
44(4) 0.0541 41.4 43.9
48(5) 0.0494 41.3 43.8
51(5) 0.0473 41.3 43.7
41(4) 0.0595 41.3 43.6
44(4) 0.0541 41.3 43.5
43(4) 0.0567 41.3 43.4
41(4) 0.0595 41.2 43.4
42(4) 0.0567 41.2 43.3
44(4) 0.0541 41.2 43.3
42(4) 0.0567 41.2 43.2
42(4) 0.0567 41.2 43.2
54(5) 0.0453 41.1 43.2
52(5) 0.0453 41.1 43.2
45(4) 0.0541 41.1 43.2
43(4) 0.0567 41.1 43.2
43(4) 0.0567 41.0 43.2
51(5) 0.0473 41.0 43.2
44(4) 0.0541 41.0 43.2
40(4) 0.0625 41.0 43.2
45(4) 0.0541 41.0 43.2
42(4) 0.0567 40.9 43.2
39(4) 0.0625 40.9 43.2
44(4) 0.0541 40.9 43.3
45(4) 0.0541 40.9 43.2
48(5) 0.0494 40.8 43.2
40(4) 0.0595 40.8 43.2
40(4) 0.0595 40.8 43.2
41(4) 0.0595 40.8 43.1
50(5) 0.0494 40.7 43.1
43(4) 0.0567 40.7 43.1
45(4) 0.0541 40.7 43.0
45(4) 0.0541 40.7 43.0
47(4) 0.0517 40.6 42.9
53(5) 0.0453 40.6 42.9
45(4) 0.0541 40.6 42.8
41(4) 0.0595 40.6 42.8
47(4) 0.0517 40.5 42.7
47(4) 0.0517 40.5 42.6
44(4) 0.0541 40.5 42.5
41(4) 0.0595 40.5 42.4
47(4) 0.0517 40.4 42.3
51(5) 0.0473 40.4 42.2
47(4) 0.0517 40.4 42.1
47(4) 0.0517 40.4 42.0
44(4) 0.0567 40.3 41.9
48(4) 0.0517 40.3 41.8
51(5) 0.0473 40.3 41.7
48(4) 0.0517 40.2 41.6
43(4) 0.0567 40.2 41.5
51(5) 0.0473 40.2 41.5
52(5) 0.0473 40.2 41.4
48(5) 0.0494 40.1 41.3
42(4) 0.0595 40.1 41.3
48(5) . . .
46(4) . . .
44(4) . . .
46(4) . . .
47(4) . . .
40(4) . . .
42(4) . . .
43(4) . . .
41(4) . . .
47(4) . . .
45(4) . . .
47(4) . . .
43(4) . . .
44(4) . . .
49(5) . . .
44(4) . . .
40(4) . . .
46(4) . . .
54(5) . . .
39(4) . . .
50(5) . . .
43(4) . . .
49(5) . . .
48(5) . . .
45(4) . . .
41(4) . . .
43(4) . . .
42(4) . . .
50(5) . . .
41(4) . . .
41(4) . . .
41(4) . . .
51(5) . . .
45(4) . . .
42(4) . . .
44(4) . . .
47(4) . . .
51(5) . . .
50(5) . . .
41(4) . . .
49(5) . . .
50(5) . . .
48(4) . . .
46(4) . . .
36(4) . . .
44(4) . . .
42(4) . . .
46(4) . . .
46(4) . . .
47(4) . . .
51(5) . . .
37(4) . . .
44(4) . . .
46(4) . . .
45(4) . . .
42(4) . . .
41(4) . . .
42(4) . . .
37(4) . . .
39(4) . . .
35(4) . . .
39(4) . . .
42(4) . . .
43(4) . . .
45(4) . . .
46(4) . . .
38(4) . . .
48(5) . . .
49(5) . . .
42(4) . . .
43(4) . . .
47(4) . . .
44(4) . . .
45(4) . . .
44(4) . . .
44(4) . . .
44(4) . . .
42(4) . . .
54(5) . . .
40(4) . . .
50(5) . . .
53(5) . . .
57(5) . . .
54(5) . . .
53(5) . . .
54(5) . . .
55(5) . . .
44(4) . . .
57(5) . . .
53(5) . . .
50(5) . . .
53(5) . . .
51(5) . . .
54(5) . . .
45(4) . . .
54(5) . . .
45(4) . . .
43(4) . . .
54(5) . . .
51(5) . . .
46(4) . . .
48(5) . . .
39(4) . . .
44(4) . . .
49(5) . . .
46(4) . . .
55(5) . . .
45(4) . . .
42(4) . . .
55(5) . . .
46(4) . . .
47(4) . . .
55(5) . . .
48(5) . . .
46(4) . . .
35(4) . . .
45(4) . . .
49(5) . . .
49(5) . . .
47(4) . . .
45(4) . . .
43(4) . . .
46(4) . . .
53(5) . . .
48(4) . . .
48(5) . . .
50(5) . . .
50(5) . . .
53(5) . . .
53(5) . . .
60(5) . . .
56(5) . . .
57(5) . . .
49(5) . . .
53(5) . . .
60(5) . . .
52(5) . . .
56(5) . . .
54(5) . . .
55(5) . . .
57(5) . . .
54(5) . . .
45(4) . . .
47(4) . . .
43(4) . . .
49(5) . . .
41(4) . . .
51(5) . . .
44(4) . . .
47(4) . . .
46(4) . . .
46(4) . . .
50(5) . . .
39(4) . . .
52(5) . . .
48(5) . . .
39(4) . . .
47(4) . . .
53(5) . . .
49(5) . . .
43(4) . . .
49(5) . . .
50(5) . . .
42(4) . . .
47(4) . . .
46(4) . . .
45(4) . . .
41(4) . . .
46(4) . . .
39(4) . . .
45(4) . . .
49(5) . . .
51(5) . . .
53(5) . . .
54(5) . . .
41(4) . . .
57(5) . . .
48(5) . . .
52(5) . . .
45(4) . . .
47(4) . . .
49(5) . . .
50(5) . . .
47(4) . . .
47(4) . . .
50(5) . . .
49(5) . . .
41(4) . . .
48(5) . . .
54(5) . . .
48(5) . . .
54(5) . . .
50(5) . . .
43(4) . . .
48(5) . . .
48(5) . . .
49(5) . . .
54(5) . . .
48(5) . . .
50(5) . . .
46(4) . . .
45(4) . . .
48(5) . . .
47(4) . . .
48(5) . . .
49(5) . . .
45(4) . . .
55(5) . . .
41(4) . . .
38(4) . . .
49(5) . . .
49(5) . . .
44(4) . . .
47(4) . . .
42(4) . . .
59(5) . . .
45(4) . . .
48(5) . . .
54(5) . . .
58(5) . . .
49(5) . . .
49(5) . . .
51(5) . . .
50(5) . . .
53(5) . . .
53(5) . . .
40(4) . . .
50(5) . . .
51(5) . . .
46(4) . . .
58(5) . . .
49(5) . . .
48(5) . . .
52(5) . . .
54(5) . . .
40(4) . . .
41(4) . . .
50(5) . . .
50(5) . . .
45(4) . . .
57(5) . . .
51(5) . . .
55(5) . . .
52(5) . . .
56(5) . . .
54(5) . . .
48(5) . . .
49(5) . . .
51(5) . . .
51(5) . . .
53(5) . . .
49(5) . . .
51(5) . . .
54(5) . . .
54(5) . . .
56(5) . . .
65(5) . . .
52(5) . . .
67(5) . . .
57(5) . . .
66(5) . . .
62(5) . . .
59(5) . . .
53(5) . . .
57(5) . . .
60(5) . . .
53(5) . . .
51(5) . . .
51(5) . . .
51(5) . . .
61(5) . . .
49(5) . . .
52(5) . . .
49(5) . . .
50(5) . . .
57(5) . . .
47(4) . . .
46(4) . . .
50(5) . . .
43(4) . . .
42(4) . . .
49(5) . . .
45(4) . . .
53(5) . . .
55(5) . . .
47(5) . . .
47(4) . . .
42(4) . . .
45(4) . . .
46(4) . . .
46(4) . . .
41(4) . . .
48(5) . . .
51(5) . . .
44(4) . . .
37(4) . . .
50(5) . . .
50(5) . . .
38(4) . . .
48(5) . . .
52(5) . . .
42(4) . . .
48(5) . . .
48(5) . . .
48(5) . . .
47(4) . . .
57(5) . . .
54(5) . . .
49(5) . . .
50(5) . . .
49(5) . . .
60(5) . . .
55(5) . . .
58(5) . . .
56(5) . . .
54(5) . . .
59(5) . . .
49(5) . . .
52(5) . . .
61(5) . . .
50(5) . . .
56(5) . . .
54(5) . . .
50(5) . . .
46(4) . . .
54(5) . . .
52(5) . . .
51(5) . . .
50(5) . . .
44(4) . . .
55(5) . . .
43(4) . . .
43(4) . . .
40(4) . . .
46(4) . . .
47(4) . . .
56(5) . . .
48(5) . . .
43(4) . . .
49(5) . . .
50(5) . . .
52(5) . . .
48(5) . . .
loop_
_refln_index_h
_refln_index_k
_refln_index_l
_refln_observed_status
_refln_F_squared_meas
_refln_F_squared_calc
_refln_phase_calc
_refln_d_spacing
_gsas_i100_meas
1 0 1 o 2156.197 1498.418 -45.00 7.36974 5.79
1 0 2 o -1.253 425.773 0.00 5.95354 0.00
1 1 0 o -1.152 59.364 0.00 5.74586 0.00
1 1 1 o 308.093 60.745 90.00 5.45898 0.43
1 1 2 o 44798.94 43985.41 -180.00 4.80249 45.57
1 0 3 o 413.485 252.347 45.00 4.73788 0.46
0 0 4 o 54402.42 41284.12 0.00 4.37381 11.65
2 0 0 o 44775.36 39719.13 -180.00 4.06293 16.26
1 1 3 o 166.121 148.321 90.00 4.09296 0.12
2 0 1 o 280.817 547.746 45.00 3.95762 0.20
1 0 4 o -0.150 0.029 90.00 3.85134 0.00
2 0 2 o -21.418 713.371 -90.00 3.68487 0.00
2 1 0 o -48.780 921.056 -180.00 3.63400 0.00
2 1 1 o -13.862 73.951 -108.14 3.55805 0.00
1 1 4 o -18.341 265.713 0.00 3.48023 0.00
2 1 2 o -4.898 29.547 -119.42 3.35594 0.00
2 0 3 o 27.987 595.386 135.00 3.33366 0.00
1 0 5 o 4179.979 1422.250 135.00 3.21376 2.07
2 1 3 o 4450.077 226.373 89.24 3.08420 3.99
1 1 5 o 2143.540 1765.651 90.00 2.98852 0.90
2 0 4 o 238869.72 227126.77 -180.00 2.97677 100.00
2 2 0 o 264907.31 266226.47 0.00 2.87293 51.54
2 2 1 o 25.181 24.555 90.00 2.83496 0.01
2 1 4 o 5539.289 5304.173 -172.72 2.79512 4.14
1 0 6 o 7548.361 3811.675 180.00 2.74453 2.78
2 2 2 o 126.019 24.360 0.00 2.72949 0.05
3 0 1 o 7969.273 6334.799 -45.00 2.67673 2.77
2 0 5 o 3650.482 4838.814 45.00 2.65134 1.21
1 1 6 o 6458.077 6982.069 180.00 2.60022 1.56
3 0 2 o 18734.824 20608.742 0.00 2.58742 6.13
3 1 0 o 276.521 702.071 180.00 2.56962 0.09
2 2 3 o 755.291 928.032 -90.00 2.57717 0.23
3 1 1 o 12.196 72.696 -52.74 2.54235 0.00
2 1 5 o -1.293 1.519 116.93 2.52056 0.00
3 1 2 o 10762.440 12984.821 -4.60 2.46545 4.97
3 0 3 o 1562.485 1493.727 45.00 2.45658 0.47
1 0 7 o 3362.956 3764.306 -135.00 2.38888 0.92
2 2 4 o 335.001 490.909 0.00 2.40125 0.00
2 0 6 o 42.874 201.900 -90.00 2.36894 0.01
3 1 3 o 15.774 126.433 -111.07 2.35147 0.00
3 0 4 o -3.831 112.186 -90.00 2.30281 0.00
1 1 7 o 1971.461 2156.455 90.00 2.29189 0.48
2 1 6 o 9992.567 10681.922 176.81 2.27427 4.88
3 2 0 o 5465.845 6039.420 0.00 2.25371 1.30
3 2 1 o 6811.775 7349.967 -60.94 2.23524 3.24
3 1 4 o 375.437 627.814 34.39 2.21556 0.18
2 2 5 o 7.296 10.418 -90.00 2.22039 0.00
0 0 8 o 282922.34 269503.06 0.00 2.18691 15.47
3 2 2 o 959.754 789.230 -171.21 2.18244 0.45
3 0 5 o 454.280 333.336 -45.00 2.14187 0.09
2 0 7 o 6141.623 3774.671 135.00 2.12879 1.27
1 0 8 o 1216.019 493.676 -90.00 2.11177 0.25
3 2 3 o 2226.030 2192.277 52.47 2.10219 0.96
3 1 5 o 1722.889 1557.655 -6.98 2.07113 0.67
2 1 7 o 79.514 63.460 -103.97 2.05930 0.03
4 0 0 o 230142.45 209868.39 0.00 2.03147 21.45
2 2 6 o 883.279 683.163 0.00 2.04648 0.17
1 1 8 o 2677.106 2124.394 180.00 2.04387 0.53
4 0 1 o 1167.426 757.051 -135.00 2.01791 0.21
3 2 4 o 8663.244 7174.232 8.71 2.00339 3.18
4 0 2 o 396.983 334.806 -90.00 1.97881 0.08
4 1 0 o 700.089 611.223 0.00 1.97081 0.13
3 0 6 o 21.445 16.405 180.00 1.98451 0.00
4 1 1 o 3592.270 2463.471 -94.10 1.95843 1.26
4 1 2 o 1472.060 1370.106 1.40 1.92262 0.49
4 0 3 o 3401.720 2770.896 -45.00 1.91840 0.56
3 1 6 o 4406.729 4103.022 6.16 1.92785 1.11
2 0 8 o 20702.566 19367.566 180.00 1.92567 3.06
3 3 0 o 5701.978 3501.388 0.00 1.91529 0.47
3 3 1 o 147.803 168.232 -90.00 1.90391 0.03
3 2 5 o 4235.657 4623.766 126.33 1.89471 1.44
1 0 9 o 905.124 932.407 -45.00 1.89057 0.15
2 2 7 o 110.485 342.432 90.00 1.88564 0.03
4 1 3 o 630.136 1043.476 131.06 1.86708 0.21
2 1 8 o 2634.638 3182.169 179.24 1.87378 0.85
3 3 2 o 13107.688 14964.223 -180.00 1.87096 1.73
4 0 4 o 6659.977 8934.761 0.00 1.84244 0.76
1 1 9 o 21.958 37.460 -90.00 1.84139 0.00
3 0 7 o 544.244 1827.224 -135.00 1.83683 0.10
4 2 0 o 12968.872 17127.414 -180.00 1.81700 1.57
4 2 1 o 104.262 427.218 72.32 1.80728 0.02
3 3 3 o 730.506 1222.208 -90.00 1.81966 0.13
4 1 4 o 2860.029 3676.458 -12.34 1.79683 0.86
4 2 2 o 679.909 826.328 -126.06 1.77903 0.21
3 1 7 o 358.121 513.071 170.91 1.79163 0.11
3 2 6 o 2747.493 3306.388 179.56 1.78317 0.89
4 0 5 o 743.659 836.925 -135.00 1.75684 0.09
3 3 4 o 4155.950 4159.561 0.00 1.75445 0.59
2 0 9 o 671.671 649.550 45.00 1.75354 0.09
4 2 3 o 42.007 35.785 109.06 1.73475 0.01
2 2 8 o 119448.38 109219.38 0.00 1.74012 15.78
4 1 5 o 1431.163 1875.499 40.94 1.71717 0.39
1 0 10 o 5296.422 5160.323 0.00 1.71033 0.71
2 1 9 o 42.248 43.059 91.12 1.71409 0.01
3 0 8 o 1.081 0.709 -90.00 1.70154 0.00
4 2 4 o 104036.82 100932.36 179.73 1.67797 25.31
1 1 10 o 28405.771 27915.828 -180.00 1.67366 3.11
3 3 5 o 1484.739 1363.034 90.00 1.68006 0.18
4 0 6 o 931.077 741.030 90.00 1.66683 0.12
3 2 7 o 1796.111 1758.177 -147.45 1.67373 0.47
3 1 8 o 1682.294 1378.726 174.12 1.66542 0.43
4 1 6 o 155.759 613.165 168.31 1.63283 0.06
4 3 0 o 3393.988 1898.557 -180.00 1.62517 0.39
5 0 1 o 5035.637 4541.124 -45.00 1.61821 0.60
4 3 1 o 204.895 186.010 -109.10 1.61821 0.06
2 0 10 o 99.388 404.379 -90.00 1.60688 0.01
4 2 5 o 2476.225 2621.542 69.49 1.61254 0.56
2 2 9 o 1999.695 2799.778 -90.00 1.60999 0.23
5 0 2 o 1004.453 1399.562 -180.00 1.59783 0.13
4 3 2 o 1007.198 1327.826 -14.41 1.59783 0.25
5 1 0 o 65.730 481.016 -180.00 1.59361 0.01
3 3 6 o 8326.569 8456.610 -180.00 1.60083 0.75
5 1 1 o 79.753 541.772 107.29 1.58704 0.01
5 1 2 o 27288.936 27801.242 -174.84 1.56781 5.22
3 0 9 o 990.161 1514.199 -45.00 1.57929 0.12
5 0 3 o 4699.853 4847.882 45.00 1.56552 0.53
4 0 7 o 86.534 94.991 -45.00 1.57641 0.01
2 1 10 o 2492.138 2896.619 10.37 1.57636 0.60
1 0 11 o 882.101 1066.814 -135.00 1.56086 0.10
3 2 8 o 4141.374 4265.995 4.65 1.56946 0.89
4 3 3 o 2617.785 2635.221 131.04 1.56552 0.58
3 1 9 o 1427.855 2045.583 -67.44 1.55028 0.30
5 1 3 o 60.205 492.970 54.23 1.53725 0.00
4 1 7 o 118.152 178.958 -68.30 1.54756 0.03
1 1 11 o -3.555 0.332 -90.00 1.53284 0.00
4 2 6 o 539.017 1581.878 148.34 1.54210 0.13
5 0 4 o 375.133 304.502 -90.00 1.52341 0.04
4 3 4 o 4185.218 3423.698 177.29 1.52341 0.84
3 3 7 o 1074.791 372.888 90.00 1.52024 0.10
5 2 0 o 572.784 353.275 180.00 1.50894 0.06
5 2 1 o 1162.826 1335.194 -28.72 1.50335 0.26
5 1 4 o 119.247 100.832 -17.60 1.49732 0.03
4 0 8 o 109365.07 104095.93 0.00 1.48839 10.11
5 2 2 o 1184.610 1118.655 7.27 1.48698 0.26
2 2 10 o 90.632 74.690 0.00 1.49426 0.01
2 0 11 o 149.199 111.114 -45.00 1.48104 0.02
5 0 5 o 7390.445 8296.012 135.00 1.47395 0.72
4 3 5 o 413.835 475.903 40.28 1.47395 0.08
3 2 9 o 1249.248 1377.159 -43.00 1.47200 0.24
5 2 3 o 4669.667 4189.685 65.68 1.46083 0.88
4 2 7 o 3367.412 3643.222 114.95 1.46967 0.62
3 0 10 o 12142.470 13198.846 0.00 1.46962 1.20
0 0 12 o 58716.41 55556.67 0.00 1.45794 1.24
2 1 11 o 665.151 624.722 145.63 1.45704 0.13
4 1 8 o 4056.297 3573.827 28.74 1.46403 0.75
5 1 5 o 2580.390 2386.659 93.39 1.45028 0.45
3 1 10 o 18063.908 16602.588 1.85 1.44616 2.78
4 4 0 o 103828.05 106534.84 0.00 1.43646 4.41
1 0 12 o 6.887 7.448 -90.00 1.43502 0.00
4 4 1 o 1513.956 1639.845 -90.00 1.43165 0.12
3 3 8 o 23.532 22.511 -180.00 1.44083 0.00
5 2 4 o 493.541 415.929 -156.27 1.42643 0.09
5 0 6 o 2052.123 2489.874 180.00 1.41957 0.21
4 4 2 o 135.479 146.757 -180.00 1.41748 0.01
1 1 12 o 4371.272 4573.340 0.00 1.41316 0.39
4 3 6 o 180.357 212.828 -167.47 1.41957 0.03
4 0 9 o 6055.836 4964.330 -135.00 1.40449 0.50
5 1 6 o 21164.852 19111.678 176.73 1.39839 3.08
4 4 3 o 4055.507 3727.632 -90.00 1.39477 0.32
5 3 0 o 5895.995 5364.738 180.00 1.39357 0.49
2 2 11 o 537.756 447.013 -90.00 1.39148 0.04
5 3 1 o 1870.052 1608.684 -79.41 1.38917 0.28
4 2 8 o 18120.877 16727.764 -178.15 1.39756 2.58
5 2 5 o 1865.247 1377.006 115.19 1.38559 0.31
4 1 9 o 113.696 84.154 -140.58 1.38397 0.02
5 3 2 o 24625.375 23368.830 -5.13 1.37622 3.49
3 2 10 o 1351.102 1037.095 15.79 1.38199 0.21
2 0 12 o 91430.92 87008.98 -180.00 1.37226 6.95
3 0 11 o 1118.636 1101.128 45.00 1.37151 0.09
4 4 4 o 14030.439 10965.585 0.00 1.36475 0.93
6 0 0 o 16404.684 15264.308 180.00 1.35431 0.54
5 0 7 o 1653.859 928.351 -135.00 1.36246 0.13
6 0 1 o 1272.945 1443.186 45.00 1.35027 0.09
3 3 9 o 437.406 312.274 -90.00 1.36432 0.04
5 3 3 o 1101.370 995.933 -109.29 1.35541 0.15
4 3 7 o 794.242 435.537 -91.60 1.36246 0.13
2 1 12 o 951.854 997.040 -139.70 1.35310 0.15
3 1 11 o 498.440 544.254 -76.11 1.35238 0.07
6 0 2 o 2407.526 2542.654 -90.00 1.33837 0.19
6 1 0 o 7935.248 7765.487 -180.00 1.33588 0.59
5 1 7 o 1982.328 2134.949 94.34 1.34371 0.29
6 1 1 o 469.740 633.533 62.41 1.33201 0.07
5 2 6 o 358.311 405.849 -166.74 1.34013 0.04
6 1 2 o -21.004 185.965 23.19 1.32057 0.00
4 4 5 o 55.119 57.738 -90.00 1.32884 0.00
6 0 3 o 10.972 13.467 135.00 1.31921 0.00
1 0 13 o 631.787 638.493 135.00 1.32770 0.05
5 3 4 o 167.451 193.219 -170.38 1.32781 0.02
4 0 10 o 4.516 120.435 -90.00 1.32567 0.00
4 2 9 o 34.226 42.726 71.19 1.32741 0.00
6 1 3 o 916.575 799.080 98.89 1.30216 0.13
1 1 13 o 82.684 118.338 90.00 1.31033 0.01
4 1 10 o 2933.524 3080.164 3.63 1.30837 0.43
5 0 8 o 228.769 216.494 90.00 1.30442 0.02
6 0 4 o 61924.66 61098.16 -180.00 1.29371 4.06
2 2 12 o 20512.838 18901.529 0.00 1.30011 1.25
3 2 11 o 56.599 52.315 -59.63 1.29947 0.01
4 3 8 o 2467.486 2345.103 164.87 1.30442 0.35
5 3 5 o 200.275 205.771 -15.14 1.29467 0.03
6 2 0 o 66082.05 67039.73 0.00 1.28481 4.26
5 2 7 o 2058.752 1959.870 -138.63 1.29177 0.30
6 2 1 o 2346.987 2349.503 -94.96 1.28136 0.30
4 4 6 o 6.676 6.773 0.00 1.28859 0.00
5 1 8 o 1795.575 1821.488 166.38 1.28793 0.25
6 1 4 o 10531.014 10258.654 -169.26 1.27762 1.40
3 3 10 o 18806.109 18012.633 -180.00 1.29173 1.11
3 0 12 o 37.824 35.889 -90.00 1.28378 0.00
6 2 2 o 1970.874 2259.572 -45.25 1.27117 0.28
2 0 13 o 1493.654 1442.982 45.00 1.27753 0.10
6 0 5 o 3619.909 3349.755 45.00 1.26301 0.23
5 4 0 o 525.017 535.336 0.00 1.26905 0.03
3 1 12 o 2346.517 2416.331 6.28 1.26805 0.33
5 4 1 o 3854.594 3676.677 -52.45 1.26572 0.52
6 2 3 o 2946.995 2981.180 -82.31 1.25472 0.36
2 1 13 o 276.249 275.973 -111.32 1.26203 0.04
4 2 10 o 228.536 212.163 161.52 1.26028 0.03
5 3 6 o 15341.112 15659.909 1.30 1.25735 1.69
6 1 5 o 603.887 290.250 94.43 1.24802 0.08
5 4 2 o 167.292 185.943 -176.00 1.25590 0.03
4 0 11 o 3482.513 3071.316 -45.00 1.25232 0.22
5 0 9 o 2365.757 1198.613 -45.00 1.24684 0.15
4 4 7 o 106.444 26.741 90.00 1.24542 0.01
5 2 8 o 348.336 243.157 140.44 1.24198 0.04
6 2 4 o 5499.512 6541.192 -2.86 1.23273 0.50
5 4 3 o 3316.569 3027.643 59.83 1.24003 0.43
4 3 9 o 275.829 126.105 -159.36 1.24684 0.04
4 1 11 o 939.807 732.584 -90.89 1.23771 0.12
6 0 6 o 610.528 707.334 90.00 1.22829 0.04
1 0 14 o 4504.283 4298.777 180.00 1.23514 0.29
5 1 9 o 974.155 1239.818 171.98 1.23241 0.12
3 2 12 o 1391.393 1844.954 14.35 1.22413 0.17
3 3 11 o 592.617 965.627 -90.00 1.22359 0.05
6 1 6 o 299.582 260.762 152.36 1.21449 0.04
1 1 14 o 9733.333 12157.609 -180.00 1.22111 0.46
6 3 0 o 5307.424 5993.323 0.00 1.21133 0.31
5 4 4 o 276.265 380.379 3.39 1.21878 0.03
2 2 13 o 66.024 101.587 90.00 1.21870 0.01
5 3 7 o 227.296 245.235 152.57 1.21716 0.03
6 3 1 o 4403.850 4643.128 -115.01 1.20844 0.52
6 2 5 o 570.690 647.662 -103.08 1.20608 0.06
6 3 2 o 20.852 21.610 -113.89 1.19988 0.00
3 0 13 o 627.463 672.956 -45.00 1.20522 0.04
4 4 8 o 67143.14 64211.06 0.00 1.20062 3.66
6 0 7 o 2918.262 2839.100 135.00 1.19073 0.16
4 2 11 o 383.668 378.928 -93.00 1.19676 0.05
2 0 14 o 229.225 268.829 -90.00 1.19444 0.01
6 3 3 o 333.345 392.082 134.04 1.18602 0.04
5 4 5 o 3195.730 3703.792 124.35 1.19301 0.38
3 1 13 o 891.098 954.948 17.74 1.19218 0.10
5 2 9 o 315.525 338.058 18.57 1.19197 0.04
5 0 10 o 36.319 35.666 0.00 1.19071 0.00
4 3 10 o 2365.281 2252.364 -5.44 1.19071 0.29
6 1 7 o 126.916 131.751 51.81 1.17815 0.01
4 0 12 o 17985.965 19187.361 0.00 1.18447 0.86
6 2 6 o 1707.693 1880.869 38.17 1.17574 0.20
2 1 14 o 3536.603 3643.950 174.99 1.18174 0.40
5 1 10 o 23240.709 23977.729 -179.05 1.17813 2.23
5 3 8 o 3414.847 3749.416 -170.66 1.17524 0.39
6 3 4 o 5713.789 6252.693 -12.31 1.16739 0.61
7 0 1 o 1470.877 1798.055 -45.00 1.15829 0.09
4 1 12 o 1228.395 1143.522 -25.45 1.17208 0.14
7 0 2 o 701.372 779.221 0.00 1.15075 0.05
7 1 0 o 480.606 541.927 -180.00 1.14917 0.03
5 4 6 o 765.568 926.623 -172.60 1.16362 0.10
1 0 15 o 172.955 148.804 -135.00 1.15452 0.01
7 1 1 o 1331.560 1480.118 -80.18 1.14670 0.12
3 3 12 o 5641.783 6845.480 0.00 1.16008 0.31
6 0 8 o 13474.285 14894.353 -180.00 1.15140 0.58
3 2 13 o 891.959 892.286 172.25 1.15546 0.10
4 4 9 o 5771.412 5523.333 -90.00 1.15527 0.30
1 1 15 o 126.293 113.611 90.00 1.14304 0.01
5 5 0 o 1177.104 1336.375 0.00 1.14917 0.03
6 1 8 o 6893.226 7098.127 163.28 1.14002 0.69
5 5 1 o 1090.916 1232.633 90.00 1.14670 0.05
7 1 2 o 17214.428 16912.871 -10.03 1.13938 1.52
2 2 14 o 4.282 5.422 0.00 1.14594 0.00
7 0 3 o 2128.069 1996.073 45.00 1.13850 0.11
6 3 5 o 855.799 930.302 20.89 1.14468 0.09
6 2 7 o 63.320 53.668 -177.61 1.14267 0.01
5 2 10 o 2275.913 1995.789 -6.91 1.14265 0.26
5 5 2 o 20122.656 19930.885 -180.00 1.13938 0.89
4 2 12 o 55168.34 50535.99 -179.13 1.13713 5.20
5 0 11 o 119.589 97.762 45.00 1.13671 0.01
4 3 11 o 2712.919 2269.056 153.56 1.13671 0.27
3 0 14 o 153.710 115.469 180.00 1.13472 0.01
7 1 3 o 1415.912 1493.672 -97.87 1.12749 0.13
6 4 0 o 12063.809 12527.222 -180.00 1.12686 0.49
5 3 9 o 4273.958 3771.807 -85.62 1.13260 0.41
5 4 7 o 1284.354 1076.351 -155.43 1.13154 0.13
6 4 1 o 1889.056 2172.098 69.41 1.12452 0.17
7 0 4 o 46.012 85.047 -90.00 1.12199 0.00
2 0 15 o 302.149 532.112 135.00 1.12107 0.01
5 5 3 o 285.358 302.033 90.00 1.12749 0.01
5 1 11 o 145.023 156.157 -5.63 1.12574 0.01
6 4 2 o 665.906 711.972 -127.07 1.11762 0.07
3 1 14 o 6560.648 7365.149 -1.17 1.12381 0.49
7 2 0 o 49.845 62.862 0.00 1.11617 0.00
4 0 13 o 26.580 37.043 -135.00 1.12193 0.00
7 2 1 o 4600.186 4916.205 -55.47 1.11391 0.45
6 3 6 o 496.150 548.794 -179.09 1.11865 0.05
7 1 4 o 355.227 364.430 8.41 1.11145 0.04
6 0 9 o 282.499 283.485 45.00 1.11122 0.01
2 1 15 o 279.298 268.805 9.75 1.11055 0.03
7 2 2 o 4.803 4.167 70.91 1.10720 0.00
6 4 3 o 582.574 543.911 111.42 1.10639 0.04
5 5 4 o 5833.826 6019.327 0.00 1.11145 0.28
4 1 13 o 997.212 1022.903 -17.31 1.11139 0.10
4 4 10 o 11.655 11.224 -180.00 1.11019 0.00
7 0 5 o 525.938 357.842 135.00 1.10179 0.03
6 2 8 o 44488.21 45689.28 0.78 1.10778 3.90
7 2 3 o 1993.934 1679.690 41.15 1.09627 0.20
3 3 13 o 2599.655 1788.686 90.00 1.10114 0.12
6 1 9 o 889.310 610.918 99.19 1.10097 0.08
0 0 16 o 60769.36 50603.05 0.00 1.09345 0.65
7 1 5 o 614.772 572.709 -30.71 1.09180 0.05
5 4 8 o 326.144 319.042 -1.47 1.09763 0.03
6 4 4 o 32740.006 31063.100 178.63 1.09122 2.73
5 2 11 o 1641.955 1201.883 47.02 1.09467 0.15
3 2 14 o 3199.506 2723.071 178.49 1.09289 0.31
5 5 5 o 3204.806 3019.836 90.00 1.09180 0.14
6 3 7 o 1393.638 1254.930 -48.20 1.09005 0.13
5 3 10 o 23427.943 21465.826 0.50 1.09003 1.86
1 0 16 o 322.450 234.037 -90.00 1.08369 0.01
7 2 4 o 398.700 253.469 -76.89 1.08151 0.04
2 2 15 o 1043.190 602.456 90.00 1.08069 0.05
5 0 12 o 325.440 260.343 -90.00 1.08524 0.01
4 3 12 o 1767.695 1440.784 -167.84 1.08524 0.15
7 0 6 o 8.273 0.120 180.00 1.07851 0.00
4 2 13 o 4358.677 2841.225 74.92 1.08146 0.38
1 1 16 o 6259.398 5225.316 180.00 1.07418 0.28
3 0 15 o 49.775 48.563 -135.00 1.07125 0.00
6 0 10 o 424.025 406.696 -90.00 1.07093 0.02
5 1 12 o 2007.679 1623.064 11.45 1.07569 0.18
7 1 6 o 12968.328 12540.838 6.23 1.06914 0.95
7 3 0 o 131.529 124.066 0.00 1.06698 0.01
6 4 5 o 3521.773 3384.571 71.84 1.07261 0.29
6 2 9 o 5144.102 5115.239 -104.23 1.07185 0.43
7 3 1 o 691.830 617.126 131.43 1.06500 0.05
7 2 5 o 2980.920 2323.849 138.18 1.06338 0.26
5 5 6 o 14232.642 13830.720 -180.00 1.06914 0.52
3 1 15 o 369.498 297.791 124.16 1.06206 0.03
6 1 10 o 1214.982 990.041 5.21 1.06175 0.11
4 4 11 o 4859.152 4391.891 -90.00 1.06604 0.20
7 3 2 o 14309.072 14174.024 -174.65 1.05913 1.03
4 0 14 o 46.237 39.018 90.00 1.06439 0.00
5 4 9 o 1594.129 1280.424 -36.12 1.06265 0.13
2 0 16 o 21181.174 19980.209 180.00 1.05588 0.77
6 3 8 o 4573.201 4539.406 14.98 1.05964 0.38
7 0 7 o 1725.379 1735.023 -135.00 1.05282 0.08
4 1 14 o 1091.635 1036.844 173.08 1.05538 0.10
7 3 3 o 310.366 287.931 26.55 1.04956 0.02
2 1 16 o 530.265 608.562 163.76 1.04708 0.04
6 4 6 o 709.978 561.360 151.29 1.05110 0.06
7 1 7 o 271.628 257.334 -142.06 1.04409 0.02
5 2 12 o 340.806 306.573 -135.43 1.04848 0.03
5 3 11 o 2137.550 1980.959 -92.56 1.04815 0.16
7 2 6 o -2.881 61.791 -176.93 1.04241 0.01
3 3 14 o 7681.257 8749.363 -180.00 1.04659 0.24
6 5 0 o 670.330 1099.894 180.00 1.04041 0.03
6 5 1 o 659.016 893.191 -136.53 1.03858 0.06
5 5 7 o 2930.858 2604.289 90.00 1.04409 0.11
7 3 4 o 2370.308 2752.833 -2.00 1.03658 0.20
6 5 2 o 37.355 62.717 -146.32 1.03313 0.00
6 0 11 o -11.148 173.383 -45.00 1.03113 0.00
4 3 13 o 109.995 128.134 -34.92 1.03653 0.01
5 0 13 o 426.123 494.446 135.00 1.03653 0.02
3 2 15 o 119.436 124.268 127.75 1.03585 0.01
6 2 10 o 922.635 930.367 -33.98 1.03556 0.08
7 0 8 o 739.859 596.746 90.00 1.02534 0.03
4 2 14 o 48.454 120.747 144.72 1.02965 0.00
6 5 3 o 1656.788 1357.377 120.67 1.02424 0.13
6 1 11 o 1024.664 934.301 141.35 1.02293 0.08
5 1 13 o 1679.032 1882.983 91.67 1.02820 0.13
6 3 9 o 1050.583 1201.993 -132.57 1.02807 0.08
2 2 16 o 31246.240 28405.955 0.00 1.02194 1.08
6 4 7 o 3315.759 3881.854 100.48 1.02727 0.25
5 4 10 o 36.131 41.645 55.97 1.02725 0.00
8 0 0 o 29629.594 28659.010 0.00 1.01573 0.51
1 0 17 o 94.512 82.617 135.00 1.02098 0.00
7 3 5 o 1798.581 1523.881 107.46 1.02058 0.13
8 0 1 o 1436.295 1437.968 -135.00 1.01403 0.05
7 2 7 o 2027.267 1445.180 -130.40 1.01916 0.15
4 4 12 o 16385.932 15299.200 0.00 1.02324 0.53
7 1 8 o 895.569 756.467 176.51 1.01727 0.07
8 0 2 o 2834.243 2500.898 -90.00 1.00895 0.11
3 0 16 o 40.362 41.488 -90.00 1.01395 0.00
8 1 0 o 2997.950 2821.018 0.00 1.00789 0.11
1 1 17 o 10.822 9.656 -90.00 1.01301 0.00
6 5 4 o 1503.910 1518.850 -176.61 1.01217 0.11
8 1 1 o 1062.271 951.741 -135.28 1.00622 0.08
5 5 8 o 437.375 367.359 0.00 1.01727 0.02
4 0 15 o 58.277 47.471 135.00 1.01149 0.00
7 4 0 o 754.909 716.277 180.00 1.00789 0.03
8 1 2 o 38.007 36.940 -34.83 1.00127 0.00
8 0 3 o 1855.706 1854.326 -45.00 1.00067 0.06
7 4 1 o 1410.505 1245.194 -47.99 1.00622 0.11
3 1 16 o 4839.446 4281.523 174.32 1.00615 0.37
4 1 15 o 319.872 232.461 45.01 1.00374 0.02
5 3 12 o 112.369 115.615 -60.35 1.00739 0.01
7 3 6 o 11385.950 10590.488 174.02 1.00200 0.70
7 4 2 o 36.083 35.126 45.45 1.00127 0.00
5 2 13 o 336.505 265.621 115.31 1.00436 0.02
8 1 3 o 7.317 5.937 112.31 0.99317 0.00
2 0 17 o 147.450 114.901 45.00 0.99763 0.00
6 5 5 o 1317.872 900.710 68.28 0.99726 0.09
7 0 9 o 1160.813 795.304 -45.00 0.99666 0.04
6 4 8 o 10356.759 10007.607 179.40 1.00170 0.61
8 0 4 o 3127.980 3564.464 0.00 0.98940 0.07
6 2 11 o 3380.952 3242.794 -77.81 0.99945 0.23
7 2 8 o 758.507 568.296 84.43 0.99417 0.05
7 4 3 o 2282.093 1966.435 65.28 0.99317 0.16
6 0 12 o 33558.746 34201.215 180.00 0.99226 1.08
3 3 15 o 176.738 123.201 90.00 0.99617 0.01
8 2 0 o 7977.064 7649.597 -180.00 0.98541 0.22
6 3 10 o 277.739 181.660 -27.21 0.99592 0.02
5 0 14 o 1778.249 2115.146 -180.00 0.99065 0.07
2 1 17 o 323.468 393.292 167.51 0.99019 0.02
8 2 1 o 1492.601 1586.407 67.24 0.98385 0.09
7 1 9 o 2336.310 2875.409 -80.92 0.98924 0.15
8 1 4 o 3187.469 3630.326 -17.32 0.98215 0.21
5 4 11 o 45.426 51.264 34.72 0.99197 0.00
4 3 14 o 565.538 656.934 -172.37 0.99065 0.04
6 1 12 o 4881.634 4882.605 -152.52 0.98494 0.33
8 2 2 o 1734.321 2112.744 -95.99 0.97921 0.13
5 5 9 o 2.630 4.034 90.00 0.98924 0.00
3 2 16 o 966.390 1037.528 6.92 0.98378 0.06
7 4 4 o 806.509 916.238 -163.93 0.98215 0.05
7 3 7 o 880.354 1037.866 70.71 0.98130 0.05
8 0 5 o 536.273 726.176 -135.00 0.97546 0.01
6 5 6 o 155.171 180.349 144.71 0.97990 0.01
5 1 14 o 10280.518 11165.488 -173.73 0.98337 0.58
4 4 13 o 15.856 16.478 -90.00 0.98211 0.00
8 2 3 o 192.048 247.515 105.48 0.97163 0.01
4 2 15 o 1307.197 1530.832 111.12 0.98153 0.09
8 1 5 o 125.262 108.983 13.67 0.96851 0.01
1 0 18 o 1039.300 1006.547 0.00 0.96508 0.03
6 4 9 o 430.294 427.860 41.64 0.97490 0.02
2 2 17 o 1071.143 854.354 -90.00 0.96885 0.03
7 4 5 o 878.775 773.727 107.39 0.96851 0.06
7 2 9 o 1866.132 1709.583 -57.09 0.96796 0.12
7 0 10 o 1161.051 962.374 0.00 0.96728 0.04
8 2 4 o 18260.113 18123.795 179.50 0.96131 1.04
8 0 6 o 1991.127 1898.674 90.00 0.95920 0.07
6 2 12 o 10952.231 11257.543 0.70 0.96393 0.58
5 3 13 o 88.062 81.873 -6.18 0.96807 0.01
4 0 16 o 26979.383 26040.680 0.00 0.96284 0.79
3 0 17 o 545.068 530.748 -45.00 0.96203 0.02
6 5 7 o 865.682 914.768 -37.98 0.96051 0.06
7 1 10 o 15725.800 16334.175 2.34 0.96050 0.87
6 3 11 o 463.529 472.501 -98.23 0.96367 0.03
7 3 8 o 4.375 4.170 29.85 0.95893 0.00
1 1 18 o 12804.724 11903.729 -180.00 0.95834 0.34
5 2 14 o 397.876 391.066 -165.65 0.96245 0.02
8 1 6 o 96.227 77.477 164.64 0.95259 0.01
6 6 0 o 26890.943 25402.104 0.00 0.95764 0.39
8 3 0 o 3298.151 2881.008 -180.00 0.95106 0.10
6 6 1 o 3272.949 3066.223 -90.00 0.95621 0.10
4 1 16 o 1545.922 1436.905 32.78 0.95615 0.10
5 5 10 o 16052.033 16867.592 -180.00 0.96050 0.44
3 1 17 o 1068.381 1025.850 -63.45 0.95536 0.06
8 3 1 o 83.700 60.304 135.17 0.94966 0.01
6 0 13 o 3939.116 3481.598 45.00 0.95462 0.12
8 2 5 o 2533.147 1894.055 72.66 0.94851 0.14
5 4 12 o 409.638 394.816 -6.03 0.95722 0.02
7 4 6 o 14.824 13.511 -153.17 0.95259 0.00
6 6 2 o 1045.641 906.216 0.00 0.95196 0.04
8 3 2 o 197.324 197.876 -166.41 0.94549 0.01
3 3 16 o 1513.142 1033.370 180.00 0.94960 0.05
6 1 13 o 319.052 223.494 2.38 0.94810 0.02
5 0 15 o 42.222 27.652 -135.00 0.94758 0.00
8 0 7 o 66.350 56.786 -45.00 0.94099 0.00
2 0 18 o 106.453 105.506 -90.00 0.94529 0.00
6 6 3 o 4261.059 3967.644 -90.00 0.94499 0.12
7 5 0 o 4497.182 4053.215 180.00 0.94461 0.14
8 3 3 o 1699.996 1445.282 130.82 0.93866 0.10
7 5 1 o 1453.525 1402.900 -70.05 0.94324 0.08
4 3 15 o 253.137 165.191 59.72 0.94758 0.02
6 4 10 o 320.767 201.503 -137.42 0.94735 0.02
5 1 15 o 1099.398 750.251 103.47 0.94120 0.06
7 2 10 o 130.670 100.465 18.04 0.94098 0.01
8 1 7 o 165.519 152.018 -16.71 0.93475 0.01
6 5 8 o 1059.899 828.433 166.00 0.93951 0.06
7 5 2 o 15732.580 13161.394 -4.32 0.93915 0.82
2 1 18 o 769.477 626.452 8.50 0.93895 0.05
8 2 6 o 1306.328 1171.410 100.03 0.93354 0.08
4 4 14 o 55.184 58.088 -180.00 0.94282 0.00
7 0 11 o 1292.611 1155.682 45.00 0.93765 0.04
4 2 16 o 13992.604 13252.331 -179.16 0.93689 0.71
3 2 17 o 332.992 307.952 99.27 0.93615 0.02
6 6 4 o 7111.445 6320.855 0.00 0.93548 0.17
7 3 9 o 501.675 438.189 178.30 0.93535 0.03
7 4 7 o 1057.123 969.950 -138.94 0.93475 0.07
8 3 4 o 3866.652 3943.482 -167.10 0.92934 0.22
7 5 3 o 1243.160 1073.583 -112.32 0.93246 0.06
6 3 12 o 3626.463 3373.016 -24.78 0.93171 0.21
7 1 11 o 1507.654 1449.235 -83.08 0.93147 0.08
6 2 13 o 138.349 140.460 -91.93 0.92931 0.01
5 5 11 o 12.791 12.549 90.00 0.93147 0.00
8 0 8 o 25773.881 20753.754 0.00 0.92122 0.66
5 3 14 o 9721.428 10200.379 -4.70 0.93038 0.46
6 6 5 o 882.598 648.453 -90.00 0.92367 0.02
7 5 4 o 151.281 118.522 165.25 0.92332 0.01
5 2 15 o 452.004 343.074 165.89 0.92281 0.03
8 3 5 o 987.720 841.884 56.72 0.91776 0.06
8 2 7 o 2724.834 2645.034 111.84 0.91673 0.14
2 2 18 o 44.695 37.776 0.00 0.92070 0.00
8 1 8 o 3865.602 3507.635 33.16 0.91535 0.21
1 0 19 o 1326.168 1236.661 -135.00 0.91495 0.04
5 4 13 o 643.124 509.730 -172.34 0.92329 0.04
6 0 14 o 29.416 23.046 -90.00 0.91841 0.00
4 0 17 o 3045.143 2497.199 -135.00 0.91805 0.08
6 5 9 o 469.046 423.079 166.11 0.91729 0.03
7 4 8 o 719.079 650.829 149.61 0.91535 0.04
6 4 11 o 24.059 19.415 -100.69 0.91947 0.00
3 0 18 o 2058.175 1924.891 0.00 0.91484 0.06
1 1 19 o 0.039 0.002 90.00 0.90920 0.00
7 2 11 o 122.876 101.925 11.77 0.91364 0.01
8 4 0 o 20251.418 20323.787 0.00 0.90850 0.49
6 1 14 o 413.362 382.455 157.14 0.91260 0.02
4 1 17 o 394.871 359.534 109.46 0.91225 0.02
7 5 5 o 185.229 171.821 -8.63 0.91197 0.01
8 4 1 o 1017.080 986.248 -113.51 0.90728 0.05
9 0 1 o 1273.751 1163.613 -45.00 0.90167 0.03
7 3 10 o 14722.168 14063.072 179.02 0.91094 0.69
6 6 6 o 634.235 616.698 0.00 0.90983 0.02
3 1 18 o 9817.501 9479.286 4.52 0.90910 0.43
8 3 6 o 405.081 290.965 177.51 0.90418 0.02
8 4 2 o 1294.932 952.973 -70.02 0.90364 0.07
7 0 12 o 509.955 520.909 -90.00 0.90813 0.01
9 0 2 o 315.963 325.007 180.00 0.89810 0.01
5 0 16 o 25.573 24.533 90.00 0.90722 0.00
4 3 16 o 1468.809 1418.984 154.34 0.90722 0.08
9 1 0 o 14.205 14.664 180.00 0.89735 0.00
3 3 17 o 5.548 5.486 90.00 0.90655 0.00
9 1 1 o 1718.875 1821.590 129.75 0.89617 0.08
8 0 9 o 2753.344 2949.112 -135.00 0.90025 0.07
8 2 8 o 6523.698 6638.713 -178.28 0.89841 0.27
2 0 19 o 0.371 0.408 135.00 0.89803 0.00
7 1 12 o 793.236 641.604 3.43 0.90252 0.04
9 1 2 o 16038.536 15222.676 -170.43 0.89267 0.73
8 4 3 o 1477.908 1520.265 -67.67 0.89767 0.07
9 0 3 o 2305.538 2224.242 45.00 0.89224 0.06
5 1 16 o 2629.981 2398.871 174.89 0.90162 0.15
4 4 15 o 50.435 38.260 90.00 0.90546 0.00
6 3 13 o 989.926 1099.598 -40.30 0.90034 0.05
8 1 9 o 647.083 691.536 -163.92 0.89477 0.03
7 5 6 o 8708.731 8758.071 1.73 0.89863 0.38
5 5 12 o 5963.149 4875.033 0.00 0.90252 0.16
2 1 19 o 448.360 418.203 178.27 0.89259 0.02
9 1 3 o 2416.065 1394.796 53.62 0.88691 0.11
6 2 14 o 234.691 263.290 5.81 0.89581 0.01
4 2 17 o 50.748 55.463 51.70 0.89547 0.00
7 4 9 o 541.465 589.276 -7.09 0.89477 0.03
5 3 15 o 129.192 126.334 120.39 0.89442 0.01
6 6 7 o 87.290 85.175 -90.00 0.89425 0.00
6 5 10 o 19.394 17.966 79.83 0.89424 0.00
8 4 4 o 5557.713 5085.135 -1.88 0.88951 0.22
8 3 7 o 125.242 101.049 17.98 0.88888 0.01
3 2 18 o 522.813 492.961 6.69 0.89250 0.03
6 4 12 o 21058.092 22548.646 179.34 0.89158 0.97
5 4 14 o 490.186 417.402 -174.04 0.89042 0.03
7 2 12 o 968.503 369.812 -76.77 0.88627 0.05
7 3 11 o 575.040 180.334 -30.75 0.88606 0.03
5 2 16 o 469.293 115.564 159.83 0.88542 0.02
