#------------------------------------------------------------------------------
#$Date: 2023-12-06 14:42:42 +0200 (Wed, 06 Dec 2023) $
#$Revision: 288070 $
#$URL: file:///home/coder/svn-repositories/cod/cif/4/33/71/4337115.cif $
#------------------------------------------------------------------------------
#
# This file is available in the Crystallography Open Database (COD),
# http://www.crystallography.net/
#
# All data on this site have been placed in the public domain by the
# contributors.
#
data_4337115
loop_
_publ_author_name
'Aliev, A.'
'Endara, D.'
'Huv\'e, M'
'Colmont, M.'
'Roussel, P.'
'Delevoye, L.'
'Tran, T. T.'
'Halasyamani, P. S.'
'Mentr\'e, O'
_publ_section_title
;
 Labile Degree of Disorder in Bismuth-Oxophosphate Compounds: Illustration
 through Three New Structural Types.
;
_journal_issue                   2
_journal_name_full               'Inorganic chemistry'
_journal_page_first              861
_journal_page_last               871
_journal_paper_doi               10.1021/ic402930d
_journal_volume                  53
_journal_year                    2014
_chemical_formula_sum            'Bi3.56 K1.319 O11 P2'
_chemical_formula_weight         1033.5
_space_group_IT_number           114
_symmetry_cell_setting           tetragonal
_symmetry_Int_Tables_number      114
_symmetry_space_group_name_Hall  'P -4 2n'
_symmetry_space_group_name_H-M   'P -4 21 c'
_cell_angle_alpha                90
_cell_angle_beta                 90
_cell_angle_gamma                90
_cell_formula_units_Z            4
_cell_length_a                   13.7008(2)
_cell_length_b                   13.7008(2)
_cell_length_c                   5.66330(10)
_cell_measurement_temperature    293
_cell_volume                     1063.07(3)
_diffrn_ambient_temperature      293
_diffrn_measured_fraction_theta_full 0.98
_diffrn_measured_fraction_theta_max 0.96
_diffrn_radiation_probe          x-ray
_diffrn_radiation_source         'X-ray tube'
_diffrn_radiation_type           'Mo K\a'
_diffrn_radiation_wavelength     0.71073
_diffrn_reflns_av_R_equivalents  0.0537
_diffrn_reflns_av_sigmaI/netI    0.0279
_diffrn_reflns_limit_h_max       23
_diffrn_reflns_limit_h_min       -22
_diffrn_reflns_limit_k_max       22
_diffrn_reflns_limit_k_min       -21
_diffrn_reflns_limit_l_max       9
_diffrn_reflns_limit_l_min       -7
_diffrn_reflns_number            32075
_diffrn_reflns_theta_full        37.15
_diffrn_reflns_theta_max         37.62
_diffrn_reflns_theta_min         2.1
_exptl_absorpt_coefficient_mu    59.635
_exptl_absorpt_correction_T_max  0.7478
_exptl_absorpt_correction_T_min  0.2589
_exptl_absorpt_correction_type   multi-scan
_exptl_absorpt_process_details   'Bruker (2002). Bruker AXS Inc.'
_exptl_crystal_density_diffrn    6.4552
_exptl_crystal_F_000             1754
_exptl_crystal_size_max          0.328
_exptl_crystal_size_mid          0.068
_exptl_crystal_size_min          0.051
_refine_diff_density_max         3.29
_refine_diff_density_min         -2.80
_refine_ls_abs_structure_details
'  1126 of Friedel pairs used in the refinement'
_refine_ls_extinction_coef       1800(40)
_refine_ls_extinction_method
'B-C type 1 Gaussian isotropic (Becker & Coppens, 1974)'
_refine_ls_goodness_of_fit_gt    2.20
_refine_ls_goodness_of_fit_ref   3.42
_refine_ls_number_constraints    10
_refine_ls_number_parameters     88
_refine_ls_number_reflns         2677
_refine_ls_number_restraints     0
_refine_ls_R_factor_all          0.0419
_refine_ls_R_factor_gt           0.0314
_refine_ls_shift/su_max          0.0357
_refine_ls_shift/su_mean         0.0028
_refine_ls_structure_factor_coef F
_refine_ls_weighting_scheme      unit
_refine_ls_wR_factor_gt          0.0364
_refine_ls_wR_factor_ref         0.0618
_reflns_number_gt                2261
_reflns_number_total             2677
_reflns_threshold_expression     I>3\s(I)
_cod_data_source_file            ic402930d_si_004.cif
_cod_data_source_block           I
_cod_depositor_comments
;
The following automatic conversions were performed:

'_diffrn_radiation_probe' value 'X-ray' changed to 'x-ray' according
to
/usr/data/users/saulius/automatic-downloads/current/ACS/lib/dictionaries/cif_core.dic
dictionary named 'cif_core.dic' version 2.4.2 from
2011-04-26.

'_exptl_absorpt_correction_type' value 'Multi-scan'
changed to 'multi-scan' according to
/usr/data/users/saulius/automatic-downloads/current/ACS/lib/dictionaries/cif_core.dic
dictionary named 'cif_core.dic' version 2.4.2 from 2011-04-26.

Automatic conversion script
Id: cif_fix_values 2281 2013-09-26 08:29:07Z andrius 

The following automatic conversions were performed:

data name '_atom_site_site_symmetry_mutiplicity' was replaced with
'_atom_site_site_symmetry_multiplicity' as specified in the
replacement file 'data/replacement-values/replacement_tags.lst'.

Automatic conversion script
Id: cif_correct_tags 9268 2022-04-12 08:56:07Z antanas 
;
_cod_original_sg_symbol_Hall     'P -4;2n'
_cod_database_code               4337115
loop_
_symmetry_equiv_pos_site_id
_symmetry_equiv_pos_as_xyz
1 x,y,z
2 -x,-y,z
3 y,-x,-z
4 -y,x,-z
5 -x+1/2,y+1/2,-z+1/2
6 x+1/2,-y+1/2,-z+1/2
7 -y+1/2,-x+1/2,z+1/2
8 y+1/2,x+1/2,z+1/2
loop_
_atom_site_label
_atom_site_type_symbol
_atom_site_fract_x
_atom_site_fract_y
_atom_site_fract_z
_atom_site_adp_type
_atom_site_U_iso_or_equiv
_atom_site_site_symmetry_multiplicity
_atom_site_occupancy
_atom_site_calc_flag
Bi1 Bi 0.34845(6) -0.26957(5) 0.20446(18) Uani 0.01669(16) 8 0.78 d
K1 K 0.3537(16) -0.2922(13) 0.221(4) Uani 0.01669(16) 8 0.22 d
Bi2 Bi 0.36448(4) -0.00278(4) 0.21969(10) Uani 0.01768(12) 8 1 d
K2a K 0.5 0.5 0.198(6) Uani 0.063(5) 4 0.4414 d
K2b K 0.5 0.5 0.419(5) Uani 0.063(5) 4 0.4381 d
P1 P 0.4102(3) 0.2725(3) 0.2877(8) Uani 0.0168(8) 8 1 d
O1 O 0.479(2) 0.304(3) 0.098(4) Uani 0.079(11) 8 1 d
O2 O 0.419(2) 0.1645(13) 0.354(4) Uani 0.075(10) 8 1 d
O3 O 0.3083(13) 0.293(2) 0.201(5) Uani 0.085(11) 8 1 d
O4 O 0.431(3) 0.3264(19) 0.509(5) Uani 0.096(14) 8 1 d
O5 O 0.3488(12) -0.1330(11) -0.025(3) Uani 0.031(4) 8 1 d
O6 O 0.5 0 0.027(3) Uani 0.020(4) 4 1 d
loop_
_atom_site_aniso_label
_atom_site_aniso_type_symbol
_atom_site_aniso_U_11
_atom_site_aniso_U_22
_atom_site_aniso_U_33
_atom_site_aniso_U_12
_atom_site_aniso_U_13
_atom_site_aniso_U_23
Bi1 Bi 0.0163(3) 0.0145(3) 0.0193(3) -0.0015(3) 0.0022(2) 0.0012(3)
K1 K 0.0163(3) 0.0145(3) 0.0193(3) -0.0015(3) 0.0022(2) 0.0012(3)
Bi2 Bi 0.0157(2) 0.0185(2) 0.0188(2) -0.00200(17) 0.00475(17) -0.0015(2)
K2a K 0.060(7) 0.025(4) 0.104(12) 0.001(5) 0 0
K2b K 0.060(7) 0.025(4) 0.104(12) 0.001(5) 0 0
P1 P 0.0137(13) 0.0177(14) 0.0189(15) 0.0014(11) 0.0012(13) 0.0020(14)
O1 O 0.064(16) 0.14(3) 0.039(10) -0.027(16) 0.016(10) 0.031(14)
O2 O 0.14(2) 0.019(7) 0.061(14) 0.001(10) -0.053(16) 0.003(8)
O3 O 0.022(7) 0.15(3) 0.079(16) 0.022(11) -0.007(10) 0.06(2)
O4 O 0.18(4) 0.045(14) 0.061(16) 0.006(18) -0.04(2) -0.020(12)
O5 O 0.040(8) 0.028(7) 0.026(6) -0.008(6) 0.000(6) -0.006(5)
O6 O 0.012(6) 0.031(8) 0.018(6) -0.002(5) 0 0
loop_
_atom_type_symbol
_atom_type_scat_dispersion_real
_atom_type_scat_dispersion_imag
_atom_type_scat_source
_atom_type_scat_Cromer_Mann_a1
_atom_type_scat_Cromer_Mann_b1
_atom_type_scat_Cromer_Mann_a2
_atom_type_scat_Cromer_Mann_b2
_atom_type_scat_Cromer_Mann_a3
_atom_type_scat_Cromer_Mann_b3
_atom_type_scat_Cromer_Mann_a4
_atom_type_scat_Cromer_Mann_b4
_atom_type_scat_Cromer_Mann_c
Bi -4.1077 10.2566 'International Tables Vol C tables 4.2.6.8 and 6.1.1.4'
33.3689 0.704 12.951 2.9238 16.5877 8.7937 6.4692 48.0093 13.5782
K 0.2009 0.2494 'International Tables Vol C tables 4.2.6.8 and 6.1.1.4' 8.2186
12.7949 7.4398 0.7748 1.0519 213.186996 0.8659 41.684101 1.4228
O 0.0106 0.0060 'International Tables Vol C tables 4.2.6.8 and 6.1.1.4' 3.0485
13.2771 2.2868 5.7011 1.5463 0.3239 0.867 32.908901 0.2508
P 0.1023 0.0942 'International Tables Vol C tables 4.2.6.8 and 6.1.1.4' 6.4345
1.9067 4.1791 27.157 1.78 0.526 1.4908 68.164497 1.1149
loop_
_geom_angle_atom_site_label_1
_geom_angle_atom_site_label_2
_geom_angle_atom_site_label_3
_geom_angle_site_symmetry_1
_geom_angle_site_symmetry_3
_geom_angle
Bi1 Bi1 Bi1 8_544 8_545 102.15(3)
Bi1 Bi1 K1 8_544 . 137(4)
Bi1 Bi1 K1 8_544 8_544 4.9(3)
Bi1 Bi1 K1 8_544 8_545 99.9(3)
Bi1 Bi1 Bi2 8_544 . 66.52(2)
Bi1 Bi1 K2a 8_544 1_545 127.4(5)
Bi1 Bi1 K2b 8_544 1_545 145.5(4)
Bi1 Bi1 K2b 8_544 3_556 156.7(3)
Bi1 Bi1 O3 8_544 5_545 67.2(7)
Bi1 Bi1 O5 8_544 . 36.1(4)
Bi1 Bi1 O5 8_544 8_545 105.1(4)
Bi1 Bi1 K1 8_545 . 107(4)
Bi1 Bi1 K1 8_545 8_544 98.0(3)
Bi1 Bi1 K1 8_545 8_545 3.3(3)
Bi1 Bi1 Bi2 8_545 . 64.21(2)
Bi1 Bi1 K2a 8_545 1_545 128.6(5)
Bi1 Bi1 K2b 8_545 1_545 110.4(4)
Bi1 Bi1 K2b 8_545 3_556 98.8(3)
Bi1 Bi1 O3 8_545 5_545 42.4(7)
Bi1 Bi1 O5 8_545 . 94.5(4)
Bi1 Bi1 O5 8_545 8_545 36.7(4)
K1 Bi1 K1 . 8_544 138(4)
K1 Bi1 K1 . 8_545 108(4)
K1 Bi1 Bi2 . . 156(4)
K1 Bi1 K2a . 1_545 26(4)
K1 Bi1 K2b . 1_545 19(4)
K1 Bi1 K2b . 3_556 23(4)
K1 Bi1 O3 . 5_545 118(4)
K1 Bi1 O5 . . 158(4)
K1 Bi1 O5 . 8_545 117(4)
K1 Bi1 K1 8_544 8_545 95.7(5)
K1 Bi1 Bi2 8_544 . 66.3(3)
K1 Bi1 K2a 8_544 1_545 130.6(6)
K1 Bi1 K2b 8_544 1_545 148.3(5)
K1 Bi1 K2b 8_544 3_556 158.8(4)
K1 Bi1 O3 8_544 5_545 62.4(8)
K1 Bi1 O5 8_544 . 38.3(5)
K1 Bi1 O5 8_544 8_545 103.4(5)
K1 Bi1 Bi2 8_545 . 65.1(3)
K1 Bi1 K2a 8_545 1_545 130.0(6)
K1 Bi1 K2b 8_545 1_545 112.0(5)
K1 Bi1 K2b 8_545 3_556 100.6(5)
K1 Bi1 O3 8_545 5_545 39.2(7)
K1 Bi1 O5 8_545 . 94.2(5)
K1 Bi1 O5 8_545 8_545 39.5(5)
Bi2 Bi1 K2a . 1_545 143.23(3)
Bi2 Bi1 K2b . 1_545 139.05(16)
Bi2 Bi1 K2b . 3_556 133.29(19)
Bi2 Bi1 O3 . 5_545 71.7(8)
Bi2 Bi1 O5 . . 36.2(4)
Bi2 Bi1 O5 . 8_545 42.0(4)
K2a Bi1 K2b 1_545 1_545 18.4(7)
K2a Bi1 K2b 1_545 3_556 30.1(6)
K2a Bi1 O3 1_545 5_545 143.4(8)
K2a Bi1 O5 1_545 . 132.8(6)
K2a Bi1 O5 1_545 8_545 123.2(6)
K2b Bi1 K2b 1_545 3_556 11.7(5)
K2b Bi1 O3 1_545 5_545 133.9(8)
K2b Bi1 O5 1_545 . 145.8(5)
K2b Bi1 O5 1_545 8_545 107.8(5)
K2b Bi1 O3 3_556 5_545 125.9(8)
K2b Bi1 O5 3_556 . 151.3(4)
K2b Bi1 O5 3_556 8_545 97.8(5)
O3 Bi1 O5 5_545 . 80.3(9)
O3 Bi1 O5 5_545 8_545 71.7(8)
O5 Bi1 O5 . 8_545 78.2(6)
Bi1 K1 Bi1 . 8_544 40(4)
Bi1 K1 Bi1 . 8_545 68(4)
Bi1 K1 K1 . 8_544 39(4)
Bi1 K1 K1 . 8_545 68(4)
Bi1 K1 Bi2 . . 22(4)
Bi1 K1 Bi2 . 5_545 121(4)
Bi1 K1 Bi2 . 8_544 54(4)
Bi1 K1 Bi2 . 8_545 79(4)
Bi1 K1 K2a . 1_545 151(4)
Bi1 K1 K2a . 3_555 125(4)
Bi1 K1 K2a . 3_556 147(4)
Bi1 K1 K2b . 1_545 159(4)
Bi1 K1 K2b . 3_556 156(4)
Bi1 K1 P1 . 2_655 100(4)
Bi1 K1 P1 . 3_555 97(4)
Bi1 K1 P1 . 3_556 127(4)
Bi1 K1 O1 . 2_655 101(4)
Bi1 K1 O3 . 3_555 75(4)
Bi1 K1 O3 . 5_545 55(4)
Bi1 K1 O4 . 3_556 150(5)
Bi1 K1 O5 . . 19(4)
Bi1 K1 O5 . 8_545 56(4)
Bi1 K1 Bi1 8_544 8_545 95.7(4)
Bi1 K1 K1 8_544 8_544 4.5(3)
Bi1 K1 K1 8_544 8_545 93.9(5)
Bi1 K1 Bi2 8_544 . 61.3(3)
Bi1 K1 Bi2 8_544 5_545 95.3(5)
Bi1 K1 Bi2 8_544 8_544 54.8(3)
Bi1 K1 Bi2 8_544 8_545 118.2(4)
Bi1 K1 K2a 8_544 1_545 128.8(9)
Bi1 K1 K2a 8_544 3_555 96.8(6)
Bi1 K1 K2a 8_544 3_556 173.2(6)
Bi1 K1 K2b 8_544 1_545 148.7(8)
Bi1 K1 K2b 8_544 3_556 161.0(7)
Bi1 K1 P1 8_544 2_655 118.4(6)
Bi1 K1 P1 8_544 3_555 58.0(4)
Bi1 K1 P1 8_544 3_556 135.1(6)
Bi1 K1 O1 8_544 2_655 103.3(10)
Bi1 K1 O3 8_544 3_555 36.2(5)
Bi1 K1 O3 8_544 5_545 61.6(8)
Bi1 K1 O4 8_544 3_556 141.4(10)
Bi1 K1 O5 8_544 . 33.6(5)
Bi1 K1 O5 8_544 8_545 94.9(7)
Bi1 K1 K1 8_545 8_544 92.0(5)
Bi1 K1 K1 8_545 8_545 3.2(3)
Bi1 K1 Bi2 8_545 . 60.3(3)
Bi1 K1 Bi2 8_545 5_545 88.5(5)
Bi1 K1 Bi2 8_545 8_544 117.1(5)
Bi1 K1 Bi2 8_545 8_545 55.8(3)
Bi1 K1 K2a 8_545 1_545 135.0(9)
Bi1 K1 K2a 8_545 3_555 166.6(7)
Bi1 K1 K2a 8_545 3_556 89.5(6)
Bi1 K1 K2b 8_545 1_545 115.1(8)
Bi1 K1 K2b 8_545 3_556 102.5(7)
Bi1 K1 P1 8_545 2_655 108.6(6)
Bi1 K1 P1 8_545 3_555 134.2(6)
Bi1 K1 P1 8_545 3_556 60.0(4)
Bi1 K1 O1 8_545 2_655 132.6(10)
Bi1 K1 O3 8_545 3_555 125.8(10)
Bi1 K1 O3 8_545 5_545 41.0(7)
Bi1 K1 O4 8_545 3_556 82.9(10)
Bi1 K1 O5 8_545 . 87.0(6)
Bi1 K1 O5 8_545 8_545 35.7(5)
K1 K1 K1 8_544 8_545 90.1(6)
K1 K1 Bi2 8_544 . 61.2(4)
K1 K1 Bi2 8_544 5_545 92.5(5)
K1 K1 Bi2 8_544 8_544 58.9(4)
K1 K1 Bi2 8_544 8_545 118.1(5)
K1 K1 K2a 8_544 1_545 132.0(9)
K1 K1 K2a 8_544 3_555 100.2(7)
K1 K1 K2a 8_544 3_556 172.8(6)
K1 K1 K2b 8_544 1_545 151.6(8)
K1 K1 K2b 8_544 3_556 163.4(8)
K1 K1 P1 8_544 2_655 122.3(7)
K1 K1 P1 8_544 3_555 59.2(5)
K1 K1 P1 8_544 3_556 130.7(7)
K1 K1 O1 8_544 2_655 107.8(10)
K1 K1 O3 8_544 3_555 38.2(6)
K1 K1 O3 8_544 5_545 57.1(8)
K1 K1 O4 8_544 3_556 138.3(10)
K1 K1 O5 8_544 . 35.5(6)
K1 K1 O5 8_544 8_545 93.4(7)
K1 K1 Bi2 8_545 . 61.3(4)
K1 K1 Bi2 8_545 5_545 86.0(5)
K1 K1 Bi2 8_545 8_544 118.1(5)
K1 K1 Bi2 8_545 8_545 59.0(4)
K1 K1 K2a 8_545 1_545 136.3(9)
K1 K1 K2a 8_545 3_555 166.8(7)
K1 K1 K2a 8_545 3_556 91.1(6)
K1 K1 K2b 8_545 1_545 116.5(8)
K1 K1 K2b 8_545 3_556 104.1(7)
K1 K1 P1 8_545 2_655 111.8(7)
K1 K1 P1 8_545 3_555 131.1(7)
K1 K1 P1 8_545 3_556 59.7(5)
K1 K1 O1 8_545 2_655 135.7(11)
K1 K1 O3 8_545 3_555 123.1(10)
K1 K1 O3 8_545 5_545 38.0(8)
K1 K1 O4 8_545 3_556 82.7(11)
K1 K1 O5 8_545 . 86.9(7)
K1 K1 O5 8_545 8_545 38.4(6)
Bi2 K1 Bi2 . 5_545 135.9(6)
Bi2 K1 Bi2 . 8_544 56.8(3)
Bi2 K1 Bi2 . 8_545 56.9(3)
Bi2 K1 K2a . 1_545 142.7(6)
Bi2 K1 K2a . 3_555 131.1(6)
Bi2 K1 K2a . 3_556 125.4(6)
Bi2 K1 K2b . 1_545 139.3(6)
Bi2 K1 K2b . 3_556 133.4(6)
Bi2 K1 P1 . 2_655 83.1(4)
Bi2 K1 P1 . 3_555 118.3(6)
Bi2 K1 P1 . 3_556 119.2(6)
Bi2 K1 O1 . 2_655 91.8(10)
Bi2 K1 O3 . 3_555 95.6(7)
Bi2 K1 O3 . 5_545 64.7(8)
Bi2 K1 O4 . 3_556 141.0(12)
Bi2 K1 O5 . . 32.6(4)
Bi2 K1 O5 . 8_545 36.8(5)
Bi2 K1 Bi2 5_545 8_544 140.2(6)
Bi2 K1 Bi2 5_545 8_545 131.1(6)
Bi2 K1 K2a 5_545 1_545 81.4(4)
Bi2 K1 K2a 5_545 3_555 85.3(4)
Bi2 K1 K2a 5_545 3_556 80.4(3)
Bi2 K1 K2b 5_545 1_545 80.2(4)
Bi2 K1 K2b 5_545 3_556 80.1(3)
Bi2 K1 P1 5_545 2_655 139.3(6)
Bi2 K1 P1 5_545 3_555 61.1(3)
Bi2 K1 P1 5_545 3_556 51.0(3)
Bi2 K1 O1 5_545 2_655 131.4(11)
Bi2 K1 O3 5_545 3_555 77.4(8)
Bi2 K1 O3 5_545 5_545 71.3(8)
Bi2 K1 O4 5_545 3_556 46.2(7)
Bi2 K1 O5 5_545 . 127.4(8)
Bi2 K1 O5 5_545 8_545 124.0(8)
Bi2 K1 Bi2 8_544 8_545 88.4(4)
Bi2 K1 K2a 8_544 1_545 97.3(7)
Bi2 K1 K2a 8_544 3_555 74.6(5)
Bi2 K1 K2a 8_544 3_556 126.3(5)
Bi2 K1 K2b 8_544 1_545 111.1(6)
Bi2 K1 K2b 8_544 3_556 119.0(6)
Bi2 K1 P1 8_544 2_655 63.8(4)
Bi2 K1 P1 8_544 3_555 79.8(5)
Bi2 K1 P1 8_544 3_556 168.3(7)
Bi2 K1 O1 8_544 2_655 51.0(8)
Bi2 K1 O3 8_544 3_555 63.0(8)
Bi2 K1 O3 8_544 5_545 107.4(9)
Bi2 K1 O4 8_544 3_556 155.8(11)
Bi2 K1 O5 8_544 . 36.1(5)
Bi2 K1 O5 8_544 8_545 87.6(6)
Bi2 K1 K2a 8_545 1_545 100.4(7)
Bi2 K1 K2a 8_545 3_555 121.3(6)
Bi2 K1 K2a 8_545 3_556 68.5(4)
Bi2 K1 K2b 8_545 1_545 86.2(6)
Bi2 K1 K2b 8_545 3_556 77.3(5)
Bi2 K1 P1 8_545 2_655 52.8(3)
Bi2 K1 P1 8_545 3_555 167.3(7)
Bi2 K1 P1 8_545 3_556 80.8(5)
Bi2 K1 O1 8_545 2_655 77.0(9)
Bi2 K1 O3 8_545 3_555 149.2(9)
Bi2 K1 O3 8_545 5_545 93.3(9)
Bi2 K1 O4 8_545 3_556 92.9(10)
Bi2 K1 O5 8_545 . 86.6(6)
Bi2 K1 O5 8_545 8_545 29.0(5)
K2a K1 K2a 1_545 3_555 32.1(7)
K2a K1 K2a 1_545 3_556 45.6(7)
K2a K1 K2b 1_545 1_545 20.0(7)
K2a K1 K2b 1_545 3_556 32.6(7)
K2a K1 P1 1_545 2_655 60.2(4)
K2a K1 P1 1_545 3_555 76.9(6)
K2a K1 P1 1_545 3_556 80.3(7)
K2a K1 O1 1_545 2_655 52.0(9)
K2a K1 O3 1_545 3_555 94.6(10)
K2a K1 O3 1_545 5_545 152.1(10)
K2a K1 O4 1_545 3_556 58.7(9)
K2a K1 O5 1_545 . 133.1(10)
K2a K1 O5 1_545 8_545 129.3(10)
K2a K1 K2a 3_555 3_556 77.7(6)
K2a K1 K2b 3_555 1_545 52.1(6)
K2a K1 K2b 3_555 3_556 64.6(6)
K2a K1 P1 3_555 2_655 69.5(4)
K2a K1 P1 3_555 3_555 51.2(4)
K2a K1 P1 3_555 3_556 107.1(6)
K2a K1 O1 3_555 2_655 48.5(9)
K2a K1 O3 3_555 3_555 64.3(8)
K2a K1 O3 3_555 5_545 145.4(10)
K2a K1 O4 3_555 3_556 84.2(10)
K2a K1 O5 3_555 . 106.2(8)
K2a K1 O5 3_555 8_545 147.2(9)
K2a K1 K2b 3_556 1_545 25.6(5)
K2a K1 K2b 3_556 3_556 13.0(5)
K2a K1 P1 3_556 2_655 63.6(4)
K2a K1 P1 3_556 3_555 115.2(5)
K2a K1 P1 3_556 3_556 45.0(3)
K2a K1 O1 3_556 2_655 76.1(9)
K2a K1 O3 3_556 3_555 137.0(8)
K2a K1 O3 3_556 5_545 121.2(10)
K2a K1 O4 3_556 3_556 35.0(7)
K2a K1 O5 3_556 . 151.8(8)
K2a K1 O5 3_556 8_545 91.9(8)
K2b K1 K2b 1_545 3_556 12.6(6)
K2b K1 P1 1_545 2_655 59.1(4)
K2b K1 P1 1_545 3_555 93.8(6)
K2b K1 P1 1_545 3_556 63.9(5)
K2b K1 O1 1_545 2_655 60.9(9)
K2b K1 O3 1_545 3_555 113.5(9)
K2b K1 O3 1_545 5_545 141.5(11)
K2b K1 O4 1_545 3_556 45.0(8)
K2b K1 O5 1_545 . 146.6(9)
K2b K1 O5 1_545 8_545 113.5(9)
K2b K1 P1 3_556 2_655 60.6(4)
K2b K1 P1 3_556 3_555 104.4(5)
K2b K1 P1 3_556 3_556 54.1(4)
K2b K1 O1 3_556 2_655 68.0(9)
K2b K1 O3 3_556 3_555 125.2(9)
K2b K1 O3 3_556 5_545 132.0(11)
K2b K1 O4 3_556 3_556 38.6(7)
K2b K1 O5 3_556 . 151.6(9)
K2b K1 O5 3_556 8_545 103.0(9)
P1 K1 P1 2_655 3_555 116.8(7)
P1 K1 P1 2_655 3_556 105.6(6)
P1 K1 O1 2_655 2_655 25.1(7)
P1 K1 O3 2_655 3_555 116.0(11)
P1 K1 O3 2_655 5_545 143.5(10)
P1 K1 O4 2_655 3_556 98.2(9)
P1 K1 O5 2_655 . 91.0(7)
P1 K1 O5 2_655 8_545 77.9(7)
P1 K1 P1 3_555 3_556 110.5(5)
P1 K1 O1 3_555 2_655 92.0(9)
P1 K1 O3 3_555 3_555 22.7(5)
P1 K1 O3 3_555 5_545 94.5(9)
P1 K1 O4 3_555 3_556 96.0(10)
P1 K1 O5 3_555 . 86.5(7)
P1 K1 O5 3_555 8_545 152.5(9)
P1 K1 O1 3_556 2_655 121.2(10)
P1 K1 O3 3_556 3_555 128.4(9)
P1 K1 O3 3_556 5_545 78.0(9)
P1 K1 O4 3_556 3_556 23.0(9)
P1 K1 O5 3_556 . 146.2(9)
P1 K1 O5 3_556 8_545 85.2(8)
O1 K1 O3 2_655 3_555 91.8(12)
O1 K1 O3 2_655 5_545 155.8(14)
O1 K1 O4 2_655 3_556 105.8(13)
O1 K1 O5 2_655 . 85.7(11)
O1 K1 O5 2_655 8_545 98.9(11)
O3 K1 O3 3_555 5_545 85.4(12)
O3 K1 O4 3_555 3_556 117.8(12)
O3 K1 O5 3_555 . 63.8(8)
O3 K1 O5 3_555 8_545 130.9(10)
O3 K1 O4 5_545 3_556 96.7(12)
O3 K1 O5 5_545 . 71.5(9)
O3 K1 O5 5_545 8_545 66.0(9)
O4 K1 O5 3_556 . 168.1(13)
O4 K1 O5 3_556 8_545 105.0(13)
O5 K1 O5 . 8_545 69.4(7)
Bi1 Bi2 K1 . . 2.0(3)
Bi1 Bi2 K1 . 5_555 130.5(3)
Bi1 Bi2 K1 . 8_544 57.9(3)
Bi1 Bi2 K1 . 8_545 60.2(3)
Bi1 Bi2 Bi2 . 2_655 94.61(2)
Bi1 Bi2 O2 . 7_554 116.6(8)
Bi1 Bi2 O5 . . 36.4(4)
Bi1 Bi2 O6 . . 93.29(3)
K1 Bi2 K1 . 5_555 131.7(4)
K1 Bi2 K1 . 8_544 59.8(5)
K1 Bi2 K1 . 8_545 59.7(5)
K1 Bi2 Bi2 . 2_655 93.3(3)
K1 Bi2 O2 . 7_554 118.3(8)
K1 Bi2 O5 . . 37.9(5)
K1 Bi2 O6 . . 92.9(3)
K1 Bi2 K1 5_555 8_544 90.7(4)
K1 Bi2 K1 5_555 8_545 84.2(4)
K1 Bi2 Bi2 5_555 2_655 134.7(3)
K1 Bi2 O2 5_555 7_554 67.6(7)
K1 Bi2 O5 5_555 . 121.7(5)
K1 Bi2 O6 5_555 . 130.3(3)
K1 Bi2 K1 8_544 8_545 88.4(4)
K1 Bi2 Bi2 8_544 2_655 122.6(3)
K1 Bi2 O2 8_544 7_554 62.9(8)
K1 Bi2 O5 8_544 . 31.1(5)
K1 Bi2 O6 8_544 . 96.4(5)
K1 Bi2 Bi2 8_545 2_655 122.5(3)
K1 Bi2 O2 8_545 7_554 138.3(5)
K1 Bi2 O5 8_545 . 89.7(5)
K1 Bi2 O6 8_545 . 144.9(4)
Bi2 Bi2 O2 2_655 7_554 99.0(4)
Bi2 Bi2 O5 2_655 . 96.4(4)
Bi2 Bi2 O6 2_655 . 30.5(4)
O2 Bi2 O5 7_554 . 80.5(8)
O2 Bi2 O6 7_554 . 72.3(6)
O5 Bi2 O6 . . 77.6(5)
Bi1 K2a Bi1 1_565 2_655 178.8(11)
Bi1 K2a K1 1_565 1_565 2.4(4)
Bi1 K2a K1 1_565 2_655 176.7(10)
Bi1 K2a K1 1_565 3_665 88.8(4)
Bi1 K2a K1 1_565 3_666 88.3(4)
Bi1 K2a K1 1_565 4_555 91.8(4)
Bi1 K2a K1 1_565 4_556 90.9(5)
Bi1 K2a K2a 1_565 3_565 90.6(5)
Bi1 K2a K2a 1_565 3_566 89.4(5)
Bi1 K2a K2b 1_565 1_554 90.6(5)
Bi1 K2a K2b 1_565 . 89.4(5)
Bi1 K2a K2b 1_565 3_565 90.6(5)
Bi1 K2a K2b 1_565 3_566 89.4(5)
Bi1 K2a P1 1_565 . 124.56(18)
Bi1 K2a P1 1_565 2_665 55.22(7)
Bi1 K2a O1 1_565 . 139.3(7)
Bi1 K2a O1 1_565 2_665 41.0(6)
Bi1 K2a K1 2_655 1_565 176.7(10)
Bi1 K2a K1 2_655 2_655 2.4(4)
Bi1 K2a K1 2_655 3_665 91.8(4)
Bi1 K2a K1 2_655 3_666 90.9(5)
Bi1 K2a K1 2_655 4_555 88.8(4)
Bi1 K2a K1 2_655 4_556 88.3(4)
Bi1 K2a K2a 2_655 3_565 90.6(5)
Bi1 K2a K2a 2_655 3_566 89.4(5)
Bi1 K2a K2b 2_655 1_554 90.6(5)
Bi1 K2a K2b 2_655 . 89.4(5)
Bi1 K2a K2b 2_655 3_565 90.6(5)
Bi1 K2a K2b 2_655 3_566 89.4(5)
Bi1 K2a P1 2_655 . 55.22(7)
Bi1 K2a P1 2_655 2_665 124.56(18)
Bi1 K2a O1 2_655 . 41.0(6)
Bi1 K2a O1 2_655 2_665 139.3(7)
K1 K2a K1 1_565 2_655 175.6(13)
K1 K2a K1 1_565 3_665 91.2(6)
K1 K2a K1 1_565 3_666 88.5(6)
K1 K2a K1 1_565 4_555 91.2(6)
K1 K2a K1 1_565 4_556 88.5(6)
K1 K2a K2a 1_565 3_565 92.2(7)
K1 K2a K2a 1_565 3_566 87.8(7)
K1 K2a K2b 1_565 1_554 92.2(7)
K1 K2a K2b 1_565 . 87.8(7)
K1 K2a K2b 1_565 3_565 92.2(7)
K1 K2a K2b 1_565 3_566 87.8(7)
K1 K2a P1 1_565 . 122.5(4)
K1 K2a P1 1_565 2_665 56.7(4)
K1 K2a O1 1_565 . 138.0(7)
K1 K2a O1 1_565 2_665 43.3(7)
K1 K2a K1 2_655 3_665 91.2(6)
K1 K2a K1 2_655 3_666 88.5(6)
K1 K2a K1 2_655 4_555 91.2(6)
K1 K2a K1 2_655 4_556 88.5(6)
K1 K2a K2a 2_655 3_565 92.2(7)
K1 K2a K2a 2_655 3_566 87.8(7)
K1 K2a K2b 2_655 1_554 92.2(7)
K1 K2a K2b 2_655 . 87.8(7)
K1 K2a K2b 2_655 3_565 92.2(7)
K1 K2a K2b 2_655 3_566 87.8(7)
K1 K2a P1 2_655 . 56.7(4)
K1 K2a P1 2_655 2_665 122.5(4)
K1 K2a O1 2_655 . 43.3(7)
K1 K2a O1 2_655 2_665 138.0(7)
K1 K2a K1 3_665 3_666 77.7(4)
K1 K2a K1 3_665 4_555 111.5(9)
K1 K2a K1 3_665 4_556 170.8(8)
K1 K2a K2a 3_665 3_565 55.7(5)
K1 K2a K2a 3_665 3_566 124.3(5)
K1 K2a K2b 3_665 1_554 55.7(5)
K1 K2a K2b 3_665 . 124.3(5)
K1 K2a K2b 3_665 3_565 55.7(5)
K1 K2a K2b 3_665 3_566 124.3(5)
K1 K2a P1 3_665 . 140.1(7)
K1 K2a P1 3_665 2_665 53.3(4)
K1 K2a O1 3_665 . 114.7(10)
K1 K2a O1 3_665 2_665 49.6(7)
K1 K2a K1 3_666 4_555 170.8(8)
K1 K2a K1 3_666 4_556 93.2(7)
K1 K2a K2a 3_666 3_565 133.4(4)
K1 K2a K2a 3_666 3_566 46.6(4)
K1 K2a K2b 3_666 1_554 133.4(4)
K1 K2a K2b 3_666 . 46.6(4)
K1 K2a K2b 3_666 3_565 133.4(4)
K1 K2a K2b 3_666 3_566 46.6(4)
K1 K2a P1 3_666 . 119.8(8)
K1 K2a P1 3_666 2_665 45.3(4)
K1 K2a O1 3_666 . 127.5(9)
K1 K2a O1 3_666 2_665 70.8(7)
K1 K2a K1 4_555 4_556 77.7(4)
K1 K2a K2a 4_555 3_565 55.7(5)
K1 K2a K2a 4_555 3_566 124.3(5)
K1 K2a K2b 4_555 1_554 55.7(5)
K1 K2a K2b 4_555 . 124.3(5)
K1 K2a K2b 4_555 3_565 55.7(5)
K1 K2a K2b 4_555 3_566 124.3(5)
K1 K2a P1 4_555 . 53.3(4)
K1 K2a P1 4_555 2_665 140.1(7)
K1 K2a O1 4_555 . 49.6(7)
K1 K2a O1 4_555 2_665 114.7(10)
K1 K2a K2a 4_556 3_565 133.4(4)
K1 K2a K2a 4_556 3_566 46.6(4)
K1 K2a K2b 4_556 1_554 133.4(4)
K1 K2a K2b 4_556 . 46.6(4)
K1 K2a K2b 4_556 3_565 133.4(4)
K1 K2a K2b 4_556 3_566 46.6(4)
K1 K2a P1 4_556 . 45.3(4)
K1 K2a P1 4_556 2_665 119.8(8)
K1 K2a O1 4_556 . 70.8(7)
K1 K2a O1 4_556 2_665 127.5(9)
K2a K2a K2a 3_565 3_566 180.0(5)
K2a K2a K2b 3_565 1_554 0.0(5)
K2a K2a K2b 3_565 . 180.0(5)
K2a K2a K2b 3_565 3_565 0.0(5)
K2a K2a K2b 3_565 3_566 180.0(5)
K2a K2a P1 3_565 . 98.7(6)
K2a K2a P1 3_565 2_665 98.7(6)
K2a K2a O1 3_565 . 78.2(9)
K2a K2a O1 3_565 2_665 78.2(9)
K2a K2a K2b 3_566 1_554 180.0(5)
K2a K2a K2b 3_566 . 0.0(5)
K2a K2a K2b 3_566 3_565 180.0(5)
K2a K2a K2b 3_566 3_566 0.0(5)
K2a K2a P1 3_566 . 81.3(6)
K2a K2a P1 3_566 2_665 81.3(6)
K2a K2a O1 3_566 . 101.8(9)
K2a K2a O1 3_566 2_665 101.8(9)
K2b K2a K2b 1_554 . 180.0(5)
K2b K2a K2b 1_554 3_565 0.0(5)
K2b K2a K2b 1_554 3_566 180.0(5)
K2b K2a P1 1_554 . 98.7(6)
K2b K2a P1 1_554 2_665 98.7(6)
K2b K2a O1 1_554 . 78.2(9)
K2b K2a O1 1_554 2_665 78.2(9)
K2b K2a K2b . 3_565 180.0(5)
K2b K2a K2b . 3_566 0.0(5)
K2b K2a P1 . . 81.3(6)
K2b K2a P1 . 2_665 81.3(6)
K2b K2a O1 . . 101.8(9)
K2b K2a O1 . 2_665 101.8(9)
K2b K2a K2b 3_565 3_566 180.0(5)
K2b K2a P1 3_565 . 98.7(6)
K2b K2a P1 3_565 2_665 98.7(6)
K2b K2a O1 3_565 . 78.2(9)
K2b K2a O1 3_565 2_665 78.2(9)
K2b K2a P1 3_566 . 81.3(6)
K2b K2a P1 3_566 2_665 81.3(6)
K2b K2a O1 3_566 . 101.8(9)
K2b K2a O1 3_566 2_665 101.8(9)
P1 K2a P1 . 2_665 162.7(12)
P1 K2a O1 . . 25.6(5)
P1 K2a O1 . 2_665 164.5(6)
P1 K2a O1 2_665 . 164.5(6)
P1 K2a O1 2_665 2_665 25.6(5)
O1 K2a O1 . 2_665 156.5(16)
Bi1 K2b Bi1 1_565 2_655 144.4(8)
Bi1 K2b Bi1 1_565 3_666 98.65(10)
Bi1 K2b Bi1 1_565 4_556 98.65(10)
Bi1 K2b K1 1_565 1_565 1.7(3)
Bi1 K2b K1 1_565 2_655 144.3(9)
Bi1 K2b K1 1_565 3_666 97.4(3)
Bi1 K2b K1 1_565 4_556 100.4(3)
Bi1 K2b K2a 1_565 . 72.2(4)
Bi1 K2b K2a 1_565 1_556 107.8(4)
Bi1 K2b K2a 1_565 3_565 72.2(4)
Bi1 K2b K2a 1_565 3_566 107.8(4)
Bi1 K2b K2b 1_565 3_565 72.2(4)
Bi1 K2b K2b 1_565 3_566 107.8(4)
Bi1 K2b P1 1_565 . 118.0(4)
Bi1 K2b P1 1_565 2_665 53.06(14)
Bi1 K2b O4 1_565 . 126.6(10)
Bi1 K2b O4 1_565 2_665 61.5(9)
Bi1 K2b O4 1_565 3_566 43.9(9)
Bi1 K2b O4 1_565 4_656 144.8(10)
Bi1 K2b Bi1 2_655 3_666 98.65(10)
Bi1 K2b Bi1 2_655 4_556 98.65(10)
Bi1 K2b K1 2_655 1_565 144.3(9)
Bi1 K2b K1 2_655 2_655 1.7(3)
Bi1 K2b K1 2_655 3_666 100.4(3)
Bi1 K2b K1 2_655 4_556 97.4(3)
Bi1 K2b K2a 2_655 . 72.2(4)
Bi1 K2b K2a 2_655 1_556 107.8(4)
Bi1 K2b K2a 2_655 3_565 72.2(4)
Bi1 K2b K2a 2_655 3_566 107.8(4)
Bi1 K2b K2b 2_655 3_565 72.2(4)
Bi1 K2b K2b 2_655 3_566 107.8(4)
Bi1 K2b P1 2_655 . 53.06(14)
Bi1 K2b P1 2_655 2_665 118.0(4)
Bi1 K2b O4 2_655 . 61.5(9)
Bi1 K2b O4 2_655 2_665 126.6(10)
Bi1 K2b O4 2_655 3_566 144.8(10)
Bi1 K2b O4 2_655 4_656 43.9(9)
Bi1 K2b Bi1 3_666 4_556 121.1(7)
Bi1 K2b K1 3_666 1_565 100.2(3)
Bi1 K2b K1 3_666 2_655 97.1(4)
Bi1 K2b K1 3_666 3_666 1.8(3)
Bi1 K2b K1 3_666 4_556 120.1(7)
Bi1 K2b K2a 3_666 . 119.5(3)
Bi1 K2b K2a 3_666 1_556 60.5(3)
Bi1 K2b K2a 3_666 3_565 119.5(3)
Bi1 K2b K2a 3_666 3_566 60.5(3)
Bi1 K2b K2b 3_666 3_565 119.5(3)
Bi1 K2b K2b 3_666 3_566 60.5(3)
Bi1 K2b P1 3_666 . 143.3(4)
Bi1 K2b P1 3_666 2_665 53.92(15)
Bi1 K2b O4 3_666 . 127.0(11)
Bi1 K2b O4 3_666 2_665 37.3(9)
Bi1 K2b O4 3_666 3_566 114.6(10)
Bi1 K2b O4 3_666 4_656 55.1(9)
Bi1 K2b K1 4_556 1_565 97.1(4)
Bi1 K2b K1 4_556 2_655 100.2(3)
Bi1 K2b K1 4_556 3_666 120.1(7)
Bi1 K2b K1 4_556 4_556 1.8(3)
Bi1 K2b K2a 4_556 . 119.5(3)
Bi1 K2b K2a 4_556 1_556 60.5(3)
Bi1 K2b K2a 4_556 3_565 119.5(3)
Bi1 K2b K2a 4_556 3_566 60.5(3)
Bi1 K2b K2b 4_556 3_565 119.5(3)
Bi1 K2b K2b 4_556 3_566 60.5(3)
Bi1 K2b P1 4_556 . 53.92(15)
Bi1 K2b P1 4_556 2_665 143.3(4)
Bi1 K2b O4 4_556 . 37.3(9)
Bi1 K2b O4 4_556 2_665 127.0(11)
Bi1 K2b O4 4_556 3_566 55.1(9)
Bi1 K2b O4 4_556 4_656 114.6(10)
K1 K2b K1 1_565 2_655 144.3(10)
K1 K2b K1 1_565 3_666 98.9(5)
K1 K2b K1 1_565 4_556 98.9(5)
K1 K2b K2a 1_565 . 72.2(6)
K1 K2b K2a 1_565 1_556 107.8(6)
K1 K2b K2a 1_565 3_565 72.2(6)
K1 K2b K2a 1_565 3_566 107.8(6)
K1 K2b K2b 1_565 3_565 72.2(6)
K1 K2b K2b 1_565 3_566 107.8(6)
K1 K2b P1 1_565 . 116.4(5)
K1 K2b P1 1_565 2_665 54.8(4)
K1 K2b O4 1_565 . 124.9(10)
K1 K2b O4 1_565 2_665 63.1(9)
K1 K2b O4 1_565 3_566 42.5(9)
K1 K2b O4 1_565 4_656 146.5(10)
K1 K2b K1 2_655 3_666 98.9(5)
K1 K2b K1 2_655 4_556 98.9(5)
K1 K2b K2a 2_655 . 72.2(6)
K1 K2b K2a 2_655 1_556 107.8(6)
K1 K2b K2a 2_655 3_565 72.2(6)
K1 K2b K2a 2_655 3_566 107.8(6)
K1 K2b K2b 2_655 3_565 72.2(6)
K1 K2b K2b 2_655 3_566 107.8(6)
K1 K2b P1 2_655 . 54.8(4)
K1 K2b P1 2_655 2_665 116.4(5)
K1 K2b O4 2_655 . 63.1(9)
K1 K2b O4 2_655 2_665 124.9(10)
K1 K2b O4 2_655 3_566 146.5(10)
K1 K2b O4 2_655 4_656 42.5(9)
K1 K2b K1 3_666 4_556 119.2(8)
K1 K2b K2a 3_666 . 120.4(5)
K1 K2b K2a 3_666 1_556 59.6(5)
K1 K2b K2a 3_666 3_565 120.4(5)
K1 K2b K2a 3_666 3_566 59.6(5)
K1 K2b K2b 3_666 3_565 120.4(5)
K1 K2b K2b 3_666 3_566 59.6(5)
K1 K2b P1 3_666 . 144.4(5)
K1 K2b P1 3_666 2_665 53.5(4)
K1 K2b O4 3_666 . 127.4(11)
K1 K2b O4 3_666 2_665 36.2(9)
K1 K2b O4 3_666 3_566 112.8(10)
K1 K2b O4 3_666 4_656 56.8(10)
K1 K2b K2a 4_556 . 120.4(5)
K1 K2b K2a 4_556 1_556 59.6(5)
K1 K2b K2a 4_556 3_565 120.4(5)
K1 K2b K2a 4_556 3_566 59.6(5)
K1 K2b K2b 4_556 3_565 120.4(5)
K1 K2b K2b 4_556 3_566 59.6(5)
K1 K2b P1 4_556 . 53.5(4)
K1 K2b P1 4_556 2_665 144.4(5)
K1 K2b O4 4_556 . 36.2(9)
K1 K2b O4 4_556 2_665 127.4(11)
K1 K2b O4 4_556 3_566 56.8(10)
K1 K2b O4 4_556 4_656 112.8(10)
K2a K2b K2a . 1_556 180.0(5)
K2a K2b K2a . 3_565 0.0(5)
K2a K2b K2a . 3_566 180.0(5)
K2a K2b K2b . 3_565 0.0(5)
K2a K2b K2b . 3_566 180.0(5)
K2a K2b P1 . . 77.5(5)
K2a K2b P1 . 2_665 77.5(5)
K2a K2b O4 . . 101.3(9)
K2a K2b O4 . 2_665 101.3(9)
K2a K2b O4 . 3_566 99.1(9)
K2a K2b O4 . 4_656 99.1(9)
K2a K2b K2a 1_556 3_565 180.0(5)
K2a K2b K2a 1_556 3_566 0.0(5)
K2a K2b K2b 1_556 3_565 180.0(5)
K2a K2b K2b 1_556 3_566 0.0(5)
K2a K2b P1 1_556 . 102.5(5)
K2a K2b P1 1_556 2_665 102.5(5)
K2a K2b O4 1_556 . 78.7(9)
K2a K2b O4 1_556 2_665 78.7(9)
K2a K2b O4 1_556 3_566 80.9(9)
K2a K2b O4 1_556 4_656 80.9(9)
K2a K2b K2a 3_565 3_566 180.0(5)
K2a K2b K2b 3_565 3_565 0.0(5)
K2a K2b K2b 3_565 3_566 180.0(5)
K2a K2b P1 3_565 . 77.5(5)
K2a K2b P1 3_565 2_665 77.5(5)
K2a K2b O4 3_565 . 101.3(9)
K2a K2b O4 3_565 2_665 101.3(9)
K2a K2b O4 3_565 3_566 99.1(9)
K2a K2b O4 3_565 4_656 99.1(9)
K2a K2b K2b 3_566 3_565 180.0(5)
K2a K2b K2b 3_566 3_566 0.0(5)
K2a K2b P1 3_566 . 102.5(5)
K2a K2b P1 3_566 2_665 102.5(5)
K2a K2b O4 3_566 . 78.7(9)
K2a K2b O4 3_566 2_665 78.7(9)
K2a K2b O4 3_566 3_566 80.9(9)
K2a K2b O4 3_566 4_656 80.9(9)
K2b K2b K2b 3_565 3_566 180.0(5)
K2b K2b P1 3_565 . 77.5(5)
K2b K2b P1 3_565 2_665 77.5(5)
K2b K2b O4 3_565 . 101.3(9)
K2b K2b O4 3_565 2_665 101.3(9)
K2b K2b O4 3_565 3_566 99.1(9)
K2b K2b O4 3_565 4_656 99.1(9)
K2b K2b P1 3_566 . 102.5(5)
K2b K2b P1 3_566 2_665 102.5(5)
K2b K2b O4 3_566 . 78.7(9)
K2b K2b O4 3_566 2_665 78.7(9)
K2b K2b O4 3_566 3_566 80.9(9)
K2b K2b O4 3_566 4_656 80.9(9)
P1 K2b P1 . 2_665 155.0(9)
P1 K2b O4 . . 23.8(7)
P1 K2b O4 . 2_665 178.9(13)
P1 K2b O4 . 3_566 92.0(9)
P1 K2b O4 . 4_656 91.9(10)
P1 K2b O4 2_665 . 178.9(13)
P1 K2b O4 2_665 2_665 23.8(7)
P1 K2b O4 2_665 3_566 91.9(10)
P1 K2b O4 2_665 4_656 92.0(9)
O4 K2b O4 . 2_665 157.3(15)
O4 K2b O4 . 3_566 88.2(13)
O4 K2b O4 . 4_656 88.2(13)
O4 K2b O4 2_665 3_566 88.2(13)
O4 K2b O4 2_665 4_656 88.2(13)
O4 K2b O4 3_566 4_656 161.9(15)
K1 P1 K1 2_655 4_555 109.7(5)
K1 P1 K1 2_655 4_556 122.5(5)
K1 P1 K2a 2_655 . 63.1(3)
K1 P1 K2b 2_655 . 66.1(4)
K1 P1 O1 2_655 . 42.9(11)
K1 P1 O2 2_655 . 91.9(13)
K1 P1 O3 2_655 . 149.7(12)
K1 P1 O4 2_655 . 82.1(18)
K1 P1 K1 4_555 4_556 110.5(5)
K1 P1 K2a 4_555 . 75.5(6)
K1 P1 K2b 4_555 . 93.1(5)
K1 P1 O1 4_555 . 66.9(11)
K1 P1 O2 4_555 . 123.2(11)
K1 P1 O3 4_555 . 40.6(11)
K1 P1 O4 4_555 . 129.0(13)
K1 P1 K2a 4_556 . 89.7(6)
K1 P1 K2b 4_556 . 72.3(5)
K1 P1 O1 4_556 . 142.5(14)
K1 P1 O2 4_556 . 98.7(11)
K1 P1 O3 4_556 . 76.4(11)
K1 P1 O4 4_556 . 40.5(17)
K2a P1 K2b . . 21.1(8)
K2a P1 O1 . . 52.9(14)
K2a P1 O2 . . 153.9(13)
K2a P1 O3 . . 96.4(13)
K2a P1 O4 . . 66.3(13)
K2b P1 O1 . . 70.5(13)
K2b P1 O2 . . 142.8(11)
K2b P1 O3 . . 103.3(13)
K2b P1 O4 . . 45.2(12)
O1 P1 O2 . . 114.0(17)
O1 P1 O3 . . 107.3(15)
O1 P1 O4 . . 109.9(19)
O2 P1 O3 . . 109.6(18)
O2 P1 O4 . . 105.0(14)
O3 P1 O4 . . 111(2)
K1 O1 K2a 2_655 . 84.7(11)
K1 O1 P1 2_655 . 112.1(14)
K2a O1 P1 . . 101.6(16)
Bi2 O2 P1 7_555 . 114.1(12)
Bi1 O3 K1 5_555 4_555 104.6(9)
Bi1 O3 K1 5_555 5_555 6.6(5)
Bi1 O3 P1 5_555 . 134.0(18)
K1 O3 K1 4_555 5_555 103.7(11)
K1 O3 P1 4_555 . 116.7(13)
K1 O3 P1 5_555 . 131.5(18)
K1 O4 K2b 4_556 . 105.2(12)
K1 O4 K2b 4_556 3_566 92.5(11)
K1 O4 P1 4_556 . 117(2)
K2b O4 K2b . 3_566 20.4(9)
K2b O4 P1 . . 111.0(16)
K2b O4 P1 3_566 . 131.4(18)
Bi1 O5 Bi1 . 8_544 107.2(6)
Bi1 O5 K1 . . 2.7(5)
Bi1 O5 K1 . 8_544 106.1(8)
Bi1 O5 Bi2 . . 107.4(6)
Bi1 O5 K1 8_544 . 106.9(8)
Bi1 O5 K1 8_544 8_544 7.0(5)
Bi1 O5 Bi2 8_544 . 125.0(7)
K1 O5 K1 . 8_544 106.2(9)
K1 O5 Bi2 . . 109.4(8)
K1 O5 Bi2 8_544 . 119.9(8)
Bi2 O6 Bi2 . 2_655 119.0(8)
loop_
_geom_bond_atom_site_label_1
_geom_bond_atom_site_label_2
_geom_bond_site_symmetry_2
_geom_bond_distance
Bi1 Bi1 8_544 3.6397(13)
Bi1 Bi1 8_545 3.6397(13)
Bi1 K1 . 0.332(19)
Bi1 K1 8_544 3.75(2)
Bi1 K1 8_545 3.89(2)
Bi1 Bi2 . 3.6629(9)
Bi1 K2a 1_545 3.7788(8)
Bi1 K2b 1_545 3.969(9)
Bi1 K2b 3_556 4.340(14)
Bi1 O3 5_545 2.38(2)
Bi1 O5 . 2.276(15)
Bi1 O5 8_545 2.247(16)
K1 K1 8_544 4.00(3)
K1 K1 8_545 4.00(3)
K1 Bi2 . 3.969(18)
K1 Bi2 5_545 4.17(2)
K1 Bi2 8_544 4.07(2)
K1 Bi2 8_545 4.06(2)
K1 K2a 1_545 3.484(19)
K1 K2a 3_555 4.21(3)
K1 K2a 3_556 4.79(3)
K1 K2b 1_545 3.66(2)
K1 K2b 3_556 4.04(3)
K1 P1 2_655 3.27(2)
K1 P1 3_555 3.49(2)
K1 P1 3_556 3.40(2)
K1 O1 2_655 2.40(3)
K1 O3 3_555 2.54(4)
K1 O3 5_545 2.55(3)
K1 O4 3_556 2.47(4)
K1 O5 . 2.59(3)
K1 O5 8_545 2.42(3)
Bi2 Bi2 2_655 3.7144(7)
Bi2 O2 7_554 2.40(3)
Bi2 O5 . 2.268(15)
Bi2 O6 . 2.155(9)
K2a K2a 3_565 2.24(5)
K2a K2a 3_566 3.43(5)
K2a K2b 1_554 4.41(5)
K2a K2b . 1.25(5)
K2a K2b 3_565 3.49(5)
K2a K2b 3_566 2.17(5)
K2a P1 . 3.390(7)
K2a P1 2_665 3.390(7)
K2a O1 . 2.76(4)
K2a O1 2_665 2.76(4)
K2b K2b 3_565 4.74(4)
K2b K2b 3_566 0.92(4)
K2b P1 . 3.432(7)
K2b P1 2_665 3.432(7)
K2b O4 . 2.61(3)
K2b O4 2_665 2.61(3)
K2b O4 3_566 2.59(3)
K2b O4 4_656 2.59(3)
P1 O1 . 1.49(3)
P1 O2 . 1.531(19)
P1 O3 . 1.51(2)
P1 O4 . 1.48(3)
loop_
_refln_index_h
_refln_index_k
_refln_index_l
_refln_F_squared_calc
_refln_F_squared_meas
_refln_F_squared_sigma
_refln_observed_status
1 1 0 104951. 3. 9. <
0 2 0 2658. 5829. 104. o
1 2 0 22053. 25004. 238. o
2 2 0 6580. 5636. 88. o
1 3 0 269. 935. 15. o
2 3 0 13449. 14693. 154. o
3 3 0 358302. 408338. 5384. o
0 4 0 4651. 4119. 68. o
1 4 0 17819. 19794. 192. o
2 4 0 8441. 9786. 109. o
3 4 0 23363. 25393. 245. o
4 4 0 479708. 579895. 7826. o
1 5 0 11089. 9894. 97. o
2 5 0 38887. 40561. 385. o
3 5 0 37542. 32605. 313. o
4 5 0 43189. 47594. 459. o
5 5 0 49620. 48184. 744. o
0 6 0 183092. 182272. 2521. o
1 6 0 49819. 55752. 537. o
2 6 0 2019. 1285. 25. o
3 6 0 7394. 8370. 100. o
4 6 0 18856. 20038. 228. o
5 6 0 2671. 2980. 50. o
6 6 0 416. 245. 31. o
1 7 0 219392. 221386. 2236. o
2 7 0 9501. 10063. 112. o
3 7 0 8721. 8197. 100. o
4 7 0 5666. 6135. 85. o
5 7 0 81. 108. 21. o
6 7 0 1584. 1563. 38. o
7 7 0 288287. 311670. 4600. o
0 8 0 305511. 302495. 4465. o
1 8 0 110613. 113978. 1145. o
2 8 0 17750. 16321. 181. o
3 8 0 18582. 18984. 219. o
4 8 0 1049. 1318. 34. o
5 8 0 865. 1026. 35. o
6 8 0 89333. 87760. 1006. o
7 8 0 2423. 2460. 58. o
8 8 0 115654. 115196. 2037. o
1 9 0 2520. 2532. 47. o
2 9 0 5277. 5513. 79. o
3 9 0 544. 479. 28. o
4 9 0 808. 905. 34. o
5 9 0 355. 468. 31. o
6 9 0 18892. 19437. 267. o
7 9 0 360. 296. 37. o
8 9 0 40901. 42297. 536. o
9 9 0 26318. 26721. 508. o
0 10 0 6970. 7868. 156. o
1 10 0 3715. 4287. 70. o
2 10 0 495. 703. 33. o
3 10 0 142. 250. 28. o
4 10 0 84832. 85318. 1025. o
5 10 0 13066. 13405. 198. o
6 10 0 1501. 1583. 56. o
7 10 0 2234. 2403. 66. o
8 10 0 130. 141. 37. o
9 10 0 3822. 3573. 85. o
10 10 0 6116. 6115. 170. o
1 11 0 347. 479. 41. o
2 11 0 2500. 2570. 61. o
3 11 0 192746. 189962. 2336. o
4 11 0 1405. 1707. 54. o
5 11 0 48852. 47212. 626. o
6 11 0 4090. 4149. 91. o
7 11 0 1474. 1642. 60. o
8 11 0 7784. 8177. 151. o
9 11 0 18470. 19213. 285. o
10 11 0 11703. 11292. 188. o
11 11 0 77775. 79683. 1703. o
0 12 0 20519. 18978. 399. o
1 12 0 965. 1148. 60. o
2 12 0 28415. 29289. 419. o
3 12 0 21620. 22296. 328. o
4 12 0 26674. 26705. 374. o
5 12 0 55457. 57168. 754. o
6 12 0 5360. 5249. 115. o
7 12 0 9304. 9754. 178. o
8 12 0 3754. 3629. 94. o
9 12 0 3772. 3825. 107. o
10 12 0 23138. 22940. 385. o
11 12 0 4262. 4707. 168. o
12 12 0 12998. 13137. 451. o
1 13 0 20. 35. 47. <
2 13 0 533. 535. 55. o
3 13 0 1731. 1594. 68. o
4 13 0 1364. 1327. 70. o
5 13 0 11632. 12171. 217. o
6 13 0 23. 17. 61. <
7 13 0 13998. 14631. 270. o
8 13 0 2828. 2752. 120. o
9 13 0 95. 158. 77. <
10 13 0 708. 722. 97. o
11 13 0 367. 475. 108. o
12 13 0 1844. 2037. 167. o
13 13 0 18418. 18850. 678. o
0 14 0 123369. 121379. 2590. o
1 14 0 11. 45. 60. <
2 14 0 742. 840. 77. o
3 14 0 2857. 2918. 105. o
4 14 0 1948. 2168. 99. o
5 14 0 11964. 12299. 247. o
6 14 0 13501. 13292. 274. o
7 14 0 10837. 11559. 250. o
8 14 0 51300. 53226. 862. o
9 14 0 1623. 1541. 119. o
10 14 0 13. 64. 115. <
11 14 0 2026. 2268. 176. o
12 14 0 530. 524. 171. o
13 14 0 219. 190. 196. <
14 14 0 21974. 25103. 1405. o
1 15 0 63143. 64992. 1009. o
2 15 0 937. 1115. 85. o
3 15 0 5547. 6129. 163. o
4 15 0 144. 77. 70. <
5 15 0 4207. 4452. 143. o
6 15 0 9506. 9744. 236. o
7 15 0 60660. 61520. 995. o
8 15 0 8975. 9357. 248. o
9 15 0 4993. 4840. 214. o
10 15 0 1004. 796. 137. o
11 15 0 1419. 1278. 184. o
12 15 0 357. 500. 208. <
13 15 0 23318. 25316. 993. o
14 15 0 3897. 4251. 419. o
15 15 0 8144. 7409. 743. o
0 16 0 840. 882. 120. o
1 16 0 13721. 14513. 281. o
2 16 0 21252. 23333. 421. o
3 16 0 15. -5. 75. <
4 16 0 4699. 4405. 148. o
5 16 0 5207. 5962. 174. o
6 16 0 19893. 21839. 479. o
7 16 0 190. 336. 104. o
8 16 0 5410. 5646. 234. o
9 16 0 9247. 9527. 325. o
10 16 0 1858. 1921. 216. o
11 16 0 1327. 1497. 308. o
12 16 0 461. 663. 290. <
13 16 0 723. 590. 298. <
14 16 0 2961. 3616. 397. o
15 16 0 3137. 3354. 404. o
16 16 0 7710. 8297. 812. o
1 17 0 237. 354. 82. o
2 17 0 242. 200. 80. <
3 17 0 5885. 6106. 175. o
4 17 0 312. 423. 102. o
5 17 0 253. 180. 102. <
6 17 0 768. 752. 125. o
7 17 0 4763. 4628. 223. o
8 17 0 1918. 2474. 220. o
9 17 0 6713. 6701. 348. o
10 17 0 2688. 2593. 336. o
11 17 0 17892. 19530. 823. o
12 17 0 101. 38. 273. <
13 17 0 82. 111. 287. <
14 17 0 195. 177. 294. <
15 17 0 5. 108. 305. <
16 17 0 15. 95. 282. <
0 18 0 1224. 922. 154. o
1 18 0 7372. 7217. 216. o
2 18 0 4803. 4862. 179. o
3 18 0 4941. 5226. 189. o
4 18 0 41398. 42923. 807. o
5 18 0 57. 71. 146. <
6 18 0 69. 30. 167. <
7 18 0 64. 259. 231. <
8 18 0 5. 118. 230. <
9 18 0 968. 997. 276. o
10 18 0 15899. 16433. 739. o
11 18 0 3639. 3750. 386. o
12 18 0 4511. 4685. 421. o
13 18 0 9. 75. 284. <
14 18 0 61. 438. 311. <
15 18 0 916. 553. 314. <
1 19 0 7. 160. 117. <
2 19 0 4133. 4030. 221. o
3 19 0 26682. 29407. 861. o
4 19 0 3234. 3161. 310. o
5 19 0 15120. 16482. 694. o
6 19 0 449. 280. 273. <
7 19 0 2943. 3410. 381. o
8 19 0 709. 715. 264. <
9 19 0 11009. 12300. 615. o
10 19 0 2048. 2208. 335. o
11 19 0 7055. 6309. 469. o
12 19 0 4291. 4583. 422. o
13 19 0 1609. 1708. 387. o
0 20 0 3459. 4465. 358. o
1 20 0 4046. 4600. 256. o
2 20 0 4843. 4964. 323. o
3 20 0 49. 108. 209. <
4 20 0 601. 734. 228. o
5 20 0 1758. 1999. 288. o
6 20 0 3087. 3088. 323. o
7 20 0 165. 188. 239. <
8 20 0 3198. 2900. 379. o
9 20 0 1683. 1834. 315. o
10 20 0 499. 560. 275. <
11 20 0 1084. 937. 307. o
12 20 0 3026. 2452. 387. o
1 21 0 2573. 1966. 249. o
2 21 0 1011. 876. 228. o
3 21 0 950. 1014. 260. o
4 21 0 2500. 2699. 315. o
5 21 0 72. -54. 225. <
6 21 0 1513. 1584. 278. o
7 21 0 7177. 7317. 458. o
8 21 0 85. 261. 254. <
9 21 0 957. 1170. 346. o
10 21 0 1177. 1010. 605. <
0 22 0 23084. 25211. 1228. o
1 22 0 1547. 1165. 256. o
2 22 0 3769. 3963. 316. o
3 22 0 972. 395. 239. <
4 22 0 1158. 1224. 250. o
5 22 0 990. 1254. 273. o
6 22 0 14584. 15554. 697. o
7 22 0 2055. 2475. 490. o
8 22 0 7914. 8783. 963. o
1 23 0 6495. 6682. 579. o
2 23 0 2882. 2775. 437. o
3 23 0 582. 690. 367. <
4 23 0 803. 814. 515. <
0 1 1 124. 48. 6. o
0 2 1 3698. 2913. 34. o
1 2 1 31110. 34834. 334. o
-1 2 1 31393. 34635. 359. o
0 3 1 39305. 37990. 392. o
1 3 1 197023. 202163. 1870. o
-1 3 1 203952. 202352. 1936. o
2 3 1 12852. 14861. 148. o
-2 3 1 14126. 15296. 147. o
0 4 1 836062. 1055050. 11546. o
1 4 1 65057. 69409. 619. o
-1 4 1 65885. 69490. 649. o
2 4 1 1709. 2137. 31. o
-2 4 1 1390. 2022. 28. o
3 4 1 9962. 9611. 107. o
-3 4 1 9851. 9842. 104. o
0 5 1 352. 507. 17. o
1 5 1 38790. 38775. 365. o
-1 5 1 39514. 38821. 367. o
2 5 1 18355. 16866. 178. o
-2 5 1 14967. 16745. 165. o
3 5 1 1582. 1877. 36. o
-3 5 1 1609. 1837. 33. o
4 5 1 35. 90. 21. o
-4 5 1 37. 135. 15. o
0 6 1 15568. 18351. 191. o
1 6 1 4234. 4400. 55. o
-1 6 1 4363. 4468. 60. o
2 6 1 4909. 6325. 77. o
-2 6 1 5881. 6324. 75. o
3 6 1 9951. 10640. 128. o
-3 6 1 8832. 10631. 123. o
4 6 1 84266. 86672. 939. o
-4 6 1 86068. 87744. 881. o
5 6 1 35485. 36576. 393. o
-5 6 1 33178. 36781. 371. o
0 7 1 379. 457. 24. o
1 7 1 5636. 5654. 78. o
-1 7 1 4259. 5714. 75. o
2 7 1 2550. 3049. 54. o
-2 7 1 3202. 3037. 48. o
3 7 1 314651. 319124. 3398. o
-3 7 1 312871. 319381. 3356. o
4 7 1 18143. 18978. 219. o
-4 7 1 17045. 18633. 210. o
5 7 1 43423. 43004. 473. o
-5 7 1 45024. 43229. 446. o
6 7 1 8130. 8198. 117. o
-6 7 1 7208. 8462. 110. o
0 8 1 7251. 7356. 94. o
1 8 1 6053. 6511. 90. o
-1 8 1 5847. 6275. 88. o
2 8 1 42088. 42403. 430. o
-2 8 1 41322. 41906. 447. o
3 8 1 46873. 48792. 521. o
-3 8 1 49323. 48572. 517. o
4 8 1 192408. 192904. 2023. o
-4 8 1 195899. 192775. 2027. o
5 8 1 90173. 93637. 1049. o
-5 8 1 90139. 93489. 972. o
6 8 1 212. 197. 45. o
-6 8 1 179. 192. 25. o
7 8 1 16985. 18104. 277. o
-7 8 1 17784. 18295. 221. o
0 9 1 1572. 1241. 37. o
1 9 1 1412. 1874. 46. o
-1 9 1 1785. 1863. 43. o
2 9 1 12374. 13207. 160. o
-2 9 1 12109. 12878. 158. o
3 9 1 1363. 1198. 44. o
-3 9 1 1381. 1161. 34. o
4 9 1 17797. 18530. 242. o
-4 9 1 16800. 18569. 221. o
5 9 1 20383. 19291. 296. o
-5 9 1 19116. 19757. 244. o
6 9 1 2739. 2757. 94. o
-6 9 1 1831. 2723. 60. o
7 9 1 7548. 7562. 163. o
-7 9 1 7255. 7475. 121. o
8 9 1 4763. 4745. 128. o
-8 9 1 4500. 4745. 88. o
0 10 1 119159. 121222. 1403. o
1 10 1 7644. 8190. 122. o
-1 10 1 7768. 8144. 120. o
2 10 1 1408. 1270. 47. o
-2 10 1 974. 1087. 38. o
3 10 1 49. 304. 41. o
-3 10 1 513. 372. 30. o
4 10 1 6479. 6821. 144. o
-4 10 1 6437. 7081. 105. o
5 10 1 9341. 10336. 198. o
-5 10 1 10015. 10525. 152. o
6 10 1 2930. 3066. 108. o
-6 10 1 3211. 3100. 68. o
7 10 1 12447. 12788. 247. o
-7 10 1 11927. 12192. 189. o
8 10 1 63832. 63062. 859. o
-8 10 1 61465. 62043. 836. o
9 10 1 8200. 8225. 177. o
-9 10 1 7998. 7735. 144. o
0 11 1 14073. 14661. 197. o
1 11 1 126881. 125205. 1451. o
-1 11 1 124799. 125775. 1480. o
2 11 1 403. 440. 45. o
-2 11 1 394. 435. 36. o
3 11 1 7214. 6828. 134. o
-3 11 1 7235. 7030. 111. o
4 11 1 4932. 4610. 126. o
-4 11 1 4364. 4701. 88. o
5 11 1 2425. 2734. 101. o
-5 11 1 2662. 2673. 71. o
6 11 1 12427. 12470. 263. o
-6 11 1 12128. 11993. 184. o
7 11 1 137281. 137794. 1854. o
-7 11 1 137627. 134819. 1856. o
8 11 1 7069. 7521. 171. o
-8 11 1 7071. 7030. 141. o
9 11 1 3637. 3623. 125. o
-9 11 1 3706. 3418. 89. o
10 11 1 3452. 3792. 136. o
-10 11 1 3489. 3229. 97. o
0 12 1 38051. 36538. 516. o
1 12 1 53566. 57899. 775. o
-1 12 1 57364. 57375. 815. o
2 12 1 23589. 23426. 355. o
-2 12 1 24112. 23552. 360. o
3 12 1 5855. 7004. 146. o
-3 12 1 6391. 6639. 135. o
4 12 1 7203. 7281. 155. o
-4 12 1 7702. 7302. 139. o
5 12 1 2031. 2190. 100. o
-5 12 1 1946. 2133. 70. o
6 12 1 38534. 39496. 617. o
-6 12 1 39166. 39096. 531. o
7 12 1 719. 1037. 92. o
-7 12 1 953. 797. 59. o
8 12 1 25647. 24400. 375. o
-8 12 1 25763. 25131. 392. o
9 12 1 21844. 21636. 336. o
-9 12 1 22593. 21331. 345. o
10 12 1 810. 872. 93. o
-10 12 1 707. 859. 74. o
11 12 1 3999. 4429. 146. o
-11 12 1 4105. 4033. 125. o
0 13 1 1536. 1974. 74. o
1 13 1 173. 192. 51. o
-1 13 1 159. 206. 48. o
2 13 1 1314. 1273. 72. o
-2 13 1 1053. 1254. 63. o
3 13 1 2823. 3210. 98. o
-3 13 1 3042. 2935. 87. o
4 13 1 1799. 1700. 89. o
-4 13 1 1293. 1698. 71. o
5 13 1 80. 289. 67. o
-5 13 1 157. 214. 51. o
6 13 1 1404. 1555. 100. o
-6 13 1 1340. 1306. 69. o
7 13 1 3033. 3715. 133. o
-7 13 1 3144. 3395. 100. o
8 13 1 2197. 2445. 115. o
-8 13 1 2169. 2403. 93. o
9 13 1 19725. 20187. 327. o
-9 13 1 20422. 19500. 365. o
10 13 1 462. 383. 88. o
-10 13 1 194. 366. 71. o
11 13 1 23436. 23655. 458. o
-11 13 1 23779. 21710. 420. o
12 13 1 2225. 1936. 181. o
-12 13 1 1743. 1478. 108. o
0 14 1 849. 1014. 66. o
1 14 1 10023. 10240. 187. o
-1 14 1 9824. 10417. 189. o
2 14 1 3037. 2612. 93. o
-2 14 1 2656. 2552. 87. o
3 14 1 6414. 6632. 168. o
-3 14 1 6569. 6674. 146. o
4 14 1 79649. 80946. 1228. o
-4 14 1 79333. 80082. 1113. o
5 14 1 1885. 1771. 96. o
-5 14 1 1780. 1626. 82. o
6 14 1 935. 885. 90. o
-6 14 1 877. 923. 75. o
7 14 1 189. 196. 80. <
-7 14 1 347. 251. 65. o
8 14 1 2092. 2097. 110. o
-8 14 1 1888. 2008. 105. o
9 14 1 2763. 2663. 134. o
-9 14 1 2593. 2441. 104. o
10 14 1 16268. 17660. 404. o
-10 14 1 16742. 15897. 352. o
11 14 1 10785. 10778. 322. o
-11 14 1 11198. 10844. 260. o
12 14 1 12839. 12121. 456. o
-12 14 1 12532. 11353. 278. o
13 14 1 146. 72. 266. <
-13 14 1 181. 81. 106. <
0 15 1 956. 792. 70. o
1 15 1 496. 349. 64. o
-1 15 1 492. 388. 63. o
2 15 1 5962. 6414. 153. o
-2 15 1 6062. 6173. 145. o
3 15 1 77620. 79649. 1140. o
-3 15 1 78520. 79271. 1250. o
4 15 1 7227. 7767. 188. o
-4 15 1 7312. 7640. 182. o
5 15 1 27561. 28145. 457. o
-5 15 1 27923. 26892. 476. o
6 15 1 359. 282. 101. <
-6 15 1 215. 315. 75. o
7 15 1 3905. 3876. 150. o
-7 15 1 3768. 3592. 129. o
8 15 1 232. 239. 104. <
-8 15 1 329. 364. 84. o
9 15 1 16698. 18585. 417. o
-9 15 1 16305. 16553. 367. o
10 15 1 9270. 9706. 322. o
-10 15 1 9610. 8742. 233. o
11 15 1 26076. 24188. 611. o
-11 15 1 25898. 23796. 544. o
12 15 1 6537. 6541. 481. o
-12 15 1 6468. 6003. 257. o
13 15 1 336. 373. 295. <
-13 15 1 403. 470. 195. <
14 15 1 1471. 1329. 336. o
-14 15 1 1312. 1243. 277. o
0 16 1 6856. 7003. 181. o
1 16 1 1967. 2057. 110. o
-1 16 1 1839. 1927. 104. o
2 16 1 20418. 20984. 435. o
-2 16 1 20396. 21594. 394. o
3 16 1 2685. 3241. 137. o
-3 16 1 3271. 2918. 117. o
4 16 1 1536. 1288. 109. o
-4 16 1 1166. 1268. 93. o
5 16 1 16082. 16740. 358. o
-5 16 1 15381. 16255. 318. o
6 16 1 7266. 7852. 241. o
-6 16 1 7350. 6953. 180. o
7 16 1 941. 1024. 116. o
-7 16 1 1091. 950. 100. o
8 16 1 3557. 3931. 176. o
-8 16 1 3741. 3449. 142. o
9 16 1 3194. 3222. 197. o
-9 16 1 3027. 2943. 140. o
10 16 1 6963. 8244. 453. o
-10 16 1 6911. 7092. 272. o
11 16 1 2546. 2907. 361. o
-11 16 1 2337. 2604. 210. o
12 16 1 7746. 8605. 553. o
-12 16 1 7915. 7792. 434. o
13 16 1 1609. 1848. 356. o
-13 16 1 1796. 1683. 308. o
14 16 1 285. 374. 316. <
-14 16 1 297. 314. 287. <
15 16 1 566. 748. 340. <
-15 16 1 505. 351. 346. <
0 17 1 900. 996. 98. o
1 17 1 1120. 1008. 100. o
-1 17 1 978. 1000. 94. o
2 17 1 144. 147. 90. <
-2 17 1 196. 186. 80. <
3 17 1 2836. 2936. 137. o
-3 17 1 3029. 3024. 127. o
4 17 1 1462. 1716. 119. o
-4 17 1 1851. 1775. 116. o
5 17 1 2990. 3112. 160. o
-5 17 1 2705. 2950. 143. o
6 17 1 1195. 1401. 135. o
-6 17 1 1272. 1381. 123. o
7 17 1 12255. 12579. 325. o
-7 17 1 11825. 12220. 295. o
8 17 1 1267. 957. 195. o
-8 17 1 1011. 1110. 154. o
9 17 1 137. 102. 256. <
-9 17 1 54. -54. 137. <
10 17 1 602. 924. 304. o
-10 17 1 584. 709. 203. o
11 17 1 1055. 887. 291. o
-11 17 1 1069. 950. 274. o
12 17 1 693. 421. 301. <
-12 17 1 654. 669. 280. <
13 17 1 4706. 3911. 417. o
-13 17 1 4571. 4667. 478. o
14 17 1 3350. 4112. 450. o
-14 17 1 3462. 3575. 485. o
15 17 1 13537. 14888. 757. o
-15 17 1 13509. 14403. 1036. o
0 18 1 57788. 58859. 1016. o
1 18 1 1907. 2223. 135. o
-1 18 1 2261. 2293. 128. o
2 18 1 2094. 2121. 127. o
-2 18 1 2180. 2414. 127. o
3 18 1 2701. 2729. 141. o
-3 18 1 2549. 2615. 137. o
4 18 1 382. 324. 105. o
-4 18 1 445. 388. 104. o
5 18 1 5305. 5380. 222. o
-5 18 1 5079. 5280. 247. o
6 18 1 13104. 13973. 512. o
-6 18 1 13862. 13307. 416. o
7 18 1 7003. 7603. 463. o
-7 18 1 6969. 6912. 307. o
8 18 1 19220. 19292. 813. o
-8 18 1 18338. 18646. 617. o
9 18 1 86. 95. 245. <
-9 18 1 39. 17. 224. <
10 18 1 174. 274. 273. <
-10 18 1 80. -24. 238. <
11 18 1 539. 694. 301. <
-11 18 1 633. 668. 274. <
12 18 1 1127. 1943. 345. o
-12 18 1 1236. 1672. 327. o
13 18 1 794. 1075. 341. o
-13 18 1 814. 1103. 457. <
14 18 1 13531. 11904. 506. o
-14 18 1 13604. 13258. 2391. o
0 19 1 374. 408. 133. o
1 19 1 23639. 24576. 609. o
-1 19 1 22794. 24008. 575. o
2 19 1 2644. 2777. 195. o
-2 19 1 2481. 2795. 179. o
3 19 1 1721. 1737. 188. o
-3 19 1 1819. 1908. 164. o
4 19 1 610. 889. 210. o
-4 19 1 927. 813. 158. o
5 19 1 3234. 3379. 294. o
-5 19 1 3097. 3160. 228. o
6 19 1 5192. 5577. 398. o
-6 19 1 5542. 5520. 438. o
7 19 1 15505. 16319. 714. o
-7 19 1 15832. 15399. 779. o
8 19 1 5636. 6367. 448. o
-8 19 1 5767. 5630. 463. o
9 19 1 5115. 4907. 411. o
-9 19 1 5266. 4849. 389. o
10 19 1 51. -100. 272. <
-10 19 1 19. -18. 251. <
11 19 1 1858. 1463. 324. o
-11 19 1 1814. 1814. 322. o
12 19 1 333. 499. 304. <
-12 19 1 265. 456. 414. <
13 19 1 11325. 10896. 482. o
0 20 1 923. 755. 189. o
1 20 1 577. 686. 186. o
-1 20 1 569. 665. 185. o
2 20 1 6396. 6524. 357. o
-2 20 1 6519. 7118. 374. o
3 20 1 1554. 1635. 238. o
-3 20 1 1547. 1390. 256. o
4 20 1 2366. 2402. 289. o
-4 20 1 2539. 2396. 283. o
5 20 1 3980. 3992. 353. o
-5 20 1 3687. 4090. 343. o
6 20 1 2918. 2868. 325. o
-6 20 1 2873. 3071. 318. o
7 20 1 865. 1005. 277. o
-7 20 1 891. 932. 298. o
8 20 1 746. 1077. 329. o
-8 20 1 796. 1419. 332. o
9 20 1 1918. 2076. 330. o
-9 20 1 1917. 2269. 379. o
10 20 1 628. 731. 293. <
-10 20 1 681. 631. 397. <
11 20 1 243. 258. 293. <
-11 20 1 220. 971. 534. <
0 21 1 93. -31. 199. <
1 21 1 806. 832. 220. o
-1 21 1 820. 988. 233. o
2 21 1 61. 463. 206. <
-2 21 1 8. -33. 207. <
3 21 1 5221. 4719. 320. o
-3 21 1 4824. 4665. 360. o
4 21 1 394. 211. 239. <
-4 21 1 399. 307. 235. <
5 21 1 1454. 1677. 286. o
-5 21 1 1589. 1307. 272. o
6 21 1 1636. 1537. 282. o
-6 21 1 1691. 1666. 286. o
7 21 1 939. 958. 277. o
-7 21 1 911. 443. 255. <
8 21 1 3888. 3460. 358. o
-8 21 1 3964. 3816. 422. o
9 21 1 317. 451. 308. <
-9 21 1 258. 855. 475. <
10 21 1 3860. 3832. 610. o
0 22 1 2478. 1944. 274. o
1 22 1 1594. 1043. 249. o
-1 22 1 1505. 1542. 258. o
2 22 1 7884. 8043. 421. o
-2 22 1 7713. 7343. 417. o
3 22 1 3156. 3454. 306. o
-3 22 1 3173. 3008. 301. o
4 22 1 14623. 14547. 592. o
-4 22 1 14733. 13901. 587. o
5 22 1 965. 1036. 246. o
-5 22 1 941. 861. 312. <
6 22 1 447. 170. 306. <
-6 22 1 447. 90. 489. <
7 22 1 317. 125. 504. <
-7 22 1 300. 195. 907. <
8 22 1 120. 649. 927. <
1 23 1 282. -159. 424. <
2 23 1 2932. 3050. 594. o
3 23 1 5522. 4217. 686. o
4 23 1 1051. 1234. 544. <
0 0 2 734700. 727173. 17054. o
0 1 2 34808. 36159. 485. o
1 1 2 104942. 93429. 1409. o
-1 1 2 100535. 94773. 1781. o
0 2 2 5161. 6757. 76. o
1 2 2 7361. 7727. 90. o
-1 2 2 7493. 7676. 88. o
2 2 2 2718. 3760. 61. o
-2 2 2 2309. 3772. 71. o
0 3 2 118. 81. 11. o
1 3 2 1124. 1099. 19. o
-1 3 2 824. 1126. 20. o
2 3 2 19367. 23484. 216. o
-2 3 2 20835. 23352. 270. o
3 3 2 335190. 320389. 4308. o
-3 3 2 328848. 319144. 4710. o
0 4 2 2008. 2305. 31. o
1 4 2 2695. 3063. 38. o
-1 4 2 2970. 3048. 39. o
2 4 2 27299. 27543. 277. o
-2 4 2 28119. 27736. 292. o
3 4 2 93122. 92750. 932. o
-3 4 2 88234. 92103. 965. o
4 4 2 459279. 455125. 6247. o
-4 4 2 457422. 448039. 6461. o
0 5 2 1026. 894. 19. o
1 5 2 1517. 1997. 30. o
-1 5 2 2037. 2049. 31. o
2 5 2 27882. 30186. 316. o
-2 5 2 31399. 30516. 316. o
3 5 2 44880. 44516. 475. o
-3 5 2 45606. 44934. 462. o
4 5 2 33622. 34791. 366. o
-4 5 2 35530. 34747. 374. o
5 5 2 53028. 52592. 774. o
-5 5 2 52143. 52356. 858. o
0 6 2 50202. 51872. 501. o
1 6 2 15671. 17548. 183. o
-1 6 2 16452. 17461. 183. o
2 6 2 2347. 2664. 47. o
-2 6 2 2679. 2711. 40. o
3 6 2 9703. 10098. 125. o
-3 6 2 9858. 10034. 115. o
4 6 2 3651. 5248. 82. o
-4 6 2 4631. 5332. 73. o
5 6 2 2587. 2779. 53. o
-5 6 2 2696. 2782. 48. o
6 6 2 3351. 3980. 98. o
-6 6 2 4562. 3937. 86. o
0 7 2 95826. 96681. 952. o
1 7 2 114998. 114532. 1181. o
-1 7 2 120188. 114622. 1136. o
2 7 2 6817. 7240. 91. o
-2 7 2 5647. 7063. 84. o
3 7 2 2025. 2682. 53. o
-3 7 2 2486. 2631. 46. o
4 7 2 9922. 10153. 143. o
-4 7 2 9108. 10146. 127. o
5 7 2 4106. 3792. 72. o
-5 7 2 3165. 3851. 60. o
6 7 2 14084. 13803. 175. o
-6 7 2 13391. 13721. 177. o
7 7 2 163562. 163764. 2715. o
-7 7 2 164420. 165872. 2645. o
0 8 2 172654. 170726. 1822. o
1 8 2 70513. 74003. 797. o
-1 8 2 72385. 74412. 803. o
2 8 2 13808. 13626. 169. o
-2 8 2 13455. 13627. 153. o
3 8 2 15091. 16806. 207. o
-3 8 2 16859. 17042. 188. o
4 8 2 2081. 2081. 55. o
-4 8 2 2427. 2018. 45. o
5 8 2 493. 666. 45. o
-5 8 2 778. 747. 34. o
6 8 2 45759. 46692. 577. o
-6 8 2 46510. 46556. 580. o
7 8 2 23971. 24751. 329. o
-7 8 2 24555. 24982. 309. o
8 8 2 70659. 69889. 1316. o
-8 8 2 74224. 72449. 1291. o
0 9 2 1116. 1652. 41. o
1 9 2 9066. 7996. 108. o
-1 9 2 7250. 7925. 104. o
2 9 2 9242. 7917. 117. o
-2 9 2 6562. 7844. 110. o
3 9 2 1197. 1479. 47. o
-3 9 2 1473. 1413. 41. o
4 9 2 4465. 4284. 94. o
-4 9 2 3961. 4326. 79. o
5 9 2 239. 186. 46. o
-5 9 2 256. 219. 33. o
6 9 2 10200. 10208. 175. o
-6 9 2 9145. 10239. 155. o
7 9 2 1525. 1201. 68. o
-7 9 2 1387. 1177. 54. o
8 9 2 21356. 21432. 325. o
-8 9 2 21574. 21740. 322. o
9 9 2 21405. 20644. 537. o
-9 9 2 21932. 21352. 491. o
0 10 2 4642. 4858. 82. o
1 10 2 1903. 2131. 55. o
-1 10 2 2549. 2180. 52. o
2 10 2 4657. 5234. 94. o
-2 10 2 5982. 5293. 90. o
3 10 2 10181. 9844. 153. o
-3 10 2 9437. 9679. 143. o
4 10 2 88195. 86161. 1090. o
-4 10 2 84388. 86321. 1067. o
5 10 2 12342. 12228. 212. o
-5 10 2 11645. 11942. 168. o
6 10 2 1951. 2076. 85. o
-6 10 2 1766. 2073. 71. o
7 10 2 3890. 4210. 114. o
-7 10 2 4661. 3995. 100. o
8 10 2 2900. 2815. 115. o
-8 10 2 2562. 2851. 79. o
9 10 2 4310. 4000. 134. o
-9 10 2 3978. 4161. 105. o
10 10 2 9564. 9356. 329. o
-10 10 2 9948. 9505. 248. o
0 11 2 252. 269. 33. o
1 11 2 6236. 5587. 96. o
-1 11 2 5661. 5746. 94. o
2 11 2 5081. 4609. 93. o
-2 11 2 4512. 4538. 82. o
3 11 2 143302. 142314. 1855. o
-3 11 2 143134. 141697. 1859. o
4 11 2 32147. 32791. 448. o
-4 11 2 32904. 31953. 470. o
5 11 2 39816. 39802. 590. o
-5 11 2 40344. 39345. 553. o
6 11 2 5273. 4668. 152. o
-6 11 2 4467. 4734. 109. o
7 11 2 1668. 1670. 96. o
-7 11 2 1710. 1657. 73. o
8 11 2 3768. 4020. 140. o
-8 11 2 3842. 3972. 108. o
9 11 2 13252. 13460. 277. o
-9 11 2 13952. 13468. 236. o
10 11 2 22382. 22110. 410. o
-10 11 2 22200. 20876. 335. o
11 11 2 60917. 61712. 1366. o
-11 11 2 60829. 59586. 1218. o
0 12 2 6602. 6918. 124. o
1 12 2 88. 112. 41. <
-1 12 2 115. 28. 41. <
2 12 2 37982. 38225. 556. o
-2 12 2 38302. 37906. 555. o
3 12 2 17990. 17612. 307. o
-3 12 2 18146. 17317. 287. o
4 12 2 32403. 32106. 529. o
-4 12 2 32268. 30616. 497. o
5 12 2 41810. 44032. 720. o
-5 12 2 43967. 44078. 656. o
6 12 2 4907. 4496. 148. o
-6 12 2 4934. 4547. 106. o
7 12 2 5867. 6389. 180. o
-7 12 2 6486. 5987. 140. o
8 12 2 989. 1063. 97. o
-8 12 2 1151. 981. 68. o
9 12 2 5188. 4631. 158. o
-9 12 2 4130. 4201. 118. o
10 12 2 23542. 23286. 427. o
-10 12 2 22725. 21842. 361. o
11 12 2 4417. 4627. 181. o
-11 12 2 4324. 4533. 135. o
12 12 2 17135. 17561. 550. o
-12 12 2 17863. 16035. 445. o
0 13 2 3313. 3062. 91. o
1 13 2 25. 142. 52. <
-1 13 2 31. 43. 47. <
2 13 2 2160. 1998. 84. o
-2 13 2 1567. 1910. 77. o
3 13 2 617. 694. 75. o
-3 13 2 708. 644. 59. o
4 13 2 3866. 3420. 124. o
-4 13 2 3441. 3530. 107. o
5 13 2 7216. 7908. 203. o
-5 13 2 7624. 7619. 159. o
6 13 2 2982. 2587. 126. o
-6 13 2 2489. 2586. 90. o
7 13 2 8593. 8673. 216. o
-7 13 2 8885. 8218. 176. o
8 13 2 4663. 4023. 147. o
-8 13 2 3920. 3910. 116. o
9 13 2 149. 219. 95. <
-9 13 2 167. 94. 64. <
10 13 2 786. 860. 115. o
-10 13 2 793. 708. 78. o
11 13 2 86. -69. 105. <
-11 13 2 129. -1. 75. <
12 13 2 2091. 2542. 166. o
-12 13 2 2510. 2139. 120. o
13 13 2 12026. 12180. 554. o
-13 13 2 11975. 11175. 432. o
0 14 2 72884. 73247. 1081. o
1 14 2 4862. 5015. 131. o
-1 14 2 4747. 4797. 119. o
2 14 2 2975. 3121. 110. o
-2 14 2 3124. 3130. 101. o
3 14 2 1508. 1519. 88. o
-3 14 2 1750. 1757. 82. o
4 14 2 2646. 2596. 115. o
-4 14 2 2468. 2616. 96. o
5 14 2 6230. 5867. 175. o
-5 14 2 5825. 6159. 147. o
6 14 2 5638. 6130. 184. o
-6 14 2 6172. 5942. 140. o
7 14 2 17475. 18199. 339. o
-7 14 2 17903. 18107. 318. o
8 14 2 30402. 29198. 467. o
-8 14 2 28376. 28410. 493. o
9 14 2 1134. 1120. 121. o
-9 14 2 1066. 1006. 89. o
10 14 2 677. 735. 132. o
-10 14 2 577. 667. 93. o
11 14 2 1305. 1135. 141. o
-11 14 2 1288. 1228. 106. o
12 14 2 2740. 3034. 241. o
-12 14 2 2644. 2361. 144. o
13 14 2 257. 550. 309. <
-13 14 2 393. 155. 128. <
14 14 2 15961. 19454. 1228. o
-14 14 2 16771. 15759. 845. o
0 15 2 14131. 13852. 260. o
1 15 2 49564. 47834. 749. o
-1 15 2 47260. 47512. 745. o
2 15 2 941. 656. 79. o
-2 15 2 840. 784. 72. o
3 15 2 3648. 3486. 121. o
-3 15 2 3642. 3612. 115. o
4 15 2 910. 1170. 89. o
-4 15 2 1074. 1077. 80. o
5 15 2 3267. 3014. 136. o
-5 15 2 2700. 2905. 107. o
6 15 2 14146. 14435. 313. o
-6 15 2 14480. 13724. 267. o
7 15 2 41815. 41713. 660. o
-7 15 2 43179. 41200. 708. o
8 15 2 9505. 9646. 249. o
-8 15 2 9359. 9259. 220. o
9 15 2 5447. 6115. 210. o
-9 15 2 5856. 5280. 180. o
10 15 2 1340. 1419. 155. o
-10 15 2 1103. 1047. 110. o
11 15 2 993. 1200. 192. o
-11 15 2 957. 969. 121. o
12 15 2 709. 694. 307. <
-12 15 2 560. 648. 155. o
13 15 2 14412. 15558. 794. o
-13 15 2 14366. 15079. 550. o
14 15 2 6179. 6086. 509. o
-14 15 2 6633. 5440. 315. o
15 15 2 7388. 6433. 730. o
-15 15 2 6622. 6112. 482. o
0 16 2 695. 991. 85. o
1 16 2 10122. 9212. 205. o
-1 16 2 9128. 9417. 195. o
2 16 2 13157. 13183. 264. o
-2 16 2 13483. 13595. 250. o
3 16 2 67. 44. 75. <
-3 16 2 115. 114. 71. <
4 16 2 4808. 4607. 148. o
-4 16 2 5147. 4752. 144. o
5 16 2 2788. 2604. 132. o
-5 16 2 2367. 2357. 117. o
6 16 2 12808. 14000. 314. o
-6 16 2 12589. 13776. 292. o
7 16 2 106. 150. 95. <
-7 16 2 91. 251. 91. <
8 16 2 6479. 6712. 227. o
-8 16 2 6329. 6556. 193. o
9 16 2 7825. 8807. 292. o
-9 16 2 7983. 7474. 252. o
10 16 2 979. 1156. 198. o
-10 16 2 1145. 973. 150. o
11 16 2 1411. 1870. 361. o
-11 16 2 1518. 1600. 203. o
12 16 2 709. 697. 323. <
-12 16 2 898. 590. 189. o
13 16 2 1142. 1465. 348. o
-13 16 2 1002. 1174. 211. o
14 16 2 2162. 2340. 397. o
-14 16 2 2018. 1694. 229. o
15 16 2 1942. 1917. 397. o
-15 16 2 1773. 1790. 460. o
16 16 2 5723. 5431. 669. o
0 17 2 2129. 2001. 107. o
1 17 2 1531. 1474. 105. o
-1 17 2 1628. 1801. 103. o
2 17 2 369. 547. 89. o
-2 17 2 495. 397. 83. o
3 17 2 5278. 4871. 169. o
-3 17 2 4748. 5005. 152. o
4 17 2 2618. 2471. 145. o
-4 17 2 2217. 2608. 124. o
5 17 2 404. 315. 108. <
-5 17 2 305. 412. 93. o
6 17 2 493. 654. 130. o
-6 17 2 557. 376. 103. o
7 17 2 2421. 2405. 171. o
-7 17 2 2519. 2000. 151. o
8 17 2 1033. 1155. 176. o
-8 17 2 1257. 1032. 126. o
9 17 2 4523. 4160. 271. o
-9 17 2 4214. 4210. 242. o
10 17 2 2041. 1833. 343. o
-10 17 2 1967. 1869. 218. o
11 17 2 14383. 15611. 762. o
-11 17 2 13958. 14655. 560. o
12 17 2 1541. 2032. 372. o
-12 17 2 1292. 1412. 218. o
13 17 2 88. 301. 326. <
-13 17 2 67. 296. 275. <
14 17 2 186. 456. 338. <
-14 17 2 144. -325. 350. <
15 17 2 160. 422. 291. <
0 18 2 259. 137. 89. <
1 18 2 4425. 3902. 160. o
-1 18 2 4013. 4067. 156. o
2 18 2 5429. 5571. 194. o
-2 18 2 5364. 5388. 181. o
3 18 2 9329. 8543. 250. o
-3 18 2 9170. 8515. 244. o
4 18 2 34414. 35016. 799. o
-4 18 2 33364. 34933. 732. o
5 18 2 1130. 1064. 170. o
-5 18 2 1023. 854. 140. o
6 18 2 1458. 1317. 165. o
-6 18 2 1395. 1095. 155. o
7 18 2 532. 346. 185. <
-7 18 2 301. 568. 161. o
8 18 2 2174. 2628. 298. o
-8 18 2 2387. 2283. 275. o
9 18 2 1829. 2231. 338. o
-9 18 2 1655. 1642. 219. o
10 18 2 14779. 16178. 766. o
-10 18 2 15344. 14604. 572. o
11 18 2 5819. 6446. 511. o
-11 18 2 5961. 5555. 333. o
12 18 2 4764. 4704. 457. o
-12 18 2 4410. 3285. 513. o
13 18 2 6. -196. 317. <
-13 18 2 3. -19. 370. <
14 18 2 64. 58. 282. <
0 19 2 2442. 2549. 162. o
1 19 2 69. 22. 113. <
-1 19 2 52. 251. 122. <
2 19 2 6607. 7433. 269. o
-2 19 2 7116. 7850. 261. o
3 19 2 21533. 23582. 564. o
-3 19 2 22864. 22870. 554. o
4 19 2 3070. 3444. 218. o
-4 19 2 3328. 3018. 208. o
5 19 2 13268. 13249. 500. o
-5 19 2 13403. 13203. 477. o
6 19 2 421. 204. 194. <
-6 19 2 498. 424. 195. <
7 19 2 1914. 1856. 273. o
-7 19 2 1871. 1839. 231. o
8 19 2 643. 744. 279. <
-8 19 2 812. 957. 287. o
9 19 2 8519. 8823. 547. o
-9 19 2 8135. 9450. 573. o
10 19 2 4847. 5701. 463. o
-10 19 2 5013. 4262. 538. o
11 19 2 6433. 6458. 500. o
-11 19 2 6315. 5279. 570. o
12 19 2 3187. 3259. 631. o
-12 19 2 3096. 2710. 1275. <
0 20 2 1811. 1496. 184. o
1 20 2 3003. 2871. 217. o
-1 20 2 2726. 3084. 221. o
2 20 2 5231. 5110. 290. o
-2 20 2 5175. 5597. 301. o
3 20 2 290. 283. 195. <
-3 20 2 123. 12. 172. <
4 20 2 181. 324. 241. <
-4 20 2 113. -23. 182. <
5 20 2 2428. 2235. 301. o
-5 20 2 2169. 2428. 252. o
6 20 2 2990. 3400. 339. o
-6 20 2 3065. 2927. 296. o
7 20 2 438. 607. 270. <
-7 20 2 393. 363. 323. <
8 20 2 1500. 1571. 312. o
-8 20 2 1688. 1849. 407. o
9 20 2 1307. 1303. 313. o
-9 20 2 1257. 1222. 380. o
10 20 2 780. 971. 366. <
-10 20 2 881. 1048. 491. <
11 20 2 995. 1015. 460. <
0 21 2 1300. 1399. 286. o
1 21 2 1699. 1868. 283. o
-1 21 2 1800. 1633. 292. o
2 21 2 581. 644. 258. <
-2 21 2 747. 267. 248. <
3 21 2 1280. 601. 254. <
-3 21 2 1227. 1342. 283. o
4 21 2 1431. 823. 312. <
-4 21 2 1597. 1350. 303. o
5 21 2 1280. 1483. 339. o
-5 21 2 957. 1113. 300. o
6 21 2 1210. 1457. 329. o
-6 21 2 1179. 897. 296. o
7 21 2 5553. 5055. 473. o
-7 21 2 5066. 4973. 444. o
8 21 2 951. 1065. 534. <
-8 21 2 987. 988. 471. <
9 21 2 636. -184. 1005. <
-9 21 2 604. 193. 871. <
0 22 2 15025. 14523. 694. o
1 22 2 3319. 3397. 361. o
-1 22 2 3487. 3501. 364. o
2 22 2 2235. 2853. 349. o
-2 22 2 2328. 2751. 343. o
3 22 2 1006. 755. 287. <
-3 22 2 1033. 1021. 299. o
4 22 2 1041. 625. 279. <
-4 22 2 1019. 1170. 297. o
5 22 2 1338. 1267. 519. <
-5 22 2 1254. 922. 461. <
6 22 2 8688. 9860. 1907. o
-6 22 2 8810. 9697. 1831. o
0 1 3 4686. 5660. 90. o
0 2 3 14843. 13362. 182. o
1 2 3 11118. 13322. 162. o
-1 2 3 13071. 13177. 174. o
0 3 3 159556. 151327. 1840. o
1 3 3 99009. 93834. 1011. o
-1 3 3 105004. 96754. 1185. o
2 3 3 8511. 9038. 99. o
-2 3 3 7759. 9126. 117. o
0 4 3 323880. 293796. 3344. o
1 4 3 65081. 65124. 694. o
-1 4 3 65279. 65445. 743. o
2 4 3 1045. 929. 22. o
-2 4 3 956. 1021. 25. o
3 4 3 5843. 6038. 70. o
-3 4 3 6512. 6188. 83. o
0 5 3 1050. 930. 22. o
1 5 3 59951. 59008. 579. o
-1 5 3 57098. 58553. 625. o
2 5 3 9621. 8858. 101. o
-2 5 3 8209. 8781. 107. o
3 5 3 5282. 4695. 58. o
-3 5 3 3429. 4618. 64. o
4 5 3 1898. 1898. 36. o
-4 5 3 2116. 1965. 37. o
0 6 3 2980. 3402. 48. o
1 6 3 628. 664. 22. o
-1 6 3 323. 690. 23. o
2 6 3 7638. 9082. 102. o
-2 6 3 9494. 9243. 110. o
3 6 3 8385. 7664. 93. o
-3 6 3 7697. 7716. 99. o
4 6 3 37909. 38465. 401. o
-4 6 3 38794. 38588. 424. o
5 6 3 11935. 11932. 140. o
-5 6 3 11234. 11898. 147. o
0 7 3 2631. 2831. 45. o
1 7 3 5596. 5403. 69. o
-1 7 3 4847. 5534. 71. o
2 7 3 2619. 2198. 39. o
-2 7 3 1998. 2310. 41. o
3 7 3 127869. 126165. 1276. o
-3 7 3 122527. 125041. 1366. o
4 7 3 105857. 105790. 1107. o
-4 7 3 105657. 106319. 1234. o
5 7 3 28636. 27858. 322. o
-5 7 3 27959. 28402. 352. o
6 7 3 11066. 11030. 171. o
-6 7 3 11177. 11115. 144. o
0 8 3 3160. 2928. 48. o
1 8 3 2302. 2409. 46. o
-1 8 3 1765. 2359. 44. o
2 8 3 35562. 37965. 416. o
-2 8 3 38129. 37596. 430. o
3 8 3 52194. 51037. 581. o
-3 8 3 49318. 51160. 594. o
4 8 3 94148. 96397. 1100. o
-4 8 3 100172. 97303. 1149. o
5 8 3 34786. 36127. 455. o
-5 8 3 37090. 36336. 436. o
6 8 3 584. 465. 50. o
-6 8 3 376. 428. 35. o
7 8 3 6143. 6790. 148. o
-7 8 3 6715. 6918. 108. o
0 9 3 5271. 4816. 75. o
1 9 3 295. 532. 30. o
-1 9 3 440. 508. 29. o
2 9 3 8487. 8671. 120. o
-2 9 3 7724. 8807. 118. o
3 9 3 8083. 8052. 120. o
-3 9 3 8003. 8325. 119. o
4 9 3 9543. 9392. 148. o
-4 9 3 8664. 9372. 138. o
5 9 3 18278. 18244. 286. o
-5 9 3 18089. 18456. 245. o
6 9 3 12870. 12352. 221. o
-6 9 3 11046. 12693. 184. o
7 9 3 4403. 4606. 124. o
-7 9 3 5097. 4662. 100. o
8 9 3 4774. 3832. 119. o
-8 9 3 3815. 3838. 95. o
0 10 3 56672. 57776. 681. o
1 10 3 10558. 10660. 146. o
-1 10 3 10226. 10527. 147. o
2 10 3 9535. 9610. 139. o
-2 10 3 9082. 9626. 134. o
3 10 3 2728. 3444. 74. o
-3 10 3 3806. 3563. 74. o
4 10 3 1963. 2261. 80. o
-4 10 3 1904. 2193. 60. o
5 10 3 2563. 2713. 93. o
-5 10 3 2634. 2685. 69. o
6 10 3 2136. 2306. 94. o
-6 10 3 2288. 2313. 74. o
7 10 3 28880. 28613. 438. o
-7 10 3 28418. 28079. 439. o
8 10 3 33284. 31511. 535. o
-8 10 3 31393. 31410. 468. o
9 10 3 2514. 2186. 127. o
-9 10 3 2229. 2288. 81. o
0 11 3 70151. 68848. 870. o
1 11 3 63505. 62499. 794. o
-1 11 3 63865. 62362. 814. o
2 11 3 773. 863. 47. o
-2 11 3 601. 873. 47. o
3 11 3 6008. 6017. 119. o
-3 11 3 6201. 6506. 125. o
4 11 3 1097. 1087. 66. o
-4 11 3 822. 1049. 55. o
5 11 3 5506. 5003. 134. o
-5 11 3 5231. 5150. 108. o
6 11 3 23365. 22235. 342. o
-6 11 3 23034. 21913. 352. o
7 11 3 68975. 68139. 1017. o
-7 11 3 69342. 67003. 992. o
8 11 3 21957. 21609. 387. o
-8 11 3 22661. 21573. 338. o
9 11 3 3944. 3771. 145. o
-9 11 3 4208. 4127. 108. o
10 11 3 4980. 4551. 171. o
-10 11 3 4545. 4767. 123. o
0 12 3 21447. 21396. 300. o
1 12 3 28945. 29456. 412. o
-1 12 3 28593. 29047. 398. o
2 12 3 16156. 16329. 244. o
-2 12 3 16229. 16038. 251. o
3 12 3 1933. 2352. 73. o
-3 12 3 2550. 2260. 81. o
4 12 3 1904. 2083. 93. o
-4 12 3 2334. 1948. 81. o
5 12 3 1838. 1823. 93. o
-5 12 3 1777. 1867. 78. o
6 12 3 26200. 26270. 440. o
-6 12 3 25970. 26272. 425. o
7 12 3 7481. 7552. 183. o
-7 12 3 8073. 7442. 163. o
8 12 3 26841. 26686. 457. o
-8 12 3 27200. 26270. 407. o
9 12 3 11198. 11361. 254. o
-9 12 3 12198. 11297. 208. o
10 12 3 2848. 2431. 139. o
-10 12 3 2717. 2779. 103. o
11 12 3 2066. 1860. 129. o
-11 12 3 2281. 2227. 109. o
0 13 3 6333. 6008. 128. o
1 13 3 547. 563. 55. o
-1 13 3 623. 618. 55. o
2 13 3 4162. 4099. 103. o
-2 13 3 3983. 4084. 108. o
3 13 3 1504. 1753. 76. o
-3 13 3 1675. 1770. 79. o
4 13 3 7310. 6767. 159. o
-4 13 3 6600. 6818. 152. o
5 13 3 76. 136. 72. <
-5 13 3 70. 122. 61. <
6 13 3 748. 669. 92. o
-6 13 3 552. 671. 72. o
7 13 3 179. 153. 81. <
-7 13 3 293. 190. 63. o
8 13 3 1216. 1075. 101. o
-8 13 3 1125. 1122. 77. o
9 13 3 8016. 7422. 204. o
-9 13 3 8289. 7655. 188. o
10 13 3 1044. 856. 140. o
-10 13 3 756. 784. 96. o
11 13 3 10130. 10126. 289. o
-11 13 3 10099. 9651. 309. o
12 13 3 4350. 4209. 243. o
-12 13 3 3595. 3801. 228. o
0 14 3 327. 347. 58. o
1 14 3 2733. 2709. 93. o
-1 14 3 2669. 2702. 90. o
2 14 3 2695. 2602. 92. o
-2 14 3 2763. 2569. 90. o
3 14 3 17616. 16251. 286. o
-3 14 3 17280. 17103. 290. o
4 14 3 39407. 36960. 597. o
-4 14 3 37204. 36316. 584. o
5 14 3 2403. 1948. 105. o
-5 14 3 1798. 2024. 92. o
6 14 3 3952. 3728. 146. o
-6 14 3 3845. 3644. 126. o
7 14 3 216. 242. 85. <
-7 14 3 500. 304. 71. o
8 14 3 6557. 6695. 183. o
-8 14 3 6403. 6615. 197. o
9 14 3 630. 470. 113. o
-9 14 3 698. 517. 95. o
10 14 3 11898. 12076. 359. o
-10 14 3 12938. 11993. 380. o
11 14 3 17542. 17793. 457. o
-11 14 3 17986. 16850. 553. o
12 14 3 8031. 7507. 292. o
-12 14 3 6859. 6727. 337. o
13 14 3 183. 98. 201. <
-13 14 3 255. 231. 170. <
0 15 3 2777. 2857. 100. o
1 15 3 1878. 1693. 86. o
-1 15 3 1536. 1640. 85. o
2 15 3 9184. 9053. 188. o
-2 15 3 9110. 9006. 188. o
3 15 3 43343. 43847. 698. o
-3 15 3 46629. 44472. 682. o
4 15 3 18398. 18518. 341. o
-4 15 3 18832. 18867. 333. o
5 15 3 20917. 20311. 363. o
-5 15 3 20850. 20894. 362. o
6 15 3 253. 311. 85. o
-6 15 3 215. 315. 84. o
7 15 3 2187. 1936. 119. o
-7 15 3 2095. 1986. 129. o
8 15 3 109. 18. 106. <
-8 15 3 94. -50. 112. <
9 15 3 6849. 6772. 243. o
-9 15 3 6717. 6718. 272. o
10 15 3 16896. 17303. 418. o
-10 15 3 17534. 16547. 617. o
11 15 3 14808. 15124. 465. o
-11 15 3 14287. 13833. 537. o
12 15 3 3734. 3642. 304. o
-12 15 3 3370. 3405. 252. o
13 15 3 467. 144. 392. <
-13 15 3 594. 209. 174. <
14 15 3 694. 161. 516. <
-14 15 3 596. 636. 191. o
0 16 3 3011. 3207. 112. o
1 16 3 668. 590. 76. o
-1 16 3 469. 578. 76. o
2 16 3 14265. 13787. 257. o
-2 16 3 13654. 13567. 265. o
3 16 3 1325. 1270. 91. o
-3 16 3 1391. 1435. 97. o
4 16 3 4792. 4533. 133. o
-4 16 3 4281. 4849. 163. o
5 16 3 9734. 9684. 219. o
-5 16 3 9839. 10234. 251. o
6 16 3 3859. 3604. 131. o
-6 16 3 4077. 3469. 165. o
7 16 3 863. 1087. 117. o
-7 16 3 1157. 968. 138. o
8 16 3 1409. 1506. 150. o
-8 16 3 1888. 1358. 181. o
9 16 3 2246. 2042. 198. o
-9 16 3 1708. 2068. 216. o
10 16 3 4688. 4731. 304. o
-10 16 3 4691. 4528. 280. o
11 16 3 826. 742. 236. o
-11 16 3 872. 548. 184. <
12 16 3 7255. 7801. 692. o
-12 16 3 7704. 6744. 353. o
13 16 3 2654. 2539. 625. o
-13 16 3 3026. 3012. 257. o
14 16 3 911. 686. 512. <
-14 16 3 975. 770. 207. o
-15 16 3 1582. 1508. 322. o
0 17 3 3609. 3858. 144. o
1 17 3 807. 681. 92. o
-1 17 3 872. 783. 97. o
2 17 3 22. -42. 79. <
-2 17 3 14. 37. 87. <
3 17 3 1944. 2108. 130. o
-3 17 3 2065. 1814. 137. o
4 17 3 2099. 1751. 121. o
-4 17 3 2376. 2031. 151. o
5 17 3 2442. 2661. 130. o
-5 17 3 2441. 2510. 190. o
6 17 3 1179. 1340. 133. o
-6 17 3 1217. 1298. 185. o
7 17 3 7660. 7497. 278. o
-7 17 3 6913. 6739. 349. o
8 17 3 3802. 3186. 240. o
-8 17 3 3433. 3258. 255. o
9 17 3 62. -70. 173. <
-9 17 3 57. -112. 170. <
10 17 3 574. 317. 282. <
-10 17 3 593. 538. 185. <
11 17 3 251. -131. 359. <
-11 17 3 229. 250. 181. <
12 17 3 224. -61. 382. <
-12 17 3 205. 23. 184. <
13 17 3 2005. 1644. 604. <
-13 17 3 1921. 1628. 229. o
-14 17 3 2018. 1566. 458. o
0 18 3 26282. 26638. 666. o
1 18 3 7324. 7384. 275. o
-1 18 3 7507. 7868. 314. o
2 18 3 2723. 3183. 211. o
-2 18 3 3200. 3150. 213. o
3 18 3 927. 905. 157. o
-3 18 3 766. 931. 170. o
4 18 3 1815. 1598. 163. o
-4 18 3 2004. 1659. 191. o
5 18 3 2660. 2382. 175. o
-5 18 3 2059. 2101. 201. o
6 18 3 6585. 6691. 252. o
-6 18 3 7094. 7233. 362. o
7 18 3 12784. 12931. 452. o
-7 18 3 13172. 12682. 518. o
8 18 3 10741. 10367. 437. o
-8 18 3 9925. 10320. 452. o
9 18 3 448. 308. 273. <
-9 18 3 379. 207. 220. <
10 18 3 837. 268. 309. <
-10 18 3 703. 657. 202. o
11 18 3 253. 111. 337. <
-11 18 3 350. 155. 189. <
12 18 3 2614. 2696. 596. o
-12 18 3 2674. 2848. 266. o
0 19 3 3619. 3791. 251. o
1 19 3 17427. 15354. 597. o
-1 19 3 16448. 17054. 555. o
2 19 3 3181. 2985. 237. o
-2 19 3 3070. 3192. 237. o
3 19 3 389. 103. 167. <
-3 19 3 335. 506. 175. <
4 19 3 2652. 3076. 214. o
-4 19 3 3043. 2919. 232. o
5 19 3 2093. 2209. 219. o
-5 19 3 1827. 2203. 220. o
6 19 3 10126. 10964. 423. o
-6 19 3 10890. 10864. 425. o
7 19 3 9161. 8587. 374. o
-7 19 3 9769. 9883. 440. o
8 19 3 3460. 3183. 274. o
-8 19 3 3443. 3291. 277. o
9 19 3 4044. 3888. 391. o
-9 19 3 4410. 4142. 346. o
10 19 3 196. 181. 276. <
-10 19 3 100. 286. 204. <
-11 19 3 774. 536. 290. <
0 20 3 28. 206. 179. <
1 20 3 762. 730. 190. o
-1 20 3 462. 806. 195. o
2 20 3 4227. 4632. 280. o
-2 20 3 4201. 4498. 285. o
3 20 3 738. 722. 193. o
-3 20 3 743. 760. 195. o
4 20 3 1132. 1245. 202. o
-4 20 3 1304. 1016. 201. o
5 20 3 1575. 1453. 239. o
-5 20 3 1452. 1542. 219. o
6 20 3 1879. 2194. 296. o
-6 20 3 1954. 2478. 237. o
7 20 3 820. 697. 242. <
-7 20 3 731. 620. 196. o
8 20 3 1347. 1098. 259. o
-8 20 3 1318. 1435. 281. o
9 20 3 3359. 2995. 390. o
-9 20 3 3168. 2407. 506. o
0 21 3 563. 645. 205. o
1 21 3 2314. 1930. 262. o
-1 21 3 2201. 2334. 244. o
2 21 3 213. 122. 213. <
-2 21 3 133. 377. 197. <
3 21 3 3122. 3630. 347. o
-3 21 3 2703. 2767. 260. o
4 21 3 2049. 2501. 319. o
-4 21 3 1976. 2018. 240. o
5 21 3 729. 453. 259. <
-5 21 3 712. 615. 210. <
6 21 3 886. 1041. 328. o
-6 21 3 929. 543. 317. <
7 21 3 338. 23. 431. <
-7 21 3 315. -447. 390. <
0 22 3 690. 1130. 502. <
1 22 3 610. 354. 460. <
-1 22 3 546. 836. 484. <
2 22 3 3580. 4480. 646. o
-2 22 3 3606. 4121. 660. o
3 22 3 5591. 6017. 766. o
-3 22 3 5287. 4797. 662. o
0 0 4 196855. 154814. 9320. o
0 1 4 60634. 56071. 1143. o
1 1 4 91400. 82378. 2373. o
-1 1 4 88318. 82885. 1948. o
0 2 4 776. 702. 32. o
1 2 4 4198. 4048. 71. o
-1 2 4 3657. 4067. 78. o
2 2 4 3116. 3072. 78. o
-2 2 4 2852. 3084. 93. o
0 3 4 8048. 8431. 135. o
1 3 4 1617. 1273. 37. o
-1 3 4 888. 1282. 39. o
2 3 4 1125. 907. 27. o
-2 3 4 660. 851. 32. o
3 3 4 71058. 65855. 1035. o
-3 3 4 63220. 65373. 1146. o
0 4 4 3. 27. 21. <
1 4 4 1320. 1390. 37. o
-1 4 4 581. 1365. 42. o
2 4 4 11891. 12658. 153. o
-2 4 4 13885. 12616. 192. o
3 4 4 118321. 114024. 1255. o
-3 4 4 119179. 115256. 1431. o
4 4 4 96619. 94995. 1520. o
-4 4 4 102043. 94599. 1674. o
0 5 4 905. 801. 30. o
1 5 4 695. 767. 25. o
-1 5 4 636. 736. 31. o
2 5 4 5104. 6072. 77. o
-2 5 4 6309. 6019. 94. o
3 5 4 31545. 32836. 349. o
-3 5 4 32519. 32734. 403. o
4 5 4 11162. 11873. 140. o
-4 5 4 12450. 11824. 150. o
5 5 4 40176. 38465. 582. o
-5 5 4 36201. 38785. 670. o
0 6 4 21908. 24498. 265. o
1 6 4 6963. 7072. 90. o
-1 6 4 6743. 7134. 91. o
2 6 4 5100. 5275. 72. o
-2 6 4 4647. 5280. 73. o
3 6 4 5237. 5695. 70. o
-3 6 4 5367. 5768. 81. o
4 6 4 225. 82. 22. o
-4 6 4 129. 135. 25. o
5 6 4 7235. 7134. 91. o
-5 6 4 6154. 7085. 103. o
6 6 4 6015. 7183. 156. o
-6 6 4 7130. 7189. 158. o
0 7 4 156879. 154102. 1545. o
1 7 4 46089. 46232. 477. o
-1 7 4 48307. 45989. 517. o
2 7 4 5845. 6152. 80. o
-2 7 4 5200. 6045. 93. o
3 7 4 2135. 2801. 46. o
-3 7 4 2897. 2710. 56. o
4 7 4 1686. 1626. 43. o
-4 7 4 2014. 1825. 44. o
5 7 4 6373. 6556. 100. o
-5 7 4 6807. 6566. 102. o
6 7 4 21121. 20071. 274. o
-6 7 4 19921. 20336. 260. o
7 7 4 60224. 57134. 1097. o
-7 7 4 57735. 59383. 1040. o
0 8 4 62343. 61545. 678. o
1 8 4 40373. 41618. 463. o
-1 8 4 43842. 41722. 476. o
2 8 4 14091. 14106. 176. o
-2 8 4 13678. 14017. 186. o
3 8 4 3278. 3655. 62. o
-3 8 4 3706. 3484. 71. o
4 8 4 179. 216. 32. o
-4 8 4 303. 254. 32. o
5 8 4 1182. 1042. 46. o
-5 8 4 1180. 1074. 44. o
6 8 4 27968. 28052. 376. o
-6 8 4 27912. 28841. 365. o
7 8 4 46578. 45146. 616. o
-7 8 4 46581. 46192. 633. o
8 8 4 45157. 47081. 952. o
-8 8 4 48462. 46179. 1018. o
0 9 4 2489. 2605. 58. o
1 9 4 17962. 17651. 223. o
-1 9 4 18277. 17810. 220. o
2 9 4 11030. 10671. 152. o
-2 9 4 10181. 10865. 156. o
3 9 4 1337. 1382. 50. o
-3 9 4 1228. 1479. 50. o
4 9 4 6745. 6440. 112. o
-4 9 4 6407. 6755. 113. o
5 9 4 50. 182. 41. o
-5 9 4 138. 148. 38. o
6 9 4 3020. 2608. 74. o
-6 9 4 2328. 2536. 81. o
7 9 4 3675. 3166. 85. o
-7 9 4 3391. 3334. 95. o
8 9 4 4753. 5360. 124. o
-8 9 4 5489. 5402. 141. o
9 9 4 8180. 8360. 232. o
-9 9 4 8670. 8240. 270. o
0 10 4 253. 262. 39. o
1 10 4 233. 192. 38. o
-1 10 4 103. 201. 34. o
2 10 4 6315. 6228. 114. o
-2 10 4 6284. 6524. 114. o
3 10 4 21686. 21229. 310. o
-3 10 4 21849. 21792. 302. o
4 10 4 22698. 21447. 318. o
-4 10 4 21288. 21077. 340. o
5 10 4 2593. 2444. 78. o
-5 10 4 2348. 2508. 81. o
6 10 4 2451. 2432. 79. o
-6 10 4 2352. 2461. 85. o
7 10 4 6182. 6324. 126. o
-7 10 4 6389. 6155. 147. o
8 10 4 3751. 3838. 103. o
-8 10 4 3475. 3829. 121. o
9 10 4 2199. 2053. 84. o
-9 10 4 2020. 2105. 104. o
10 10 4 4144. 3700. 154. o
-10 10 4 4790. 4140. 209. o
0 11 4 90. 32. 43. <
1 11 4 7153. 6687. 140. o
-1 11 4 6713. 6865. 129. o
2 11 4 6897. 6586. 135. o
-2 11 4 6942. 6637. 138. o
3 11 4 38737. 38268. 566. o
-3 11 4 40015. 38637. 567. o
4 11 4 66531. 64621. 970. o
-4 11 4 66702. 66190. 972. o
5 11 4 15378. 15557. 245. o
-5 11 4 15372. 16007. 282. o
6 11 4 4138. 4037. 103. o
-6 11 4 4080. 4007. 128. o
7 11 4 1244. 1146. 65. o
-7 11 4 1232. 1332. 83. o
8 11 4 1008. 851. 64. o
-8 11 4 840. 776. 79. o
9 11 4 2536. 2695. 95. o
-9 11 4 2598. 2651. 111. o
10 11 4 29619. 29098. 450. o
-10 11 4 29886. 29160. 525. o
11 11 4 19087. 19131. 526. o
-11 11 4 19122. 18661. 521. o
0 12 4 1100. 1118. 65. o
1 12 4 38. 36. 54. <
-1 12 4 65. 50. 48. <
2 12 4 19831. 19141. 322. o
-2 12 4 20246. 19753. 318. o
3 12 4 12829. 13006. 225. o
-3 12 4 13429. 13146. 241. o
4 12 4 18933. 18093. 295. o
-4 12 4 18843. 18204. 345. o
5 12 4 13796. 13307. 220. o
-5 12 4 14240. 13541. 276. o
6 12 4 1868. 1763. 77. o
-6 12 4 1849. 1765. 102. o
7 12 4 1586. 2030. 82. o
-7 12 4 2224. 1875. 97. o
8 12 4 297. 510. 65. o
-8 12 4 509. 365. 76. o
9 12 4 3166. 2953. 107. o
-9 12 4 2802. 2787. 119. o
10 12 4 9123. 8065. 188. o
-10 12 4 8421. 8718. 210. o
11 12 4 5312. 5274. 207. o
-11 12 4 5262. 5192. 162. o
12 12 4 15558. 15644. 591. o
-12 12 4 16196. 16172. 691. o
0 13 4 6504. 6344. 147. o
1 13 4 286. 296. 66. o
-1 13 4 209. 354. 65. o
2 13 4 1599. 1536. 85. o
-2 13 4 1586. 1480. 83. o
3 13 4 241. 271. 65. o
-3 13 4 83. 370. 70. o
4 13 4 3191. 3009. 105. o
-4 13 4 2997. 3281. 117. o
5 13 4 1756. 1828. 84. o
-5 13 4 2221. 1781. 97. o
6 13 4 5896. 5450. 133. o
-6 13 4 5282. 5514. 177. o
7 13 4 3790. 3714. 116. o
-7 13 4 3940. 3622. 153. o
8 13 4 6870. 6212. 151. o
-8 13 4 5806. 6033. 169. o
9 13 4 11. 32. 73. <
-9 13 4 14. -77. 80. <
10 13 4 559. 654. 109. o
-10 13 4 573. 491. 102. o
11 13 4 307. 228. 107. <
-11 13 4 349. 470. 117. o
12 13 4 1793. 1783. 149. o
-12 13 4 1929. 2198. 211. o
13 13 4 2548. 2993. 277. o
-13 13 4 2494. 2655. 334. o
0 14 4 24653. 23716. 436. o
1 14 4 9926. 9270. 207. o
-1 14 4 10014. 9180. 213. o
2 14 4 6256. 6314. 161. o
-2 14 4 6408. 6125. 166. o
3 14 4 47. 158. 68. <
-3 14 4 218. 68. 69. <
4 14 4 4050. 3723. 121. o
-4 14 4 3845. 3763. 131. o
5 14 4 412. 267. 69. o
-5 14 4 398. 308. 79. o
6 14 4 3176. 3297. 110. o
-6 14 4 3531. 3369. 138. o
7 14 4 25385. 24177. 406. o
-7 14 4 25428. 24138. 531. o
8 14 4 12946. 12015. 261. o
-8 14 4 10844. 12358. 297. o
9 14 4 389. 212. 105. <
-9 14 4 251. 202. 111. <
10 14 4 932. 918. 120. o
-10 14 4 887. 697. 150. o
11 14 4 422. 440. 115. o
-11 14 4 533. 433. 169. <
12 14 4 4756. 5152. 247. o
-12 14 4 4805. 4588. 289. o
13 14 4 465. 634. 152. o
-13 14 4 512. 480. 181. <
14 14 4 11692. 11692. 707. o
-14 14 4 11964. 12720. 719. o
0 15 4 28125. 27869. 507. o
1 15 4 29251. 28062. 495. o
-1 15 4 28245. 28011. 511. o
2 15 4 970. 1120. 92. o
-2 15 4 1242. 1297. 98. o
3 15 4 2431. 2311. 110. o
-3 15 4 2288. 2453. 116. o
4 15 4 1865. 1716. 98. o
-4 15 4 1981. 1717. 110. o
5 15 4 1858. 1903. 102. o
-5 15 4 1559. 1711. 109. o
6 15 4 19804. 18542. 362. o
-6 15 4 19638. 18874. 396. o
7 15 4 17437. 17582. 347. o
-7 15 4 18455. 17582. 402. o
8 15 4 9365. 9304. 258. o
-8 15 4 9503. 9159. 326. o
9 15 4 4720. 4454. 190. o
-9 15 4 5185. 5349. 285. o
10 15 4 1514. 1535. 168. o
-10 15 4 1232. 1403. 234. o
11 15 4 322. 244. 140. <
-11 15 4 258. 140. 171. <
12 15 4 710. 750. 158. o
-12 15 4 501. 733. 193. o
13 15 4 4621. 3683. 326. o
-13 15 4 4600. 4132. 287. o
14 15 4 9504. 9816. 615. o
-14 15 4 9716. 8908. 421. o
0 16 4 2814. 3151. 133. o
1 16 4 4719. 4826. 151. o
-1 16 4 4440. 4409. 153. o
2 16 4 7613. 7941. 199. o
-2 16 4 7923. 7854. 205. o
3 16 4 193. 173. 92. <
-3 16 4 303. 286. 89. o
4 16 4 837. 852. 104. o
-4 16 4 1088. 693. 109. o
5 16 4 1266. 1098. 103. o
-5 16 4 845. 1020. 121. o
6 16 4 8182. 8415. 214. o
-6 16 4 8049. 8627. 286. o
7 16 4 41. 62. 98. <
-7 16 4 87. 61. 143. <
8 16 4 8196. 8024. 284. o
-8 16 4 8123. 7750. 367. o
9 16 4 5750. 5686. 260. o
-9 16 4 6319. 4904. 302. o
10 16 4 619. 590. 154. o
-10 16 4 713. 149. 210. <
11 16 4 1952. 1892. 197. o
-11 16 4 1962. 2045. 227. o
12 16 4 169. -19. 218. <
-12 16 4 173. -328. 174. <
13 16 4 1694. 1156. 327. o
-13 16 4 1486. 1381. 335. o
0 17 4 4024. 3731. 168. o
1 17 4 2072. 1944. 129. o
-1 17 4 2160. 1935. 135. o
2 17 4 461. 689. 107. o
-2 17 4 636. 635. 111. o
3 17 4 1920. 1808. 131. o
-3 17 4 1718. 1818. 145. o
4 17 4 5586. 5442. 191. o
-4 17 4 5453. 5218. 227. o
5 17 4 107. -5. 115. <
-5 17 4 23. 130. 152. <
6 17 4 427. 478. 139. o
-6 17 4 461. 472. 181. <
7 17 4 207. -9. 131. <
-7 17 4 219. 181. 171. <
8 17 4 346. 138. 141. <
-8 17 4 338. 261. 179. <
9 17 4 1558. 1168. 169. o
-9 17 4 1270. 961. 200. o
10 17 4 488. 527. 176. <
-10 17 4 514. 182. 221. <
11 17 4 4524. 3718. 335. o
-11 17 4 4294. 3720. 280. o
-12 17 4 2820. 3284. 562. o
0 18 4 2. -278. 136. <
1 18 4 523. 257. 147. <
-1 18 4 310. 219. 148. <
2 18 4 1637. 1763. 179. o
-2 18 4 1521. 1470. 189. o
3 18 4 13710. 13449. 406. o
-3 18 4 13656. 13605. 478. o
4 18 4 10766. 9948. 334. o
-4 18 4 9764. 9463. 385. o
5 18 4 3013. 2810. 247. o
-5 18 4 2869. 2736. 225. o
6 18 4 2311. 1969. 233. o
-6 18 4 2388. 2142. 215. o
7 18 4 519. 597. 176. o
-7 18 4 428. 464. 196. <
8 18 4 3773. 3604. 248. o
-8 18 4 3734. 3069. 268. o
9 18 4 2753. 2798. 232. o
-9 18 4 2734. 2465. 259. o
10 18 4 6526. 6643. 415. o
-10 18 4 7101. 6327. 422. o
11 18 4 7800. 9126. 841. o
0 19 4 3990. 4205. 270. o
1 19 4 110. 305. 174. <
-1 19 4 67. 3. 166. <
2 19 4 8610. 9217. 382. o
-2 19 4 9364. 8855. 380. o
3 19 4 9269. 10109. 459. o
-3 19 4 10581. 10535. 418. o
4 19 4 4241. 4534. 311. o
-4 19 4 4287. 4608. 281. o
5 19 4 8346. 7552. 395. o
-5 19 4 8212. 8045. 359. o
6 19 4 411. 342. 201. <
-6 19 4 394. -67. 173. <
7 19 4 598. 422. 207. <
-7 19 4 579. 607. 193. o
8 19 4 334. 448. 186. <
-8 19 4 427. 270. 247. <
9 19 4 2049. 2096. 356. o
0 20 4 569. 44. 210. <
1 20 4 605. 714. 223. o
-1 20 4 488. 660. 200. o
2 20 4 2708. 3257. 291. o
-2 20 4 2674. 2937. 255. o
3 20 4 289. 230. 209. <
-3 20 4 228. 122. 186. <
4 20 4 669. 1086. 229. o
-4 20 4 586. 600. 198. o
5 20 4 2677. 2183. 264. o
-5 20 4 2253. 2488. 246. o
6 20 4 1140. 745. 259. <
-6 20 4 1159. 738. 318. <
7 20 4 715. 992. 479. <
-7 20 4 636. 664. 471. <
0 21 4 2529. 3942. 636. o
1 21 4 888. 1139. 485. <
-1 21 4 1108. 671. 498. <
2 21 4 259. 259. 462. <
0 1 5 288. 337. 94. o
0 2 5 5289. 4692. 147. o
1 2 5 2398. 2440. 90. o
-1 2 5 2708. 2382. 67. o
0 3 5 130287. 120375. 1707. o
1 3 5 36786. 38553. 575. o
-1 3 5 39839. 38970. 605. o
2 3 5 3619. 3798. 72. o
-2 3 5 3461. 3821. 88. o
0 4 5 42543. 43052. 643. o
1 4 5 50101. 48454. 702. o
-1 4 5 50430. 48684. 695. o
2 4 5 7615. 7010. 109. o
-2 4 5 6473. 6961. 133. o
3 4 5 1733. 2320. 47. o
-3 4 5 2239. 2255. 59. o
0 5 5 6172. 5983. 119. o
1 5 5 39689. 39224. 506. o
-1 5 5 38880. 38333. 606. o
2 5 5 6543. 6246. 93. o
-2 5 5 5591. 6068. 109. o
3 5 5 2332. 2559. 50. o
-3 5 5 2304. 2569. 63. o
4 5 5 1236. 1286. 40. o
-4 5 5 1377. 1337. 58. o
0 6 5 670. 625. 34. o
1 6 5 343. 308. 30. o
-1 6 5 189. 375. 34. o
2 6 5 7536. 8054. 111. o
-2 6 5 7850. 8277. 152. o
3 6 5 10687. 10628. 139. o
-3 6 5 10448. 10555. 190. o
4 6 5 10873. 11403. 151. o
-4 6 5 10824. 11130. 174. o
5 6 5 1555. 1463. 53. o
-5 6 5 1414. 1587. 49. o
0 7 5 1778. 1724. 54. o
1 7 5 6074. 5827. 104. o
-1 7 5 5910. 5946. 106. o
2 7 5 3421. 2863. 61. o
-2 7 5 2965. 2794. 71. o
3 7 5 18837. 19070. 249. o
-3 7 5 16936. 18855. 297. o
4 7 5 108906. 106610. 1394. o
-4 7 5 107699. 104165. 1503. o
5 7 5 10597. 11236. 191. o
-5 7 5 11592. 11111. 191. o
6 7 5 6856. 6776. 136. o
-6 7 5 6705. 6951. 137. o
0 8 5 16. -35. 36. <
1 8 5 232. 207. 38. o
-1 8 5 186. 161. 41. o
2 8 5 16350. 17136. 238. o
-2 8 5 17455. 16915. 273. o
3 8 5 44982. 43926. 600. o
-3 8 5 43794. 43703. 672. o
4 8 5 25151. 26290. 393. o
-4 8 5 26901. 25586. 433. o
5 8 5 8387. 9298. 162. o
-5 8 5 9600. 9230. 177. o
6 8 5 1429. 1342. 67. o
-6 8 5 1166. 1384. 73. o
7 8 5 1709. 1678. 79. o
-7 8 5 1921. 1700. 86. o
0 9 5 5158. 5128. 112. o
1 9 5 296. 373. 48. o
-1 9 5 355. 412. 50. o
2 9 5 3774. 3901. 95. o
-2 9 5 3839. 4032. 95. o
3 9 5 7835. 8056. 150. o
-3 9 5 7751. 8066. 161. o
4 9 5 745. 791. 61. o
-4 9 5 589. 810. 71. o
5 9 5 10870. 10786. 199. o
-5 9 5 10882. 10702. 231. o
6 9 5 9135. 8403. 176. o
-6 9 5 8365. 8400. 188. o
7 9 5 1133. 1302. 82. o
-7 9 5 1224. 1273. 91. o
8 9 5 4466. 4244. 131. o
-8 9 5 4222. 4151. 143. o
0 10 5 9166. 9663. 192. o
1 10 5 9038. 8631. 182. o
-1 10 5 8788. 8481. 170. o
2 10 5 5830. 5998. 131. o
-2 10 5 5921. 5612. 133. o
3 10 5 2357. 2671. 90. o
-3 10 5 2559. 2544. 92. o
4 10 5 1554. 1417. 74. o
-4 10 5 1371. 1424. 82. o
5 10 5 1182. 1341. 76. o
-5 10 5 1040. 1210. 81. o
6 10 5 1475. 1481. 80. o
-6 10 5 1550. 1513. 94. o
7 10 5 29628. 29269. 521. o
-7 10 5 29330. 28773. 544. o
8 10 5 8055. 7547. 199. o
-8 10 5 7093. 7616. 218. o
9 10 5 261. 152. 78. <
-9 10 5 138. 100. 94. <
0 11 5 79210. 76220. 1220. o
1 11 5 16555. 16542. 309. o
-1 11 5 16304. 16771. 289. o
2 11 5 102. 187. 62. o
-2 11 5 219. 199. 59. o
3 11 5 3572. 3840. 111. o
-3 11 5 3715. 3984. 117. o
4 11 5 34. 33. 59. <
-4 11 5 11. -44. 60. <
5 11 5 3133. 3046. 105. o
-5 11 5 2957. 2966. 119. o
6 11 5 20177. 18882. 349. o
-6 11 5 19754. 18619. 376. o
7 11 5 14942. 14928. 291. o
-7 11 5 15199. 14342. 316. o
8 11 5 26021. 26057. 505. o
-8 11 5 26542. 26080. 510. o
9 11 5 3832. 3784. 155. o
-9 11 5 3678. 3891. 162. o
10 11 5 3086. 2712. 149. o
-10 11 5 3197. 2978. 154. o
0 12 5 9932. 9626. 209. o
1 12 5 11572. 11776. 249. o
-1 12 5 11829. 11519. 230. o
2 12 5 8197. 7790. 199. o
-2 12 5 7808. 7652. 175. o
3 12 5 277. 543. 73. o
-3 12 5 552. 556. 69. o
4 12 5 110. 87. 65. <
-4 12 5 208. 165. 67. <
5 12 5 958. 959. 84. o
-5 12 5 919. 953. 88. o
6 12 5 12526. 11950. 265. o
-6 12 5 12160. 12088. 275. o
7 12 5 9367. 9665. 232. o
-7 12 5 9857. 9804. 246. o
8 12 5 17051. 17017. 384. o
-8 12 5 17623. 17471. 377. o
9 12 5 4146. 4047. 185. o
-9 12 5 4389. 4160. 168. o
10 12 5 2109. 2235. 172. o
-10 12 5 2083. 2078. 149. o
11 12 5 928. 773. 145. o
-11 12 5 879. 726. 145. o
0 13 5 5036. 4571. 151. o
1 13 5 799. 1057. 94. o
-1 13 5 1175. 908. 83. o
2 13 5 3855. 4057. 144. o
-2 13 5 3962. 4078. 126. o
3 13 5 730. 822. 91. o
-3 13 5 862. 865. 83. o
4 13 5 7532. 7330. 192. o
-4 13 5 7152. 7094. 184. o
5 13 5 34. 77. 79. <
-5 13 5 26. -92. 81. <
6 13 5 396. 348. 85. o
-6 13 5 195. 372. 91. o
7 13 5 1284. 1150. 102. o
-7 13 5 1019. 1407. 113. o
8 13 5 533. 436. 108. o
-8 13 5 540. 373. 103. o
9 13 5 940. 917. 134. o
-9 13 5 1056. 775. 127. o
10 13 5 998. 631. 145. o
-10 13 5 811. 771. 133. o
11 13 5 1603. 1651. 171. o
-11 13 5 1590. 1217. 160. o
12 13 5 3759. 3768. 221. o
-12 13 5 3435. 3281. 260. o
0 14 5 12. -38. 84. <
1 14 5 180. 198. 84. <
-1 14 5 115. 60. 85. <
2 14 5 2359. 2207. 129. o
-2 14 5 2171. 2546. 125. o
3 14 5 19866. 19478. 429. o
-3 14 5 19418. 19913. 411. o
4 14 5 7663. 7279. 210. o
-4 14 5 6371. 7587. 205. o
5 14 5 2425. 2479. 123. o
-5 14 5 2199. 2123. 131. o
6 14 5 4218. 4393. 171. o
-6 14 5 4336. 4240. 169. o
7 14 5 248. 206. 107. <
-7 14 5 403. 292. 116. <
8 14 5 5902. 5438. 228. o
-8 14 5 5816. 5761. 243. o
9 14 5 250. 256. 128. <
-9 14 5 247. 164. 139. <
10 14 5 5754. 6033. 244. o
-10 14 5 6161. 5858. 262. o
11 14 5 17834. 17565. 537. o
-11 14 5 18250. 18661. 650. o
12 14 5 2602. 2093. 194. o
-12 14 5 2045. 2204. 233. o
13 14 5 65. 41. 150. <
-13 14 5 74. 95. 290. <
0 15 5 2239. 2241. 136. o
1 15 5 2147. 2103. 139. o
-1 15 5 1939. 1946. 133. o
2 15 5 9747. 9458. 296. o
-2 15 5 9553. 9616. 265. o
3 15 5 13035. 13766. 405. o
-3 15 5 14503. 14464. 395. o
4 15 5 22053. 21938. 576. o
-4 15 5 22454. 22770. 562. o
5 15 5 10370. 10388. 334. o
-5 15 5 10412. 10818. 326. o
6 15 5 316. 516. 120. o
-6 15 5 367. 314. 120. <
7 15 5 1151. 1261. 136. o
-7 15 5 996. 1200. 156. o
8 15 5 24. -78. 122. <
-8 15 5 56. 61. 136. <
9 15 5 772. 826. 145. o
-9 15 5 702. 611. 149. o
10 15 5 17954. 18068. 500. o
-10 15 5 18312. 18541. 757. o
11 15 5 4414. 3723. 230. o
-11 15 5 4041. 4333. 294. o
12 15 5 2480. 2599. 210. o
-12 15 5 2381. 2869. 394. o
0 16 5 99. 129. 132. <
1 16 5 49. -64. 127. <
-1 16 5 8. -9. 128. <
2 16 5 7478. 7407. 275. o
-2 16 5 7442. 7605. 291. o
3 16 5 1062. 1312. 150. o
-3 16 5 1279. 1468. 161. o
4 16 5 5018. 4795. 222. o
-4 16 5 4760. 4821. 233. o
5 16 5 4965. 5382. 228. o
-5 16 5 4919. 4785. 235. o
6 16 5 959. 1065. 137. o
-6 16 5 1157. 1017. 151. o
7 16 5 1060. 1178. 151. o
-7 16 5 1070. 889. 154. o
8 16 5 227. 281. 138. <
-8 16 5 288. 138. 180. <
9 16 5 1207. 1119. 161. o
-9 16 5 1045. 1199. 208. o
10 16 5 1756. 2198. 199. o
-10 16 5 1729. 1890. 282. o
11 16 5 113. 156. 170. <
-11 16 5 97. 286. 303. <
0 17 5 5277. 4920. 246. o
1 17 5 360. 255. 144. <
-1 17 5 323. 363. 147. <
2 17 5 132. 36. 140. <
-2 17 5 71. 8. 138. <
3 17 5 1235. 883. 161. o
-3 17 5 1076. 1008. 161. o
4 17 5 1634. 1046. 164. o
-4 17 5 1615. 1390. 170. o
5 17 5 1168. 927. 165. o
-5 17 5 1040. 1243. 167. o
6 17 5 711. 318. 157. <
-6 17 5 651. 462. 190. <
7 17 5 2165. 1673. 172. o
-7 17 5 1877. 1548. 219. o
8 17 5 4303. 4347. 229. o
-8 17 5 4025. 4379. 303. o
9 17 5 31. 249. 173. <
-9 17 5 2. -328. 272. <
-10 17 5 428. 270. 418. <
0 18 5 4975. 4918. 256. o
1 18 5 8140. 8112. 328. o
-1 18 5 8007. 8076. 325. o
2 18 5 1732. 1858. 196. o
-2 18 5 1930. 1917. 210. o
3 18 5 162. 153. 153. <
-3 18 5 123. 39. 192. <
4 18 5 1553. 1535. 187. o
-4 18 5 1577. 1580. 228. o
5 18 5 1174. 1246. 196. o
-5 18 5 1149. 1257. 222. o
6 18 5 1669. 1275. 201. o
-6 18 5 1921. 1718. 341. o
7 18 5 12721. 12505. 702. o
-7 18 5 12754. 10292. 695. o
-8 18 5 2536. 1991. 491. o
0 19 5 4773. 5570. 348. o
1 19 5 8411. 8598. 428. o
-1 19 5 7769. 8740. 498. o
2 19 5 2759. 2882. 321. o
-2 19 5 2690. 2006. 366. o
3 19 5 128. 389. 301. <
-3 19 5 145. 227. 303. <
4 19 5 2400. 2678. 387. o
-4 19 5 2474. 2284. 382. o
5 19 5 464. 940. 464. <
-5 19 5 334. 276. 402. <
-6 19 5 9859. 10725. 934. o
0 20 5 883. 944. 474. <
1 20 5 580. -171. 421. <
-1 20 5 454. -109. 443. <
2 20 5 1588. 3321. 607. o
-2 20 5 1676. 1448. 496. <
0 0 6 5059. 5237. 522. o
0 1 6 44670. 44911. 1426. o
1 1 6 31019. 31420. 1414. o
-1 1 6 29089. 30030. 938. o
0 2 6 3505. 3308. 118. o
1 2 6 763. 792. 90. o
-1 2 6 834. 920. 77. o
2 2 6 3526. 3842. 309. o
-2 2 6 3442. 3850. 191. o
0 3 6 1380. 1232. 75. o
1 3 6 1191. 1177. 74. o
-1 3 6 1148. 1315. 86. o
2 3 6 1213. 1072. 57. o
-2 3 6 1225. 1085. 85. o
3 3 6 10605. 11089. 257. o
-3 3 6 9159. 10648. 366. o
0 4 6 16. 44. 53. <
1 4 6 425. 497. 61. o
-1 4 6 447. 508. 62. o
2 4 6 6693. 7628. 139. o
-2 4 6 7151. 7093. 202. o
3 4 6 76584. 76018. 1096. o
-3 4 6 75603. 75260. 1732. o
4 4 6 7839. 10674. 276. o
-4 4 6 9141. 11362. 397. o
0 5 6 1375. 1349. 82. o
1 5 6 79. 195. 50. o
-1 5 6 105. 182. 69. <
2 5 6 2074. 2141. 71. o
-2 5 6 1884. 2105. 109. o
3 5 6 17293. 18159. 326. o
-3 5 6 17792. 17592. 421. o
4 5 6 5434. 5983. 147. o
-4 5 6 6205. 5935. 172. o
5 5 6 22797. 23788. 654. o
-5 5 6 23087. 23031. 663. o
0 6 6 1794. 1714. 81. o
1 6 6 4916. 5203. 122. o
-1 6 6 4908. 5392. 159. o
2 6 6 1499. 1483. 74. o
-2 6 6 1752. 1549. 100. o
3 6 6 2654. 2942. 99. o
-3 6 6 2767. 2949. 130. o
4 6 6 2587. 2344. 99. o
-4 6 6 1992. 2500. 95. o
5 6 6 3414. 3624. 123. o
-5 6 6 3156. 3425. 96. o
6 6 6 3556. 3661. 180. o
-6 6 6 3468. 3938. 151. o
0 7 6 101325. 100614. 1624. o
1 7 6 3536. 4305. 121. o
-1 7 6 4283. 4398. 116. o
2 7 6 841. 923. 74. o
-2 7 6 939. 859. 72. o
3 7 6 1436. 1498. 86. o
-3 7 6 1378. 1577. 77. o
4 7 6 1506. 1716. 93. o
-4 7 6 1788. 1874. 79. o
5 7 6 2443. 2367. 106. o
-5 7 6 2367. 2399. 89. o
6 7 6 14042. 13883. 305. o
-6 7 6 13987. 13729. 296. o
7 7 6 3438. 3596. 187. o
-7 7 6 2809. 3053. 165. o
0 8 6 6040. 6130. 166. o
1 8 6 22866. 22982. 470. o
-1 8 6 22759. 22790. 439. o
2 8 6 5624. 5565. 165. o
-2 8 6 5111. 5392. 151. o
3 8 6 531. 551. 74. o
-3 8 6 509. 641. 68. o
4 8 6 32. 149. 69. <
-4 8 6 16. 45. 65. <
5 8 6 1377. 1622. 98. o
-5 8 6 1504. 1466. 91. o
6 8 6 7281. 6827. 195. o
-6 8 6 7619. 7235. 191. o
7 8 6 36878. 37541. 728. o
-7 8 6 36934. 37511. 711. o
8 8 6 12870. 12634. 422. o
-8 8 6 13550. 12398. 436. o
0 9 6 144. 66. 71. <
1 9 6 8709. 8885. 234. o
-1 9 6 8713. 9132. 237. o
2 9 6 6596. 6675. 190. o
-2 9 6 6106. 6537. 185. o
3 9 6 734. 913. 87. o
-3 9 6 997. 982. 85. o
4 9 6 4201. 4147. 139. o
-4 9 6 4083. 4106. 138. o
5 9 6 120. 158. 79. <
-5 9 6 81. 198. 77. <
6 9 6 326. 403. 86. o
-6 9 6 426. 488. 93. o
7 9 6 3663. 3845. 147. o
-7 9 6 3266. 3719. 145. o
8 9 6 1058. 1024. 105. o
-8 9 6 1014. 1184. 116. o
9 9 6 1971. 1846. 171. o
-9 9 6 1846. 1945. 195. o
0 10 6 1320. 1238. 102. o
1 10 6 487. 385. 84. o
-1 10 6 270. 333. 84. o
2 10 6 4241. 4492. 156. o
-2 10 6 4040. 4610. 155. o
3 10 6 16695. 16251. 366. o
-3 10 6 16512. 16501. 363. o
4 10 6 2937. 2937. 126. o
-4 10 6 2502. 3134. 127. o
5 10 6 1419. 1271. 100. o
-5 10 6 1328. 1399. 105. o
6 10 6 1585. 1670. 112. o
-6 10 6 1683. 1720. 113. o
7 10 6 2217. 2303. 129. o
-7 10 6 2454. 2461. 130. o
8 10 6 2406. 2047. 128. o
-8 10 6 2338. 2136. 141. o
9 10 6 1906. 1763. 142. o
-9 10 6 1702. 1689. 153. o
10 10 6 2009. 2184. 240. o
-10 10 6 2151. 1923. 259. o
0 11 6 118. 94. 84. <
1 11 6 3645. 3838. 153. o
-1 11 6 3575. 3479. 147. o
2 11 6 4756. 4467. 163. o
-2 11 6 4461. 4651. 162. o
3 11 6 6543. 6444. 196. o
-3 11 6 6505. 6197. 192. o
4 11 6 48518. 50204. 911. o
-4 11 6 49521. 48501. 962. o
5 11 6 5229. 5198. 169. o
-5 11 6 5086. 5359. 181. o
6 11 6 2727. 3187. 144. o
-6 11 6 3000. 3145. 142. o
7 11 6 608. 666. 108. o
-7 11 6 578. 646. 105. o
8 11 6 280. 218. 123. <
-8 11 6 253. 305. 112. <
9 11 6 256. 274. 130. <
-9 11 6 317. 304. 122. <
10 11 6 21234. 20985. 591. o
-10 11 6 21019. 21118. 646. o
11 11 6 2760. 2597. 273. o
-11 11 6 2590. 2415. 270. o
0 12 6 156. 192. 93. <
1 12 6 31. -77. 87. <
-1 12 6 8. -78. 86. <
2 12 6 9810. 9826. 264. o
-2 12 6 9778. 9981. 285. o
3 12 6 10392. 10724. 277. o
-3 12 6 10264. 10557. 277. o
4 12 6 7894. 7632. 225. o
-4 12 6 8400. 7585. 225. o
5 12 6 5366. 5630. 190. o
-5 12 6 5583. 5483. 195. o
6 12 6 663. 555. 110. o
-6 12 6 619. 850. 114. o
7 12 6 1160. 1061. 142. o
-7 12 6 1082. 1147. 140. o
8 12 6 41. 49. 124. <
-8 12 6 17. -66. 116. <
9 12 6 1929. 1758. 169. o
-9 12 6 1683. 1529. 154. o
10 12 6 2497. 2603. 193. o
-10 12 6 2206. 2578. 213. o
11 12 6 4793. 5543. 257. o
-11 12 6 4850. 4846. 248. o
12 12 6 8626. 8032. 460. o
-12 12 6 8862. 9590. 894. o
0 13 6 6465. 6970. 231. o
1 13 6 151. -50. 98. <
-1 13 6 78. 101. 100. <
2 13 6 839. 763. 114. o
-2 13 6 644. 784. 115. o
3 13 6 2248. 1673. 132. o
-3 13 6 1729. 1872. 133. o
4 13 6 1397. 1223. 135. o
-4 13 6 1316. 1098. 124. o
5 13 6 518. 452. 120. o
-5 13 6 621. 455. 113. o
6 13 6 2730. 2787. 169. o
-6 13 6 2532. 2251. 165. o
7 13 6 170. 100. 128. <
-7 13 6 195. -13. 122. <
8 13 6 4524. 4339. 225. o
-8 13 6 4421. 4219. 222. o
9 13 6 14. -4. 136. <
-9 13 6 5. -62. 138. <
10 13 6 191. 28. 141. <
-10 13 6 165. -327. 152. <
11 13 6 1277. 1094. 172. o
-11 13 6 1302. 1397. 226. o
12 13 6 752. 1107. 318. o
-12 13 6 962. 376. 338. <
-13 13 6 281. 342. 484. <
0 14 6 1136. 1205. 160. o
1 14 6 8499. 8100. 328. o
-1 14 6 8400. 8193. 326. o
2 14 6 3566. 3688. 223. o
-2 14 6 3779. 4086. 224. o
3 14 6 553. 602. 151. o
-3 14 6 546. 510. 133. o
4 14 6 1748. 1524. 172. o
-4 14 6 1779. 1672. 160. o
5 14 6 793. 767. 160. o
-5 14 6 940. 1030. 149. o
6 14 6 433. 483. 140. o
-6 14 6 601. 424. 138. o
7 14 6 19087. 18506. 547. o
-7 14 6 19227. 19098. 593. o
8 14 6 1424. 1244. 168. o
-8 14 6 809. 1175. 165. o
9 14 6 317. 227. 149. <
-9 14 6 280. 186. 150. <
10 14 6 550. 834. 185. o
-10 14 6 565. 231. 206. <
11 14 6 470. 609. 283. <
-11 14 6 439. -11. 310. <
-12 14 6 2432. 2815. 599. o
0 15 6 22905. 23247. 707. o
1 15 6 8428. 7968. 330. o
-1 15 6 7726. 7557. 328. o
2 15 6 1226. 1169. 171. o
-2 15 6 1262. 940. 167. o
3 15 6 1637. 1964. 189. o
-3 15 6 1720. 1945. 189. o
4 15 6 578. 300. 156. <
-4 15 6 639. 567. 146. o
5 15 6 499. 405. 159. <
-5 15 6 389. 455. 147. o
6 15 6 14204. 13648. 489. o
-6 15 6 14386. 14206. 446. o
7 15 6 2501. 2382. 196. o
-7 15 6 2822. 2389. 195. o
8 15 6 9261. 9281. 353. o
-8 15 6 9184. 10484. 459. o
9 15 6 2158. 2018. 289. o
-9 15 6 2335. 2397. 260. o
-10 15 6 567. 703. 355. <
0 16 6 3042. 3048. 228. o
1 16 6 2878. 2819. 223. o
-1 16 6 2759. 3063. 225. o
2 16 6 2581. 2652. 216. o
-2 16 6 2666. 2235. 207. o
3 16 6 119. 263. 158. <
-3 16 6 120. 178. 160. <
4 16 6 59. 111. 158. <
-4 16 6 59. 5. 154. <
5 16 6 291. 284. 166. <
-5 16 6 344. 308. 162. <
6 16 6 2569. 2988. 260. o
-6 16 6 2697. 2761. 309. o
7 16 6 499. 659. 236. <
-7 16 6 530. 611. 241. <
8 16 6 4836. 4509. 442. o
-8 16 6 4914. 6114. 518. o
-9 16 6 3611. 2898. 588. o
0 17 6 1643. 1251. 257. o
1 17 6 1228. 1405. 269. o
-1 17 6 1331. 1011. 251. o
2 17 6 482. 131. 224. <
-2 17 6 475. 279. 227. <
3 17 6 679. 752. 245. o
-3 17 6 525. 623. 237. <
4 17 6 4210. 4636. 367. o
-4 17 6 4195. 4726. 376. o
5 17 6 54. -32. 223. <
-5 17 6 39. -295. 221. <
-6 17 6 283. -174. 465. <
0 18 6 102. 145. 293. <
1 18 6 360. -93. 424. <
-1 18 6 381. 969. 446. <
0 1 7 72. 206. 83. <
0 2 7 1434. 1583. 102. o
1 2 7 2589. 2905. 125. o
-1 2 7 2393. 2479. 134. o
0 3 7 59988. 62232. 1557. o
1 3 7 7729. 8779. 294. o
-1 3 7 8003. 8528. 294. o
2 3 7 574. 600. 70. o
-2 3 7 650. 693. 116. o
0 4 7 24. 25. 99. <
1 4 7 25844. 26756. 765. o
-1 4 7 25991. 26323. 717. o
2 4 7 4113. 3976. 145. o
-2 4 7 3703. 4016. 196. o
3 4 7 916. 824. 110. o
-3 4 7 934. 932. 129. o
0 5 7 5816. 6133. 305. o
1 5 7 14805. 15473. 398. o
-1 5 7 14299. 15723. 466. o
2 5 7 2561. 2474. 129. o
-2 5 7 2688. 2558. 172. o
3 5 7 702. 682. 109. o
-3 5 7 896. 560. 126. o
4 5 7 1079. 1179. 125. o
-4 5 7 1065. 1211. 140. o
0 6 7 3748. 3710. 141. o
1 6 7 179. 256. 89. <
-1 6 7 96. 192. 98. <
2 6 7 3178. 3268. 170. o
-2 6 7 2744. 3410. 202. o
3 6 7 7200. 7640. 244. o
-3 6 7 7448. 7277. 276. o
4 6 7 1835. 2156. 134. o
-4 6 7 1851. 2099. 150. o
5 6 7 2123. 1798. 122. o
-5 6 7 2046. 2098. 132. o
0 7 7 503. 838. 115. o
1 7 7 1730. 1668. 140. o
-1 7 7 1799. 1913. 140. o
2 7 7 2006. 2181. 139. o
-2 7 7 2141. 2206. 132. o
3 7 7 12. 273. 104. <
-3 7 7 16. 179. 118. <
4 7 7 52019. 52961. 1218. o
-4 7 7 51573. 52634. 1167. o
5 7 7 1751. 2105. 133. o
-5 7 7 1899. 2221. 140. o
6 7 7 2184. 2484. 143. o
-6 7 7 2462. 2335. 145. o
0 8 7 291. 327. 99. o
1 8 7 114. 82. 96. <
-1 8 7 184. 149. 110. <
2 8 7 5309. 5404. 210. o
-2 8 7 5520. 5095. 219. o
3 8 7 25328. 24851. 625. o
-3 8 7 25381. 25306. 681. o
4 8 7 2593. 2855. 164. o
-4 8 7 3016. 2639. 158. o
5 8 7 7021. 7028. 233. o
-5 8 7 6688. 6776. 281. o
6 8 7 1217. 1067. 119. o
-6 8 7 892. 937. 123. o
7 8 7 1108. 1179. 127. o
-7 8 7 1137. 932. 127. o
0 9 7 3244. 3467. 173. o
1 9 7 353. 345. 108. o
-1 9 7 225. 242. 107. <
2 9 7 1560. 1767. 141. o
-2 9 7 1565. 1557. 133. o
3 9 7 4899. 4452. 198. o
-3 9 7 4554. 4853. 223. o
4 9 7 303. 304. 114. <
-4 9 7 303. 344. 117. <
5 9 7 3326. 3390. 173. o
-5 9 7 3481. 3445. 186. o
6 9 7 3091. 3189. 172. o
-6 9 7 2879. 3219. 190. o
7 9 7 200. 177. 115. <
-7 9 7 190. 143. 148. <
8 9 7 1958. 1729. 156. o
-8 9 7 2068. 1870. 197. o
0 10 7 6. 37. 112. <
1 10 7 5650. 6234. 249. o
-1 10 7 5786. 5845. 234. o
2 10 7 2626. 2918. 175. o
-2 10 7 2833. 2747. 164. o
3 10 7 891. 642. 129. o
-3 10 7 801. 690. 122. o
4 10 7 1710. 1448. 153. o
-4 10 7 1645. 1702. 143. o
5 10 7 1785. 1753. 161. o
-5 10 7 1584. 1582. 160. o
6 10 7 442. 508. 126. o
-6 10 7 466. 496. 134. o
7 10 7 15291. 15893. 461. o
-7 10 7 15268. 15371. 549. o
8 10 7 1111. 897. 147. o
-8 10 7 940. 994. 160. o
9 10 7 196. 404. 141. <
-9 10 7 290. 233. 148. <
0 11 7 42000. 42806. 1160. o
1 11 7 2015. 2001. 164. o
-1 11 7 1866. 2086. 162. o
2 11 7 178. 280. 127. <
-2 11 7 430. 273. 123. <
3 11 7 1824. 1880. 165. o
-3 11 7 1774. 1870. 156. o
4 11 7 128. 34. 126. <
-4 11 7 327. 209. 119. <
5 11 7 1054. 959. 151. o
-5 11 7 1007. 982. 141. o
6 11 7 11434. 11260. 365. o
-6 11 7 10944. 10516. 423. o
7 11 7 1293. 1249. 155. o
-7 11 7 1214. 1115. 167. o
8 11 7 16430. 17459. 511. o
-8 11 7 16667. 17412. 614. o
9 11 7 1961. 2193. 186. o
-9 11 7 2014. 2135. 203. o
10 11 7 1104. 218. 273. <
-10 11 7 1190. 1130. 292. o
0 12 7 2021. 1741. 166. o
1 12 7 7697. 8365. 324. o
-1 12 7 7962. 8279. 321. o
2 12 7 2830. 3138. 201. o
-2 12 7 2774. 2929. 195. o
3 12 7 465. 381. 138. <
-3 12 7 353. 433. 132. o
4 12 7 335. 532. 144. o
-4 12 7 220. 117. 127. <
5 12 7 340. 271. 144. <
-5 12 7 353. 373. 137. <
6 12 7 3255. 3283. 219. o
-6 12 7 3391. 3454. 212. o
7 12 7 6818. 7563. 295. o
-7 12 7 6929. 7404. 343. o
8 12 7 5830. 5587. 258. o
-8 12 7 5964. 4994. 441. o
9 12 7 2073. 2005. 330. o
-9 12 7 1978. 1773. 316. o
10 12 7 695. 934. 303. o
0 13 7 660. 554. 148. o
1 13 7 893. 962. 159. o
-1 13 7 1148. 1056. 157. o
2 13 7 1582. 1234. 167. o
-2 13 7 1428. 1440. 166. o
3 13 7 42. 46. 139. <
-3 13 7 59. 296. 144. <
4 13 7 3932. 4163. 238. o
-4 13 7 3872. 4039. 232. o
5 13 7 55. -22. 147. <
-5 13 7 22. -146. 140. <
6 13 7 42. -78. 147. <
-6 13 7 8. 32. 141. <
7 13 7 2347. 3480. 521. o
-7 13 7 2061. 2169. 327. o
8 13 7 59. 123. 263. <
9 13 7 350. 348. 274. <
0 14 7 148. -54. 146. <
1 14 7 1208. 1224. 172. o
-1 14 7 1281. 1301. 178. o
2 14 7 530. 623. 162. o
-2 14 7 509. 395. 155. <
3 14 7 10766. 10608. 405. o
-3 14 7 10899. 10412. 394. o
4 14 7 30. -16. 205. <
-4 14 7 9. -154. 195. <
5 14 7 2004. 2040. 446. o
-5 14 7 1980. 1547. 262. o
6 14 7 1224. 1066. 424. <
-6 14 7 1386. 1143. 472. <
7 14 7 137. 474. 396. <
0 15 7 573. 251. 271. <
1 15 7 874. 283. 386. <
-1 15 7 766. 852. 300. <
2 15 7 4824. 5798. 655. o
-2 15 7 4783. 5387. 664. o
3 15 7 2835. 3581. 543. o
-3 15 7 2869. 3140. 558. o
4 15 7 13371. 15102. 1146. o
-4 15 7 13163. 17019. 1294. o
5 15 7 2952. 2906. 529. o
-5 15 7 2811. 3041. 591. o
-6 15 7 173. 373. 454. <
0 16 7 133. -204. 390. <
1 16 7 18. 310. 408. <
-1 16 7 34. 871. 443. <
2 16 7 2358. 3158. 533. o
-2 16 7 2424. 2560. 562. o
-3 16 7 1224. 2680. 565. o
0 0 8 4484. 4435. 331. o
0 1 8 17879. 18849. 649. o
1 1 8 7188. 8763. 390. o
-1 1 8 7110. 8330. 425. o
0 2 8 2968. 3129. 215. o
1 2 8 702. 811. 114. o
-1 2 8 782. 568. 142. o
2 2 8 602. 630. 160. o
-2 2 8 516. 366. 184. <
0 3 8 442. 722. 155. o
1 3 8 183. 148. 126. <
-1 3 8 241. 291. 148. <
2 3 8 2325. 2963. 170. o
-2 3 8 2601. 2535. 209. o
3 3 8 1848. 2448. 234. o
-3 3 8 2158. 2667. 326. o
0 4 8 63. 215. 152. <
1 4 8 155. 256. 113. <
-1 4 8 284. 105. 147. <
2 4 8 1250. 1418. 144. o
-2 4 8 1250. 1666. 194. o
3 4 8 26962. 28435. 754. o
-3 4 8 27105. 28302. 946. o
4 4 8 1958. 1566. 197. o
-4 4 8 1661. 2192. 327. o
0 5 8 500. 521. 139. o
1 5 8 168. 135. 105. <
-1 5 8 153. 108. 155. <
2 5 8 2724. 2682. 176. o
-2 5 8 2357. 2489. 224. o
3 5 8 3053. 3361. 181. o
-3 5 8 3307. 3320. 252. o
4 5 8 6229. 6169. 270. o
-4 5 8 5954. 6737. 347. o
5 5 8 4004. 4355. 311. o
-5 5 8 4342. 4282. 481. o
0 6 8 5. 117. 112. <
1 6 8 3649. 3732. 186. o
-1 6 8 3443. 3722. 229. o
2 6 8 631. 879. 123. o
-2 6 8 777. 459. 179. <
3 6 8 244. 244. 113. <
-3 6 8 219. 211. 170. <
4 6 8 2644. 2296. 171. o
-4 6 8 2364. 2652. 202. o
5 6 8 1501. 1252. 151. o
-5 6 8 1257. 1406. 159. o
6 6 8 1399. 1291. 222. o
-6 6 8 1101. 1435. 203. o
0 7 8 35969. 36674. 1111. o
1 7 8 277. 292. 115. <
-1 7 8 202. 382. 114. o
2 7 8 433. 486. 123. o
-2 7 8 787. 654. 118. o
3 7 8 405. 424. 125. o
-3 7 8 372. 261. 111. <
4 7 8 666. 619. 135. o
-4 7 8 706. 503. 116. o
5 7 8 409. 754. 144. o
-5 7 8 462. 419. 152. <
6 7 8 5763. 5870. 287. o
-6 7 8 5788. 5961. 271. o
7 7 8 1546. 1560. 251. o
-7 7 8 1505. 1646. 235. o
0 8 8 99. 31. 117. <
1 8 8 11725. 11788. 428. o
-1 8 8 11519. 11653. 423. o
2 8 8 2035. 1678. 166. o
-2 8 8 1718. 2037. 164. o
3 8 8 984. 896. 149. o
-3 8 8 966. 833. 136. o
4 8 8 143. 222. 133. <
-4 8 8 147. 120. 117. <
5 8 8 305. 203. 140. <
-5 8 8 279. 226. 124. <
6 8 8 1841. 1419. 182. o
-6 8 8 1781. 1913. 170. o
7 8 8 15163. 16213. 575. o
-7 8 8 15312. 15377. 656. o
0 9 8 223. 248. 134. <
1 9 8 2722. 3105. 203. o
-1 9 8 2987. 2870. 197. o
2 9 8 1178. 788. 153. o
-2 9 8 1255. 927. 147. o
3 9 8 46. 23. 134. <
-3 9 8 92. 77. 127. <
4 9 8 1836. 1785. 189. o
-4 9 8 1913. 2010. 174. o
5 9 8 46. 0. 144. <
-5 9 8 18. -68. 128. <
6 9 8 474. 704. 168. o
-6 9 8 650. 570. 148. o
0 10 8 1794. 1479. 172. o
1 10 8 795. 571. 154. o
-1 10 8 817. 698. 151. o
2 10 8 854. 493. 157. o
-2 10 8 738. 981. 156. o
3 10 8 6922. 7844. 346. o
-3 10 8 7080. 7282. 326. o
4 10 8 500. 380. 162. <
-4 10 8 692. 603. 147. o
-5 10 8 1934. 1746. 208. o
0 11 8 101. -31. 186. <
1 11 8 975. 1473. 239. o
-1 11 8 994. 856. 209. o
-2 11 8 2452. 2576. 259. o
0 1 9 31. -31. 89. <
0 2 9 268. 320. 119. <
1 2 9 2323. 2256. 142. o
-1 2 9 2057. 2692. 240. o
0 3 9 15258. 16121. 603. o
1 3 9 1391. 1798. 135. o
-1 3 9 1274. 1840. 226. o
2 3 9 826. 848. 117. o
-2 3 9 840. 895. 197. o
0 4 9 5398. 5572. 279. o
1 4 9 9534. 9567. 350. o
-1 4 9 9182. 9858. 537. o
2 4 9 1309. 1339. 137. o
-2 4 9 1122. 1328. 224. o
3 4 9 460. 294. 120. <
0 5 9 3325. 3702. 214. o
1 5 9 1859. 2166. 206. o
2 5 9 732. 866. 180. o
3 5 9 100. -226. 235. <
0 6 9 2750. 2752. 227. o
1 6 9 139. 135. 151. <
-1 6 9 114. 350. 213. <
