#------------------------------------------------------------------------------
#$Date: 2016-03-23 22:36:42 +0200 (Wed, 23 Mar 2016) $
#$Revision: 179486 $
#$URL: svn://www.crystallography.net/cod/cif/4/33/83/4338378.cif $
#------------------------------------------------------------------------------
#
# This file is available in the Crystallography Open Database (COD),
# http://www.crystallography.net/
#
# All data on this site have been placed in the public domain by the
# contributors.
#
data_4338378
loop_
_publ_author_name
'Abrahams, Brendan F.'
'Dharma, A. David'
'Grannas, Martin J.'
'Hudson, Timothy A.'
'Maynard-Casely, Helen E'
'Oliver, Graham R.'
'Robson, Richard'
'White, Keith F.'
_publ_section_title
;
 Isomeric Ionic Lithium Isonicotinate Three-Dimensional Networks and
 Single-Crystal-to-Single-Crystal Rearrangements Generating Microporous
 Materials.
;
_journal_issue                   10
_journal_name_full               'Inorganic chemistry'
_journal_page_first              4956
_journal_page_last               4969
_journal_paper_doi               10.1021/ic403134c
_journal_volume                  53
_journal_year                    2014
_chemical_formula_sum            'C16 H16 Li2 N2 O6'
_chemical_formula_weight         346.19
_chemical_name_systematic
;
 ?
;
_space_group_crystal_system      triclinic
_space_group_IT_number           2
_space_group_name_Hall           '-P 1'
_space_group_name_H-M_alt        'P -1'
_symmetry_space_group_name_Hall  '-P 1'
_symmetry_space_group_name_H-M   'P -1'
_atom_sites_solution_hydrogens   geom
_audit_creation_method           SHELXL-2014
_cell_angle_alpha                90.885(5)
_cell_angle_beta                 94.250(4)
_cell_angle_gamma                91.825(4)
_cell_formula_units_Z            2
_cell_length_a                   5.3992(2)
_cell_length_b                   11.1408(6)
_cell_length_c                   13.6811(8)
_cell_measurement_reflns_used    2495
_cell_measurement_temperature    130(2)
_cell_measurement_theta_max      74.36
_cell_measurement_theta_min      3.97
_cell_volume                     820.13(7)
_computing_cell_refinement
;
CrysAlisPro, Agilent Technologies,
Version 1.171.36.20 (release 27-06-2012 CrysAlis171 .NET)
(compiled Jul 11 2012,15:38:31)
;
_computing_data_collection
;
CrysAlisPro, Agilent Technologies,
Version 1.171.36.20 (release 27-06-2012 CrysAlis171 .NET)
(compiled Jul 11 2012,15:38:31)
;
_computing_data_reduction
;
CrysAlisPro, Agilent Technologies,
Version 1.171.36.20 (release 27-06-2012 CrysAlis171 .NET)
(compiled Jul 11 2012,15:38:31)
;
_computing_structure_refinement  'SHELXL-2014 (Sheldrick, 2014)'
_computing_structure_solution    'SHELXS-97 (Sheldrick, 97)'
_diffrn_ambient_temperature      130(2)
_diffrn_detector_area_resol_mean 10.2273
_diffrn_measured_fraction_theta_full 0.998
_diffrn_measured_fraction_theta_max 0.995
_diffrn_measurement_device_type  'SuperNova, Dual, Cu at zero, Atlas'
_diffrn_measurement_method       '\w scans'
_diffrn_radiation_type           CuK\a
_diffrn_radiation_wavelength     1.54184
_diffrn_reflns_av_R_equivalents  0.0298
_diffrn_reflns_av_unetI/netI     0.0340
_diffrn_reflns_Laue_measured_fraction_full 0.998
_diffrn_reflns_Laue_measured_fraction_max 0.995
_diffrn_reflns_limit_h_max       6
_diffrn_reflns_limit_h_min       -6
_diffrn_reflns_limit_k_max       11
_diffrn_reflns_limit_k_min       -13
_diffrn_reflns_limit_l_max       16
_diffrn_reflns_limit_l_min       -16
_diffrn_reflns_number            5747
_diffrn_reflns_point_group_measured_fraction_full 0.998
_diffrn_reflns_point_group_measured_fraction_max 0.995
_diffrn_reflns_theta_full        67.684
_diffrn_reflns_theta_max         69.991
_diffrn_reflns_theta_min         3.971
_diffrn_source                   'SuperNova (Cu) X-ray Source'
_exptl_absorpt_coefficient_mu    0.885
_exptl_absorpt_correction_T_max  1.00000
_exptl_absorpt_correction_T_min  0.82620
_exptl_absorpt_correction_type   multi-scan
_exptl_absorpt_process_details
;
CrysAlisPro, Agilent Technologies,
Version 1.171.36.20 (release 27-06-2012 CrysAlis171 .NET)
(compiled Jul 11 2012,15:38:31)
Empirical absorption correction using spherical harmonics,
 implemented in SCALE3 ABSPACK scaling algorithm.
;
_exptl_crystal_colour            colourless
_exptl_crystal_density_diffrn    1.402
_exptl_crystal_description       needle
_exptl_crystal_F_000             360
_exptl_crystal_size_max          0.3421
_exptl_crystal_size_mid          0.0669
_exptl_crystal_size_min          0.0492
_refine_diff_density_max         0.804
_refine_diff_density_min         -0.438
_refine_diff_density_rms         0.111
_refine_ls_extinction_method     none
_refine_ls_goodness_of_fit_ref   1.092
_refine_ls_hydrogen_treatment    constr
_refine_ls_matrix_type           full
_refine_ls_number_parameters     254
_refine_ls_number_reflns         3105
_refine_ls_number_restraints     0
_refine_ls_restrained_S_all      1.092
_refine_ls_R_factor_all          0.0855
_refine_ls_R_factor_gt           0.0752
_refine_ls_shift/su_max          0.000
_refine_ls_shift/su_mean         0.000
_refine_ls_structure_factor_coef Fsqd
_refine_ls_weighting_details
'w=1/[\s^2^(Fo^2^)+(0.1406P)^2^+0.6321P] where P=(Fo^2^+2Fc^2^)/3'
_refine_ls_weighting_scheme      calc
_refine_ls_wR_factor_gt          0.2146
_refine_ls_wR_factor_ref         0.2235
_reflns_Friedel_coverage         0.000
_reflns_number_gt                2608
_reflns_number_total             3105
_reflns_threshold_expression     'I > 2\s(I)'
_cod_data_source_file            ic403134c_si_002.cif
_cod_data_source_block           Li_inic_dioxane
_cod_depositor_comments
;
The following automatic conversions were performed:

'_exptl_absorpt_correction_type' value 'Multi-scan' changed to
'multi-scan' according to
/usr/data/users/saulius/crontab/automatic-downloads/rss-feeds/ACS/lib/dictionaries/cif_core.dic
dictionary named 'cif_core.dic' version 2.4.2 from 2011-04-26.

Automatic conversion script
Id: cif_fix_values 2281 2013-09-26 08:29:07Z andrius 

 Adding full bibliography for 4338378--4338389.cif.
;
_cod_database_code               4338378
#BEGIN Tags that were not found in dictionaries:
_shelx_space_group_comment
;
The symmetry employed for this shelxl refinement is uniquely defined
by the following loop, which should always be used as a source of
symmetry information in preference to the above space-group names.
They are only intended as comments.
;
_shelxl_version_number           2014-1
_shelx_res_file
;
TITL ddLiInicDioxane in P-1
CELL  1.54184   5.3992  11.1408  13.6811   90.885   94.250   91.825
ZERR     2.00   0.0002   0.0006   0.0008    0.005    0.004    0.004
LATT   1
SFAC  C    H    LI   N    O
UNIT  32   32   4    4    12
MERG   2
OMIT     0.00 140.00
EADP  C7S C7S'
EXYZ  C7S C7S'
FMAP   2
PLAN   20
ACTA
BOND
L.S.  20
TEMP  -143.00
WGHT    0.140600    0.632100
FVAR       9.05951   0.06668
C1S   1    0.069593    0.585466    0.433493    11.00000    0.04008    0.02805 =
         0.03831    0.00378    0.00823    0.00572
AFIX  23
H1S1  2    0.045450    0.622672    0.368376    11.00000   -1.20000
H1S2  2    0.204084    0.631448    0.472125    11.00000   -1.20000
AFIX   0
C2S   1   -0.167260    0.591270    0.484959    11.00000    0.03778    0.03661 =
         0.04043    0.00317    0.00675    0.01283
AFIX  23
H2S1  2   -0.210730    0.676231    0.493691    11.00000   -1.20000
H2S2  2   -0.304323    0.549967    0.444160    11.00000   -1.20000
AFIX   0
C110  1    0.471055    0.039660    0.093996    11.00000    0.09567    0.08209 =
         0.04893   -0.00766   -0.00721    0.02686
O102  5    0.635595   -0.046854    0.078644    10.66667    0.11806    0.15061 =
         0.03349    0.00721   -0.01624    0.09361
C101  1    0.725665    0.030732    0.048391    10.33333    0.03085    0.04545 =
         0.03695   -0.00937   -0.01231   -0.00213
C103  1    0.290538    0.062881    0.019304    10.66667    0.07560    0.10177 =
         0.05520   -0.00189   -0.00754    0.01631
O104  5    0.466216    0.119405    0.016936    10.33333    0.10902    0.04918 =
         0.07277   -0.01018    0.01952   -0.00051
MOLE    1
O1    5    0.467389    0.126527    0.431441    11.00000    0.01912    0.02277 =
         0.02970    0.00290    0.00434    0.00113
O1S   5    0.139967    0.464026    0.421698    11.00000    0.03936    0.03591 =
         0.03494   -0.00005    0.01170    0.01081
C1    1    0.430385   -0.173212    0.330406    11.00000    0.02235    0.03168 =
         0.02482   -0.00345    0.00082    0.00125
AFIX  43
H1    2    0.554444   -0.160457    0.382811    11.00000   -1.20000
AFIX   0
C2    1    0.051247   -0.130327    0.256172    11.00000    0.02154    0.02743 =
         0.03365   -0.00656    0.00218    0.00374
AFIX  43
H2    2   -0.095567   -0.085383    0.254474    11.00000   -1.20000
AFIX   0
C3    1    0.073884   -0.214711    0.181851    11.00000    0.01937    0.02854 =
         0.02870   -0.00489   -0.00025    0.00303
AFIX  43
H3    2   -0.056603   -0.228697    0.132104    11.00000   -1.20000
AFIX   0
C4    1    0.471025   -0.257279    0.258338    11.00000    0.01882    0.02641 =
         0.02768   -0.00219    0.00065    0.00263
AFIX  43
H4    2    0.620510   -0.300239    0.261228    11.00000   -1.20000
AFIX   0
C5    1    0.290483   -0.278087    0.181686    11.00000    0.01995    0.02122 =
         0.02196   -0.00021    0.00315   -0.00100
C6    1    0.335110   -0.366981    0.099648    11.00000    0.02076    0.01856 =
         0.02069    0.00338    0.00120    0.00374
C7    1    0.681260    0.131309    0.402809    11.00000    0.01890    0.01779 =
         0.02186   -0.00362   -0.00002    0.00134
C8    1    0.730052    0.222625    0.324611    11.00000    0.01930    0.02042 =
         0.02333   -0.00086    0.00023    0.00065
C9    1    0.931950    0.217784    0.267632    11.00000    0.02153    0.02680 =
         0.03025    0.00335    0.00429    0.00601
AFIX  43
H9    2    1.050425    0.157057    0.277422    11.00000   -1.20000
AFIX   0
C10   1    0.957365    0.303263    0.196176    11.00000    0.02323    0.03370 =
         0.03251    0.00504    0.00862    0.00533
AFIX  43
H10   2    1.094323    0.298070    0.156717    11.00000   -1.20000
AFIX   0
C11   1    0.610078    0.397457    0.236683    11.00000    0.02747    0.02498 =
         0.03258    0.00498    0.00465    0.00663
AFIX  43
H11   2    0.498744    0.461347    0.227537    11.00000   -1.20000
AFIX   0
C12   1    0.566015    0.314853    0.308312    11.00000    0.02165    0.02594 =
         0.02638    0.00312    0.00562    0.00489
AFIX  43
H12   2    0.425594    0.321148    0.345788    11.00000   -1.20000
AFIX   0
LI3   3    0.815214    0.513326    0.064281    11.00000    0.01775    0.02598 =
         0.02494   -0.00066    0.00184    0.00231
LI4   3    0.196699    0.016175    0.442459    11.00000    0.01947    0.02738 =
         0.02255   -0.00169    0.00300    0.00320
N1\   4    0.224221   -0.108693    0.329993    11.00000    0.02357    0.02647 =
         0.02719   -0.00463    0.00476    0.00081
N2    4    0.800699    0.392710    0.179356    11.00000    0.02521    0.02663 =
         0.02597    0.00463    0.00283    0.00249
O2    5    0.147583   -0.415975    0.054042    11.00000    0.01940    0.02581 =
         0.02567   -0.00258    0.00229   -0.00058
O3    5    0.555509   -0.382603    0.084212    11.00000    0.01864    0.02668 =
         0.03177   -0.00318    0.00356    0.00557
O4    5    0.857295    0.066880    0.432951    11.00000    0.01942    0.02730 =
         0.02662    0.00521    0.00315    0.00583
HKLF    4

REM  ddLiInicDioxane in P-1
REM R1 =  0.0752 for    2608 Fo > 4sig(Fo)  and  0.0855 for all    3105 data
REM    254 parameters refined using      0 restraints

END

WGHT      0.1406      0.6321

REM Highest difference peak  0.804,  deepest hole -0.438,  1-sigma level  0.111
Q1    1  -0.0390 -0.3834  0.0800  11.00000  0.05    0.80
Q2    1   0.7606 -0.3870  0.0845  11.00000  0.05    0.73
Q3    1   0.2624  0.1265  0.4230  11.00000  0.05    0.66
Q4    1   1.0436  0.1223  0.4260  11.00000  0.05    0.62
Q5    1   0.7188  0.0822  0.0209  11.00000  0.05    0.57
Q6    1   0.8743  0.1258  0.4154  11.00000  0.05    0.55
Q7    1   0.6119  0.0808  0.0608  11.00000  0.05    0.54
Q8    1   0.6705  0.0622  0.4375  11.00000  0.05    0.50
Q9    1   0.2290  0.0165  0.0855  11.00000  0.05    0.46
Q10   1   0.5907 -0.0781  0.0693  11.00000  0.05    0.46
Q11   1  -0.0745  0.4635  0.4204  11.00000  0.05    0.43
Q12   1   0.4498  0.0596  0.4439  11.00000  0.05    0.43
Q13   1   0.6693  0.1161  0.4214  11.00000  0.05    0.42
Q14   1   0.3574  0.4653  0.4205  11.00000  0.05    0.42
Q15   1  -0.3209  0.4649  0.4243  11.00000  0.05    0.39
Q16   1   0.4104  0.3987  0.1938  11.00000  0.05    0.39
Q17   1   1.1242  0.3189  0.3035  11.00000  0.05    0.37
Q18   1  -0.5540  0.5840  0.4472  11.00000  0.05    0.36
Q19   1   0.3607  0.3165  0.3139  11.00000  0.05    0.36
Q20   1   1.0838  0.3952  0.1848  11.00000  0.05    0.35
;
_shelx_res_checksum              38103
_shelx_hkl_file
;
   0   0  -2 1376.75 139.396   2
   0   0  -3-34.0959 110.218   2
   0   0  -4 720.109 189.637   2
   0   0  -5 54.7956 131.173   2
   0   0  -6 172977. 2718.32   2
   0   0  -7 1140.69 300.498   2
   0   0  -8 285089. 4210.15   2
   0   0  -9 5057.15 629.345   2
   0   0 -10 187.007 206.632   2
   0   0 -10 690.167 150.900   8
   0   0 -10 651.385 220.652  10
   0   0 -11 3379.78 296.795   8
   0   0 -11 3348.74 444.808  10
   0   0 -11 2949.22 583.920   2
   0   0 -12 82093.8 1447.37   8
   0   0 -12 86379.7 2126.42  10
   0   0 -13 16543.7 644.896   8
   0   0 -14 4939.27 432.339  14
   0   0 -14 4151.52 323.232   8
   0   0 -15 118.607 123.021  14
   0   0 -15-67.6697 82.6009   8
   0   0 -16 8368.57 371.155  14
   0   0  16 9015.09 401.967  11
   0  -1  16-19.5732 86.7508  11
   0   1 -16 185.643 86.8032   8
   0  -1  15 2886.18 321.142  11
   0   1 -15 2967.82 268.761  14
   0   1 -15 3710.51 280.994   8
   0   1 -14 837.839 164.974   8
   0   1 -14 681.279 171.979  14
   0   1 -13 6294.59 512.572  14
   0   1 -13 6045.20 405.913   8
   0   1 -12 320.834 127.354   8
   0   1 -11 8119.98 458.455   8
   0   1 -11 7096.45 842.698   2
   0   1 -10 13366.3 561.027   8
   0   1 -10 13290.0 788.996  10
   0   1 -10 14611.0 1114.57   2
   0   1  -9 5399.09 655.376   2
   0   1  -8 39624.5 1568.32   2
   0   1  -7 56845.4 1743.12   2
   0   1  -6 1252.33 264.241   2
   0   1  -5 1407.97 257.931   2
   0   1  -5 1317.11 197.791   1
   0   1  -4 92858.5 1325.41   1
   0   1  -3 91381.5 1137.49   1
   0   1  -3 100387. 1141.79   6
   0   1  -2 126842. 1070.49   1
   0   1  -1 16343.8 308.866   1
   0   1   0 243.867 44.8485   3
   0  -1  -1 6709.94 260.462   2
   0  -1  -2 171655. 1629.16   2
   0  -1  -3 196625. 2074.45   2
   0  -1  -4 35586.2 1021.07   2
   0  -1  -5 396.613 182.893   2
   0  -1  -6 2133.31 341.201   2
   0  -1  -7 28617.8 1258.93   2
   0  -1  -8 19382.9 1123.55   2
   0  -1  -9 54550.3 2057.85   2
   0  -1 -10 46160.8 957.565   8
   0  -1 -10 49296.9 2072.27   2
   0  -1 -10 47334.2 893.974   5
   0  -1 -10 47877.9 1463.47  10
   0  -1 -11 1022.93 398.655   2
   0  -1 -11 919.287 283.582  10
   0  -1 -11 1201.01 194.962   8
   0  -1 -12 2666.83 403.643  10
   0  -1 -12 2482.46 251.049   8
   0  -1 -13 3627.29 303.119   8
   0  -1 -14 1820.77 283.332  14
   0  -1 -14 1621.32 211.916   8
   0  -1 -15 156.149 126.828  14
   0  -1 -15 147.299 92.4871   8
   0  -1 -16 176.874 93.4469  14
   0  -1 -16 159.146 72.9116   8
   0   2 -16 1536.65 156.007   8
   0  -2  16 1166.26 157.798  11
   0   2 -15 157.631 98.3220   8
   0  -2  15 221.261 141.989  11
   0   2 -14 26515.3 805.940   8
   0  -2  14 26323.4 1063.65  11
   0   2 -13 913.339 190.488   8
   0   2 -12 4237.19 350.854   8
   0   2 -11 4357.51 666.171   2
   0   2 -11 4247.91 344.830   8
   0   2 -10 7104.11 411.608   8
   0   2 -10 7554.15 806.069   2
   0   2  -9 463.230 256.019   2
   0   2  -8 2805.19 446.015   2
   0   2  -7 11283.7 775.030   2
   0   2  -6 268951. 3355.64   2
   0   2  -6 262721. 2923.66   1
   0   2  -5 287900. 2707.70   1
   0   2  -4 19191.7 628.469   1
   0   2  -4 17953.6 638.160   6
   0   2  -3 785810. 3488.74   1
   0   2  -3 784503. 3641.06   6
   0   2  -2 893714. 3320.52   1
   0   2  -1 19029.4 435.843   1
   0   2   0 7044.75 271.631   3
   0   2   1 38667.9 648.313   3
   0  -2  -2 773457. 4049.64   2
   0  -2  -3 999999. 5236.78   2
   0  -2  -4 9502.06 600.741   2
   0  -2  -5 223627. 3008.93   2
   0  -2  -6 83723.4 2072.60   2
   0  -2  -7 10729.0 801.779   2
   0  -2  -8 31530.9 1480.30   2
   0  -2  -9 20234.5 1278.93   2
   0  -2 -10 3967.82 400.332  19
   0  -2 -10 4016.42 634.596   2
   0  -2 -10 4362.58 297.955   5
   0  -2 -10 3966.43 284.982   8
   0  -2 -10 3778.31 453.191   7
   0  -2 -10 4430.68 478.598  10
   0  -2 -11 3333.31 456.755  10
   0  -2 -11 3973.18 708.272   2
   0  -2 -11 3769.07 291.419   5
   0  -2 -11 3275.35 277.123   8
   0  -2 -12 3198.07 437.241  10
   0  -2 -12 3233.60 278.127   8
   0  -2 -13 10929.4 482.651   8
   0  -2 -13 9681.21 724.018  10
   0  -2 -14 12723.8 705.641  14
   0  -2 -14 12143.1 478.869   8
   0  -2 -15 20301.3 774.995  14
   0  -2 -15 21203.9 543.626   8
   0  -2 -16 72.5324 84.0446  14
   0   3 -16 3340.38 214.805   8
   0  -3  15 11477.3 581.836  11
   0   3 -15 10975.7 461.170   8
   0  -3  14 1747.98 300.158  11
   0   3 -14 1964.00 240.192   8
   0  -3  13 7405.31 616.002  11
   0   3 -13 7133.96 453.571   8
   0   3 -12 4278.18 360.175   8
   0   3 -11 8866.78 489.273   8
   0   3 -11 9441.66 930.581   2
   0   3 -10 32307.2 873.719   8
   0   3 -10 33192.8 1674.46   2
   0   3  -9 952.720 294.597   2
   0   3  -8 36614.7 1538.03   2
   0   3  -7 48671.3 1440.18   1
   0   3  -7 46473.9 1571.60   2
   0   3  -6 7874.84 526.199   1
   0   3  -5 25803.5 846.902   6
   0   3  -5 25894.5 875.657   1
   0   3  -4 511868. 3515.60   6
   0   3  -4 521049. 3485.70   1
   0   3  -3 114192. 1493.55   1
   0   3  -3 115357. 1489.66   6
   0   3  -2 1104.10 161.547   1
   0   3  -2 917.596 155.228   6
   0   3  -1 227634. 1576.80   6
   0   3  -1 227792. 1856.27   1
   0   3   0 614.257 130.099   3
   0   3   1 152475. 1579.18   3
   0   3   2 10546.1 448.227   3
   0   3   3 54648.2 1106.90   3
   0  -3  -4 532402. 4678.92   2
   0  -3  -5 39126.2 1413.93   2
   0  -3  -6 3545.50 468.387   2
   0  -3  -7 21509.4 1181.48   2
   0  -3  -8 70337.1 2308.11   2
   0  -3  -9 831.818 249.767   7
   0  -3  -9 998.497 164.983   5
   0  -3  -9 854.031 323.157   2
   0  -3 -10 469.675 162.465  19
   0  -3 -10 678.284 149.568   5
   0  -3 -10 519.820 326.798   2
   0  -3 -10 937.186 272.063   7
   0  -3 -10 1028.33 272.309  10
   0  -3 -11 21508.0 896.776  19
   0  -3 -11 23906.7 733.052   5
   0  -3 -11 22575.8 1052.77  10
   0  -3 -11 23566.4 1116.56   7
   0  -3 -12 40125.4 1409.48  10
   0  -3 -12 41557.4 953.994   5
   0  -3 -13 1425.71 279.186  10
   0  -3 -14 2414.68 329.006  14
   0  -3 -15 4605.65 371.607  14
   0  -3 -16 3449.94 256.090  14
   0   4 -16 140.625 73.5391   8
   0  -4  15 667.429 159.030  11
   0   4 -15 482.114 113.841   8
   0   4 -14 125.092 99.5238   8
   0  -4  14 385.375 179.886  11
   0   4 -13 8757.17 490.012   8
   0  -4  13 8799.99 631.794  11
   0  -4  12 3529.33 428.833  11
   0   4 -12 3406.99 319.257   8
   0   4 -11 2576.36 273.084   8
   0  -4  11 2528.74 387.127  11
   0  -4  10 127.313 144.399  11
   0   4 -10 161.783 210.758   2
   0   4 -10 196.456 125.731   8
   0   4  -9 16763.0 1131.99   2
   0   4  -9 15999.5 561.090   8
   0   4  -8 1246.50 310.112   2
   0   4  -7 73512.4 1815.44   1
   0   4  -6 9023.66 595.331   1
   0   4  -5 15855.1 715.760   1
   0   4  -5 13611.4 686.476   6
   0   4  -4 5558.52 394.946   1
   0   4  -4 5456.55 411.439   6
   0   4  -3 60781.8 1206.46   1
   0   4  -3 60054.4 1170.67   6
   0   4  -2 35912.9 881.275   1
   0   4  -2 35410.6 824.001   6
   0   4  -1 23748.7 695.878   1
   0   4  -1 22723.4 602.348   6
   0   4   0 173324. 1940.17   3
   0  -4   0 175566. 940.569   5
   0  -4  -1 103.810 54.2781   5
   0   4   1-26.7902 106.224   3
   0   4   2 55123.8 1152.96   3
   0   4   3 116166. 1777.67   3
   0   4   4 2044.74 280.339   3
   0   4   5 6048.14 497.818   3
   0   4   6 6717.75 549.021   3
   0   4   7 27459.0 1198.30   3
   0  -4  -7 26401.2 1425.38   2
   0  -4  -8 370.726 108.795   5
   0   4   8 404.749 203.622   3
   0  -4  -8 65.2722 204.681   2
   0  -4  -9 778.659 231.859  10
   0  -4  -9 931.107 165.624   5
   0  -4  -9 933.574 262.212   7
   0  -4  -9 581.461 282.965   2
   0  -4 -10 4421.31 414.986  19
   0  -4 -10 4120.75 320.921   5
   0  -4 -10 4109.62 466.466  10
   0  -4 -10 4103.03 499.362   7
   0  -4 -11 1059.75 296.107  10
   0  -4 -11 968.197 169.936   5
   0  -4 -11 954.566 297.535   7
   0  -4 -11 1151.61 243.485  19
   0  -4 -12 4904.81 512.305  10
   0  -4 -12 4683.75 342.226   5
   0  -4 -13 1633.79 305.106  10
   0  -4 -14-170.162 136.241  14
   0  -4 -15 2744.44 285.159  14
   0  -4 -16 1551.03 158.532  14
   0  -5  15-111.475 100.412  11
   0  -5  15-92.2107 99.0078  12
   0   5 -15-30.6818 70.8627   8
   0   5 -14 182.941 110.320   8
   0  -5  14 204.678 136.005  11
   0  -5  13 2864.93 365.217  11
   0   5 -13 2566.07 263.911   8
   0  -5  12 4744.81 494.989  11
   0   5 -12 5178.00 372.720   8
   0  -5  11 486.310 203.830  11
   0   5 -11 443.786 146.183   8
   0   5 -10 3402.13 298.900   8
   0  -5  10 3645.33 429.743  11
   0  -5   9 3316.66 396.182  11
   0   5  -9 3632.33 563.065   2
   0   5  -9 3136.26 272.226   8
   0   5  -8 5410.24 548.266   1
   0  -5   8 5622.65 472.578  11
   0   5  -7 56582.8 1647.97   1
   0   5  -6 17236.1 843.338   6
   0   5  -6 19620.3 922.963   1
   0   5  -5 28554.7 1044.93   6
   0   5  -5 31009.7 1053.57   1
   0   5  -4 19411.7 807.479   6
   0   5  -4 20847.6 807.795   1
   0   5  -3 104.255 142.260   6
   0   5  -3 9.41385 96.2154   1
   0   5  -2 498.777 143.214   1
   0   5  -2 549.544 147.940   6
   0   5  -1 67719.5 1196.42   6
   0   5  -1 68358.8 1326.99   1
   0   5   0 19357.2 615.441   6
   0  -5   0 19078.8 371.281   5
   0  -5  -1 27179.7 489.214   5
   0   5   1 29047.0 907.420   3
   0  -5  -2 28959.0 550.806   5
   0   5   2 30488.5 954.120   3
   0   5   3 46851.0 1224.70   3
   0  -5  -3 46746.5 758.633   5
   0  -5  -4 13701.9 445.763   5
   0   5   4 13203.8 694.835   3
   0   5   5 33195.7 1156.62   3
   0  -5  -5 32231.9 724.662   5
   0  -5  -6 9789.17 421.288   5
   0  -5  -7 12117.7 495.958   5
   0  -5  -8 14728.5 573.084   5
   0  -5  -8 14955.2 722.908  10
   0  -5  -9 1292.19 238.561  19
   0  -5  -9 912.817 223.512  10
   0  -5  -9 968.987 181.562   5
   0  -5  -9 1392.05 303.218   7
   0  -5 -10 20487.7 950.272  10
   0  -5 -10 19488.5 693.845   5
   0  -5 -10 19914.0 852.310  19
   0  -5 -10 21520.0 1046.08   7
   0  -5 -11 7412.64 499.033  19
   0  -5 -11 8923.07 699.815   7
   0  -5 -11 7624.42 439.512   5
   0  -5 -11 8269.21 615.922  10
   0  -5 -12 1244.88 190.345   5
   0  -5 -12 1211.47 295.088   7
   0  -5 -12 1490.75 305.497  10
   0  -5 -13 508.009 178.733  14
   0  -5 -13 317.191 164.823  10
   0  -5 -14 3304.95 322.932  14
   0  -5 -15 3524.91 273.390  14
   0  -6  15 2822.59 201.820  12
   0   6 -14 337.828 112.197   8
   0  -6  14 86.1709 102.217  11
   0   6 -13 3511.40 274.368   8
   0  -6  13 4068.70 393.172  11
   0   6 -12 1887.82 220.198   8
   0  -6  12 1641.14 290.291  11
   0  -6  11 8076.51 625.773  11
   0   6 -11 8072.26 440.776   8
   0  -6  10 3271.45 402.045  11
   0   6 -10 2998.77 274.889   8
   0   6  -9 39303.6 912.371   8
   0  -6   9 41826.2 1361.81  11
   0  -6   8 1990.68 308.258  11
   0   6  -8 1560.24 316.141   1
   0  -6   7 5062.72 456.911  11
   0   6  -7 5277.75 517.056   1
   0   6  -6 2758.25 371.203   6
   0   6  -6 3204.27 388.803   1
   0   6  -5 4329.43 416.886   1
   0   6  -5 3948.04 426.389   6
   0   6  -4 349.848 171.062   6
   0   6  -4 352.839 138.345   1
   0   6  -3 64922.7 1472.03   1
   0   6  -3 65844.0 1458.09   6
   0   6  -2 3206.38 337.140   1
   0   6  -2 3680.93 350.799   6
   0   6  -1 208.274 121.438   1
   0   6  -1 383.442 143.307   6
   0   6   0 89158.6 1711.47   1
   0  -6   0 90495.1 931.495   5
   0   6   0 93424.9 1541.22   6
   0  -6  -1 4843.22 238.773   5
   0   6   1 5313.50 440.153   3
   0  -6  -2 871.733 118.099   5
   0  -6  -3 202518. 1723.56   5
   0  -6  -4 54030.5 953.101   5
   0  -6  -5 661.505 133.144   5
   0  -6  -6 2365.49 234.206   5
   0  -6  -7 3623.38 299.740   5
   0  -6  -8 862.079 256.879   7
   0  -6  -8 717.245 242.237  10
   0  -6  -9 17589.6 840.501  10
   0  -6  -9 19725.9 978.509   7
   0  -6 -10 9307.48 492.996   5
   0  -6 -10 9390.41 719.196   7
   0  -6 -10 9293.50 641.768  10
   0  -6 -11 3205.38 448.491   7
   0  -6 -11 3402.63 302.802   5
   0  -6 -11 2770.77 386.914  10
   0  -6 -12 3875.00 476.142   7
   0  -6 -12 3747.15 396.297  10
   0  -6 -12 3385.34 363.513  14
   0  -6 -13 750.184 184.833  14
   0  -6 -13 851.083 180.372  10
   0  -6 -14 883.406 160.488  14
   0  -6 -15 3751.06 216.989  14
   0  -7  14 604.518 129.971  11
   0  -7  14 322.158 118.334  12
   0  -7  13 596.475 164.189  11
   0   7 -12 112.964 86.6876   8
   0  -7  12 78.5295 123.660  11
   0  -7  11 3270.24 386.400  11
   0   7 -11 2533.78 244.469   8
   0  -7  10 1918.93 319.251  11
   0  -7   9 7778.43 603.156  11
   0  -7   8 2021.15 314.370  11
   0   7  -7 416.668 161.616   1
   0  -7   7 367.991 202.983  11
   0   7  -6 5689.38 528.525   1
   0  -7   6 5488.05 497.231  11
   0  -7   5 60553.2 1513.46  11
   0   7  -5 57974.2 1577.24   1
   0   7  -4 26354.8 1029.07   1
   0   7  -4 25809.1 1070.81   6
   0   7  -3 4909.54 442.156   1
   0   7  -3 5335.30 479.817   6
   0   7  -2 506.915 166.197   1
   0   7  -2 514.559 207.136   6
   0   7  -1 580.582 169.329   6
   0   7  -1 308.446 108.361   1
   0   7   0 7719.53 511.680   6
   0   7   0 6771.95 523.999   1
   0   7   1 65956.1 1443.10   6
   0  -7  -1 64293.9 954.465   5
   0  -7  -2 132.532 78.1744   5
   0  -7  -3 23439.1 643.488   5
   0  -7  -4 328.249 111.117   5
   0  -7  -5 801.824 232.638  11
   0  -7  -5 412.185 122.746   5
   0  -7  -6 2960.02 274.723   5
   0  -7  -7 1180.44 200.578   5
   0  -7  -8 991.414 268.972   7
   0  -7  -8 507.634 154.085   5
   0  -7  -9-0.29159 104.384   5
   0  -7  -9 237.196 222.902   7
   0  -7 -10 757.506 258.473   7
   0  -7 -10 335.824 159.639  10
   0  -7 -10 586.852 151.859   5
   0  -7 -11 1856.02 255.762  14
   0  -7 -11 2368.57 369.472   7
   0  -7 -12 2548.32 258.601  14
   0  -7 -12 3815.61 426.208   7
   0  -7 -13 847.669 151.464  14
   0  -7 -14 184.876 69.9471  14
   0  -8  14-23.4304 78.1883  12
   0  -8  13-60.8666 108.725  12
   0  -8  13 200.355 108.778  11
   0  -8  12 7737.61 488.299  11
   0  -8  11 10149.2 618.329  11
   0  -8  10 628.734 213.723  11
   0  -8   9 140.116 147.980  11
   0  -8   8 802.062 237.532  11
   0  -8   7 1092.83 280.631  11
   0  -8   6 5021.88 498.641  11
   0  -8   5 15470.3 823.655  11
   0   8  -5 13884.4 833.931   6
   0  -8   4 5804.56 507.113  11
   0   8  -4 4729.74 506.789   6
   0  -8   3 7022.33 544.814  11
   0   8  -3 6966.70 590.602   6
   0   8  -2 9348.34 648.430   6
   0  -8   2 9126.58 598.772  11
   0   8  -1-19.0922 100.154   1
   0  -8   1-70.8051 150.330  11
   0   8   0 15535.3 830.096   1
   0  -8   0 15530.6 776.236  11
   0  -8  -1 6142.66 493.485  11
   0   8   1 5895.31 524.152   1
   0   8   2 20447.4 1004.22   1
   0  -8  -2 21353.9 932.674  11
   0  -8  -3 1850.41 210.995   5
   0  -8  -3 2157.22 343.742  11
   0  -8  -4 1602.03 335.076  11
   0  -8  -4 1540.34 200.413   5
   0  -8  -4 1616.75 253.602  19
   0  -8  -5 6511.66 473.854  19
   0  -8  -5 5681.29 521.357  17
   0  -8  -5 5546.95 573.017  11
   0  -8  -5 5479.12 383.473   5
   0  -8  -6 34489.4 942.599   5
   0  -8  -6 36577.9 1236.30  17
   0  -8  -7 54.5404 97.4543   5
   0  -8  -8 13327.1 609.000   5
   0  -8  -8 14562.9 872.962   7
   0  -8  -9-252.224 196.439   7
   0  -8  -9 6.35061 96.9681   5
   0  -8 -10 209.353 177.030   7
   0  -8 -11 151.775 192.159   7
   0  -8 -12 7438.96 511.964   7
   0  -9  13 1851.11 171.397  12
   0  -9  12 2438.21 245.654  11
   0  -9  12 2614.14 244.613  12
   0  -9  11 9161.89 535.008  11
   0  -9  10 2352.33 315.569  11
   0  -9   9 157.162 180.158  11
   0  -9   8 4009.86 463.238  11
   0  -9   7 30918.0 1200.75  11
   0  -9   6 3234.05 438.857  11
   0  -9   5 893.392 241.758  11
   0  -9   4 6560.01 584.573  11
   0  -9   3 101955. 2184.73  11
   0  -9   2 24036.7 1060.17  11
   0  -9   1 36786.7 1299.68  11
   0  -9   0 1836.41 316.590  11
   0  -9  -1 6927.65 592.957  11
   0  -9  -2 4189.68 395.546  19
   0  -9  -2 4846.13 506.485  11
   0  -9  -3 7176.38 504.482  19
   0  -9  -3 7838.03 642.065  11
   0  -9  -4 9356.24 573.999  19
   0  -9  -4 9354.69 721.673  11
   0  -9  -4 9080.23 700.756  17
   0  -9  -4 9170.95 458.274   5
   0  -9  -5 1562.65 344.846  11
   0  -9  -5 1691.50 334.077  17
   0  -9  -5 1576.92 210.501   5
   0  -9  -6 612.499 229.924  17
   0  -9  -6 556.803 158.287   5
   0  -9  -7 762.641 153.149   5
   0  -9  -7 860.984 252.250  17
   0  -9  -8 3030.43 401.148   7
   0  -9  -9 3710.94 426.340   7
   0  -9 -10 5905.44 491.611   7
   0  -9 -11 1785.91 263.383   7
   0 -10  11 635.985 143.449  11
   0 -10  11 446.653 119.750  12
   0 -10  10-3.03364 105.100  11
   0 -10  10 141.234 112.318  12
   0 -10   9 9303.67 475.585  12
   0 -10   9 9735.24 579.251  11
   0 -10   8 16564.6 663.127  12
   0 -10   8 16668.8 836.500  11
   0 -10   7 10727.0 551.082  12
   0 -10   7 11540.6 727.003  11
   0 -10   6 3649.75 327.445  12
   0 -10   6 3839.19 450.144  11
   0 -10   5 1243.55 301.231  11
   0 -10   4 22305.4 1022.68  17
   0 -10   4 23097.7 1105.15  11
   0 -10   3 9.86996 154.855  11
   0 -10   3-112.633 178.840  17
   0 -10   2 4287.63 498.911  11
   0 -10   2 4234.56 518.682  17
   0 -10   1 19055.6 996.490  11
   0 -10   0 14556.0 897.088  11
   0 -10  -1 2398.90 416.401  17
   0 -10  -1 1950.48 366.737  11
   0 -10  -1 1933.05 292.923  19
   0 -10  -2 2378.11 408.281  17
   0 -10  -2 2232.49 305.888  19
   0 -10  -2 1966.88 370.154  11
   0 -10  -3 4457.09 518.367  11
   0 -10  -3 4298.10 407.495  19
   0 -10  -3 4015.35 503.363  17
   0 -10  -4 4931.33 418.261  19
   0 -10  -4 4108.85 504.464  11
   0 -10  -4 4052.99 473.929  17
   0 -10  -5 1303.42 309.326  17
   0 -10  -6 20808.4 973.500  17
   0 -10  -7 2727.75 371.863   7
   0 -10  -7 3016.70 364.292  17
   0 -10  -8 1029.44 241.882   7
   0 -10  -9 2804.62 332.850   7
   0 -10 -10 203.610 139.651   7
   0 -10 -11 462.750 132.889   7
   0 -11  10 423.121 122.449  11
   0 -11   9 1529.16 154.728  12
   0 -11   9 1549.30 220.245  11
   0 -11   8 5572.88 298.226  12
   0 -11   8 6679.28 466.783  11
   0 -11   7 592.782 195.049  11
   0 -11   6 1101.17 261.580  11
   0 -11   5 1106.53 274.466  11
   0 -11   4 14512.5 858.568  11
   0 -11   4 14508.1 797.832  17
   0 -11   3 2570.21 401.987  11
   0 -11   3 2419.59 373.501  17
   0 -11   2 832.903 257.046  11
   0 -11   2 450.250 234.253  17
   0 -11   1 9627.44 604.648  19
   0 -11   1 10199.2 755.613  11
   0 -11   1 9947.27 744.117  17
   0 -11   0 22877.8 1122.25  11
   0 -11   0 23703.4 1149.21  17
   0 -11   0 21328.5 892.201  19
   0 -11  -1 179.316 143.924  19
   0 -11  -1 275.920 238.203  17
   0 -11  -1 332.266 226.028  11
   0 -11  -2 1379.19 333.118  11
   0 -11  -2 1666.24 364.608  17
   0 -11  -2 1218.24 225.026  19
   0 -11  -3 314.820 244.876  17
   0 -11  -3 260.565 187.201  11
   0 -11  -4 364.678 224.806  17
   0 -11  -5 4142.48 453.425  17
   0 -11  -6 810.998 234.848   7
   0 -11  -6 313.179 172.493  17
   0 -11  -7 58.1496 136.253   7
   0 -11  -8 65.3815 123.985   7
   0 -11  -9 854.530 171.567   7
   0 -11 -10 6.78899 75.3423   7
   0 -12   8-96.9330 96.5325  11
   0 -12   7 5796.63 393.827  11
   0 -12   6 1864.17 260.966  11
   0 -12   5 46.1933 135.964  11
   0 -12   4 7758.84 561.219  11
   0 -12   3 6912.82 466.755  19
   0 -12   3 7833.62 589.562  11
   0 -12   3 6997.81 533.523  17
   0 -12   2 10527.9 566.527  19
   0 -12   2 12012.3 738.629  11
   0 -12   2 10876.0 689.001  17
   0 -12   1 23518.2 1046.16  17
   0 -12   1 22470.0 817.462  19
   0 -12   1 25003.9 1084.27  11
   0 -12   0 8339.24 494.167  19
   0 -12   0 9708.41 689.389  11
   0 -12   0 8686.48 659.259  17
   0 -12  -1 17462.2 934.631  17
   0 -12  -1 17796.5 923.479  11
   0 -12  -1 15825.3 651.845  19
   0 -12  -2 5.75473 172.202  11
   0 -12  -2 492.449 267.458  17
   0 -12  -3 208.748 207.844  17
   0 -12  -4 989.426 250.086  17
   0 -12  -5 6259.84 482.434  17
   0 -12  -5 5641.60 432.553   7
   0 -12  -6 646.385 167.427   7
   0 -12  -7 113.030 112.340   7
   0 -12  -8 365.280 110.621   7
   0 -13   6 393.521 113.697  11
   0 -13   5 1960.36 223.814  11
   0 -13   4 817.099 169.849  11
   0 -13   4 673.673 119.577  19
   0 -13   3 4321.91 372.220  11
   0 -13   3 3655.67 247.774  19
   0 -13   2 4570.19 369.354  17
   0 -13   2 4642.49 398.945  11
   0 -13   1 64.9892 143.304  11
   0 -13   1 299.190 161.254  17
   0 -13   0 603.302 194.433  11
   0 -13   0 547.206 199.438  17
   0 -13  -1-86.3403 181.967  17
   0 -13  -1 35.2855 140.380  11
   0 -13  -2 19791.1 832.773  17
   0 -13  -3 1167.42 218.834  17
   0 -13  -4 32.1076 103.913   7
   0 -13  -5 906.100 148.742   7
   1 -13  -3 826.880 133.033  19
   1 -13  -2 806.112 140.390  19
   1 -13  -1 12213.0 517.415  19
   1 -13   0 2918.19 275.096  19
   1 -13   0 3070.90 335.050  11
   1 -13   1 381.022 145.494  19
   1 -13   1 340.373 172.006  11
   1 -13   2-57.5044 93.1471  19
   1 -13   2 307.106 156.137  11
   1 -13   3 5674.73 358.560  19
   1 -13   3 6159.83 406.880  11
   1 -13   4 471.191 133.833  11
   1 -13   4 649.850 140.752  19
   1 -13   5 708.034 126.734  19
   1 -13   5 542.256 111.726  11
   1 -12  -6 523.849 116.270  19
   1 -12  -6 266.508 112.191   7
   1 -12  -5 876.176 171.858   7
   1 -12  -5 573.909 131.408  19
   1 -12  -4 133.056 106.861  19
   1 -12  -4 12.3908 111.160   7
   1 -12  -3 391.798 145.740  19
   1 -12  -3 10.2610 181.154  17
   1 -12  -2 8654.04 547.798  19
   1 -12  -2 8412.71 660.744  17
   1 -12  -2 8094.92 630.781  11
   1 -12  -1 3197.73 432.959  17
   1 -12  -1 3567.39 368.517  19
   1 -12  -1 4008.70 455.717  11
   1 -12   0 1154.39 252.747  11
   1 -12   0 1475.28 257.305  19
   1 -12   0 1150.41 300.549  17
   1 -12   1 108.328 144.448  19
   1 -12   1 114.437 177.766  11
   1 -12   1 33.6547 198.698  17
   1 -12   2 7484.49 578.374  11
   1 -12   2 7776.03 546.672  19
   1 -12   3 2462.36 333.127  11
   1 -12   3 2573.95 320.703  19
   1 -12   4 1195.69 223.684  11
   1 -12   5 350.689 155.318  11
   1 -12   6 6596.00 411.137  11
   1 -12   7 1480.79 179.028  11
   1 -11  -9 795.340 133.023   7
   1 -11  -8 673.782 147.571   7
   1 -11  -8 780.837 138.600  19
   1 -11  -7 5361.21 386.933   7
   1 -11  -7 5072.35 364.477  19
   1 -11  -6 11528.3 606.387   7
   1 -11  -6 11239.1 580.797  19
   1 -11  -5-22.5353 185.614  17
   1 -11  -5 27.6585 136.349  19
   1 -11  -4 3083.66 438.690  17
   1 -11  -4 3169.23 354.794  19
   1 -11  -3 498.923 256.012  11
   1 -11  -3 166.740 160.512  19
   1 -11  -3 104.324 234.174  17
   1 -11  -2 1450.41 347.548  11
   1 -11  -2 1392.69 289.745  19
   1 -11  -2 1467.94 358.313  17
   1 -11  -1 2496.56 409.411  11
   1 -11  -1 2351.65 343.610  19
   1 -11  -1 2228.99 431.450  17
   1 -11   0 4538.51 538.222  17
   1 -11   0 5053.42 486.124  19
   1 -11   0 5156.76 534.834  11
   1 -11   1 36139.2 1258.77  19
   1 -11   1 34696.3 1407.97  17
   1 -11   1 33594.9 1294.28  11
   1 -11   2 36634.2 1412.75  17
   1 -11   2 36985.9 1327.24  11
   1 -11   3 1140.22 273.904  11
   1 -11   3 1095.15 298.455  17
   1 -11   4 277.935 192.905  11
   1 -11   5 312.275 169.245  11
   1 -11   6 2150.23 294.730  11
   1 -11   6 2524.84 241.007  12
   1 -11   7 3668.87 272.470  12
   1 -11   7 3834.84 352.854  11
   1 -11   8 210.604 117.676  11
   1 -11   8 130.912 88.7134  12
   1 -11   9 5682.58 285.693  12
   1 -11   9 6258.63 331.341  11
   1 -10 -10 4424.70 318.049   7
   1 -10  -9 4679.62 344.890  19
   1 -10  -9 4878.02 377.633   7
   1 -10  -8 103.882 139.453   7
   1 -10  -8 194.189 118.996  19
   1 -10  -7 1456.68 256.770   7
   1 -10  -7 1308.90 233.863  19
   1 -10  -6 368.803 194.314   7
   1 -10  -6 321.623 157.213  19
   1 -10  -6 124.279 204.034  17
   1 -10  -5 3881.34 416.629  19
   1 -10  -5 4029.64 491.840  17
   1 -10  -4 147.425 215.195  11
   1 -10  -4-86.4001 152.939  19
   1 -10  -4-182.738 244.534  17
   1 -10  -3 914.135 280.448  11
   1 -10  -3 585.371 311.023  17
   1 -10  -3 1359.18 284.087  19
   1 -10  -2 5052.01 500.030  19
   1 -10  -2 4578.57 524.803  11
   1 -10  -2 4951.42 579.048  17
   1 -10  -1 9806.09 674.269  19
   1 -10  -1 10455.7 758.131  11
   1 -10  -1 9999.81 793.343  17
   1 -10   0 178.072 181.346  11
   1 -10   0 433.867 258.845  17
   1 -10   1 7073.02 615.486  11
   1 -10   1 8406.11 713.599  17
   1 -10   2 5951.52 613.582  17
   1 -10   2 5752.60 536.341  11
   1 -10   3 79655.0 2014.11  17
   1 -10   3 80630.4 1930.25  11
   1 -10   4 309.309 203.616  11
   1 -10   5 47.6588 179.386  11
   1 -10   5 349.708 161.045  12
   1 -10   6 4068.91 428.373  11
   1 -10   6 4128.97 361.054  12
   1 -10   7 2441.94 286.198  12
   1 -10   7 2520.68 331.442  11
   1 -10   8 198.802 141.998  11
   1 -10   8 90.3036 137.393  12
   1 -10   9 6260.99 413.024  11
   1 -10   9 6255.12 401.047  12
   1 -10  10 3212.50 260.205  11
   1 -10  10 3625.03 281.316  12
   1 -10  11 32507.6 714.621  12
   1  -9 -11 187.437 137.915   7
   1  -9 -11-105.747 96.8532  19
   1  -9 -10 2835.78 323.295   7
   1  -9 -10 2744.32 293.877  19
   1  -9  -9-4.66681 142.689  19
   1  -9  -9-129.909 158.950   7
   1  -9  -8 8885.23 615.278   7
   1  -9  -8 9033.75 585.698  19
   1  -9  -7 760.206 261.825   7
   1  -9  -7 643.039 194.508  19
   1  -9  -6 2359.01 388.762  17
   1  -9  -6 2391.47 348.745  19
   1  -9  -5 44.3736 157.817  19
   1  -9  -5 98.8511 204.453  17
   1  -9  -4 7982.13 697.661  11
   1  -9  -4 9201.70 641.236  19
   1  -9  -4 8049.99 695.538  17
   1  -9  -3 1406.55 323.283  11
   1  -9  -3 1870.06 374.758  17
  -1   9   3 1807.66 383.021   1
   1  -9  -3 1455.73 273.647  19
  -1   9   2 3956.29 549.672   1
   1  -9  -2 5139.63 526.658  11
   1  -9  -2 4181.95 519.649  17
   1  -9  -2 5211.53 481.019  19
  -1   9   1 5494.12 624.109   1
   1  -9  -1 6854.11 584.692  11
   1  -9  -1 6181.92 610.401  17
   1  -9   0 21473.2 989.810  11
  -1   9   0 19845.3 1133.10   1
   1  -9   0 21477.6 1089.05  17
   1  -9   1 2279.87 353.667  11
  -1   9  -1 1771.95 366.585   1
   1  -9   1 2341.65 401.737  17
   1  -9   2 2603.16 362.246  11
   1  -9   2 2748.13 414.578  17
  -1   9  -2 2183.15 396.130   1
   1  -9   3 259.880 184.640  17
   1  -9   3 299.202 184.663  11
  -1   9  -3-56.3223 175.463   1
   1  -9   4 13568.7 781.931  11
   1  -9   4 14025.3 641.900  12
   1  -9   5 1956.89 272.833  12
   1  -9   5 1586.80 312.513  11
   1  -9   6 8174.37 543.133  12
   1  -9   6 8349.63 611.037  11
   1  -9   7 1834.58 308.767  11
   1  -9   7 1234.74 235.918  12
   1  -9   8 3386.46 371.094  12
   1  -9   8 3737.43 393.956  11
   1  -9   9 520.382 182.718  12
   1  -9   9 641.920 174.447  11
   1  -9  10 4468.79 362.672  11
   1  -9  10 4547.36 381.767  12
   1  -9  11 6245.99 399.959  12
   1  -9  11 5437.35 338.460  11
   1  -9  12 183.205 99.0621  12
   1  -8 -12 1297.69 183.094  19
   1  -8 -11 2064.17 298.957   7
   1  -8 -11 2122.02 270.020  19
   1  -8 -10 5112.66 454.501  19
   1  -8 -10 5301.50 474.911   7
   1  -8  -9 6061.90 501.453  19
   1  -8  -9 6245.10 420.671   5
   1  -8  -9 6443.97 537.080   7
   1  -8  -8 3821.83 411.884  19
   1  -8  -8 4128.08 360.279   5
   1  -8  -8 4579.80 463.737   7
   1  -8  -7 9325.58 675.300  17
   1  -8  -7 9783.91 668.328   7
   1  -8  -7 9367.33 632.280  19
   1  -8  -7 8861.55 522.751   5
   1  -8  -6 3044.25 496.328   4
   1  -8  -6 4164.53 439.109  19
   1  -8  -6 3683.19 351.319   5
   1  -8  -6 3393.10 471.321  17
   1  -8  -5 6255.36 522.496  19
   1  -8  -5 5786.60 610.712  11
   1  -8  -5 5519.60 577.111  17
   1  -8  -5 5974.73 648.247   4
   1  -8  -5 5599.12 410.228   5
   1  -8  -4 439.325 203.659  11
   1  -8  -4 167.955 145.136  19
   1  -8  -4 828.999 260.546   4
   1  -8  -4 385.332 252.052  17
   1  -8  -3 28699.2 1048.51  19
   1  -8  -3 26843.4 1133.52  17
   1  -8  -3 28379.6 1156.21  11
   1  -8  -2 41801.4 1233.56  19
   1  -8  -2 39061.4 1352.00  17
   1  -8  -2 41812.2 1342.44  11
  -1   8   2 39771.2 1609.06   1
   1  -8  -1 2302.92 335.460  11
   1  -8  -1 2180.48 354.154  17
  -1   8   1 1896.59 358.478   1
   1  -8   0 28671.0 1049.12  11
  -1   8   0 28893.7 1320.96   1
   1  -8   0 29966.4 1169.04  17
   1  -8   1 3182.30 375.217  11
  -1   8  -1 2958.01 440.635   1
   1  -8   1 3019.58 367.321  17
   1  -8   2 448.806 196.442  11
  -1   8  -2 365.864 223.158   1
   1  -8   2 664.915 186.576  17
   1  -8   3 4551.58 343.305  12
  -1   8  -3 5016.83 556.313   1
   1  -8   3 5217.71 442.575  11
   1  -8   3 4968.17 459.392  17
   1  -8   4 1125.08 238.184  11
  -1   8  -4 1061.91 273.725   1
   1  -8   5 106863. 2053.08  11
  -1   8  -5 108450. 2547.98   1
   1  -8   6 79032.1 1796.88  11
   1  -8   7 1457.41 288.042  11
   1  -8   8 9285.13 616.807  11
   1  -8   9 447.960 157.107  11
   1  -8  10 2013.15 272.639  11
   1  -8  11 102.002 139.788  12
   1  -8  11 65.2849 101.195  11
   1  -8  12 4271.51 352.531  12
   1  -8  13 9569.83 421.881  12
   1  -7 -13 431.116 108.630  14
   1  -7 -12 2240.32 276.479  19
   1  -7 -12 2147.33 235.871  14
   1  -7 -11 4129.26 412.811  19
   1  -7 -11 4702.71 457.059   7
   1  -7 -11 3962.57 342.141  14
   1  -7 -10 7555.40 503.419  14
   1  -7 -10 8591.96 601.459  19
   1  -7 -10 8382.45 614.440   7
   1  -7 -10 8751.07 499.774   5
   1  -7  -9 778.729 201.948  19
   1  -7  -9 883.661 188.180   5
   1  -7  -9 1101.98 270.902   7
   1  -7  -8 4086.97 361.682   5
   1  -7  -8 4045.05 432.105  19
   1  -7  -8 4419.98 450.959   7
   1  -7  -7 2244.55 279.352   5
   1  -7  -7 2498.32 340.940   7
   1  -7  -7 2667.23 372.495  19
   1  -7  -6 7191.55 572.045  17
   1  -7  -6 7196.18 458.556   5
   1  -7  -6 7743.46 561.356  19
   1  -7  -5-93.9526 151.706  11
   1  -7  -5 95.6230 100.860   5
   1  -7  -5-53.3028 166.588  17
   1  -7  -5 61.2894 145.482  19
   1  -7  -4 15534.2 611.128   5
   1  -7  -3 158.758 94.5921   5
   1  -7  -2 13022.5 775.750   4
  -1   7   1 20047.4 1062.69   1
  -1   7   0 27470.6 1212.07   1
  -1   7  -1 3079.23 414.822   1
  -1   7  -2 8254.86 670.339   1
  -1   7  -3 64.9891 143.791   1
  -1   7  -4 34901.9 1396.29   1
  -1   7  -5 1319.88 291.876   1
   1  -7   5 1175.32 231.361  11
  -1   7  -6 21.7724 144.298   1
   1  -7   6 46.4416 141.063  11
   1  -7   7 15425.7 773.703  11
  -1   7  -7 15602.0 1015.27   1
   1  -7   8 963.675 195.822  11
   1  -7   9 2009.35 297.319  11
   1  -7  10 4198.01 404.048  11
   1  -7  11 3659.65 355.163  11
   1  -7  12 235.325 160.431  12
   1  -7  13 618.350 165.770  12
   1  -7  14 3250.16 221.085  12
   1  -6 -14 4.45286 71.9675  14
   1  -6 -13 5296.43 374.919  14
   1  -6 -12 313.145 132.518  14
   1  -6 -12 356.769 174.371  19
   1  -6 -11 7181.01 581.465   7
   1  -6 -11 7604.02 518.600  14
   1  -6 -11 7082.54 441.969   5
   1  -6 -11 7729.32 578.530  19
   1  -6 -10 1827.47 312.512  19
   1  -6 -10 1949.81 325.102   7
   1  -6 -10 1906.72 254.253   5
   1  -6 -10 2079.91 292.692  14
   1  -6  -9 524.796 214.594   7
   1  -6  -9 416.736 161.389  19
   1  -6  -9 414.825 167.279  14
   1  -6  -8 5188.94 470.068   7
   1  -6  -8 5949.21 515.115  19
   1  -6  -8 5552.53 443.768  14
   1  -6  -7 3530.26 318.806   5
   1  -6  -7 3842.00 395.695  19
   1  -6  -7 3685.97 375.640   7
   1  -6  -6 527.010 150.902   5
   1  -6  -5 13004.6 546.805   5
   1  -6  -4 32652.7 825.051   5
   1  -6  -3 12233.9 476.586   5
   1  -6  -2 6916.43 338.686   5
   1  -6  -1 8668.32 529.937   4
  -1   6   0 33705.8 1239.07   1
   1  -6   0 31920.5 910.880   4
  -1   6  -1 26956.3 1111.62   1
  -1   6  -2 8970.62 648.189   1
  -1   6  -3 11528.2 735.186   1
  -1   6  -4 72600.0 1881.76   1
  -1   6  -5 9678.95 725.820   1
  -1   6  -6 56.7273 117.687   1
   1  -6   7 11548.1 628.223  11
  -1   6  -7 12456.4 877.985   1
   1  -6   8 27820.5 1010.18  11
  -1   6  -8 28766.3 1399.43   1
  -1   6  -8 27745.7 1448.47   2
   1  -6   9 5505.51 465.871  11
  -1   6 -10 271.422 117.772   8
   1  -6  10 189.045 124.427  11
   1  -6  11 285.218 149.686  11
  -1   6 -11 63.4410 97.2316   8
  -1   6 -12 287.688 108.999   8
   1  -6  12 96.1091 112.672  11
   1  -6  13 411.608 148.344  12
  -1   6 -13 609.022 119.968   8
   1  -6  14 37.8519 83.8490  12
  -1   6 -14 93.9035 69.9195   8
   1  -5 -15 77.7384 75.6772  14
   1  -5 -14 678.768 169.755  14
   1  -5 -13 9737.87 593.609  14
   1  -5 -12 2491.60 351.362  14
   1  -5 -12 2463.00 360.007  19
   1  -5 -12 2399.30 259.797   5
   1  -5 -11 2546.40 387.742   7
   1  -5 -11 3154.57 377.958  14
   1  -5 -11 2690.91 288.772   5
   1  -5 -11 2432.29 377.309  19
   1  -5 -10 197.473 166.405  14
   1  -5 -10 31.4593 161.795   7
   1  -5 -10 124.084 161.081  19
   1  -5 -10 19.0777 115.300   5
   1  -5  -9 10472.4 669.282   7
   1  -5  -9 10597.2 543.907   5
   1  -5  -9 10610.1 691.113  19
   1  -5  -8 5452.20 473.381  19
   1  -5  -8 5133.16 371.023   5
   1  -5  -8 5100.35 445.929   7
   1  -5  -7 17071.2 629.855   5
   1  -5  -6 7609.72 409.577   5
   1  -5  -5 372.126 124.658   5
   1  -5  -4 25702.3 665.217   5
   1  -5  -3 36005.4 741.850   5
   1  -5  -2 92870.3 1097.02   5
   1  -5  -1 104669. 1687.27   4
   1  -5   0 15062.1 587.811   4
  -1   5  -1 9239.04 598.806   1
   1  -5   1 9431.88 423.840   4
  -1   5  -2 11354.5 655.470   1
  -1   5  -3 28185.4 1049.66   1
  -1   5  -4 25677.8 1052.68   1
  -1   5  -5 3842.79 432.192   1
  -1   5  -6 2982.06 409.148   1
  -1   5  -7 8898.67 740.716   1
   1  -5   8 5078.69 429.476  11
  -1   5  -8 4927.25 577.364   1
  -1   5  -8 4948.28 625.690   2
   1  -5   9 198.350 149.470  11
  -1   5  -9 266.866 214.033   2
  -1   5  -9 134.957 96.7689   8
  -1   5  -9-0.78081 198.219   1
  -1   5 -10 3954.44 312.589   8
   1  -5  10 3425.18 392.455  11
   1  -5  11 4157.65 410.544  11
  -1   5 -11 4735.81 345.757   8
  -1   5 -12 1350.56 202.011   8
  -1   5 -13 4311.56 309.911   8
   1  -5  14 712.424 137.908  12
  -1   5 -14 834.379 136.639   8
  -1   5 -15-96.5068 65.5512   8
   1  -4 -16 1269.25 150.334  14
   1  -4 -15 1175.42 197.493  14
   1  -4 -14 2106.95 278.948  14
   1  -4 -13 13043.8 732.818  14
   1  -4 -12 454.132 131.566   5
   1  -4 -12 702.285 216.079  19
   1  -4 -12 933.752 241.017  14
   1  -4 -11 3704.16 416.616  10
   1  -4 -11 4407.69 351.667   5
   1  -4 -11 4997.04 487.023  14
   1  -4 -11 4480.01 481.549   7
   1  -4 -11 4278.07 488.794  19
   1  -4 -10 289.559 142.768   5
   1  -4 -10 393.008 212.355  19
   1  -4 -10 433.549 234.813   7
   1  -4  -9 101.503 122.353   5
   1  -4  -9 266.507 175.926   7
   1  -4  -9-33.6229 157.469  19
   1  -4  -8 363.629 130.982   5
   1  -4  -7 12718.6 513.474   5
   1  -4  -6 12842.5 489.010   5
   1  -4  -5 7607.92 359.285   5
   1  -4  -4 57550.5 907.980   5
   1  -4  -3 60.1353 80.1417   5
   1  -4  -2 793.604 111.733   5
   1  -4  -1 30059.1 527.964   5
   1  -4   0 32518.8 785.677   4
  -1   4  -1 42908.3 1127.71   1
   1  -4   1 41667.5 838.980   4
  -1   4  -2 21083.0 816.484   1
   1  -4   2 20249.0 502.041   4
  -1   4  -3 24961.3 911.407   1
  -1   4  -4 2251.88 330.538   1
  -1   4  -5 16836.0 839.039   1
  -1   4  -6 229.662 151.502   1
  -1   4  -7 866.218 268.587   1
  -1   4  -7 665.128 238.059   2
  -1   4  -8 16944.6 1078.70   2
  -1   4  -8 18452.9 1061.98   1
  -1   4  -9 3273.47 528.214   2
  -1   4  -9 3715.76 288.680   8
  -1   4 -10 2783.75 505.444   2
   1  -4  10 2404.76 320.298  11
  -1   4 -10 3264.79 287.640   8
   1  -4  11 2482.13 336.655  11
  -1   4 -11 2435.02 268.350   8
  -1   4 -12 675.860 177.900   8
  -1   4 -13 1021.54 183.077   8
   1  -4  14 351.433 109.245  12
  -1   4 -14 283.726 114.971   8
  -1   4 -15 346.890 100.837   8
   1  -3 -16 652.348 125.461  14
   1  -3 -15-72.5308 91.7886  14
   1  -3 -14 344.315 176.139  14
   1  -3 -13 946.328 237.156  14
   1  -3 -12 274.990 96.9522   5
   1  -3 -12 530.860 236.633  19
   1  -3 -12 108.616 158.148  14
   1  -3 -11 40.4587 159.497  10
   1  -3 -11 60.1029 114.809   5
   1  -3 -11 443.825 203.457   4
   1  -3 -11-51.2329 155.070  19
   1  -3 -11 37.8670 133.633  14
   1  -3 -10 1186.50 282.372  19
   1  -3 -10 1004.25 176.233   5
   1  -3 -10 982.894 366.531   2
   1  -3 -10 827.474 230.799  10
   1  -3 -10 1166.76 280.171   7
   1  -3  -9 48356.6 2023.51   2
   1  -3  -9 49178.9 1389.71  19
   1  -3  -9 45933.1 994.360   5
   1  -3  -8 2040.88 426.004   2
   1  -3  -8 2096.84 213.868   5
   1  -3  -7 5295.97 310.142   5
   1  -3  -7 5732.98 608.547   2
   1  -3  -6 56354.0 1721.57   2
   1  -3  -6 58493.6 940.346   5
   1  -3  -5 107377. 2196.01   2
   1  -3  -5 108936. 1219.94   5
   1  -3  -4 1994.19 166.619   5
   1  -3  -4 1904.79 299.007   2
  -1   3   3 39770.1 566.430   3
   1  -3  -3 40553.0 647.683   5
   1  -3  -2 4391.27 202.298   5
   1  -3  -1 8947.22 258.607   5
   1  -3  -1 9970.72 459.050   4
   1  -3   0 35247.5 771.177   4
  -1   3  -1 98269.8 1500.90   1
   1  -3   1 101314. 1218.71   4
  -1   3  -2 21962.2 737.957   1
  -1   3  -3 3217.95 311.700   1
  -1   3  -4 1283.23 224.627   1
  -1   3  -5 1982.80 284.424   1
  -1   3  -6 37918.2 1264.61   1
  -1   3  -7 16524.9 907.877   1
  -1   3  -7 16084.5 951.455   2
  -1   3  -8 4580.12 563.138   2
  -1   3  -8 3196.45 457.286   1
  -1   3  -9 12583.9 994.535   2
  -1   3  -9 14605.2 560.992   8
  -1   3 -10 2989.91 529.090   2
  -1   3 -10 2869.22 285.822   8
  -1   3 -11 77.2712 118.998   8
  -1   3 -12 427.733 142.575   8
  -1   3 -13 767.149 182.809   8
  -1   3 -14 5547.55 354.284   8
  -1   3 -15 4496.32 284.423   8
  -1   3 -16 188.908 73.4259   8
   1  -2 -16 8638.88 405.750  14
   1  -2 -15 2346.59 277.576  14
   1  -2 -14 360.572 158.941  14
   1  -2 -13 2811.96 246.826   8
   1  -2 -13 2863.08 363.231  14
   1  -2 -12 2636.20 371.964  14
   1  -2 -12 1967.11 211.233   8
   1  -2 -11-9.66970 146.468  19
   1  -2 -11 270.109 124.116   8
   1  -2 -11 85.5006 105.812   5
   1  -2 -11-66.6821 123.448   4
   1  -2 -11 337.864 324.196   2
   1  -2 -11-30.4203 117.115  14
   1  -2 -11 177.877 195.559  10
   1  -2 -10 164.990 192.784  19
   1  -2 -10 63.3648 156.685  10
   1  -2 -10 205.075 100.496   5
   1  -2 -10-10.2728 201.478   2
   1  -2  -9 8127.03 835.053   2
   1  -2  -9 6760.50 357.654   5
   1  -2  -8 2556.12 215.792   5
   1  -2  -8 3069.62 495.087   2
   1  -2  -7 1961.71 374.142   2
   1  -2  -7 1845.32 178.975   5
   1  -2  -6 13148.9 416.991   5
   1  -2  -6 13599.7 794.152   2
   1  -2  -5 10917.6 649.531   2
   1  -2  -5 10818.8 357.891   5
   1  -2  -4 2816.47 182.677   5
   1  -2  -4 2873.91 326.776   2
   1  -2  -3 30835.1 513.660   5
   1  -2  -3 30169.6 900.636   2
   1  -2  -2 4985.42 198.010   5
   1  -2  -1 44707.2 850.899   4
   1  -2   0 5201.94 283.810   4
   1  -2   0 4255.81 133.390   3
   1  -2   1 63.8692 73.7972   4
  -1   2  -1 79.0102 89.9866   1
  -1   2  -2 5874.16 353.832   1
  -1   2  -3 8406.38 445.959   1
  -1   2  -4 7750.36 464.871   1
  -1   2  -5 3142.99 358.003   2
  -1   2  -5 3283.36 351.738   1
  -1   2  -6 84.7911 138.745   1
  -1   2  -6-95.3700 152.850   2
  -1   2  -7 27586.6 1145.08   1
  -1   2  -7 29300.2 1266.38   2
  -1   2  -8 13237.8 934.879   2
  -1   2  -9 4664.34 608.471   2
  -1   2 -10 17056.3 1213.12   2
  -1   2 -10 16366.6 891.533  10
  -1   2 -10 18299.4 669.533   8
  -1   2 -11 362.755 131.553   8
  -1   2 -12 12807.8 586.004   8
  -1   2 -13 2400.98 266.366   8
  -1   2 -14 108.282 118.634   8
  -1   2 -15 8569.02 397.153   8
  -1   2 -16 5.71976 73.2204   8
   1  -1 -16 2983.72 246.245  14
   1  -1 -15 4552.93 272.301   8
   1  -1 -15 4315.34 360.556  14
   1  -1 -14 16557.1 783.183  14
   1  -1 -14 14659.1 550.012   8
   1  -1 -13 13077.0 750.523  14
   1  -1 -13 11878.0 525.946   8
   1  -1 -12 15567.3 614.007   8
   1  -1 -12 19111.3 919.479  14
   1  -1 -11 6365.40 834.280   2
   1  -1 -11 6148.55 368.933   8
   1  -1 -11 5406.99 519.405  19
   1  -1 -11 6902.33 558.711  14
   1  -1 -10 641.919 133.417   8
   1  -1 -10 795.997 226.537   4
   1  -1 -10 675.865 206.515  19
   1  -1 -10 325.055 264.424   2
   1  -1 -10 348.275 211.327  10
   1  -1 -10 472.079 105.630   5
   1  -1  -9 11885.0 435.746   5
   1  -1  -9 13462.1 1032.85   2
   1  -1  -8 48116.4 812.616   5
   1  -1  -8 54859.0 1895.04   2
   1  -1  -7 35562.4 667.674   5
   1  -1  -7 37640.4 1425.65   2
   1  -1  -6 14053.0 787.278   2
   1  -1  -6 13386.2 386.710   5
   1  -1  -5 87472.1 1714.19   2
   1  -1  -5 91370.5 938.768   5
   1  -1  -4 24923.7 458.686   5
   1  -1  -4 23918.3 786.353   2
   1  -1  -3 72337.7 1169.55   2
   1  -1  -3 73238.1 702.390   5
   1  -1  -2 10174.1 243.478   5
   1  -1  -2 11095.4 394.240   2
   1  -1  -1 1805.01 122.816   3
   1  -1   0 573908. 2107.91   3
   1  -1   1 2749.39 196.005   4
  -1   1  -1 2869.06 199.366   1
  -1   1  -2 1883.49 187.139   1
  -1   1  -3 28967.0 773.478   2
  -1   1  -3 29642.7 750.872   1
  -1   1  -4 55434.1 1168.32   1
  -1   1  -4 54302.1 1246.83   2
  -1   1  -5 204.567 155.963   2
  -1   1  -5 103.858 117.721   1
  -1   1  -6 6126.95 501.280   1
  -1   1  -6 6171.79 540.534   2
  -1   1  -7 35709.3 1408.97   2
  -1   1  -8 90363.8 2433.05   2
  -1   1  -9 5276.91 643.172   2
  -1   1 -10 4087.43 620.602   2
  -1   1 -10 3767.34 451.762  10
  -1   1 -10 4205.56 344.163   8
  -1   1 -11 50.2215 204.909  10
  -1   1 -11 55.6651 249.235   2
  -1   1 -11 4.85768 98.8484   8
  -1   1 -12 96.7517 111.139   8
  -1   1 -12-92.8090 225.613  10
  -1   1 -13 2729.82 278.238   8
  -1   1 -14-86.2033 110.507   8
  -1   1 -14-3.37720 98.2668  14
  -1   1 -15 90.6610 83.2377   8
  -1   1 -16 56.0610 68.1090   8
   1   0 -16 1129.48 131.168   8
   1   0 -16 755.813 121.413  14
   1   0 -15 45.9523 86.7507   8
   1   0 -15-62.4744 100.352  14
   1   0 -14 396.780 159.349  14
   1   0 -14 498.139 148.143   8
   1   0 -13 17372.9 667.909   8
   1   0 -13 19185.6 883.021  14
   1   0 -12 365.449 127.628   8
   1   0 -12 614.475 201.598  14
   1   0 -11 461.868 202.308  14
   1   0 -11 274.916 118.401   8
   1   0 -11-9.45965 250.845   2
   1   0 -10 77.8077 106.012   8
   1   0 -10 133.159 229.130   2
   1   0 -10 1.98042 121.220  14
   1   0  -9 13343.3 735.027   4
   1   0  -9 14061.5 1030.19   2
   1   0  -8 2455.23 306.196   4
   1   0  -8 1837.48 147.566   5
   1   0  -8 2465.09 421.519   2
   1   0  -7 24266.0 493.460   5
   1   0  -7 26627.9 1194.55   2
   1   0  -6 10859.4 705.765   2
   1   0  -6 9644.72 293.444   5
   1   0  -5 47524.2 596.679   5
   1   0  -5 47973.1 1280.62   2
   1   0  -4 35634.8 956.277   2
   1   0  -4 35043.5 467.894   5
   1   0  -3 37356.0 799.066   4
   1   0  -3 37953.6 741.389   6
   1   0  -2 1049.98 122.606   2
   1   0  -2 975.159 141.024   4
   1   0  -1 60442.7 871.198   3
   1   0  -1 61146.7 524.140   2
   1   0   0 10282.9 371.069   3
  -1   0   0 9631.94 240.876   1
  -1   0  -1 36068.5 487.274   2
  -1   0  -1 34990.8 549.539   1
  -1   0  -2 1921.93 175.220   2
  -1   0  -2 1870.41 170.065   1
  -1   0  -3 117016. 1531.14   2
  -1   0  -3 117994. 1474.13   1
  -1   0  -4 18112.4 665.095   1
  -1   0  -4 18278.2 720.551   2
  -1   0  -5 97681.7 1900.59   2
  -1   0  -5 94799.5 1714.64   1
  -1   0  -6 6589.49 570.493   2
  -1   0  -7 957.153 285.243   2
  -1   0  -8 4997.55 595.361   2
  -1   0  -9 23641.8 1355.45   2
  -1   0 -10 23864.7 750.262   8
  -1   0 -10 23620.3 1440.84   2
  -1   0 -10 23494.8 1060.84  10
  -1   0 -11 802.178 304.799   2
  -1   0 -11 728.345 250.207  10
  -1   0 -11 767.988 176.190   8
  -1   0 -12 26057.6 1190.84  10
  -1   0 -12 26973.5 831.565   8
  -1   0 -13 11084.7 772.924  10
  -1   0 -13 11347.4 546.306   8
  -1   0 -14 780.221 162.965   8
  -1   0 -15 1617.46 204.911  14
  -1   0 -15 2272.84 212.612   8
  -1   0 -16 3072.24 200.685   8
   1   1 -16 11153.9 385.469   8
  -1  -1  16 10172.3 521.002  11
   1   1 -15 242.964 110.832   8
   1   1 -15 198.803 100.149  14
   1   1 -14 22708.5 853.239  14
   1   1 -14 22465.7 736.459   8
   1   1 -13 6254.90 501.913  14
   1   1 -13 6013.55 409.892   8
   1   1 -12 11362.8 671.145  14
   1   1 -12 10800.7 546.807   8
   1   1 -11 2646.99 542.634   2
   1   1 -11 3630.19 379.433  14
   1   1 -11 3221.10 296.786   8
   1   1 -10 16875.3 607.492   8
   1   1 -10 17617.0 1223.47   2
   1   1 -10 18611.4 772.610  14
   1   1  -9 10169.7 876.599   2
   1   1  -8 38151.7 1560.88   2
   1   1  -7-7.09100 78.5059   4
   1   1  -7 122.071 175.427   2
   1   1  -6 3553.50 291.116   4
   1   1  -6 3688.97 419.159   2
   1   1  -5 56297.1 1206.06   6
   1   1  -5 58370.6 1078.93   4
   1   1  -5 56484.3 1389.20   2
   1   1  -4 27339.4 783.806   6
   1   1  -4 28875.4 714.398   4
   1   1  -3 133043. 1452.04   6
   1   1  -3 131193. 1455.57   4
   1   1  -2 213381. 1707.42   4
   1   1  -2 214262. 1555.29   6
   1   1  -2 214601. 2100.98   3
   1   1  -1 25937.2 594.270   4
   1   1  -1 27166.3 707.070   3
   1   1   0 101865. 1359.86   3
   1   1   1 6409.69 361.394   3
  -1  -1  -2 681624. 3381.17   2
  -1  -1  -3 218945. 2260.40   2
  -1  -1  -4 5990.20 445.679   2
  -1  -1  -5 14379.0 756.854   2
  -1  -1  -6 8950.31 685.453   2
  -1  -1  -7 2990.10 453.016   2
  -1  -1  -8 13813.8 987.461   2
  -1  -1  -9 892.683 347.024   2
  -1  -1 -10 8584.21 911.943   2
  -1  -1 -10 10260.1 498.249   8
  -1  -1 -10 10444.1 720.051  10
  -1  -1 -11 446.657 146.160   8
  -1  -1 -11 141.078 223.561  10
  -1  -1 -11 494.360 314.996   2
  -1  -1 -12 9.22715 98.5943   8
  -1  -1 -12 181.415 213.756  10
  -1  -1 -13 4764.02 535.226  10
  -1  -1 -13 5111.95 361.537   8
  -1  -1 -14 12475.8 502.109   8
  -1  -1 -15 75.9878 90.6121   8
  -1  -1 -15 31.6408 95.5515  14
  -1  -1 -16 1757.63 168.024  14
  -1  -1 -16 2460.66 164.613   8
   1   2 -16 130.055 84.7193   8
  -1  -2  16-90.7560 94.6637  11
  -1  -2  15 668.213 198.653  11
   1   2 -15 823.085 151.216   8
   1   2 -14 441.317 152.636   8
   1   2 -13 8412.00 515.334  14
   1   2 -13 8563.21 493.380   8
   1   2 -12 349.110 137.122   8
   1   2 -12 366.077 150.233  14
   1   2 -11 25631.9 1519.65   2
   1   2 -11 24996.1 892.673  14
   1   2 -11 24552.7 804.525   8
   1   2 -10 8994.85 882.163   2
   1   2 -10 8513.25 446.768   8
   1   2  -9 31144.0 1541.60   2
   1   2  -8 495.889 235.892   2
   1   2  -7 49957.1 1644.13   2
   1   2  -6 8817.36 419.856   4
   1   2  -6 7832.92 534.237   6
   1   2  -6 7711.85 595.874   2
   1   2  -5 4509.43 407.597   6
   1   2  -5 5157.63 301.197   4
   1   2  -4 32646.8 687.891   4
   1   2  -4 30842.3 876.718   6
   1   2  -3 32128.7 650.056   4
   1   2  -3 32033.9 780.875   6
   1   2  -2 94824.9 1596.50   3
   1   2  -2 95181.2 1194.83   6
   1   2  -1 628138. 3927.81   3
   1   2   0 11401.4 544.949   3
   1   2   1 339629. 2902.80   3
   1   2   2 332571. 3025.54   3
   1   2   3 151808. 2211.61   3
  -1  -2  -3 152593. 2076.52   2
  -1  -2  -4 68042.9 1575.06   2
  -1  -2  -5 2775.99 365.332   2
  -1  -2  -6 3071.92 445.109   2
  -1  -2  -7 2335.47 420.437   2
  -1  -2  -8 2779.01 474.662   2
  -1  -2  -9-45.6660 248.727   2
  -1  -2  -9 180.663 182.290   7
  -1  -2  -9 330.680 198.091  10
  -1  -2 -10 45583.7 1486.56  10
  -1  -2 -10 48000.7 1032.87   8
  -1  -2 -10 45178.8 1499.37   7
  -1  -2 -10 46375.5 2103.26   2
  -1  -2 -11 25407.5 775.767   8
  -1  -2 -11 23558.7 1128.78  10
  -1  -2 -12 31879.7 1327.14  10
  -1  -2 -12 32981.5 877.785   8
  -1  -2 -12 31561.7 794.188   5
  -1  -2 -13 1978.00 229.078   8
  -1  -2 -13 1797.46 354.418  10
  -1  -2 -14 635.214 130.687   8
  -1  -2 -14 259.923 196.626  10
  -1  -2 -15 2507.50 269.074  14
  -1  -2 -15 3218.11 215.135   8
  -1  -2 -16 131.799 75.7911  14
  -1  -3  16 102.972 90.1123  11
  -1  -3  15 173.391 149.075  11
   1   3 -15 205.613 106.125   8
   1   3 -14 5404.02 372.482   8
  -1  -3  14 4209.00 455.068  11
   1   3 -13 1717.95 241.341   8
   1   3 -12 4768.96 374.968   8
   1   3 -11 68.7168 113.098   8
   1   3 -10 21037.7 1338.83   2
   1   3 -10 18874.8 677.247   8
   1   3  -9 601.736 153.233   8
   1   3  -9 550.982 282.040   2
   1   3  -8 15284.3 991.722   2
   1   3  -7 610.485 225.603   6
   1   3  -7 194.781 186.964   2
   1   3  -6 798.081 226.543   6
   1   3  -5 1430.63 267.185   6
   1   3  -4 2828.90 304.990   6
   1   3  -3 42535.2 731.426   1
   1   3  -3 40842.7 978.532   6
   1   3  -2 67756.2 749.929   1
   1   3  -2 66777.9 1505.73   3
   1   3  -2 66067.1 1132.88   6
   1   3  -1 200307. 2540.51   3
   1   3  -1 199878. 1870.51   6
   1   3   0 6399.38 465.916   3
   1   3   0 5581.93 184.418   1
   1   3   1 8525.25 542.761   3
   1   3   2 147.959 146.800   3
   1   3   3 31963.7 1117.27   3
   1   3   4 10871.6 695.393   3
   1   3   5 225401. 3260.21   3
  -1  -3  -5 222612. 3360.80   2
  -1  -3  -6 7806.38 693.165   2
  -1  -3  -7 2253.92 426.173   2
  -1  -3  -8 244.360 199.819   2
  -1  -3  -9 29154.9 764.991   8
  -1  -3  -9 28642.2 1132.65   7
  -1  -3  -9 29493.7 1109.78  10
  -1  -3  -9 28897.6 1640.21   2
  -1  -3 -10 1874.62 347.613   7
  -1  -3 -10 2137.17 229.254   8
  -1  -3 -10 2091.61 360.554  10
   1   3  10 2398.60 502.632   3
  -1  -3 -10 1549.09 434.395   2
  -1  -3 -11 29625.7 1271.71   7
  -1  -3 -11 30927.0 1274.35  10
  -1  -3 -11 32284.7 828.522   8
  -1  -3 -12 2523.92 257.576   5
  -1  -3 -12 2327.98 412.194  10
  -1  -3 -12 2358.99 253.489   8
  -1  -3 -13 1344.74 322.630  10
  -1  -3 -13 1269.28 176.560   8
  -1  -3 -14 2171.68 189.382   8
  -1  -3 -14 1683.73 300.086  10
  -1  -3 -15 55.2216 86.2017  14
  -1  -3 -16 67.1095 66.1315  14
  -1  -4  16 4060.33 268.825  11
  -1  -4  15 3580.10 343.187  11
   1   4 -15 3894.44 270.003   8
  -1  -4  14 4657.61 458.998  11
   1   4 -14 5473.28 361.349   8
  -1  -4  13 1025.63 279.355  11
   1   4 -13 1048.57 199.227   8
  -1  -4  12 6303.23 601.795  11
   1   4 -12 6289.94 417.903   8
   1   4 -11 46.8675 105.097   8
   1   4 -10 267.320 134.034   8
   1   4 -10 530.592 310.391   2
   1   4  -9 3180.86 524.464   2
   1   4  -9 3114.49 271.998   8
   1   4  -8 1092.66 288.388   2
   1   4  -7 10976.2 733.498   6
   1   4  -6 1087.04 276.650   6
   1   4  -5 41197.7 1015.66   1
   1   4  -5 39746.2 1252.51   6
   1   4  -4 475075. 3085.46   1
   1   4  -4 470512. 3973.74   6
   1   4  -3 4867.18 276.874   1
   1   4  -3 4824.33 390.952   6
   1   4  -2 124365. 1759.31   6
   1   4  -2 124387. 1192.46   1
   1   4  -1 18673.0 660.993   6
   1   4  -1 18115.3 427.461   1
   1   4  -1 18749.4 875.496   3
   1   4   0 22917.4 960.379   3
   1   4   0 20140.2 453.056   1
   1   4   1 43018.2 1305.92   3
   1   4   2 344.711 168.902   3
   1   4   3 23563.0 1053.31   3
   1   4   4 146333. 2691.25   3
   1   4   5 1077.17 278.406   3
   1   4   6 49905.2 1771.87   3
   1   4   7 6923.49 711.657   3
  -1  -4  -8 33746.8 1174.17   7
  -1  -4  -8 32767.6 1124.82  10
   1   4   8 32436.7 1587.17   3
  -1  -4  -9 16013.8 890.660   7
   1   4   9 16752.0 1201.24   3
  -1  -4  -9 15380.5 835.044  10
  -1  -4 -10 34328.3 1344.13   7
  -1  -4 -10 35802.9 1316.67  10
  -1  -4 -11 273.925 239.420  10
  -1  -4 -11 472.785 268.922   7
  -1  -4 -11-60.2702 89.2169   5
  -1  -4 -12 737.426 157.198   5
  -1  -4 -12 596.356 270.091  10
  -1  -4 -13 347.343 197.809  10
  -1  -4 -14 2961.05 355.066  10
  -1  -4 -15 644.562 138.898  14
  -1  -5  15 481.537 142.672  11
  -1  -5  14 444.820 173.152  11
   1   5 -14 368.460 124.321   8
  -1  -5  13 23418.1 1028.64  11
   1   5 -13 22919.6 744.832   8
  -1  -5  12 668.013 239.149  11
   1   5 -12 489.451 150.604   8
  -1  -5  11 1678.38 331.792  11
   1   5 -11 1549.74 217.903   8
   1   5 -10 469.385 137.866   8
  -1  -5  10 589.691 234.424  11
  -1  -5   9 8582.89 644.988  11
   1   5  -9 9388.38 871.360   2
   1   5  -9 8350.43 431.896   8
  -1  -5   8 2260.94 300.783  11
   1   5  -8 2147.95 215.960   8
   1   5  -7 139.625 195.827   6
   1   5  -6 1565.51 312.424   6
   1   5  -5 94677.5 2083.22   6
   1   5  -5 95390.3 1606.52   1
   1   5  -4 210.695 88.0902   1
   1   5  -4 385.968 201.754   6
   1   5  -3 9564.85 587.511   6
   1   5  -3 8829.82 402.251   1
   1   5  -2 29052.4 960.223   6
   1   5  -2 28043.8 658.960   1
   1   5  -1 10952.0 755.233   3
   1   5  -1 11110.1 576.385   6
   1   5  -1 10226.1 387.959   1
   1   5   0 331.053 85.8812   1
   1   5   0 356.595 169.856   3
   1   5   1 295.410 145.517   3
   1   5   2 46892.1 1505.11   3
   1   5   3 12668.4 840.040   3
   1   5   4 52565.4 1728.95   3
   1   5   5 33498.0 1455.08   3
   1   5   6 28214.0 1393.91   3
  -1  -5  -7 51383.1 1454.79   7
   1   5   7 50740.5 1953.43   3
  -1  -5  -7 46289.3 1291.02  10
  -1  -5  -8 60503.6 1557.01  10
   1   5   8 63186.5 2244.18   3
  -1  -5  -8 61570.8 1676.48   7
  -1  -5  -9 10213.6 738.222   7
  -1  -5  -9 10477.2 710.489  10
  -1  -5 -10 12963.2 831.057   7
  -1  -5 -10 14784.5 848.113  10
  -1  -5 -10 14090.0 595.579   5
  -1  -5 -11 2905.83 423.268   7
  -1  -5 -11 3485.24 299.940   5
  -1  -5 -11 3244.35 467.836  10
  -1  -5 -12 6490.58 573.418  10
  -1  -5 -13 2277.35 324.334  10
  -1  -5 -14 57.5764 110.575  14
  -1  -5 -14 232.389 140.327  10
  -1  -5 -15 187.866 90.5850  14
  -1  -6  15 155.413 90.7394  11
  -1  -6  14 2898.87 312.272  11
  -1  -6  13 488.032 155.216  11
   1   6 -13 516.733 131.109   9
   1   6 -13 353.800 120.789   8
  -1  -6  12 5161.45 513.565  11
   1   6 -12 4667.40 339.783   8
  -1  -6  11 618.501 227.202  11
   1   6 -11 377.017 153.831   8
  -1  -6  10-54.8824 139.211  11
   1   6 -10 120.641 108.232   8
  -1  -6   9 284.228 156.403  11
   1   6  -9 250.379 128.836   8
  -1  -6   8 293.089 154.202  11
   1   6  -8 386.476 140.244   8
  -1  -6   7 4774.81 442.503  11
   1   6  -7 4275.08 541.023   6
   1   6  -7 3920.95 289.465   8
   1   6  -6 78289.1 2129.37   6
   1   6  -5 22535.4 1097.84   6
   1   6  -4 3176.42 425.701   6
   1   6  -3-18.9059 144.969   6
   1   6  -2 36433.7 1189.61   6
   1   6  -1 26872.4 985.487   6
   1   6   0 845.825 202.587   6
   1   6   0 809.903 244.069   3
   1   6   1 486.867 193.890   3
   1   6   2 3375.81 448.754   3
   1   6   3 27929.3 1279.53   3
   1   6   4 4745.96 552.628   3
   1   6   5 3430.44 488.287   3
   1   6   6 7394.32 741.541   3
  -1  -6  -6 7421.52 518.994  10
  -1  -6  -7 8919.26 603.046  10
  -1  -6  -7 9150.21 659.364   7
  -1  -6  -8 9600.26 700.351   7
  -1  -6  -8 10158.4 668.479  10
  -1  -6  -9 602.525 229.094   7
  -1  -6  -9 783.297 238.168  10
  -1  -6  -9 504.992 138.556   5
  -1  -6 -10 3451.59 307.493   5
  -1  -6 -10 3464.96 431.513  10
  -1  -6 -10 3572.01 466.312   7
  -1  -6 -11 9318.76 478.666   5
  -1  -6 -11 9378.07 682.571  10
  -1  -6 -11 9094.08 683.278   7
  -1  -6 -12 775.830 230.644   7
  -1  -6 -12 698.167 243.039  10
  -1  -6 -13 1331.84 252.306  10
  -1  -6 -14 663.792 134.208  14
  -1  -7  14 174.390 116.012  11
  -1  -7  13 600.631 170.735  11
   1   7 -13 864.348 142.085   9
  -1  -7  12 1524.92 285.819  11
  -1  -7  11 21567.4 998.228  11
  -1  -7  10 19009.0 953.283  11
  -1  -7   9 407.616 211.598  11
   1   7  -9 393.609 132.840   8
  -1  -7   8 11006.7 727.223  11
  -1  -7   7 200.318 155.199  11
   1   7  -7 571.770 283.385   6
  -1  -7   6 1711.54 269.882  11
   1   7  -6 1890.34 406.004   6
   1   7  -5 1.28952 201.768   6
  -1  -7   5 8.35855 117.545  11
   1   7  -4 7142.16 654.861   6
   1   7  -3 7438.79 642.295   6
   1   7  -2 4901.61 498.751   6
   1   7  -1 48426.0 1490.03   6
   1   7   0 46074.2 1391.75   6
   1   7   1-14.4608 139.025   3
   1   7   1-61.2433 162.252   6
   1   7   2 54304.5 1855.89   3
  -1  -7  -2 53132.3 853.102   5
   1   7   3 5404.55 594.430   3
  -1  -7  -3 5430.73 295.877   5
  -1  -7  -4 17818.9 570.991   5
  -1  -7  -4 16795.4 763.247  10
  -1  -7  -5 52447.5 1440.12  11
  -1  -7  -5 51610.0 1366.55  10
  -1  -7  -6 9.59969 111.191   5
  -1  -7  -6-101.798 164.768  10
  -1  -7  -7 47710.3 1407.61  10
  -1  -7  -7 50752.5 1110.20   5
  -1  -7  -8 2280.53 259.579   5
  -1  -7  -8 1828.23 361.226   7
  -1  -7  -8 2184.31 347.556  10
  -1  -7  -9-44.1641 190.533   7
  -1  -7  -9 79.2954 166.278  10
  -1  -7  -9 57.2164 101.128   5
  -1  -7 -10 6082.56 553.261   7
  -1  -7 -10 6272.25 541.470  10
  -1  -7 -10 6393.06 400.213   5
  -1  -7 -11 18294.3 854.692  10
  -1  -7 -11 18157.5 902.920   7
  -1  -7 -12 4548.15 399.253  10
  -1  -7 -12 5101.19 448.414   7
  -1  -7 -13 10033.2 474.154  10
  -1  -7 -13 4353.64 279.210  14
  -1  -8  14-115.815 77.8990  12
  -1  -8  13 1404.71 207.988  11
   1   8 -13 1127.43 138.696   9
  -1  -8  12 692.435 190.412  11
  -1  -8  11 402.992 175.338  11
  -1  -8  10 300.737 150.625  11
  -1  -8   9 13682.5 801.850  11
  -1  -8   8 4325.06 480.939  11
  -1  -8   7 1060.68 264.285  11
   1   8  -7 1374.03 333.153   6
   1   8  -6 317.778 262.442   6
  -1  -8   6 623.290 237.385  11
  -1  -8   5 2955.25 432.139  11
   1   8  -5 2370.05 476.825   6
  -1  -8   4 145.737 154.408  11
   1   8  -4 52.5299 222.063   6
  -1  -8   3 505.272 185.702  11
   1   8  -3 730.510 298.821   6
  -1  -8   2 5525.69 467.473  11
   1   8  -2 5531.61 572.014   6
   1   8  -1 9981.33 737.747   6
  -1  -8   1 10251.5 617.981  11
  -1  -8   0 7348.37 524.965  11
   1   8   0 7026.10 609.496   6
  -1  -8  -1 2512.77 314.687  11
   1   8   1 2356.33 359.860   6
  -1  -8  -1 2732.43 321.474  10
  -1  -8  -2 5369.34 469.133  11
   1   8   2 5457.03 533.200   6
  -1  -8  -2 5661.09 454.196  10
  -1  -8  -3 10097.4 643.408  11
  -1  -8  -3 9783.20 596.205  10
  -1  -8  -4 861.842 238.464  11
  -1  -8  -4 969.713 154.640   5
  -1  -8  -4 923.574 220.841  10
  -1  -8  -5 19951.1 958.076  11
  -1  -8  -5 21576.1 915.631  10
  -1  -8  -5 21459.7 678.586   5
  -1  -8  -6 13785.8 571.578   5
  -1  -8  -6 12704.0 718.651  10
  -1  -8  -7 7859.23 662.889   7
  -1  -8  -7 9068.49 620.899  10
  -1  -8  -7 8486.61 463.730   5
  -1  -8  -8 4000.58 470.193   7
  -1  -8  -8 4115.16 428.890  10
  -1  -8  -8 4053.91 334.436   5
  -1  -8  -9 3327.24 417.891   7
  -1  -8  -9 3687.78 408.096  10
  -1  -8 -10 993.092 258.501   7
  -1  -8 -10 1118.16 244.206  10
  -1  -8 -11 1793.55 278.253   7
  -1  -8 -11 1481.49 249.968  10
  -1  -8 -12 7727.72 402.579  10
  -1  -9  13-105.767 74.8917  12
  -1  -9  13-45.6300 73.8528  11
  -1  -9  12 405.985 138.581  11
  -1  -9  11 68.1195 121.519  11
  -1  -9  10 2055.51 299.263  11
  -1  -9   9 983.185 262.929  11
  -1  -9   8 13451.4 793.341  11
  -1  -9   7 3612.12 429.752  11
  -1  -9   6 198.451 177.053  11
   1   9  -6 352.109 250.653   6
  -1  -9   5-89.7460 164.826  11
   1   9  -5 51.5761 242.703   6
  -1  -9   4 278.143 204.450  11
   1   9  -4 96.5500 255.421   6
  -1  -9   3 2533.55 364.567  11
   1   9  -3 2729.96 468.092   6
  -1  -9   2 5258.83 506.778  11
   1   9  -2 6698.70 675.605   6
  -1  -9   1 10457.5 692.043  11
   1   9  -1 11256.3 827.107   6
  -1  -9   0-86.1060 162.412  11
   1   9   0-317.386 270.115   6
  -1  -9   0 15.8326 141.180  10
  -1  -9  -1 1265.46 254.704  10
   1   9   1 853.597 284.545   6
  -1  -9  -1 787.254 230.990  11
  -1  -9  -2 12172.3 751.119  11
  -1  -9  -2 13009.7 696.751  10
   1   9   2 12766.9 840.034   6
  -1  -9  -3 3353.36 420.687  11
   1   9   3 3046.95 417.181   6
  -1  -9  -3 4061.40 406.429  10
  -1  -9  -4-4.66416 171.970  11
   1   9   4-234.863 218.392   6
  -1  -9  -4-117.899 165.657  10
  -1  -9  -5 19796.9 879.006  10
   1   9   5 19304.8 999.898   6
  -1  -9  -6-6.27452 146.417  10
  -1  -9  -6-122.370 91.1409   5
  -1  -9  -6 88.6925 179.649  17
  -1  -9  -7 5673.44 554.757   7
  -1  -9  -7 6686.49 528.574  10
  -1  -9  -8 20325.0 964.715   7
  -1  -9  -8 20904.9 847.573  10
  -1  -9  -9 147.614 164.917   7
  -1  -9  -9 468.267 180.866  10
  -1  -9 -10 2770.59 327.633   7
  -1  -9 -10 2750.21 281.408  10
  -1  -9 -11 9076.07 498.932   7
  -1 -10  11 69.4930 107.565  11
  -1 -10  11 110.370 89.2277  12
  -1 -10  10 306.824 137.936  11
  -1 -10   9 399.695 185.585  11
  -1 -10   8 150.103 146.804  11
  -1 -10   7 523.716 214.657  11
  -1 -10   6 469.789 231.096  11
  -1 -10   5 5244.50 522.371  11
  -1 -10   4 527.391 252.054  11
  -1 -10   3-132.386 169.656  11
  -1 -10   2 864.407 254.470  11
  -1 -10   2 728.885 213.341  10
  -1 -10   1 14287.8 838.539  11
  -1 -10   1 12713.8 695.781  10
  -1 -10   0 7333.78 529.674  10
  -1 -10   0 8477.96 649.371  11
  -1 -10  -1 27426.5 1149.32  11
  -1 -10  -1 27348.0 997.700  10
  -1 -10  -2-41.1626 151.258  11
  -1 -10  -2-224.821 155.791  10
  -1 -10  -3 18077.5 794.178  10
  -1 -10  -3 17246.9 919.264  11
  -1 -10  -4 53.3262 158.858  11
  -1 -10  -4 168.096 149.301  10
  -1 -10  -5 3055.37 334.318  10
  -1 -10  -5 3528.63 437.604  17
  -1 -10  -6 1026.07 209.669  10
  -1 -10  -6 1149.87 261.686  17
  -1 -10  -7 1056.09 253.337   7
  -1 -10  -8 1985.62 293.231   7
  -1 -10  -9 13281.8 640.242   7
  -1 -10 -10 417.912 147.427   7
  -1 -11  10 346.370 107.986  11
  -1 -11   9 1785.43 234.893  11
  -1 -11   8 183.740 122.171  11
  -1 -11   7 694.222 197.069  11
  -1 -11   6 5006.69 457.078  11
  -1 -11   5 105.510 146.899  11
  -1 -11   4 698.158 224.829  11
  -1 -11   4 779.962 226.404  17
  -1 -11   3 1606.49 323.719  11
  -1 -11   2 1389.34 300.264  11
  -1 -11   1 1062.21 270.048  11
  -1 -11   0 1413.61 300.895  11
  -1 -11  -1 6868.20 580.465  11
  -1 -11  -2 4688.47 485.097  11
  -1 -11  -3-53.2512 147.690  11
  -1 -11  -3 267.457 245.582  17
  -1 -11  -4 1110.25 285.753  17
  -1 -11  -5 4733.49 460.538  17
  -1 -11  -6 4872.66 446.170   7
  -1 -11  -6 4893.98 422.275  17
  -1 -11  -7 83.7934 135.569   7
  -1 -11  -8 1068.67 191.265   7
  -1 -11  -9 6901.97 371.862   7
  -1 -12   8 20.4589 96.8898  11
  -1 -12   7 455.109 133.688  11
  -1 -12   6 171.378 140.655  11
  -1 -12   5 916.529 192.554  11
  -1 -12   4 273.959 166.448  17
  -1 -12   4 104.482 140.820  11
  -1 -12   3 545.919 195.718  17
  -1 -12   3 1210.85 246.675  11
  -1 -12   2 9156.17 596.146  17
  -1 -12   2 8703.01 593.143  11
  -1 -12   1 3276.86 387.876  17
  -1 -12   1 3467.03 384.870  11
  -1 -12   0-182.055 168.496  11
  -1 -12   0 174.441 195.896  17
  -1 -12  -1 395.569 234.761  17
  -1 -12  -1 446.793 187.054  11
  -1 -12  -2 22370.1 902.244  11
  -1 -12  -2 25081.7 1032.96  17
  -1 -12  -3 462.077 235.243  17
  -1 -12  -4 8785.96 588.225  17
  -1 -12  -5 1777.64 257.685   7
  -1 -12  -5 2118.00 287.002  17
  -1 -12  -6 1487.46 213.638   7
  -1 -12  -6 1305.54 180.632  17
  -1 -12  -7 1368.57 181.734   7
  -1 -13   5 1673.45 188.735  11
  -1 -13   4 461.177 128.995  11
  -1 -13   3 126.221 106.865  11
  -1 -13   3 221.522 121.502  17
  -1 -13   2 2821.29 284.112  11
  -1 -13   2 2638.68 272.352  17
  -1 -13   1 2984.03 313.913  17
  -1 -13   1 2885.98 288.770  11
  -1 -13   0 1168.34 201.195  11
  -1 -13   0 1148.12 221.780  17
  -1 -13  -1 1824.78 277.043  17
  -1 -13  -2-4.93801 133.228  17
  -1 -13  -3-57.2846 123.414   7
  -1 -13  -3-68.2100 132.858  17
  -1 -13  -4 2756.50 237.582   7
  -1 -13  -4 3171.15 263.205  17
   2 -13  -3 46.4354 78.5889  19
   2 -13  -2 1051.42 156.063  19
   2 -13  -1 217.085 107.898  19
   2 -13   0 3627.70 291.274  19
   2 -13   1 412.237 118.369  19
   2 -13   2 2506.79 233.239  19
   2 -13   3 60.8856 85.0090  19
   2 -13   4 4683.87 264.050  19
   2 -12  -6 6.63335 82.1973  19
   2 -12  -5 4708.96 341.937  19
   2 -12  -4 287.536 124.017  19
   2 -12  -3 834.182 197.113  19
   2 -12  -2 98.5675 134.300  19
   2 -12  -1 2232.64 296.658  19
   2 -12   0 213.760 143.219  19
   2 -12   1 990.274 221.052  19
   2 -12   1 1084.33 211.025  11
   2 -12   2 2027.94 267.419  11
   2 -12   2 2529.30 306.699  19
   2 -12   3 251.632 132.226  11
   2 -12   3 212.768 137.614  19
   2 -12   4 4284.19 304.134  11
   2 -12   4 4553.22 371.376  19
   2 -12   5 1853.10 228.653  19
   2 -12   6 695.821 138.630  19
   2 -12   7 998.002 137.022  19
   2 -11  -9 92.5674 76.0565  19
   2 -11  -8 164.567 106.764  19
   2 -11  -7 707.064 177.285  19
   2 -11  -6 1013.94 197.218  19
   2 -11  -5-21.3284 122.992  19
   2 -11  -4 4053.07 406.843  19
   2 -11  -3 5351.39 482.943  19
   2 -11  -2 10286.1 655.369  19
   2 -11  -1 14317.5 781.564  19
   2 -11  -1 13193.9 749.705  11
   2 -11   0 749.559 205.681  11
   2 -11   0 842.610 222.102  19
   2 -11   1 2429.96 328.150  11
   2 -11   1 3019.99 388.521  19
   2 -11   2 4084.74 421.472  19
   2 -11   2 3948.81 391.940  11
   2 -11   3 18.1347 115.278  11
   2 -11   3 330.384 181.966  19
   2 -11   4 890.966 199.324  11
   2 -11   5 247.905 114.585  11
   2 -11   5 270.475 102.555  12
   2 -11   6 369.208 128.047  12
   2 -11   7 522.621 127.934  12
   2 -11   8-168.003 91.8476  12
   2 -10 -10 7616.54 383.264  19
   2 -10  -9 105.191 106.396  19
   2 -10  -8-21.1894 126.056  19
   2 -10  -7 253.669 137.596  19
   2 -10  -6-35.1110 150.790  19
   2 -10  -5 398.027 208.900  19
   2 -10  -4 1118.53 273.854  19
   2 -10  -3 1327.96 287.347  19
   2 -10  -2 5524.36 520.792  19
   2 -10  -2 5575.73 541.427  11
   2 -10  -1 117.868 177.761  11
   2 -10  -1 228.178 147.909  19
   2 -10   0 6354.04 546.555  11
   2 -10   0 6835.66 566.886  19
   2 -10   1 2838.67 355.320  11
   2 -10   1 2861.68 377.583  19
   2 -10   2 651.317 195.635  11
   2 -10   3 27.1958 157.582  11
   2 -10   3 269.873 139.605  12
   2 -10   4 342.744 164.150  11
   2 -10   4 149.771 117.944  12
   2 -10   5 615.386 165.441  11
   2 -10   5 658.868 183.437  12
   2 -10   6 111.026 139.958  12
   2 -10   7 989.108 206.104  12
   2 -10   8 180.187 129.043  12
   2 -10   9 128.522 99.5682  12
   2 -10  10 764.989 131.528  12
   2  -9 -11 2580.05 248.986  19
   2  -9 -10 277.635 137.373  19
   2  -9  -9 11828.9 663.885  19
   2  -9  -8 2060.21 317.234  19
   2  -9  -7 22146.1 996.265  19
   2  -9  -6 4277.76 469.439  19
   2  -9  -5 20053.4 984.308  19
   2  -9  -4 1062.00 273.518  19
   2  -9  -3 16388.5 1019.49  17
   2  -9  -3 15895.4 937.742  11
   2  -9  -3 16784.6 893.009  19
   2  -9  -2 57.8565 242.931  17
   2  -9  -2 177.801 193.351  11
   2  -9  -2 276.018 178.787  19
   2  -9  -1 19976.1 982.936  11
   2  -9  -1 21342.3 977.866  19
   2  -9  -1 20833.5 1169.75  17
   2  -9   0 10862.6 711.558  11
   2  -9   0 11711.9 878.162  17
   2  -9   1 3953.44 434.001  11
   2  -9   1 4260.91 541.089  17
   2  -9   2 12252.5 587.035  12
   2  -9   2 11277.0 678.485  11
   2  -9   3 3981.17 352.584  12
   2  -9   3 4504.65 426.766  11
   2  -9   4 1334.26 253.904  11
   2  -9   4 1293.61 234.057  12
   2  -9   5 28656.0 1003.66  11
   2  -9   5 28730.2 982.513  12
   2  -9   6 6617.37 493.854  12
   2  -9   7 164.948 148.842  12
   2  -9   8 13159.6 660.953  12
   2  -9   9 2028.62 274.206  12
   2  -9  10 82.1073 122.273  12
   2  -9  11 3386.85 264.451  12
   2  -8 -12 1185.85 186.121  19
   2  -8 -11 136.636 190.514  19
   2  -8 -10 722.559 213.986  19
   2  -8  -9 592.158 218.222  19
   2  -8  -8 14523.0 818.864  19
   2  -8  -7 1280.14 339.157  19
   2  -8  -6 2600.20 369.904  19
   2  -8  -5 2502.07 369.930  19
   2  -8  -4 17436.1 896.115  19
   2  -8  -4 15306.1 963.083  17
   2  -8  -3 1672.76 343.359  11
   2  -8  -3 1305.57 293.327  19
   2  -8  -3 1473.51 348.299  17
  -2   8   3 1247.16 378.448   1
   2  -8  -2 21420.7 1001.96  11
   2  -8  -2 21298.4 1142.22  17
   2  -8  -2 22641.8 987.792  19
  -2   8   2 23134.9 1360.64   1
   2  -8  -1 410.921 206.061  11
  -2   8   1 414.444 278.205   1
   2  -8  -1 512.231 190.637  19
   2  -8  -1 178.046 235.577  17
  -2   8   0 796.764 292.011   1
   2  -8   0 666.751 206.985  11
   2  -8   0 926.981 305.400  17
   2  -8   1 7104.21 444.409  12
  -2   8  -1 7718.11 765.417   1
   2  -8   1 7095.32 656.582  17
   2  -8   1 6478.19 501.218  11
   2  -8   2 4857.30 375.844  12
  -2   8  -2 5015.05 630.614   1
   2  -8   2 4648.49 424.517  11
   2  -8   2 4347.94 483.302  17
   2  -8   3 1300.59 242.124  11
   2  -8   3 1172.87 220.270  12
  -2   8  -3 1040.82 312.874   1
   2  -8   4 21172.3 831.721  12
   2  -8   5 1479.02 267.562  12
   2  -8   6 373.108 174.387  12
   2  -8   7 11146.1 662.912  12
   2  -8   8 17002.8 813.449  12
   2  -8   9 1922.75 297.938  12
   2  -8  10 10404.6 585.542  12
   2  -8  11 6253.11 405.594  12
   2  -8  12 30.3908 94.1967  12
   2  -7 -12 1520.20 233.047  19
   2  -7 -12 861.955 137.999  14
   2  -7 -11 7792.03 424.258  14
   2  -7 -11 9740.52 632.796  19
   2  -7 -10 5045.89 489.567  19
   2  -7  -9 21111.7 995.726  19
   2  -7  -8 7792.14 622.654  19
   2  -7  -7 7219.94 593.571  19
   2  -7  -6 4123.61 468.611  19
   2  -7  -6 4020.24 574.093   4
   2  -7  -5 10726.3 897.541   4
   2  -7  -5 10399.6 678.485  19
   2  -7  -4 82.3650 144.872   4
   2  -7  -4 206.794 143.063  19
   2  -7  -4 332.527 200.549  17
   2  -7  -4 150.743 151.198  11
   2  -7  -3 66030.9 1581.12  19
   2  -7  -3 62138.9 1933.31   4
   2  -7  -3 61112.4 1612.66  11
   2  -7  -3 60475.3 1757.17  17
   2  -7  -2 13649.9 856.412   4
   2  -7  -2 14887.9 737.901  19
   2  -7  -2 13450.6 843.832  17
  -2   7   2 14845.4 1041.37   1
  -2   7   1 6107.77 658.182   1
   2  -7  -1 5467.35 548.066  17
  -2   7   0 19206.2 1138.43   1
  -2   7  -1 3915.03 509.428   1
  -2   7  -2 35570.5 1536.57   1
   2  -7   2 33634.2 944.844  12
  -2   7  -3 392.987 226.451   1
   2  -7   3 269.483 137.756  12
   2  -7   4 1611.21 248.547  12
  -2   7  -4 2080.80 416.179   1
   2  -7   5 15320.8 733.648  12
  -2   7  -5 15182.5 1032.40   1
   2  -7   6 1255.30 246.819  12
   2  -7   7 10715.2 667.834  12
   2  -7   8 30228.0 1104.57  12
   2  -7   9 1241.25 243.188  12
   2  -7  10 24214.3 941.948  12
   2  -7  11 154.943 140.318  12
   2  -7  12 233.986 120.301  12
   2  -7  13 538.593 112.298  12
   2  -6 -14 376.413 92.6906  14
   2  -6 -13 569.215 169.341  19
   2  -6 -13 264.357 103.548  14
   2  -6 -12 1318.80 211.327  14
   2  -6 -12 1395.96 301.231  19
   2  -6 -11 3355.63 333.584  14
   2  -6 -11 3561.10 472.300  19
   2  -6 -10 289.528 193.840  19
   2  -6 -10 260.356 148.311  14
   2  -6  -9 36.1157 134.037  14
   2  -6  -9 268.333 451.425  19
   2  -6  -8 3664.40 464.735  19
   2  -6  -8 2820.77 324.103  14
   2  -6  -7 13698.0 1062.73   4
   2  -6  -7 14772.4 807.718  19
   2  -6  -6 27088.5 1447.95   4
   2  -6  -6 25495.2 1038.77  19
   2  -6  -5 16729.4 1091.36   4
   2  -6  -5 17735.3 809.644  19
   2  -6  -4 18090.3 1073.21   4
   2  -6  -3 7408.67 648.493   4
   2  -6  -2 33509.5 1282.00   4
  -2   6   1 10885.1 803.128   1
   2  -6  -1 10652.8 675.726   4
  -2   6   0 7315.45 651.176   1
   2  -6   0 7112.40 525.351   4
  -2   6  -1 21658.4 1102.83   1
  -2   6  -2 479.828 187.849   1
  -2   6  -3 1391.32 318.896   1
  -2   6  -4 47078.5 1697.05   1
   2  -6   5 30.9933 131.729  12
  -2   6  -5-3.48084 145.599   1
   2  -6   6 63428.8 1506.72  12
  -2   6  -6 60499.9 1997.54   1
   2  -6   7 69865.8 1651.13  12
  -2   6  -7 68391.3 2198.43   1
   2  -6   8-155.657 177.759  12
   2  -6   9 39844.3 1262.73  12
   2  -6  10 783.456 225.512  12
   2  -6  11 3400.98 361.110  12
   2  -6  12 9431.75 487.335  12
   2  -6  13-64.0692 93.6356  12
   2  -5 -15-19.4185 60.4457  14
   2  -5 -14 3344.95 280.739  14
   2  -5 -13 8743.64 559.565  19
   2  -5 -13 8463.99 502.679  14
   2  -5 -12 11693.8 717.568  19
   2  -5 -12 12158.3 652.452  14
   2  -5 -11 5097.29 526.198  19
   2  -5 -11 4557.08 436.257  14
   2  -5 -10 6514.52 579.732  19
   2  -5 -10 6171.00 510.788  14
   2  -5  -9 1234.55 286.944  19
   2  -5  -9 1076.54 229.988  14
   2  -5  -8 1640.18 396.421   4
   2  -5  -8 2066.23 287.606  14
   2  -5  -8 1648.34 292.495  19
   2  -5  -7 5434.31 664.991   4
   2  -5  -7 5430.39 474.234  19
   2  -5  -7 5502.06 421.920  14
   2  -5  -6 349.300 210.804   4
   2  -5  -5 37136.5 1570.20   4
   2  -5  -4 16060.3 986.474   4
   2  -5  -3 15938.4 919.343   4
   2  -5  -2 1572.28 278.093   4
   2  -5  -1 104.941 98.4398   4
   2  -5   0 8867.74 562.438   4
  -2   5   0 9622.83 677.384   1
   2  -5   1 4309.58 377.316   4
  -2   5  -1 4304.09 471.665   1
  -2   5  -2 1584.04 299.530   1
  -2   5  -3 10605.4 731.178   1
  -2   5  -4 3013.71 419.390   1
  -2   5  -5 18789.6 1043.39   1
   2  -5   6 953.017 202.462  12
  -2   5  -6 928.586 267.705   1
  -2   5  -6 858.538 236.333   2
  -2   5  -7 8816.20 783.873   1
   2  -5   7 8503.16 495.186  15
   2  -5   8 2838.81 359.970  12
  -2   5  -8 2695.78 464.188   1
   2  -5   9 0.42386 164.326  12
  -2   5  -9 15.2743 93.3976   8
  -2   5 -10 15519.7 589.866   8
   2  -5  10 15941.6 769.087  12
   2  -5  10 14579.1 653.960  15
  -2   5 -11 7701.85 409.925   8
   2  -5  11 8072.71 526.919  12
   2  -5  11 7886.00 460.472  15
   2  -5  12 347.535 136.602  12
  -2   5 -12 337.529 112.221   8
   2  -5  12 150.408 105.139  15
   2  -5  13 5365.81 312.216  12
  -2   5 -13 6257.43 311.579   8
  -2   5 -14 870.951 108.808   8
   2  -4 -15 4745.67 310.844  14
   2  -4 -14 5081.64 384.640  14
   2  -4 -13 4078.02 419.112  19
   2  -4 -13 4440.70 406.519  14
   2  -4 -12 597.581 238.663  19
   2  -4 -12 692.483 214.359  14
   2  -4 -11 4355.46 435.687  14
   2  -4 -11 5053.06 527.245  19
   2  -4 -10 3440.61 453.029  19
   2  -4 -10 3664.29 407.155  14
   2  -4  -9 8401.47 812.368   4
   2  -4  -9 8398.29 623.083  19
   2  -4  -9 9282.66 609.937  14
   2  -4  -8 13427.4 999.373   4
   2  -4  -8 15689.0 799.955  19
   2  -4  -8 15450.8 749.288  14
   2  -4  -7 1538.69 359.615   4
   2  -4  -6 4533.12 572.781   4
   2  -4  -5 331.702 189.507   4
   2  -4  -4 7324.14 658.231   4
   2  -4  -3 2945.37 389.308   4
   2  -4  -2 64173.6 1600.48   4
   2  -4  -1 7092.53 524.770   4
   2  -4   0 16695.7 756.290   4
  -2   4   0 17991.4 831.797   1
  -2   4  -1 182425. 2688.78   1
   2  -4   1 182991. 2335.65   4
  -2   4  -2 28904.1 1075.81   1
  -2   4  -3 12768.8 746.636   1
  -2   4  -4 20172.7 973.227   1
  -2   4  -5 8328.86 645.199   1
  -2   4  -6 40233.8 1440.20   2
  -2   4  -6 39066.1 1469.48   1
  -2   4  -7 1023.24 272.624   2
  -2   4  -7 996.996 274.203   1
  -2   4  -8 1895.14 389.536   1
  -2   4  -8 2193.08 237.234   8
   2  -4   9 51826.6 1371.83  12
  -2   4  -9 53450.5 1110.97   8
   2  -4  10 213.646 167.647  12
  -2   4 -10 147.657 124.383   8
   2  -4  11 71.1117 117.792  12
  -2   4 -11 115.732 118.592   8
  -2   4 -12 10413.0 484.057   8
   2  -4  12 9299.68 489.438  12
  -2   4 -13 406.259 126.827   8
   2  -4  13 278.113 116.523  15
   2  -4  14 9184.43 373.992  15
  -2   4 -14 9396.28 373.514   8
  -2   4 -15 136.564 60.2686   8
   2  -3 -16 1379.40 144.535  14
   2  -3 -15 1951.62 226.388  14
   2  -3 -14 1629.15 252.698  14
   2  -3 -13 138.725 137.380  14
   2  -3 -12 152.533 172.025  19
   2  -3 -12 339.140 187.607  14
   2  -3 -11 6725.25 589.895  19
   2  -3 -11 6790.00 554.216  14
   2  -3 -10 3585.83 535.922   4
   2  -3 -10 3274.72 411.522  19
   2  -3 -10 4029.19 434.142  14
   2  -3 -10 2755.05 324.185  13
   2  -3  -9 1113.82 319.437   4
   2  -3  -9 1432.99 254.254  14
   2  -3  -9 1087.06 219.862  19
   2  -3  -9 1573.39 401.147   2
   2  -3  -8 33863.1 1519.40   4
   2  -3  -8 32697.5 1485.53   2
   2  -3  -8 34990.8 1154.36  19
   2  -3  -8 34959.4 1107.40  14
   2  -3  -7 7379.29 706.560   4
   2  -3  -7 7654.69 688.595   2
   2  -3  -6 3781.25 491.202   4
   2  -3  -5 153.393 161.689   4
   2  -3  -4 2655.29 385.077   4
   2  -3  -3 1195.78 257.499   4
   2  -3  -2 2781.16 344.046   4
   2  -3  -1 10729.4 620.181   4
   2  -3   0 65771.0 1433.52   4
  -2   3   0 64422.6 1400.19   1
  -2   3  -1 1100.83 214.251   1
   2  -3   1 1107.59 197.019   4
   2  -3   1 914.348 128.118   3
  -2   3  -2 69353.8 1496.49   1
  -2   3  -3 2610.38 327.714   1
  -2   3  -4 4762.47 449.082   1
  -2   3  -4 4532.22 375.128   2
  -2   3  -5 8919.08 632.263   1
  -2   3  -5 10275.8 646.646   2
  -2   3  -6 581.043 204.874   2
  -2   3  -6 291.900 166.685   1
  -2   3  -7 10296.2 780.235   1
  -2   3  -7 11381.2 799.670   2
  -2   3  -8 13127.2 914.634   2
  -2   3  -8 15404.5 603.314   8
  -2   3  -8 12418.4 891.669   1
   2  -3   9-40.7714 144.612  12
  -2   3  -9-73.0281 107.976   8
  -2   3 -10 38812.4 994.620   8
   2  -3  10 35514.1 1078.90  12
   2  -3  11 3811.60 352.184  12
  -2   3 -11 4300.20 347.871   8
  -2   3 -12 286.890 136.779   8
  -2   3 -13 10604.4 485.505   8
  -2   3 -14 3939.64 267.872   8
  -2   3 -15 584.351 100.090   8
   2  -3  15 476.955 96.3923  15
   2  -2 -16 1191.41 152.965  14
   2  -2 -15 235.772 128.824  14
   2  -2 -14 8233.03 529.341  14
   2  -2 -13 3240.30 378.164  14
   2  -2 -12 3966.52 461.924  19
   2  -2 -12 4296.33 451.206  14
   2  -2 -11-134.505 141.166  14
   2  -2 -11 51.4960 175.455  19
   2  -2 -10 1570.85 357.591   4
   2  -2 -10 1661.53 302.995  19
   2  -2 -10 1915.52 428.447   2
   2  -2 -10 1682.30 290.443  14
   2  -2  -9 269.995 188.244   4
   2  -2  -9 207.868 160.272   2
   2  -2  -9-38.4268 164.502  19
   2  -2  -9-129.474 160.514  14
   2  -2  -8 249.224 150.034   4
   2  -2  -8 313.088 199.734   2
   2  -2  -7 35557.4 1430.52   4
   2  -2  -7 35613.6 1391.95   2
   2  -2  -6 40857.2 1470.73   4
   2  -2  -6 38148.5 1296.58   2
   2  -2  -5 14733.2 848.643   4
   2  -2  -5 13192.0 697.103   2
   2  -2  -4 34752.0 1227.57   4
   2  -2  -4 37150.9 1069.58   2
   2  -2  -3 994.285 227.063   4
   2  -2  -2 4064.61 394.650   4
   2  -2  -1 65044.5 1442.01   4
   2  -2  -1 64607.3 851.916   3
   2  -2   0 115260. 1881.23   4
   2  -2   0 113954. 1342.75   3
  -2   2   0 119316. 1688.23   1
   2  -2   1 998.517 192.594   4
  -2   2  -1 842.049 165.829   1
   2  -2   1 905.947 155.625   3
  -2   2  -2 3731.52 324.008   1
  -2   2  -2 3981.93 250.970   2
  -2   2  -3 14006.6 652.023   1
  -2   2  -3 14944.0 574.678   2
  -2   2  -4 60910.7 1440.77   1
  -2   2  -4 66621.4 1368.61   2
  -2   2  -5 5252.12 476.746   1
  -2   2  -5 5809.26 466.463   2
  -2   2  -6 601.752 189.184   1
  -2   2  -6 900.720 220.723   2
  -2   2  -7 3352.29 432.638   2
  -2   2  -7 3368.74 447.875   1
  -2   2  -8 4757.77 356.819   8
  -2   2  -8 3721.18 491.653   2
  -2   2  -9 7241.18 461.149   8
  -2   2  -9 7364.30 563.098  10
  -2   2 -10 1275.17 219.075   8
  -2   2 -10 966.731 261.790  10
  -2   2 -11 2861.39 307.773   8
  -2   2 -12 128.301 111.833   8
  -2   2 -13 470.938 139.963   8
  -2   2 -14 1545.70 189.803   8
   2  -2  15 2373.26 210.991  15
  -2   2 -15 2475.03 192.893   8
   2  -1 -16 2021.23 191.950  14
   2  -1 -15 2363.45 259.997  14
   2  -1 -14 5341.87 433.407  14
   2  -1 -13 16571.8 820.090  14
   2  -1 -13 14787.7 558.418   8
   2  -1 -12 444.951 144.523   8
   2  -1 -12 301.869 172.986  14
   2  -1 -11 176.361 104.722   8
   2  -1 -11 244.646 207.850  19
   2  -1 -11 150.478 136.622  14
   2  -1 -10 9580.02 759.580   4
   2  -1 -10 10342.1 912.270   2
   2  -1 -10 10029.6 681.723  19
   2  -1 -10 11338.0 677.972  14
   2  -1 -10 9846.43 459.186   8
   2  -1  -9 2850.14 420.717   4
   2  -1  -9 3407.72 522.849   2
   2  -1  -9 2871.86 363.815  19
   2  -1  -9 3350.46 365.338  14
   2  -1  -8 3325.10 439.689   4
   2  -1  -8 3859.37 499.974   2
   2  -1  -7 3577.12 434.206   4
   2  -1  -7 3132.20 404.929   2
   2  -1  -6 14213.3 812.346   4
   2  -1  -6 13553.0 751.647   2
   2  -1  -5 96612.2 2005.33   4
   2  -1  -5 97887.6 1761.66   2
   2  -1  -4 16430.1 800.637   4
   2  -1  -4 17680.7 668.058   2
   2  -1  -3 73319.8 1585.02   4
   2  -1  -3 83661.1 1200.13   2
   2  -1  -2 6623.24 471.610   4
   2  -1  -1 18586.5 752.568   4
   2  -1  -1 16204.6 573.507   3
  -2   1   0 4067.25 274.497   1
   2  -1   0 4031.21 353.018   4
   2  -1   0 3892.71 298.278   3
  -2   1  -1 762.221 151.849   1
   2  -1   1 440.590 128.425   3
  -2   1  -2 39256.3 621.062   2
  -2   1  -2 39526.4 938.920   1
  -2   1  -3 3951.61 270.175   2
  -2   1  -3 3718.27 320.102   1
  -2   1  -4 15820.9 704.982   1
  -2   1  -4 16724.3 652.220   2
  -2   1  -5 9405.35 567.453   2
  -2   1  -5 8732.51 594.132   1
  -2   1  -6 120.931 173.751   2
  -2   1  -6 55.8590 99.9087   1
  -2   1  -7 3570.95 457.519   2
  -2   1  -8 21162.2 724.660   8
  -2   1  -8 20422.4 1120.64   2
  -2   1  -9 5203.92 618.435   2
  -2   1  -9 4463.98 465.442  10
  -2   1  -9 4154.10 362.357   8
  -2   1 -10 33480.8 957.040   8
  -2   1 -10 28995.6 1186.64  10
  -2   1 -11 5227.49 395.386   8
  -2   1 -11 4806.09 520.717  10
  -2   1 -12 3502.61 329.786   8
  -2   1 -12 2928.37 420.012  10
  -2   1 -13 7643.35 449.864   8
  -2   1 -14 329.385 113.788   8
  -2   1 -15 85.0437 81.8197   8
  -2   0  16-122.144 117.332  11
   2   0 -16-61.6072 73.0206  14
   2   0 -15 742.060 159.426  14
   2   0 -14 4493.32 393.827  14
   2   0 -14 4353.68 302.575   8
   2   0 -13 747.836 161.221   8
   2   0 -13 728.988 214.379  14
   2   0 -12 11559.2 694.359  14
   2   0 -12 10695.6 517.120   8
   2   0 -11 641.710 157.400   8
   2   0 -11 485.660 175.425  14
   2   0 -10 192.011 121.613   8
   2   0 -10 413.590 219.393  19
   2   0 -10 127.430 193.568   2
   2   0 -10 401.347 166.262  14
   2   0  -9 416.735 169.603   4
   2   0  -9 329.463 198.900   2
   2   0  -9 560.607 202.394  19
   2   0  -9 414.328 133.110  14
   2   0  -8 14464.2 823.090   4
   2   0  -8 16092.6 981.676   2
   2   0  -7 269.455 144.803   4
   2   0  -7 220.146 120.699   2
   2   0  -6 24719.4 993.425   2
   2   0  -6 23832.8 986.646   4
   2   0  -5 7069.43 525.402   4
   2   0  -5 7971.64 453.600   6
   2   0  -5 7282.74 479.619   2
   2   0  -4 54819.0 1377.04   4
   2   0  -4 55206.8 1131.56   2
   2   0  -4 54615.2 1099.30   6
   2   0  -3 9400.21 568.296   4
   2   0  -3 10163.9 388.832   2
   2   0  -3 9621.59 428.186   6
   2   0  -2 46922.2 1197.48   4
   2   0  -2 46089.2 557.509   2
   2   0  -2 49704.0 810.374   6
   2   0  -2 47637.4 1127.56   3
   2   0  -1 11669.2 599.546   4
   2   0  -1 12330.0 370.272   6
  -2   0   1 12436.6 392.870   1
   2   0  -1 11937.1 560.636   3
  -2   0   0 11037.0 370.277   1
   2   0   0 10649.4 543.158   3
  -2   0  -1 7037.08 323.217   1
   2   0   1 6945.08 460.804   3
   2   0   2 26526.6 954.439   3
  -2   0  -2 24239.8 510.670   2
  -2   0  -2 25787.2 680.830   1
  -2   0  -3 25861.9 775.499   1
  -2   0  -3 24147.3 658.072   2
   2   0   3 25421.9 1008.04   3
  -2   0  -4 1751.29 221.840   2
  -2   0  -4 1388.51 225.032   1
  -2   0  -5 26525.2 935.276   2
  -2   0  -5 26570.2 977.274   1
  -2   0  -6 104431. 2092.11   2
  -2   0  -7 10692.2 754.429   2
  -2   0  -8 1322.65 203.793   8
  -2   0  -8 1048.65 318.172   2
  -2   0  -9 5379.23 414.954   8
  -2   0  -9 5113.75 624.284   2
  -2   0  -9 5682.70 549.642  10
  -2   0 -10 813.480 206.663   8
  -2   0 -10 715.197 271.075  10
  -2   0 -11 16659.4 686.919   8
  -2   0 -11 15015.4 898.116  10
  -2   0 -12 15078.8 646.463   8
  -2   0 -12 13497.1 856.285  10
  -2   0 -13-17.7789 105.649   8
  -2   0 -13 68.7926 193.387  10
  -2   0 -14 376.948 123.394   8
  -2   0 -15 175.683 82.0830   8
  -2  -1  16 1949.46 224.242  11
   2   1 -15 68.2814 96.2214  14
   2   1 -14 15.9272 102.933  14
   2   1 -14 324.411 129.887   8
   2   1 -13 5595.44 379.945   8
   2   1 -13 5535.22 450.468  14
   2   1 -12 101.544 124.002   8
   2   1 -12 68.8815 126.248  14
   2   1 -11 71826.2 1621.25  14
   2   1 -11 69511.7 1347.95   8
   2   1 -10 31485.7 1529.01   2
   2   1 -10 34842.3 1095.71  14
   2   1 -10 33645.2 908.021   8
   2   1  -9 10142.7 832.830   2
   2   1  -9 10345.3 567.120  14
   2   1  -9 10544.7 494.071   8
   2   1  -8 17771.6 1019.39   2
   2   1  -7 8714.74 662.401   2
   2   1  -7 8047.94 557.170   4
   2   1  -6 5171.42 465.718   2
   2   1  -6 5107.36 442.393   4
   2   1  -6 5412.04 430.374   6
   2   1  -5 10578.0 620.099   4
   2   1  -5 11023.4 584.762   6
   2   1  -5 10247.9 584.248   2
   2   1  -4 5796.70 451.029   4
   2   1  -4 5455.14 388.348   6
   2   1  -4 5382.29 373.494   2
   2   1  -3 133323. 1672.17   6
   2   1  -3 134279. 1522.42   2
   2   1  -2 55613.6 1010.00   6
   2   1  -2 58281.7 1411.78   3
   2   1  -2 56008.7 783.915   2
   2   1  -1 362.010 159.776   3
  -2  -1   1 378.098 50.4373   1
   2   1  -1 499.573 116.215   6
   2   1   0 14496.9 697.002   3
  -2  -1   0 13184.0 273.740   1
  -2  -1  -1 52855.5 704.561   1
   2   1   1 52284.1 1343.85   3
   2   1   2 16234.3 821.668   3
  -2  -1  -2 15657.3 475.832   1
   2   1   3 3275.28 398.319   3
  -2  -1  -3 3188.10 275.075   2
   2   1   4 3368.00 427.433   3
  -2  -1  -4 2871.28 305.008   2
   2   1   5 60920.1 1806.56   3
  -2  -1  -5 60747.0 1481.88   2
  -2  -1  -6 8696.93 629.419   2
  -2  -1  -7 1405.87 303.169   2
  -2  -1  -8 191.966 127.570   8
  -2  -1  -8-154.318 160.753   2
  -2  -1  -9 8875.92 504.426   8
  -2  -1  -9 8252.66 789.437   2
  -2  -1  -9 8402.31 656.291  10
  -2  -1 -10 3562.27 336.266   8
  -2  -1 -10 3973.46 516.642  10
  -2  -1 -11 81.4853 108.609   8
  -2  -1 -11 104.611 237.388  10
  -2  -1 -12 109.720 120.929   8
  -2  -1 -12-103.764 207.913  10
  -2  -1 -13 3585.14 439.174  10
  -2  -1 -13 3972.58 319.607   8
  -2  -1 -14 1267.32 169.474   8
  -2  -1 -15 73.8727 67.5985   8
  -2  -1 -15-38.0139 80.4463  14
  -2  -2  16 118.452 95.1754  11
  -2  -2  15 2905.09 327.256  11
   2   2 -14 50.3199 95.2264  14
   2   2 -14 113.770 127.612   8
   2   2 -13 55.0474 123.801   8
   2   2 -13-76.5167 110.511  14
   2   2 -12 19324.0 796.537  14
   2   2 -12 19389.0 736.421   8
   2   2 -11 15978.1 725.613  14
   2   2 -11 15650.5 656.835   8
   2   2 -10 5412.35 634.193   2
   2   2 -10 5632.91 384.662   9
   2   2 -10 5779.65 435.144  14
   2   2 -10 6082.21 409.996   8
   2   2  -9 4921.44 579.196   2
   2   2  -9 4974.56 378.538  14
   2   2  -9 5322.20 359.620   8
   2   2  -8 6665.92 624.809   2
   2   2  -7 445.913 189.233   2
   2   2  -7 240.373 169.907   6
   2   2  -6 1349.04 262.777   2
   2   2  -6 1418.12 241.216   4
   2   2  -6 1645.56 277.578   6
   2   2  -5 2611.93 306.751   4
   2   2  -5 2334.09 313.669   6
   2   2  -5 2257.10 286.161   2
   2   2  -4 996.920 206.799   4
   2   2  -4 957.516 236.125   6
   2   2  -3 4938.00 375.835   6
   2   2  -2-1.42559 115.554   6
   2   2  -2 146.981 145.045   3
   2   2  -1 4992.67 337.544   6
   2   2  -1 5178.11 480.552   3
   2   2   0 7704.96 571.926   3
   2   2   1 45535.0 1381.33   3
   2   2   2 22.3408 174.458   3
   2   2   3 78835.2 2008.32   3
   2   2   4 283.144 180.830   3
   2   2   5 20608.1 1104.22   3
  -2  -2  -5 20162.0 917.292   2
  -2  -2  -6 664.816 216.889   2
   2   2   6 618.784 253.181   3
  -2  -2  -7 7664.41 679.183   2
   2   2   7 7218.86 735.355   3
   2   2   8 8550.55 839.602   3
  -2  -2  -8 9054.63 638.183  10
  -2  -2  -8 8712.63 780.684   2
  -2  -2  -8 9301.54 477.945   8
  -2  -2  -9 32381.2 1196.72   7
   2   2   9 31733.8 1693.56   3
  -2  -2  -9 29929.0 907.680   8
  -2  -2  -9 31468.4 1236.72  10
  -2  -2  -9 29197.5 1502.22   2
  -2  -2 -10 2465.08 289.333   8
  -2  -2 -10 2247.01 408.334  10
  -2  -2 -11 12443.7 602.708   8
  -2  -2 -11 12319.5 850.791  10
  -2  -2 -12 533.636 152.130   8
  -2  -2 -12 836.422 307.121  10
  -2  -2 -13 1876.70 354.785  10
  -2  -2 -13 2444.81 241.340   8
  -2  -2 -14-60.2899 79.2720   8
  -2  -2 -14-269.745 202.291  10
  -2  -2 -15 7330.40 357.914  14
  -2  -2 -15 11048.6 322.301   8
  -2  -3  16 3747.77 264.846  11
  -2  -3  15 263.099 140.369  11
  -2  -3  14 1295.00 264.171  11
   2   3 -13 443.147 158.979   8
  -2  -3  13 547.684 224.406  11
   2   3 -12 10323.5 546.677   8
   2   3 -11 8097.08 474.085   9
   2   3 -11 7802.74 479.082   8
   2   3 -10 3800.65 567.614   2
   2   3 -10 4459.07 358.783   8
   2   3  -9 12878.7 958.346   2
   2   3  -9 12276.8 573.696   8
   2   3  -8 87699.5 1433.75   8
   2   3  -8 85972.9 2265.67   2
   2   3  -7-34.3430 174.567   2
   2   3  -7-39.5546 159.766   6
   2   3  -6 12543.4 773.563   6
   2   3  -6 11208.4 707.871   2
   2   3  -5 6556.95 558.082   6
   2   3  -4 31105.1 1049.24   6
   2   3  -3 15443.8 693.969   6
   2   3  -2 71.0583 142.740   6
   2   3  -2 163.851 179.493   3
   2   3  -1 6176.82 571.341   3
   2   3  -1 5763.01 401.335   6
   2   3   0 14498.1 841.904   3
   2   3   1 20678.4 1018.56   3
   2   3   2 39780.6 1445.14   3
   2   3   3 44725.3 1605.54   3
   2   3   4 194408. 3469.19   3
   2   3   5 9807.91 816.840   3
   2   3   6 3798.43 536.121   3
   2   3   7 12440.8 998.419   3
  -2  -3  -8 1742.62 308.794   7
   2   3   8 2047.80 456.336   3
  -2  -3  -8 1508.28 218.635   8
  -2  -3  -8 1455.72 334.947  10
  -2  -3  -9 2288.27 277.807   8
  -2  -3  -9 2324.41 375.182  10
  -2  -3  -9 2535.74 381.319   7
   2   3   9 2470.94 557.789   3
  -2  -3 -10 4868.43 402.461   8
  -2  -3 -10 5465.27 537.554   7
  -2  -3 -10 6039.98 604.247  10
  -2  -3 -11 932.634 182.841   8
  -2  -3 -11 851.035 310.973  10
  -2  -3 -12 9853.67 462.819   8
  -2  -3 -12 8226.26 686.018  10
  -2  -3 -13 3571.08 267.258   8
  -2  -3 -13 3315.33 436.278  10
  -2  -3 -14 249.544 77.8621   8
  -2  -3 -14-72.6771 158.851  10
  -2  -3 -15 126.618 72.1811  14
  -2  -4  15 130.460 113.097  11
  -2  -4  14 173.931 135.801  11
  -2  -4  13 430.304 198.731  11
  -2  -4  12 15782.3 909.242  11
   2   4 -12 14788.9 646.099   8
   2   4 -12 15296.6 631.010   9
   2   4 -11 148.499 122.208   8
   2   4 -11 236.312 122.467   9
   2   4 -10 12962.5 598.347   8
   2   4  -9 13361.4 588.961   8
   2   4  -9 13941.4 1007.66   2
   2   4  -8 1998.16 393.105   6
   2   4  -8 1374.15 298.570   2
   2   4  -8 1849.12 229.238   8
   2   4  -7 21089.9 1135.38   6
   2   4  -7 21451.5 1117.66   2
   2   4  -6 710.391 292.529   6
   2   4  -5 46740.0 1483.43   6
   2   4  -4 28869.1 1097.27   6
   2   4  -3 680.816 223.284   6
   2   4  -2 10609.7 606.368   6
   2   4  -2 10490.5 813.449   3
   2   4  -1 2013.85 375.819   3
   2   4  -1 2336.34 287.598   6
   2   4   0 387.987 198.055   3
   2   4   1 57188.1 1821.78   3
   2   4   2 570.550 268.291   3
   2   4   3 7555.98 724.177   3
   2   4   4 15517.8 1050.26   3
   2   4   5 62444.7 2196.07   3
   2   4   6 14204.7 1077.44   3
  -2  -4  -7 28749.0 1045.82   7
   2   4   7 28661.5 1560.31   3
  -2  -4  -7 30717.9 1120.27  10
  -2  -4  -8 30196.0 841.145   8
  -2  -4  -8 31861.8 1168.17   7
   2   4   8 31896.0 1736.07   3
  -2  -4  -8 30227.2 1219.46  10
  -2  -4  -9 37213.1 954.792   8
  -2  -4  -9 35615.8 1286.83   7
  -2  -4  -9 38271.7 1383.48  10
  -2  -4 -10-51.5941 99.2365   8
  -2  -4 -10-64.1437 172.934   7
  -2  -4 -10 173.416 226.855  10
  -2  -4 -11 3486.29 306.171   8
  -2  -4 -11 3917.94 513.767  10
  -2  -4 -12 1002.13 151.699   8
  -2  -4 -12 988.871 292.155  10
  -2  -4 -13 7082.99 308.174   8
  -2  -4 -13 7927.72 583.118  10
  -2  -4 -14 940.694 198.344  10
  -2  -5  15-14.3254 86.6424  11
  -2  -5  14-9.92194 114.614  11
  -2  -5  13 1888.64 305.971  11
   2   5 -13 1435.99 177.608   9
  -2  -5  12 143.495 180.446  11
   2   5 -12 335.341 140.500   9
  -2  -5  11 1416.41 318.918  11
  -2  -5  10 3437.04 450.260  11
   2   5 -10 3509.07 311.434   8
  -2  -5   9 62.3110 156.989  11
   2   5  -9 216.453 140.689   8
  -2  -5   8 1004.56 255.914  11
   2   5  -8 579.957 167.385   2
   2   5  -8 1086.06 189.202   8
   2   5  -7 1551.36 401.967   6
  -2  -5   7 1704.88 311.560  11
   2   5  -6 12337.9 893.063   6
   2   5  -5 530.215 251.648   6
   2   5  -4 18548.7 963.058   6
   2   5  -3 24225.7 1052.68   6
   2   5  -2 45523.7 1366.88   6
   2   5  -2 46870.4 1821.50   3
   2   5  -1 3453.45 507.606   3
   2   5  -1 3063.69 361.436   6
   2   5   0 1839.36 391.900   3
   2   5   1 2585.17 433.770   3
   2   5   2 23456.3 1272.92   3
   2   5   3 3.98005 162.081   3
   2   5   4 9146.42 855.959   3
   2   5   5 19743.0 1286.66   3
  -2  -5  -6 29455.7 1060.61   7
   2   5   6 30231.9 1625.56   3
  -2  -5  -6 31184.0 1112.18  10
   2   5   7 997.095 373.033   3
  -2  -5  -7 1121.39 259.220   7
  -2  -5  -7 1085.42 275.658  10
  -2  -5  -8-0.51072 191.955  10
  -2  -5  -8-163.306 195.644   7
  -2  -5  -9 2077.67 371.790  10
  -2  -5  -9 2157.60 365.847   7
  -2  -5 -10 11463.5 729.991   7
  -2  -5 -10 11811.2 801.423  10
  -2  -5 -11 1960.10 366.052  10
  -2  -5 -12 1682.31 328.166  10
  -2  -5 -13 2112.24 303.236  10
  -2  -5 -14-29.7087 114.987  10
  -2  -6  14 660.969 155.170  11
  -2  -6  13-58.7588 123.845  11
   2   6 -13-29.1008 74.9576   9
  -2  -6  12 2586.76 359.558  11
   2   6 -12 2210.94 254.417   9
  -2  -6  11 3906.66 452.312  11
  -2  -6  10 838.451 259.545  11
  -2  -6   9 2600.72 393.895  11
  -2  -6   8 3380.22 412.203  11
  -2  -6   7 35330.6 1218.28  11
  -2  -6   6 125.184 123.761  11
   2   6  -6 185.707 273.181   6
   2   6  -5 10494.8 828.431   6
   2   6  -4 30093.7 1335.16   6
   2   6  -3 9062.12 710.490   6
   2   6  -2 10703.6 745.808   6
   2   6  -1 29102.5 1166.33   6
   2   6  -1 30402.8 1543.29   3
   2   6   0 23142.1 1029.57   6
   2   6   0 23010.7 1337.52   3
   2   6   1 12376.1 983.656   3
   2   6   2 5432.57 658.981   3
   2   6   3 12756.4 1052.29   3
  -2  -6  -4 406.084 201.246  10
   2   6   4 301.817 216.377   3
  -2  -6  -5-5.37482 164.158  10
   2   6   5-6.14359 180.548   3
  -2  -6  -6 48204.3 1436.84  10
   2   6   6 49162.1 2137.94   3
  -2  -6  -7 48217.1 1446.48   7
  -2  -6  -7 50703.7 1517.72  10
  -2  -6  -8 44782.5 1415.28   7
  -2  -6  -8 46036.8 1505.68  10
  -2  -6  -9 24011.6 1031.06   7
  -2  -6  -9 25622.2 1122.22  10
  -2  -6 -10 10511.5 687.253   7
  -2  -6 -10 12120.3 785.741  10
  -2  -6 -11 6417.95 511.083   7
  -2  -6 -11 6475.06 558.056  10
  -2  -6 -12 644.866 227.483  10
  -2  -6 -13 610.689 174.462  10
  -2  -7  14-40.9178 78.6169  11
  -2  -7  13 113.050 112.996  11
   2   7 -13 28.3216 79.9332   9
  -2  -7  12 17.8525 141.061  11
   2   7 -12 159.658 106.362   9
  -2  -7  11 2063.47 319.080  11
  -2  -7  10 587.356 206.116  11
  -2  -7   9 3135.33 410.251  11
  -2  -7   8 23450.7 1034.48  11
   2   7  -8 24268.5 1315.26   6
  -2  -7   7 12566.8 743.973  11
   2   7  -7 12069.5 975.227   6
  -2  -7   6 2018.68 314.876  11
   2   7  -6 2011.54 467.205   6
  -2  -7   5 15844.0 785.206  11
   2   7  -5 17323.5 1129.13   6
  -2  -7   4 8743.23 578.762  11
   2   7  -4 9395.63 828.081   6
  -2  -7   3 662.024 185.907  11
   2   7  -3 587.744 281.530   6
   2   7  -2 31.9295 189.791   6
   2   7  -1 4189.72 511.191   6
   2   7   0 3026.43 428.670   6
   2   7   0 4228.71 621.821   3
   2   7   1 19001.5 1009.98   6
  -2  -7  -1 18457.1 831.055  10
   2   7   1 19434.0 1296.31   3
  -2  -7  -2 5641.04 491.488  10
   2   7   2 5481.55 708.860   3
  -2  -7  -3 2467.57 343.458  10
   2   7   3 1962.34 458.883   3
  -2  -7  -4 624.544 234.492  10
   2   7   4 251.121 229.157   3
  -2  -7  -5 19846.1 933.102  10
   2   7   5 19269.3 1332.91   3
  -2  -7  -6 61.5685 177.074  10
  -2  -7  -7 17372.6 899.345   7
  -2  -7  -7 17444.5 896.188  10
  -2  -7  -8 2346.41 375.338   7
  -2  -7  -8 2942.53 421.673  10
  -2  -7  -8 3218.50 304.433   5
  -2  -7  -9 7735.16 603.163   7
  -2  -7  -9 7844.51 611.794  10
  -2  -7 -10 1558.53 355.821   7
  -2  -7 -10 1576.24 320.728  10
  -2  -7 -11 354.518 183.516   7
  -2  -7 -11-26.5575 148.577  10
  -2  -7 -12 337.310 163.827  10
  -2  -7 -13 65.4766 83.7112  10
  -2  -8  13-20.2876 77.7850  11
   2   8 -13 3.87839 59.5002   9
  -2  -8  12 323.943 142.797  11
   2   8 -12-4.10235 94.4844   9
  -2  -8  11 648.465 186.366  11
  -2  -8  10 748.598 215.920  11
  -2  -8   9 36.4783 137.499  11
  -2  -8   8 516.072 185.778  11
  -2  -8   7 3654.71 432.354  11
   2   8  -7 3678.16 547.656   6
  -2  -8   6 17004.4 857.708  11
   2   8  -6 17389.8 1160.69   6
   2   8  -5 434.057 265.873   6
  -2  -8   5 524.979 215.127  11
   2   8  -4 4681.10 626.686   6
  -2  -8   4 4852.83 456.646  11
  -2  -8   3 351.205 187.974  11
   2   8  -3 135.608 283.760   6
  -2  -8   2 10359.1 628.928  11
   2   8  -2 11456.0 869.914   6
  -2  -8   1 3255.39 356.034  11
   2   8  -1 3141.76 487.579   6
   2   8   0 99.3648 209.948   6
  -2  -8   0 252.756 164.778  10
  -2  -8  -1 3060.91 385.246  10
   2   8   1 3469.09 502.171   6
   2   8   1 3697.87 607.948   3
  -2  -8  -2 21329.2 960.331  10
   2   8   2 21551.0 1157.18   6
   2   8   2 21006.5 1379.26   3
  -2  -8  -3 1074.72 269.598  10
   2   8   3 867.098 305.220   6
  -2  -8  -4 7902.56 606.261  10
  -2  -8  -5 657.967 243.265  10
  -2  -8  -5 506.659 125.535   5
  -2  -8  -6 33408.0 1202.39  10
  -2  -8  -6 33086.8 1258.31   7
  -2  -8  -6 35216.1 867.770   5
  -2  -8  -7 308.969 221.421   7
  -2  -8  -7 334.505 217.061  10
  -2  -8  -7 494.144 132.698   5
  -2  -8  -8 1084.19 254.634   7
  -2  -8  -8 992.180 251.666  10
  -2  -8  -9 20.1248 185.426  10
  -2  -8  -9 42.1442 160.336   7
  -2  -8 -10 5164.50 415.066   7
  -2  -8 -10 4518.32 411.026  10
  -2  -8 -11 17.5530 127.713  10
  -2  -8 -12 79.2366 83.5900  10
  -2  -9  12 1049.38 154.857  11
   2   9 -12 900.156 117.066   9
  -2  -9  11 327.181 133.123  11
   2   9 -11 466.748 126.982   9
  -2  -9  10 3527.36 344.139  11
  -2  -9   9 16002.3 772.769  11
  -2  -9   8 2579.28 342.019  11
  -2  -9   7 10999.6 698.316  11
   2   9  -6 3170.97 521.625   6
  -2  -9   6 2917.15 371.657  11
  -2  -9   5 1403.92 298.023  11
   2   9  -5 1828.55 417.499   6
  -2  -9   4 380.555 189.115  11
   2   9  -4 443.393 342.888   6
  -2  -9   3 267.268 167.654  11
   2   9  -3 186.491 230.904   6
  -2  -9   2 8517.27 592.098  11
   2   9  -2 8794.81 798.083   6
  -2  -9   1 358.567 165.937  11
  -2  -9   1 680.295 229.908  10
   2   9  -1 376.153 263.201   6
  -2  -9   0 7194.98 542.319  11
  -2  -9   0 7473.26 588.387  10
   2   9   0 7085.55 698.481   6
   2   9   1-205.887 208.042   6
  -2  -9  -1-64.2688 172.405  10
  -2  -9  -2 1306.17 282.910  10
   2   9   2 1437.33 344.224   6
   2   9   3 26372.2 1271.98   6
  -2  -9  -3 26027.3 1059.16  10
   2   9   4 22956.0 1163.72   6
  -2  -9  -4 22535.0 978.262  10
  -2  -9  -5 7244.78 560.215  10
   2   9   5 7149.82 648.661   6
  -2  -9  -6 8131.86 617.676   7
  -2  -9  -6 7133.07 552.743  10
  -2  -9  -7 4321.50 441.938   7
  -2  -9  -7 4149.71 416.123  10
  -2  -9  -8 4141.57 403.429   7
  -2  -9  -8 4127.94 392.425  10
  -2  -9  -9 372.046 164.208   7
  -2  -9  -9 68.7862 125.815  10
  -2  -9 -10 886.177 184.543   7
  -2  -9 -10 542.412 156.458  10
   2  10 -11 398.077 90.3074   9
  -2 -10  10 3067.52 273.971  11
   2  10 -10 2647.77 229.557   9
  -2 -10   9 13.0707 100.001  11
  -2 -10   8 1970.28 280.646  11
  -2 -10   7 82.8403 146.844  11
  -2 -10   6 5925.71 494.476  11
  -2 -10   5 5468.90 488.709  11
  -2 -10   4 4131.42 429.510  11
  -2 -10   3 516.088 182.548  11
   2  10  -3 103.234 239.024   6
  -2 -10   2 718.965 208.260  11
  -2 -10   2 294.042 180.930  10
   2  10  -2 935.123 315.656   6
  -2 -10   1 7413.66 545.932  11
  -2 -10   1 7147.32 563.593  10
   2  10  -1 7596.76 712.100   6
  -2 -10   0 1919.53 285.726  11
  -2 -10   0 1944.49 323.447  10
   2  10   0 1875.95 377.765   6
  -2 -10  -1 314.267 190.057  10
   2  10   1-114.442 179.350   6
  -2 -10  -2-101.191 160.416  10
  -2 -10  -3 1745.48 299.640  10
  -2 -10  -4 3809.90 399.279  10
  -2 -10  -5 640.690 207.901  10
  -2 -10  -6-186.550 188.967   7
  -2 -10  -6 195.738 161.191  17
  -2 -10  -6 119.303 147.361  10
  -2 -10  -7-36.6753 143.497   7
  -2 -10  -7 8.79741 134.781  10
  -2 -10  -8 84.9825 112.430   7
  -2 -10  -8 194.665 135.200  10
  -2 -10  -9 247.899 130.892   7
  -2 -10  -9 15.8234 94.3245  10
  -2 -11   9 669.128 122.711  11
   2  11  -9 460.391 96.6536   9
  -2 -11   8 1314.68 183.843  11
  -2 -11   8 1259.01 177.711  10
   2  11  -8 1079.76 146.450   9
  -2 -11   7 3205.93 295.076  11
  -2 -11   7 2864.70 274.381  10
  -2 -11   6 1813.25 253.415  11
  -2 -11   6 1587.90 223.125  10
  -2 -11   5 437.305 176.610  11
  -2 -11   5 400.570 168.220  10
  -2 -11   4 1463.40 246.322  11
  -2 -11   4 1179.95 235.409  10
  -2 -11   3 387.364 157.416  11
  -2 -11   3 651.942 200.286  10
  -2 -11   2 6734.00 500.574  10
  -2 -11   2 6988.74 494.977  11
  -2 -11   1 276.448 176.746  11
  -2 -11   1-20.7014 147.460  10
  -2 -11   0 2047.81 279.147  11
  -2 -11   0 2019.01 301.170  10
  -2 -11  -1 2830.80 332.828  10
  -2 -11  -2 173.382 143.698  10
  -2 -11  -3 2323.47 292.654  10
  -2 -11  -4 138.810 129.925  10
  -2 -11  -5 2474.40 297.772   7
  -2 -11  -5 2277.29 254.233  10
  -2 -11  -5 2382.87 288.939  17
  -2 -11  -6 7724.16 455.147   7
  -2 -11  -6 6659.77 376.164  10
  -2 -11  -7 3143.09 271.198   7
  -2 -12   6 1727.09 177.958  11
  -2 -12   5 1344.62 178.496  11
  -2 -12   5 1323.84 164.874  10
  -2 -12   4 152.109 97.6762  11
  -2 -12   4-53.9284 102.559  10
  -2 -12   4 69.5016 108.431  17
  -2 -12   3 7163.13 415.976  11
  -2 -12   3 6988.03 443.011  17
  -2 -12   3 6527.34 371.854  10
  -2 -12   2 9.32932 99.6205  11
  -2 -12   2-10.3047 129.614  10
  -2 -12   2 218.174 153.583  17
  -2 -12   1 97.2702 108.646  10
  -2 -12   0 1517.37 192.890  10
  -2 -12  -1 1999.71 212.005  10
  -2 -12  -1 2666.90 340.140  17
  -2 -12  -2 5307.69 432.542  17
  -2 -12  -2 4847.73 309.412  10
  -2 -12  -3 865.890 198.819  17
  -2 -12  -4 489.337 137.380   7
  -2 -12  -4 705.095 174.425  17
  -2 -12  -5-25.0559 85.6785   7
  -2 -13   1 2141.01 217.856  17
  -2 -13   0 492.590 134.000  17
  -2 -13  -1 2062.81 220.583  17
   3 -12  -5 1269.17 174.414  18
   3 -12  -5 1239.50 148.911  19
   3 -12  -4 3335.09 250.034  19
   3 -12  -3 95.0750 86.7435  19
   3 -12  -2 995.046 170.416  19
   3 -12  -1-40.0437 97.1100  19
   3 -12   0 403.243 137.148  19
   3 -12   1 665.871 143.261  19
   3 -12   2 4767.16 314.614  19
   3 -12   3-65.1134 85.5542  19
   3 -11  -7 2711.27 232.513  19
   3 -11  -7 2187.18 203.482  18
   3 -11  -6-73.6161 102.431  19
   3 -11  -5 2374.53 263.167  19
   3 -11  -4 783.476 180.494  19
   3 -11  -3 3479.08 336.607  19
   3 -11  -2 6512.99 462.466  19
   3 -11  -1 699.724 187.878  19
   3 -11   0 3611.10 348.280  19
   3 -11   1 972.298 210.301  19
   3 -11   2 9125.27 524.843  19
   3 -11   3 2745.36 287.961  19
   3 -11   4 3589.49 247.580  12
   3 -11   4 3873.23 321.422  19
   3 -11   5 2633.75 206.617  12
   3 -11   5 2805.93 258.429  19
   3 -11   6 2377.29 181.427  12
   3 -11   6 2316.33 202.446  19
   3 -10  -9 14404.3 525.955  19
   3 -10  -9 12284.3 461.375  13
   3 -10  -8 692.434 156.564  19
   3 -10  -8-95.4166 167.140  18
   3 -10  -7 2458.17 285.997  19
   3 -10  -6 174.935 147.290  19
   3 -10  -5 910.683 214.602  19
   3 -10  -4 380.629 193.575  19
   3 -10  -3 2081.36 313.963  19
   3 -10  -2 55.4758 175.187  19
   3 -10  -1 22081.4 920.733  19
   3 -10   0 4142.99 411.065  19
   3 -10   1 596.671 156.643  12
   3 -10   1 278.375 179.615  19
   3 -10   2 1540.81 229.187  12
   3 -10   2 1425.19 253.635  19
   3 -10   3 1516.61 222.634  12
   3 -10   3 1690.65 255.626  19
   3 -10   4 34.2439 111.103  12
   3 -10   4-13.1971 125.301  19
   3 -10   5 2140.28 254.903  12
   3 -10   5 2132.40 266.637  19
   3 -10   6 267.350 133.717  12
   3 -10   6 308.665 139.122  19
   3 -10   7-59.0593 106.280  12
   3 -10   7 230.453 96.8068  19
   3 -10   8 87.6253 97.5667  12
   3 -10   9 4616.77 242.434  12
   3  -9 -11 215.435 83.2032  19
   3  -9 -10 474.682 130.708  19
   3  -9 -10 154.645 118.003  13
   3  -9  -9 3264.13 323.013  19
   3  -9  -8 13457.9 684.034  19
   3  -9  -7 4.37021 137.748  19
   3  -9  -6-26.5155 146.507  19
   3  -9  -5 6423.55 542.167  19
   3  -9  -4 7406.73 593.012  19
   3  -9  -3 5883.93 526.389  19
   3  -9  -2 12214.5 738.972  19
   3  -9  -1 919.878 238.185  19
   3  -9   0 13727.8 608.283  12
   3  -9   0 14059.8 769.169  19
   3  -9   1 3557.95 326.419  12
   3  -9   1 3530.37 391.451  19
   3  -9   2 2337.61 279.442  12
   3  -9   2 2301.32 314.107  19
   3  -9   3 8074.20 505.557  12
   3  -9   4 251.375 153.262  12
   3  -9   5 4515.47 392.496  12
   3  -9   6 3212.53 339.648  12
   3  -9   7 168.324 146.726  12
   3  -9   8 410.600 161.692  12
   3  -9   9 627.980 143.013  12
   3  -9  10 182.531 100.325  12
   3  -8 -12 734.571 122.691  19
   3  -8 -11 3187.62 292.283  19
   3  -8 -11 2733.64 220.898  13
   3  -8 -10 2195.55 280.473  19
   3  -8 -10 2076.37 262.534  13
   3  -8  -9 10851.0 647.586  19
   3  -8  -8 6992.96 550.083  19
   3  -8  -7 979.984 245.408  19
   3  -8  -6 2677.94 370.611  19
   3  -8  -5 331.846 186.811  19
   3  -8  -4 5314.84 515.366  19
   3  -8  -3 21330.6 999.322  19
   3  -8  -2 50.1157 173.738  19
   3  -8  -1 4479.04 377.218  12
   3  -8  -1 4979.81 477.828  19
   3  -8   0 468.233 161.332  12
   3  -8   0 327.706 169.331  19
   3  -8   1 286.198 168.636  12
   3  -8   1 136.229 133.360  19
   3  -8   1 365.070 142.227  15
   3  -8   2-71.6658 145.788  12
   3  -8   2 149.570 132.924  15
   3  -8   3 372.816 170.506  12
   3  -8   3 328.348 120.055  15
   3  -8   4-22.0955 167.541  12
   3  -8   5 198.854 173.544  12
   3  -8   6-166.127 179.302  12
   3  -8   7 527.631 208.562  12
   3  -8   8 305.233 179.357  12
   3  -8   9 2972.37 299.347  12
   3  -8  10 5712.24 368.699  12
   3  -8  11 1529.14 166.962  12
   3  -7 -12 1612.14 213.940  19
   3  -7 -11 4647.88 402.635  19
   3  -7 -11 4409.96 318.678  13
   3  -7 -10 76.2057 130.073  19
   3  -7  -9 455.883 190.744  19
   3  -7  -8 12872.3 764.310  19
   3  -7  -7 8677.48 637.428  19
   3  -7  -6 43813.8 1415.77  19
   3  -7  -5 104568. 2150.38  19
   3  -7  -4 12787.7 774.176  19
   3  -7  -4 14331.0 695.784   9
   3  -7  -3 1671.76 300.371  19
   3  -7  -3 1563.94 268.816   9
  -3   7   3 1390.80 388.888   1
   3  -7  -2 16236.2 696.610  12
  -3   7   2 16145.1 1136.80   1
   3  -7  -2 17321.5 825.149   9
   3  -7  -2 15825.8 820.565  19
   3  -7  -1 695.264 190.255  12
  -3   7   1 727.411 273.598   1
   3  -7  -1 861.616 178.915  15
   3  -7  -1 719.921 218.101  19
   3  -7   0 7728.33 512.686  12
  -3   7   0 7319.55 764.585   1
   3  -7   0 7981.80 571.668  19
   3  -7   0 8507.77 453.812  15
   3  -7   1 5556.57 456.033  12
  -3   7  -1 6243.37 683.462   1
   3  -7   1 5922.86 408.103  15
   3  -7   2 2628.42 337.901  12
   3  -7   2 2957.79 295.580  15
  -3   7  -2 2533.01 453.190   1
   3  -7   3 26820.9 997.940  12
   3  -7   3 31758.5 935.656  15
   3  -7   4 1204.80 279.802  12
   3  -7   4 1495.32 242.460  15
   3  -7   5 6524.30 516.651  12
   3  -7   5 7872.02 493.632  15
   3  -7   6 3564.31 402.570  12
   3  -7   6 4213.92 356.546  15
   3  -7   7 25059.3 996.195  12
   3  -7   7 25623.0 822.782  15
   3  -7   8 2954.58 358.044  12
   3  -7   8 2840.05 269.222  15
   3  -7   9 7817.93 516.544  12
   3  -7  10 2849.23 289.076  12
   3  -7  11 3701.24 272.020  12
   3  -6 -13 2595.08 192.471  14
   3  -6 -12 349.330 156.455  19
   3  -6 -12 72.3044 74.8857  14
   3  -6 -11 382.482 165.002  19
   3  -6 -11 259.833 108.104  14
   3  -6 -10-85.9683 150.397  19
   3  -6 -10 68.1294 100.111  14
   3  -6  -9 5025.12 484.980  19
   3  -6  -9 4717.71 403.578  14
   3  -6  -8 2670.49 366.119  19
   3  -6  -7 22265.6 997.381  19
   3  -6  -6 30.9797 160.448  19
   3  -6  -5 38008.8 1782.63   4
   3  -6  -5 36843.7 1232.58  19
   3  -6  -5 39943.7 1120.95   9
   3  -6  -4 4948.74 374.316  12
   3  -6  -4 4446.57 602.606   4
   3  -6  -4 4883.61 462.379  19
   3  -6  -4 5461.05 445.922   9
   3  -6  -3 879.536 174.603  12
   3  -6  -3 1079.41 308.363   4
   3  -6  -3 869.969 224.257  19
   3  -6  -3 1121.35 232.045   9
  -3   6   3 817.565 287.212   1
   3  -6  -2 8981.63 510.454  12
   3  -6  -2 7456.40 678.754   4
   3  -6  -2 8201.40 545.016  19
   3  -6  -2 9203.31 605.023   9
   3  -6  -2 8961.37 464.647  15
  -3   6   2 8329.04 757.398   1
   3  -6  -1 21901.0 802.128  12
  -3   6   1 20233.0 1154.21   1
   3  -6  -1 20253.2 844.395  19
   3  -6  -1 21408.6 697.530  15
   3  -6  -1 22724.2 936.196   9
   3  -6   0 3837.94 371.358  12
  -3   6   0 2976.34 461.722   1
   3  -6   0 3365.65 355.562  19
   3  -6   0 3223.56 378.373   9
   3  -6   0 3210.25 300.586  15
   3  -6   1 7387.87 492.038  12
  -3   6  -1 6725.28 663.213   1
   3  -6   1 7487.69 555.775   9
   3  -6   1 7608.49 448.548  15
   3  -6   2 928.023 224.202  12
   3  -6   2 565.304 147.820  15
  -3   6  -2 843.238 286.645   1
   3  -6   3 2265.47 311.112  12
   3  -6   3 2525.19 296.023  15
  -3   6  -3 2097.21 407.409   1
   3  -6   4 1453.25 266.918  12
  -3   6  -4 1363.53 367.573   1
   3  -6   4 1952.59 285.628  15
   3  -6   5 4655.29 439.869  12
   3  -6   5 5734.93 449.221  15
   3  -6   6 4511.20 453.633  12
   3  -6   6 4483.70 415.036  15
   3  -6   7 2353.69 323.435  12
   3  -6   7 2494.83 310.932  15
   3  -6   8 3968.22 417.655  12
   3  -6   8 3813.35 367.159  15
   3  -6   9 506.311 195.906  12
   3  -6   9 606.872 168.873  15
   3  -6  10 2285.31 284.691  12
   3  -6  10 2704.63 265.781  15
   3  -6  11 154.267 116.658  12
   3  -6  11 5.94697 94.2308  15
   3  -6  12-122.857 83.6914  12
   3  -5 -14 655.002 118.186  14
   3  -5 -13 1324.16 183.244  14
   3  -5 -12 1172.31 237.294  19
   3  -5 -12 879.820 169.799  14
   3  -5 -12 459.625 118.709  13
   3  -5 -11 3566.68 396.623  19
   3  -5 -11 3795.04 363.580  14
   3  -5 -11 3317.03 319.191  13
   3  -5 -10 3355.48 408.963  19
   3  -5 -10 2803.96 337.639  14
   3  -5 -10 3429.10 411.646  13
   3  -5  -9 3578.37 427.085  19
   3  -5  -9 3534.56 387.355  14
   3  -5  -8 19.9204 180.248  19
   3  -5  -8 111.543 145.779  14
   3  -5  -7 60614.9 1589.59  19
   3  -5  -7 59988.0 1436.54  14
   3  -5  -6 1080.52 343.762   4
   3  -5  -6 664.311 203.004  19
   3  -5  -6 840.229 183.636  14
   3  -5  -5 53180.8 2110.71   4
   3  -5  -5 52433.8 1408.23  19
   3  -5  -5 55038.6 1282.40   9
   3  -5  -5 56681.8 1125.96  12
   3  -5  -4 23846.6 768.103  12
   3  -5  -4 22576.1 1299.79   4
   3  -5  -4 23185.4 889.176  19
   3  -5  -4 24436.7 864.346   9
   3  -5  -3 43921.1 1177.23   9
   3  -5  -3 44978.2 957.520  15
   3  -5  -2 25704.1 1220.90   4
  -3   5   2 26564.1 1235.15   1
   3  -5  -1 997.551 254.189   4
  -3   5   1 1047.17 271.160   1
   3  -5   0 2276.25 347.372   4
  -3   5   0 1927.49 346.925   1
  -3   5  -1 20503.2 1068.02   1
   3  -5   2 1000.26 221.124  12
  -3   5  -2 852.723 282.071   1
   3  -5   2 1291.76 231.599  15
   3  -5   2 787.010 219.735   9
   3  -5   3 647.999 173.582  12
  -3   5  -3 631.427 236.008   1
   3  -5   3 798.271 211.686  15
   3  -5   4 4213.47 404.337  12
  -3   5  -4 3596.70 488.451   1
   3  -5   4 3852.74 364.885  15
   3  -5   5 5979.25 472.228  12
   3  -5   5 6467.53 469.581  15
  -3   5  -5 5935.04 649.649   1
   3  -5   6 3004.55 385.183  12
  -3   5  -6 1841.18 397.618   1
   3  -5   6 2548.31 335.419  15
   3  -5   7 24207.5 981.318  12
   3  -5   7 22703.5 898.046  15
   3  -5   8 355.434 188.493  12
   3  -5   8-194.949 159.484  15
   3  -5   9 66626.8 1572.82  12
   3  -5   9 68306.4 1495.36  15
   3  -5  10 2466.57 292.027  15
   3  -5  10 2360.06 298.436  12
   3  -5  11 3369.31 283.836  12
   3  -5  11 3534.84 314.719  15
   3  -5  12 747.119 120.224  12
   3  -5  12 779.631 152.435  15
   3  -4 -14 377.500 115.918  14
   3  -4 -13 130.630 116.149  14
   3  -4 -12 4686.76 432.040  19
   3  -4 -12 5295.14 431.131  14
   3  -4 -12 3875.63 282.536  13
   3  -4 -11 31.7446 160.288  19
   3  -4 -11 193.807 153.452  14
   3  -4 -11-121.749 170.835  13
   3  -4 -10 4312.24 459.075  19
   3  -4 -10 4375.18 430.780  14
   3  -4 -10 3964.27 425.513  13
   3  -4  -9 3950.66 454.572  19
   3  -4  -9 4461.88 436.365  14
   3  -4  -8 46228.5 2017.02   4
   3  -4  -8 43921.0 1382.53  19
   3  -4  -8 43938.4 1304.98  14
   3  -4  -7 6877.36 801.829   4
   3  -4  -7 6367.26 527.382  19
   3  -4  -7 6260.31 486.110  14
   3  -4  -7 6842.42 352.857  12
   3  -4  -6 19698.3 1316.10   4
   3  -4  -6 19640.4 852.619  19
   3  -4  -6 19681.6 764.452   9
   3  -4  -6 17561.1 754.124  14
   3  -4  -6 19719.1 635.386  12
   3  -4  -5 804.325 321.401   4
   3  -4  -4 57603.3 2021.25   4
   3  -4  -3 6496.96 658.176   4
   3  -4  -2 3374.54 442.703   4
  -3   4   2 3283.35 406.028   1
   3  -4  -1 20999.3 1040.01   4
  -3   4   1 21039.5 995.945   1
   3  -4   0 8444.28 668.515   4
  -3   4   0 9025.09 654.245   1
  -3   4  -1 47.6148 116.703   1
  -3   4  -2 1983.14 345.701   1
  -3   4  -3 21430.4 1077.91   1
   3  -4   4 36771.6 1068.96  12
  -3   4  -4 33534.5 1380.39   1
   3  -4   4 35465.6 985.928  15
   3  -4   5 3731.31 372.825  12
   3  -4   5 3173.85 319.653  15
  -3   4  -5 2934.17 432.613   1
   3  -4   6 16326.0 761.567  12
  -3   4  -6 15796.8 1005.47   1
   3  -4   6 14519.2 705.852  15
   3  -4   7 8551.31 580.961  12
   3  -4   7 7171.91 517.342  15
   3  -4   8 505.006 185.317  12
  -3   4  -8 606.862 160.808   8
   3  -4   8 333.630 147.816  15
   3  -4   9 114.367 185.954  12
  -3   4  -9 167.995 117.153   8
   3  -4   9 38.3944 165.240  15
   3  -4  10 3324.94 339.980  12
  -3   4 -10 3227.71 279.789   8
   3  -4  10 2782.02 343.730  15
  -3   4 -11 5506.31 339.348   8
   3  -4  11 5046.28 340.709  12
   3  -4  11 6183.35 447.716  15
  -3   4 -12 9913.99 397.614   8
   3  -4  12 11141.9 531.202  15
   3  -4  13 2064.78 195.145  15
  -3   4 -13 1632.21 143.286   8
   3  -3 -15 1273.23 157.777  14
   3  -3 -14 1231.92 194.477  14
   3  -3 -13 6172.74 462.736  14
   3  -3 -12 22502.9 940.925  19
   3  -3 -12 24319.0 954.065  14
   3  -3 -11 376.931 216.396  19
   3  -3 -11 345.533 156.442  14
   3  -3 -11 118.182 151.191  13
   3  -3 -10 6973.36 590.840  19
   3  -3 -10 7136.72 558.592  14
   3  -3 -10 7071.18 526.833  13
   3  -3  -9 1362.23 295.505  19
   3  -3  -9 1859.00 314.243  14
   3  -3  -9 1543.63 307.260  13
   3  -3  -8 1341.53 340.798   4
   3  -3  -8 1402.44 280.577  19
   3  -3  -8 1605.35 272.695  14
   3  -3  -7 24986.5 965.108  14
   3  -3  -7 26024.0 1472.98   4
   3  -3  -7 27117.8 881.183   9
   3  -3  -7 24026.2 674.769  12
   3  -3  -7 24905.7 983.743  19
   3  -3  -6 12688.8 1022.75   4
   3  -3  -6 12524.2 637.675  14
   3  -3  -5 196.925 167.941   4
   3  -3  -4 37699.7 1589.66   4
   3  -3  -3 150.840 154.214   4
   3  -3  -2 2138.37 357.134   4
  -3   3   2 2097.11 294.920   1
   3  -3  -1 245.494 152.554   4
  -3   3   1 394.215 161.192   1
   3  -3   0 19839.1 988.336   4
  -3   3   0 19471.0 881.029   1
  -3   3  -1 29497.4 1098.42   1
  -3   3  -2 376.424 162.367   1
  -3   3  -3 478.504 194.807   1
  -3   3  -4 2142.64 345.104   1
   3  -3   5 1372.65 225.959  12
  -3   3  -5 920.509 251.140   1
   3  -3   5 1331.16 216.940  15
   3  -3   6 5534.32 423.720  12
  -3   3  -6 5004.07 358.725   8
  -3   3  -6 4528.37 532.053   1
   3  -3   7 3435.59 365.656  12
  -3   3  -7 2743.09 293.002   8
  -3   3  -7 2334.39 430.139   1
   3  -3   8 8668.39 556.052  12
  -3   3  -8 7835.56 480.504   8
   3  -3   9 1640.81 256.949  12
  -3   3  -9 1448.75 222.289   8
  -3   3 -10 2938.54 298.707   8
  -3   3 -11 7835.23 427.717   8
   3  -3  11 7857.21 540.648  15
  -3   3 -12 5376.38 332.509   8
   3  -3  12 5892.93 422.088  15
  -3   3 -13-139.740 75.6642   8
   3  -3  13-66.3472 122.043  15
  -3   3 -14-43.7514 51.7440   8
   3  -3  14-21.0815 66.6133  15
   3  -2 -15 67.6894 86.2265  14
   3  -2 -14 385.151 134.510  14
   3  -2 -13 2450.77 313.397  14
   3  -2 -12 1836.13 285.430  14
   3  -2 -12 8720.74 370.650  13
   3  -2 -11 12102.1 747.021  19
   3  -2 -11 14634.6 785.261  14
   3  -2 -10 3575.90 433.147  19
   3  -2 -10 3958.13 429.036  14
   3  -2 -10 3489.32 361.628  13
   3  -2  -9 3545.34 523.484   4
   3  -2  -9 3587.18 423.886  19
   3  -2  -9 3984.07 437.906  14
   3  -2  -9 3516.53 398.048  13
   3  -2  -8 15935.3 1101.61   4
   3  -2  -8 16693.2 825.857  19
   3  -2  -8 17216.1 696.529   9
   3  -2  -8 15855.3 813.831  14
   3  -2  -8 17201.7 847.663  13
   3  -2  -7 124.937 171.338   4
   3  -2  -7 166.607 124.718  19
   3  -2  -7 102.868 106.701   9
   3  -2  -7 93.6080 130.950  14
   3  -2  -6 1806.08 375.895   4
   3  -2  -5 44294.4 1717.10   4
   3  -2  -4 748.187 249.559   4
   3  -2  -3 63015.8 1853.90   4
   3  -2  -2 1568.57 300.686   4
  -3   2   2 1599.97 235.476   1
   3  -2  -1 4055.69 468.231   4
  -3   2   1 4097.46 371.746   1
  -3   2   0 30246.3 1003.33   1
  -3   2  -1 1662.51 252.708   1
   3  -2   2 18022.6 838.655   3
  -3   2  -2 19211.7 846.222   1
   3  -2   3 4662.32 473.029   3
  -3   2  -3 4076.05 412.794   1
   3  -2   4 6229.05 580.013   3
  -3   2  -4 6380.41 536.828   1
  -3   2  -5 75394.2 1931.18   1
   3  -2   5 72090.4 2084.00   3
  -3   2  -6 96.4987 99.1093   8
   3  -2   6 290.827 202.914   3
  -3   2  -6 294.254 165.115   1
   3  -2   7 412.649 168.707  12
  -3   2  -7 268.784 143.148   8
   3  -2   7 359.350 255.072   3
  -3   2  -7 369.334 203.824   1
  -3   2  -8 3331.09 329.965   8
   3  -2   8 3420.00 586.881   3
  -3   2  -9 1527.03 245.777   8
  -3   2 -10 1322.77 226.894   8
  -3   2 -11 2774.64 310.214   8
  -3   2 -12 1153.38 180.444   8
  -3   2 -13 21972.1 608.117   8
   3  -2  13 21574.4 719.225  15
  -3   2 -14 54.3441 67.1297   8
   3  -2  14 68.4949 77.3146  15
   3  -1 -15 1535.14 189.321  14
   3  -1 -14 7780.06 479.934  14
   3  -1 -13 3629.67 383.372  14
   3  -1 -12 8733.01 596.952  14
   3  -1 -11 1577.07 288.763  14
   3  -1 -11 7354.43 422.079  13
   3  -1 -10 942.003 252.223  19
   3  -1 -10 1130.24 255.589  14
   3  -1 -10 696.389 188.529  13
   3  -1  -9 34736.3 1511.45   4
   3  -1  -9 37919.0 1029.78   9
   3  -1  -9 34749.4 1195.37  19
   3  -1  -9 36863.8 1259.67  14
   3  -1  -8 3789.73 523.558   4
   3  -1  -8 3994.04 404.765  19
   3  -1  -8 4338.51 358.587   9
   3  -1  -8 4022.63 419.191  14
   3  -1  -8 3491.18 353.747  13
   3  -1  -7 27353.0 1335.35   4
   3  -1  -7 29695.3 887.983   9
   3  -1  -7 31288.7 1079.30  14
   3  -1  -7 28444.6 987.885  13
   3  -1  -6 38.0908 151.909   4
   3  -1  -5 2720.19 425.605   4
   3  -1  -4 29854.1 1282.88   4
   3  -1  -3 136.899 108.715   4
   3  -1  -2 89363.0 2115.79   4
  -3   1   2 92305.0 1508.54   1
  -3   1   1 26662.8 811.194   1
   3  -1  -1 25877.5 935.178   3
  -3   1   0 775.128 151.951   1
   3  -1   0 820.518 202.495   3
  -3   1  -1 16595.3 679.032   1
   3  -1   1 15135.9 785.131   3
   3  -1   2 5329.71 500.316   3
  -3   1  -2 5594.42 419.451   1
   3  -1   3 3290.63 434.067   3
  -3   1  -3 3859.12 372.913   1
   3  -1   4 1122.47 280.513   3
  -3   1  -4 1171.11 232.783   1
  -3   1  -5 193.207 122.665   1
   3  -1   5 263.152 194.321   3
   3  -1   6 7252.14 748.698   3
  -3   1  -6 7372.74 616.531   1
  -3   1  -7 6632.56 444.657   8
   3  -1   7 6229.57 742.026   3
   3  -1   8 515.425 293.852   3
  -3   1  -8 515.364 185.581   8
  -3   1  -9 7853.10 510.513   8
  -3   1 -10 1862.37 270.938   8
  -3   1 -11 4309.30 375.026   8
  -3   1 -12 331.231 126.842   8
  -3   1 -13 468.352 118.307   8
  -3   1 -14 3256.22 208.319   8
   3  -1  14 3040.15 228.454  15
  -3   0  15 49.0379 88.3747  11
   3   0 -15 86.3365 90.9314  14
   3   0 -14 15432.0 665.555  14
   3   0 -13 1958.67 287.013  14
   3   0 -12 272.626 157.518  14
   3   0 -11 654.583 208.073  14
   3   0 -10 18784.9 707.009   9
   3   0 -10 17590.3 857.716  14
   3   0 -10 17083.6 607.803  13
   3   0  -9-60.2287 142.020  19
   3   0  -9 184.312 135.372   9
   3   0  -9 106.046 127.804  14
   3   0  -9 496.783 211.042  13
   3   0  -8 50327.9 1700.94   4
   3   0  -8 51555.2 1324.62  19
   3   0  -8 54051.7 1219.34   9
   3   0  -8 53795.2 1446.22  14
   3   0  -7 183.839 128.526   4
   3   0  -7 62.5617 103.437  14
   3   0  -7 105.403 104.967   9
   3   0  -7-108.122 183.906  13
   3   0  -6 7849.64 677.578   4
   3   0  -5 915.314 260.595   4
   3   0  -4 10926.6 761.889   4
   3   0  -3 8658.21 686.982   4
   3   0  -2 90936.9 1965.28   3
   3   0  -1 16132.8 829.531   3
   3   0   0 58158.2 1577.59   3
   3   0   1 13917.9 811.644   3
   3   0   2 14863.1 891.727   3
   3   0   3 3237.38 476.389   3
   3   0   4 3039.48 477.336   3
   3   0   5 1034.50 320.652   3
   3   0   6 1254.89 374.522   3
   3   0   7 7830.72 846.395   3
  -3   0  -8 5063.62 411.811   8
   3   0   8 5349.07 780.080   3
  -3   0  -8 5680.24 524.371  10
  -3   0  -9 444.051 163.570   8
  -3   0  -9 363.831 246.513  10
  -3   0 -10 2976.22 327.072   8
  -3   0 -10 3270.88 430.788  10
  -3   0 -11 4675.64 387.510   8
  -3   0 -11 5365.35 508.271  10
  -3   0 -12 1185.66 207.457   8
  -3   0 -12 726.103 206.365  10
  -3   0 -13 142.062 103.838   8
  -3   0 -14 21.6254 68.4763   8
   3   0  14 23.7651 82.1982  15
  -3  -1  15 3962.56 302.522  11
   3   1 -15 4600.73 282.340  14
   3   1 -14 2865.65 286.493  14
   3   1 -13 1651.94 254.069  14
   3   1 -12 14051.7 725.762  14
   3   1 -11 276.078 133.715   9
   3   1 -11-143.847 140.787  14
   3   1 -10 3485.63 326.569   9
   3   1 -10 3086.81 377.160  14
   3   1  -9 15727.0 677.237   9
   3   1  -9 15457.7 777.441  14
   3   1  -9 15056.2 557.405  13
   3   1  -8 440.659 145.819  14
   3   1  -8 508.365 160.184   9
   3   1  -7 19945.8 1020.24   4
   3   1  -7 19402.3 731.917   9
   3   1  -7 18841.0 812.148  14
   3   1  -6 1948.75 336.340   4
   3   1  -6 2071.74 307.616   6
   3   1  -5 677.178 204.803   4
   3   1  -5 616.245 181.783   6
   3   1  -4 160889. 2281.17   6
   3   1  -3 16135.3 687.469   6
   3   1  -2 1735.67 235.125   6
   3   1  -2 1828.40 344.614   3
   3   1  -1 18841.3 670.035   6
   3   1  -1 17251.8 932.482   3
   3   1   0 16173.9 605.803   6
   3   1   0 15320.0 879.053   3
   3   1   1 2901.52 404.809   3
   3   1   2 13667.4 908.139   3
   3   1   3 29702.0 1428.33   3
   3   1   4-65.2127 168.760   3
   3   1   5 380.307 227.026   3
   3   1   6 9602.08 901.397   3
  -3  -1  -7 41.9458 157.107  10
   3   1   7 52.1518 191.115   3
  -3  -1  -8 4498.29 397.319   8
   3   1   8 4844.70 715.107   3
  -3  -1  -8 5414.00 524.651  10
  -3  -1  -9 55829.8 1323.90   8
  -3  -1  -9 54575.0 1643.22  10
  -3  -1 -10 66.5823 143.701   8
  -3  -1 -10-32.5722 199.410  10
  -3  -1 -11 4422.11 375.074   8
  -3  -1 -11 4073.50 457.435  10
  -3  -1 -12 5988.34 385.853   8
  -3  -1 -12 5457.85 471.751  10
  -3  -1 -13 2983.87 232.221   8
  -3  -1 -14 212.019 71.5862   8
   3   1  14 185.605 81.4863  15
  -3  -2  15 262.866 106.501  11
  -3  -2  14 2448.54 299.481  11
   3   2 -14 2643.76 247.139  14
  -3  -2  13 4320.15 415.447  11
   3   2 -13 4523.82 372.440  14
   3   2 -12 1608.70 215.904   9
   3   2 -12 1903.68 271.903  14
   3   2 -11 29581.1 901.752   9
   3   2 -11 30287.4 1041.84  14
   3   2 -10 1332.88 254.519  14
   3   2 -10 1516.68 249.721   9
   3   2  -9 16660.8 715.346   9
   3   2  -9 16518.6 782.888  14
   3   2  -8 60203.1 1332.43   9
   3   2  -8 55008.6 1400.12  14
   3   2  -7 2980.67 391.345   6
   3   2  -7 2985.47 336.949  14
   3   2  -7 3445.68 327.434   9
   3   2  -6 2405.91 369.374   6
   3   2  -5 52071.8 1499.26   6
   3   2  -4 175.272 141.336   6
   3   2  -3 3277.76 354.157   6
   3   2  -2 6623.52 643.547   3
   3   2  -2 7000.35 477.643   6
   3   2  -1 14588.0 654.697   6
   3   2  -1 13726.7 901.581   3
   3   2   0 56633.5 1247.97   6
   3   2   0 55829.6 1793.70   3
   3   2   1 10651.7 815.680   3
   3   2   2 10368.2 850.377   3
   3   2   3 1700.09 373.294   3
   3   2   4 3478.03 542.958   3
   3   2   5 6042.35 729.093   3
   3   2   6 163.960 276.406   3
  -3  -2  -6 133.648 185.377  10
   3   2   7 315.454 268.671   3
  -3  -2  -7 806.867 264.181  10
  -3  -2  -8 2193.02 287.365   8
  -3  -2  -8 2817.86 400.001  10
  -3  -2  -9 202.314 159.909   8
  -3  -2  -9 363.670 249.238  10
  -3  -2 -10 626.974 187.862   8
  -3  -2 -10 780.559 300.593  10
  -3  -2 -11 145.254 137.583   8
  -3  -2 -11 173.362 208.231  10
  -3  -2 -12 25.8921 96.8209   8
  -3  -2 -12-28.1629 157.938  10
  -3  -2 -13 93.5165 82.2928   8
  -3  -2 -13 291.682 132.033  10
  -3  -2 -14 62.9482 49.4543   8
   3   2  14 9.01907 67.0516  15
  -3  -3  15 460.626 105.702  11
  -3  -3  14-198.646 133.771  11
  -3  -3  13 561.609 182.157  11
  -3  -3  12 23777.9 976.966  11
   3   3 -12 22671.7 745.997   9
   3   3 -12 24918.3 852.594  14
  -3  -3  11 341.361 194.457  11
   3   3 -11 503.751 160.871  14
   3   3 -11 489.628 164.283   9
   3   3 -10 19968.5 797.836   9
   3   3 -10 19889.4 826.281  14
   3   3  -9 45248.9 1213.94   9
   3   3  -9 43842.2 1242.24  14
   3   3  -8 439.145 142.339  14
   3   3  -8 656.886 178.265   9
   3   3  -7-153.988 138.595  14
   3   3  -7-106.435 140.430   9
   3   3  -7 25.8595 198.220   6
   3   3  -6 9363.07 737.975   6
   3   3  -6 10573.8 573.535   9
   3   3  -5 204.733 173.405   6
   3   3  -4 35421.3 1287.40   6
   3   3  -3 2978.58 369.193   6
   3   3  -2 35134.7 1147.27   6
   3   3  -2 35833.4 1575.93   3
   3   3  -1 48196.9 1279.59   6
   3   3  -1 50357.7 1839.32   3
   3   3   0 2136.75 288.294   6
   3   3   0 2258.60 416.171   3
   3   3   1 48140.2 1848.52   3
   3   3   2 2374.25 455.420   3
   3   3   3 796.657 330.035   3
   3   3   4 23627.2 1415.99   3
   3   3   5 14327.9 1135.40   3
  -3  -3  -5 15266.3 752.880  10
   3   3   6 13738.0 1123.34   3
  -3  -3  -6 16325.7 818.097  10
  -3  -3  -7 247.913 215.512  10
   3   3   7-456.579 324.322   3
  -3  -3  -8 519.903 170.197   8
  -3  -3  -8 1027.58 292.899  10
  -3  -3  -9 2030.48 275.858   8
  -3  -3  -9 2420.68 375.112  10
  -3  -3 -10 805.301 191.023   8
  -3  -3 -10 369.140 221.346  10
  -3  -3 -11 16478.5 618.836   8
  -3  -3 -11 15586.8 862.586  10
  -3  -3 -12 5915.74 332.435   8
  -3  -3 -12 5536.93 475.722  10
  -3  -3 -13 540.038 98.4665   8
  -3  -3 -13 493.728 151.008  10
  -3  -4  14 1027.86 170.536  11
  -3  -4  13 1898.62 257.657  11
   3   4 -13 2221.66 214.235   9
  -3  -4  12 4589.10 414.189  11
   3   4 -12 4276.25 336.969   9
  -3  -4  11 222.605 137.064  11
   3   4 -11 111.433 125.991   9
  -3  -4  10 6792.87 541.040  11
   3   4 -10 7017.50 506.245   9
  -3  -4   9 30.6584 131.450  11
   3   4  -9 136.290 160.444   9
  -3  -4   8 36863.0 1203.68  11
   3   4  -8 38102.1 1161.48   9
   3   4  -7 504.074 301.922   6
   3   4  -7 237.785 155.195   9
   3   4  -6 38559.4 1546.50   6
   3   4  -6 38134.8 1128.29   9
   3   4  -5 8466.94 704.917   6
   3   4  -5 8801.80 531.667   9
   3   4  -4 1310.84 295.879   6
   3   4  -3 10156.8 696.042   6
   3   4  -2 5859.35 517.330   6
   3   4  -2 6493.72 734.430   3
   3   4  -1 2319.44 324.045   6
   3   4  -1 2643.02 460.643   3
   3   4   0 50.0628 121.583   6
   3   4   0 139.926 195.355   3
   3   4   1 109.295 206.438   3
   3   4   2 1835.61 432.765   3
   3   4   3 1660.58 423.089   3
  -3  -4  -4 3934.67 409.682  10
   3   4   4 3627.31 610.517   3
  -3  -4  -5 10812.2 668.887  10
   3   4   5 10242.1 989.238   3
  -3  -4  -6 8629.29 643.734  10
   3   4   6 8654.17 924.944   3
  -3  -4  -7 184.162 197.387  10
  -3  -4  -8 1933.76 260.603   8
  -3  -4  -8 2455.45 412.858  10
  -3  -4  -9 642.782 170.565   8
  -3  -4  -9 771.780 264.984  10
  -3  -4 -10 288.963 126.423   8
  -3  -4 -10 200.066 215.602  10
  -3  -4 -11 835.517 147.179   8
  -3  -4 -11 599.139 218.669  10
  -3  -4 -12-46.2555 57.7084   8
  -3  -4 -12 108.590 160.985  10
  -3  -4 -13 275.719 128.810  10
  -3  -5  14 927.273 130.481  11
  -3  -5  13 361.474 129.682  11
   3   5 -13 405.748 106.041   9
  -3  -5  12 380.818 156.917  11
   3   5 -12 372.358 120.965   9
  -3  -5  11 1255.70 241.613  11
   3   5 -11 979.095 196.704   9
  -3  -5  10 3457.86 383.883  11
   3   5 -10 3622.81 371.414   9
  -3  -5   9 3879.12 403.604  11
   3   5  -9 3841.25 388.542   9
  -3  -5   8 662.735 234.755  11
   3   5  -8 754.290 320.722   6
   3   5  -8 957.517 240.036   9
   3   5  -7 89054.3 2462.14   6
   3   5  -7 87647.6 1774.58   9
   3   5  -6 10117.1 871.364   6
   3   5  -5 9280.65 792.054   6
   3   5  -4 9658.13 768.129   6
   3   5  -3 2110.15 382.031   6
   3   5  -3 2531.78 290.245   9
   3   5  -2 9351.83 699.160   6
   3   5  -2 10053.3 961.384   3
   3   5  -1 47.2040 166.313   6
   3   5  -1 180.596 190.582   3
   3   5   0 92.7758 163.957   6
   3   5   0-216.224 219.683   3
   3   5   1 31181.9 1237.57   6
  -3  -5  -1 29975.7 1037.00  10
   3   5   1 30391.7 1681.56   3
  -3  -5  -2 137.715 150.280  10
   3   5   2-201.283 219.318   3
  -3  -5  -3 12771.2 725.724  10
   3   5   3 12927.5 1124.27   3
  -3  -5  -4 12413.1 736.310  10
   3   5   4 11835.8 1073.82   3
  -3  -5  -5 10629.9 696.928  10
   3   5   5 10747.8 1079.29   3
  -3  -5  -6 18512.0 922.946  10
  -3  -5  -7 6386.40 565.830  10
  -3  -5  -8 334.871 121.182   8
  -3  -5  -8 459.478 227.568  10
  -3  -5  -9 3980.46 322.339   8
  -3  -5  -9 4301.22 485.133  10
  -3  -5 -10 1159.52 175.758   8
  -3  -5 -10 1198.12 296.245  10
  -3  -5 -11 200.308 69.6276   8
  -3  -5 -11 407.743 204.408  10
  -3  -5 -12 285.646 158.484  10
  -3  -5 -13 755.425 139.933  10
  -3  -6  13 5212.17 314.687  11
   3   6 -13 5061.48 256.450   9
  -3  -6  12-67.0269 112.753  11
   3   6 -12 76.5168 99.5815   9
  -3  -6  11 3946.60 356.935  11
   3   6 -11 3489.50 321.798   9
  -3  -6  10 82.7285 113.285  11
   3   6 -10 25.4974 143.190   9
  -3  -6   9 334.569 125.829  11
   3   6  -9 542.462 187.750   9
  -3  -6   8 89.7663 132.249  11
   3   6  -8 393.413 272.665   6
   3   6  -8 266.157 175.895   9
  -3  -6   7 733.926 210.533  11
   3   6  -7 1342.27 389.564   6
   3   6  -6 992.014 347.711   6
   3   6  -5 16492.8 1099.02   6
   3   6  -4 3395.38 516.081   6
   3   6  -3 4498.80 569.412   6
   3   6  -2 76.9987 235.738   6
   3   6  -2 19.3188 111.776   9
   3   6  -1 2905.79 458.139   6
   3   6  -1 3405.74 596.322   3
   3   6   0 14620.4 921.787   6
  -3  -6   0 14305.9 778.992  10
   3   6   0 14343.0 1203.48   3
   3   6   1 6131.92 632.306   6
  -3  -6  -1 5535.90 502.854  10
   3   6   1 6308.55 808.638   3
   3   6   2 4469.02 556.669   6
  -3  -6  -2 4695.76 472.980  10
   3   6   2 4464.36 691.453   3
  -3  -6  -3 137.830 163.427  10
   3   6   3 77.2902 277.170   3
  -3  -6  -4 167.601 166.584  10
  -3  -6  -5 1295.92 279.467  10
  -3  -6  -6-9.23832 209.064  10
  -3  -6  -7 1455.88 200.208   8
  -3  -6  -7 2462.78 380.354  10
  -3  -6  -8-123.424 99.2927   8
  -3  -6  -8-25.8354 189.667  10
  -3  -6  -9 4409.21 460.838  10
  -3  -6 -10 2983.38 377.830  10
  -3  -6 -11 3039.22 335.295  10
  -3  -6 -12 672.801 163.950  10
  -3  -7  12 10539.8 436.480  11
   3   7 -12 10315.7 416.874   9
  -3  -7  11 298.688 106.955  11
   3   7 -11 436.860 144.417   9
  -3  -7  10 1975.23 251.549  11
   3   7 -10 2004.95 265.466   9
  -3  -7   9 889.313 188.599  11
   3   7  -9 1131.44 240.282   9
  -3  -7   8 5490.39 435.848  11
   3   7  -8 4904.66 427.710   9
   3   7  -7 2293.85 450.653   6
  -3  -7   7 2448.09 319.721  11
   3   7  -6 4062.74 580.625   6
   3   7  -5 9143.77 846.771   6
   3   7  -4 10961.5 907.600   6
   3   7  -3 1318.40 237.110   9
  -3  -7   0 3820.66 462.407  10
  -3  -7  -1 108.437 183.568  10
  -3  -7  -2 3102.63 402.565  10
  -3  -7  -3 256.364 206.389  10
   3   7   3 159.711 201.183   6
  -3  -7  -4 3637.23 453.261  10
  -3  -7  -5 980.786 276.251  10
  -3  -7  -6 7683.90 607.240  10
  -3  -7  -7 1184.46 286.135  10
  -3  -7  -8 16685.8 834.409  10
  -3  -7  -9 5.30099 170.982  10
  -3  -7 -10 3291.33 351.283  10
  -3  -7 -11 559.892 166.223  10
   3   8 -12-6.78810 61.3312   9
  -3  -8  11 9576.64 392.272  11
   3   8 -11 9732.49 420.460   9
  -3  -8  10 65.9874 89.6577  11
   3   8 -10 146.126 122.616   9
  -3  -8   9 7181.52 431.794  11
   3   8  -9 6420.32 429.627   9
  -3  -8   8 4557.86 367.261  11
   3   8  -8 4570.37 389.324   9
  -3  -8   7 1039.10 214.079  11
   3   8  -7 934.904 232.619   9
   3   8  -6 1570.92 366.696   6
   3   8  -6 1156.88 252.699   9
   3   8  -5 2919.37 493.107   6
   3   8  -5 3246.48 359.314   9
   3   8  -4 3650.00 535.966   6
   3   8  -4 3713.40 382.947   9
   3   8  -3 9950.09 555.482   9
   3   8  -3 10487.4 877.942   6
   3   8  -2-79.0095 221.234   6
  -3  -8   1 2690.42 398.216  10
   3   8  -1 2562.46 472.703   6
  -3  -8   0 726.323 242.828  10
   3   8   0 349.114 200.201   6
  -3  -8  -1 12118.7 772.346  10
   3   8   1 10599.1 868.006   6
  -3  -8  -2 1663.44 318.729  10
   3   8   2 1497.65 349.556   6
  -3  -8  -3 5864.24 548.647  10
   3   8   3 5886.14 619.512   6
  -3  -8  -4 88.8209 175.209  10
   3   8   4-12.1925 182.836   6
  -3  -8  -5 17208.0 884.170  10
  -3  -8  -6 1436.69 275.303  10
  -3  -8  -7 2698.63 359.574  10
  -3  -8  -8 1769.61 285.014  10
  -3  -8  -9 3371.54 345.604  10
  -3  -8 -10 301.807 137.252  10
   3   9 -11 165.796 73.4299   9
   3   9 -10 818.572 132.655   9
  -3  -9   9 7196.52 354.178  11
   3   9  -9 6933.28 390.511   9
  -3  -9   8 7908.65 413.216  11
   3   9  -8 6982.81 407.453   9
   3   9  -7 2680.53 278.687   9
   3   9  -6 689.647 176.372   9
   3   9  -5 1851.33 242.512   9
   3   9  -4 1369.71 220.207   9
  -3  -9   3-242.264 220.276  10
   3   9  -3-152.530 222.673   6
  -3  -9   2 233.833 194.788  10
   3   9  -2 219.384 198.888   6
  -3  -9   1 545.548 217.931  10
   3   9  -1 514.325 270.122   6
  -3  -9   0 3275.39 443.424  10
   3   9   0 3108.54 465.901   6
  -3  -9  -1 668.216 255.818  10
   3   9   1 502.832 245.199   6
  -3  -9  -2 1444.29 316.565  10
  -3  -9  -3-41.5004 193.471  10
  -3  -9  -4 5961.44 440.844   7
  -3  -9  -4 6336.88 521.925  10
  -3  -9  -5 1102.36 201.229   7
  -3  -9  -5 1262.31 273.317  10
  -3  -9  -6 1602.49 273.896  10
  -3  -9  -7 88.6908 149.415  10
  -3  -9  -8 1179.21 217.698  10
  -3  -9  -9 150.656 113.869  10
  -3 -10   9 3873.23 262.450  10
   3  10  -9 3136.95 200.100   9
   3  10  -8 911.899 140.625   9
   3  10  -7 2960.99 236.654   9
  -3 -10   6 481.761 173.175  10
   3  10  -6 328.213 113.901   9
  -3 -10   5-57.1677 159.120  10
   3  10  -5 139.904 95.3557   9
  -3 -10   4 342.998 209.598  10
  -3 -10   3 253.074 191.314  10
  -3 -10   2 1018.25 249.133  10
  -3 -10   1 127.523 179.626  10
  -3 -10   0 24.6520 175.723  10
  -3 -10  -1 1636.84 291.123  10
  -3 -10  -2 6107.23 495.302  10
  -3 -10  -3 16170.8 646.389   7
  -3 -10  -3 16906.8 767.990  10
  -3 -10  -4 6853.36 474.746  10
  -3 -10  -5 5508.97 419.102  10
  -3 -10  -6 7134.63 432.315  10
  -3 -10  -7 69.6428 111.619  10
  -3 -11   7 3969.34 259.476  10
  -3 -11   6 48.9762 118.560  10
  -3 -11   5 719.952 170.115  10
  -3 -11   4 5034.20 380.010  10
  -3 -11   3 6710.72 451.070  10
  -3 -11   2-76.2329 163.953  10
  -3 -11   1 657.389 181.537  10
  -3 -11   0 876.442 199.499  10
  -3 -11  -1 7438.81 463.676  10
  -3 -11  -2 1173.71 205.399  10
  -3 -11  -3 487.009 147.216  10
  -3 -11  -4 426.223 135.156  17
  -3 -11  -4 364.625 129.963  10
  -3 -11  -5 55.8315 95.8823  10
  -3 -12   2 441.113 110.761  10
  -3 -12   2 485.333 133.194  17
  -3 -12   1 91.9084 81.3551  10
  -3 -12   0 4480.06 261.493  10
  -3 -12   0 5398.94 340.622  17
  -3 -12  -1 539.341 136.654  17
  -3 -12  -2 2905.38 230.905  17
   4 -11  -4 3564.65 278.030  18
   4 -11  -3 714.933 152.806  18
   4 -11  -2 305.113 83.7159  19
   4 -11  -2 227.830 139.677  18
   4 -11  -1 156.990 68.8188  19
   4 -11  -1-380.436 191.542  18
   4 -11   0 8516.89 439.128  18
   4 -10  -7 4136.49 245.101  13
   4 -10  -6 588.021 114.635  19
   4 -10  -6 587.691 150.822  18
   4 -10  -6 286.010 112.967  13
   4 -10  -5 6516.35 359.985  19
   4 -10  -5 6938.58 481.023  18
   4 -10  -4 5264.74 342.111  19
   4 -10  -4 5514.07 458.837  18
   4 -10  -3 491.286 134.147  19
   4 -10  -3-1.77530 220.334  18
   4 -10  -2 5315.87 492.295  18
   4 -10  -2 4840.86 341.627  19
   4 -10  -1 4139.65 320.113  19
   4 -10  -1 3766.86 402.300  18
   4 -10   0 3019.44 265.942  19
   4 -10   0 2619.49 334.385  18
   4 -10   1 6487.44 309.511  12
   4 -10   1 6875.71 381.063  19
   4 -10   1 7356.87 504.553  18
   4 -10   2-19.9639 80.2487  12
   4 -10   3 1886.92 191.397  12
   4 -10   4 10194.2 405.540  12
   4 -10   5 20.7419 73.4089  12
   4 -10   6 430.094 89.0174  12
   4  -9  -9 5808.56 255.988  13
   4  -9  -8 2315.96 216.394  19
   4  -9  -8 1812.99 208.654  13
   4  -9  -7 140.164 99.1338  19
   4  -9  -7-219.747 175.605  18
   4  -9  -7-204.384 176.347  13
   4  -9  -6 8970.28 490.253  19
   4  -9  -6 10094.3 637.656  18
   4  -9  -5 821.655 187.585  19
   4  -9  -5 747.979 225.017  18
   4  -9  -4 5392.89 535.660  18
   4  -9  -4 4982.66 394.472  19
   4  -9  -3 8970.64 527.312  19
   4  -9  -2 513.735 114.860  12
   4  -9  -2 695.154 180.487  19
   4  -9  -1 7779.73 397.329  12
   4  -9  -1 8592.60 515.524  19
   4  -9   0 789.217 157.038  12
   4  -9   0 982.365 199.631  19
   4  -9   0 866.354 272.758  18
   4  -9   1-33.0744 106.290  12
   4  -9   1-348.028 255.632  18
   4  -9   2 397.819 151.176  12
   4  -9   2-233.879 267.859  18
   4  -9   3 3579.10 309.876  12
   4  -9   4 115.767 114.294  12
   4  -9   5 802.156 174.165  12
   4  -9   6 355.265 130.241  12
   4  -9   7 898.450 143.110  12
   4  -9   8-0.56081 65.9952  12
   4  -8 -10 20567.0 545.913  19
   4  -8 -10 17195.8 452.148  13
   4  -8  -9-11.3845 92.4894  19
   4  -8  -9-121.619 130.987  13
   4  -8  -8 18615.7 701.331  19
   4  -8  -8 20721.7 771.349  18
   4  -8  -8 19200.5 764.857  13
   4  -8  -7 83.7224 113.512  19
   4  -8  -7-378.108 270.535  18
   4  -8  -6 204.394 149.802  19
   4  -8  -6-99.5337 259.990  18
   4  -8  -5 1785.69 266.826  19
   4  -8  -5 2093.80 390.056  18
   4  -8  -4 5472.12 455.674  19
   4  -8  -3 1310.75 187.598  12
   4  -8  -3 1872.05 289.968  19
   4  -8  -2 12668.9 673.417  19
   4  -8  -2 12261.0 563.072  12
   4  -8  -1 596.999 171.051  12
   4  -8  -1 1009.94 221.908  19
   4  -8   0 9815.50 552.306  12
   4  -8   0 10558.6 590.071  19
   4  -8   1 451.628 176.196  12
   4  -8   1 117.157 221.042  18
   4  -8   2 27802.2 937.476  12
   4  -8   2 26626.6 1114.84  18
   4  -8   3 18129.8 760.911  12
   4  -8   3 19075.7 642.562  15
   4  -8   4 1697.11 256.567  12
   4  -8   4 2058.09 212.611  15
   4  -8   5 1938.88 268.302  12
   4  -8   5 2223.08 201.011  15
   4  -8   6 5428.60 407.245  12
   4  -8   6 5066.42 268.990  15
   4  -8   7 5444.98 368.798  12
   4  -8   7 4549.06 222.297  15
   4  -8   8 427.128 122.039  12
   4  -8   9 524.166 100.188  12
   4  -7 -11 2816.53 214.424  19
   4  -7 -11 2547.47 163.076  13
   4  -7 -10 2366.25 239.785  19
   4  -7 -10 2181.10 220.356  13
   4  -7  -9 5707.75 411.971  19
   4  -7  -9 5402.86 406.999  13
   4  -7  -8 1220.50 211.004  19
   4  -7  -8 1399.26 274.565  18
   4  -7  -8 1157.72 265.599  13
   4  -7  -7 6380.09 480.245  19
   4  -7  -7 6479.55 586.802  18
   4  -7  -6 15137.9 749.725  19
   4  -7  -6 15303.4 951.227  18
   4  -7  -5 955.584 141.701  12
   4  -7  -5 1334.76 252.605  19
   4  -7  -5 825.929 261.507  18
   4  -7  -5 1078.59 220.707   9
   4  -7  -4 3131.78 362.000  19
   4  -7  -4 3181.07 364.694   9
   4  -7  -4 3080.80 284.207  12
   4  -7  -3 4046.81 413.074  19
   4  -7  -3 4415.50 427.606   9
   4  -7  -3 4195.07 356.816  12
   4  -7  -2 1147.84 224.818  12
   4  -7  -2 1430.05 259.827  19
   4  -7  -2 1435.64 282.512   9
   4  -7  -1 12568.7 656.281  12
   4  -7  -1 11627.1 641.935  19
   4  -7   0 8041.72 539.878  12
   4  -7   0 7739.09 467.269  15
   4  -7   1 206.427 171.346  12
   4  -7   1-35.0500 110.027  15
   4  -7   2 10520.5 631.523  12
   4  -7   2 9284.92 714.769  18
   4  -7   2 9883.98 522.202  15
   4  -7   3 1177.64 250.443  12
   4  -7   3 1050.09 185.654  15
   4  -7   4 63.5425 159.171  12
   4  -7   4-71.4239 143.014  15
   4  -7   5 239.585 174.046  12
   4  -7   5 48.8936 104.931  15
   4  -7   6 79.5721 168.821  12
   4  -7   6 31.8300 106.391  15
   4  -7   7 1148.62 216.095  12
   4  -7   7 1056.34 164.544  15
   4  -7   8 5641.24 382.556  12
   4  -7   8 4915.73 279.111  15
   4  -7   9 130.775 98.2768  12
   4  -7   9 132.530 69.5947  15
   4  -6 -11 1329.72 184.305  19
   4  -6 -11 785.263 125.407  13
   4  -6 -10 2029.47 248.015  19
   4  -6 -10 2433.13 268.668  13
   4  -6  -9 386.736 151.285  19
   4  -6  -9 422.375 190.426  13
   4  -6  -8 181.111 144.035  19
   4  -6  -8-70.5873 206.538  18
   4  -6  -8-278.595 272.516  13
   4  -6  -7 1005.62 218.128  19
   4  -6  -7 1031.57 283.552  18
   4  -6  -7 1168.22 199.255   9
   4  -6  -6 3749.84 408.967  19
   4  -6  -6 2948.03 461.656  18
   4  -6  -6 3264.99 357.646   9
   4  -6  -6 2704.78 236.056  12
   4  -6  -5 59658.6 1503.27  19
   4  -6  -5 60178.8 1985.01  18
   4  -6  -5 57834.5 1177.65  12
   4  -6  -4 17091.8 804.337  19
   4  -6  -4 18776.0 850.230   9
   4  -6  -4 17815.2 704.638  12
   4  -6  -3 26604.8 912.657  12
   4  -6  -3 23338.4 916.862  19
   4  -6  -3 25579.0 1021.23   9
   4  -6  -2 8179.33 540.318  12
   4  -6  -2 7724.74 589.746   9
   4  -6  -1 12780.1 684.427  12
   4  -6  -1 12611.2 763.285   9
   4  -6  -1 13463.3 601.835  15
   4  -6   0 2122.42 315.870  12
   4  -6   0 2200.61 259.244  15
   4  -6   0 1424.96 369.530  18
   4  -6   0 1827.64 345.677   9
   4  -6   1-46.4397 154.979  12
   4  -6   1 123.710 176.890   9
   4  -6   1 90.5538 126.985  15
   4  -6   2 4329.61 422.217  12
   4  -6   2 3098.69 431.074  18
   4  -6   2 3811.16 338.724  15
   4  -6   3 365.736 196.648  12
   4  -6   3 11.7931 132.160  15
   4  -6   4 614.759 221.022  12
   4  -6   4 218.151 150.712  15
   4  -6   5 12998.9 715.412  12
   4  -6   5 13942.9 661.840  15
   4  -6   6 2626.13 345.815  12
   4  -6   6 2459.60 306.977  15
   4  -6   7 7520.57 528.854  12
   4  -6   7 7975.27 491.343  15
   4  -6   8 4657.56 381.658  12
   4  -6   8 4748.43 357.464  15
   4  -6   9 6463.15 379.998  12
   4  -6   9 6733.53 370.286  15
   4  -6  10 1467.05 153.703  12
   4  -6  10 1703.44 157.513  15
   4  -5 -12 10402.1 434.709  14
   4  -5 -12 12611.3 317.322  13
   4  -5 -11 166.655 109.899  19
   4  -5 -11 167.609 117.456  14
   4  -5 -11 354.750 126.178  13
   4  -5 -10 1110.26 210.372  19
   4  -5 -10 1058.15 206.634  14
   4  -5 -10 1225.01 216.628  13
   4  -5  -9 5750.43 472.038  19
   4  -5  -9 6291.94 471.692  14
   4  -5  -9 5341.79 478.351  13
   4  -5  -8 3594.09 387.734  19
   4  -5  -8 3385.90 432.791  18
   4  -5  -8 3738.25 386.149  14
   4  -5  -8 2857.43 404.551  13
   4  -5  -7 154.021 146.818  19
   4  -5  -7 27.5316 255.722  18
   4  -5  -7 483.556 186.552   9
   4  -5  -7 343.848 160.525  14
   4  -5  -6 19595.1 872.804  19
   4  -5  -6 22107.2 1194.72  18
   4  -5  -6 22279.9 897.944   9
   4  -5  -6 21963.6 916.486  14
   4  -5  -6 18869.0 640.282  12
   4  -5  -5 827.030 190.132  12
   4  -5  -5 660.305 183.748  19
   4  -5  -5 539.623 254.411  18
   4  -5  -5 659.268 211.348   9
   4  -5  -4 82318.2 2350.40  18
   4  -5  -4 85872.9 1808.02   9
   4  -5  -4 85660.3 1555.86  12
   4  -5  -3 10584.6 596.989  12
   4  -5  -3 9847.32 839.287  18
   4  -5  -3 10731.3 660.666   9
   4  -5  -2 3450.44 367.640  12
   4  -5  -2 3097.38 460.702  18
   4  -5  -2 3392.71 395.822   9
   4  -5  -2 3507.34 315.820  15
   4  -5  -1 1648.79 284.831  12
   4  -5  -1 1111.49 306.131  18
   4  -5  -1 1726.56 229.538  15
   4  -5  -1 1492.15 282.965   9
   4  -5   0 1886.12 292.310  12
   4  -5   0 1118.44 340.271  18
   4  -5   0 2046.17 346.616   9
   4  -5   0 1952.22 247.947  15
   4  -5   1 2607.95 339.936  12
   4  -5   1 2356.50 432.159  18
   4  -5   1 2679.56 388.411   9
   4  -5   1 2597.72 287.610  15
   4  -5   2 8903.80 607.319  12
   4  -5   2 9032.27 706.373  18
   4  -5   2 9283.67 654.141   9
   4  -5   2 9551.43 535.596  15
   4  -5   3 3525.31 397.430  12
   4  -5   3 3852.74 378.723  15
   4  -5   4 31991.5 1119.31  12
   4  -5   4 35634.1 1130.13  15
   4  -5   5 40.2244 188.809  12
   4  -5   5 1.89217 155.753  15
   4  -5   6 9887.55 635.293  12
   4  -5   6 10878.7 637.942  15
   4  -5   7 8330.89 569.188  12
   4  -5   7 9173.73 580.369  15
   4  -5   8 1774.75 276.468  12
   4  -5   8 1826.97 269.854  15
   4  -5   9 4379.08 328.010  12
   4  -5   9 5241.90 391.037  15
   4  -5  10 78.4397 85.9435  12
   4  -5  10-5.22455 106.407  15
   4  -5  11-133.483 96.3710  15
   4  -4 -13 352.394 116.887  14
   4  -4 -12 2235.08 254.320  14
   4  -4 -11 725.010 167.765  19
   4  -4 -11 840.692 194.136  14
   4  -4 -10 2981.11 330.317  19
   4  -4 -10 2924.68 343.998  14
   4  -4 -10 2941.79 300.009  13
   4  -4  -9 2101.00 298.733  19
   4  -4  -9 1984.25 308.529  14
   4  -4  -9 1211.25 287.054  13
   4  -4  -8 9316.87 610.190  19
   4  -4  -8 10972.5 602.568   9
   4  -4  -8 10162.8 665.839  14
   4  -4  -8 11431.7 772.335  18
   4  -4  -8 9296.46 661.919  13
   4  -4  -7 37877.1 1213.05  19
   4  -4  -7 42216.8 1576.54  18
   4  -4  -7 41108.6 1319.96  14
   4  -4  -7 38483.9 1377.63  13
   4  -4  -7 38964.1 876.085  12
   4  -4  -6 155.865 98.6756  12
   4  -4  -6 413.516 129.529  19
   4  -4  -6 312.569 165.509   9
   4  -4  -6 396.175 182.822  14
   4  -4  -5 25713.3 1284.00  18
   4  -4  -5 26684.6 1011.74   9
   4  -4  -5 25173.8 1004.25  14
   4  -4  -5 23938.2 797.815  12
   4  -4  -4 1975.59 429.072   4
   4  -4  -4 1858.54 342.280  18
   4  -4  -4 2452.06 337.038   9
   4  -4  -4 2482.03 328.925  14
   4  -4  -4 2154.96 271.214  12
   4  -4  -3 6857.50 472.074  12
   4  -4  -3 5396.82 643.953   4
   4  -4  -3 5612.27 602.626  18
   4  -4  -3 6366.44 518.269   9
   4  -4  -3 7195.59 437.537  15
   4  -4  -2 13462.4 680.898  12
   4  -4  -2 13464.6 745.864   9
   4  -4  -2 12781.6 925.995  18
   4  -4  -2 14351.7 608.086  15
   4  -4  -1 9073.80 575.144  12
   4  -4  -1 8230.02 733.993  18
   4  -4  -1 10327.8 599.249  16
   4  -4  -1 8754.25 615.763   9
   4  -4  -1 9247.34 497.393  15
   4  -4   0 7968.11 561.222  12
   4  -4   0 7804.01 592.844   9
   4  -4   0 8207.19 533.109  16
   4  -4   0 7844.00 465.109  15
   4  -4   1 628.726 196.197  12
   4  -4   1 169.817 253.446  18
   4  -4   1 1012.26 206.215  16
   4  -4   1 835.817 198.792  15
   4  -4   1 962.573 257.993   9
   4  -4   2 9415.87 610.093  12
   4  -4   2 9767.84 540.230  16
   4  -4   2 7980.15 655.391  18
   4  -4   2 9080.73 637.691   9
   4  -4   2 9007.14 548.272  15
   4  -4   3 675.426 209.735  12
   4  -4   3 663.409 175.314  16
   4  -4   3 802.387 193.448  15
   4  -4   3 859.273 240.158   9
   4  -4   4 10069.2 624.009  12
   4  -4   4 9871.42 596.492  15
   4  -4   5 395.905 176.775  12
   4  -4   5 968.436 239.191  15
   4  -4   6 9499.56 614.759  12
   4  -4   6 9113.84 605.536  15
   4  -4   7 14544.7 747.577  12
   4  -4   7 15099.6 757.513  15
   4  -4   8 947.332 217.842  12
   4  -4   8 839.596 233.378  15
   4  -4   9-64.8479 128.943  12
   4  -4   9 160.101 163.634  15
   4  -4  10 3546.73 323.980  15
   4  -4  11 150.236 106.960  15
   4  -4  12 2606.82 185.773  15
   4  -3 -13 984.686 177.079  14
   4  -3 -12 3280.90 323.983  14
   4  -3 -11 64.7761 127.838  14
   4  -3 -11 7933.81 388.853  13
   4  -3 -10 17777.7 779.223  19
   4  -3 -10 15450.1 659.902  13
   4  -3  -9 28275.5 1020.61  19
   4  -3  -9 34076.2 1036.27   9
   4  -3  -9 31848.0 1194.62  14
   4  -3  -9 25026.5 968.758  13
   4  -3  -8 12091.8 677.660  19
   4  -3  -8 14104.6 715.646   9
   4  -3  -8 12924.2 782.580  14
   4  -3  -8 11744.2 711.115  13
   4  -3  -7 468.541 152.084  19
   4  -3  -7 932.847 297.291  18
   4  -3  -7 563.983 206.590   9
   4  -3  -7 548.302 228.049  14
   4  -3  -7 474.091 217.299  13
   4  -3  -6 5797.57 602.224  18
   4  -3  -6 6283.72 508.963   9
   4  -3  -6 5455.13 507.564  14
   4  -3  -6 5358.58 492.039  13
   4  -3  -6 4936.89 357.753  12
   4  -3  -5 2265.82 468.199   4
   4  -3  -5 2065.52 400.410  18
   4  -3  -5 2366.21 327.952  14
   4  -3  -5 2203.49 319.966   9
   4  -3  -5 1857.47 316.008  13
   4  -3  -5 2349.66 271.310  12
   4  -3  -4 291.935 149.099  12
   4  -3  -4 201.243 195.486   4
   4  -3  -4-22.8088 313.616  18
   4  -3  -4 246.874 182.474  16
   4  -3  -4 388.891 175.354   9
   4  -3  -4 145.605 125.115  14
   4  -3  -3 75.9297 184.822   4
   4  -3  -3-12.3917 116.920  12
   4  -3  -3-132.869 307.602  18
   4  -3  -3-76.5241 155.421  16
   4  -3  -3 223.557 140.482  15
   4  -3  -3 57.6360 133.335   9
   4  -3  -3 42.8362 133.420  14
   4  -3  -2 95322.8 1762.15  12
   4  -3  -2 101152. 1796.12  16
   4  -3  -2 99658.3 1948.72   9
   4  -3  -2 97428.1 1509.93  15
   4  -3  -2 96236.9 1911.54  14
   4  -3  -1 42816.7 1191.14  12
   4  -3  -1 42657.2 1148.64  16
   4  -3  -1 42586.2 1288.62   9
   4  -3  -1 41449.9 1021.91  15
   4  -3   0 856.659 216.151  12
   4  -3   0 505.180 222.750  18
   4  -3   0 1027.66 211.549  16
   4  -3   0 691.868 164.904  15
   4  -3   0 773.682 221.674   9
   4  -3   1 381.358 159.112  12
   4  -3   1-81.5011 307.290  18
   4  -3   1 374.540 165.134  16
   4  -3   1 392.052 121.789  15
   4  -3   1-65.9211 169.665   9
   4  -3   2 6048.04 474.580  12
   4  -3   2 6756.09 534.064   9
   4  -3   2 6340.60 426.774  16
   4  -3   2 7142.43 496.555  15
   4  -3   2 6077.89 542.031  18
   4  -3   3 5086.11 444.162  12
   4  -3   3 4896.20 368.769  16
   4  -3   3 4984.86 461.491   9
   4  -3   3 5284.39 443.247  15
   4  -3   4 624.220 195.383  12
   4  -3   4 568.854 183.178   9
   4  -3   4 546.721 200.812  15
   4  -3   5 39989.8 1192.59  12
   4  -3   5 40885.6 1215.83  15
   4  -3   6 46089.0 1271.93  12
  -4   3  -6 45835.5 1085.12   8
   4  -3   6 45263.1 1301.29  15
   4  -3   7 692.056 190.514  12
  -4   3  -7 870.645 187.651   8
   4  -3   7 1208.18 251.566  15
  -4   3  -8 1877.99 228.743   8
   4  -3   8 1939.06 259.993  12
   4  -3   8 2010.92 306.901  15
  -4   3  -9 175.838 111.366   8
   4  -3   9-63.3593 155.602  15
  -4   3 -10 13843.2 490.095   8
   4  -3  10 14923.3 673.039  15
  -4   3 -11 1826.22 164.556   8
   4  -3  11 2025.58 236.668  15
  -4   3 -12 17.4015 47.7516   8
   4  -3  12 263.161 100.338  15
   4  -2 -14 2822.29 232.718  14
   4  -2 -13 893.422 178.000  14
   4  -2 -12 138.620 134.760  14
   4  -2 -11 721.932 207.437  14
   4  -2 -11 21187.5 587.999  13
   4  -2 -10 1577.52 239.496   9
   4  -2 -10 1971.46 316.396  14
   4  -2  -9 13865.0 701.607  19
   4  -2  -9 17729.9 776.063   9
   4  -2  -9 16347.5 890.051  14
   4  -2  -9 11956.9 623.000  13
   4  -2  -8 376.211 180.181   9
   4  -2  -8 410.057 197.686  14
   4  -2  -8 180.282 177.203  13
   4  -2  -7 12803.1 707.489   9
   4  -2  -7 12540.8 796.574  14
   4  -2  -6 7188.85 785.999   4
   4  -2  -6 8532.86 709.700  18
   4  -2  -6 9072.27 595.439   9
   4  -2  -6 7922.25 624.640  14
   4  -2  -6 6413.82 499.584  13
   4  -2  -6 6883.90 419.177  12
   4  -2  -5 9627.75 913.750   4
   4  -2  -5 11031.1 789.717  18
   4  -2  -5 12141.2 609.299  16
   4  -2  -5 10874.5 648.910   9
   4  -2  -5 10780.7 684.884  14
   4  -2  -5 10053.7 606.922  13
   4  -2  -5 10579.2 533.739  12
   4  -2  -4 30.0780 168.258   4
   4  -2  -4-107.075 123.429  12
   4  -2  -4-70.4159 217.423  18
   4  -2  -4-9.48851 145.351  16
   4  -2  -4-86.2504 139.424   9
   4  -2  -4-93.0502 167.765  14
   4  -2  -4-24.8193 180.054  13
   4  -2  -3 150.291 112.134  12
   4  -2  -3-42.3787 202.223  18
   4  -2  -3 300.501 142.972  16
   4  -2  -3 242.758 137.400  15
   4  -2  -3 260.396 149.135   9
   4  -2  -3 128.995 124.718  14
   4  -2  -3-42.5545 180.496  13
   4  -2  -2 2006.22 263.754  12
   4  -2  -2 1343.62 312.387  18
   4  -2  -2 2286.91 298.326  16
   4  -2  -2 1771.58 209.507  15
   4  -2  -2 1825.33 299.969   9
   4  -2  -2 1913.06 301.582  14
   4  -2  -2 1500.53 201.382  13
   4  -2  -1 13229.2 648.182  12
   4  -2  -1 11099.2 778.226  18
   4  -2  -1 12320.3 624.096  16
   4  -2  -1 12972.9 708.122   9
   4  -2  -1 11942.6 532.976  15
   4  -2   0 18561.0 772.975  12
   4  -2   0 17739.9 744.114  16
   4  -2   0 19276.0 862.299   9
   4  -2   0 18482.5 697.759  15
   4  -2   1 1846.27 263.600  12
   4  -2   1 1923.35 372.810  18
   4  -2   1 1719.03 258.293  16
   4  -2   1 1900.40 263.195  15
   4  -2   1 1556.09 290.004   9
   4  -2   2 10597.5 591.162  12
   4  -2   2 10901.8 748.492  18
   4  -2   2 10109.3 548.309  16
   4  -2   2 10445.6 614.764   9
   4  -2   2 11034.9 595.652  15
   4  -2   3 98.2874 123.536  12
   4  -2   3 324.268 161.020  16
   4  -2   3 382.211 160.901  15
   4  -2   3 86.5915 129.420   9
   4  -2   4 15247.2 693.456  12
   4  -2   4 16012.2 649.442  16
   4  -2   4 15687.0 744.573  15
   4  -2   5 21007.2 809.018  12
   4  -2   5 20384.0 856.042  15
   4  -2   6 5286.88 413.413  12
  -4   2  -6 5026.54 391.715   8
   4  -2   6 4592.13 439.563  15
  -4   2  -7 5388.65 421.266   8
   4  -2   7 5730.89 490.606  15
  -4   2  -8 1822.22 261.846   8
   4  -2   8 1421.88 280.029  15
  -4   2  -9 806.475 182.118   8
   4  -2   9 946.847 234.211  15
  -4   2 -10 2264.86 244.462   8
   4  -2  10 2433.80 302.924  15
  -4   2 -11 2158.02 198.460   8
   4  -2  11 2310.43 261.040  15
  -4   2 -12 167.082 75.4560   8
   4  -2  12 394.497 120.933  15
   4  -1 -14 768.024 141.329  14
   4  -1 -13 99.5264 112.212  14
   4  -1 -12-41.3233 128.979  14
   4  -1 -11 20197.8 904.721  14
   4  -1 -10 6975.03 459.000   9
   4  -1 -10 6571.91 562.252  14
   4  -1  -9 23781.1 876.217   9
   4  -1  -9 25186.8 1123.26  14
   4  -1  -9 21620.7 755.892  13
   4  -1  -8 6475.81 499.863   9
   4  -1  -8 6377.50 587.088  14
   4  -1  -7 5983.51 475.101   9
   4  -1  -7 5774.85 564.788  14
   4  -1  -6 6246.23 713.122   4
   4  -1  -6 6923.29 448.692  16
   4  -1  -6 5965.88 486.955   9
   4  -1  -6 6598.71 570.012  14
   4  -1  -6 7698.94 439.787  12
   4  -1  -5 3491.91 329.012  16
   4  -1  -5 3579.40 368.842   9
   4  -1  -5 3222.93 385.542  14
   4  -1  -5 2284.22 299.284  13
   4  -1  -5 3282.35 298.566  12
   4  -1  -4 184.759 128.839  12
   4  -1  -4 266.718 135.923  16
   4  -1  -4 302.766 158.259   9
   4  -1  -4 19.8280 170.718  14
   4  -1  -4 28.2337 132.609  13
   4  -1  -3 271.680 125.242  12
   4  -1  -3 304.495 161.850  16
   4  -1  -3 68.8451 87.1055  15
   4  -1  -3 209.612 176.408   9
   4  -1  -3 69.9144 130.411  14
   4  -1  -3-9.28071 135.700  13
   4  -1  -2 581.332 157.077  12
   4  -1  -2 606.613 273.220  18
   4  -1  -2 621.604 189.841  16
   4  -1  -2 471.438 109.129  15
   4  -1  -2 342.069 176.468   9
   4  -1  -2 283.806 152.915  14
   4  -1  -2-79.8543 151.342  13
   4  -1  -1 12358.2 595.730  12
   4  -1  -1 12373.8 816.075  18
   4  -1  -1 12413.1 630.131  16
   4  -1  -1 13249.9 687.042   9
   4  -1  -1 11400.1 485.205  15
   4  -1  -1 11940.9 709.526  14
   4  -1   0 345.032 140.931  12
   4  -1   0 730.837 374.370  18
   4  -1   0 257.917 148.336  16
   4  -1   0 226.272 109.391  15
   4  -1   0 543.965 181.621   9
   4  -1   1 8448.17 483.715  12
   4  -1   1 8060.95 523.829  16
   4  -1   1 8995.91 564.008   9
   4  -1   1 9268.15 514.377  15
   4  -1   2 1424.30 217.640  12
   4  -1   2 1691.40 260.516  16
   4  -1   2 1562.12 245.342  15
   4  -1   2 1505.59 249.461   9
   4  -1   3 93677.4 1560.09  12
   4  -1   3 95204.5 1704.35  16
   4  -1   3 96347.4 1735.56  15
   4  -1   4 6834.91 429.371  12
   4  -1   4 7033.84 460.199  16
   4  -1   4 6707.59 485.767  15
   4  -1   5 5510.84 460.178  15
   4  -1   6 444.497 184.694  15
  -4   1  -7 3789.48 355.956   8
   4  -1   7 3295.41 380.991  15
  -4   1  -8 3842.38 367.903   8
   4  -1   8 3105.05 373.929  15
  -4   1  -9 3221.20 329.661   8
   4  -1   9 3106.56 365.061  15
  -4   1 -10 4338.90 333.839   8
   4  -1  10 4621.91 400.575  15
  -4   1 -11 10124.8 429.515   8
   4  -1  11 10584.9 527.892  15
  -4   1 -12 299.105 84.5269   8
   4  -1  12 477.485 122.452  15
   4   0 -14 1586.55 185.116  14
   4   0 -13 799.612 179.369  14
   4   0 -12 805.723 208.732  14
   4   0 -11 4642.13 351.481   9
   4   0 -11 4984.11 464.829  14
   4   0 -10 9088.98 516.146   9
   4   0 -10 9485.18 669.139  14
   4   0  -9 468.571 170.711   9
   4   0  -9 635.528 242.523  14
   4   0  -8 651.421 206.652   9
   4   0  -8 732.715 248.743  14
   4   0  -7 46.7007 133.080   9
   4   0  -7 6.56747 190.807  14
   4   0  -6 12680.9 569.400  16
   4   0  -6 12396.0 672.732   9
   4   0  -6 12582.9 800.077  14
   4   0  -5 1033.97 198.729  16
   4   0  -5 1216.58 267.804  14
   4   0  -5 1015.22 246.122   9
   4   0  -5 1003.56 207.811  13
   4   0  -5 1670.00 238.476  12
   4   0  -4 1308.77 196.312  12
   4   0  -4 1158.26 204.202  16
   4   0  -4 1503.32 294.772  14
   4   0  -4 1297.31 244.810   9
   4   0  -4 1587.57 220.083  13
   4   0  -3 1238.45 201.053  12
   4   0  -3 1252.84 228.249  16
   4   0  -3 1141.62 253.654  14
   4   0  -3 1365.84 243.082   9
   4   0  -3 1652.89 222.316  13
   4   0  -2 7628.99 494.137  16
   4   0  -2 7528.26 499.770   9
   4   0  -2 7535.63 587.334  14
   4   0  -2 7232.40 400.649  13
   4   0  -2 8335.22 470.781  12
   4   0  -1 1212.86 197.566  12
   4   0  -1 1008.43 197.296  16
   4   0  -1 1178.26 234.921   9
   4   0   0 259.595 98.2837  12
   4   0   0 281.554 168.486  16
   4   0   0 221.300 160.525   9
   4   0   1 190.109 95.4737  12
   4   0   1 308.460 214.880  16
   4   0   1 233.055 147.579  15
   4   0   2 82447.8 1687.11  16
   4   0   2 82905.8 1497.83  15
   4   0   3 1313.82 262.630  16
   4   0   3 1075.33 291.311   3
   4   0   3 1135.30 209.681  15
   4   0   4 510.182 272.702   3
   4   0   4 445.775 149.112  15
   4   0   5 93.6969 139.605  16
   4   0   5 39.0058 131.580  15
   4   0   6 9310.25 583.539  15
  -4   0  -7 105.919 135.959   8
   4   0   7 241.612 177.714  15
  -4   0  -8 947.524 212.756   8
   4   0   8 1109.00 267.027  15
  -4   0  -9 3600.40 352.296   8
   4   0   9 3696.03 388.993  15
  -4   0 -10 8558.31 477.681   8
   4   0  10 8613.70 528.195  15
  -4   0 -11 173.823 107.371   8
   4   0  11 38.6243 112.953  15
  -4   0 -12-37.9745 71.1906   8
   4   0  12 140.026 99.0590  15
   4   1 -14 1357.65 156.195  14
   4   1 -13 18868.1 694.702  14
   4   1 -12 2226.18 217.695   9
   4   1 -12 2741.17 318.469  14
   4   1 -11 4467.08 341.013   9
   4   1 -11 5355.58 466.558  14
   4   1 -10 1585.50 242.449   9
   4   1 -10 1517.56 298.539  14
   4   1  -9 490.893 185.831   9
   4   1  -9 571.658 228.774  14
   4   1  -8 155.266 166.966  14
   4   1  -8 229.869 153.570   9
   4   1  -7 508.519 211.659  14
   4   1  -7 515.390 183.286   9
   4   1  -6 4813.72 345.910  16
   4   1  -6 4817.70 434.888   9
   4   1  -6 3948.72 458.567  14
   4   1  -5 686.728 225.953  14
   4   1  -5 570.489 181.229   9
   4   1  -4 194.079 139.846  16
   4   1  -4-56.8730 180.152  14
   4   1  -4-181.161 149.009   9
   4   1  -3 9864.35 558.433  16
   4   1  -3 11169.6 614.257   9
   4   1  -3 12319.9 760.080  14
   4   1  -3 11037.8 488.046  12
   4   1  -2 8784.29 532.891  16
   4   1  -2 8858.86 532.294   9
   4   1  -2 10132.4 700.517  14
   4   1  -2 9381.79 453.093  12
   4   1  -1 10290.2 829.674   3
   4   1  -1 10181.8 584.629  16
   4   1  -1 11612.4 586.770   9
   4   1  -1 11911.9 508.658  12
   4   1   0 65338.8 1494.44  16
   4   1   0 66052.3 1365.31   9
   4   1   1 15310.2 1067.85   3
   4   1   1 17950.0 811.346  16
   4   1   2 791.018 229.993  16
   4   1   2 1063.99 330.318   3
   4   1   3-25.7402 144.183  16
   4   1   3-151.443 230.577   3
   4   1   3 10.7069 120.259  15
   4   1   4 97.6616 187.602  16
   4   1   4-241.608 290.063   3
   4   1   4 73.8857 118.805  15
   4   1   5 3177.01 347.814  16
   4   1   5 2295.93 279.549  15
   4   1   6 18388.2 786.750  15
   4   1   7 2818.01 342.632  15
  -4  -1  -8 1356.23 240.785   8
   4   1   8 1266.55 266.316  15
  -4  -1  -9 2121.59 279.309   8
   4   1   9 2110.84 298.534  15
  -4  -1 -10 165.059 117.921   8
   4   1  10 102.290 135.048  15
  -4  -1 -11 183.118 105.683   8
   4   1  11 155.056 119.118  15
  -4  -1 -12 1314.32 142.589   8
   4   1  12 1198.39 152.882  15
   4   2 -13 2784.98 253.972  14
   4   2 -12 2413.64 222.694   9
   4   2 -12 3217.84 314.682  14
   4   2 -11 1728.11 260.153  14
   4   2 -11 1292.78 197.961   9
   4   2 -10 38.7057 142.095  14
   4   2 -10-103.103 124.392   9
   4   2  -9 2404.06 308.796   9
   4   2  -9 2576.40 358.161  14
   4   2  -8 2853.68 342.589   9
   4   2  -8 2730.92 379.527  14
   4   2  -7 479.993 212.808  14
   4   2  -7 386.429 179.412   9
   4   2  -6-224.111 204.401  14
   4   2  -6 118.460 134.381   9
   4   2  -5 13840.4 628.303  16
   4   2  -5 13996.1 720.153   9
   4   2  -5 14556.0 850.998  14
   4   2  -4 2301.33 280.686  16
   4   2  -4 2583.13 320.128   9
   4   2  -4 2448.73 385.690  14
   4   2  -3 2117.58 280.995  16
   4   2  -3 2298.03 294.528   9
   4   2  -3 2288.80 362.415  14
   4   2  -2 13177.5 669.711  16
   4   2  -2 14435.8 664.407   9
   4   2  -2 13652.6 496.387  12
   4   2  -1 2428.02 296.695  16
   4   2  -1 2527.00 278.005   9
   4   2  -1 2465.99 463.785   3
   4   2   0 9356.85 870.223   3
   4   2   0 9497.18 604.633  16
   4   2   1-21.3085 158.982  16
   4   2   1-479.225 267.108   3
   4   2   2 145.716 166.392  16
   4   2   2-270.386 270.390   3
   4   2   3 4358.52 652.706   3
   4   2   3 3899.74 424.168  16
   4   2   4 1089.09 263.244  16
   4   2   4 684.954 363.741   3
   4   2   5 676.747 234.105  16
   4   2   6 631.986 199.928  16
   4   2   6 838.915 182.989  15
   4   2   7 12219.1 632.206  15
  -4  -2  -8 2876.54 322.685   8
  -4  -2  -8 2952.89 366.301  10
   4   2   8 2655.15 320.746  15
  -4  -2  -9 11049.3 567.036   8
  -4  -2  -9 11139.0 636.790  10
   4   2   9 10503.6 571.019  15
  -4  -2 -10 957.734 183.942   8
  -4  -2 -10 710.082 189.485  10
   4   2  10 830.011 179.771  15
  -4  -2 -11 273.458 109.565   8
   4   2  11 307.554 112.250  15
  -4  -2 -12 1236.69 132.087   8
   4   2  12 835.097 111.689  15
   4   3 -12 617.395 150.819  14
   4   3 -12 595.323 136.313   9
   4   3 -11 93.5086 114.642  14
   4   3 -11 216.308 111.293   9
   4   3 -10-95.1258 127.895  14
   4   3 -10 183.610 137.888   9
   4   3  -9 1766.19 290.538  14
   4   3  -9 1237.75 243.285   9
   4   3  -8 7192.83 518.731   9
   4   3  -8 7743.19 583.059  14
   4   3  -7 765.144 238.424  14
   4   3  -7 406.653 178.985   9
   4   3  -6 25376.2 988.877   9
   4   3  -6 29795.3 1193.25  14
   4   3  -5 837.686 196.572  16
   4   3  -5 954.856 289.296  14
   4   3  -5 785.101 207.732   9
   4   3  -4 2514.71 314.352  16
   4   3  -4 2696.36 404.632   6
   4   3  -4 2472.26 328.156   9
   4   3  -4 2845.46 418.153  14
   4   3  -3 5254.84 527.845   6
   4   3  -3 5467.54 444.572  16
   4   3  -3 4869.11 408.218   9
   4   3  -2 21985.0 1007.83   6
   4   3  -2 22025.4 896.779  16
   4   3  -2 22044.9 803.237   9
   4   3  -1 312.427 153.858   6
   4   3  -1 393.159 177.186  16
   4   3  -1 530.010 262.476   3
   4   3  -1 508.889 180.257   9
   4   3   0 115.817 149.374   6
   4   3   0 45.7600 207.272   3
   4   3   1 6487.16 538.881   6
   4   3   1 6341.45 766.637   3
   4   3   2 6257.46 536.690   6
   4   3   2 6157.83 799.852   3
   4   3   3 7664.22 894.820   3
  -4  -3  -4 9012.37 587.410  10
  -4  -3  -5 1817.61 308.588  10
   4   3   5 1701.65 307.170  16
  -4  -3  -6 10271.9 666.125  10
   4   3   6 11259.5 642.554  16
  -4  -3  -7-169.220 178.849  10
  -4  -3  -8 440.601 166.635   8
  -4  -3  -8 351.811 184.118  10
  -4  -3  -9 462.599 154.657   8
  -4  -3  -9 760.584 215.015  10
   4   3   9 157.984 127.488  15
  -4  -3 -10 2540.22 237.836   8
  -4  -3 -10 2500.54 286.208  10
   4   3  10 1965.96 205.456  15
  -4  -3 -11 379.724 101.097   8
  -4  -3 -11 25.0422 103.968  10
  -4  -3 -12 22.0785 44.8282   8
   4   4 -12 5849.79 327.847   9
   4   4 -11 2291.58 257.105   9
   4   4 -10 907.429 191.585   9
   4   4  -9 1491.09 245.757  14
   4   4  -9 1201.68 234.454   9
   4   4  -8 4657.29 421.835   9
   4   4  -8 5890.23 491.278  14
   4   4  -7 15156.3 879.121   6
   4   4  -7 14490.5 737.688   9
   4   4  -7 16427.8 860.256  14
   4   4  -6 10356.9 778.862   6
   4   4  -6 10328.8 637.790   9
   4   4  -6 12130.9 773.226  14
   4   4  -5 3829.65 492.124   6
   4   4  -5 3940.61 403.577   9
   4   4  -4 1257.36 241.580  16
   4   4  -4 1250.51 318.542   6
   4   4  -4 1556.98 260.578   9
   4   4  -3 274.569 167.868  16
   4   4  -3 69.3980 170.340   6
   4   4  -3 397.184 170.634   9
   4   4  -2 5655.58 558.638   6
   4   4  -2 6575.76 517.401  16
   4   4  -2 5850.90 426.615   9
  -4  -4   1 1144.57 223.117  10
   4   4  -1 1226.32 284.118   6
   4   4  -1 1102.32 351.211   3
  -4  -4   0 251.287 146.799  10
   4   4   0-50.6014 195.129   6
   4   4   0-64.6050 362.512   3
  -4  -4  -1 47132.8 1290.66  10
   4   4   1 45335.0 1505.47   6
   4   4   1 48304.6 2200.10   3
  -4  -4  -2 113.509 137.871  10
   4   4   2-22.4330 171.873   6
   4   4   3 656.135 232.460   6
  -4  -4  -3 1163.54 252.976  10
  -4  -4  -4 3040.46 360.680  10
  -4  -4  -5 2888.12 370.468  10
  -4  -4  -6 2575.36 350.078  10
  -4  -4  -7 10488.1 649.037  10
   4   4   7 9967.23 552.172  16
  -4  -4  -8 373.496 139.329   8
  -4  -4  -8 586.238 207.558  10
  -4  -4  -9-150.636 106.093   8
  -4  -4  -9-43.0377 146.522  10
  -4  -4 -10 1536.19 178.174   8
  -4  -4 -10 1718.09 247.805  10
  -4  -4 -11 1699.23 142.315   8
  -4  -4 -11 1485.33 172.816  10
   4   5 -12 401.083 97.1973   9
   4   5 -11 2333.09 238.787   9
   4   5 -10 120.167 134.976   9
   4   5  -9 127.444 133.592   9
   4   5  -8 13655.6 689.566   9
   4   5  -7 2127.30 360.142   6
   4   5  -7 2011.08 305.521   9
   4   5  -6 28251.3 1296.96   6
   4   5  -6 29334.0 1051.22   9
   4   5  -5 6488.35 658.063   6
   4   5  -5 7090.92 531.435   9
   4   5  -4 3283.60 464.803   6
   4   5  -4 3850.06 377.630  16
   4   5  -4 3717.24 382.203   9
   4   5  -3 536.414 210.429  16
   4   5  -3 476.291 241.543   6
   4   5  -3 762.400 190.272   9
  -4  -5   2 1491.15 273.784  10
   4   5  -2 1758.76 381.525   6
   4   5  -2 1909.70 240.649   9
  -4  -5   1 1383.69 258.091  10
   4   5  -1 1561.01 344.810   6
  -4  -5   0 8467.32 585.793  10
   4   5   0 7431.67 674.924   6
  -4  -5  -1 1993.67 318.450  10
   4   5   1 1108.55 295.596   6
  -4  -5  -2 7922.41 586.620  10
   4   5   2 8817.22 714.062   6
  -4  -5  -3 151.389 183.950  10
   4   5   3 257.644 209.500   6
   4   5   4 308.270 200.306   6
  -4  -5  -4 437.088 201.471  10
  -4  -5  -5 1117.08 249.340  10
  -4  -5  -6 1770.99 309.292  10
  -4  -5  -7-11.4922 95.6487   8
  -4  -5  -7-168.426 174.439  10
   4   5   7 8.63074 124.309  16
  -4  -5  -8 102.721 99.1376   8
  -4  -5  -8 302.882 180.453  10
  -4  -5  -9 1390.78 168.796   8
  -4  -5  -9 1516.89 248.835  10
  -4  -5 -10 1521.32 140.573   8
  -4  -5 -10 1481.38 214.290  10
   4   6 -12 5315.66 246.211   9
   4   6 -11 347.318 119.466   9
   4   6 -10 820.860 172.839   9
   4   6  -9 535.367 171.500   9
   4   6  -8 314.175 141.507   9
   4   6  -7 2925.11 332.267   9
   4   6  -6 1964.41 355.232   6
   4   6  -6 2174.27 306.005   9
   4   6  -5 26843.8 1286.68   6
   4   6  -5 27645.8 1002.58   9
   4   6  -4 29909.1 1361.97   6
   4   6  -4 29772.5 963.543  16
   4   6  -4 31253.0 1043.62   9
   4   6  -3 845.793 231.173  16
   4   6  -3 224.677 196.338   6
   4   6  -3 362.577 161.156   9
  -4  -6   2 4778.92 457.420  10
   4   6  -2 4842.04 577.886   6
  -4  -6   1 6614.88 541.775  10
   4   6  -1 7467.99 698.856   6
  -4  -6   0-37.4646 157.251  10
   4   6   0 147.501 190.223   6
  -4  -6  -1 509.874 202.600  10
   4   6   1 718.588 271.298   6
  -4  -6  -2 1653.59 301.807  10
   4   6   2 1267.36 324.940   6
  -4  -6  -3 3346.97 429.739  10
   4   6   3 3022.36 456.257   6
  -4  -6  -4 18373.0 885.687  10
   4   6   4 18705.6 988.800   6
  -4  -6  -5 5749.79 502.880  10
  -4  -6  -6 1182.77 266.336  10
  -4  -6  -7 845.461 151.201   8
   4   6   7 1289.67 208.928  16
  -4  -6  -7 1165.88 236.654  10
  -4  -6  -8 646.293 119.139   8
  -4  -6  -8 688.575 188.209  10
  -4  -6  -9 27.8579 125.062  10
  -4  -6 -10 124.796 98.5593  10
   4   7 -11 5089.97 260.635   9
   4   7 -10 2267.85 215.552   9
   4   7  -9 6943.39 405.166   9
   4   7  -8 1166.64 211.304   9
   4   7  -7-30.2216 127.897   9
   4   7  -6 1577.77 243.907   9
   4   7  -5 2416.10 311.778   9
   4   7  -4 3376.42 335.249   9
  -4  -7   3 75654.7 1757.25  10
   4   7  -3 70371.6 1512.44  16
   4   7  -3 73458.5 2129.56   6
  -4  -7   2 2348.07 352.496  10
   4   7  -2 2067.15 403.348   6
  -4  -7   1 951.408 263.570  10
   4   7  -1 732.955 277.732   6
  -4  -7   0 36.7440 182.468  10
   4   7   0 95.1210 197.060   6
  -4  -7  -1 716.464 274.188  10
   4   7   1 796.952 306.166   6
  -4  -7  -2 149.527 173.638  10
  -4  -7  -3 8241.81 610.030  10
  -4  -7  -4 864.968 236.645  10
  -4  -7  -5 12074.0 683.463  10
  -4  -7  -6 99.1708 148.797  10
  -4  -7  -7 2211.74 291.075  10
   4   7   7 1867.65 216.409  16
  -4  -7  -8 250.748 135.055  10
  -4  -7  -9 6983.38 374.151  10
   4   8 -10 5713.74 259.866   9
   4   8  -9 831.272 137.275   9
   4   8  -8 5899.62 342.916   9
   4   8  -7 2734.72 253.269   9
   4   8  -6 174.303 107.278   9
  -4  -8   5 904.578 219.208  10
   4   8  -5 624.493 155.011   9
  -4  -8   4 2174.38 337.510  10
   4   8  -4 1525.25 199.467   9
  -4  -8   3 643.688 227.546  10
   4   8  -3 689.758 178.630  16
  -4  -8   2 23938.6 998.824  10
  -4  -8   1 6246.81 532.058  10
  -4  -8   0 3580.80 419.053  10
  -4  -8  -1 6484.90 532.439  10
  -4  -8  -2 1173.35 256.336  10
  -4  -8  -3 1415.62 268.086  10
  -4  -8  -4 3023.06 358.823  10
  -4  -8  -5 152.713 150.190  10
  -4  -8  -6 4011.42 358.253  10
  -4  -8  -7 796.825 173.514  10
   4   8   7 678.270 134.536  16
  -4  -8  -8 291.058 111.195  10
  -4  -9   8 3772.03 254.061  10
   4   9  -8 3084.14 183.946   9
  -4  -9   7-75.9030 112.033  10
   4   9  -7-57.2521 74.2013   9
  -4  -9   6 5944.91 396.901  10
   4   9  -6 5097.66 264.828   9
  -4  -9   5 6829.26 447.057  10
  -4  -9   4 367.896 162.809  10
  -4  -9   3 1227.38 239.817  10
  -4  -9   2 434.671 192.356  10
   4   9  -2 204.393 113.196  16
  -4  -9   1 10431.4 608.646  10
  -4  -9   0 14958.9 721.081  10
  -4  -9  -1 851.259 200.555  10
  -4  -9  -2 3176.76 341.349  10
  -4  -9  -3 12251.3 611.842  10
  -4  -9  -4 1159.51 216.021  10
  -4  -9  -5 7.03556 118.271  10
  -4  -9  -6 309.899 124.152  10
   4   9   6 322.176 107.351  16
  -4 -10   6 79.8861 81.6983  10
  -4 -10   5 8768.58 413.844  10
  -4 -10   4 3546.68 290.397  10
  -4 -10   3 1552.12 214.333  10
  -4 -10   2 314.867 137.409  10
  -4 -10   1 1819.15 235.134  10
   4  10  -1 1278.99 154.224  16
  -4 -10   0 2659.41 274.924  10
   4  10   0 1950.67 199.105  16
  -4 -10  -1 19382.1 683.554  10
   4  10   1 16005.3 544.931  16
  -4 -10  -2 107.828 113.604  10
  -4 -10  -3 1592.93 205.306  10
   4  10   3 1064.92 160.278  16
  -4 -10  -4 1105.14 160.700  10
   4  10   4 812.523 123.379  16
   5  -9  -4 6968.27 415.930  18
   5  -9  -3 1106.98 212.505  18
   5  -9  -2 4232.58 366.363  18
   5  -9  -1-2.93476 49.2909  12
   5  -9  -1 1137.15 230.147  18
   5  -9   0 114.280 59.7612  12
   5  -9   0 3714.34 368.174  18
   5  -9   1 216.431 75.6701  12
   5  -9   2 292.291 79.3748  12
   5  -9   3 2579.80 172.191  12
   5  -8  -6 4979.21 436.081  18
   5  -8  -6-162.315 80.9521  13
   5  -8  -5 978.025 226.197  18
   5  -8  -5-12.4658 92.0303  13
   5  -8  -4 161.201 176.249  18
   5  -8  -4-332.479 120.658  13
   5  -8  -3-10.3752 59.9735  12
   5  -8  -3 471.343 224.644  18
   5  -8  -2 1679.45 310.552  18
   5  -8  -2 974.837 134.459  12
   5  -8  -1 417.912 114.904  12
   5  -8  -1 882.103 265.308  18
   5  -8   0 950.158 153.914  12
   5  -8   0 1446.73 279.152  18
   5  -8   1 6950.32 475.557  18
   5  -8   1 3123.76 248.653  12
   5  -8   2 536.960 126.037  12
   5  -8   3 3775.93 277.632  12
   5  -8   4 75.8494 89.0822  12
   5  -8   5 30.1188 77.1139  12
   5  -7  -8 5588.10 249.681  13
   5  -7  -7 4372.36 262.304  13
   5  -7  -6 2902.85 378.646  18
   5  -7  -6 950.503 166.964  13
   5  -7  -5 685.923 275.793  18
   5  -7  -5 149.277 111.096  13
   5  -7  -4 4768.10 335.315  13
   5  -7  -4 3870.92 237.655  12
   5  -7  -3 2188.21 402.999  18
   5  -7  -3 1958.94 197.285  12
   5  -7  -2 1892.37 386.598  18
   5  -7  -2 1676.88 200.189  12
   5  -7  -1 1226.28 196.836  12
   5  -7  -1 1239.13 322.301  18
   5  -7   0 3531.71 433.474  18
   5  -7   0 3183.21 297.966  12
   5  -7   1 10927.5 539.379  12
   5  -7   1 11868.4 690.334  18
   5  -7   2 4860.05 368.220  12
   5  -7   3 934.862 184.403  12
   5  -7   3 1035.47 155.441  15
   5  -7   4 2730.66 269.061  12
   5  -7   4 2665.09 214.584  15
   5  -7   5 3884.67 293.738  12
   5  -7   5 3781.49 236.528  15
   5  -7   6 5708.46 306.655  12
   5  -7   6 6062.39 255.463  15
   5  -6  -9 9077.31 299.370  13
   5  -6  -8 2804.02 214.334  13
   5  -6  -7 216.238 119.429  13
   5  -6  -6 1106.75 194.055   9
   5  -6  -6 782.168 176.340  13
   5  -6  -5 3956.09 479.290  18
   5  -6  -5 3598.96 337.688   9
   5  -6  -5 3137.81 313.562  13
   5  -6  -5 4160.16 267.053  12
   5  -6  -4 18166.2 1000.30  18
   5  -6  -4 17624.1 756.140   9
   5  -6  -4 13999.2 633.939  13
   5  -6  -4 14933.4 546.374  12
   5  -6  -3 324.468 137.697  12
   5  -6  -3 664.923 321.070  18
   5  -6  -3 374.441 167.060   9
   5  -6  -3-180.276 154.345  13
   5  -6  -2 1819.46 242.808  12
   5  -6  -2 2254.73 432.903  18
   5  -6  -2 1486.38 272.963   9
   5  -6  -1 255.344 150.170  12
   5  -6  -1 241.546 279.417  18
   5  -6   0 8439.33 515.663  12
   5  -6   0 9655.77 769.042  18
   5  -6   1 5900.93 441.380  12
   5  -6   1 6818.34 588.156  18
   5  -6   1 5867.93 359.985  15
   5  -6   2 3127.08 340.281  12
   5  -6   2 3259.83 280.914  15
   5  -6   3 1384.95 236.235  12
   5  -6   3 1413.07 186.616  15
   5  -6   4 18476.2 719.939  12
   5  -6   4 18105.0 599.600  15
   5  -6   5 12.0435 116.904  12
   5  -6   5 129.441 96.7761  15
   5  -6   6 5900.23 359.302  12
   5  -6   6 6482.20 328.046  15
   5  -6   7 67.7984 78.8232  12
   5  -6   7 221.674 87.0403  15
   5  -6   8 579.450 83.6832  15
   5  -5  -9 7223.93 325.844  13
   5  -5  -8 201.622 106.007   9
   5  -5  -8 619.073 146.498  13
   5  -5  -7 1336.52 210.879   9
   5  -5  -7 922.394 197.863  13
   5  -5  -6 1155.00 220.001   9
   5  -5  -6 560.457 186.039  13
   5  -5  -5 75.6669 93.0372  12
   5  -5  -5-49.9244 135.148   9
   5  -5  -5-7.02776 148.302  13
   5  -5  -4 75.5137 101.491  12
   5  -5  -4 426.484 300.563  18
   5  -5  -4 257.759 197.743   9
   5  -5  -4-321.615 179.892  13
   5  -5  -3 12306.9 904.855  18
   5  -5  -3 11726.1 688.752   9
   5  -5  -3 10861.2 554.755  12
   5  -5  -2 222.237 145.358  12
   5  -5  -2 297.998 329.962  18
   5  -5  -2 96.5649 162.173   9
   5  -5  -1 4840.59 607.528  18
   5  -5  -1 4526.45 466.304   9
   5  -5  -1 4633.93 409.354  12
   5  -5   0 1313.46 249.189  12
   5  -5   0 1436.81 218.270  15
   5  -5   0 1209.11 264.728   9
   5  -5   1 408.886 177.818  12
   5  -5   1 573.118 170.092  15
   5  -5   2 719.582 211.155  12
   5  -5   2 738.791 173.020  15
   5  -5   3 420.393 173.082  12
   5  -5   3 426.278 151.224  15
   5  -5   4 3777.85 352.752  12
   5  -5   4 4173.72 328.406  15
   5  -5   5 13254.3 607.327  12
   5  -5   5 13807.7 569.666  15
   5  -5   6 1251.90 184.974  12
   5  -5   6 1395.33 193.900  15
   5  -5   7 683.812 134.864  12
   5  -5   7 724.648 150.542  15
   5  -5   8 1327.62 154.419  15
   5  -5   9 171.963 62.5508  15
   5  -4 -10 8362.87 426.084  14
   5  -4  -9 2635.76 220.614   9
   5  -4  -9 3089.79 311.071  14
   5  -4  -8 909.708 171.485   9
   5  -4  -8 932.304 221.305  14
   5  -4  -7 4949.42 400.294   9
   5  -4  -7 5422.02 456.626  14
   5  -4  -6 2285.49 324.031  14
   5  -4  -6 2051.94 294.061   9
   5  -4  -5 524.155 149.903  12
   5  -4  -5 451.033 193.879   9
   5  -4  -5-54.6002 143.978  13
   5  -4  -4-106.053 131.152  12
   5  -4  -4-119.341 159.856   9
   5  -4  -4-61.8292 147.693  13
   5  -4  -3 919.138 200.990  12
   5  -4  -3 940.095 251.312   9
   5  -4  -3 555.176 184.890  13
   5  -4  -2 106646. 2139.40   9
   5  -4  -2 109645. 1866.66  12
   5  -4  -1 34673.6 1530.46  18
   5  -4  -1 35581.5 1244.10   9
   5  -4  -1 34792.9 935.017  15
   5  -4  -1 33807.2 1079.34  12
   5  -4   0 166.901 186.732  12
   5  -4   0 570.905 168.968  15
   5  -4   0 315.319 226.872   9
   5  -4   1 4923.53 434.002  12
   5  -4   1 5051.34 488.731   9
   5  -4   1 4976.68 368.252  15
   5  -4   2 1863.53 286.095  12
   5  -4   2 2014.21 324.606   9
   5  -4   2 1903.47 245.382  15
   5  -4   3 2025.63 299.630  12
   5  -4   3 2333.51 272.390  15
   5  -4   4 7881.88 525.096  12
   5  -4   4 8714.98 494.474  15
   5  -4   5 14.4669 137.116  12
   5  -4   5 222.319 135.288  15
   5  -4   6 17381.9 652.364  12
   5  -4   6 17933.3 676.930  15
   5  -4   7 13279.1 487.259  12
   5  -4   7 15637.2 593.037  15
   5  -4   8 1541.88 197.147  15
   5  -4   9 4367.83 243.662  15
   5  -3 -11 1389.53 193.314  14
   5  -3 -10 26.0753 107.948  14
   5  -3  -9 93.3143 105.440   9
   5  -3  -9 75.4776 134.128  14
   5  -3  -8 972.589 195.364   9
   5  -3  -8 1129.35 248.501  14
   5  -3  -7 1613.77 255.647   9
   5  -3  -7 1472.20 284.562  14
   5  -3  -6 8835.88 587.939   9
   5  -3  -6 9942.48 688.677  14
   5  -3  -5 2487.34 346.639   9
   5  -3  -5 2158.55 341.757  14
   5  -3  -5 2067.61 252.523  12
   5  -3  -4 1472.10 214.499  12
   5  -3  -4 1602.97 290.272   9
   5  -3  -4 1241.36 223.713  13
   5  -3  -3 342.088 141.076  12
   5  -3  -3 241.866 198.738   9
   5  -3  -3 550.942 166.485  13
   5  -3  -2 3901.22 405.639  16
   5  -3  -2 3623.12 428.244   9
   5  -3  -2 3538.09 351.997  12
   5  -3  -1 3830.97 389.915  16
   5  -3  -1 3101.84 410.395   9
   5  -3  -1 3268.67 299.642  15
   5  -3  -1 3650.69 372.422  12
   5  -3   0 43915.8 1216.06  16
   5  -3   0 43468.5 1375.75   9
   5  -3   0 40647.2 1029.23  15
   5  -3   0 43262.8 1215.47  12
   5  -3   1 3292.50 354.955  12
   5  -3   1 3513.47 361.467  16
   5  -3   1 3522.72 410.621   9
   5  -3   1 3448.06 321.724  15
   5  -3   2 43.1535 157.313  12
   5  -3   2 170.825 152.635  16
   5  -3   2 126.194 117.682  15
   5  -3   2 88.3392 143.398   9
   5  -3   3 1743.04 262.117  12
   5  -3   3 2367.90 289.050  16
   5  -3   3 1893.28 258.978  15
   5  -3   4 2080.65 277.682  12
   5  -3   4 1889.54 270.526  15
   5  -3   5 1424.97 233.382  12
   5  -3   5 1213.94 215.375  15
   5  -3   6 6086.38 378.646  12
   5  -3   6 7188.67 470.407  15
   5  -3   7 2152.39 258.192  15
   5  -3   8 14161.9 570.419  15
   5  -3   9 386.996 119.560  15
   5  -3  10 667.828 97.2213  15
   5  -2 -12 89.6310 82.8791  14
   5  -2 -11 162.105 108.920  14
   5  -2 -10 5924.77 328.039   9
   5  -2 -10 7760.50 515.844  14
   5  -2  -9 6096.83 399.222   9
   5  -2  -9 7604.95 570.616  14
   5  -2  -8 7244.86 481.699   9
   5  -2  -8 8178.82 629.338  14
   5  -2  -7 18856.6 818.535   9
   5  -2  -7 20178.6 1021.83  14
   5  -2  -6 541.366 201.790   9
   5  -2  -6 651.879 219.845  14
   5  -2  -5 13809.0 771.911   9
   5  -2  -5 14192.8 865.538  14
   5  -2  -5 15098.2 582.222  13
   5  -2  -4 664.102 159.443  12
   5  -2  -4 1011.06 222.910  16
   5  -2  -4 389.301 190.390   9
   5  -2  -3 9754.56 573.499  16
   5  -2  -3 10243.3 679.497   9
   5  -2  -3 9431.98 532.803  12
   5  -2  -2 1719.18 257.485  16
   5  -2  -2 2199.52 241.384  15
   5  -2  -2 2410.15 371.915   9
   5  -2  -2 1967.92 264.860  12
   5  -2  -1 93.0624 133.802  12
   5  -2  -1 56.8498 155.433  16
   5  -2  -1 20.9260 115.017  15
   5  -2  -1 160.596 224.017   9
   5  -2   0 2495.28 321.132  16
   5  -2   0 2826.51 360.370   9
   5  -2   0 2371.51 260.790  15
   5  -2   0 2545.54 309.299  12
   5  -2   1 71782.0 1527.26  16
   5  -2   1 71918.9 1674.03   9
   5  -2   1 71954.8 1383.83  15
   5  -2   1 68431.0 1472.14  12
   5  -2   2 5030.34 403.598  12
   5  -2   2 5371.94 428.206  16
   5  -2   2 4748.93 432.286   9
   5  -2   2 5291.44 400.761  15
   5  -2   3 11927.2 597.829  12
   5  -2   3 13746.6 629.678  16
   5  -2   3 11337.7 587.734   9
   5  -2   3 13046.3 630.516  15
   5  -2   4 695.241 172.844  12
   5  -2   4 623.888 196.096  15
  -5   2  -5 10828.3 510.102   8
   5  -2   5 13208.6 673.192  15
  -5   2  -6 1870.06 228.428   8
   5  -2   6 2161.47 289.327  15
  -5   2  -7 3441.17 269.396   8
   5  -2   7 4304.47 372.151  15
  -5   2  -8 258.872 96.8010   8
   5  -2   8 261.585 134.496  15
  -5   2  -9 1248.07 127.492   8
   5  -2   9 1804.22 200.346  15
   5  -2  10 1163.72 131.892  15
   5  -1 -12 1777.31 197.160  14
   5  -1 -11 3188.59 209.724   9
   5  -1 -11 4525.24 360.689  14
   5  -1 -10 7154.83 384.662   9
   5  -1 -10 8830.06 569.481  14
   5  -1  -9 49.1610 127.897   9
   5  -1  -9 216.513 181.788  14
   5  -1  -8 294.329 166.449   9
   5  -1  -8 189.751 199.568  14
   5  -1  -7 47.1941 165.285   9
   5  -1  -7 213.055 212.933  14
   5  -1  -6 17874.4 868.293   9
   5  -1  -6 20108.7 1079.66  14
   5  -1  -5 3109.69 327.606  16
   5  -1  -5 3411.87 406.909   9
   5  -1  -5 3649.36 490.116  14
   5  -1  -4 752.004 261.898   9
   5  -1  -4 1348.11 227.054  12
   5  -1  -3 27967.9 938.521  16
   5  -1  -3 27728.2 854.797  12
   5  -1  -2 3766.67 380.522  16
   5  -1  -2 4786.58 478.961   9
   5  -1  -2 3919.34 345.995  12
   5  -1  -1 8374.11 544.985  16
   5  -1  -1 9792.25 643.974   9
   5  -1  -1 8819.67 435.763  15
   5  -1  -1 8024.06 486.809  12
   5  -1   0 17941.7 820.407  16
   5  -1   0 19025.1 858.670   9
   5  -1   0 18349.0 647.580  15
   5  -1   0 16906.9 689.030  12
   5  -1   1 2906.37 341.279   9
   5  -1   1 2115.11 305.731  16
   5  -1   1 2663.29 278.806  15
   5  -1   1 2684.35 289.149  12
   5  -1   2 70890.5 1541.02  16
   5  -1   2 68761.0 1440.04   9
   5  -1   2 71544.6 1374.81  15
   5  -1   2 67046.0 1304.01  12
   5  -1   3 29470.0 967.042  16
   5  -1   3 28775.9 921.014  15
   5  -1   4 29160.9 900.854  16
   5  -1   4 29325.5 948.316  15
   5  -1   5 6154.79 455.148  15
  -5   1  -6 1857.30 254.093   8
   5  -1   6 1893.37 261.635  15
  -5   1  -7 923.140 183.933   8
   5  -1   7 1082.26 217.174  15
  -5   1  -8 158.196 102.502   8
   5  -1   8 334.179 147.305  15
  -5   1  -9 8862.19 345.801   8
   5  -1   9 11560.6 480.599  15
  -5   1 -10 4720.31 199.479   8
   5  -1  10 5659.88 266.928  15
   5   0 -11 9160.23 374.712   9
   5   0 -11 11436.3 570.227  14
   5   0 -10 490.509 162.744   9
   5   0 -10 321.483 151.615  14
   5   0  -9 5856.19 420.872   9
   5   0  -9 7476.70 586.768  14
   5   0  -8 33.1375 135.492   9
   5   0  -8 311.575 244.113  14
   5   0  -7 6613.95 515.610   9
   5   0  -7 7361.00 657.714  14
   5   0  -6 734.814 181.778  16
   5   0  -6 802.334 217.618   9
   5   0  -6 949.705 312.060  14
   5   0  -5 2361.50 299.754  16
   5   0  -5 2075.64 371.571  14
   5   0  -5 2339.78 348.174   9
   5   0  -4 13515.3 678.824  16
   5   0  -4 14230.5 786.663   9
   5   0  -3 372.736 183.473  12
   5   0  -3 62.4675 130.075  16
   5   0  -3 174.448 181.635   9
   5   0  -2 16465.0 759.095  16
   5   0  -2 18060.2 872.957   9
   5   0  -1 937.092 159.570  12
   5   0  -1 1599.71 289.962  16
   5   0  -1 1757.85 298.304   9
   5   0   0 1384.21 200.784  12
   5   0   0 1098.90 242.102  16
   5   0   0 1526.44 267.129   9
   5   0   1 228.621 106.908  12
   5   0   1 127.982 309.812  16
   5   0   1 167.702 103.056  15
   5   0   1-5.60038 147.042   9
   5   0   2 7440.33 547.636  16
   5   0   2 7138.33 418.502  15
   5   0   3 1449.59 286.021  16
   5   0   3 901.779 179.353  15
   5   0   4 21950.4 835.029  16
   5   0   4 22043.3 784.967  15
   5   0   5 6024.27 403.053  16
   5   0   5 5431.16 410.248  15
  -5   0  -6 5187.18 370.067   8
   5   0   6 6359.57 427.619  15
  -5   0  -7 4104.88 322.263   8
   5   0   7 4647.83 359.533  15
  -5   0  -8 693.550 150.069   8
   5   0   8 984.079 182.085  15
  -5   0  -9 367.849 105.519   8
   5   0   9 186.863 95.4600  15
  -5   0 -10 1771.06 136.806   8
   5   1 -11 993.179 188.419  14
   5   1 -11 796.812 141.853   9
   5   1 -10 1002.68 179.372   9
   5   1 -10 793.896 206.393  14
   5   1  -9 3436.17 333.105   9
   5   1  -9 3525.51 402.537  14
   5   1  -8 161.613 142.289   9
   5   1  -8 52.2051 179.436  14
   5   1  -7 1143.60 250.611   9
   5   1  -7 1219.65 316.558  14
   5   1  -6 17783.7 661.227  16
   5   1  -6 17740.6 827.392   9
   5   1  -6 19554.2 1056.50  14
   5   1  -5 178.820 187.360  16
   5   1  -5 232.427 191.866   9
   5   1  -4 627.998 208.523  16
   5   1  -4 759.164 251.011   9
   5   1  -3 11148.6 666.558  16
   5   1  -3 10182.6 662.835   9
   5   1  -2 5605.69 455.277  16
   5   1  -2 5382.19 466.995   9
   5   1  -1 3194.09 367.233  16
   5   1  -1 3402.72 364.534   9
   5   1  -1 3017.35 263.147  12
   5   1   0 291.316 95.5952  12
   5   1   0 762.285 228.577  16
   5   1   0 497.600 185.091   9
   5   1   1 39682.3 1252.82  16
   5   1   2 54553.7 1461.01  16
   5   1   3-8.33895 201.942  16
   5   1   4 7688.80 525.142  16
   5   1   5 8273.34 492.866  16
   5   1   5 8482.51 461.571  15
   5   1   6 7955.62 442.345  15
  -5  -1  -7-62.0217 103.108   8
   5   1   7 86.3905 108.302  15
  -5  -1  -8 363.324 131.883   8
   5   1   8 506.852 132.210  15
  -5  -1  -9 7260.44 333.629   8
   5   1   9 6854.95 300.271  15
  -5  -1 -10 73.3276 57.9078   8
   5   2 -11 12216.4 457.583   9
   5   2 -10 6553.44 391.328   9
   5   2  -9 967.884 191.995   9
   5   2  -8 185.624 152.315   9
   5   2  -7 17244.9 775.713   9
   5   2  -6 1226.93 195.643  16
   5   2  -6 1495.48 277.258   9
   5   2  -5 11930.6 577.953  16
   5   2  -5 12795.2 705.425   9
   5   2  -4 1588.14 245.171  16
   5   2  -4 2032.00 314.754   9
   5   2  -3 690.053 221.347  16
   5   2  -3 913.468 261.447   9
   5   2  -2 9530.76 606.425  16
   5   2  -2 9428.70 584.757   9
   5   2  -1 4235.86 429.997  16
   5   2  -1 3652.56 367.255   9
   5   2   0 9828.04 647.415  16
   5   2   1 60919.9 1576.51  16
   5   2   2 11357.4 702.654  16
   5   2   3 2940.99 380.391  16
   5   2   4 429.726 200.837  16
   5   2   5 8305.96 508.363  16
   5   2   6 2666.11 257.564  16
  -5  -2  -7 7311.21 407.726   8
  -5  -2  -8 971.976 167.181   8
  -5  -2  -9 2712.39 203.566   8
  -5  -2 -10 861.512 98.2816   8
   5   3 -11 2577.98 209.177   9
   5   3 -10 452.897 139.536   9
   5   3  -9 6167.41 400.187   9
   5   3  -8 4918.12 392.663   9
   5   3  -7 44.9967 146.864   9
   5   3  -6 632.416 206.367   9
   5   3  -5 2188.99 260.067  16
   5   3  -5 2070.65 312.058   9
   5   3  -4-42.4967 128.112  16
   5   3  -4 10.8410 144.805   9
   5   3  -3 6617.49 489.249  16
   5   3  -3 6632.06 483.965   9
   5   3  -2 139.589 162.132  16
   5   3  -2 22.8240 121.734   9
   5   3  -1 40469.7 1260.30  16
   5   3  -1 40366.0 1052.21   9
   5   3   0 11270.8 709.280  16
   5   3   1 293.823 198.054  16
   5   3   2 39.1725 184.620  16
   5   3   3 944.160 264.323  16
   5   3   4 1218.61 268.233  16
   5   3   5 1677.19 247.263  16
   5   3   6 2174.62 239.042  16
  -5  -3  -7 3712.45 288.560   8
  -5  -3  -8 1370.74 170.091   8
  -5  -3  -9 2398.44 175.990   8
   5   4 -11 331.940 93.7140   9
   5   4 -10 2828.91 239.081   9
   5   4  -9 2588.15 252.957   9
   5   4  -8 1891.61 244.697   9
   5   4  -7 1315.32 226.520   9
   5   4  -6 1362.14 243.224   9
   5   4  -5 301.710 127.040  16
   5   4  -5 112.994 137.003   9
   5   4  -4 5959.82 427.965  16
   5   4  -4 5891.38 453.118   9
   5   4  -3 2108.23 297.355  16
   5   4  -3 1950.19 277.991   9
   5   4  -2 39634.8 1202.34  16
   5   4  -2 39097.2 1032.52   9
   5   4  -1 1720.15 306.543  16
   5   4   0 7336.30 564.030  16
   5   4   1 4595.53 467.700  16
   5   4   2 736.859 253.305  16
   5   4   3 394.025 201.055  16
   5   4   4 8889.86 570.276  16
   5   4   5 542.311 170.829  16
   5   4   6 4180.64 295.934  16
  -5  -4  -7 132.898 86.0438   8
  -5  -4  -8 1269.91 145.852   8
   5   5 -10 1150.43 142.796   9
   5   5  -9 491.352 129.203   9
   5   5  -8 679.461 157.368   9
   5   5  -7 4632.65 354.634   9
   5   5  -6 1558.55 243.116   9
   5   5  -5 278.907 171.452   9
   5   5  -4 14345.1 607.086  16
   5   5  -4 14927.4 658.306   9
   5   5  -3 19198.2 773.340  16
   5   5  -3 21183.0 739.312   9
   5   5  -2 248.816 174.162  16
   5   5  -1 1189.78 254.015  16
   5   5   0 5998.02 495.115  16
   5   5   1 212.498 213.064  16
   5   5   2 2955.48 370.813  16
   5   5   3 451.159 203.120  16
   5   5   4 10010.7 580.938  16
   5   5   5 15522.6 630.991  16
  -5  -5  -6 2847.51 232.513   8
   5   5   6 2813.17 231.641  16
  -5  -5  -7-33.8917 68.8581   8
   5   6  -9 189.290 80.4166   9
   5   6  -8 178.893 98.4583   9
   5   6  -7 2282.35 226.570   9
   5   6  -6 7322.75 410.162   9
   5   6  -5 746.425 159.551   9
   5   6  -4 2048.58 213.588  16
   5   6  -4 2056.30 232.794   9
  -5  -6   3 8888.18 511.848  10
   5   6  -3 7385.01 445.080  16
  -5  -6   2 622.778 183.699  10
   5   6  -2 592.840 187.028  16
  -5  -6   1 3104.50 307.180  10
   5   6  -1 2921.03 331.156  16
  -5  -6   0 61.5364 131.670  10
   5   6   0-5.58923 153.077  16
  -5  -6  -1 2357.45 271.600  10
   5   6   1 2362.78 311.486  16
  -5  -6  -2 58.4814 110.069  10
   5   6   2 243.236 176.827  16
  -5  -6  -3 621.946 153.618  10
   5   6   3 505.765 181.183  16
  -5  -6  -4 164.090 126.576  10
   5   6   4-22.6932 135.992  16
  -5  -6  -5 674.813 124.187   8
  -5  -6  -5 832.745 151.768  10
   5   6   5 960.931 177.644  16
  -5  -6  -6 129.851 67.2457   8
   5   6   6 85.8419 83.0519  16
   5   7  -7 2311.33 182.893   9
   5   7  -6 4704.94 261.000   9
  -5  -7   5 791.589 160.939  10
   5   7  -5 519.804 112.203   9
  -5  -7   4 488.510 154.028  10
  -5  -7   3 1082.49 191.914  10
   5   7  -3 1068.35 160.934  16
  -5  -7   2 3861.09 331.770  10
   5   7  -2 3348.71 290.786  16
  -5  -7   1 1329.25 217.120  10
   5   7  -1 1516.66 224.969  16
  -5  -7   0 2843.65 290.896  10
   5   7   0 2429.77 286.547  16
  -5  -7  -1-180.567 117.518  10
   5   7   1 104.772 154.652  16
  -5  -7  -2 6399.03 380.788  10
   5   7   2 7107.69 460.329  16
  -5  -7  -3 68.2113 95.7163  10
   5   7   3-36.4049 131.682  16
  -5  -7  -4 1866.04 152.259   8
  -5  -7  -4 2231.21 213.994  10
   5   7   5 265.092 95.7511  16
  -5  -8   4 154.651 88.6546  10
  -5  -8   3 12572.9 476.937  10
  -5  -8   2 15.8244 102.390  10
   5   8  -2 336.538 99.3151  16
  -5  -8   1 6772.21 367.908  10
   5   8  -1 5809.26 318.527  16
  -5  -8   0 2045.36 206.671  10
   5   8   0 2367.53 227.732  16
  -5  -8  -1 6105.13 335.715  10
   5   8   1 5895.04 346.961  16
  -5  -8  -2 1063.78 150.575  10
   5   8   2 1089.53 170.257  16
   5   8   3 128.849 101.270  16
   6  -6  -2 2692.56 178.399  12
   6  -6  -1 196.141 67.5374  12
   6  -6   0 112.564 66.8206  12
   6  -6   1 8507.21 299.380  12
   6  -6   2 289.139 69.1690  12
   6  -5  -3 8679.06 324.576  12
   6  -5  -2 1239.64 140.578  12
   6  -5  -1 880.173 125.246  12
   6  -5   0 750.145 126.468  12
   6  -5   1 276.515 92.6097  12
   6  -5   2 78.5902 71.0119  12
   6  -5   3 1206.61 125.554  12
   6  -4  -6 4491.74 281.789   9
   6  -4  -5 2390.69 259.534   9
   6  -4  -4 1020.56 185.250   9
   6  -4  -3 85.4532 114.464   9
   6  -4  -3 5636.44 318.329  12
   6  -4  -2 1706.47 241.509   9
   6  -4  -2 3082.19 241.250  12
   6  -4  -1 3102.30 234.758  12
   6  -4   0 3918.04 300.768  12
   6  -4   1 60.3461 74.4125  12
   6  -4   2 15.2095 71.3535  12
   6  -4   3 577.181 106.538  12
   6  -4   4 5644.78 251.700  15
   6  -4   5 4146.68 194.382  15
   6  -3  -7 264.354 103.778   9
   6  -3  -6 655.926 147.637   9
   6  -3  -5 590.006 166.560   9
   6  -3  -4 1091.44 201.799   9
   6  -3  -3 3500.18 342.928   9
   6  -3  -3 12020.5 431.432  12
   6  -3  -2 3645.09 344.769   9
   6  -3  -2 4702.75 279.729  12
   6  -3  -1 2844.73 313.058   9
   6  -3  -1 3027.76 232.311  12
   6  -3   0 3846.69 326.018   9
   6  -3   0 3880.21 258.138  12
   6  -3   1 4754.53 285.165  12
   6  -3   2 142.649 76.6148  12
   6  -3   2 213.532 93.4479  15
   6  -3   3 5503.44 271.542  15
   6  -3   3 3917.50 216.146  12
   6  -3   4 1440.04 144.230  15
   6  -3   5 1331.97 126.191  15
   6  -2  -8 2833.63 210.716   9
   6  -2  -7 924.377 156.758   9
   6  -2  -6 499.556 214.440   9
   6  -2  -5 675.273 186.662   9
   6  -2  -4 12021.2 589.156   9
   6  -2  -3 10078.9 550.016   9
   6  -2  -2 601.562 178.062   9
   6  -2  -2 5655.10 353.802  12
   6  -2  -1 1752.04 253.295   9
   6  -2  -1 2943.82 227.749  12
   6  -2   0 8103.19 452.341   9
   6  -2   0 7772.36 346.223  12
   6  -2   1 186.520 82.1349  12
   6  -2   2 658.120 114.896  15
   6  -2   2 936.861 128.101  12
   6  -2   3 964.608 127.503  15
   6  -2   4 504.871 94.5908  15
   6  -2   5 107.608 66.2513  15
   6  -1  -8 79.1462 86.9956   9
   6  -1  -7 3873.62 290.497   9
   6  -1  -6 113.235 129.420   9
   6  -1  -5 5397.99 394.360   9
   6  -1  -4 759.677 396.879   9
   6  -1  -3 305.479 157.909   9
   6  -1  -2-32.9907 121.236  16
   6  -1  -2-1.18332 123.136   9
   6  -1  -1 28.2570 126.063  16
   6  -1  -1 131.486 129.967   9
   6  -1   0 2906.04 289.337  16
   6  -1   0 2378.39 254.195   9
   6  -1   1 15899.0 623.349  16
   6  -1   1 14141.5 391.564  12
   6  -1   2 363.994 158.714  16
   6  -1   3 4101.16 212.367  15
   6  -1   4 1953.76 144.837  15
   6   0  -8 393.756 113.123   9
   6   0  -7 125.953 103.601   9
   6   0  -6 17741.5 664.212   9
   6   0  -5 221.222 164.782   9
   6   0  -4 3106.53 322.994   9
   6   0  -3 451.891 147.125  16
   6   0  -3 978.009 218.955   9
   6   0  -2 3087.10 293.189  16
   6   0  -2 2279.31 263.729   9
   6   0  -1 1358.23 211.989  16
   6   0  -1 918.504 169.730   9
   6   0   0-21.4561 120.206  16
   6   0   0-122.275 107.957   9
   6   0   1 984.215 189.082  16
   6   0   2 32447.4 834.881  16
   6   0   3 7409.22 377.998  16
  -6   0  -4 3324.27 216.182   8
   6   0   4 4330.07 250.634  16
  -6   0  -5 2450.19 172.150   8
   6   1  -8 839.210 135.910   9
   6   1  -7 8727.60 422.940   9
   6   1  -6 72.3469 113.787   9
   6   1  -5 5438.51 388.118   9
   6   1  -4 11967.0 492.367  16
   6   1  -4 10901.5 543.101   9
   6   1  -3 392.242 142.448  16
   6   1  -3 283.182 136.586   9
   6   1  -2 551.301 154.633  16
   6   1  -2 886.992 185.871   9
   6   1  -1 499.242 158.279  16
   6   1  -1 531.938 134.074   9
   6   1   0 86.6153 125.525  16
   6   1   1 8287.49 462.896  16
   6   1   2 1092.85 190.593  16
   6   1   3 6648.80 353.528  16
  -6  -1  -4 7605.26 326.277   8
   6   1   4 9655.28 362.687  16
  -6  -1  -5 2736.04 189.291   8
  -6  -1  -6 10057.4 292.834   8
   6   2  -8 2732.98 205.398   9
   6   2  -7 1133.50 166.498   9
   6   2  -6 539.845 146.598   9
   6   2  -5 169.280 131.478   9
   6   2  -4 41.3416 98.3907  16
   6   2  -4 14.6729 112.982   9
   6   2  -3 3303.57 278.162  16
   6   2  -3 3047.00 273.793   9
   6   2  -2 1322.48 199.973  16
   6   2  -2 1128.21 184.920   9
   6   2  -1 5088.90 355.823  16
   6   2   0 5329.20 373.284  16
   6   2   1 11198.3 517.482  16
   6   2   2 93.3834 119.194  16
   6   2   3 1542.41 186.079  16
  -6  -2  -4 3030.86 207.378   8
   6   2   4 3809.92 230.615  16
  -6  -2  -5 2532.05 177.533   8
   6   3  -7 491.963 118.404   9
   6   3  -6 2182.58 225.530   9
   6   3  -5 444.457 138.269   9
   6   3  -4 98.6728 92.0779  16
   6   3  -4 38.3523 98.7121   9
   6   3  -3 5004.01 310.941  16
   6   3  -3 4150.31 282.549   9
   6   3  -2 40441.7 900.535  16
   6   3  -1 284.812 127.156  16
   6   3   0 10226.8 482.412  16
   6   3   1 458.183 146.217  16
   6   3   2 384.077 132.937  16
   6   3   3 6099.38 326.715  16
  -6  -3  -4 317.802 107.244   8
   6   3   4 52.9297 80.2873  16
  -6  -3  -5 6475.82 260.150   8
   6   4  -5 25.5120 79.0680   9
   6   4  -4 71.8721 71.0548  16
   6   4  -3 6223.25 304.634  16
   6   4  -2 171.995 99.8926  16
   6   4  -1 296.707 118.208  16
   6   4   0 3537.08 278.736  16
   6   4   1 5829.31 341.484  16
   6   4   2-93.6510 98.8922  16
   6   4   3 1097.09 148.746  16
  -6  -4  -4 666.190 99.2562   8
   6   5  -3 4210.44 207.350  16
   6   5  -2 3299.50 212.153  16
   6   5  -1 218.878 93.7934  16
   6   5   0 9572.69 388.118  16
   6   5   1 1420.40 167.555  16
   6   5   2 881.468 132.849  16
   0   0   0    0.00    0.00   0
TITL ddLiInicDioxane in P-1
REM P-1 (#2 in standard setting)
CELL 1.54184   5.399224  11.140801  13.681105  90.8853  94.2501  91.8252
ZERR    4.00   0.000239   0.000622   0.000785   0.0046   0.0041   0.0040
LATT  1
SFAC C H Li N O
UNIT 24.00 16.00 4.00 4.00 8.00
TREF
HKLF 4
END
;
_shelx_hkl_checksum              35376
#END Tags that were not found in dictionaries
loop_
_space_group_symop_operation_xyz
'x, y, z'
'-x, -y, -z'
loop_
_atom_site_label
_atom_site_type_symbol
_atom_site_fract_x
_atom_site_fract_y
_atom_site_fract_z
_atom_site_U_iso_or_equiv
_atom_site_adp_type
_atom_site_occupancy
_atom_site_site_symmetry_order
_atom_site_calc_flag
_atom_site_refinement_flags_posn
_atom_site_refinement_flags_adp
_atom_site_refinement_flags_occupancy
C1S C 0.0696(6) 0.5855(3) 0.4335(2) 0.0351(7) Uani 1 1 d . . .
H1S1 H 0.0455 0.6227 0.3684 0.042 Uiso 1 1 calc R U .
H1S2 H 0.2041 0.6314 0.4721 0.042 Uiso 1 1 calc R U .
C2S C -0.1673(6) 0.5913(3) 0.4850(2) 0.0378(7) Uani 1 1 d . . .
H2S1 H -0.2107 0.6762 0.4937 0.045 Uiso 1 1 calc R U .
H2S2 H -0.3043 0.5500 0.4442 0.045 Uiso 1 1 calc R U .
C110 C 0.4711(11) 0.0397(5) 0.0940(4) 0.0758(15) Uani 1 1 d . . .
O102 O 0.6356(13) -0.0469(7) 0.0786(3) 0.100(3) Uani 0.6667 1 d . . P
C101 C 0.7257(19) 0.0307(11) 0.0484(8) 0.039(2) Uani 0.3333 1 d . . P
C103 C 0.2905(17) 0.0629(9) 0.0193(6) 0.078(2) Uani 0.6667 1 d . . P
O104 O 0.466(3) 0.1194(9) 0.0169(8) 0.077(3) Uani 0.3333 1 d . . P
O1 O 0.4674(3) 0.12653(16) 0.43144(14) 0.0237(5) Uani 1 1 d . . .
O1S O 0.1400(4) 0.4640(2) 0.42170(16) 0.0361(5) Uani 1 1 d . . .
C1 C 0.4304(5) -0.1732(3) 0.3304(2) 0.0264(6) Uani 1 1 d . . .
H1 H 0.5544 -0.1605 0.3828 0.032 Uiso 1 1 calc R U .
C2 C 0.0512(5) -0.1303(3) 0.2562(2) 0.0275(6) Uani 1 1 d . . .
H2 H -0.0956 -0.0854 0.2545 0.033 Uiso 1 1 calc R U .
C3 C 0.0739(5) -0.2147(3) 0.1819(2) 0.0256(6) Uani 1 1 d . . .
H3 H -0.0566 -0.2287 0.1321 0.031 Uiso 1 1 calc R U .
C4 C 0.4710(5) -0.2573(2) 0.2583(2) 0.0243(6) Uani 1 1 d . . .
H4 H 0.6205 -0.3002 0.2612 0.029 Uiso 1 1 calc R U .
C5 C 0.2905(5) -0.2781(2) 0.18169(18) 0.0210(6) Uani 1 1 d . . .
C6 C 0.3351(5) -0.3670(2) 0.09965(18) 0.0199(5) Uani 1 1 d . . .
C7 C 0.6813(5) 0.1313(2) 0.40281(18) 0.0196(5) Uani 1 1 d . . .
C8 C 0.7301(5) 0.2226(2) 0.32461(19) 0.0211(6) Uani 1 1 d . . .
C9 C 0.9319(5) 0.2178(3) 0.2676(2) 0.0259(6) Uani 1 1 d . . .
H9 H 1.0504 0.1571 0.2774 0.031 Uiso 1 1 calc R U .
C10 C 0.9574(5) 0.3033(3) 0.1962(2) 0.0294(6) Uani 1 1 d . . .
H10 H 1.0943 0.2981 0.1567 0.035 Uiso 1 1 calc R U .
C11 C 0.6101(5) 0.3975(3) 0.2367(2) 0.0281(6) Uani 1 1 d . . .
H11 H 0.4987 0.4613 0.2275 0.034 Uiso 1 1 calc R U .
C12 C 0.5660(5) 0.3149(2) 0.3083(2) 0.0243(6) Uani 1 1 d . . .
H12 H 0.4256 0.3211 0.3458 0.029 Uiso 1 1 calc R U .
Li3 Li 0.8152(8) 0.5133(4) 0.0643(3) 0.0229(9) Uani 1 1 d . . .
Li4 Li 0.1967(8) 0.0162(4) 0.4425(3) 0.0230(9) Uani 1 1 d . . .
N1\ N 0.2242(4) -0.1087(2) 0.32999(17) 0.0257(5) Uani 1 1 d . . .
N2 N 0.8007(4) 0.3927(2) 0.17936(17) 0.0258(5) Uani 1 1 d . . .
O2 O 0.1476(3) -0.41598(17) 0.05404(13) 0.0237(4) Uani 1 1 d . . .
O3 O 0.5555(3) -0.38260(17) 0.08421(14) 0.0256(5) Uani 1 1 d . . .
O4 O 0.8573(3) 0.06688(17) 0.43295(14) 0.0242(5) Uani 1 1 d . . .
loop_
_atom_site_aniso_label
_atom_site_aniso_U_11
_atom_site_aniso_U_22
_atom_site_aniso_U_33
_atom_site_aniso_U_23
_atom_site_aniso_U_13
_atom_site_aniso_U_12
C1S 0.0401(17) 0.0281(15) 0.0383(16) 0.0038(12) 0.0082(13) 0.0057(13)
C2S 0.0378(17) 0.0366(17) 0.0404(17) 0.0032(14) 0.0068(13) 0.0128(13)
C110 0.096(4) 0.082(3) 0.049(2) -0.008(2) -0.007(2) 0.027(3)
O102 0.118(5) 0.151(6) 0.033(2) 0.007(3) -0.016(3) 0.094(5)
C101 0.031(5) 0.045(6) 0.037(5) -0.009(5) -0.012(4) -0.002(4)
C103 0.076(5) 0.102(7) 0.055(4) -0.002(4) -0.008(4) 0.016(5)
O104 0.109(9) 0.049(5) 0.073(7) -0.010(5) 0.020(6) -0.001(6)
O1 0.0191(9) 0.0228(9) 0.0297(10) 0.0029(7) 0.0043(7) 0.0011(7)
O1S 0.0394(12) 0.0359(12) 0.0349(11) -0.0001(9) 0.0117(9) 0.0108(9)
C1 0.0223(13) 0.0317(14) 0.0248(13) -0.0034(11) 0.0008(10) 0.0012(11)
C2 0.0215(13) 0.0274(14) 0.0337(15) -0.0066(11) 0.0022(11) 0.0037(11)
C3 0.0194(13) 0.0285(14) 0.0287(14) -0.0049(11) -0.0002(10) 0.0030(10)
C4 0.0188(12) 0.0264(13) 0.0277(13) -0.0022(11) 0.0007(10) 0.0026(10)
C5 0.0199(12) 0.0212(12) 0.0220(12) -0.0002(10) 0.0032(9) -0.0010(10)
C6 0.0208(12) 0.0186(12) 0.0207(12) 0.0034(9) 0.0012(9) 0.0037(9)
C7 0.0189(12) 0.0178(12) 0.0219(12) -0.0036(9) 0.0000(9) 0.0013(9)
C8 0.0193(12) 0.0204(12) 0.0233(12) -0.0009(10) 0.0002(10) 0.0006(10)
C9 0.0215(13) 0.0268(14) 0.0302(14) 0.0034(11) 0.0043(10) 0.0060(10)
C10 0.0232(13) 0.0337(15) 0.0325(14) 0.0050(12) 0.0086(11) 0.0053(11)
C11 0.0275(14) 0.0250(14) 0.0326(14) 0.0050(11) 0.0047(11) 0.0066(11)
C12 0.0216(13) 0.0259(13) 0.0264(13) 0.0031(11) 0.0056(10) 0.0049(10)
Li3 0.018(2) 0.026(2) 0.025(2) -0.0007(17) 0.0018(16) 0.0023(17)
Li4 0.019(2) 0.027(2) 0.023(2) -0.0017(17) 0.0030(16) 0.0032(17)
N1\ 0.0236(11) 0.0265(12) 0.0272(12) -0.0046(9) 0.0048(9) 0.0008(9)
N2 0.0252(12) 0.0266(12) 0.0260(12) 0.0046(9) 0.0028(9) 0.0025(9)
O2 0.0194(9) 0.0258(10) 0.0257(9) -0.0026(7) 0.0023(7) -0.0006(7)
O3 0.0186(9) 0.0267(10) 0.0318(10) -0.0032(8) 0.0036(7) 0.0056(7)
O4 0.0194(9) 0.0273(10) 0.0266(10) 0.0052(8) 0.0031(7) 0.0058(7)
loop_
_atom_type_symbol
_atom_type_description
_atom_type_scat_dispersion_real
_atom_type_scat_dispersion_imag
_atom_type_scat_source
C C 0.0181 0.0091 'International Tables Vol C Tables 4.2.6.8 and 6.1.1.4'
H H 0.0000 0.0000 'International Tables Vol C Tables 4.2.6.8 and 6.1.1.4'
Li Li 0.0008 0.0003 'International Tables Vol C Tables 4.2.6.8 and 6.1.1.4'
N N 0.0311 0.0180 'International Tables Vol C Tables 4.2.6.8 and 6.1.1.4'
O O 0.0492 0.0322 'International Tables Vol C Tables 4.2.6.8 and 6.1.1.4'
loop_
_geom_angle_atom_site_label_1
_geom_angle_atom_site_label_2
_geom_angle_atom_site_label_3
_geom_angle
_geom_angle_site_symmetry_1
_geom_angle_site_symmetry_3
O1S C1S C2S 110.8(3) . .
O1S C2S C1S 110.8(3) 2_566 .
O102 C110 O104 109.5(7) . .
O102 C110 C103 118.5(6) . .
O104 C110 C103 47.7(6) . .
O102 C110 C101 42.9(5) . .
O104 C110 C101 73.7(7) . .
C103 C110 C101 108.4(7) . .
C101 O102 C110 78.5(8) . .
C101 O102 C103 64.7(8) . 2_655
C110 O102 C103 117.5(5) . 2_655
C101 O102 O104 102.0(8) . 2_655
C110 O102 O104 107.0(6) . 2_655
C103 O102 O104 43.4(5) 2_655 2_655
O102 C101 C103 70.2(8) . 2_655
O102 C101 C110 58.6(7) . .
C103 C101 C110 108.6(8) 2_655 .
O102 C101 O104 100.8(9) . .
C103 C101 O104 105.3(7) 2_655 .
C110 C101 O104 48.8(5) . .
O104 C103 C101 112.9(10) . 2_655
O104 C103 C110 66.0(8) . .
C101 C103 C110 109.6(8) 2_655 .
O104 C103 O102 75.1(9) . 2_655
C101 C103 O102 45.1(6) 2_655 2_655
C110 C103 O102 115.5(7) . 2_655
C103 O104 C110 66.3(7) . .
C103 O104 O102 61.4(8) . 2_655
C110 O104 O102 107.2(8) . 2_655
C103 O104 C101 109.4(9) . .
C110 O104 C101 57.5(6) . .
O102 O104 C101 97.7(6) 2_655 .
C7 O1 Li4 140.7(2) . .
C2S O1S C1S 109.8(2) 2_566 .
N1\ C1 C4 123.3(2) . .
N1\ C2 C3 123.8(3) . .
C5 C3 C2 118.7(2) . .
C1 C4 C5 119.2(2) . .
C3 C5 C4 118.1(2) . .
C3 C5 C6 121.8(2) . .
C4 C5 C6 120.1(2) . .
O3 C6 O2 126.6(2) . .
O3 C6 C5 116.1(2) . .
O2 C6 C5 117.3(2) . .
O1 C7 O4 125.5(2) . .
O1 C7 C8 116.5(2) . .
O4 C7 C8 118.0(2) . .
O1 C7 Li4 85.48(17) . 2_656
O4 C7 Li4 41.18(15) . 2_656
C8 C7 Li4 155.94(19) . 2_656
C12 C8 C9 118.0(2) . .
C12 C8 C7 119.1(2) . .
C9 C8 C7 122.9(2) . .
C10 C9 C8 118.7(2) . .
N2 C10 C9 124.0(3) . .
N2 C11 C12 123.9(3) . .
C11 C12 C8 119.0(2) . .
O3 Li3 O2 118.0(2) 1_565 1_665
O3 Li3 O2 126.2(2) 1_565 2_655
O2 Li3 O2 89.63(19) 1_665 2_655
O3 Li3 N2 103.7(2) 1_565 .
O2 Li3 N2 112.7(2) 1_665 .
O2 Li3 N2 106.2(2) 2_655 .
O3 Li3 Li3 138.3(3) 1_565 2_765
O2 Li3 Li3 44.94(14) 1_665 2_765
O2 Li3 Li3 44.69(14) 2_655 2_765
N2 Li3 Li3 117.9(3) . 2_765
O1 Li4 O4 121.7(3) . 1_455
O1 Li4 O4 121.8(2) . 2_656
O4 Li4 O4 90.70(19) 1_455 2_656
O1 Li4 N1\ 104.8(2) . .
O4 Li4 N1\ 106.5(2) 1_455 .
O4 Li4 N1\ 110.2(2) 2_656 .
O1 Li4 Li4 138.5(3) . 2_556
O4 Li4 Li4 46.20(14) 1_455 2_556
O4 Li4 Li4 44.50(14) 2_656 2_556
N1\ Li4 Li4 116.7(3) . 2_556
O1 Li4 C7 107.75(19) . 2_656
O4 Li4 C7 115.0(2) 1_455 2_656
O4 Li4 C7 24.63(9) 2_656 2_656
N1\ Li4 C7 97.83(18) . 2_656
Li4 Li4 C7 68.90(18) 2_556 2_656
C2 N1\ C1 116.9(2) . .
C2 N1\ Li4 124.9(2) . .
C1 N1\ Li4 118.2(2) . .
C10 N2 C11 116.3(2) . .
C10 N2 Li3 124.9(2) . .
C11 N2 Li3 118.6(2) . .
C6 O2 Li3 145.8(2) . 1_445
C6 O2 Li3 120.0(2) . 2_655
Li3 O2 Li3 90.37(19) 1_445 2_655
C6 O3 Li3 150.0(2) . 1_545
C7 O4 Li4 154.9(2) . 1_655
C7 O4 Li4 114.2(2) . 2_656
Li4 O4 Li4 89.30(19) 1_655 2_656
loop_
_geom_bond_atom_site_label_1
_geom_bond_atom_site_label_2
_geom_bond_distance
_geom_bond_site_symmetry_2
C1S O1S 1.427(4) .
C1S C2S 1.508(4) .
C2S O1S 1.426(4) 2_566
C110 O102 1.356(7) .
C110 O104 1.388(12) .
C110 C103 1.392(9) .
C110 C101 1.557(13) .
O102 C101 1.081(13) .
O102 C103 1.436(10) 2_655
O102 O104 1.581(13) 2_655
C101 C103 1.380(14) 2_655
C101 O104 1.771(16) .
C103 O104 1.124(14) .
C103 C101 1.380(14) 2_655
C103 O102 1.436(10) 2_655
O104 O102 1.580(13) 2_655
O1 C7 1.246(3) .
O1 Li4 1.896(5) .
O1S C2S 1.426(4) 2_566
C1 N1\ 1.344(4) .
C1 C4 1.384(4) .
C2 N1\ 1.337(4) .
C2 C3 1.389(4) .
C3 C5 1.385(4) .
C4 C5 1.389(4) .
C5 C6 1.523(4) .
C6 O3 1.241(3) .
C6 O2 1.254(3) .
C7 O4 1.258(3) .
C7 C8 1.519(4) .
C7 Li4 2.754(5) 2_656
C8 C12 1.388(4) .
C8 C9 1.388(4) .
C9 C10 1.386(4) .
C10 N2 1.339(4) .
C11 N2 1.341(4) .
C11 C12 1.383(4) .
Li3 O3 1.880(5) 1_565
Li3 O2 1.952(5) 1_665
Li3 O2 1.961(5) 2_655
Li3 N2 2.090(5) .
Li3 Li3 2.776(9) 2_765
Li4 O4 1.931(5) 1_455
Li4 O4 1.988(5) 2_656
Li4 N1\ 2.075(5) .
Li4 Li4 2.754(9) 2_556
Li4 C7 2.754(5) 2_656
O2 Li3 1.952(5) 1_445
O2 Li3 1.961(5) 2_655
O3 Li3 1.880(5) 1_545
O4 Li4 1.931(5) 1_655
O4 Li4 1.988(5) 2_656
