#------------------------------------------------------------------------------
#$Date: 2016-03-23 22:41:30 +0200 (Wed, 23 Mar 2016) $
#$Revision: 179488 $
#$URL: svn://www.crystallography.net/cod/cif/4/33/85/4338500.cif $
#------------------------------------------------------------------------------
#
# This file is available in the Crystallography Open Database (COD),
# http://www.crystallography.net/
#
# All data on this site have been placed in the public domain by the
# contributors.
#
data_4338500
loop_
_publ_author_name
'Herchel, Radovan'
'V\'ahovsk\'a, Lucia'
'Poto\<c\<n\'ak, Ivan'
'Tr\'avn\'i\<cek, Zden\<ek'
_publ_section_title
;
 Slow Magnetic Relaxation in Octahedral Cobalt(II) Field-Induced
 Single-Ion Magnet with Positive Axial and Large Rhombic Anisotropy.
;
_journal_issue                   12
_journal_name_full               'Inorganic chemistry'
_journal_page_first              5896
_journal_page_last               5898
_journal_paper_doi               10.1021/ic500916u
_journal_volume                  53
_journal_year                    2014
_chemical_formula_moiety         'C32 H20 Co N18'
_chemical_formula_sum            'C32 H20 Co N18'
_chemical_formula_weight         715.59
_chemical_name_systematic
;
 ?
;
_space_group_crystal_system      triclinic
_space_group_IT_number           2
_space_group_name_Hall           '-P 1'
_space_group_name_H-M_alt        'P -1'
_symmetry_space_group_name_Hall  '-P 1'
_symmetry_space_group_name_H-M   'P -1'
_atom_sites_solution_hydrogens   mixed
_atom_sites_solution_primary     direct
_atom_sites_solution_secondary   difmap
_audit_creation_method           SHELXL-2013
_cell_angle_alpha                68.181(3)
_cell_angle_beta                 87.493(2)
_cell_angle_gamma                87.470(2)
_cell_formula_units_Z            1
_cell_length_a                   9.2021(2)
_cell_length_b                   9.3522(3)
_cell_length_c                   9.9504(3)
_cell_measurement_reflns_used    4987
_cell_measurement_temperature    173(2)
_cell_measurement_theta_max      29.1720
_cell_measurement_theta_min      3.1700
_cell_volume                     793.87(4)
_computing_molecular_graphics    'DIAMOND (Brandenburg, 2001)'
_computing_publication_material  'SHELXL-2013 (Sheldrick, 2008)'
_computing_structure_refinement  'SHELXL-2013 (Sheldrick, 2008)'
_computing_structure_solution    'SHELXS-97 (Sheldrick, 2008)'
_diffrn_ambient_temperature      173(2)
_diffrn_detector_area_resol_mean 8.3438
_diffrn_measured_fraction_theta_full 0.999
_diffrn_measured_fraction_theta_max 0.998
_diffrn_measurement_device_type  'Xcalibur, Sapphire2, large Be window'
_diffrn_measurement_method       '\w scans'
_diffrn_radiation_type           MoK\a
_diffrn_radiation_wavelength     0.71073
_diffrn_reflns_av_R_equivalents  0.0311
_diffrn_reflns_av_unetI/netI     0.0398
_diffrn_reflns_Laue_measured_fraction_full 0.999
_diffrn_reflns_Laue_measured_fraction_max 0.998
_diffrn_reflns_limit_h_max       11
_diffrn_reflns_limit_h_min       -11
_diffrn_reflns_limit_k_max       11
_diffrn_reflns_limit_k_min       -11
_diffrn_reflns_limit_l_max       12
_diffrn_reflns_limit_l_min       -12
_diffrn_reflns_number            9892
_diffrn_reflns_point_group_measured_fraction_full 0.999
_diffrn_reflns_point_group_measured_fraction_max 0.998
_diffrn_reflns_theta_full        25.242
_diffrn_reflns_theta_max         26.496
_diffrn_reflns_theta_min         3.081
_diffrn_source                   'Enhance (Mo) X-ray Source'
_exptl_absorpt_coefficient_mu    0.597
_exptl_absorpt_correction_T_max  1.00000
_exptl_absorpt_correction_T_min  0.93929
_exptl_absorpt_correction_type   multi-scan
_exptl_absorpt_process_details
;
CrysAlisPro, Agilent Technologies,
Version 1.171.36.28 (release 01-02-2013 CrysAlis171 .NET)
(compiled Feb  1 2013,16:14:44)
Empirical absorption correction using spherical harmonics,
 implemented in SCALE3 ABSPACK scaling algorithm.
;
_exptl_crystal_colour            orange
_exptl_crystal_density_diffrn    1.497
_exptl_crystal_description       prism
_exptl_crystal_F_000             365
_exptl_crystal_size_max          0.380
_exptl_crystal_size_mid          0.110
_exptl_crystal_size_min          0.080
_refine_diff_density_max         0.339
_refine_diff_density_min         -0.316
_refine_diff_density_rms         0.056
_refine_ls_extinction_method     none
_refine_ls_goodness_of_fit_ref   1.088
_refine_ls_hydrogen_treatment    mixed
_refine_ls_matrix_type           full
_refine_ls_number_parameters     238
_refine_ls_number_reflns         3292
_refine_ls_number_restraints     0
_refine_ls_restrained_S_all      1.088
_refine_ls_R_factor_all          0.0485
_refine_ls_R_factor_gt           0.0364
_refine_ls_shift/su_max          0.000
_refine_ls_shift/su_mean         0.000
_refine_ls_structure_factor_coef Fsqd
_refine_ls_weighting_details
'w=1/[\s^2^(Fo^2^)+(0.0352P)^2^+0.3218P] where P=(Fo^2^+2Fc^2^)/3'
_refine_ls_weighting_scheme      calc
_refine_ls_wR_factor_gt          0.0820
_refine_ls_wR_factor_ref         0.0879
_reflns_Friedel_coverage         0.000
_reflns_number_gt                2799
_reflns_number_total             3292
_reflns_threshold_expression     'I > 2\s(I)'
_cod_data_source_file            ic500916u_si_003.cif
_cod_data_source_block           shelx
_cod_depositor_comments          'Adding full bibliography for 4338500.cif.'
_cod_database_code               4338500
#BEGIN Tags that were not found in dictionaries:
_shelx_space_group_comment
;
The symmetry employed for this shelxl refinement is uniquely defined
by the following loop, which should always be used as a source of
symmetry information in preference to the above space-group names.
They are only intended as comments.
;
_shelx_estimated_absorpt_t_min   0.805
_shelx_estimated_absorpt_t_max   0.954
_shelxl_version_number           2013-4
_shelx_res_file
;
TITL CoAbptTcm in P-1
CELL  0.71073   9.2021   9.3522   9.9504   68.181   87.493   87.470
ZERR     1.00   0.0002   0.0003   0.0003    0.003    0.002    0.002
LATT   1
SFAC  C    H    N    CO
UNIT  32   20   18   1
MERG   2
OMIT    -2.00  53.00
EQIV $1 -x+1, -y, -z
HTAB N8 N2_$1
HTAB  N8 N20
FMAP   2
PLAN   20
SIZE     0.08   0.11   0.38
ACTA
HTAB    2.00000
BOND   $H
CONF
L.S.  10
TEMP  -100.00
WGHT    0.035200    0.321800
FVAR       1.50201
CO1   4    0.500000    0.000000    0.500000    10.50000    0.01513    0.02022 =
         0.01728   -0.00440    0.00178   -0.00168
N1    3    0.439132    0.040471    0.284230    11.00000    0.02481    0.02774 =
         0.02253   -0.00667    0.00007   -0.00283
N2    3    0.177950   -0.025347   -0.052525    11.00000    0.04832    0.04314 =
         0.03349   -0.01077   -0.00693   -0.01568
N3    3    0.464244    0.369131   -0.169645    11.00000    0.04778    0.05880 =
         0.04455    0.01198   -0.00014   -0.02267
N10   3    0.629533   -0.194143    0.500984    11.00000    0.01636    0.02174 =
         0.01753   -0.00450    0.00049   -0.00274
N5    3    0.701828    0.097267    0.413206    11.00000    0.01742    0.02020 =
         0.02186   -0.00672    0.00193   -0.00313
N6    3    0.759299    0.241864    0.359589    11.00000    0.02022    0.02009 =
         0.02292   -0.00539    0.00342   -0.00480
N7    3    0.917704    0.074557    0.324102    11.00000    0.01514    0.02128 =
         0.02024   -0.00713    0.00215   -0.00186
N8    3    1.040749    0.006389    0.277909    11.00000    0.01649    0.02804 =
         0.03256   -0.01311    0.00773   -0.00272
H8A   2    1.018186    0.004732    0.191760    11.00000   -1.50000
H8B   2    1.113458    0.069021    0.267650    11.00000   -1.50000
N20   3    1.128430    0.314902    0.218475    11.00000    0.01857    0.02562 =
         0.02075   -0.00793    0.00061   -0.00446
C1    1    0.405011    0.077485    0.165741    11.00000    0.01669    0.02068 =
         0.02546   -0.00728    0.00371   -0.00083
C2    1    0.261282    0.040734   -0.017820    11.00000    0.03028    0.02779 =
         0.01957   -0.00419    0.00063   -0.00077
C3    1    0.420049    0.259006   -0.082986    11.00000    0.02613    0.03748 =
         0.02577   -0.00294   -0.00249   -0.00437
C11   1    0.586974   -0.339897    0.554477    11.00000    0.02059    0.02313 =
         0.02134   -0.00511    0.00060   -0.00535
AFIX  43
H11   2    0.492892   -0.361026    0.599179    11.00000   -1.20000
AFIX   0
C12   1    0.674353   -0.461444    0.547447    11.00000    0.02830    0.02018 =
         0.02259   -0.00546   -0.00220   -0.00342
AFIX  43
H12   2    0.641403   -0.564037    0.587951    11.00000   -1.20000
AFIX   0
C13   1    0.809640   -0.430974    0.480799    11.00000    0.02748    0.02169 =
         0.02570   -0.00853    0.00048    0.00220
AFIX  43
H13   2    0.870468   -0.512319    0.472714    11.00000   -1.20000
AFIX   0
C14   1    0.856896   -0.280354    0.425293    11.00000    0.02022    0.02541 =
         0.02320   -0.00746    0.00296   -0.00137
AFIX  43
H14   2    0.950177   -0.257011    0.379202    11.00000   -1.20000
AFIX   0
C15   1    0.764776   -0.165551    0.438871    11.00000    0.01847    0.02112 =
         0.01538   -0.00439   -0.00061   -0.00181
C5    1    0.797440   -0.001911    0.391820    11.00000    0.01515    0.02295 =
         0.01675   -0.00523    0.00186   -0.00260
C6    1    0.889248    0.226034    0.303777    11.00000    0.01814    0.02070 =
         0.01785   -0.00464   -0.00039   -0.00115
C25   1    0.987688    0.353684    0.232673    11.00000    0.02040    0.02398 =
         0.01455   -0.00631    0.00101   -0.00424
C24   1    0.933137    0.504474    0.183539    11.00000    0.02240    0.02544 =
         0.02124   -0.00719    0.00018   -0.00200
AFIX  43
H24   2    0.832471    0.526592    0.194044    11.00000   -1.20000
AFIX   0
C23   1    1.029537    0.621644    0.118830    11.00000    0.03214    0.02109 =
         0.02391   -0.00446   -0.00134   -0.00238
AFIX  43
H23   2    0.996388    0.726322    0.085339    11.00000   -1.20000
AFIX   0
C22   1    1.174423    0.584439    0.103595    11.00000    0.02977    0.02869 =
         0.02349   -0.00613    0.00233   -0.01234
AFIX  43
H22   2    1.242561    0.662977    0.059385    11.00000   -1.20000
AFIX   0
C21   1    1.218694    0.431222    0.153657    11.00000    0.01834    0.03105 =
         0.02464   -0.00952    0.00166   -0.00568
AFIX  43
H21   2    1.318493    0.406729    0.141592    11.00000   -1.20000
AFIX   0
C4    1    0.362281    0.125238    0.022574    11.00000    0.02269    0.02496 =
         0.01830   -0.00476    0.00135   -0.00205
HKLF    4

REM  CoAbptTcm in P-1
REM R1 =  0.0364 for    2799 Fo > 4sig(Fo)  and  0.0485 for all    3292 data
REM    238 parameters refined using      0 restraints

END

WGHT      0.0352      0.3321

REM Instructions for potential hydrogen bonds
HTAB N8 N2_$1
HTAB N8 N20
EQIV $2 -x+1, -y, -z+1
HTAB C11 N6_$2
HTAB C14 N8

REM Highest difference peak  0.339,  deepest hole -0.316,  1-sigma level  0.056
Q1    1   0.5858 -0.0795  0.4652  11.00000  0.05    0.34
Q2    1   0.3856  0.0097  0.4743  11.00000  0.05    0.34
Q3    1   0.9791  0.0398  0.3152  11.00000  0.05    0.30
Q4    1   0.5790 -0.1293  0.5322  11.00000  0.05    0.30
Q5    1   0.7901 -0.2152  0.3846  11.00000  0.05    0.28
Q6    1   0.9126  0.1580  0.2987  11.00000  0.05    0.26
Q7    1   1.0512  0.3384  0.2092  11.00000  0.05    0.24
Q8    1   0.6869 -0.1756  0.4407  11.00000  0.05    0.24
Q9    1   0.2936  0.1176  0.0035  11.00000  0.05    0.23
Q10   1   0.3679  0.0557 -0.0111  11.00000  0.05    0.23
Q11   1   0.2795 -0.0181 -0.0624  11.00000  0.05    0.23
Q12   1   0.9610  0.4252  0.1774  11.00000  0.05    0.22
Q13   1   0.8671  0.0338  0.3590  11.00000  0.05    0.22
Q14   1   0.4706 -0.0088  0.3705  11.00000  0.05    0.22
Q15   1   0.9683  0.4273  0.2527  11.00000  0.05    0.22
Q16   1   1.0923  0.5855  0.0943  11.00000  0.05    0.21
Q17   1   0.8172  0.2386  0.2933  11.00000  0.05    0.21
Q18   1   0.7520 -0.4442  0.5369  11.00000  0.05    0.21
Q19   1   0.4529 -0.2768  0.6222  11.00000  0.05    0.20
Q20   1   0.9383  0.2873  0.2610  11.00000  0.05    0.20
;
_shelx_res_checksum              28975
_shelx_hkl_file
;
   0   0   2 3484.95 46.7363   3
   0   0   2 3326.39 32.8161   1
   0   0  -2 3449.64 37.4683   7
   0   0  -2 3773.92 47.9208   3
   0   0  -2 3759.48 33.2115   1
   0   0   2 3512.69 37.5979   7
   0   0  -3 4285.46 51.3798   7
   0   0  -3 4525.22 65.1566   3
   0   0   3 4195.94 62.1527   3
   0   0   3 4117.61 43.4971   1
   0   0  -3 4454.66 44.2994   1
   0   0   4 1303.49 40.3901   3
   0   0  -4 1351.32 33.4739   7
   0   0  -4 1472.94 43.8600   3
   0   0   4 1303.63 38.9944   4
   0   0   4 1336.81 28.4419   1
   0   0   5 507.882 28.8421   3
   0   0  -5 494.251 23.0703   7
   0   0   5 457.964 18.5756   1
   0   0  -5 521.456 30.8415   3
   0   0   5 463.784 26.5383   4
   0   0  -6 610.317 35.9518   3
   0   0  -6 652.177 28.8683   7
   0   0   6 662.091 33.7247   4
   0   0   6 673.147 24.2655   1
   0   0  -7 17.6175 13.3011   3
   0   0   7 24.8890 13.5381   4
   0   0   7 19.4071 6.74313   1
   0   0  -7 10.3371 6.65200   7
   0   0   8 41.4318 14.9022   4
   0   0  -8 37.6912 16.1161   3
   0   0  -8 17.8499 8.03244   7
   0   0   8 33.7747 8.03987   1
   0   0  -9 200.680 27.0087   3
   0   0  -9 166.895 18.5025   7
   0   0   9 184.902 23.8999   4
   0   0 -10 357.678 37.5073   3
   0   0  10 245.108 28.5109   4
   0   0 -11 37.7242 13.6061   3
   0   0 -12 145.148 28.0915   3
   0  -1  11 159.203 32.3492   6
   0   1 -11 136.812 27.5403   3
   0   1 -10 542.766 46.5360   3
   0  -1  10 459.931 39.4427   4
   0   1  -9 483.413 41.6999   3
   0  -1   9 485.226 36.9258   4
   0   1  -8 247.431 29.9521   3
   0  -1   8 218.225 24.9093   4
   0   1  -8 213.605 19.1659   7
   0   1  -7 29.5183 8.22935   7
   0  -1   7 25.7870 13.9590   4
   0   1  -7 48.5004 15.4973   3
   0   1  -6 1114.82 33.9004   1
   0   1  -6 1201.63 52.6737   3
   0   1  -6 1165.09 36.6987   7
   0   1  -5 711.415 36.8705   3
   0   1  -5 681.834 24.8156   1
   0   1  -5 636.605 24.5098   7
   0  -1   5 628.242 23.8988   1
   0   1  -4 3183.91 48.9334   1
   0   1  -4 3222.61 68.6721   3
   0   1  -4 3161.50 48.0722   7
   0  -1   4 2883.88 46.8500   1
   0  -1   4 2963.50 46.1104   7
   0  -1   4 2921.84 65.4152   3
   0   1  -3 952.598 25.7321   1
   0  -1   3 953.621 22.9533   7
   0   1  -3 1005.46 34.2685   3
   0  -1   3 933.999 24.7871   1
   0  -1   3 940.269 33.5754   3
   0   1  -3 987.504 23.2619   7
   0   1  -2 86.8088 8.40424   1
   0  -1   2 79.6930 10.6907   3
   0   1  -2 84.0258 11.3588   3
   0  -1   2 83.3891 6.18045   7
   0   1  -2 69.9174 6.01206   7
   0  -1   1 47.5226 6.40953   4
   0   1  -1 44.7846 5.89174   1
   0   1  -1 46.4497 7.79686   6
   0  -1   1 49.5968 7.56655   6
   0   1  -1 43.8686 7.15371   3
   0  -1   1 39.0744 7.00546   3
   0  -1   1 45.9025 4.03591   7
   0   1   2 8018.68 64.6988   4
   0  -1  -2 7924.59 71.6972   6
   0   1   2 8103.37 72.5371   6
   0  -1  -2 8234.82 65.9040   4
   0   1   3 19961.7 138.370   6
   0  -1  -3 19910.2 123.924   7
   0   1   3 19797.3 123.137   4
   0  -1  -3 20522.0 125.598   4
   0  -1  -4 2405.14 48.3112   7
   0   1   4 2298.08 49.1480   4
   0  -1  -4 2444.56 53.0879   3
   0   1   4 2409.71 38.2097   1
   0  -1  -5 483.053 27.6004   3
   0   1   5 477.025 27.5608   3
   0  -1  -5 505.261 24.9152   7
   0   1   5 517.167 27.0699   4
   0   1   5 492.365 19.4359   1
   0  -1  -6 17.4123 9.69951   3
   0   1   6 22.5586 10.4484   4
   0   1   6 30.5885 6.82542   1
   0  -1  -6 30.1816 9.34174   7
   0   1   7 211.579 14.8506   1
   0   1   7 223.279 22.7538   4
   0  -1  -7 227.315 20.2011   7
   0  -1  -7 205.029 23.9771   3
   0   1   8 190.622 23.6873   4
   0  -1  -8 241.879 22.8719   7
   0  -1  -8 192.552 24.6224   3
   0   1   8 221.486 16.0725   1
   0  -1  -9 1618.55 70.7176   3
   0  -1  -9 1620.40 58.5423   7
   0   1   9 1589.31 63.5469   4
   0  -1 -10 237.458 30.9381   3
   0  -1 -10 196.919 22.4247   7
   0   1  10 207.246 27.1677   4
   0   1  11 332.970 34.6198   4
   0  -1 -11 370.248 39.9015   3
   0  -1 -12 272.995 35.7838   3
   0   2 -11 34.0937 21.7081   3
   0   2 -10 43.5951 18.6763   3
   0  -2  10 26.9486 18.0347   6
   0  -2  10 61.3310 19.6449   4
   0  -2   9 885.966 53.0184   4
   0  -2   9 1092.58 71.2963   6
   0   2  -9 1055.68 63.8335   3
   0  -2   8 578.501 48.7394   6
   0   2  -8 646.891 47.4102   3
   0  -2   7-24.6133 18.6351   6
   0   2  -7 25.3406 7.37812   7
   0   2  -7 3.84248 12.7948   3
   0   2  -7 34.0960 9.81059   1
   0   2  -6 486.810 22.6574   7
   0  -2   6 486.064 39.4645   6
   0   2  -6 521.820 37.0319   3
   0   2  -6 539.053 26.4935   1
   0   2  -5 1726.07 45.2702   1
   0  -2   5 1673.60 37.4285   7
   0  -2   5 1626.93 64.6804   6
   0   2  -5 1840.36 62.2607   3
   0   2  -5 1670.87 37.7698   7
   0   2  -4 4143.65 85.3369   3
   0  -2   4 4091.36 92.1723   6
   0   2  -4 4007.66 65.1885   1
   0   2  -4 4061.24 53.7894   7
   0  -2   4 3934.30 77.1087   4
   0  -2   4 4209.00 53.2066   7
   0   2  -3-2.59603 8.76701   3
   0   2  -3 7.17186 6.34996   1
   0  -2   3 2.26776 3.61975   7
   0  -2   3 10.0576 11.5461   6
   0  -2   3 26.7171 9.33075   3
   0  -2   3-1.50229 6.30625   4
   0  -2   2 1693.31 48.0026   6
   0  -2   2 1501.38 26.9777   7
   0  -2   2 1534.57 42.5271   4
   0   2  -2 1560.50 44.3517   3
   0   2  -2 1482.04 35.5267   1
   0  -2   2 1564.17 44.4710   3
   0  -2   1 1644.43 41.2863   6
   0   2  -1 1458.00 36.4339   4
   0  -2   1 1391.71 36.6188   3
   0   2  -1 1445.52 37.8292   3
   0  -2   1 1518.88 37.1619   4
   0   2  -1 1521.04 39.7766   6
   0   2   0 8915.44 80.8486   4
   0  -2   0 8821.67 79.6416   4
   0  -2   0 8837.11 81.8868   3
   0   2   0 8701.33 81.3861   6
   0   2   0 8917.24 81.8391   3
   0  -2   0 9219.96 86.3934   6
   0  -2  -1 1705.75 35.6219   6
   0   2   1 1765.50 34.9677   4
   0  -2  -1 1816.53 34.7919   4
   0   2   1 1856.15 36.0535   6
   0  -2  -2 7.44232 8.24795   6
   0  -2  -2 18.6521 8.34336   4
   0   2   2 21.4017 8.34215   6
   0   2   2 21.9640 10.2392   4
   0  -2  -3 3838.44 57.4058   4
   0   2   3 3730.46 57.5949   4
   0   2   3 3867.32 62.6190   6
   0  -2  -3 3671.35 62.7972   6
   0   2   4-0.55861 8.50258   6
   0   2   4 6.48344 7.45838   4
   0  -2  -4 7.41076 5.90175   4
   0  -2  -5 12.4299 7.59824   4
   0   2   5 5.87855 8.00248   6
   0  -2  -5 8.52739 8.16773   3
   0   2   5 8.07249 8.17812   4
   0  -2  -5 3.49623 9.04952   7
   0  -2  -6 1991.77 60.5895   3
   0   2   6 2008.52 56.6105   4
   0  -2  -6 2095.00 57.6477   7
   0  -2  -7 9.33238 10.1760   7
   0   2   7 4.44088 5.90147   1
   0  -2  -7 1.91664 10.0214   3
   0   2   7 9.42605 12.0377   4
   0   2   8 13.2467 12.8350   4
   0   2   8-2.91385 7.02872   1
   0  -2  -8-3.30111 8.43827   7
   0  -2  -8 13.4970 13.1057   3
   0  -2  -9 627.766 43.8023   3
   0  -2  -9 682.206 39.9907   7
   0   2   9 621.996 40.0246   4
   0   2  10 354.387 33.2968   4
   0  -2 -10 325.815 29.7589   7
   0  -2 -10 293.753 33.4778   3
   0  -2 -11 214.988 30.7371   3
   0   2  11 173.205 25.4173   4
   0  -2 -11 183.277 24.6900   7
   0  -2 -12 39.1109 16.9400   3
   0  -2 -13 292.849 38.3595   3
   0   3 -10 99.9394 23.6968   3
   0  -3  10 108.249 25.4645   6
   0  -3   9 305.547 41.1507   6
   0   3  -9 362.566 41.3423   3
   0   3  -8 1001.57 61.2389   3
   0  -3   8 1071.87 69.7222   6
   0  -3   7 100.799 26.6521   6
   0   3  -7 59.2998 15.4249   3
   0   3  -7 42.0280 10.1219   1
   0  -3   6 25.5234 17.5576   6
   0   3  -6 2.13861 7.64062   1
   0   3  -6 4.01093 12.8719   3
   0   3  -5 4.61717 7.46052   1
   0  -3   5 7.09636 5.84556   7
   0   3  -5 17.1548 13.4352   3
   0  -3   5 6.98300 14.9894   6
   0   3  -4 192.910 18.2837   1
   0   3  -4 242.765 25.1592   3
   0  -3   4 252.089 26.6597   6
   0  -3   4 231.360 13.5205   7
   0   3  -3 37.1304 9.96674   1
   0  -3   3 17.0175 4.91851   7
   0  -3   3 37.0037 14.3136   6
   0   3  -3 22.0794 12.2390   3
   0  -3   3 21.8566 10.2105   4
   0   3  -2 331.667 21.4068   1
   0   3  -2 331.515 25.3349   6
   0  -3   2 340.530 15.6975   7
   0  -3   2 352.466 25.7195   6
   0  -3   2 339.756 24.0476   3
   0  -3   2 316.306 22.7673   4
   0   3  -2 332.756 24.1663   3
   0  -3   1 602.072 30.6325   6
   0   3  -1 583.569 29.4113   6
   0   3  -1 592.289 28.3205   4
   0   3  -1 560.712 28.6752   3
   0  -3   1 621.032 28.2993   4
   0  -3   1 584.068 28.8510   3
   0  -3   0 7801.16 95.6311   3
   0   3   0 7943.57 94.4806   4
   0   3   0 7822.90 95.5353   3
   0   3   0 8082.38 96.4503   6
   0  -3   0 7933.27 92.6360   4
   0  -3   0 7970.54 97.9361   6
   0   3   1 437.755 12.7391   2
   0   3   1 471.927 23.3438   6
   0  -3  -1 477.538 22.9008   4
   0  -3  -1 483.370 23.9390   6
   0   3   1 452.814 23.2431   4
   0  -3  -2 33.6422 9.95714   6
   0  -3  -2 22.1695 9.01921   4
   0   3   2 32.0318 9.57561   6
   0   3   2 27.9933 3.61826   5
   0   3   2 31.1438 10.8066   4
   0  -3  -3 359.831 22.6029   6
   0   3   3 358.920 21.7016   4
   0  -3  -3 329.732 20.1987   4
   0   3   3 326.609 20.7599   6
   0  -3  -4 1492.03 47.9504   6
   0  -3  -4 1601.04 44.8395   4
   0   3   4 1665.49 48.8236   6
   0   3   4 1522.19 44.4222   4
   0   3   5 1319.30 44.3648   4
   0  -3  -5 1252.87 47.3857   6
   0  -3  -5 1331.28 44.3707   4
   0  -3  -5 1281.13 27.5439   5
   0  -3  -6 24.8259 7.24233   5
   0  -3  -6 26.7851 11.4128   7
   0  -3  -6 36.5662 11.9029   3
   0   3   6 14.0364 10.3971   4
   0  -3  -7 646.232 38.2833   3
   0   3   7 650.459 37.1093   4
   0  -3  -7 633.299 37.0275   7
   0  -3  -7 683.927 29.5990   5
   0   3   8 6.91985 12.1760   4
   0  -3  -8 8.10530 7.49646   5
   0  -3  -8 11.3251 13.3024   3
   0   3   8 0.71114 6.31582   1
   0  -3  -8-21.2650 13.9023   7
   0  -3  -9 13.2528 11.7151   7
   0   3   9 37.0581 15.0389   4
   0  -3  -9 25.7413 13.6019   3
   0  -3 -10 91.8982 20.3377   3
   0  -3 -10 73.9277 17.2235   7
   0   3  10 92.4160 20.3945   4
   0  -3 -11-2.85054 13.0555   3
   0   3  11-5.17306 16.3694   4
   0  -3 -11-4.59536 9.93479   7
   0  -3 -12 43.7329 13.8719   7
   0   3  12 28.7724 14.1412   4
   0  -3 -12 52.5645 20.3918   3
   0  -3 -13 37.3134 17.4109   3
   0  -4   9 869.736 69.0618   6
   0   4  -9 771.887 59.7632   3
   0  -4   8 17.7911 16.6162   6
   0   4  -8 7.28544 14.9368   3
   0  -4   7 539.506 48.1022   6
   0   4  -7 488.703 43.4380   3
   0  -4   6 182.228 28.8359   6
   0   4  -6 138.802 18.2395   1
   0   4  -6 172.538 27.9781   3
   0   4  -5 219.650 28.0049   3
   0  -4   5 206.739 13.2029   7
   0   4  -5 194.442 20.8212   1
   0  -4   5 246.528 30.8268   6
   0  -4   4 362.552 33.3168   6
   0  -4   4 368.005 17.3500   7
   0   4  -4 365.678 26.3787   1
   0   4  -4 348.387 31.1943   3
   0  -4   3-5.04443 11.4921   6
   0  -4   3 4.83473 5.15297   7
   0   4  -3 3.23289 8.41997   1
   0   4  -3 14.1500 12.8720   3
   0  -4   2 131.319 19.3036   6
   0   4  -2 118.429 18.2487   3
   0   4  -1 10.7315 9.58122   3
   0   4  -1 16.9241 8.44798   6
   0   4  -1 28.3791 11.9214   4
   0  -4   1 19.9880 11.2194   6
   0  -4   1 26.2311 11.3104   4
   0  -4   0 2398.56 62.1228   6
   0   4   0 2521.77 62.7991   6
   0   4   0 2504.95 62.2843   4
   0  -4   0 2384.49 59.4308   4
   0  -4   0 2526.33 63.4777   3
   0  -4  -1 8356.77 109.009   3
   0  -4  -1 8368.32 107.778   4
   0   4   1 8610.45 110.812   4
   0   4   1 8606.95 110.733   6
   0  -4  -1 8350.18 110.450   6
   0   4   2 675.190 31.2992   6
   0   4   2 601.721 18.3906   5
   0  -4  -2 636.482 31.6128   6
   0   4   2 618.146 19.7495   2
   0  -4  -2 642.017 30.2105   4
   0   4   2 615.142 30.9078   4
   0  -4  -3 362.473 24.6346   6
   0  -4  -3 352.654 23.3274   4
   0   4   3 358.795 24.8213   4
   0   4   3 341.577 23.9795   6
   0  -4  -4 1497.10 47.9655   4
   0   4   4 1443.87 48.6663   4
   0   4   4 1461.74 48.9626   6
   0  -4  -4 1444.59 50.0177   6
   0  -4  -5 2775.98 73.3807   6
   0   4   5 2805.04 69.1506   4
   0  -4  -6 585.266 17.1159   5
   0   4   6 590.434 34.3337   4
   0  -4  -6 597.997 37.8783   6
   0  -4  -7 814.706 43.9407   3
   0  -4  -7 891.286 27.3607   5
   0   4   7 840.825 42.9975   4
   0  -4  -7 857.141 45.6284   7
   0  -4  -8 426.477 22.8714   5
   0  -4  -8 375.350 32.4544   7
   0  -4  -8 403.073 34.3583   3
   0   4   8 379.166 31.9968   4
   0  -4  -9 851.344 48.8759   7
   0  -4  -9 833.783 50.3459   3
   0   4   9 879.285 48.7078   4
   0  -4 -10 283.962 31.3097   7
   0  -4 -10 222.352 29.8323   3
   0   4  10 224.437 27.3078   4
   0   4  11 3.59003 13.3592   4
   0  -4 -11 0.76230 12.0262   7
   0  -4 -11 13.5634 15.0762   3
   0   4  12 32.4215 15.2036   4
   0  -4 -12 34.3467 13.5690   7
   0  -4 -12 49.2327 19.5175   3
   0  -4 -13 50.7096 21.3163   3
   0   5  -9 367.023 45.1540   3
   0   5  -8 1096.81 71.9800   3
   0  -5   8 1203.02 77.7179   6
   0   5  -7 18.4225 16.2475   3
   0  -5   7 27.4858 19.8723   6
   0  -5   6 32.2569 18.7773   6
   0   5  -6-1.30780 13.3052   3
   0   5  -6 10.5468 11.0206   1
   0  -5   5 3796.70 116.294   6
   0   5  -5 3379.47 105.115   3
   0   5  -5 3347.73 86.7945   1
   0   5  -4 583.266 43.2450   3
   0  -5   4 571.296 44.6703   6
   0  -5   4 551.995 22.6921   7
   0   5  -4 560.995 35.7751   1
   0  -5   3 489.677 38.1866   6
   0   5  -3 459.745 31.5872   1
   0  -5   3 504.346 23.1103   7
   0   5  -3 485.968 37.8005   3
   0   5  -2 283.178 28.1177   3
   0   5  -2 267.861 26.4896   4
   0  -5   2 311.440 29.8857   6
   0  -5   1 17.1421 13.0237   6
   0   5  -1 1.03284 11.2526   3
   0   5  -1 1.04935 10.1202   4
   0   5   0 1649.09 57.0869   4
   0  -5   0 1390.30 27.6335   2
   0  -5   0 1541.57 56.5388   6
   0  -5  -1 2745.11 72.2097   6
   0   5   1 2792.00 71.8460   4
   0  -5  -2 2102.58 62.8911   6
   0   5   2 2083.36 61.7429   4
   0   5   2 2005.69 41.0759   5
   0   5   2 2051.19 35.7877   2
   0  -5  -3 343.209 26.7136   6
   0   5   3 306.195 11.8300   5
   0   5   3 353.410 26.6483   4
   0   5   4 197.122 22.5189   4
   0  -5  -4 156.739 20.4357   6
   0   5   5 1161.36 48.6720   4
   0  -5  -5 1162.36 51.0066   6
   0  -5  -6 1990.08 69.4591   6
   0   5   6 1970.23 65.8878   4
   0   5   7 1167.30 53.2080   4
   0  -5  -7 1220.95 58.3801   6
   0   5   8 666.953 42.7787   4
   0  -5  -8 659.539 44.2508   7
   0  -5  -8 605.220 19.1839   5
   0  -5  -8 635.514 43.0483   3
   0  -5  -9 786.115 49.0252   7
   0  -5  -9 733.187 48.1779   3
   0   5   9 779.098 47.9815   4
   0   5  10 694.204 47.0711   4
   0  -5 -10 700.072 48.9415   3
   0  -5 -10 758.676 50.6117   7
   0   5  11-16.4320 17.3702   4
   0  -5 -11-4.09318 14.1776   3
   0  -5 -11 9.05708 12.1266   7
   0  -5 -12 29.2171 18.0069   3
   0   5  12-5.04078 14.9037   4
   0  -5 -12 9.56434 13.4175   7
   0  -5 -13-25.4054 16.1119   3
   0  -5 -13 8.58691 14.3184   7
   0   6  -8 17.0453 19.6945   3
   0  -6   7 131.174 29.1575   6
   0   6  -7 149.737 30.0489   3
   0  -6   6 24.7807 20.0393   6
   0   6  -6 3.00707 10.7373   1
   0   6  -6 11.8423 17.8521   3
   0   6  -5 32.0997 14.4581   1
   0  -6   5 8.60055 14.8128   6
   0   6  -5 7.31361 16.5089   3
   0   6  -4 2139.78 74.5735   1
   0  -6   4 2188.42 89.6488   6
   0   6  -4 2157.60 86.5761   3
   0   6  -3 1132.93 53.7648   1
   0   6  -3 1131.29 60.2129   3
   0  -6   3 1133.51 61.6717   6
   0   6  -2-9.51775 14.8006   3
   0   6  -2-0.33758 12.6622   1
   0  -6   2-10.4174 15.6670   6
   0   6  -2-5.87373 13.6155   4
   0  -6   1 244.710 28.1167   6
   0   6  -1 281.811 29.6569   4
   0   6   0 268.039 28.3663   4
   0  -6   0 270.833 28.7801   6
   0  -6   0 218.254 11.9041   2
   0   6   1 1497.04 58.8193   4
   0   6   1 1382.02 45.6893   5
   0  -6  -1 1442.12 58.6218   6
   0  -6  -2 1493.86 59.1977   6
   0   6   2 1345.08 39.4628   5
   0   6   2 1539.19 59.4147   4
   0   6   3 389.071 19.0465   2
   0   6   3 391.213 31.3207   4
   0   6   3 328.445 16.0097   5
   0  -6  -3 413.152 31.6794   6
   0  -6  -4 1485.67 58.8148   6
   0   6   4 1534.15 59.4572   4
   0  -6  -5 9.11348 12.0872   6
   0   6   5 32.5644 15.1999   4
   0   6   6 85.7707 18.8494   4
   0  -6  -6 89.0282 20.1614   6
   0  -6  -7 317.904 33.0203   6
   0   6   7 327.953 31.6001   4
   0   6   8 161.114 23.1568   4
   0  -6  -8 163.803 27.1010   6
   0  -6  -9 23.8290 14.3379   3
   0  -6  -9 13.2838 12.4001   7
   0   6   9 0.53140 14.4475   4
   0  -6 -10 376.526 37.4894   7
   0   6  10 403.406 39.8831   4
   0  -6 -10 385.552 37.9347   3
   0  -6 -11-2.56865 12.1819   7
   0  -6 -11 26.2288 17.1146   3
   0   6  11 18.2454 15.6406   4
   0  -6 -12 45.5751 19.1996   3
   0   6  12 6.12549 17.9585   4
   0  -6 -12 38.9041 17.2035   7
   0  -6 -13 35.7691 18.9167   3
   0  -6 -13 29.0599 19.1226   7
   0   7  -6 101.776 28.5684   3
   0  -7   6 112.178 26.0239   6
   0   7  -5-3.37717 13.5679   1
   0  -7   5-6.41176 14.3708   6
   0   7  -5 34.4924 19.3295   3
   0  -7   4 144.314 27.9289   6
   0   7  -4 129.532 25.7486   3
   0   7  -4 126.430 21.7791   1
   0   7  -3 179.553 28.0305   3
   0  -7   3 181.107 29.3459   6
   0   7  -3 182.215 25.8216   1
   0   7  -2 2078.60 78.0035   1
   0  -7   2 2067.30 84.0968   6
   0   7  -2 2060.45 83.4774   3
   0   7  -1 51.0727 17.3785   4
   0  -7   1 49.0134 8.50843   2
   0  -7   1 41.9960 16.1468   6
   0   7   0 171.038 26.3563   4
   0  -7   0 170.505 25.2637   6
   0   7   1 678.715 44.9661   4
   0  -7  -1 674.688 45.2565   6
   0   7   2 364.257 24.1361   5
   0  -7  -2 401.888 35.6984   6
   0   7   2 403.013 35.5176   4
   0   7   3 164.435 25.4815   4
   0  -7  -3 143.355 21.9662   6
   0   7   3 136.026 12.9263   5
   0  -7  -4 234.018 27.2662   6
   0   7   4 244.051 28.8294   4
   0   7   4 206.851 11.0463   5
   0   7   4 249.110 17.9631   2
   0   7   5 926.054 51.4696   4
   0  -7  -5 829.162 49.0514   6
   0  -7  -6 115.121 23.1740   6
   0   7   6 124.689 24.7528   4
   0  -7  -7 0.99483 13.9138   6
   0   7   7-10.5252 14.9110   4
   0  -7  -8 1070.55 61.7615   6
   0   7   8 1054.25 59.1341   4
   0  -7  -9 179.064 27.1607   7
   0   7   9 189.135 28.9547   4
   0  -7  -9 190.648 29.8979   6
   0  -7 -10 257.106 33.7533   3
   0  -7 -10 258.546 35.9480   7
   0   7  10 360.325 38.9355   4
   0  -7 -11 56.1964 17.7822   3
   0  -7 -11 75.0116 22.5619   7
   0   7  11 42.8375 16.9187   4
   0   7  12 48.7692 21.4818   4
   0  -7 -12 49.5434 19.3143   3
   0  -7 -12 70.3859 22.5264   7
   0  -7 -13-6.94707 14.5129   3
   0   7  13 6.45442 16.5901   4
   0  -8   5 139.847 31.9460   6
   0   8  -5 28.1440 16.4634   3
   0   8  -4 92.2984 19.3896   1
   0   8  -4 156.584 30.4535   3
   0  -8   4 135.332 29.0788   6
   0  -8   3 269.330 36.3370   6
   0   8  -3 260.433 30.8816   1
   0  -8   2 394.579 41.2678   6
   0   8  -2 353.443 36.1709   1
   0  -8   1 357.526 39.1727   6
   0   8  -1 312.821 35.9595   4
   0  -8   0 293.223 34.6995   6
   0   8   0 287.945 33.5989   4
   0  -8  -1 150.227 25.9230   6
   0   8   1 127.823 24.2815   4
   0  -8  -2 34.4592 17.3066   6
   0   8   2 51.0852 19.5535   4
   0  -8  -3 482.319 41.3037   6
   0   8   3 437.102 24.7110   5
   0   8   3 523.729 44.0216   4
   0  -8  -4 224.918 29.2112   6
   0   8   4 222.263 31.3238   4
   0   8   5 2.29219 15.1001   4
   0  -8  -5 40.1202 17.2941   6
   0  -8  -6 39.4920 18.0655   6
   0   8   6 54.5733 21.2808   4
   0   8   7 80.6388 21.7697   4
   0  -8  -7 97.2883 22.5541   6
   0   8   8 72.0844 21.5494   4
   0  -8  -8 44.2600 19.3802   6
   0   8   9 332.015 38.2450   4
   0  -8  -9 332.128 40.1772   7
   0  -8  -9 319.028 37.5794   6
   0  -8 -10 702.457 58.9472   7
   0   8  10 704.031 54.2563   4
   0  -8 -10 760.929 61.1209   6
   0   8  11 3.83608 18.0103   4
   0  -8 -11 56.8999 16.8305   3
   0   8  12 31.7987 19.5197   4
   0  -8 -12 105.898 22.9865   3
   0   8  13 34.7254 19.6837   4
   0   9  -4 325.066 37.7447   1
   0  -9   4 326.562 43.5596   6
   0  -9   3-15.7635 20.9799   6
   0   9  -3 39.2708 17.2040   1
   0   9  -2-13.6529 15.8193   1
   0  -9   2-9.79776 15.3646   6
   0   9  -1 478.563 44.6913   1
   0  -9   1 539.035 49.6627   6
   0   9  -1 564.198 49.5440   4
   0   9   0 359.473 40.0488   4
   0  -9   0 386.795 41.8521   6
   0   9   1 471.463 44.6146   4
   0  -9  -1 478.679 45.1358   6
   0   9   2 566.960 47.9731   4
   0  -9  -2 423.795 42.4033   6
   0   9   3 124.120 25.0982   4
   0  -9  -3 133.367 27.0386   6
   0   9   4 134.783 27.5148   4
   0  -9  -4 137.872 25.8181   6
   0  -9  -5 627.457 49.9558   6
   0   9   5 731.953 53.3411   4
   0  -9  -6 204.585 31.0014   6
   0   9   6 198.307 28.8523   4
   0   9   7 172.936 29.1421   4
   0  -9  -7 146.930 28.1154   6
   0   9   8 471.420 45.5165   4
   0  -9  -8 474.572 46.6878   6
   0  -9  -9 508.804 48.7105   6
   0   9   9 572.186 50.4265   4
   0  -9 -10 214.411 34.8042   6
   0   9  10 213.355 36.9764   4
   0  -9 -10 163.681 34.6973   7
   0  -9 -11 338.490 44.0604   7
   0   9  11 269.488 38.4350   4
   0   9  12-5.22425 19.4151   4
   0  10  -3 142.465 29.2097   1
   0  10  -2 78.8243 22.1849   1
   0 -10   2 109.528 29.4190   6
   0  10  -1-21.0909 19.9068   4
   0  10  -1-25.2266 19.1314   1
   0 -10   1 14.1145 16.4587   6
   0  10   0 81.3339 24.4845   4
   0 -10   0 85.3336 24.0186   6
   0 -10  -1 473.214 47.7882   6
   0  10   1 416.169 45.8873   4
   0  10   2 69.9044 23.8770   4
   0 -10  -2 33.3702 17.9815   6
   0  10   3 400.074 43.1685   4
   0 -10  -3 372.094 42.9521   6
   0 -10  -4 38.9350 21.0702   6
   0  10   4 34.1430 22.5206   4
   0 -10  -5 200.586 33.5774   6
   0  10   5 227.630 35.6670   4
   0 -10  -6 175.098 32.1138   6
   0 -10  -7 119.633 26.9309   6
   0  10   7 180.340 31.9935   4
   0  10   8 39.1117 22.7007   4
   0 -10  -8 91.7367 26.8808   6
   0  10   9 291.905 41.1695   4
   0 -10  -9 266.677 38.9286   6
   0  10  10 239.015 36.8755   4
   0  11   0 205.667 36.5583   4
   0  11   0 65.0390 22.5533   1
   0 -11   0 194.157 35.8556   6
   0  11   1 222.922 36.5262   4
   0 -11  -1 166.293 33.1887   6
   0 -11  -2 248.915 37.9073   6
   0  11   2 288.886 41.2715   4
   0  11   3 395.173 45.8122   4
   0 -11  -3 407.744 46.5292   6
   0 -11  -4 10.4849 19.8129   6
   0  11   4 8.48304 20.0163   4
   0 -11  -5 435.210 48.2290   6
   0  11   5 495.840 50.6386   4
   0  11   6 20.8058 22.0187   4
   0 -11  -6 32.2783 16.6251   6
   0 -11  -7 54.3742 22.6244   6
   0  11   7-4.75453 17.0577   4
   0  11   8 63.1365 25.1680   4
   0 -11  -8 17.2983 17.2789   6
   1 -12  -6-2.99089 16.7963   7
  -1  11   8 8.80598 18.6537   4
   1 -11  -8 26.9838 20.0936   7
   1 -11  -7 212.415 33.9630   7
  -1  11   7 265.680 41.0124   4
   1 -11  -7 205.006 34.9324   6
   1 -11  -6 148.256 30.5425   6
  -1  11   6 142.548 33.5124   4
   1 -11  -5 32.1970 17.5553   6
  -1  11   5 12.9638 20.9165   4
  -1  11   4-12.0060 23.6419   4
   1 -11  -4 29.3706 20.6642   6
   1 -11  -3 336.732 43.3639   6
  -1  11   3 422.151 48.5949   4
   1 -11  -2 78.9523 23.9217   6
  -1  11   2 100.468 26.3253   4
   1 -11  -1 85.1964 26.7026   6
  -1  11   1 45.1901 21.4548   4
  -1  11   0 95.1161 26.1778   4
  -1  11  -1 18.5305 16.7011   1
  -1  10  10 7.73602 20.2165   4
   1 -10  -9 226.001 36.9239   7
  -1  10   9 221.858 36.6493   4
   1 -10  -9 217.267 37.9765   6
  -1  10   8 373.847 43.1455   4
   1 -10  -8 457.205 47.5828   7
   1 -10  -8 344.091 43.0816   6
  -1  10   7 367.282 42.7081   4
   1 -10  -7 396.527 42.8197   7
   1 -10  -7 370.264 42.5027   6
  -1  10   6 48.6256 22.1798   4
   1 -10  -6 48.1572 19.9486   6
  -1  10   5 171.753 33.3313   4
   1 -10  -5 139.522 27.4445   6
  -1  10   4 58.4007 20.5535   4
   1 -10  -4 64.1866 22.6748   6
   1 -10  -3 81.0289 22.6004   6
  -1  10   3 79.5342 24.2634   4
   1 -10  -2 180.684 31.5115   6
  -1  10   2 172.380 30.7785   4
  -1  10   1 165.299 30.8266   4
   1 -10  -1 134.227 28.3812   6
  -1  10   0 17.6464 15.6297   4
   1 -10   0 47.0046 22.0928   6
  -1  10  -1 301.301 39.9623   4
   1 -10   1 342.730 43.3053   6
   1 -10   2 250.951 39.9042   6
  -1  10  -2 177.150 29.3791   1
  -1  10  -3 146.090 28.2851   1
   1  -9 -12 14.1920 14.6604   3
  -1   9  11 48.5030 18.1229   4
   1  -9 -10 98.0313 28.1108   7
   1  -9 -10 87.1988 24.9286   6
  -1   9  10 131.907 31.2690   4
   1  -9  -9 140.729 30.5664   6
  -1   9   9 105.211 26.9171   4
   1  -9  -9 136.332 29.4804   7
   1  -9  -8 154.324 29.4748   6
  -1   9   8 187.906 33.1655   4
   1  -9  -8 152.748 30.1779   7
   1  -9  -7 1239.49 71.9697   6
  -1   9   7 1301.01 72.8480   4
   1  -9  -6 760.485 55.5256   6
  -1   9   6 840.811 57.2503   4
  -1   9   5 207.597 33.6736   4
   1  -9  -5 216.518 30.6115   6
  -1   9   4 132.614 27.2574   4
   1  -9  -4 119.334 24.3438   6
  -1   9   3 717.039 53.5047   4
   1  -9  -3 687.389 52.1451   6
  -1   9   2 479.710 43.8727   4
   1  -9  -2 540.539 47.7065   6
   1  -9  -1 287.475 37.2570   6
  -1   9   1 272.491 34.6985   4
  -1   9   0 186.270 32.0862   4
   1  -9   0 145.242 28.3568   6
  -1   9  -1 241.447 34.2437   4
   1  -9   1 235.172 35.3405   6
  -1   9  -2 221.650 30.9010   1
   1  -9   2 199.606 34.0400   6
   1  -9   3 282.454 40.0444   6
  -1   9  -3 241.197 31.9734   1
   1  -8 -12 61.3475 21.5257   3
  -1   8  12 52.5267 23.1517   4
   1  -8 -11 260.872 34.1127   3
  -1   8  11 233.284 35.9256   4
   1  -8 -11 283.751 37.5049   7
  -1   8  10 131.906 29.8228   4
   1  -8 -10 124.534 28.7163   6
   1  -8 -10 115.833 27.4255   7
   1  -8  -9 8.51653 15.4612   7
   1  -8  -9 14.9008 18.8999   6
  -1   8   9 27.2738 20.9717   4
   1  -8  -8 156.094 28.7608   6
  -1   8   8 141.030 27.2132   4
   1  -8  -8 159.916 27.7960   7
  -1   8   7 1081.20 62.7159   4
   1  -8  -7 1056.62 62.4752   6
   1  -8  -7 1097.21 62.4183   7
  -1   8   6 707.799 49.9799   4
   1  -8  -6 644.159 48.5710   6
   1  -8  -5 602.573 45.9267   6
  -1   8   5 677.340 47.8075   4
   1  -8  -4-10.1886 15.6895   6
  -1   8   4-20.9581 20.2971   4
   1  -8  -3 50.2154 19.6695   6
  -1   8   3 36.5151 9.00947   5
  -1   8   3 58.9407 20.4669   4
   1  -8  -2 626.409 47.4645   6
  -1   8   2 665.309 48.1557   4
   1  -8  -1 9.68432 13.7114   6
  -1   8   1 2.69499 14.9526   4
  -1   8   0-6.21637 14.1902   4
   1  -8   0 9.31195 15.5570   6
  -1   8  -1 56.1289 19.5237   4
   1  -8   1 65.4173 21.0586   6
   1  -8   2 161.494 29.4752   6
  -1   8  -2 179.477 27.0387   4
   1  -8   3 580.776 52.4437   6
  -1   8  -3 545.459 43.8954   1
  -1   8  -3 631.745 53.1700   3
  -1   8  -4 437.603 45.8175   3
  -1   8  -4 442.578 39.8326   1
   1  -8   4 404.240 45.8607   6
   1  -8   5 32.8966 20.7257   6
  -1   8  -5 15.2717 17.4872   3
  -1   7  13 10.6650 19.7193   4
   1  -7 -12 38.1200 17.3585   3
  -1   7  12 50.8253 23.2308   4
   1  -7 -12 32.8808 17.9557   7
   1  -7 -11 342.259 40.4103   7
   1  -7 -11 307.270 36.4633   3
  -1   7  11 264.542 35.2925   4
   1  -7 -10 167.624 32.4568   7
  -1   7  10 230.259 34.4110   4
   1  -7 -10 135.255 25.4246   3
   1  -7  -9 6.83887 13.4757   7
  -1   7   9 14.4063 17.7329   4
   1  -7  -9 9.30733 13.6781   6
  -1   7   8 105.829 25.5516   4
   1  -7  -8 109.708 23.6263   7
   1  -7  -8 90.7010 22.2455   6
   1  -7  -7 1427.88 67.7580   7
  -1   7   7 1410.07 67.0550   4
   1  -7  -7 1266.30 64.9809   6
  -1   7   6 990.719 55.5173   4
   1  -7  -6 950.052 55.0017   6
   1  -7  -5 115.797 21.4435   6
  -1   7   5 119.706 23.7229   4
  -1   7   4 8.77520 16.7280   4
  -1   7   4-0.57839 3.44332   5
   1  -7  -4 7.06553 13.3997   6
  -1   7   4-1.40058 7.26895   2
   1  -7  -3 60.1569 19.3288   6
  -1   7   3 93.3311 21.1732   4
  -1   7   2 52.9472 18.4845   4
   1  -7  -2 41.4084 15.6301   6
   1  -7  -1 7.43601 13.0824   6
  -1   7   1 3.81311 13.9232   4
   1  -7   0 194.236 28.9634   6
   1  -7   0 218.764 16.7804   2
  -1   7   0 243.937 29.5836   4
  -1   7  -1 359.382 35.3243   4
   1  -7   1 275.615 19.7590   2
   1  -7   1 283.904 32.7652   6
   1  -7   2 9.72063 16.1106   6
  -1   7  -2 3.47405 13.4198   4
  -1   7  -2-1.03612 14.6338   3
  -1   7  -3 95.7718 18.5849   1
   1  -7   3 93.6611 23.7413   6
  -1   7  -3 124.371 25.4812   3
  -1   7  -4 387.716 40.9503   3
   1  -7   4 432.486 45.1285   6
  -1   7  -4 355.599 33.1548   1
  -1   7  -5 406.496 43.5048   3
  -1   7  -5 337.728 32.9606   1
   1  -7   5 406.654 45.9430   6
  -1   7  -6 84.2165 25.4253   3
   1  -7   6 41.6902 22.0545   6
   1  -6 -13 10.6288 11.2394   7
  -1   6  13 30.7712 19.4474   4
  -1   6  12-10.9789 20.4451   4
   1  -6 -12-14.9044 15.8333   7
   1  -6 -12 28.3893 15.7123   3
   1  -6 -11 399.181 40.5300   7
   1  -6 -11 423.377 40.1650   3
  -1   6  11 381.448 40.2817   4
   1  -6 -10 16.9555 13.3754   3
  -1   6  10 25.7899 19.6251   4
   1  -6 -10 29.5873 17.0500   7
  -1   6   9 5.60322 14.4502   4
   1  -6  -9 42.9264 17.9461   7
   1  -6  -9 0.15335 13.9685   3
  -1   6   8 309.516 33.3096   4
   1  -6  -8 288.653 33.6083   6
   1  -6  -8 319.241 33.1242   7
  -1   6   7 37.1867 18.4287   4
   1  -6  -7 59.0723 18.7922   6
   1  -6  -7 49.8184 17.5933   7
  -1   6   6 1056.95 53.6158   4
   1  -6  -6 995.596 52.9933   6
  -1   6   5 1255.50 56.1358   4
   1  -6  -5 1257.74 57.1764   6
  -1   6   4 11.5965 10.5076   2
   1  -6  -4 24.2382 14.2434   6
  -1   6   4 6.52453 2.74293   5
  -1   6   4-8.17411 16.2150   4
  -1   6   3 31.7583 9.14556   2
  -1   6   3 23.3739 13.4312   4
   1  -6  -3 27.3604 13.0160   6
  -1   6   2 3308.64 85.1874   4
   1  -6  -2 3095.74 85.8206   6
  -1   6   1 1344.43 55.4697   4
   1  -6  -1 1273.95 57.1632   6
   1  -6   0 728.830 27.7726   2
   1  -6   0 757.996 46.1159   6
  -1   6   0 790.951 44.5130   4
  -1   6  -1 1115.99 56.1590   3
  -1   6  -1 1146.38 54.3259   4
   1  -6   1 1080.46 56.4498   6
   1  -6   2 321.790 33.7240   6
  -1   6  -2 322.169 31.1681   4
  -1   6  -2 330.929 33.4205   3
   1  -6   3 221.788 30.1388   6
  -1   6  -3 261.355 26.6769   1
  -1   6  -3 235.164 30.4949   3
  -1   6  -4 312.811 29.0345   1
  -1   6  -4 303.166 34.8444   3
   1  -6   4 347.895 37.7442   6
  -1   6  -5 525.180 47.1106   3
   1  -6   5 578.761 50.8772   6
  -1   6  -5 479.620 35.2192   1
   1  -6   6 114.154 26.9998   6
  -1   6  -6 135.558 28.8189   3
  -1   6  -7 182.279 33.2592   3
   1  -6   7 199.206 35.0016   6
   1  -5 -13 315.090 39.2661   7
  -1   5  13 191.459 31.1701   4
   1  -5 -12 69.7805 20.5936   3
  -1   5  12 86.4182 23.9609   4
   1  -5 -12 10.3649 12.2570   7
   1  -5 -11 131.352 24.0018   7
  -1   5  11 94.7311 21.9278   4
   1  -5 -11 58.0387 17.5795   3
  -1   5  10 182.883 26.6194   4
   1  -5 -10 215.763 28.8788   7
   1  -5 -10 187.349 26.8145   3
  -1   5   9 20.5719 16.5806   4
   1  -5  -9 5.08715 12.7302   3
   1  -5  -9 26.0566 14.0602   7
   1  -5  -8-10.5017 13.6832   7
  -1   5   8-11.0745 15.4763   4
   1  -5  -8 2.90545 11.2187   3
  -1   5   7 733.236 44.8148   4
   1  -5  -7 788.437 47.0054   7
   1  -5  -7 758.162 47.1836   6
   1  -5  -6 1310.24 56.9853   6
  -1   5   6 1388.65 57.1491   4
   1  -5  -6 1322.99 56.9431   7
   1  -5  -5 8.90334 10.5558   6
  -1   5   5 17.6417 13.3972   4
  -1   5   4 2356.81 67.6425   4
   1  -5  -4 2251.99 68.4195   6
  -1   5   3 0.08229 7.07310   2
  -1   5   3 8.03827 12.8641   4
   1  -5  -3 5.90644 9.43826   6
   1  -5  -2 14.1369 11.2967   6
  -1   5   2 10.6567 11.7529   4
   1  -5  -1 2832.67 50.3056   2
  -1   5   1 2963.72 73.2317   4
   1  -5  -1 2800.68 75.0289   6
  -1   5   0 416.288 30.0640   3
   1  -5   0 417.362 31.7641   6
   1  -5   0 386.681 19.8141   2
  -1   5   0 436.072 30.3212   4
  -1   5  -1 1171.31 48.8289   4
   1  -5   1 1019.65 49.6556   6
  -1   5  -1 1068.63 50.1954   3
   1  -5   2 382.773 32.9545   6
  -1   5  -2 424.404 32.7064   4
  -1   5  -2 406.131 34.1578   3
  -1   5  -3 715.180 45.9329   3
   1  -5   3 738.341 47.4196   6
   1  -5   3 624.258 19.4357   7
  -1   5  -4 18.1210 11.5496   1
  -1   5  -4 7.06256 14.0276   3
   1  -5   4-4.60263 17.4436   6
  -1   5  -5 172.107 20.8687   1
  -1   5  -5 152.751 25.6516   3
   1  -5   5 153.971 27.0737   6
  -1   5  -6 249.656 33.4713   3
   1  -5   6 247.827 36.0520   6
  -1   5  -6 200.704 21.5995   1
   1  -5   7 1071.83 71.4665   6
  -1   5  -7 1127.53 69.2065   3
  -1   5  -8 38.7050 18.9375   3
   1  -5   8 36.7381 22.9164   6
   1  -4 -13-55.3641 17.9759   7
  -1   4  13 34.4846 17.8714   4
   1  -4 -12 119.749 23.3493   7
  -1   4  12 115.494 27.2224   4
   1  -4 -12 160.841 28.1182   3
   1  -4 -11 181.186 26.8300   3
   1  -4 -11 193.110 26.6456   7
  -1   4  11 209.074 28.7955   4
  -1   4  10 109.986 22.2397   4
   1  -4 -10 126.657 22.2962   7
   1  -4 -10 127.929 22.9544   3
   1  -4  -9 12.2587 13.6857   7
   1  -4  -9 4.17866 10.2555   3
  -1   4   9-7.87353 14.3195   4
  -1   4   8 118.279 23.3729   4
   1  -4  -8 102.064 19.4277   3
   1  -4  -8 116.670 20.2388   7
   1  -4  -8 121.318 12.7639   5
   1  -4  -7 1215.19 32.0184   5
   1  -4  -7 1214.00 51.0423   3
  -1   4   7 1186.83 53.3736   4
   1  -4  -7 1195.15 53.3515   7
   1  -4  -6 2636.52 76.5741   6
  -1   4   6 2686.23 74.1426   4
   1  -4  -6 2726.97 76.5021   7
  -1   4   5 4069.16 86.8148   4
   1  -4  -5 4183.82 88.7816   7
   1  -4  -5 4094.91 89.6447   6
   1  -4  -4 2693.66 68.4452   6
  -1   4   4 2797.06 68.2055   4
   1  -4  -3 1226.97 44.6637   6
  -1   4   3 1358.98 46.1813   4
   1  -4  -3 1201.73 42.9427   4
  -1   4   3 1335.71 46.2110   6
   1  -4  -2 6869.95 96.8532   3
   1  -4  -2 6662.21 95.5627   4
   1  -4  -2 6796.79 102.058   6
  -1   4   2 6814.85 97.9124   4
  -1   4   2 6600.47 76.7808   2
  -1   4   2 7156.27 103.367   6
   1  -4  -1 427.971 19.2992   2
   1  -4  -1 455.510 25.7369   4
   1  -4  -1 414.498 27.3408   6
  -1   4   1 483.870 28.9417   6
   1  -4  -1 432.481 26.4247   3
  -1   4   1 426.728 25.9990   4
   1  -4   0 184.364 20.2396   6
  -1   4   0 162.866 17.3172   4
   1  -4   0 181.030 18.9992   3
   1  -4   0 199.298 17.9082   4
  -1   4   0 172.937 18.8151   6
  -1   4   0 159.741 18.1521   3
  -1   4  -1 5600.75 93.8367   4
  -1   4  -1 5659.18 101.743   3
   1  -4   1 5460.81 101.373   6
   1  -4   1 5568.14 89.4909   4
  -1   4  -2 1195.68 50.4034   3
   1  -4   2 1140.13 42.7726   4
  -1   4  -2 1196.33 45.7250   4
   1  -4   2 1106.11 50.0193   6
  -1   4  -3 2542.56 77.8646   3
   1  -4   3 2544.68 79.1122   6
  -1   4  -4 1.67838 8.31574   1
   1  -4   4 7.87128 14.1670   6
  -1   4  -4 12.1784 13.7459   3
  -1   4  -5 1421.85 48.7486   1
  -1   4  -5 1475.12 68.2004   3
   1  -4   5 1522.57 73.2082   6
  -1   4  -6 93.9051 21.2797   3
   1  -4   6 99.3453 23.3237   6
  -1   4  -6 45.1007 10.3727   1
   1  -4   7 731.069 57.3232   6
  -1   4  -7 682.050 53.6587   3
   1  -4   8 940.296 68.2609   6
  -1   4  -8 913.825 63.8115   3
   1  -4   9 140.980 31.8473   6
  -1   4  -9 95.2509 25.7135   3
   1  -3 -12 91.4777 20.7677   7
  -1   3  12 83.0073 21.9446   4
   1  -3 -12 120.457 26.6062   3
   1  -3 -11 182.599 25.7753   7
  -1   3  11 197.772 28.3798   4
   1  -3 -11 217.333 29.3060   3
  -1   3  10 762.845 49.7413   4
   1  -3 -10 752.928 48.0257   3
   1  -3 -10 821.289 49.7329   7
   1  -3  -9-1.99409 10.5302   3
   1  -3  -9 16.9444 11.0959   7
  -1   3   9 14.2935 12.4514   4
   1  -3  -8 11.6529 12.1794   7
  -1   3   8-1.15225 12.9692   4
   1  -3  -8 18.7980 8.65402   5
   1  -3  -8 6.83615 10.8097   3
   1  -3  -7 139.399 19.0862   3
   1  -3  -7 170.855 15.7317   5
  -1   3   7 127.009 19.4989   4
   1  -3  -7 146.193 20.6654   7
   1  -3  -6 843.876 40.7682   7
  -1   3   6 855.461 41.1633   4
   1  -3  -6 842.563 28.1368   5
   1  -3  -6 751.897 35.9575   3
   1  -3  -5 1137.95 44.2302   7
   1  -3  -5 1075.33 26.1878   5
  -1   3   5 1096.40 43.5527   4
   1  -3  -5 1167.70 46.4315   6
   1  -3  -4 41.4273 10.6328   4
   1  -3  -4 35.5742 11.1681   6
  -1   3   4 44.1422 10.7129   6
  -1   3   4 36.6565 11.9455   4
   1  -3  -4 49.5209 12.1040   7
  -1   3   3 674.671 30.3680   6
  -1   3   3 643.089 29.8963   4
  -1   3   3 553.118 12.1326   5
   1  -3  -3 705.930 30.6636   4
   1  -3  -3 671.900 30.5318   6
  -1   3   2 465.619 20.6138   2
  -1   3   2 439.201 23.4706   4
   1  -3  -2 456.921 24.2927   6
   1  -3  -2 479.347 23.9172   4
  -1   3   2 458.570 24.0033   6
   1  -3  -1 4601.48 69.5914   3
   1  -3  -1 4681.97 69.0902   4
  -1   3   1 4691.92 73.3305   6
  -1   3   1 4605.59 69.3034   4
   1  -3  -1 4477.14 72.4301   6
   1  -3  -1 4549.38 56.3674   2
   1  -3   0 87.3750 12.4796   3
  -1   3   0 76.7380 13.1167   3
   1  -3   0 91.6210 11.6814   4
  -1   3   0 81.1101 11.3901   4
   1  -3   0 81.7553 13.4261   6
  -1   3   0 76.9591 12.4011   6
  -1   3  -1 43.8684 11.1118   6
  -1   3  -1 39.0203 10.9376   3
  -1   3  -1 60.7612 11.0379   4
   1  -3   1 43.6730 11.1510   6
   1  -3   1 52.3277 9.74455   4
   1  -3   1 49.8303 11.0558   3
   1  -3   2 1731.55 53.2942   3
  -1   3  -2 1775.86 57.9810   6
   1  -3   2 1744.87 55.7872   6
   1  -3   2 1788.42 48.7729   4
  -1   3  -2 1844.36 49.6001   4
  -1   3  -2 1800.78 55.1887   3
   1  -3   3 1781.99 51.9964   4
  -1   3  -3 1700.31 58.4967   3
   1  -3   3 1697.80 60.0314   6
  -1   3  -4 59.9033 14.9256   3
   1  -3   4 66.6812 16.1104   6
  -1   3  -4 65.7457 10.7499   1
   1  -3   4 59.5662 12.5968   4
  -1   3  -5 226.267 17.6939   1
   1  -3   5 238.294 30.1737   6
  -1   3  -5 239.989 27.5628   3
  -1   3  -6 268.314 32.2524   3
  -1   3  -6 286.942 20.2118   1
   1  -3   6 281.218 33.7948   6
  -1   3  -7 244.686 31.3523   3
   1  -3   7 258.546 34.2434   6
  -1   3  -8 162.633 28.9632   3
   1  -3   8 184.607 33.3310   6
   1  -3   9 360.119 43.2317   6
  -1   3  -9 366.710 41.9190   3
  -1   3 -10 94.1918 25.8547   3
  -1   2  12-2.62114 14.1731   4
   1  -2 -12-29.1053 17.4439   3
   1  -2 -11 81.1976 17.7105   3
   1  -2 -11 113.617 21.4774   7
  -1   2  11 96.8332 22.4660   4
   1  -2 -10 153.577 22.3677   7
   1  -2 -10 187.278 26.3887   3
  -1   2  10 113.790 20.7402   4
   1  -2  -9 94.3744 17.3970   7
   1  -2  -9 101.601 19.5922   3
  -1   2   9 96.1448 20.4511   4
   1  -2  -8 12.4207 13.0930   3
   1  -2  -8 1.02553 9.42337   7
  -1   2   8 5.08652 12.5231   4
  -1   2   8-3.97598 9.50154   1
   1  -2  -7 41.7550 12.9645   3
   1  -2  -7 32.3709 11.2222   7
  -1   2   7 26.4805 7.21544   1
   1  -2  -7 43.3740 11.1891   5
  -1   2   7 44.7580 14.0481   4
   1  -2  -6 294.016 20.6916   5
   1  -2  -6 273.152 23.2997   7
  -1   2   6 296.459 20.3644   1
   1  -2  -6 260.846 22.0013   3
  -1   2   6 273.716 24.4020   4
  -1   2   5 40.1555 10.9985   6
  -1   2   5 49.0939 12.6757   4
   1  -2  -5 56.3470 12.3454   7
   1  -2  -5 45.2151 10.5115   3
   1  -2  -5 49.1945 8.85818   5
   1  -2  -5 31.2188 9.52056   4
   1  -2  -4 1569.46 32.4345   5
  -1   2   4 1461.26 44.9459   4
   1  -2  -4 1604.48 46.1868   4
   1  -2  -4 1613.90 45.8022   7
   1  -2  -4 1616.71 47.4348   6
  -1   2   4 1700.60 47.9099   6
   1  -2  -3 2.50134 7.54996   7
   1  -2  -3 13.6302 7.91403   4
   1  -2  -3 1.23103 7.50859   6
   1  -2  -3 10.0781 3.94561   5
  -1   2   3 2.70849 7.83238   6
  -1   2   3 9.00001 8.37460   4
  -1   2   3 2.82172 4.15071   5
  -1   2   2 107.020 13.0925   4
   1  -2  -2 107.880 11.5189   7
  -1   2   2 123.694 12.1620   6
   1  -2  -2 114.803 12.4624   6
   1  -2  -2 122.700 12.4568   4
   1  -2  -1 16874.5 109.366   4
   1  -2  -1 16580.0 114.748   6
  -1   2   1 16376.0 109.428   4
   1  -2  -1 16304.2 103.831   3
  -1   2   1 16802.0 114.034   6
  -1   2   1 16440.1 99.9404   2
   1  -2  -1 16459.2 100.576   2
  -1   2   0 774.564 23.9925   4
   1  -2   0 737.846 25.6287   3
  -1   2   0 765.440 27.0118   6
   1  -2   0 777.348 23.5559   4
   1  -2   0 709.324 26.0462   6
  -1   2   0 748.849 26.0481   3
  -1   2  -1 1748.51 37.3848   4
   1  -2   1 1841.90 43.9798   3
   1  -2   1 1705.58 45.0636   6
  -1   2  -1 1811.17 44.9151   3
   1  -2   1 1886.97 37.9645   4
  -1   2  -1 1827.21 45.3452   6
  -1   2  -2 70.5092 12.9591   3
   1  -2   2 76.9879 14.5617   6
   1  -2   2 65.9878 11.0943   3
   1  -2   2 56.0188 8.82506   4
  -1   2  -2 74.1645 10.2683   4
  -1   2  -3 3050.41 69.5541   3
  -1   2  -3 3007.18 47.8327   1
   1  -2   3 3082.88 69.7456   3
   1  -2   3 3120.52 74.2931   6
   1  -2   3 2915.49 56.2702   4
  -1   2  -4-3.40469 11.7851   3
   1  -2   4-7.68077 12.1407   6
  -1   2  -4-2.42020 5.18310   1
   1  -2   4-5.95550 7.16677   4
   1  -2   5 195.187 25.8102   6
  -1   2  -5 187.933 13.6706   1
  -1   2  -5 194.855 23.5322   3
   1  -2   5 194.229 18.6268   4
   1  -2   6 70.7970 19.1621   6
  -1   2  -6 37.5872 5.55919   7
  -1   2  -6 72.5747 9.23095   1
  -1   2  -6 75.0032 18.9039   3
   1  -2   7 66.9891 21.7106   6
  -1   2  -7 91.9964 21.1783   3
  -1   2  -7 52.5264 7.10063   7
  -1   2  -7 58.4156 8.19693   1
   1  -2   8 135.973 20.6946   4
  -1   2  -8 154.960 26.5946   3
   1  -2   8 118.951 26.4692   6
  -1   2  -9 70.0064 19.9408   3
   1  -2   9 33.2518 17.2987   6
   1  -2   9 44.3815 14.1783   4
   1  -2  10-0.55769 17.7569   6
  -1   2 -10 18.8597 18.8596   3
  -1   2 -11 631.115 57.0262   3
   1  -1 -12 13.6432 12.7453   3
  -1   1  12-12.5267 20.1700   4
   1  -1 -11 175.641 27.4146   3
  -1   1  11 150.331 24.8991   4
  -1   1  10 946.956 55.3824   4
   1  -1 -10 920.947 54.8417   3
   1  -1 -10 982.351 51.0538   7
   1  -1  -9 582.292 41.4206   3
   1  -1  -9 599.177 38.2472   7
  -1   1   9 616.951 42.8866   4
   1  -1  -8 643.194 40.6371   3
  -1   1   8 639.936 31.6201   1
   1  -1  -8 635.967 37.2316   7
  -1   1   8 603.202 40.2715   4
  -1   1   7 1055.38 48.2847   4
   1  -1  -7 1060.73 47.0150   3
  -1   1   7 1193.66 40.9725   1
   1  -1  -7 1135.96 46.3139   7
   1  -1  -6 1948.33 56.8228   5
   1  -1  -6 1881.99 55.2282   7
   1  -1  -6 1854.65 55.3191   3
  -1   1   6 1890.35 59.3224   4
  -1   1   6 1953.07 48.8054   1
   1  -1  -5 577.946 28.3615   5
   1  -1  -5 551.294 28.0508   7
   1  -1  -5 553.344 27.8600   3
  -1   1   5 551.838 31.1752   6
  -1   1   5 579.492 25.5961   1
  -1   1   5 552.463 30.5900   4
   1  -1  -4 156.344 13.4453   5
  -1   1   4 160.277 13.0288   1
  -1   1   4 158.412 15.5034   6
  -1   1   4 170.305 15.3663   7
  -1   1   4 161.577 16.6039   4
   1  -1  -4 159.342 13.5508   3
   1  -1  -4 168.335 15.2040   7
   1  -1  -3 22.8714 7.50279   7
   1  -1  -3 26.5467 6.14196   5
   1  -1  -3 33.8877 8.30167   4
  -1   1   3 27.1827 8.81659   6
  -1   1   3 14.8466 7.13849   7
  -1   1   3 22.7597 8.92134   4
   1  -1  -3 27.2535 6.91379   3
   1  -1  -2 74.3520 9.97041   7
   1  -1  -2 61.0713 9.39067   4
  -1   1   2 79.2732 8.68208   5
   1  -1  -2 99.5317 9.61123   5
  -1   1   2 61.3679 9.71461   6
  -1   1   2 68.3362 9.50932   7
   1  -1  -2 84.3434 11.2747   6
  -1   1   2 54.3525 10.6254   4
   1  -1  -1 4094.29 42.9549   6
  -1   1   1 4151.42 46.0911   4
  -1   1   1 4159.67 45.4569   7
  -1   1   1 4138.65 43.0893   6
   1  -1  -1 4173.99 46.9357   4
   1  -1  -1 4224.86 46.3177   7
  -1   1   1 4035.68 46.2621   2
  -1   1   0 157.350 9.02276   3
  -1   1   0 157.581 9.67376   6
   1  -1   0 157.738 9.73139   6
   1  -1   0 148.792 7.72533   4
   1  -1   0 154.078 7.28419   7
  -1   1   0 167.199 8.28357   4
   1  -1   0 144.043 8.90430   3
  -1   1   0 162.039 7.34637   7
   1  -1   1 3429.48 36.3188   4
   1  -1   1 3500.39 49.4247   3
  -1   1  -1 3409.83 36.2258   4
  -1   1  -1 3622.42 52.3553   6
   1  -1   1 3535.89 51.0737   6
  -1   1  -1 3427.22 50.0150   3
   1  -1   2 52.6278 9.78969   3
   1  -1   2 43.1297 6.86513   4
   1  -1   2 56.2999 11.0731   6
  -1   1  -2 47.8624 10.3779   3
  -1   1  -3 1004.73 20.3777   1
  -1   1  -3 1018.56 36.6910   3
   1  -1   3 1021.10 36.3149   3
  -1   1  -3 904.195 15.9489   7
  -1   1  -4 108.154 7.64735   7
  -1   1  -4 102.593 16.1621   3
  -1   1  -4 99.6535 7.44755   1
   1  -1   4 107.700 14.9515   3
  -1   1  -5 986.097 25.4123   7
  -1   1  -5 941.222 43.5341   3
  -1   1  -5 810.799 20.6437   1
  -1   1  -6 69.1747 18.1279   3
  -1   1  -6 48.3102 7.77445   7
  -1   1  -7 550.008 41.2311   3
  -1   1  -7 539.676 23.7507   7
   1  -1   7 555.056 33.4441   4
   1  -1   8 1059.48 48.6390   4
  -1   1  -8 1030.73 35.0818   7
  -1   1  -8 1155.39 61.4006   3
  -1   1  -9 71.3247 19.9821   3
   1  -1   9 30.0162 11.3236   4
  -1   1 -10 106.738 24.5267   3
   1  -1  11 27.0868 17.4898   6
  -1   1 -11 94.4276 25.2104   3
   1   0 -12 104.967 23.7545   3
   1   0 -11 3.10863 13.5598   3
  -1   0  11 1.50340 12.0632   4
  -1   0  10 54.3879 16.0007   4
   1   0 -10 66.0776 14.7158   7
   1   0 -10 85.0277 19.9813   3
  -1   0   9 1093.03 57.5585   4
   1   0  -9 1202.86 60.0125   3
   1   0  -9 1177.28 51.6643   7
   1   0  -8 403.594 33.3401   3
  -1   0   8 350.149 32.0982   4
  -1   0   8 359.602 23.9131   1
   1   0  -8 359.165 27.3767   7
   1   0  -7 41.9252 13.7431   3
  -1   0   7 45.4831 9.00498   1
   1   0  -7 63.7548 12.5430   7
  -1   0   7 55.5537 16.0944   4
   1   0  -6 2851.75 65.3109   7
  -1   0   6 2861.95 59.5192   1
   1   0  -6 2775.32 70.5581   3
  -1   0   6 2708.00 73.4276   4
  -1   0   5 209.398 15.9822   1
   1   0  -5 223.890 17.8390   7
  -1   0   5 196.445 18.0290   3
   1   0  -5 214.398 20.2253   5
  -1   0   5 216.616 17.7795   7
   1   0  -5 194.997 18.3598   3
  -1   0   5 211.275 21.1511   4
  -1   0   4 1527.59 38.7676   1
   1   0  -4 1460.19 40.1559   3
   1   0  -4 1493.51 40.0631   7
  -1   0   4 1514.44 40.0286   7
  -1   0   4 1524.22 40.7084   3
   1   0  -4 1533.14 44.8646   5
   1   0  -3 9.68954 7.26071   5
   1   0  -3 0.73025 5.71198   7
  -1   0   3 7.48106 5.70334   7
  -1   0   3 12.0222 6.05224   1
   1   0  -3 11.1636 6.48053   3
   1   0  -3 4.49451 5.57295   1
  -1   0   3 7.75852 6.01846   3
  -1   0   2 397.353 18.5709   5
   1   0  -2 381.287 17.6686   5
   1   0  -2 386.352 16.5989   7
  -1   0   2 375.410 16.2481   7
  -1   0   2 416.067 16.8925   1
  -1   0   2 375.948 13.6476   3
   1   0  -2 382.750 14.0381   3
   1   0  -2 384.375 16.3444   1
   1   0  -1 639.445 17.7339   5
  -1   0   1 649.933 17.6277   5
  -1   0   1 717.689 18.5161   1
  -1   0   1 658.075 17.7796   7
   1   0  -1 656.480 17.8422   1
   1   0  -1 663.526 17.9695   7
   1   0   1 4184.84 43.8724   3
  -1   0  -1 4175.19 43.7364   3
   1   0   2 31886.1 95.0051   4
  -1   0  -2 33326.1 158.158   3
   1   0   2 31966.7 154.533   3
   1   0   3 10355.5 76.1940   4
   1   0   3 10681.9 107.125   3
  -1   0  -3 10520.7 105.885   3
  -1   0  -4 520.699 28.3650   3
   1   0   4 538.788 21.6107   4
  -1   0  -4 561.902 19.5805   7
   1   0   4 535.507 27.9027   3
  -1   0  -5 669.588 24.2183   7
   1   0   5 638.836 27.4949   4
  -1   0  -5 729.183 36.7920   3
  -1   0  -6 189.245 15.1517   7
   1   0   6 132.564 15.9055   4
  -1   0  -6 163.009 20.8722   3
  -1   0  -7 228.470 17.7882   7
  -1   0  -7 201.810 25.1904   3
   1   0   7 176.223 19.7976   4
   1   0   8 70.0154 13.7646   4
  -1   0  -8 105.125 20.2620   3
  -1   0  -8 97.3361 13.3418   7
   1   0   9 302.146 27.4847   4
  -1   0  -9 289.057 22.2519   7
  -1   0  -9 291.244 33.4737   3
  -1   0 -10 27.1158 17.2876   3
   1   0  10 38.6845 13.8786   4
  -1   0 -11-17.0617 16.5700   3
  -1   0 -12 232.074 35.9908   3
   1   1 -11 93.3643 23.3324   3
  -1  -1  11 89.3772 21.1019   4
   1   1 -10 713.951 52.2674   3
  -1  -1  10 689.270 50.2113   4
  -1  -1   9 77.7461 18.6827   4
   1   1  -9 68.0022 17.3614   3
   1   1  -9 127.262 17.7875   7
   1   1  -8 1008.21 53.7902   3
   1   1  -8 944.055 42.2735   7
  -1  -1   8 985.340 53.4922   4
  -1  -1   7 398.373 33.2660   4
  -1  -1   7 388.706 24.7177   1
   1   1  -7 453.072 34.4254   3
   1   1  -7 391.962 25.6641   7
   1   1  -6 248.903 19.5780   7
  -1  -1   6 262.525 19.8921   1
   1   1  -6 213.071 18.1350   1
  -1  -1   6 231.338 19.5562   7
   1   1  -6 237.351 23.6844   3
   1   1  -5 9.98267 9.50593   3
  -1  -1   5 1.82415 7.28639   1
  -1  -1   5 1.95929 6.38227   7
  -1  -1   5 20.2676 9.53867   3
   1   1  -5 18.4637 7.27907   7
   1   1  -5 3.29235 5.77649   1
   1   1  -4 2116.93 53.6482   3
  -1  -1   4 2202.72 47.1858   7
  -1  -1   4 2147.20 52.5922   3
   1   1  -4 2101.31 46.4938   7
   1   1  -4 2138.90 48.2589   1
   1   1  -4 2184.38 59.7948   5
  -1  -1   4 2209.46 48.5682   1
   1   1  -3 126.401 10.9179   7
  -1  -1   3 129.377 11.8208   1
   1   1  -3 142.254 13.4430   3
   1   1  -3 133.906 12.4179   1
  -1  -1   3 140.670 13.4029   3
  -1  -1   3 134.112 11.2779   7
   1   1  -3 123.153 14.3830   5
  -1  -1   2 1294.07 29.3845   7
  -1  -1   2 1299.19 31.8514   1
   1   1  -2 1227.58 29.4908   7
   1   1  -2 1337.82 31.7113   3
   1   1  -2 1263.32 32.1788   1
   1   1  -2 1402.80 37.9076   5
  -1  -1   2 1267.99 30.5417   3
   1   1  -1 98.7856 10.0168   1
  -1  -1   1 97.7918 9.11204   1
   1   1  -1 95.0831 8.81665   7
  -1  -1   1 94.8656 8.12827   3
  -1  -1   1 97.0000 8.32012   7
  -1  -1   1 96.1294 8.99628   6
  -1  -1   1 102.542 10.2308   5
   1   1  -1 99.8827 10.0484   5
   1   1  -1 113.952 9.12437   3
  -1  -1   0 12356.4 78.5197   4
   1   1   0 12417.6 79.4939   1
  -1  -1   0 12471.8 73.6295   5
  -1  -1   0 12712.1 54.2712   2
   1   1   0 12553.6 53.8689   2
  -1  -1   0 12587.8 58.3253   6
  -1  -1   0 12660.7 79.9148   1
   1   1   0 12515.7 58.4778   6
   1   1   0 12630.8 73.5319   5
   1   1   1 430.611 13.0031   4
   1   1   1 438.967 13.6697   1
  -1  -1  -1 415.056 12.4425   4
   1   1   1 461.880 13.1109   6
  -1  -1  -1 409.160 13.0488   6
   1   1   2 10347.7 61.9002   4
  -1  -1  -2 10466.1 61.1383   4
   1   1   2 10552.6 82.9395   6
  -1  -1  -3 57881.2 180.823   4
   1   1   3 56591.1 173.675   4
  -1  -1  -3 57777.8 239.052   3
  -1  -1  -4 8213.86 103.693   3
   1   1   4 8450.97 80.0804   4
  -1  -1  -4 8155.99 81.6350   4
   1   1   4 8277.37 103.118   3
   1   1   5 607.031 25.5429   4
   1   1   5 554.601 30.3924   3
  -1  -1  -5 633.540 33.0516   3
   1   1   5 554.414 15.1228   1
  -1  -1  -6 1395.57 42.1892   7
   1   1   6 1259.87 24.4373   1
   1   1   6 1347.90 42.2887   4
  -1  -1  -6 1417.61 53.3581   3
   1   1   7 120.308 16.3431   4
  -1  -1  -7 118.233 15.1709   7
   1   1   7 98.9690 7.54093   1
  -1  -1  -7 106.640 19.3641   3
   1   1   8 141.507 19.1550   4
  -1  -1  -8 149.770 23.9605   3
   1   1   8 117.603 7.90275   1
  -1  -1  -8 139.915 16.6116   7
  -1  -1  -9 236.074 21.6056   7
   1   1   9 249.904 24.7151   4
  -1  -1  -9 234.432 29.4518   3
  -1  -1 -10 60.9215 19.4376   3
  -1  -1 -10 44.8139 12.7255   7
   1   1  10 36.9251 13.7907   4
  -1  -1 -11 94.7995 24.3835   3
  -1  -1 -12 80.3563 22.9955   3
   1   2 -11-11.8387 17.6658   3
  -1  -2  10 147.749 30.7762   6
  -1  -2  10 117.159 25.1383   4
   1   2 -10 69.1402 18.3942   3
  -1  -2   9 0.77475 15.1600   6
   1   2  -9-23.8232 17.9067   3
  -1  -2   9-16.6730 14.5528   4
   1   2  -8 1066.77 44.8964   7
   1   2  -8 1100.60 59.1869   3
  -1  -2   8 1181.59 67.1745   6
  -1  -2   7 12.5719 15.4870   6
   1   2  -7-5.66584 7.04385   7
  -1  -2   7-4.40030 8.45099   7
   1   2  -7-2.08571 6.85414   1
   1   2  -7 6.38199 11.8461   3
  -1  -2   6 3413.14 67.7705   7
   1   2  -6 3273.45 73.0475   1
  -1  -2   6 3335.52 96.2266   6
   1   2  -6 3400.76 70.7454   7
   1   2  -6 3288.52 88.0979   3
   1   2  -5 26.4020 11.8767   3
   1   2  -5 34.3484 8.65858   7
  -1  -2   5 35.6045 14.9656   6
  -1  -2   5 32.0598 10.5203   1
  -1  -2   5 49.5328 9.41398   7
   1   2  -5 48.1805 10.7421   1
  -1  -2   4 333.832 18.9557   7
   1   2  -4 286.073 20.6258   1
  -1  -2   4 309.341 25.6163   6
   1   2  -4 348.300 25.7300   3
  -1  -2   4 326.541 23.5517   3
  -1  -2   4 343.531 21.8983   1
   1   2  -4 318.912 18.9177   7
   1   2  -3 1738.27 54.5370   5
  -1  -2   3 1581.04 46.0721   3
   1   2  -3 1598.49 47.6064   3
   1   2  -3 1526.95 37.8224   7
  -1  -2   3 1690.71 44.2640   1
  -1  -2   3 1627.77 38.2415   7
   1   2  -3 1562.80 43.7006   1
  -1  -2   3 1596.63 50.3160   6
   1   2  -2 4752.86 77.1357   5
   1   2  -2 4801.49 73.1182   3
   1   2  -2 4612.74 69.8866   1
  -1  -2   2 4511.01 59.8961   7
  -1  -2   2 4764.49 69.7037   1
  -1  -2   2 4682.21 70.9109   3
  -1  -2   2 4716.96 75.9274   4
  -1  -2   2 4613.19 74.5499   6
   1   2  -1 209.144 15.1664   5
   1   2  -1 201.549 14.7007   3
  -1  -2   1 180.858 14.6165   6
   1   2  -1 189.285 15.1581   1
  -1  -2   1 235.138 15.8326   3
   1   2  -1 205.253 14.9629   6
  -1  -2   1 195.143 15.7237   4
   1   2   0 55.6560 8.69123   6
   1   2   0 55.1550 11.0605   1
  -1  -2   0 49.7824 9.10444   6
  -1  -2   0 57.0745 8.99976   3
   1   2   0 71.4099 9.94319   5
  -1  -2   0 84.5444 12.8060   5
  -1  -2   0 42.0934 10.3890   4
   1   2   0 57.5047 10.7159   4
   1   2   1 78.1813 7.58871   5
  -1  -2  -1 81.0393 9.51640   6
   1   2   1 74.1707 10.5222   4
  -1  -2  -1 99.9705 8.87842   5
   1   2   1 85.4283 9.57132   6
  -1  -2  -1 83.9643 10.5679   4
   1   2   2 73.9513 9.43328   6
  -1  -2  -2 89.2344 10.8022   4
   1   2   2 91.3052 10.3531   4
  -1  -2  -2 96.4440 11.1150   6
   1   2   3 1210.08 31.0694   4
   1   2   3 1329.36 37.1104   6
  -1  -2  -3 1319.66 31.2660   4
  -1  -2  -3 1252.51 37.6442   6
  -1  -2  -4 4222.95 73.9488   3
   1   2   4 4013.59 59.9471   4
  -1  -2  -4 4319.26 61.9487   4
   1   2   4 4315.69 75.0708   6
  -1  -2  -5 1405.72 48.2445   3
   1   2   5 1365.48 47.7760   6
  -1  -2  -5 1495.76 40.8604   4
   1   2   5 1410.03 39.6511   4
  -1  -2  -6 1336.18 50.7340   3
  -1  -2  -6 1280.29 42.3626   4
   1   2   6 1224.63 40.7725   4
   1   2   7 80.3158 8.66892   1
   1   2   7 81.1325 14.7629   4
  -1  -2  -7 59.2846 13.8826   7
  -1  -2  -7 61.6975 16.3882   3
  -1  -2  -8 172.552 24.6377   3
   1   2   8 178.261 20.4130   4
  -1  -2  -8 211.264 22.3908   7
   1   2   8 203.948 12.8940   1
  -1  -2  -9 96.6544 16.3255   7
  -1  -2  -9 88.4341 19.3179   3
   1   2   9 103.066 17.1836   4
  -1  -2 -10 205.192 29.1931   3
  -1  -2 -10 189.815 23.4003   7
   1   2  10 173.412 21.9510   4
  -1  -2 -11 196.561 23.2102   7
  -1  -2 -11 195.189 29.6705   3
  -1  -2 -12 226.662 35.4672   3
  -1  -3  10-27.6317 18.7807   4
  -1  -3  10 51.4509 22.9372   6
   1   3 -10 17.2708 16.5057   3
   1   3  -9 265.059 34.6358   3
  -1  -3   9 272.389 38.8600   6
   1   3  -8 155.258 26.3447   3
  -1  -3   8 166.716 28.4711   6
  -1  -3   7 20.2178 17.3444   6
   1   3  -7 12.0930 8.72760   1
   1   3  -7 31.5490 16.5545   3
  -1  -3   6 3292.53 66.3596   7
   1   3  -6 3355.40 96.7433   3
   1   3  -6 3122.64 76.8008   1
  -1  -3   6 3417.30 105.102   6
  -1  -3   5 108.809 12.8101   7
  -1  -3   5 81.6046 19.3987   6
   1   3  -5 87.1554 15.1233   1
   1   3  -5 72.9367 16.9278   3
  -1  -3   4 1262.90 55.5170   6
  -1  -3   4 1320.98 38.5692   7
   1   3  -4 1255.05 52.0211   3
   1   3  -4 1204.01 44.7073   1
  -1  -3   3-3.18601 5.01215   7
   1   3  -3 0.82131 7.39822   1
  -1  -3   3 5.13389 9.99151   6
  -1  -3   3 11.1710 8.08058   3
   1   3  -3-2.73443 10.2919   3
   1   3  -2 1376.19 47.3563   5
   1   3  -2 1397.16 44.3232   1
   1   3  -2 1410.67 46.3525   3
  -1  -3   2 1583.44 48.8730   3
  -1  -3   2 1362.26 47.1014   4
  -1  -3   2 1446.41 37.7273   7
  -1  -3   2 1330.80 45.7798   6
  -1  -3   1 770.860 32.8630   3
  -1  -3   1 777.674 33.3499   4
   1   3  -1 748.424 31.2577   5
   1   3  -1 760.630 31.6326   1
   1   3  -1 751.994 33.6400   4
   1   3  -1 716.657 31.0159   3
  -1  -3   1 728.957 32.0600   6
   1   3  -1 733.493 31.1911   6
   1   3   0 650.538 25.1480   5
   1   3   0 658.135 29.3634   4
  -1  -3   0 634.751 27.4463   6
  -1  -3   0 660.479 29.1229   4
  -1  -3   0 624.777 27.6516   3
   1   3   0 654.978 26.7736   6
   1   3   1 1008.32 35.0024   4
  -1  -3  -1 1016.37 33.7950   4
   1   3   1 1035.99 31.9688   6
   1   3   1 972.506 25.8863   5
  -1  -3  -1 987.753 26.8926   5
  -1  -3  -1 962.142 31.3587   6
  -1  -3  -2 135.826 13.4582   6
  -1  -3  -2 137.156 13.7930   4
  -1  -3  -2 132.901 8.76181   5
   1   3   2 142.540 14.4984   4
   1   3   2 144.074 13.5021   6
   1   3   3 6426.91 82.2952   4
  -1  -3  -3 6542.68 81.1388   4
   1   3   3 6559.55 87.0555   6
  -1  -3  -3 6150.64 86.2718   6
   1   3   4 0.89437 7.44090   6
  -1  -3  -4 16.8126 10.1460   6
  -1  -3  -4 18.1650 7.42199   4
   1   3   4 9.12191 7.99650   4
  -1  -3  -5 555.928 27.1942   4
   1   3   5 526.499 27.4771   4
  -1  -3  -6 5201.69 87.7957   4
  -1  -3  -6 5093.90 100.382   3
   1   3   6 4988.68 85.3672   4
  -1  -3  -7 3.87071 10.8498   3
   1   3   7 0.17611 10.1961   4
  -1  -3  -8 2.50368 13.0512   3
  -1  -3  -8 15.3799 11.5391   7
   1   3   8 15.0317 12.3355   4
  -1  -3  -9 1151.15 52.8669   7
  -1  -3  -9 1053.09 57.1102   3
   1   3   9 1041.66 48.9970   4
  -1  -3 -10 64.0678 19.6604   3
   1   3  10 43.2188 15.1064   4
  -1  -3 -10 47.0927 14.3278   7
   1   3  11-10.9070 14.0845   4
  -1  -3 -11 10.9152 12.4716   7
  -1  -3 -11-27.2642 17.3934   3
  -1  -3 -12 8.40621 13.2559   3
  -1  -3 -13 72.6436 21.0929   3
   1   4 -10 54.7603 19.7780   3
   1   4  -9-23.5611 20.7549   3
  -1  -4   9 60.8753 22.8682   6
   1   4  -8 1578.59 78.9369   3
  -1  -4   8 1559.09 85.1825   6
   1   4  -7 455.994 41.1747   3
  -1  -4   7 493.300 46.3549   6
   1   4  -7 418.819 33.4742   1
   1   4  -6 20.1213 10.4117   1
   1   4  -6 0.82215 13.1908   3
  -1  -4   6 44.2390 16.4136   6
  -1  -4   5 1321.62 65.2127   6
   1   4  -5 1217.87 58.9230   3
  -1  -4   5 1292.18 40.3379   7
   1   4  -5 1158.86 49.7948   1
  -1  -4   4 625.074 27.7756   7
   1   4  -4 566.886 38.7802   3
   1   4  -4 545.943 33.7108   1
  -1  -4   4 596.617 41.4922   6
  -1  -4   3 219.816 17.1519   7
  -1  -4   3 239.828 26.2673   6
   1   4  -3 222.837 23.8312   3
   1   4  -3 206.422 21.5671   1
   1   4  -2 11.5871 10.6448   3
  -1  -4   2-1.88282 10.9723   6
   1   4  -2-3.35762 10.7057   1
  -1  -4   2 6.69204 5.43150   7
  -1  -4   1 663.870 34.2350   3
   1   4  -1 649.243 33.6893   6
   1   4  -1 666.273 36.0992   4
   1   4  -1 609.644 32.6384   1
   1   4  -1 636.435 32.4729   5
   1   4  -1 579.897 31.9129   3
  -1  -4   1 677.513 34.9155   6
  -1  -4   0 149.395 16.5175   3
  -1  -4   0 151.321 16.9562   6
   1   4   0 164.269 16.8825   6
  -1  -4   0 174.128 18.2547   4
   1   4   0 151.712 15.0371   5
   1   4   0 163.050 18.7674   4
   1   4   1 41.3051 12.0117   4
  -1  -4  -1 36.9980 11.0923   6
   1   4   1 27.7234 8.73461   6
  -1  -4  -1 32.7571 9.88108   4
   1   4   1 27.3773 6.23087   5
   1   4   2 4.01768 4.05485   5
  -1  -4  -2-0.85720 8.90724   4
  -1  -4  -2 0.16149 8.10397   6
   1   4   2 1.57868 6.97418   6
   1   4   2 6.64110 9.88178   4
   1   4   3 1686.51 48.8520   4
  -1  -4  -3 1551.22 25.0913   5
  -1  -4  -3 1561.98 48.5088   6
   1   4   3 1743.39 49.7536   6
  -1  -4  -3 1580.25 46.5133   4
  -1  -4  -4 68.1971 13.3196   6
  -1  -4  -4 67.5563 12.6875   4
   1   4   4 49.7716 11.3535   6
  -1  -4  -4 39.7613 3.73529   5
   1   4   4 70.7181 13.5090   4
  -1  -4  -5 589.918 30.7459   4
   1   4   5 595.004 31.9936   4
  -1  -4  -5 618.738 35.2343   6
   1   4   6 109.928 17.2617   4
  -1  -4  -6 117.735 19.3735   6
   1   4   7 1133.11 47.4016   4
  -1  -4  -7 1152.52 54.1079   3
  -1  -4  -8 151.733 23.2940   3
   1   4   8 145.625 20.9418   4
  -1  -4  -9 8.13581 12.0142   3
  -1  -4  -9 28.7989 12.6145   7
   1   4   9 39.7332 13.6276   4
  -1  -4 -10 852.730 50.0084   7
   1   4  10 743.669 45.0008   4
  -1  -4 -10 753.350 52.1231   3
   1   4  11 122.716 21.7395   4
  -1  -4 -11 135.757 25.5243   3
  -1  -4 -11 146.547 23.3923   7
  -1  -4 -12-22.5879 18.7167   3
  -1  -4 -12-5.62958 13.1062   7
  -1  -4 -13-2.26148 17.7497   3
   1   5  -9 26.1092 16.6645   3
   1   5  -8 120.187 26.1299   3
  -1  -5   8 143.425 28.1909   6
   1   5  -7 119.992 23.3862   3
  -1  -5   7 128.913 26.8567   6
   1   5  -6 1262.71 58.3842   1
  -1  -5   6 1508.32 77.4221   6
   1   5  -6 1350.43 69.7839   3
   1   5  -5 34.3404 13.9306   1
   1   5  -5 24.3216 14.9013   3
  -1  -5   5 19.4583 15.4328   6
  -1  -5   4 217.196 28.3339   6
   1   5  -4 171.245 24.7240   3
  -1  -5   4 188.831 16.6483   7
   1   5  -4 173.559 22.2638   1
  -1  -5   3 3425.16 69.1136   7
   1   5  -3 3445.80 94.1695   3
   1   5  -3 3391.10 87.4640   1
  -1  -5   3 3360.90 94.6415   6
   1   5  -2 524.572 34.7908   1
  -1  -5   2 423.916 32.9337   6
  -1  -5   2 481.379 26.5625   7
   1   5  -2 521.597 36.2222   3
  -1  -5   1 312.447 26.8098   6
   1   5  -1 363.297 29.0444   1
   1   5  -1 340.319 29.6675   4
   1   5   0 130.084 15.8282   5
   1   5   0 173.288 21.7472   4
  -1  -5   0 150.216 19.2110   6
   1   5   1 1378.08 49.4535   6
   1   5   1 1339.46 41.0630   5
  -1  -5  -1 1279.71 48.3605   6
   1   5   1 1426.06 53.2657   4
   1   5   2 332.657 10.7165   2
  -1  -5  -2 368.489 25.9137   6
   1   5   2 460.144 28.4274   6
   1   5   2 446.072 30.8025   4
   1   5   2 367.432 18.6787   5
  -1  -5  -3 979.888 41.9561   6
   1   5   3 1071.17 44.4956   4
  -1  -5  -4 3696.58 83.1071   6
   1   5   4 3752.15 81.6034   4
   1   5   5 735.729 39.1150   4
  -1  -5  -5 774.370 41.5324   6
  -1  -5  -6 307.914 28.8174   6
   1   5   6 275.097 25.6186   4
  -1  -5  -7 666.879 18.1265   5
  -1  -5  -7 825.077 48.6985   6
   1   5   7 830.114 43.3320   4
  -1  -5  -8 347.896 17.0504   5
   1   5   8 365.605 31.3728   4
  -1  -5  -8 338.802 33.6212   3
   1   5   9 1012.71 52.0967   4
  -1  -5  -9 1099.36 59.2102   3
  -1  -5  -9 1098.42 57.9067   7
   1   5  10 596.325 42.5960   4
  -1  -5 -10 675.161 47.8650   7
  -1  -5 -10 565.590 46.0700   3
   1   5  11 333.674 33.6403   4
  -1  -5 -11 275.330 32.2076   7
  -1  -5 -11 283.462 35.6264   3
  -1  -5 -12 542.041 50.4020   3
  -1  -5 -12 538.163 46.3459   7
  -1  -5 -13 28.1452 18.2847   3
  -1  -5 -13 11.6931 14.2819   7
   1   6  -8 301.369 40.3294   3
   1   6  -7 254.977 34.1787   3
  -1  -6   7 269.160 38.1867   6
   1   6  -6 211.609 27.2163   1
   1   6  -6 232.868 31.9563   3
  -1  -6   6 260.832 37.5350   6
  -1  -6   5 1010.58 63.3418   6
   1   6  -5 1011.72 61.3335   3
   1   6  -5 947.643 52.8660   1
  -1  -6   4 148.401 25.9892   6
   1   6  -4 130.240 23.0294   3
   1   6  -4 148.350 22.1700   1
   1   6  -3 38.9910 14.7636   3
   1   6  -3 57.4471 15.3292   1
  -1  -6   3 43.4303 16.1498   6
  -1  -6   3 66.8369 12.7561   7
   1   6  -2 2895.22 85.8650   1
  -1  -6   2 2950.09 91.0744   6
   1   6  -2 3023.73 92.4838   3
   1   6  -1 1835.04 67.6816   1
  -1  -6   1 1794.58 68.1180   6
   1   6  -1 1908.32 71.4880   4
  -1  -6   0 8.93196 12.0398   6
   1   6   0 15.5847 15.9418   4
  -1  -6  -1 978.165 47.8474   6
   1   6   1 1063.85 51.7282   4
   1   6   1 984.420 39.3671   5
   1   6   2 23.5016 13.7224   4
   1   6   2 35.3537 8.73855   5
  -1  -6  -2 13.9973 11.1952   6
   1   6   3 229.206 12.5521   2
   1   6   3 250.150 27.0326   4
  -1  -6  -3 269.741 26.4301   6
   1   6   3 251.494 14.7924   5
   1   6   4 529.774 36.4635   4
  -1  -6  -4 559.027 36.4015   6
  -1  -6  -5 556.455 38.0769   6
   1   6   5 541.248 37.0290   4
   1   6   6 1464.13 60.0842   4
  -1  -6  -6 1452.00 61.7513   6
   1   6   7 25.6473 16.0018   4
  -1  -6  -7 19.6006 14.9648   6
   1   6   8 209.189 26.5388   4
  -1  -6  -8 239.529 30.6230   6
  -1  -6  -9 82.1014 19.8215   3
   1   6   9 125.803 22.1623   4
  -1  -6 -10 734.430 53.1778   3
  -1  -6 -10 718.986 51.3145   7
   1   6  10 672.687 46.8258   4
  -1  -6 -11 159.710 26.4601   7
   1   6  11 195.566 28.0610   4
  -1  -6 -11 203.376 31.0277   3
   1   6  12 97.4258 23.7145   4
  -1  -6 -12 51.8758 16.7615   3
  -1  -6 -12 124.308 25.3450   7
  -1  -6 -13 86.6605 25.3123   7
   1   7  -7 57.6307 22.8579   3
  -1  -7   6 5.43039 21.6579   6
   1   7  -6 24.4121 15.8647   3
   1   7  -5 21.9027 14.3186   1
  -1  -7   5 5.13406 16.2104   6
   1   7  -5-15.4775 16.7332   3
   1   7  -4 58.1777 20.4623   3
   1   7  -4 24.3725 14.2384   1
  -1  -7   4 39.1954 18.2314   6
  -1  -7   3-3.77057 15.1241   6
   1   7  -3 10.1859 13.9300   1
   1   7  -3-15.4540 16.2710   3
   1   7  -2 29.3941 15.7838   1
  -1  -7   2 7.90532 13.3341   6
   1   7  -1 1334.01 65.4939   4
   1   7  -1 1131.66 58.1854   1
  -1  -7   1 1134.89 60.1344   6
  -1  -7   0 1487.13 65.5284   6
   1   7   0 1639.58 70.8729   4
   1   7   1 514.104 41.5711   4
  -1  -7  -1 461.460 37.1148   6
  -1  -7  -2 817.319 47.8167   6
   1   7   2 766.746 34.1736   5
   1   7   2 918.048 51.4424   4
   1   7   3 279.066 18.1252   5
  -1  -7  -3 300.247 29.0312   6
   1   7   3 345.989 34.1420   4
   1   7   4 835.552 48.9736   4
   1   7   4 769.597 27.1943   2
  -1  -7  -4 795.087 46.6399   6
   1   7   5 790.199 46.9344   4
  -1  -7  -5 864.505 49.9663   6
  -1  -7  -6 972.198 54.9648   6
   1   7   6 1053.90 55.3269   4
   1   7   7 489.992 39.8797   4
  -1  -7  -7 525.255 42.5058   6
   1   7   8 196.175 28.1068   4
  -1  -7  -8 202.110 29.6649   6
  -1  -7  -9 188.322 30.1612   6
   1   7   9 177.743 27.3816   4
   1   7  10 903.317 56.7138   4
  -1  -7 -10 857.867 59.0653   7
  -1  -7 -10 890.570 60.0883   3
  -1  -7 -11 49.1413 17.3980   7
   1   7  11 15.6959 16.2407   4
  -1  -7 -11 63.3262 20.5705   3
   1   7  12 53.7357 21.3990   4
  -1  -7 -12 34.1310 20.0999   3
  -1  -7 -12 22.3413 14.0049   7
   1   8  -5 101.653 25.4831   3
  -1  -8   5 109.728 26.7214   6
   1   8  -5 87.9442 21.2582   1
   1   8  -4 107.482 22.1915   1
  -1  -8   4 41.7924 17.7295   6
   1   8  -3 13.4837 14.1647   1
  -1  -8   3 17.6221 15.2872   6
  -1  -8   2 210.611 32.6882   6
   1   8  -2 241.547 31.5291   1
  -1  -8   1-13.6812 16.7208   6
   1   8  -1 14.3525 16.8858   1
   1   8  -1 7.60438 15.1290   4
  -1  -8   0 248.246 31.3635   6
   1   8   0 261.810 33.9383   4
   1   8   1 1823.92 79.2312   4
  -1  -8  -1 1712.26 74.5043   6
  -1  -8  -2 426.225 39.1321   6
   1   8   2 505.240 42.0717   4
  -1  -8  -3 61.0475 18.8002   6
   1   8   3 70.9182 10.7828   5
   1   8   3 114.395 24.1753   4
   1   8   4 118.206 23.9722   4
  -1  -8  -4 118.573 22.9579   6
   1   8   5 59.1219 22.1517   4
  -1  -8  -5 36.9555 17.1474   6
  -1  -8  -6 50.5568 17.5272   6
   1   8   6 79.5664 21.9246   4
  -1  -8  -7-17.0226 18.1147   6
   1   8   7-2.15809 13.6716   4
  -1  -8  -8 78.0356 23.1334   6
   1   8   8 111.700 25.5780   4
  -1  -8  -9 44.9111 19.5097   6
   1   8   9 23.2257 16.7651   4
   1   8  10 159.693 29.5665   4
  -1  -8 -11 250.415 36.0875   3
  -1  -8 -11 378.135 43.6676   7
   1   8  11 324.823 38.9375   4
   1   8  12 482.352 47.8932   4
  -1  -8 -12 386.042 43.9319   7
  -1  -8 -12 431.180 46.8140   3
  -1  -9   4 155.740 32.1539   6
   1   9  -4 53.1816 16.6881   1
  -1  -9   3 97.4669 26.8122   6
   1   9  -3 79.2291 21.2864   1
   1   9  -2 171.331 29.5465   1
  -1  -9   2 163.974 30.1253   6
   1   9  -1 149.554 27.8377   1
  -1  -9   1 128.528 25.2465   6
  -1  -9   0 167.347 29.3508   6
   1   9   0 135.875 27.3670   4
   1   9   0 167.887 27.5573   1
   1   9   1 87.3827 22.4856   4
  -1  -9  -1 73.3758 19.7727   6
  -1  -9  -2 1749.49 81.1907   6
   1   9   2 1803.59 84.2185   4
  -1  -9  -3 71.1963 28.1872   6
   1   9   3 47.3602 20.2233   4
   1   9   4 19.4986 16.1928   4
  -1  -9  -4 36.8132 18.2420   6
  -1  -9  -5 52.3703 19.8396   6
   1   9   5 32.8484 16.8027   4
   1   9   6 7.61819 16.0373   4
  -1  -9  -6 4.87186 13.1280   6
  -1  -9  -7 73.7687 22.2313   6
   1   9   7 62.9896 19.6732   4
  -1  -9  -8 12.0160 14.4717   6
   1   9   8 12.1159 17.3527   4
   1   9   9 146.238 29.8702   4
  -1  -9  -9 106.268 27.3542   6
   1   9  10 151.281 28.4588   4
  -1  -9 -10 196.691 34.8742   6
   1   9  11 151.087 29.6258   4
  -1  -9 -11 157.848 31.5751   7
   1   9  12 234.085 37.5277   4
   1  10  -3 29.8517 18.6098   1
  -1 -10   2-42.5936 23.6331   6
   1  10  -2 64.1273 24.5587   1
  -1 -10   1 78.9077 23.5056   6
   1  10  -1 106.865 25.0488   1
   1  10   0 5.60756 17.1545   1
  -1 -10   0 9.31366 16.7085   6
   1  10   0-34.6442 19.7118   4
   1  10   1 64.6555 25.1241   4
  -1 -10  -1 26.0248 20.3265   6
   1  10   1 25.4981 15.8093   1
   1  10   2 406.540 45.0936   4
  -1 -10  -2 415.229 44.8420   6
  -1 -10  -3 232.376 33.7349   6
   1  10   3 227.598 33.6136   4
  -1 -10  -4 508.103 46.6516   6
   1  10   4 517.404 49.8039   4
   1  10   5 142.779 30.6131   4
  -1 -10  -5 186.093 33.3249   6
  -1 -10  -6 608.403 52.8290   6
   1  10   6 630.733 54.8812   4
  -1 -10  -7 247.425 34.8537   6
   1  10   7 310.292 39.7007   4
  -1 -10  -8 352.717 41.6197   6
   1  10   8 364.878 43.0196   4
   1  10   9 7.96292 17.3897   4
  -1 -10  -9-18.6772 17.8092   6
  -1 -10 -10 130.017 30.6791   6
   1  10  10 107.699 27.8465   4
   1  10  11 385.474 46.8134   4
   1  11   0 66.7364 25.3653   1
  -1 -11   0 38.0967 18.5505   6
  -1 -11  -1 177.576 32.2329   6
   1  11   1 205.125 35.6187   4
   1  11   1 193.241 33.4479   1
   1  11   2 77.6899 25.6845   4
  -1 -11  -2 107.042 26.7819   6
   1  11   3 181.361 33.4532   4
  -1 -11  -3 196.304 32.8480   6
  -1 -11  -4 37.2934 17.3320   6
   1  11   4 60.0298 21.4043   4
  -1 -11  -5 52.8577 20.6201   6
   1  11   5 86.5532 26.3987   4
   1  11   6 229.247 37.9222   4
  -1 -11  -6 274.938 38.8361   6
  -1 -11  -7 77.6021 23.0923   6
   1  11   7 44.2957 20.7115   4
  -1 -11  -8 127.358 30.6341   6
   1  11   8 64.1260 25.3411   4
   1  11   9-16.7395 23.4320   4
   2 -12  -6 73.6569 22.8737   7
   2 -12  -5 20.2111 17.6302   7
   2 -12  -4 253.306 34.6134   7
   2 -11  -8 61.1198 23.4100   7
   2 -11  -7 4.70496 15.8729   7
   2 -11  -7-12.5584 21.1992   6
  -2  11   7 23.2243 23.1879   4
   2 -11  -6 4.41678 16.7251   6
   2 -11  -6-1.60654 17.3524   7
  -2  11   6 22.2900 23.1155   4
  -2  11   5-4.79974 19.1108   4
   2 -11  -5-1.92336 18.4897   6
   2 -11  -5-13.9102 18.2707   7
   2 -11  -4 55.0362 18.3780   7
  -2  11   4 57.8480 25.7394   4
   2 -11  -3 31.9316 16.7053   7
   2 -11  -3 6.16757 16.4591   6
  -2  11   3 30.0534 17.7446   4
  -2  11   2-39.3941 25.2222   4
   2 -11  -2-9.70111 21.3140   6
  -2  11   1-13.6371 22.0709   4
  -2  11   0 118.560 28.2497   4
   2 -10  -9 54.7949 23.0489   7
  -2  10   9 73.4091 25.7358   4
   2 -10  -9 39.4078 20.7968   6
  -2  10   8 92.0743 27.2240   4
   2 -10  -8 127.135 27.2160   7
   2 -10  -8 83.2183 24.3709   6
   2 -10  -7 205.347 35.0202   6
  -2  10   7 100.994 23.5003   4
   2 -10  -7 182.172 30.5148   7
   2 -10  -6 649.478 54.8550   6
   2 -10  -6 789.894 57.6466   7
  -2  10   6 785.932 60.0621   4
   2 -10  -5 125.510 25.4438   7
  -2  10   5 138.929 31.1139   4
   2 -10  -5 129.376 26.5925   6
  -2  10   4 101.962 26.2348   4
   2 -10  -4 101.040 22.3423   7
   2 -10  -4 124.179 27.2211   6
   2 -10  -3 455.669 39.8673   7
  -2  10   3 469.636 47.1647   4
   2 -10  -3 453.620 46.1497   6
   2 -10  -2-11.5638 12.7847   7
  -2  10   2-36.3146 22.8338   4
   2 -10  -2-2.02779 18.3601   6
  -2  10   1 38.5530 19.8646   4
   2 -10  -1 38.9224 21.4179   6
   2 -10   0 120.184 29.6142   6
  -2  10   0 137.229 26.2285   4
  -2  10  -1 115.056 25.2841   4
   2 -10   1 145.416 31.9859   6
  -2   9  11 190.797 36.3282   4
   2  -9 -10 29.0411 21.4087   6
   2  -9 -10 64.2353 22.2184   7
  -2   9  10-9.01953 19.1990   4
   2  -9  -9 176.930 31.6977   7
  -2   9   9 164.445 31.2495   4
   2  -9  -9 144.800 30.5770   6
   2  -9  -8-13.4168 16.0185   6
   2  -9  -8 4.79889 15.1651   7
  -2   9   8-7.33608 16.7022   4
   2  -9  -7 42.4139 19.8865   6
  -2   9   7 41.0542 18.6658   4
   2  -9  -7 49.6247 19.6271   7
   2  -9  -6 300.770 35.5716   7
   2  -9  -6 259.861 33.9522   6
  -2   9   6 314.977 38.8029   4
   2  -9  -5 870.710 55.8165   7
  -2   9   5 878.768 59.1974   4
   2  -9  -5 884.483 59.8501   6
   2  -9  -4 333.303 37.9899   6
   2  -9  -4 284.589 31.6571   7
  -2   9   4 270.314 34.9181   4
   2  -9  -3 87.1536 20.3332   7
  -2   9   3 118.233 23.9693   4
   2  -9  -3 85.2527 23.6586   6
   2  -9  -2 156.318 21.9745   7
  -2   9   2 155.251 27.1625   4
   2  -9  -2 149.230 27.8865   6
   2  -9  -1 88.6057 18.2417   7
   2  -9  -1 49.4918 21.7065   6
  -2   9   1 83.0617 23.4749   4
   2  -9   0 2.06283 9.99269   7
  -2   9   0-8.97266 16.0595   4
   2  -9   0 31.9616 19.6806   6
   2  -9   1 294.637 39.6623   6
  -2   9  -1 291.332 36.6484   4
  -2   9  -2 10.3764 11.8091   4
   2  -9   2-9.43692 21.4746   6
   2  -9   3 122.993 29.8485   6
  -2   9  -3 98.5249 23.2990   1
  -2   8  11 260.271 38.4199   4
   2  -8 -11 227.285 31.2071   3
   2  -8 -11 308.411 43.3968   7
   2  -8 -10 5.92874 17.1764   6
   2  -8 -10 15.5345 18.9994   7
  -2   8  10 14.7348 19.7710   4
   2  -8  -9 12.9107 15.6903   6
  -2   8   9 20.6450 18.4595   4
   2  -8  -9 7.40153 13.5991   7
   2  -8  -8 25.4643 16.0532   6
   2  -8  -8 6.72075 13.5967   7
  -2   8   8 21.9111 20.5493   4
   2  -8  -7-13.0926 14.3141   6
  -2   8   7 17.7829 17.3655   4
   2  -8  -7 6.14431 15.5911   7
   2  -8  -6 90.7545 20.6530   7
   2  -8  -6 120.074 24.7842   6
  -2   8   6 124.914 26.5759   4
   2  -8  -5 818.354 53.8885   6
   2  -8  -5 811.009 50.8537   7
  -2   8   5 878.447 55.4106   4
   2  -8  -4 1136.00 57.8000   7
  -2   8   4 1112.33 60.1103   4
   2  -8  -4 958.121 57.3792   6
  -2   8   3 1761.04 74.9814   4
   2  -8  -3 1748.82 77.4505   6
  -2   8   2 554.984 43.9062   4
   2  -8  -2 527.145 44.4433   6
   2  -8  -1 597.998 48.1261   6
  -2   8   1 590.319 44.9501   4
   2  -8   0 1163.40 46.5379   7
   2  -8   0 1101.30 64.5935   6
  -2   8   0 1135.45 61.8785   4
   2  -8   0 1062.85 41.1130   2
   2  -8   1 272.533 22.6504   2
  -2   8  -1 293.949 33.4493   4
   2  -8   1 309.827 38.2202   6
   2  -8   1 281.247 21.4603   7
   2  -8   2 56.4138 20.2865   6
  -2   8  -2 56.3161 22.2263   3
  -2   8  -2 68.3329 19.7219   4
   2  -8   3 574.252 53.6842   6
  -2   8  -3 599.449 53.0550   3
  -2   8  -4 101.878 27.4926   3
   2  -8   4 101.741 25.4687   6
  -2   8  -4 125.522 22.3643   1
  -2   8  -5 40.8020 20.7006   3
   2  -8   5 65.7144 24.5288   6
   2  -7 -12 10.0605 17.3788   7
  -2   7  12-15.8777 20.6673   4
  -2   7  11 92.5747 24.9094   4
   2  -7 -11 67.2720 19.5046   3
   2  -7 -11 103.568 23.5658   7
   2  -7 -10 54.2405 21.8154   7
   2  -7 -10 75.1205 18.4540   3
  -2   7  10 79.9895 24.7488   4
   2  -7  -9 286.394 37.8697   7
  -2   7   9 307.835 37.7005   4
   2  -7  -9 289.139 36.9815   6
  -2   7   8 71.4094 21.4074   4
   2  -7  -8 53.3052 18.7740   7
   2  -7  -8 74.1677 20.6906   6
   2  -7  -7 68.9198 18.5136   7
  -2   7   7 38.8134 16.8661   4
   2  -7  -7 62.9740 19.7254   6
   2  -7  -6 47.2150 17.9657   6
   2  -7  -6 70.7257 20.9683   7
  -2   7   6 44.8664 19.7078   4
   2  -7  -5 951.181 52.6641   7
  -2   7   5 882.143 52.4786   4
   2  -7  -5 900.870 53.0402   6
  -2   7   4 587.009 43.2229   4
   2  -7  -4 520.775 40.8095   6
   2  -7  -4 604.490 41.3190   7
   2  -7  -3 470.374 39.2235   6
  -2   7   3 532.384 39.9095   4
  -2   7   2 348.057 32.8215   4
   2  -7  -2 298.445 32.0606   6
   2  -7  -1 15.8048 9.63614   2
  -2   7   1 21.0172 14.1099   4
   2  -7  -1 27.5578 16.8678   6
   2  -7   0 41.9237 18.7710   6
  -2   7   0 34.8975 17.0195   4
   2  -7   0 24.5867 9.58721   2
   2  -7   1-6.30723 16.3295   6
   2  -7   1 1.38163 7.82804   7
   2  -7   1-8.22373 10.5618   2
  -2   7  -1-2.49077 12.9159   4
  -2   7  -1-2.94042 14.1908   3
  -2   7  -2 61.8947 17.9225   4
   2  -7   2 66.9979 9.24525   7
  -2   7  -2 53.7658 18.6418   3
   2  -7   2 59.5066 21.0141   6
  -2   7  -3 329.341 38.2070   3
   2  -7   3 325.967 38.6241   6
  -2   7  -4 51.3680 20.2408   3
   2  -7   4 42.6260 18.9827   6
  -2   7  -4 37.7842 13.8387   1
   2  -7   5-4.27596 15.9053   6
  -2   7  -6 129.791 27.8610   3
   2  -7   6 92.3247 25.5507   6
   2  -6 -12-5.82691 14.1743   7
  -2   6  12-10.0311 21.1104   4
   2  -6 -11 24.6547 13.1655   7
  -2   6  11 15.1519 16.5035   4
   2  -6 -11 17.0589 13.3522   3
   2  -6 -10 1.08457 14.0254   7
  -2   6  10 20.4910 15.8592   4
   2  -6 -10-25.8541 15.5416   3
  -2   6   9 103.465 24.3417   4
   2  -6  -9 43.3902 15.7395   7
   2  -6  -9 51.8830 14.5112   3
   2  -6  -8 352.367 37.2361   6
  -2   6   8 306.345 34.0977   4
   2  -6  -8 331.986 34.4858   7
   2  -6  -7 74.4059 19.3164   7
  -2   6   7 38.8845 16.5506   4
   2  -6  -7 48.4407 16.9876   6
   2  -6  -6 258.328 29.4437   6
   2  -6  -6 230.489 27.6170   7
  -2   6   6 299.579 32.1981   4
   2  -6  -5 875.294 49.0025   6
  -2   6   5 869.493 48.3740   4
   2  -6  -5 900.160 48.6125   7
   2  -6  -4 767.187 43.4088   7
  -2   6   4 753.118 44.7270   4
   2  -6  -4 738.131 44.0257   6
   2  -6  -3 1309.48 57.7697   6
   2  -6  -3 1315.93 53.0720   7
  -2   6   3 1364.43 57.1281   4
  -2   6   2 343.768 30.6797   4
   2  -6  -2 317.984 30.4787   6
   2  -6  -1 227.589 19.6684   2
  -2   6   1 248.147 26.7363   4
   2  -6  -1 188.367 24.9602   6
   2  -6   0 28.6410 15.6358   6
  -2   6   0 18.5741 14.2695   4
   2  -6   0 31.5466 9.76996   2
  -2   6   0 36.5386 15.0922   3
  -2   6  -1 119.462 21.5865   4
  -2   6  -1 108.627 21.3955   3
   2  -6   1 117.208 22.4255   6
   2  -6   1 115.214 13.1066   7
  -2   6  -2 197.393 26.1030   4
   2  -6   2 208.106 28.8725   6
   2  -6   2 173.761 12.6993   7
  -2   6  -2 167.418 25.5889   3
  -2   6  -3 6.24085 14.1204   3
   2  -6   3 35.4979 16.7826   6
   2  -6   4 102.058 23.5494   6
  -2   6  -4 162.761 28.2796   3
  -2   6  -4 129.675 19.3372   1
   2  -6   5 44.4178 18.4108   6
  -2   6  -5 29.2598 8.80040   1
  -2   6  -5 79.2714 21.5515   3
   2  -6   6 154.916 30.5491   6
  -2   6  -6 134.742 28.7194   3
   2  -6   7 282.298 41.1377   6
  -2   6  -7 245.650 38.3675   3
   2  -5 -13 368.532 42.5989   7
  -2   5  13 363.482 42.1585   4
   2  -5 -12 430.626 44.6898   7
  -2   5  12 354.529 41.2369   4
   2  -5 -11 1039.35 64.5507   7
   2  -5 -11 1056.79 58.7757   3
  -2   5  11 1006.99 64.1588   4
  -2   5  10 132.092 25.1692   4
   2  -5 -10 155.398 26.3269   7
   2  -5 -10 190.414 25.4761   3
   2  -5  -9 65.0894 16.1333   3
  -2   5   9 44.7340 19.4532   4
   2  -5  -9 68.9374 17.1220   7
  -2   5   8 404.986 36.2922   4
   2  -5  -8 391.207 32.1499   3
   2  -5  -8 425.918 36.9650   7
   2  -5  -7 42.2427 16.9168   6
  -2   5   7 26.3610 15.2933   4
   2  -5  -7 57.8939 18.2340   7
  -2   5   6 30.1303 15.3626   4
   2  -5  -6 31.7845 15.2389   6
   2  -5  -6 22.1560 12.7601   7
  -2   5   5 134.297 8.01059   5
   2  -5  -5 185.420 23.3009   6
  -2   5   5 191.005 24.6378   4
   2  -5  -5 197.946 23.1934   7
   2  -5  -4 195.863 22.3275   6
  -2   5   4 180.655 18.4074   2
   2  -5  -4 214.255 22.9132   7
  -2   5   4 210.691 24.0511   4
   2  -5  -3 159.903 18.6819   7
   2  -5  -3 187.630 21.4457   6
  -2   5   3 175.343 17.4139   2
  -2   5   3 165.714 21.0671   4
   2  -5  -2 1008.53 40.8006   7
  -2   5   2 1010.44 44.2173   4
   2  -5  -2 972.265 46.0659   6
   2  -5  -1 538.533 28.3846   7
  -2   5   1 550.950 32.8130   4
   2  -5  -1 507.148 26.5473   2
   2  -5  -1 537.525 35.6289   6
   2  -5   0 12.3249 8.06457   7
   2  -5   0 22.3146 12.4712   6
  -2   5   0 18.4669 11.0996   4
  -2   5   0 12.6033 11.0167   3
   2  -5   0 7.11290 8.18846   2
  -2   5  -1 1546.95 60.7857   3
   2  -5   1 1519.51 37.0643   7
  -2   5  -1 1590.96 56.7233   4
   2  -5   1 1505.75 61.4673   6
   2  -5   2 530.782 18.0644   7
  -2   5  -2 551.071 40.3099   3
  -2   5  -2 529.919 34.3523   4
   2  -5   2 555.264 41.1907   6
  -2   5  -3 1691.81 70.7417   3
   2  -5   3 1661.26 71.0467   6
   2  -5   4 1301.25 66.6158   6
  -2   5  -4 1255.64 63.9617   3
  -2   5  -4 1225.69 48.3603   1
   2  -5   5 55.2260 21.1295   6
  -2   5  -5 44.2725 10.4072   1
  -2   5  -5 36.4483 17.3820   3
  -2   5  -6 102.845 24.7292   3
   2  -5   6 47.6030 14.9155   6
  -2   5  -7 50.0978 20.6911   3
   2  -5   7 38.6941 18.8779   6
   2  -5   8 487.984 53.2913   6
  -2   5  -8 504.324 50.2649   3
   2  -4 -13 176.151 29.7118   7
  -2   4  13 193.017 34.0434   4
   2  -4 -12 187.622 29.6124   7
  -2   4  12 154.808 29.0795   4
  -2   4  11 170.445 28.6975   4
   2  -4 -11 153.710 25.8481   7
   2  -4 -11 159.732 24.8087   3
   2  -4 -10 980.687 52.9134   3
  -2   4  10 950.854 58.6546   4
   2  -4 -10 1126.17 62.4901   7
   2  -4  -9 175.962 25.6305   7
   2  -4  -9 186.243 23.5361   3
  -2   4   9 181.645 27.2849   4
   2  -4  -8-3.19771 11.0229   3
   2  -4  -8 3.23730 6.22194   5
  -2   4   8 25.3344 17.8720   4
   2  -4  -8-0.98471 13.1505   7
   2  -4  -7 320.781 26.3367   3
   2  -4  -7 347.199 31.6007   7
  -2   4   7 334.899 32.0392   4
   2  -4  -6 2.10743 10.4195   6
   2  -4  -6 0.07901 11.4577   7
  -2   4   6 1.25212 14.0604   4
   2  -4  -5 438.238 31.0816   7
  -2   4   5 364.502 28.9289   4
  -2   4   5 399.768 16.4502   5
   2  -4  -5 412.029 29.7725   6
  -2   4   4 2929.03 73.5173   4
  -2   4   4 2870.99 39.7072   5
   2  -4  -4 3119.39 74.6962   7
   2  -4  -4 3009.08 73.1524   6
   2  -4  -3 1117.66 43.1795   6
  -2   4   3 1225.61 46.1320   4
   2  -4  -3 1210.51 44.3434   7
  -2   4   3 1199.60 41.2414   2
  -2   4   3 1227.89 45.4045   6
   2  -4  -2 1251.37 42.1622   3
   2  -4  -2 1247.95 43.2181   4
  -2   4   2 1189.95 38.2764   2
   2  -4  -2 1179.40 44.2625   6
   2  -4  -2 1257.89 41.9378   7
  -2   4   2 1272.07 44.5568   4
  -2   4   2 1238.09 45.5577   6
   2  -4  -1 6574.74 95.6027   4
  -2   4   1 6781.61 98.1439   4
   2  -4  -1 6574.57 87.4797   7
   2  -4  -1 6373.64 103.506   6
   2  -4  -1 6441.79 87.3243   2
  -2   4   1 6913.71 107.391   6
   2  -4  -1 6846.15 100.954   3
  -2   4   0 202.292 18.6252   4
   2  -4   0 215.332 15.2030   7
   2  -4   0 211.950 18.4215   4
   2  -4   0 176.766 19.7817   6
  -2   4   0 220.198 21.7628   3
   2  -4   0 198.197 19.3345   3
   2  -4   1 19.5265 8.89055   4
  -2   4  -1 19.2669 10.9505   3
   2  -4   1 13.1069 12.2050   6
   2  -4   1 16.4512 5.35689   7
  -2   4  -1 30.9241 10.5830   4
  -2   4  -2 432.778 27.2994   4
   2  -4   2 380.613 12.3356   7
   2  -4   2 390.204 24.9488   4
   2  -4   2 391.835 31.9618   6
  -2   4  -2 430.041 32.4221   3
   2  -4   3 1260.72 45.1690   4
   2  -4   3 1361.57 60.4807   6
  -2   4  -3 1446.34 61.1613   3
  -2   4  -4 768.914 47.6347   3
   2  -4   4 760.801 48.6460   6
   2  -4   5 1247.97 65.8283   6
  -2   4  -5 1270.81 63.9356   3
  -2   4  -5 1100.69 40.3563   1
  -2   4  -6 46.7114 19.3417   3
  -2   4  -6 17.4392 7.97448   1
   2  -4   6 41.5207 19.3514   6
  -2   4  -7 74.6409 21.8124   3
   2  -4   7 56.3933 19.7645   6
  -2   4  -8 263.795 37.3153   3
   2  -4   8 188.774 32.8816   6
   2  -4   9 123.634 30.5242   6
  -2   4  -9 111.770 29.9185   3
  -2   3  13 42.3348 18.1970   4
   2  -3 -12 64.1111 18.8622   7
  -2   3  12 65.7845 22.0889   4
  -2   3  11 77.6865 23.1915   4
   2  -3 -11 62.2360 16.8893   3
   2  -3 -11 24.9369 13.5916   7
  -2   3  10 258.054 31.4375   4
   2  -3 -10 311.281 30.9119   3
   2  -3 -10 290.633 31.4599   7
   2  -3  -9 411.781 32.2396   3
   2  -3  -9 435.262 36.6641   7
  -2   3   9 446.777 38.1136   4
   2  -3  -8 874.699 48.7628   7
  -2   3   8 748.215 46.7238   4
   2  -3  -8 846.283 42.8401   3
   2  -3  -7 79.1367 15.0053   3
   2  -3  -7 87.6048 17.0379   7
   2  -3  -7 71.1578 10.9789   5
  -2   3   7 85.0854 19.2018   4
  -2   3   6 7.24992 11.5798   4
   2  -3  -6 37.8742 8.53175   5
   2  -3  -6 6.06242 10.5266   7
   2  -3  -6 35.9659 9.73455   3
   2  -3  -5 2978.32 74.2873   7
  -2   3   5 2846.34 73.4806   4
   2  -3  -5 2932.83 72.7857   6
   2  -3  -4 36.7083 12.4252   7
  -2   3   4 44.1418 7.01189   5
  -2   3   4 36.8727 10.7340   6
   2  -3  -4 47.6668 11.6595   6
  -2   3   4 35.0874 12.3073   4
   2  -3  -3 4622.14 78.7826   6
   2  -3  -3 4814.20 82.4101   4
  -2   3   3 4594.04 81.7266   4
  -2   3   3 4735.58 79.9004   6
   2  -3  -3 4760.27 81.2334   7
   2  -3  -2 3174.36 61.0661   7
   2  -3  -2 3120.40 61.7783   4
  -2   3   2 2964.03 61.4359   4
  -2   3   2 3113.46 59.7892   2
   2  -3  -2 2942.74 60.0919   6
  -2   3   2 3203.44 63.2565   6
   2  -3  -2 3091.58 55.3298   3
   2  -3  -1 5530.86 77.9786   3
   2  -3  -1 5377.64 76.5988   4
  -2   3   1 5336.30 76.3111   4
   2  -3  -1 5196.48 74.3308   2
  -2   3   1 5524.08 83.5864   6
   2  -3  -1 5514.69 84.1224   6
  -2   3   1 5404.75 76.7311   3
   2  -3  -1 5211.81 70.8362   7
   2  -3   0 2093.90 46.0545   4
  -2   3   0 2118.77 47.1380   4
   2  -3   0 2059.01 39.6683   7
   2  -3   0 2103.47 51.7213   3
  -2   3   0 2083.12 52.1538   3
   2  -3   0 2077.16 54.5213   6
  -2   3   0 2059.98 53.7810   6
  -2   3  -1 5596.18 91.3899   3
   2  -3   1 5397.72 52.4088   7
  -2   3  -1 5844.02 78.9560   4
   2  -3   1 5612.53 75.1271   4
   2  -3   1 5642.28 91.3658   3
  -2   3  -1 5712.11 95.8427   6
   2  -3   1 5622.12 95.6081   6
   2  -3   2 231.530 22.4444   6
  -2   3  -2 225.909 17.6837   4
  -2   3  -2 207.881 20.9859   3
   2  -3   2 246.191 17.3686   4
   2  -3   3 1196.75 51.7968   6
   2  -3   3 1201.19 38.5612   4
  -2   3  -3 1225.98 51.6591   3
   2  -3   4 3268.33 92.4041   6
  -2   3  -4 3291.15 88.8067   3
   2  -3   4 3279.60 69.3584   4
  -2   3  -5 1249.65 59.6202   3
  -2   3  -5 1154.85 35.3501   1
   2  -3   5 1158.34 43.6186   4
   2  -3   5 1196.54 60.6418   6
   2  -3   6 150.568 26.1852   6
  -2   3  -6 112.570 22.8355   3
  -2   3  -6 101.615 10.8745   1
  -2   3  -7 393.225 39.6313   3
   2  -3   7 381.398 40.8105   6
   2  -3   8 68.6821 22.2673   6
  -2   3  -8 88.0892 23.4529   3
  -2   3  -9 109.788 27.0242   3
   2  -3   9 104.638 24.2712   6
  -2   3 -10-39.1286 27.6995   3
  -2   2  13 241.610 35.3185   4
   2  -2 -12 0.97759 10.1319   7
  -2   2  12-30.6115 19.8985   4
   2  -2 -11 0.95286 11.0974   7
  -2   2  11 37.5622 15.9126   4
   2  -2 -11 22.0162 13.3531   3
  -2   2  10 251.085 32.6153   4
   2  -2 -10 245.521 28.1039   3
   2  -2 -10 251.662 29.0041   7
  -2   2   9 93.9838 21.6235   4
   2  -2  -9 111.239 19.5803   7
   2  -2  -9 93.9606 17.5096   3
   2  -2  -8 104.096 18.8476   7
  -2   2   8 111.848 22.8841   4
   2  -2  -8 88.5591 16.7563   3
   2  -2  -7 1028.65 42.7149   3
  -2   2   7 1090.98 52.3204   4
   2  -2  -7 1090.01 49.9629   7
   2  -2  -6-0.81376 6.70331   5
   2  -2  -6 7.20570 9.39409   7
  -2   2   6 0.73078 12.2133   4
   2  -2  -6 14.8881 8.98640   3
  -2   2   6 1.08357 7.34400   1
   2  -2  -5 165.310 14.9904   3
   2  -2  -5 187.315 15.0931   5
   2  -2  -5 182.635 19.2746   7
  -2   2   5 190.878 21.4982   4
  -2   2   4 45.4130 11.2346   7
   2  -2  -4 19.2203 10.3237   7
  -2   2   4 48.6861 10.4520   6
  -2   2   4 44.5427 8.73207   5
   2  -2  -4 36.8290 7.64319   5
   2  -2  -4 31.4584 10.6939   4
   2  -2  -4 40.1297 11.2644   6
  -2   2   4 34.9323 12.4061   4
  -2   2   3 873.500 31.3780   6
   2  -2  -3 851.631 34.4953   4
  -2   2   3 840.691 24.8200   5
   2  -2  -3 879.720 31.7588   6
  -2   2   3 790.722 33.1012   4
  -2   2   3 845.582 33.0701   7
   2  -2  -3 805.520 32.9594   7
   2  -2  -2 4477.69 68.9615   7
  -2   2   2 4465.83 69.0201   2
   2  -2  -2 4323.00 68.9463   4
  -2   2   2 4324.25 67.5545   4
  -2   2   2 4324.34 66.2500   7
  -2   2   2 4308.60 64.4897   6
   2  -2  -2 4374.33 62.6393   6
  -2   2   1 10690.9 96.9608   6
  -2   2   1 10768.4 85.5109   3
   2  -2  -1 10844.0 101.311   2
  -2   2   1 10602.8 100.480   2
   2  -2  -1 10684.9 97.2932   6
   2  -2  -1 10778.6 95.2169   4
  -2   2   1 10549.2 94.5017   4
  -2   2   1 10655.1 92.2449   7
   2  -2  -1 10905.7 95.1432   7
   2  -2  -1 10584.5 85.6079   3
   2  -2   0 92.6198 9.59450   4
   2  -2   0 110.769 12.7686   6
  -2   2   0 103.843 12.0442   3
  -2   2   0 94.3697 8.89132   7
   2  -2   0 85.3325 8.43411   7
  -2   2   0 106.702 11.2116   4
   2  -2   0 108.650 11.9477   3
  -2   2   0 90.3507 11.6141   6
  -2   2  -1 262.857 19.0115   3
  -2   2  -1 276.208 19.7980   6
   2  -2   1 265.505 19.2960   6
   2  -2   1 274.301 19.2002   3
  -2   2  -1 264.875 14.5503   4
   2  -2   1 256.885 10.5303   7
   2  -2   1 276.491 14.1853   4
  -2   2  -2 1071.29 29.1377   4
  -2   2  -2 1074.85 40.5788   3
   2  -2   2 1147.06 29.0896   4
   2  -2   2 1117.13 41.5175   6
   2  -2   2 1144.92 40.5881   3
   2  -2   3 735.415 38.2613   6
  -2   2  -3 701.141 35.6061   3
   2  -2   3 730.077 25.8567   4
   2  -2   4 7.14367 12.5558   6
  -2   2  -4 4.85842 11.3674   3
  -2   2  -4 4.37234 5.21123   1
   2  -2   4 3.17684 6.10167   4
   2  -2   5 1787.50 69.3333   6
  -2   2  -5 1579.85 31.9587   1
  -2   2  -5 1760.51 65.5790   3
   2  -2   5 1729.25 47.1736   4
  -2   2  -6 9.88580 14.0780   3
   2  -2   6 13.0774 8.44778   4
   2  -2   6 9.70729 14.1349   6
  -2   2  -6 10.0974 3.87796   1
   2  -2   7 128.986 25.0484   6
  -2   2  -7 91.5386 22.0820   3
   2  -2   8 108.431 25.1821   6
  -2   2  -8 53.3549 18.2015   3
   2  -2   8 91.6211 16.7526   4
   2  -2   9 13.3281 17.8372   6
  -2   2  -9 30.9318 16.7805   3
  -2   2 -10 24.4808 17.8652   3
   2  -2  10-31.8059 26.2666   6
  -2   1  12 102.495 24.5319   4
   2  -1 -11 90.5857 19.8500   3
   2  -1 -11 152.819 23.8530   7
  -2   1  11 81.2477 22.0522   4
   2  -1 -10 21.1976 12.6881   3
  -2   1  10 13.3714 13.5285   4
   2  -1 -10 8.90869 9.08026   7
   2  -1  -9 132.972 21.0930   3
  -2   1   9 180.323 26.2497   4
   2  -1  -9 154.738 21.4558   7
  -2   1   8 129.725 22.5596   4
   2  -1  -8 111.458 17.9514   7
   2  -1  -8 124.188 19.3027   3
   2  -1  -7 393.517 28.2592   3
  -2   1   7 352.049 32.0248   4
   2  -1  -7 402.549 30.1391   7
   2  -1  -6 218.845 21.4498   7
  -2   1   6 202.353 23.6433   4
  -2   1   6 184.566 17.8791   1
   2  -1  -6 195.015 18.4646   3
  -2   1   5 2009.07 53.6469   1
   2  -1  -5 1908.54 52.4165   5
   2  -1  -5 1973.72 56.8042   7
   2  -1  -5 1893.85 46.1431   3
  -2   1   5 1878.38 58.6829   4
  -2   1   5 1990.70 57.7142   6
  -2   1   4 35.4499 9.94514   6
   2  -1  -4 38.2983 10.1213   7
   2  -1  -4 45.6749 8.81004   5
  -2   1   4 33.1775 10.2796   4
  -2   1   4 33.3516 8.03226   1
  -2   1   4 45.9936 10.6166   5
  -2   1   4 49.8170 10.0074   7
   2  -1  -4 38.1895 7.65848   3
  -2   1   3 552.636 23.2407   5
   2  -1  -3 571.404 23.0055   5
  -2   1   3 564.429 27.7782   4
   2  -1  -3 578.786 17.3481   3
  -2   1   3 583.608 26.6477   7
  -2   1   3 582.002 24.3549   6
   2  -1  -3 593.971 26.9348   7
  -2   1   3 576.391 25.6594   1
   2  -1  -2 1475.51 32.7039   6
   2  -1  -2 1421.80 38.5666   4
  -2   1   2 1366.98 38.4184   4
  -2   1   2 1405.04 32.2459   5
  -2   1   2 1434.65 32.0899   6
  -2   1   2 1421.67 36.7823   7
   2  -1  -2 1475.03 38.4252   7
   2  -1  -1 8387.06 84.9441   2
   2  -1  -1 8341.15 50.7724   3
   2  -1  -1 8349.15 80.0567   7
  -2   1   1 8302.81 83.2247   2
  -2   1   1 8285.16 79.1364   7
   2  -1  -1 8492.20 65.5193   6
  -2   1   1 8410.15 67.1626   6
  -2   1   1 8290.96 78.4412   4
   2  -1  -1 8539.95 79.5858   4
   2  -1   0 1128.91 25.1252   3
   2  -1   0 1103.47 26.1219   6
  -2   1   0 1157.28 26.8540   6
  -2   1   0 1131.91 25.1712   3
   2  -1   0 1136.18 24.8491   4
  -2   1   0 1147.85 24.5424   4
  -2   1   0 1124.18 25.7200   7
   2  -1   0 1101.08 25.9083   7
   2  -1   1 2398.97 28.6542   4
  -2   1  -1 2325.52 43.9486   3
  -2   1  -1 2190.36 29.7548   7
   2  -1   1 2344.38 43.9425   3
  -2   1  -1 2424.83 45.9065   6
  -2   1  -1 2405.41 29.1475   4
   2  -1   1 2314.14 31.6677   7
   2  -1   1 2287.44 44.2395   6
   2  -1   2 36.7911 4.62178   4
   2  -1   2 44.3480 10.4472   6
  -2   1  -2 37.3153 5.01124   4
   2  -1   2 43.4383 8.77118   3
  -2   1  -2 48.8976 11.2745   3
  -2   1  -2 37.0530 3.81125   7
   2  -1   3 3212.40 69.8679   6
   2  -1   3 3106.08 39.8390   4
  -2   1  -3 3016.46 67.5055   3
   2  -1   3 3160.89 67.0356   3
  -2   1  -4 3421.81 79.1037   3
   2  -1   4 3413.02 50.4552   4
  -2   1  -4 3378.64 33.5170   7
   2  -1   5 411.219 21.0843   4
  -2   1  -5 438.538 31.9888   3
  -2   1  -5 404.569 13.9629   7
   2  -1   6 102.567 12.5465   4
  -2   1  -6 122.352 20.9978   3
   2  -1   6 108.578 13.6562   4
  -2   1  -6 112.934 8.83161   7
   2  -1   7 86.6799 14.0581   4
  -2   1  -7 80.3828 8.80925   7
  -2   1  -7 83.1053 20.2454   3
   2  -1   7 78.6244 12.9869   4
   2  -1   8 303.317 24.8418   4
  -2   1  -8 325.095 35.2491   3
  -2   1  -9 178.138 28.8682   3
   2  -1  10 206.388 34.9753   6
  -2   1 -10 254.189 36.0991   3
  -2   1 -11 82.3286 25.7868   3
  -2   0  12 67.1316 22.6779   4
   2   0 -11 43.3767 17.0877   3
  -2   0  11 62.6206 21.4015   4
  -2   0  10 236.070 32.3646   4
   2   0 -10 203.091 24.6843   7
   2   0 -10 200.307 26.7247   3
  -2   0   9 280.658 31.9870   4
   2   0  -9 322.429 31.5840   3
   2   0  -9 281.716 27.3945   7
  -2   0   8 5.16401 14.0681   4
   2   0  -8-15.9440 12.8373   7
   2   0  -8-18.6433 13.5666   3
   2   0  -7 2713.82 73.0389   3
  -2   0   7 2802.43 84.8398   4
   2   0  -7 2780.21 75.3214   7
  -2   0   6 1068.89 49.5617   4
  -2   0   6 1105.59 41.9892   3
   2   0  -6 1061.65 42.1030   3
  -2   0   6 1153.93 43.3782   1
   2   0  -6 1109.91 44.9839   7
  -2   0   5 4390.39 80.0863   1
  -2   0   5 4213.68 80.4112   7
  -2   0   5 4053.74 71.1503   3
   2   0  -5 4090.17 72.0172   3
  -2   0   5 4252.95 90.3637   4
   2   0  -5 4203.66 81.0232   7
  -2   0   4 2365.23 56.2729   7
   2   0  -4 2382.30 56.8678   7
   2   0  -4 2358.73 57.5275   5
   2   0  -4 2318.19 46.8763   3
  -2   0   4 2357.32 46.2513   3
   2   0  -4 2224.11 53.2294   1
  -2   0   4 2483.77 56.8350   1
   2   0  -3 4850.28 74.4866   7
   2   0  -3 4816.42 54.0291   3
  -2   0   3 4868.67 73.6758   7
  -2   0   3 5004.82 74.3740   1
   2   0  -3 4958.36 75.2566   5
   2   0  -3 4564.74 70.9116   1
  -2   0   3 4619.65 52.5240   3
  -2   0   3 4824.56 74.3862   5
  -2   0   2 25.2465 3.86060   3
  -2   0   2 32.3946 8.00936   1
  -2   0   2 27.4454 6.39376   6
  -2   0   2 20.1122 6.20061   7
   2   0  -2 43.4473 8.43994   5
  -2   0   2 33.8387 8.58744   5
   2   0  -2 27.0460 4.21090   3
   2   0  -2 43.0240 8.38282   7
   2   0  -2 30.2085 8.34661   1
  -2   0   1 938.628 27.5389   7
   2   0  -1 964.694 28.2484   1
   2   0  -1 1027.41 28.9647   7
  -2   0   1 1044.25 17.6974   6
  -2   0   1 1032.67 28.2029   5
  -2   0   1 1031.96 28.6065   2
  -2   0   1 1052.53 29.3777   1
  -2   0   0 418.629 11.7375   3
   2   0   0 405.542 17.0150   1
   2   0   0 429.581 11.9842   3
   2   0   0 427.231 17.6436   7
  -2   0   0 427.897 17.2077   1
  -2   0   0 414.457 16.9080   7
  -2   0  -1 1415.46 26.4353   1
  -2   0  -1 1399.86 29.9467   3
   2   0   1 1322.60 25.7440   1
   2   0   1 1417.13 29.7190   3
  -2   0  -1 1414.46 28.8255   7
  -2   0  -2 14787.7 116.437   3
   2   0   2 15079.4 116.460   3
  -2   0  -2 14880.6 69.6509   1
  -2   0  -3 574.122 28.4564   3
   2   0   3 536.548 11.8946   4
   2   0   3 665.966 29.5317   3
  -2   0  -4 1442.97 48.0743   3
   2   0   4 1394.32 27.4281   4
   2   0   4 1486.23 48.0390   3
   2   0   5 1373.42 33.3495   4
  -2   0  -5 1447.17 53.1658   3
  -2   0  -6 140.224 21.3207   3
  -2   0  -6 146.180 12.7553   7
   2   0   6 148.747 14.2602   4
  -2   0  -7 240.554 29.2078   3
   2   0   7 250.814 19.8075   4
  -2   0  -7 264.674 17.5776   7
  -2   0  -8 467.422 40.5491   3
  -2   0  -8 451.286 24.3315   7
   2   0   8 414.261 26.9582   4
   2   0   9 164.241 19.0574   4
  -2   0  -9 182.603 28.1094   3
  -2   0 -10 165.269 28.3319   3
  -2   0 -11 51.5025 20.9926   3
  -2  -1  11 21.5524 15.6629   4
   2   1 -10 241.755 32.3987   3
  -2  -1  10 250.470 33.6426   4
   2   1  -9 520.859 40.6130   3
  -2  -1   9 427.807 39.9355   4
   2   1  -9 452.374 33.5671   7
   2   1  -8 28.4605 10.6051   7
  -2  -1   8 10.0535 12.8409   4
   2   1  -8 49.1959 14.5889   3
  -2  -1   7 104.823 21.3857   4
   2   1  -7 105.940 16.5011   7
   2   1  -7 101.264 17.3758   3
   2   1  -6 895.263 39.9098   7
   2   1  -6 959.907 42.7631   3
   2   1  -6 804.306 37.9628   1
  -2  -1   5 2805.05 65.3990   7
  -2  -1   5 2920.08 67.1757   1
   2   1  -5 2852.78 66.3632   7
   2   1  -5 2783.05 65.1706   3
  -2  -1   5 2672.14 62.3505   3
   2   1  -5 2643.40 64.1391   1
  -2  -1   4 5.15892 6.48457   3
   2   1  -4 13.8285 9.29243   1
   2   1  -4 6.52377 5.94439   7
   2   1  -4 10.5936 8.58848   3
  -2  -1   4 5.98720 6.66330   7
  -2  -1   4 6.27876 6.83645   1
  -2  -1   3 2130.86 51.1169   1
   2   1  -3 2006.28 50.2865   1
   2   1  -3 2100.65 43.8043   3
  -2  -1   3 2054.66 42.6016   3
  -2  -1   3 2097.50 48.6675   7
   2   1  -3 2058.86 49.2630   7
   2   1  -3 2194.72 55.4978   5
  -2  -1   2 911.256 30.2504   7
  -2  -1   2 926.749 31.7383   1
   2   1  -2 884.522 24.2451   3
   2   1  -2 887.334 32.0614   5
  -2  -1   2 868.905 23.8970   3
   2   1  -2 930.350 32.4066   1
   2   1  -2 874.805 30.7981   7
  -2  -1   2 922.954 33.7840   5
  -2  -1   1 6630.08 67.5354   2
  -2  -1   1 6635.86 77.5302   1
  -2  -1   1 6417.58 54.3921   3
  -2  -1   1 6630.91 76.3638   5
   2   1  -1 6612.56 75.9121   5
  -2  -1   1 6479.41 75.1903   7
  -2  -1   1 6350.04 53.6659   6
   2   1  -1 6237.44 75.5460   7
   2   1  -1 6453.48 78.8353   1
   2   1   0 5667.44 57.2405   2
  -2  -1   0 5688.83 66.3129   1
  -2  -1   0 5416.32 66.3955   7
  -2  -1   0 5617.22 63.5303   5
   2   1   0 5573.77 66.9432   1
   2   1   1 40.1165 8.01939   1
  -2  -1  -1 36.0779 6.66163   4
  -2  -1  -1 41.6440 7.57442   1
   2   1   1 38.1169 5.23173   6
   2   1   2 4485.63 47.5059   1
  -2  -1  -2 4545.28 47.5654   1
   2   1   2 4371.04 39.6615   4
  -2  -1  -2 4531.10 63.4065   3
  -2  -1  -2 4357.92 37.5788   4
  -2  -1  -3 62.9155 11.5809   3
   2   1   3 64.8301 5.79263   1
  -2  -1  -3 65.3927 5.89406   4
   2   1   3 70.5503 6.37737   4
  -2  -1  -4 8440.89 69.0273   4
  -2  -1  -4 8872.66 113.224   3
   2   1   4 8726.70 67.0180   4
  -2  -1  -5 24152.3 206.679   3
   2   1   5 23885.3 133.232   4
  -2  -1  -6 5100.23 105.861   3
   2   1   6 5233.47 71.7992   4
  -2  -1  -7 374.633 32.5844   3
   2   1   7 358.467 22.2320   4
  -2  -1  -7 413.560 24.7329   7
   2   1   8 598.945 31.3463   4
  -2  -1  -8 525.216 41.4905   3
  -2  -1  -8 600.060 31.0688   7
  -2  -1  -9 425.821 27.8039   7
  -2  -1  -9 461.288 41.5810   3
   2   1   9 388.678 27.4395   4
  -2  -1 -10 109.841 25.4896   3
  -2  -1 -11-6.73070 17.3969   3
  -2  -1 -12 32.3013 19.1977   3
  -2  -2  11 184.945 32.5828   4
   2   2 -10 329.834 37.2268   3
  -2  -2  10 281.504 39.3725   6
  -2  -2  10 280.525 37.0130   4
   2   2  -9 417.022 38.4212   3
  -2  -2   9 370.441 39.7714   4
  -2  -2   9 444.660 45.8341   6
  -2  -2   8 761.607 54.0213   6
   2   2  -8 695.724 39.5386   7
   2   2  -8 784.736 48.2204   3
   2   2  -8 682.243 39.1294   1
  -2  -2   7 274.842 31.9363   6
   2   2  -7 295.720 29.3534   3
   2   2  -7 266.962 24.2290   7
   2   2  -7 270.359 24.8201   1
   2   2  -6 476.043 29.5054   7
   2   2  -6 490.994 34.0236   3
   2   2  -6 457.987 30.8188   1
  -2  -2   5 2644.07 77.1675   6
   2   2  -5 2605.67 69.7418   3
   2   2  -5 2618.71 64.6192   7
   2   2  -5 2506.84 67.4092   1
  -2  -2   5 2647.28 63.5359   7
   2   2  -4 2562.81 65.1234   1
  -2  -2   4 2544.22 68.4749   6
   2   2  -4 2559.36 60.6417   7
  -2  -2   4 2515.61 58.4863   7
   2   2  -4 2522.70 62.1867   3
  -2  -2   4 2593.30 63.9469   1
  -2  -2   4 2551.44 61.5207   3
  -2  -2   3 63.0638 13.1900   6
   2   2  -3 57.9486 11.7015   1
  -2  -2   3 63.0654 9.78244   7
   2   2  -3 60.3251 11.7934   3
   2   2  -3 61.6291 10.4666   7
  -2  -2   3 66.1918 10.7107   3
  -2  -2   3 74.6311 12.0113   1
  -2  -2   2 660.851 27.4563   7
   2   2  -2 611.591 29.3311   1
  -2  -2   2 659.612 26.2424   3
   2   2  -2 671.667 26.5525   3
  -2  -2   2 637.321 27.3618   6
   2   2  -2 649.409 30.5699   5
  -2  -2   2 677.014 29.8579   1
  -2  -2   2 678.320 31.6175   5
  -2  -2   1 2843.19 49.1249   3
   2   2  -1 2787.79 57.7567   1
  -2  -2   1 2825.51 56.7741   5
   2   2  -1 2907.68 56.6053   5
  -2  -2   1 2852.58 54.4428   7
  -2  -2   1 2923.26 57.6023   1
   2   2  -1 2811.30 47.1007   6
  -2  -2   1 2755.27 46.2055   6
   2   2   0 3257.67 38.6133   2
  -2  -2   0 3236.54 54.3732   5
   2   2   0 3272.55 53.6903   5
   2   2   0 3207.64 58.5775   1
  -2  -2   0 3244.76 42.2281   6
  -2  -2   0 3255.60 57.3690   1
  -2  -2   0 3244.77 58.2244   4
   2   2   0 3266.63 42.8597   6
  -2  -2  -1 2569.43 43.6546   5
  -2  -2  -1 2355.39 45.7979   4
   2   2   1 2608.65 49.7620   1
   2   2   1 2686.79 48.3910   4
   2   2   1 2699.48 37.9082   6
  -2  -2  -1 2583.93 37.3681   6
   2   2   2 1010.95 27.7580   4
  -2  -2  -2 1017.22 27.0266   4
  -2  -2  -2 996.226 28.7238   6
   2   2   2 1056.15 29.7676   1
   2   2   2 958.879 27.0431   6
   2   2   3-1.56871 6.14017   4
   2   2   3 2.99857 5.60634   1
   2   2   3 0.70705 6.77237   6
  -2  -2  -3 3.63966 5.40274   4
  -2  -2  -4 3521.99 72.1524   3
   2   2   4 3316.44 49.9589   4
   2   2   4 3457.44 68.0696   6
  -2  -2  -4 3567.63 50.5339   4
  -2  -2  -5 43.7731 12.8082   3
  -2  -2  -5 57.9264 9.67754   4
   2   2   5 27.0620 6.82619   4
  -2  -2  -6 8576.21 133.385   3
   2   2   6 8419.50 94.8302   4
  -2  -2  -6 8550.93 99.9016   4
  -2  -2  -7 852.388 46.9906   3
   2   2   7 857.932 34.4350   4
  -2  -2  -8 6.86469 14.9525   3
   2   2   8 13.0853 10.2305   4
  -2  -2  -8-4.50072 10.3220   7
  -2  -2  -9 583.223 44.9936   3
  -2  -2  -9 638.649 36.5857   7
   2   2   9 552.782 32.2436   4
   2   2  10 42.3370 10.9417   4
  -2  -2 -10 63.5722 19.1661   3
  -2  -2 -10 52.7413 12.9345   7
  -2  -2 -11 119.919 26.5493   3
  -2  -2 -12-6.06966 17.8803   3
  -2  -3  10-2.09367 13.9337   4
  -2  -3  10 47.3120 24.3166   6
   2   3 -10 13.4051 13.8568   3
   2   3  -9 79.4684 23.4850   3
  -2  -3   9 69.9529 23.9753   6
   2   3  -8 69.8326 15.4826   1
   2   3  -8 66.8453 18.1479   3
  -2  -3   8 43.9181 15.9475   6
  -2  -3   7 89.4103 22.1302   6
   2   3  -7 91.4998 19.3896   3
   2   3  -7 86.1725 16.3956   1
   2   3  -6 383.442 32.5849   3
  -2  -3   6 340.953 33.5000   6
   2   3  -6 300.594 26.5057   1
   2   3  -5 485.660 33.1151   1
   2   3  -5 508.568 34.4611   3
  -2  -3   5 478.486 36.9532   6
  -2  -3   4 1624.49 59.6415   6
   2   3  -4 1598.03 56.4393   1
   2   3  -4 1722.96 57.7580   3
  -2  -3   4 1680.24 49.4793   7
   2   3  -3 4286.85 83.9253   3
   2   3  -3 4024.97 84.2294   1
  -2  -3   3 4305.59 83.3721   3
  -2  -3   3 4257.89 75.6442   7
  -2  -3   3 4124.55 85.5694   6
  -2  -3   2 32.6608 10.5148   6
   2   3  -2 27.5191 11.2598   1
   2   3  -2 29.9750 9.75130   3
  -2  -3   2 48.6302 11.3100   3
  -2  -3   2 29.2983 7.77579   7
   2   3  -1 8.79540 7.31252   5
  -2  -3   1 9.13274 7.89269   6
   2   3  -1 9.14997 7.20135   6
  -2  -3   1 4.91628 8.69874   5
  -2  -3   1 11.6919 8.12998   3
   2   3  -1 14.4241 8.10827   1
  -2  -3   1 11.5267 8.31135   4
  -2  -3   0 11924.9 115.567   5
   2   3   0 12093.1 115.015   5
  -2  -3   0 11942.5 127.920   4
   2   3   0 11580.9 125.723   1
   2   3   0 12175.0 130.015   4
  -2  -3   0 11684.2 114.387   3
  -2  -3   0 11669.5 104.633   6
   2   3   0 11729.2 105.272   6
  -2  -3  -1 4006.68 60.4421   5
   2   3   1 3987.81 61.0121   5
   2   3   1 3978.63 70.4707   1
  -2  -3  -1 3929.62 58.7365   6
   2   3   1 4113.23 71.3642   4
  -2  -3  -1 4240.46 71.7643   4
   2   3   1 4140.01 59.8535   6
  -2  -3  -2 27.0268 8.16235   4
   2   3   2 27.1865 7.23936   6
  -2  -3  -2 25.2006 6.58361   5
  -2  -3  -2 25.9750 7.97776   6
   2   3   2 27.1181 9.61375   4
   2   3   3 116.877 12.4722   4
  -2  -3  -3 112.109 13.8966   6
  -2  -3  -3 124.595 13.1921   4
   2   3   3 108.923 12.1094   6
   2   3   4 68.4613 10.8065   4
  -2  -3  -4 78.2937 13.0454   6
   2   3   4 78.0279 12.6664   6
  -2  -3  -4 78.7170 10.8939   4
  -2  -3  -5 801.083 30.3678   4
   2   3   5 796.711 31.0474   4
  -2  -3  -6 0.77798 10.0926   3
   2   3   6 8.89857 8.67982   4
  -2  -3  -6 19.5204 8.05577   4
  -2  -3  -7 1.74947 11.1841   3
   2   3   7 11.7239 9.70209   4
  -2  -3  -7-5.98507 9.18228   4
  -2  -3  -8 946.897 54.3087   3
   2   3   8 924.965 40.3180   4
  -2  -3  -9 4.46012 12.9056   3
  -2  -3  -9-5.67747 12.1629   7
   2   3   9-13.0151 12.4573   4
  -2  -3 -10 7.21007 13.7996   3
  -2  -3 -10 7.93305 10.6119   7
   2   3  10 1.51901 10.4810   4
  -2  -3 -11 220.037 32.8759   3
  -2  -3 -11 274.628 28.8989   7
  -2  -3 -12 41.7678 20.2797   3
  -2  -4  10 4.56897 19.0893   4
   2   4  -9-15.4730 19.7610   3
  -2  -4   9 72.3526 24.9112   6
  -2  -4   8 50.8140 23.5632   6
   2   4  -8-21.2718 16.0629   3
   2   4  -7 24.7144 14.1372   3
  -2  -4   7 76.1011 22.4731   6
   2   4  -7 62.5454 16.1453   1
   2   4  -6 362.575 33.6860   3
  -2  -4   6 341.838 34.8786   6
   2   4  -6 317.956 29.8607   1
  -2  -4   5 941.632 52.8374   6
   2   4  -5 904.919 49.3932   3
   2   4  -5 862.306 46.7862   1
  -2  -4   4 1225.71 44.1581   7
   2   4  -4 1249.31 53.5502   1
   2   4  -4 1344.88 56.3765   3
  -2  -4   4 1278.95 56.9556   6
  -2  -4   3 1087.58 49.0073   6
   2   4  -3 1057.76 47.8354   1
   2   4  -3 1037.53 46.7875   3
  -2  -4   3 1112.24 41.3954   7
   2   4  -2 452.279 30.8408   1
   2   4  -2 451.183 29.9640   3
  -2  -4   2 490.149 27.5754   7
  -2  -4   2 443.964 29.0457   6
  -2  -4   1 243.613 21.3149   3
   2   4  -1 290.367 21.7099   6
   2   4  -1 251.653 23.0685   1
  -2  -4   1 251.967 21.3512   6
   2   4   0 69.0303 14.0892   1
   2   4   0 71.7244 15.1473   4
   2   4   0 85.8722 12.5531   6
   2   4   0 65.8837 11.3027   5
  -2  -4   0 75.6859 12.5315   6
  -2  -4   0 78.1681 13.6097   3
   2   4   1 190.959 16.4130   6
   2   4   1 173.426 14.8972   5
  -2  -4  -1 180.832 18.6774   4
   2   4   1 199.354 20.9493   1
   2   4   1 197.048 19.5294   4
  -2  -4  -1 179.144 15.5860   5
  -2  -4  -1 160.214 15.9938   6
  -2  -4  -2-3.20202 9.57113   4
   2   4   2 13.1572 7.33394   6
  -2  -4  -2 10.2138 6.75121   5
   2   4   2 2.83112 10.0061   4
  -2  -4  -2-2.74034 8.48286   6
  -2  -4  -3 222.042 19.1024   6
  -2  -4  -3 234.033 13.6358   5
   2   4   3 230.014 19.7787   4
  -2  -4  -3 238.356 19.4077   4
   2   4   3 241.848 19.0277   6
  -2  -4  -4 133.606 17.4824   6
   2   4   4 151.053 16.1281   4
   2   4   4 142.807 16.6036   6
  -2  -4  -4 131.782 15.0398   4
  -2  -4  -5 1264.88 42.5526   4
   2   4   5 1319.74 44.9628   4
  -2  -4  -5 1363.94 51.2329   6
  -2  -4  -6 696.887 33.2612   4
   2   4   6 677.411 33.5572   4
  -2  -4  -7 43.4055 15.6044   3
   2   4   7 57.2500 14.1705   4
  -2  -4  -8 55.0464 19.3397   3
   2   4   8 62.6801 15.3887   4
   2   4   9 2003.90 65.4971   4
  -2  -4  -9 1974.01 80.2098   3
  -2  -4 -10 41.4167 18.8976   3
  -2  -4 -10 37.7630 16.5168   7
   2   4  10 43.7774 13.0293   4
  -2  -4 -11 21.9271 15.5443   3
  -2  -4 -11 17.1794 12.2635   7
  -2  -4 -12 145.339 30.1011   3
  -2  -4 -12 56.5125 15.9475   7
   2   5  -9 77.9810 21.6210   3
  -2  -5   8 226.325 36.0685   6
   2   5  -8 237.588 33.2852   3
   2   5  -7-7.08662 9.27789   1
  -2  -5   7 57.6337 21.5009   6
   2   5  -7 31.2698 18.3250   3
  -2  -5   6 48.2812 18.7979   6
   2   5  -6 40.9682 16.1494   3
   2   5  -6 17.5973 9.96177   1
  -2  -5   5 1587.04 72.5449   6
   2   5  -5 1532.44 65.6191   1
   2   5  -5 1603.41 69.9179   3
   2   5  -4 622.785 41.6771   3
   2   5  -4 585.076 40.3566   1
  -2  -5   4 687.627 45.9482   6
   2   5  -3 155.020 22.0487   1
   2   5  -3 140.545 20.1213   3
  -2  -5   3 169.212 23.8108   6
   2   5  -2 341.733 29.8842   1
  -2  -5   2 369.225 30.9193   6
   2   5  -1 205.816 23.2420   1
  -2  -5   1 167.907 9.55154   2
  -2  -5   1 196.715 22.0029   6
   2   5   0 862.967 39.3572   6
   2   5   0 838.789 42.9465   1
   2   5   0 873.134 44.9966   4
  -2  -5   0 777.336 38.1156   6
   2   5   1 420.214 24.1123   5
   2   5   1 443.603 32.0027   4
   2   5   1 460.577 28.1945   6
   2   5   1 417.267 30.4991   1
  -2  -5  -1 428.018 28.3817   6
   2   5   2 953.231 44.3862   4
  -2  -5  -2 927.224 32.5613   5
   2   5   2 926.662 32.2415   5
   2   5   2 1006.91 40.6618   6
  -2  -5  -2 936.279 39.9255   6
   2   5   3 41.7096 11.3403   6
   2   5   3 44.6578 13.7083   4
  -2  -5  -3 41.2497 8.11128   5
  -2  -5  -3 37.6586 10.8996   6
  -2  -5  -4 331.941 15.6319   5
  -2  -5  -4 330.476 26.9844   6
   2   5   4 322.408 25.7736   4
  -2  -5  -5 468.279 16.9174   5
   2   5   5 454.376 30.2556   4
  -2  -5  -5 478.138 33.4869   6
   2   5   6 740.465 39.4934   4
  -2  -5  -6 762.398 43.7499   6
   2   5   7 552.152 35.1976   4
   2   5   8 60.3766 16.4730   4
  -2  -5  -8 51.8262 18.6151   3
  -2  -5  -9 135.570 24.4903   3
   2   5   9 125.620 19.3056   4
  -2  -5 -10 223.657 30.7765   3
   2   5  10 229.973 25.6834   4
  -2  -5 -11 429.754 43.8702   3
   2   5  11 339.873 32.5859   4
  -2  -5 -11 324.275 34.1390   7
  -2  -5 -12 69.2008 18.8484   7
  -2  -5 -12 58.8096 20.7284   3
  -2  -6   8 210.263 37.9234   6
   2   6  -8 206.626 31.2313   3
  -2  -6   7 21.0213 16.7638   6
   2   6  -7 19.3055 15.8816   3
  -2  -6   6 220.975 33.1884   6
   2   6  -6 200.079 30.7549   3
   2   6  -6 175.066 26.4983   1
  -2  -6   5 151.270 26.0428   6
   2   6  -5 225.974 30.5989   3
   2   6  -5 172.866 26.3992   1
   2   6  -4 497.351 39.9183   1
   2   6  -4 453.833 39.0364   3
  -2  -6   4 505.406 41.7927   6
   2   6  -3 2704.51 88.4044   1
  -2  -6   3 2708.21 90.0534   6
   2   6  -2 117.924 20.3208   1
  -2  -6   2 162.692 24.5669   6
   2   6  -1 371.829 32.9967   1
  -2  -6   1 385.963 33.0571   6
   2   6   0 4835.35 112.806   4
  -2  -6   0 4452.28 99.4957   6
   2   6   0 4431.59 105.935   1
  -2  -6  -1 2498.50 73.8855   6
   2   6   1 2771.98 83.3365   4
   2   6   1 2596.36 79.8763   1
   2   6   2 373.910 23.2871   5
   2   6   2 353.471 32.3903   4
  -2  -6  -2 353.251 28.9849   6
  -2  -6  -3 28.2977 12.0052   6
   2   6   3 24.7480 16.3592   4
  -2  -6  -4 298.141 27.3936   6
   2   6   4 336.353 29.4195   4
  -2  -6  -5 732.078 20.8747   5
   2   6   5 809.153 44.1617   4
  -2  -6  -5 768.767 44.2007   6
  -2  -6  -6 569.248 15.3028   5
  -2  -6  -6 715.745 44.8512   6
   2   6   6 756.411 42.7601   4
  -2  -6  -7 861.217 51.1175   6
   2   6   7 807.222 45.7539   4
   2   6   8 185.163 25.1258   4
  -2  -6  -9 503.236 43.8182   3
   2   6   9 485.513 38.5301   4
  -2  -6 -10 91.6626 22.3132   3
   2   6  10 112.080 21.0865   4
  -2  -6 -11 325.656 39.1549   3
   2   6  11 336.024 34.0687   4
  -2  -6 -11 328.976 37.9036   7
  -2  -6 -12 268.750 38.7967   3
  -2  -6 -12 269.314 35.2017   7
  -2  -6 -13 193.695 30.3061   7
  -2  -7   7-7.34596 17.6918   6
   2   7  -7-0.52175 14.6828   3
  -2  -7   6-0.16761 16.2190   6
   2   7  -6-21.1237 18.4011   1
   2   7  -5 412.672 41.5395   3
   2   7  -5 374.346 37.9408   1
  -2  -7   5 404.882 42.0103   6
   2   7  -4 676.601 49.0193   1
  -2  -7   4 651.003 50.6282   6
  -2  -7   3 29.8963 15.7881   6
   2   7  -3 14.3269 12.4372   1
  -2  -7   2 682.641 47.7990   6
   2   7  -2 713.129 48.4986   1
   2   7  -1 38.6442 16.2799   1
  -2  -7   1 40.4017 18.7147   6
  -2  -7   0 87.9341 19.5940   6
   2   7   0 62.9765 18.6505   1
   2   7   0 70.8311 19.3439   4
   2   7   1 5105.62 122.629   4
   2   7   1 4714.39 116.691   1
  -2  -7  -1 4743.04 110.979   6
   2   7   2 1212.18 44.5671   5
   2   7   2 1498.05 66.1725   4
  -2  -7  -2 1317.97 58.5923   6
   2   7   3 33.2448 17.1005   4
   2   7   3 30.8964 8.81055   5
  -2  -7  -3 24.7327 13.4798   6
  -2  -7  -4 560.909 38.8947   6
   2   7   4 570.610 41.6993   4
   2   7   5 195.670 27.7336   4
  -2  -7  -5 185.296 25.5199   6
  -2  -7  -6 426.165 36.9706   6
   2   7   6 384.263 35.3753   4
   2   7   7 214.918 27.3550   4
  -2  -7  -7 209.601 27.6585   6
  -2  -7  -8 183.178 28.1088   6
   2   7   8 163.067 23.8294   4
   2   7   9 290.835 31.7686   4
   2   7  10 58.6149 18.7812   4
  -2  -7 -10 36.5470 17.4460   3
   2   7  11 59.1007 20.8325   4
  -2  -7 -11 51.8160 20.1476   3
  -2  -7 -12 16.3662 14.8261   3
  -2  -7 -12 31.2103 21.8461   7
  -2  -8   5 134.832 30.5821   6
   2   8  -5 105.574 25.4232   1
   2   8  -4 64.8330 17.9993   1
  -2  -8   4 156.042 30.0193   6
  -2  -8   3 145.449 27.3212   6
   2   8  -3 154.441 26.3193   1
  -2  -8   2 25.7701 18.8607   6
   2   8  -2-24.5492 18.1083   1
  -2  -8   1 103.776 22.0532   6
   2   8  -1 133.146 25.1595   1
   2   8   0 323.551 35.9233   1
   2   8   0 362.600 38.4800   4
  -2  -8   0 345.419 35.6422   6
  -2  -8  -1 54.2537 17.2773   6
   2   8   1 48.5586 14.7503   4
   2   8   1 68.7142 20.1756   1
  -2  -8  -2 750.228 48.6249   6
   2   8   2 822.566 54.2180   4
   2   8   3 1676.20 74.8348   4
   2   8   3 1421.20 47.2818   5
  -2  -8  -3 1611.35 68.9391   6
   2   8   4 404.385 38.6377   4
  -2  -8  -4 336.014 32.4266   6
  -2  -8  -5 511.743 41.2499   6
   2   8   5 570.847 44.6852   4
   2   8   6 842.918 53.0178   4
  -2  -8  -6 789.384 51.6099   6
   2   8   7 246.315 29.5170   4
  -2  -8  -7 208.037 27.2816   6
   2   8   8 278.164 32.8948   4
  -2  -8  -8 259.694 33.4903   6
  -2  -8  -9 93.6861 24.3741   6
   2   8   9 142.161 26.6108   4
   2   8  10 381.593 38.7286   4
   2   8  11 40.8524 18.3327   4
  -2  -8 -11 15.4793 17.3620   3
  -2  -8 -12 37.0434 19.7764   7
  -2  -9   4 163.883 32.3184   6
   2   9  -4 196.133 30.7619   1
   2   9  -3 281.771 37.1072   1
  -2  -9   3 238.012 35.3166   6
  -2  -9   2 180.129 29.9904   6
   2   9  -2 163.919 29.6643   1
  -2  -9   1 79.9464 23.5694   6
   2   9  -1 81.4554 22.0163   1
   2   9   0 131.010 24.1803   4
   2   9   0 118.684 24.6099   1
  -2  -9   0 145.164 27.5733   6
  -2  -9  -1 157.313 26.4693   6
   2   9   1 180.901 30.2729   4
   2   9   1 146.449 27.2399   1
   2   9   2 342.707 38.5680   4
  -2  -9  -2 340.985 36.7757   6
   2   9   2 365.037 40.1672   1
   2   9   3 164.797 27.8642   4
  -2  -9  -3 130.311 23.4525   6
   2   9   4 1843.04 83.7238   4
  -2  -9  -4 1649.08 76.2916   6
   2   9   5 76.6035 22.2314   4
  -2  -9  -5 52.1160 17.2665   6
   2   9   6 34.3253 16.9649   4
  -2  -9  -6 57.3629 21.0165   6
  -2  -9  -7-6.00323 18.8008   6
   2   9   7 21.0146 17.1293   4
   2   9   8 123.554 26.3761   4
  -2  -9  -8 158.506 29.8049   6
   2   9   9 105.626 27.1934   4
  -2  -9  -9 139.858 28.1951   6
   2   9  10-4.78262 19.6304   4
  -2  -9 -10 35.2475 20.6050   6
   2   9  11 50.0126 24.1340   4
  -2  -9 -11 26.9245 16.9527   3
   2   9  12 8.92305 17.6453   4
   2  10  -3-5.36495 18.1077   1
  -2 -10   2 155.269 31.2648   6
   2  10  -2 176.528 30.3853   1
  -2 -10   1-19.9832 19.7424   6
   2  10  -1 7.62606 15.0265   1
  -2 -10   0 60.2313 22.5490   6
   2  10   0 87.3028 23.8739   1
   2  10   1 142.146 29.9440   4
   2  10   1 111.220 26.4044   1
  -2 -10  -1 137.117 26.2393   6
   2  10   2 358.816 42.0144   1
   2  10   2 419.020 46.3735   4
  -2 -10  -2 377.128 42.2961   6
   2  10   3-3.61453 17.5184   4
  -2 -10  -3 33.2998 17.5866   6
   2  10   4 194.777 32.1449   4
  -2 -10  -4 183.075 30.1384   6
   2  10   5 476.064 48.0606   4
  -2 -10  -5 444.371 44.5935   6
  -2 -10  -6 771.819 56.8662   6
   2  10   6 788.834 59.4611   4
   2  10   7 16.5512 19.8540   4
  -2 -10  -7 20.8238 17.9534   6
  -2 -10  -8 71.9055 23.5950   6
   2  10   8 38.9352 18.2300   4
   2  10   9 73.9557 26.4874   4
  -2 -10  -9 77.5520 26.2654   6
  -2 -10 -10 20.8482 16.5654   6
   2  10  10 33.1147 22.6281   4
   2  10  11 25.3007 20.5912   4
  -2 -11   0 96.5911 29.3033   6
  -2 -11  -1-31.6966 22.3346   6
   2  11   1 5.71580 16.0098   1
   2  11   1 3.96763 19.0998   4
  -2 -11  -2 167.470 30.3855   6
   2  11   2 157.095 31.9898   4
   2  11   2 165.568 33.0540   1
   2  11   3-31.2562 20.4139   4
   2  11   3-24.1851 19.7792   1
  -2 -11  -3 3.77404 16.4514   6
  -2 -11  -4 16.2780 14.3487   6
   2  11   4-11.3730 20.6963   4
   2  11   5 33.8935 18.5940   4
  -2 -11  -5 51.5075 19.6153   6
  -2 -11  -6 159.053 29.0899   6
   2  11   6 125.172 27.4974   4
   2  11   7 255.898 37.8227   4
  -2 -11  -7 208.173 34.0256   6
  -2 -11  -8 78.7476 22.7077   6
   2  11   8 78.3914 23.7785   4
   2  11   9 78.7132 28.5883   4
  -2 -12  -3 127.246 29.1080   6
  -2 -12  -4 342.757 44.9640   6
  -2 -12  -5 151.378 28.5135   6
   3 -12  -5 11.2449 17.4961   7
   3 -11  -7 77.0154 23.8619   7
  -3  11   6 137.767 34.2709   4
   3 -11  -6 137.212 29.6013   6
   3 -11  -6 164.021 29.4816   7
  -3  11   5-21.6545 19.5892   4
   3 -11  -5 63.6497 25.6757   6
   3 -11  -5 46.0017 21.3222   7
   3 -11  -4 3.09258 10.7004   7
  -3  11   4-25.5658 25.3589   4
   3 -11  -3-28.3656 21.8753   6
  -3  11   3-13.7034 18.8604   4
  -3  11   2 71.9204 23.4342   4
  -3  11   1-1.65653 21.1264   4
  -3  11   0 22.1205 17.1705   4
   3 -10  -8 40.9298 22.5413   6
  -3  10   8 42.5164 20.9648   4
   3 -10  -8 42.8497 21.9861   7
   3 -10  -7 43.2953 19.6943   7
  -3  10   7 3.25219 20.4822   4
  -3  10   6 54.8080 23.3714   4
   3 -10  -6 52.9547 21.0703   6
   3 -10  -6 65.9827 21.9859   7
  -3  10   5 29.0391 18.2142   4
   3 -10  -5 6.76404 16.1988   6
   3 -10  -5 25.4207 16.2663   7
  -3  10   4 93.2955 25.3787   4
   3 -10  -4 124.981 29.0780   6
   3 -10  -4 95.7208 21.8855   7
  -3  10   3 169.678 30.0243   4
   3 -10  -3 151.712 27.0650   6
   3 -10  -3 179.124 26.0822   7
  -3  10   2 109.727 27.2151   4
   3 -10  -2 111.585 19.4837   7
   3 -10  -2 67.8591 21.4015   6
  -3  10   1 72.1735 22.5313   4
   3 -10  -1 39.3967 19.0586   6
   3 -10   0 1.36495 18.3872   6
  -3  10   0 64.0561 22.9010   4
  -3  10  -1-34.3032 21.7944   4
  -3  10  -2 9.57297 19.3148   4
  -3   9  10 487.341 53.9646   4
   3  -9 -10 506.570 51.1636   7
   3  -9 -10 375.477 45.4570   6
   3  -9  -9 27.8749 14.8874   6
   3  -9  -9 59.0498 20.3630   7
  -3   9   9 34.7840 20.5648   4
   3  -9  -8 390.390 42.9826   7
  -3   9   8 303.955 38.8808   4
   3  -9  -8 387.922 44.0840   6
  -3   9   7 223.924 33.9030   4
   3  -9  -7 170.125 29.9195   6
   3  -9  -7 171.059 28.5051   7
  -3   9   6 199.824 31.8079   4
   3  -9  -6 146.532 28.5811   6
   3  -9  -6 238.948 31.3998   7
  -3   9   5 57.5050 20.6220   4
   3  -9  -5 57.3998 20.2136   6
   3  -9  -5 74.1526 20.0027   7
   3  -9  -4 99.7458 22.9236   6
   3  -9  -4 137.219 24.8366   7
  -3   9   4 87.6638 23.9448   4
   3  -9  -3 1365.65 63.8247   7
   3  -9  -3 1341.47 74.6609   6
  -3   9   3 1340.73 71.5077   4
  -3   9   2 335.856 38.2350   4
   3  -9  -2 347.298 31.8427   7
   3  -9  -2 388.801 42.7936   6
  -3   9   1 79.0705 22.1560   4
   3  -9  -1 97.5867 25.2438   6
   3  -9  -1 108.118 17.8430   7
   3  -9   0 60.3737 23.4037   6
  -3   9   0 16.4726 16.0702   4
   3  -9   1 7.01795 16.1678   6
  -3   9  -1 9.08502 14.4472   4
  -3   9  -2 56.7509 19.8675   4
   3  -9   2 75.3159 24.7686   6
   3  -9   3 46.5671 21.5495   6
  -3   9  -3 48.0872 21.7143   3
  -3   8  11 24.4962 23.0742   4
   3  -8 -10-35.1569 20.2033   6
   3  -8 -10-36.3309 17.7629   7
  -3   8  10 19.2991 20.3671   4
  -3   8   9 678.058 56.0976   4
   3  -8  -9 603.363 52.0975   7
   3  -8  -9 603.547 52.6857   6
   3  -8  -8 28.6558 15.7804   7
   3  -8  -8 12.8843 13.6725   6
  -3   8   8 64.0079 21.4322   4
   3  -8  -7 101.928 24.7843   6
   3  -8  -7 73.7717 19.9167   7
  -3   8   7 70.5605 21.9872   4
   3  -8  -6 174.955 27.8117   6
   3  -8  -6 156.679 26.1373   7
  -3   8   6 176.057 27.7304   4
   3  -8  -5 52.8914 19.6833   6
   3  -8  -5 44.1728 17.3929   7
  -3   8   5 57.4110 19.1454   4
   3  -8  -4 23.8381 15.7722   6
  -3   8   4 19.9698 16.8998   4
   3  -8  -4 11.6196 12.5434   7
   3  -8  -3 650.542 49.4547   6
  -3   8   3 662.379 48.1375   4
   3  -8  -3 588.998 40.2957   7
  -3   8   2 1745.71 75.0751   4
   3  -8  -2 1666.84 63.3780   7
   3  -8  -2 1685.95 78.7382   6
  -3   8   1 685.105 49.1089   4
   3  -8  -1 682.927 38.6972   7
   3  -8  -1 715.990 53.0546   6
   3  -8   0 123.747 25.7217   6
   3  -8   0 86.2399 13.5557   7
  -3   8   0 118.552 24.4207   4
   3  -8   0 130.189 18.9415   2
   3  -8   1 428.665 44.5386   6
   3  -8   1 464.741 33.0028   2
  -3   8  -1 429.453 39.7298   4
   3  -8   2 344.758 30.2817   2
  -3   8  -2 296.800 37.4072   3
  -3   8  -2 337.925 36.2222   4
   3  -8   2 326.505 39.7451   6
   3  -8   3 213.580 33.2443   6
  -3   8  -3 203.572 33.3833   3
   3  -8   4 52.6427 22.8091   6
  -3   8  -4 94.7376 26.8510   3
  -3   7  11 437.101 47.2387   4
   3  -7 -11 492.999 48.8106   7
   3  -7 -10-3.96556 10.6522   3
  -3   7  10-4.33392 17.2361   4
   3  -7 -10-6.61525 12.3515   7
   3  -7  -9 36.2441 18.8814   6
   3  -7  -9 38.1396 17.4696   7
  -3   7   9 58.3132 23.4831   4
   3  -7  -8 235.856 32.2111   6
   3  -7  -8 249.211 32.5974   7
  -3   7   8 206.788 30.8045   4
   3  -7  -7 586.656 46.6382   6
   3  -7  -7 614.644 46.7973   7
  -3   7   7 576.603 47.2472   4
   3  -7  -6 2.28098 12.7229   6
   3  -7  -6 12.1659 14.8221   7
  -3   7   6 8.06195 16.3166   4
   3  -7  -5 26.8389 15.1829   6
   3  -7  -5 22.6407 11.9089   7
  -3   7   5 40.4793 16.4724   4
   3  -7  -4 119.999 22.3373   7
  -3   7   4 66.9231 21.2381   4
   3  -7  -4 78.1518 19.8463   6
  -3   7   3 213.268 27.9602   4
   3  -7  -3 242.171 25.7802   7
   3  -7  -3 260.827 31.0676   6
   3  -7  -2 1993.19 66.2488   7
  -3   7   2 1945.97 73.1981   4
   3  -7  -2 2098.09 80.8626   6
   3  -7  -1 974.702 44.1178   2
  -3   7   1 984.776 53.0302   4
   3  -7  -1 995.064 44.0418   7
   3  -7  -1 980.965 57.0585   6
   3  -7   0 1399.20 53.2443   2
   3  -7   0 1371.73 47.1090   7
   3  -7   0 1353.94 68.2330   6
  -3   7   0 1375.95 62.5934   4
  -3   7  -1 71.7270 19.1606   3
   3  -7   1 74.5782 21.8474   6
  -3   7  -1 79.0740 18.8206   4
   3  -7   1 77.7223 11.2256   7
   3  -7   1 83.8394 15.1779   2
  -3   7  -2 793.187 49.0011   4
   3  -7   2 827.739 58.1840   6
  -3   7  -2 767.088 53.5820   3
  -3   7  -3 708.259 55.3656   3
  -3   7  -3 699.043 45.0025   4
   3  -7   3 669.764 54.9124   6
   3  -7   4 57.7283 21.8091   6
  -3   7  -4 32.6646 16.0773   3
   3  -7   5 7.62104 16.2230   6
  -3   7  -5 47.4653 19.8777   3
   3  -6 -12 21.4862 16.2030   7
  -3   6  12 34.5223 19.4865   4
  -3   6  11 516.674 50.0578   4
   3  -6 -11 585.221 52.0011   7
   3  -6 -10 18.7921 13.1762   3
   3  -6 -10 22.6098 16.6160   7
  -3   6  10 19.4976 16.7021   4
   3  -6  -9 25.7455 13.1824   3
  -3   6   9 44.6009 19.6434   4
   3  -6  -9 36.2419 18.6217   7
   3  -6  -8 8.20956 12.6539   7
   3  -6  -8 17.2019 14.4914   6
  -3   6   8-20.8270 17.8291   4
  -3   6   7 380.652 36.8727   4
   3  -6  -7 357.328 35.4461   7
   3  -6  -7 357.760 36.0547   6
   3  -6  -6 945.272 53.1538   7
  -3   6   6 829.278 23.6489   5
  -3   6   6 992.095 56.1397   4
   3  -6  -6 961.617 53.7932   6
   3  -6  -5 142.552 23.3447   6
  -3   6   5 166.413 12.0402   5
   3  -6  -5 165.699 23.7770   7
  -3   6   5 155.688 26.0318   4
  -3   6   4 43.5836 17.8405   4
   3  -6  -4 55.3624 17.2579   6
   3  -6  -4 77.3053 18.1784   7
   3  -6  -3 543.914 35.4918   7
  -3   6   3 573.530 39.2431   4
   3  -6  -3 548.419 39.4455   6
   3  -6  -2 2158.93 64.6484   7
  -3   6   2 2141.93 70.5736   4
   3  -6  -2 1915.13 71.4271   6
  -3   6   1 408.204 32.9923   4
   3  -6  -1 420.201 36.7513   6
   3  -6  -1 407.821 28.0600   2
   3  -6  -1 438.940 28.0364   7
  -3   6   0 205.324 24.7428   4
   3  -6   0 179.000 25.6510   6
   3  -6   0 209.754 21.8081   2
  -3   6   0 202.386 26.0222   3
   3  -6   0 217.227 18.6750   7
  -3   6  -1 6.78540 12.1296   4
   3  -6   1 12.5887 14.4111   6
  -3   6  -1 15.1243 13.7953   3
   3  -6   1 22.7978 8.17093   7
  -3   6  -2 44.4960 14.4636   4
   3  -6   2 69.2857 20.5111   6
   3  -6   2 37.7298 6.04645   7
  -3   6  -2 43.3025 17.0233   3
  -3   6  -3 391.356 38.7041   3
  -3   6  -3 350.860 29.9145   4
   3  -6   3 394.717 40.5554   6
  -3   6  -4 220.556 31.4662   3
   3  -6   4 225.918 33.9672   6
  -3   6  -5 617.624 52.7688   3
   3  -6   5 549.339 51.1227   6
   3  -6   6 146.662 33.9058   6
  -3   6  -6 104.733 26.2453   3
   3  -6   7-44.0986 24.1016   6
  -3   6  -7-6.10211 18.9443   3
   3  -5 -12-5.37672 19.2785   7
  -3   5  12-7.91841 20.4866   4
   3  -5 -11 321.078 38.6097   7
  -3   5  11 237.084 34.0915   4
  -3   5  10 275.329 35.2165   4
   3  -5 -10 289.236 35.2211   7
   3  -5 -10 225.164 26.4304   3
   3  -5  -9 151.885 25.7986   7
   3  -5  -9 130.841 20.3370   3
  -3   5   9 156.641 26.5758   4
   3  -5  -8 11.1626 10.4812   3
  -3   5   8 4.98629 15.6585   4
   3  -5  -8 3.99542 12.8633   6
   3  -5  -8-9.43407 12.5349   7
  -3   5   7 111.633 22.2562   4
   3  -5  -7 104.630 21.6157   7
   3  -5  -7 72.8967 17.9843   6
  -3   5   6 626.904 43.6679   4
  -3   5   6 675.093 25.0832   5
   3  -5  -6 711.407 45.5596   7
   3  -5  -6 653.153 42.3658   6
   3  -5  -5 117.229 19.9574   6
  -3   5   5 97.6768 10.1137   5
   3  -5  -5 100.698 18.2290   7
  -3   5   5 106.791 21.0548   4
   3  -5  -4 12.0229 10.7893   7
  -3   5   4 13.2431 13.4428   4
   3  -5  -4 23.0945 10.7048   3
   3  -5  -4 4.24713 11.3653   6
  -3   5   3 29.0025 13.8599   4
   3  -5  -3 36.7970 11.1003   3
   3  -5  -3 34.9509 13.1380   6
   3  -5  -3 33.1027 12.1769   7
   3  -5  -2 2567.13 74.5497   6
  -3   5   2 2562.33 70.4705   4
   3  -5  -2 2515.73 65.7716   7
   3  -5  -1 863.696 36.2548   7
   3  -5  -1 830.487 38.5182   2
  -3   5   1 860.016 40.8981   4
   3  -5  -1 898.546 46.3960   6
  -3   5   0 1072.30 49.5610   3
   3  -5   0 951.650 41.6365   2
   3  -5   0 1058.50 51.8515   6
  -3   5   0 1049.46 44.6654   4
   3  -5   0 1032.33 35.9214   7
  -3   5  -1 5.34230 12.4753   3
  -3   5  -1 1.39480 11.4884   4
   3  -5   1 5.90646 11.9335   6
   3  -5   1 9.28728 5.88115   7
  -3   5  -2 909.799 51.1241   3
  -3   5  -2 874.982 43.0745   4
   3  -5   2 767.772 20.7076   7
   3  -5   2 865.620 51.0338   6
  -3   5  -3 293.770 32.6502   3
  -3   5  -3 278.431 26.2944   4
   3  -5   3 288.074 32.4231   6
  -3   5  -4 941.934 57.5549   3
   3  -5   4 888.403 56.4597   6
  -3   5  -5 17.3353 9.22426   1
  -3   5  -5 2.18858 18.0732   3
   3  -5   5 29.5894 17.9484   6
  -3   5  -6 856.436 60.9893   3
   3  -5   6 971.336 67.3472   6
   3  -5   7 16.6617 18.6924   6
  -3   5  -7 25.9927 18.4903   3
  -3   5  -8 102.403 26.9349   3
   3  -5   8 65.5916 24.1936   6
  -3   4  12 142.909 30.3642   4
   3  -4 -12 219.210 33.0657   7
  -3   4  11 1270.88 73.7498   4
   3  -4 -11 1480.29 77.2953   7
   3  -4 -10 886.914 48.4624   3
  -3   4  10 887.562 59.0545   4
   3  -4 -10 981.460 60.2475   7
   3  -4  -9 639.694 46.8806   7
   3  -4  -9 544.125 36.0711   3
  -3   4   9 629.277 47.9139   4
  -3   4   8 1873.05 76.8203   4
   3  -4  -8 1833.49 60.0592   3
   3  -4  -8 1966.88 77.4928   7
   3  -4  -7 1029.73 53.3980   6
   3  -4  -7 1036.44 54.4392   7
  -3   4   7 961.921 53.0614   4
   3  -4  -7 953.404 40.5629   3
  -3   4   6 356.644 21.0033   5
   3  -4  -6 324.697 30.7356   7
  -3   4   6 320.978 31.3723   4
   3  -4  -6 371.008 31.1917   6
  -3   4   5 293.072 17.7440   5
  -3   4   5 293.661 28.7928   4
   3  -4  -5 320.207 28.0658   7
   3  -4  -5 287.599 25.8417   6
   3  -4  -4 34.8681 11.2165   6
   3  -4  -4 28.7332 11.0491   7
  -3   4   4 37.2119 13.7273   4
  -3   4   4 38.3083 7.34249   5
   3  -4  -3 1072.43 37.9569   3
  -3   4   3 1139.27 46.0573   4
   3  -4  -3 1125.23 45.1117   7
   3  -4  -3 1011.05 42.8642   6
  -3   4   2 2368.13 64.7694   6
   3  -4  -2 2269.31 56.2935   3
   3  -4  -2 2290.00 59.6284   7
  -3   4   2 2263.66 61.1862   4
   3  -4  -2 2187.81 61.9476   6
  -3   4   1 371.913 25.1142   3
   3  -4  -1 367.720 24.6018   3
   3  -4  -1 365.736 25.1152   2
   3  -4  -1 361.661 24.0909   4
  -3   4   1 384.182 25.6822   4
   3  -4  -1 387.530 23.2395   7
   3  -4  -1 350.324 26.0921   6
  -3   4   0 169.020 18.3789   3
   3  -4   0 189.936 19.1105   2
   3  -4   0 178.710 16.5970   4
  -3   4   0 204.883 18.8772   4
   3  -4   0 204.378 15.5828   7
   3  -4   0 192.280 21.8586   6
  -3   4  -1 132.533 16.0026   4
   3  -4   1 126.589 19.2462   6
   3  -4   1 129.520 14.5869   4
   3  -4   1 126.778 10.5862   7
  -3   4  -1 128.897 18.6586   3
   3  -4   2 818.420 19.0093   7
   3  -4   2 936.836 48.5867   6
  -3   4  -2 912.229 46.6953   3
   3  -4   2 922.369 36.2567   4
  -3   4  -2 947.072 38.5553   4
  -3   4  -3-1.01889 8.87021   4
   3  -4   3 2.46763 12.3662   6
  -3   4  -3 0.13782 13.3162   3
   3  -4   3 1.14463 7.91600   4
  -3   4  -4 997.243 55.6689   3
   3  -4   4 1041.56 57.2187   6
   3  -4   4 956.146 39.3358   4
  -3   4  -5 89.9408 20.3969   3
   3  -4   5 95.4031 24.5549   6
  -3   4  -5 122.506 14.3934   1
   3  -4   6 391.250 40.5754   6
  -3   4  -6 420.033 41.7603   3
   3  -4   7 648.121 55.4531   6
  -3   4  -7 590.623 51.0130   3
   3  -4   8 286.238 40.3372   6
  -3   4  -8 248.173 36.5935   3
   3  -3 -13-33.9647 21.1559   7
  -3   3  12 110.683 26.2535   4
   3  -3 -12 127.558 25.4443   7
  -3   3  11 274.751 35.2488   4
   3  -3 -11 278.952 33.9651   7
   3  -3 -10 301.246 29.7116   3
  -3   3  10 279.757 34.6135   4
   3  -3 -10 306.654 33.7950   7
   3  -3  -9 47.7971 12.4770   3
   3  -3  -9 48.8182 16.5491   7
  -3   3   9 64.4313 19.7228   4
   3  -3  -8-4.81461 11.4334   3
   3  -3  -8 29.6601 13.9355   7
  -3   3   8 0.20939 13.8690   4
  -3   3   7 1775.35 69.6530   4
   3  -3  -7 1861.86 53.8581   3
   3  -3  -7 1827.45 69.7700   7
  -3   3   6 1147.96 53.7216   4
   3  -3  -6 1203.02 39.7145   3
  -3   3   6 1253.57 42.4170   5
   3  -3  -6 1308.79 56.2323   7
   3  -3  -5 115.384 16.8877   6
  -3   3   5 108.522 13.5402   5
   3  -3  -5 100.299 16.7853   7
  -3   3   5 107.992 18.0173   4
   3  -3  -4 21.9861 9.92362   6
  -3   3   4 28.7452 10.4032   6
  -3   3   4 30.4672 8.62489   5
  -3   3   4 26.7740 12.3278   4
   3  -3  -4 30.3420 11.6535   7
  -3   3   3-7.87845 8.67215   6
  -3   3   3 8.84982 9.99328   4
   3  -3  -3 2.41360 8.30871   7
   3  -3  -3-1.18509 8.28789   6
  -3   3   3 12.5736 9.78994   2
   3  -3  -3 5.42555 5.74909   3
   3  -3  -3 0.90668 7.72757   4
  -3   3   3 5.54654 7.72085   7
   3  -3  -2 3983.59 74.5013   7
   3  -3  -2 3939.78 62.2276   3
  -3   3   2 3894.18 71.8446   7
  -3   3   2 4084.99 77.5225   2
   3  -3  -2 3917.50 74.2703   4
  -3   3   2 3911.46 74.3438   4
   3  -3  -2 3931.66 71.8583   6
  -3   3   2 3874.33 72.2833   6
   3  -3  -1 3001.76 58.7004   3
   3  -3  -1 2935.50 65.2425   2
   3  -3  -1 2851.67 59.7076   4
  -3   3   1 2966.09 60.1118   4
  -3   3   1 2974.83 57.9462   7
   3  -3  -1 2905.30 58.3126   7
  -3   3   1 3014.57 65.2663   6
  -3   3   1 2953.72 58.1115   3
   3  -3  -1 3028.78 64.7580   6
  -3   3   0 5778.25 94.1178   6
  -3   3   0 5684.28 87.9949   3
   3  -3   0 5672.60 87.8058   3
   3  -3   0 5592.45 78.0901   4
  -3   3   0 5734.89 79.0856   4
   3  -3   0 5486.11 71.9349   7
   3  -3   0 5674.23 92.7079   6
  -3   3  -1 823.292 39.1006   6
  -3   3  -1 745.122 35.6789   3
   3  -3   1 718.755 22.8307   7
   3  -3   1 722.925 34.5957   3
   3  -3   1 740.432 27.5921   4
  -3   3  -1 740.299 28.4509   4
   3  -3   1 763.563 37.4481   6
  -3   3  -2 4417.63 91.6480   3
  -3   3  -2 4406.71 69.3749   4
   3  -3   2 4591.06 67.3147   4
   3  -3   2 4649.61 95.5709   6
   3  -3   3 1290.81 55.1540   6
  -3   3  -3 1217.37 38.1285   4
   3  -3   3 1215.06 36.0593   4
  -3   3  -3 1272.33 54.1619   3
   3  -3   4 377.861 33.4436   6
  -3   3  -4 421.150 35.1172   3
   3  -3   4 399.348 22.4117   4
   3  -3   5 186.573 27.1273   6
   3  -3   5 175.142 16.6226   4
  -3   3  -5 168.868 13.6018   1
  -3   3  -5 179.274 26.9363   3
  -3   3  -6 484.801 42.5979   3
   3  -3   6 443.658 41.6031   6
  -3   3  -6 423.593 18.9601   1
   3  -3   7 1088.13 67.5467   6
  -3   3  -7 1016.41 63.6885   3
   3  -3   8 480.795 47.8539   6
  -3   3  -8 514.488 48.5612   3
   3  -3   9 112.339 29.2958   6
  -3   3  -9 135.186 32.5393   3
  -3   2  12 179.433 33.0451   4
   3  -2 -12 35.7344 11.6312   7
  -3   2  11 353.451 40.2437   4
   3  -2 -11 377.876 38.0868   7
   3  -2 -10 515.493 36.6323   3
  -3   2  10 588.917 48.4410   4
   3  -2 -10 624.401 46.5899   7
   3  -2  -9 6.98479 9.05361   7
  -3   2   9 16.1406 14.8579   4
   3  -2  -9-8.71785 9.67753   3
   3  -2  -8 38.6867 13.1497   7
  -3   2   8 35.9126 15.5658   4
   3  -2  -8 20.6648 9.83127   3
  -3   2   7 826.711 49.1176   4
   3  -2  -7 813.369 35.3526   3
   3  -2  -7 844.005 46.6577   7
   3  -2  -6 1632.84 44.1525   3
  -3   2   6 1651.24 62.8299   4
   3  -2  -6 1770.16 63.3493   7
   3  -2  -5 3970.80 88.8861   7
  -3   2   5 3888.49 89.8978   4
   3  -2  -5 3892.33 59.4935   3
  -3   2   5 3821.66 73.3195   5
  -3   2   4 9.88570 7.05911   6
   3  -2  -4 17.2296 5.70661   3
  -3   2   4 17.7509 8.20445   5
  -3   2   4-3.68992 10.8699   4
   3  -2  -4 12.7534 8.78883   7
   3  -2  -4 24.6903 10.0799   6
   3  -2  -3 63.8343 11.3474   6
  -3   2   3 67.3083 13.2972   4
  -3   2   3 63.5281 11.7244   6
   3  -2  -3 55.9532 12.1275   7
  -3   2   3 53.5637 9.55859   5
  -3   2   3 55.5730 12.1373   2
  -3   2   3 52.1380 10.9905   7
   3  -2  -3 62.0282 12.2500   4
   3  -2  -2 1886.13 33.1068   3
   3  -2  -2 1896.86 43.3982   6
  -3   2   2 1900.19 51.2865   2
  -3   2   2 1946.98 45.1967   6
  -3   2   2 1878.11 48.6923   4
  -3   2   2 1852.07 48.0925   7
   3  -2  -2 1862.64 49.7080   7
   3  -2  -2 1924.27 49.7426   4
  -3   2   1 1675.28 35.4269   3
   3  -2  -1 1637.45 34.9156   3
   3  -2  -1 1667.59 47.4841   2
   3  -2  -1 1641.09 42.5953   7
   3  -2  -1 1705.22 42.7960   4
  -3   2   1 1685.68 42.0638   4
  -3   2   1 1627.74 41.8156   7
   3  -2  -1 1713.21 41.4066   6
  -3   2   1 1670.41 41.1355   6
  -3   2   0 678.503 27.0060   3
   3  -2   0 654.422 25.7371   3
   3  -2   0 677.801 24.9011   4
  -3   2   0 683.545 24.3481   4
   3  -2   0 653.460 24.7486   7
  -3   2   0 693.059 24.6079   7
   3  -2   0 709.922 28.2870   6
  -3   2   0 686.963 28.2952   6
   3  -2   1 96.7009 9.27265   7
   3  -2   1 100.655 13.6992   6
  -3   2  -1 115.930 14.4439   6
   3  -2   1 101.729 9.51893   4
  -3   2  -1 112.817 10.4525   4
  -3   2  -1 109.792 9.29259   7
   3  -2   1 109.710 13.4459   3
  -3   2  -1 113.728 14.4088   3
  -3   2  -2 2450.61 61.8432   3
  -3   2  -2 2539.07 41.9875   4
   3  -2   2 2532.88 62.3479   3
   3  -2   2 2539.63 39.8953   4
   3  -2   2 2594.76 64.9708   6
  -3   2  -2 2418.48 32.2922   7
   3  -2   3 603.250 35.4166   6
  -3   2  -3 573.505 34.3927   3
   3  -2   3 606.405 20.2729   4
  -3   2  -4 2100.31 68.8529   3
   3  -2   4 2338.29 75.0768   6
   3  -2   4 2192.92 41.1473   4
   3  -2   5 14.9877 6.14710   4
   3  -2   5 31.3685 16.9471   6
  -3   2  -5 26.7453 4.94712   1
  -3   2  -5 21.5550 15.2228   3
   3  -2   6 44.2959 10.1184   4
   3  -2   6 50.5050 19.9518   6
  -3   2  -6 31.9128 17.8391   3
   3  -2   7 961.711 60.8278   6
  -3   2  -7 996.865 59.2973   3
   3  -2   7 913.056 36.5974   4
   3  -2   8 272.670 37.2209   6
  -3   2  -8 297.326 36.4123   3
   3  -2   9 211.447 36.7213   6
  -3   2  -9 184.351 33.2895   3
   3  -2  10 9.88646 21.3011   6
  -3   2 -10-31.7439 21.3984   3
  -3   1  12 30.6943 19.1105   4
   3  -1 -11 396.302 38.5270   7
  -3   1  11 367.849 42.4472   4
   3  -1 -10 312.091 30.2720   3
  -3   1  10 352.194 38.6869   4
   3  -1 -10 305.306 33.1319   7
   3  -1  -9 61.4296 16.3054   7
  -3   1   9 43.7229 18.9169   4
   3  -1  -9 20.0676 9.32366   3
   3  -1  -8 303.883 30.1454   7
   3  -1  -8 242.097 22.4473   3
  -3   1   8 295.932 33.3653   4
  -3   1   7 82.2119 18.2019   4
   3  -1  -7 129.802 21.0570   7
   3  -1  -7 103.602 15.5655   3
   3  -1  -6 43.7987 13.9749   7
  -3   1   6 35.5440 13.4753   4
   3  -1  -6 37.9824 9.46747   3
  -3   1   5 571.032 31.4563   6
  -3   1   5 567.018 31.4981   5
   3  -1  -5 587.099 23.6485   3
  -3   1   5 615.428 36.9850   4
   3  -1  -5 556.385 33.4428   7
  -3   1   4 389.185 24.2413   5
   3  -1  -4 409.652 24.1072   5
   3  -1  -4 429.603 16.2938   3
  -3   1   4 400.703 28.9008   4
  -3   1   4 429.524 26.9066   1
   3  -1  -4 417.482 27.3916   7
  -3   1   4 422.296 24.3552   6
  -3   1   3 172.984 15.8405   5
   3  -1  -3 182.082 17.9203   7
  -3   1   3 165.804 18.2830   4
   3  -1  -3 158.775 7.27727   3
  -3   1   3 180.153 17.3989   7
  -3   1   3 208.137 18.4858   1
  -3   1   3 191.343 14.7943   6
   3  -1  -2 79.6254 9.14676   6
   3  -1  -2 86.2544 12.2643   7
  -3   1   2 74.2506 10.7945   5
  -3   1   2 94.8929 12.9903   2
  -3   1   2 74.7755 8.68686   6
  -3   1   2 68.5865 11.0298   1
  -3   1   2 66.0270 10.6922   7
  -3   1   2 77.3287 12.4860   4
   3  -1  -1 5425.54 44.0378   3
   3  -1  -1 5389.43 76.4796   7
  -3   1   1 5483.86 44.8051   3
   3  -1  -1 5616.70 82.2862   2
  -3   1   1 5557.52 81.2903   2
   3  -1  -1 5682.06 75.9072   4
  -3   1   1 5483.93 73.6373   4
  -3   1   1 5522.51 77.9495   1
  -3   1   1 5468.74 75.0740   7
   3  -1  -1 5530.60 56.7756   6
  -3   1   1 5458.70 58.8116   6
  -3   1   0 776.364 24.3123   6
  -3   1   0 782.497 23.4336   3
  -3   1   0 754.891 25.9099   7
   3  -1   0 773.496 22.6670   3
   3  -1   0 775.354 24.4824   4
  -3   1   0 784.937 24.1374   4
   3  -1   0 784.425 23.6359   6
   3  -1   0 736.566 26.6893   7
   3  -1   1 178.596 14.6101   6
  -3   1  -1 200.546 15.1001   6
  -3   1  -1 187.105 15.2914   3
   3  -1   1 176.999 10.2128   4
   3  -1   1 191.935 14.5158   3
  -3   1  -1 185.297 10.2582   4
   3  -1   1 177.753 12.6224   7
  -3   1  -1 197.105 12.5788   7
   3  -1   2 1440.54 43.3379   6
  -3   1  -2 1357.19 42.1685   3
   3  -1   2 1415.58 42.3918   3
   3  -1   2 1256.78 20.0871   4
  -3   1  -2 1233.49 20.5317   4
  -3   1  -2 1353.58 28.2665   7
  -3   1  -3 236.580 21.5875   3
   3  -1   3 225.916 19.9834   3
   3  -1   3 252.584 21.9230   6
   3  -1   3 190.754 7.28236   4
  -3   1  -3 190.008 10.1316   7
   3  -1   4 680.599 38.4278   6
  -3   1  -4 622.602 36.2770   3
   3  -1   4 549.520 15.0390   4
  -3   1  -4 558.006 16.5480   7
  -3   1  -4 522.975 13.7416   1
  -3   1  -5 1444.02 59.0762   3
   3  -1   5 1257.64 28.4964   4
  -3   1  -5 1399.69 25.0730   7
   3  -1   5 1278.20 28.7654   4
   3  -1   6 268.467 15.8001   4
  -3   1  -6 287.284 31.0736   3
  -3   1  -6 260.479 11.7395   7
   3  -1   6 288.170 16.8055   4
   3  -1   7 36.5155 8.76332   4
  -3   1  -7 19.9403 12.5079   3
  -3   1  -7 24.1587 4.59204   7
   3  -1   8 703.703 53.8604   6
  -3   1  -8 716.691 51.6945   3
   3  -1   9 35.8459 19.8910   6
  -3   1  -9 33.1665 19.2920   3
   3  -1  10 23.8930 19.6172   6
  -3   1 -10 16.6526 15.1484   3
  -3   0  12 17.6794 19.6774   4
  -3   0  11 222.513 33.8650   4
   3   0 -10 166.304 25.4166   7
  -3   0  10 155.155 28.9620   4
   3   0  -9 1108.33 53.2882   3
   3   0  -9 1083.95 56.1684   7
  -3   0   9 1099.81 65.1355   4
   3   0  -8 15.8304 9.46816   7
   3   0  -8 4.19003 9.56091   3
  -3   0   8 2.13967 13.3388   4
   3   0  -7 227.970 20.8722   3
  -3   0   7 227.042 28.6275   4
   3   0  -7 242.035 25.4099   7
   3   0  -6 221.106 19.1637   3
   3   0  -6 214.890 22.5865   7
  -3   0   6 234.923 19.2212   3
  -3   0   6 190.102 24.2354   4
   3   0  -5 2607.79 53.2345   3
  -3   0   5 2552.24 75.2563   4
   3   0  -5 2627.90 70.4664   7
  -3   0   5 2593.20 52.0233   3
  -3   0   4 490.758 29.0567   1
   3   0  -4 427.003 26.9854   1
  -3   0   4 407.412 27.1545   5
   3   0  -4 447.765 27.2692   5
   3   0  -4 442.415 18.7120   3
  -3   0   4 432.693 29.7375   4
  -3   0   4 425.784 17.8649   3
   3   0  -4 454.285 28.1921   7
  -3   0   4 456.232 24.9424   6
   3   0  -3 1910.12 28.9655   3
  -3   0   3 1922.25 53.4438   5
   3   0  -3 2059.62 53.2532   5
  -3   0   3 1992.32 53.0981   7
  -3   0   3 1914.85 28.3335   3
   3   0  -3 1995.39 54.2499   7
   3   0  -3 1970.49 53.7570   1
  -3   0   3 2014.31 43.5694   6
  -3   0   3 2100.20 55.0725   1
   3   0  -2 3775.71 69.6830   7
  -3   0   2 3819.13 68.7021   2
  -3   0   2 3721.99 67.4978   5
  -3   0   2 3852.87 70.2510   1
   3   0  -2 3646.22 68.2630   1
  -3   0   2 3617.05 66.8013   7
  -3   0   2 3774.64 47.0726   6
   3   0  -1 1903.39 46.1143   2
  -3   0   1 1861.37 24.2854   6
  -3   0   1 1877.53 45.5334   7
  -3   0   1 1998.78 46.7237   2
   3   0  -1 1864.87 46.3367   7
   3   0  -1 1875.89 46.1306   1
   3   0  -1 1932.27 24.0398   6
  -3   0   1 1920.66 46.8580   1
  -3   0   0 2116.22 26.3512   6
   3   0   0 2072.92 24.3891   6
   3   0   0 2235.24 47.8631   7
   3   0   0 2240.53 49.1228   2
  -3   0   0 2161.11 31.8736   3
  -3   0   0 2199.41 45.8425   7
   3   0   0 2155.76 45.8376   1
  -3   0   0 2277.31 47.0176   1
  -3   0  -1 25.7622 7.43491   3
  -3   0  -1 35.5139 7.51390   1
  -3   0  -1 37.8184 7.55556   7
   3   0   1 44.6115 7.94471   3
   3   0   1 30.5722 6.75479   6
   3   0   1 33.2255 7.50393   1
  -3   0  -1 31.4945 5.43353   4
  -3   0  -2 289.974 14.2851   1
  -3   0  -2 270.927 18.8713   3
   3   0   2 292.611 18.5607   3
  -3   0  -3 161.021 9.31160   1
  -3   0  -3 156.036 17.0395   3
   3   0   3 193.931 17.9206   3
  -3   0  -4 83.3826 15.1160   3
   3   0   5 10.6700 3.20893   4
   3   0   5 7.33331 3.17263   4
  -3   0  -5 5.48676 11.0384   3
  -3   0  -6 434.619 35.0822   3
   3   0   6 353.851 15.6612   4
   3   0   6 337.371 16.0541   4
  -3   0  -7 959.268 55.2149   3
   3   0   7 821.986 27.7502   4
  -3   0  -7 944.263 30.9404   7
   3   0   7 863.235 28.9548   4
   3   0   8 170.848 15.2540   4
  -3   0  -8 154.409 14.0039   7
  -3   0  -8 180.319 29.5340   3
  -3   0  -9 48.8156 19.1288   3
  -3   0 -10 164.345 29.3658   3
  -3   0 -11 18.2871 19.6968   3
  -3  -1  11 10.7427 18.3462   4
  -3  -1  10 111.227 25.9835   4
  -3  -1   9 187.752 28.2053   4
   3   1  -9 255.138 28.4480   7
   3   1  -9 213.880 26.1505   3
   3   1  -8 157.966 21.5832   7
  -3  -1   8 226.132 31.3561   4
   3   1  -8 182.786 23.5063   3
  -3  -1   7 1452.66 67.8881   4
   3   1  -7 1450.70 54.7248   3
   3   1  -7 1441.55 58.2269   7
   3   1  -6 5.25890 10.7543   1
   3   1  -6 2.22464 9.07595   3
   3   1  -6 2.25417 7.78422   7
   3   1  -5 675.833 31.1429   3
   3   1  -5 676.270 36.2796   1
  -3  -1   5 713.994 30.9237   3
   3   1  -5 700.627 37.0737   7
  -3  -1   4 2642.65 70.7882   5
   3   1  -4 2518.07 51.6292   3
  -3  -1   4 2427.60 49.1825   3
   3   1  -4 2503.41 65.7832   7
   3   1  -4 2356.44 64.0651   1
  -3  -1   3 2226.05 58.4762   1
   3   1  -3 2142.09 41.1046   3
  -3  -1   3 2142.59 59.4314   5
   3   1  -3 2158.27 58.7709   5
  -3  -1   3 2174.88 56.6446   7
  -3  -1   3 2172.36 40.4332   3
   3   1  -3 2079.45 57.9146   1
   3   1  -3 2182.75 58.2643   7
   3   1  -2 911.069 36.2683   1
  -3  -1   2 997.820 37.4796   1
  -3  -1   2 994.482 35.1643   2
  -3  -1   2 924.820 36.3154   5
  -3  -1   2 963.622 23.3083   3
   3   1  -2 987.882 36.8971   5
   3   1  -2 982.946 37.2956   7
  -3  -1   2 953.990 36.0629   7
  -3  -1   1 7843.12 52.5936   6
  -3  -1   1 8592.34 102.504   1
  -3  -1   1 8277.18 61.2184   3
  -3  -1   1 8229.93 97.6039   5
  -3  -1   1 8315.15 92.5971   2
  -3  -1   1 8219.77 98.7876   7
   3   1  -1 8166.12 100.143   7
   3   1  -1 7942.28 101.287   1
   3   1   0 3656.53 63.4422   1
  -3  -1   0 3799.95 63.4820   1
   3   1   0 3820.60 59.9418   2
  -3  -1   0 3819.57 65.7876   7
  -3  -1  -1 327.720 17.9906   1
   3   1   1 341.412 11.3242   6
   3   1   1 327.915 18.4154   1
  -3  -1  -2 3260.92 50.3064   1
  -3  -1  -2 3123.14 58.1115   3
  -3  -1  -2 3164.53 37.7144   4
   3   1   2 3218.32 50.3474   1
   3   1   3 3.39056 4.26945   1
  -3  -1  -3 2.88320 2.24248   4
  -3  -1  -3 5.00242 8.44885   3
  -3  -1  -3 3.09406 4.68187   1
   3   1   4 358.572 12.3609   1
  -3  -1  -4 388.432 26.7409   3
   3   1   4 276.593 10.0086   4
  -3  -1  -5 76.9245 15.4912   3
   3   1   5 56.2758 5.92942   4
  -3  -1  -6 37.5487 15.0100   3
   3   1   6 32.0907 6.33141   4
  -3  -1  -7 1063.84 55.5583   3
   3   1   7 959.104 29.1169   4
  -3  -1  -8 1803.59 76.0494   3
   3   1   8 1758.39 43.9177   4
  -3  -1  -8 1928.36 54.1342   7
  -3  -1  -9 332.460 36.9992   3
  -3  -1  -9 236.117 20.6619   7
  -3  -1 -10-4.82487 14.9378   3
  -3  -1 -11 86.2835 23.6054   3
  -3  -2  11 451.178 49.5148   4
  -3  -2  10 198.259 34.2095   6
  -3  -2  10 134.653 28.4295   4
   3   2  -9 821.085 51.2086   3
  -3  -2   9 781.797 58.3521   4
  -3  -2   9 889.308 62.2423   6
   3   2  -9 697.152 45.2974   7
  -3  -2   8 209.388 30.3910   6
   3   2  -8 223.790 25.2432   7
   3   2  -8 190.849 24.6741   3
  -3  -2   7 339.651 34.6108   6
   3   2  -7 301.933 28.0537   3
   3   2  -7 289.983 27.0651   7
   3   2  -7 308.781 28.6823   1
  -3  -2   6 873.758 48.7951   6
   3   2  -6 786.321 40.5461   3
   3   2  -6 842.155 42.9946   7
   3   2  -6 775.509 43.1887   1
   3   2  -5 2213.96 66.0245   7
   3   2  -5 2148.43 60.1997   3
   3   2  -5 2168.87 68.7138   1
  -3  -2   5 2201.22 59.8473   3
  -3  -2   5 2187.10 69.6797   6
   3   2  -4 8.39425 7.88519   3
   3   2  -4 12.9796 10.2116   1
   3   2  -4 6.41166 8.96568   7
  -3  -2   4 6.01458 9.05858   6
  -3  -2   4 8.58607 6.61081   3
   3   2  -3 2257.48 51.0117   3
  -3  -2   3 2196.26 64.8485   5
  -3  -2   3 2237.47 50.1623   3
  -3  -2   3 2235.95 58.9910   7
   3   2  -3 2208.00 60.1229   7
  -3  -2   3 2226.30 55.5260   6
   3   2  -3 2218.76 63.3956   1
  -3  -2   2 2822.69 53.1937   6
  -3  -2   2 2975.56 69.4678   5
  -3  -2   2 2995.36 53.4857   3
   3   2  -2 2966.34 68.4513   5
  -3  -2   2 2972.44 65.2883   7
  -3  -2   2 3038.15 68.8180   1
   3   2  -2 2896.86 69.5093   1
  -3  -2   1 56.7940 11.1634   5
   3   2  -1 69.7212 11.3882   5
  -3  -2   1 69.0584 11.7806   1
   3   2  -1 50.9669 12.1536   1
  -3  -2   1 58.1112 8.87431   2
  -3  -2   1 72.0470 9.49543   3
  -3  -2   1 42.7526 9.31220   7
  -3  -2   1 54.3053 7.50268   6
   3   2   0 749.714 18.3126   6
   3   2   0 775.059 32.9995   1
   3   2   0 841.196 26.4446   2
  -3  -2   0 803.993 31.1880   5
  -3  -2   0 806.352 18.3490   6
  -3  -2   0 818.138 32.7034   1
  -3  -2   0 773.035 32.8337   7
  -3  -2   0 784.116 31.9909   4
  -3  -2  -1 9.98019 4.69378   6
   3   2   1 5.78621 4.32650   6
  -3  -2  -1 4.13969 7.45741   1
  -3  -2  -1 8.43431 6.41684   4
   3   2   1 1.86133 7.04174   1
  -3  -2  -2 2361.89 44.3322   4
   3   2   2 2543.37 42.1110   6
   3   2   2 2520.83 51.4046   1
  -3  -2  -2 2652.86 52.0313   1
   3   2   2 2550.95 47.3168   4
   3   2   3 1113.32 29.2492   4
   3   2   3 1122.37 32.4078   1
  -3  -2  -3 1172.18 27.7425   4
   3   2   3 1127.18 34.4694   6
   3   2   4 2413.65 43.2760   1
   3   2   4 2308.82 39.9748   4
  -3  -2  -4 2517.48 39.2384   4
  -3  -2  -4 2453.49 63.9772   3
   3   2   4 2499.66 58.9631   6
   3   2   5 762.892 21.9217   1
  -3  -2  -5 786.665 23.9997   4
  -3  -2  -5 719.838 39.1006   3
   3   2   5 720.043 23.1559   4
  -3  -2  -6 794.389 26.8249   4
  -3  -2  -6 754.106 43.4302   3
   3   2   6 776.901 25.7697   4
   3   2   6 643.417 16.6009   1
  -3  -2  -7 2267.14 78.4583   3
   3   2   7 2137.44 46.5716   4
  -3  -2  -8 5380.24 127.988   3
   3   2   8 5229.62 79.1841   4
  -3  -2  -9 2595.05 94.7766   3
   3   2   9 2383.16 58.2542   4
  -3  -2  -9 2497.97 70.4247   7
  -3  -2 -10 312.406 37.9445   3
  -3  -2 -10 316.725 27.1643   7
  -3  -2 -11 73.1466 21.5208   3
  -3  -2 -12 197.156 35.9885   3
  -3  -3  10 456.540 50.9135   6
  -3  -3  10 349.395 43.5058   4
  -3  -3   9 615.278 54.2899   6
   3   3  -9 566.710 45.2372   3
  -3  -3   8-23.8412 20.7426   6
   3   3  -8-59.2532 15.1725   1
   3   3  -8-0.05588 12.2691   3
  -3  -3   7 66.1193 19.6573   6
   3   3  -7 17.1540 11.1239   3
   3   3  -7 16.8535 9.22763   1
  -3  -3   6 274.292 30.1950   6
   3   3  -6 278.251 27.2198   3
   3   3  -6 238.070 26.2691   1
   3   3  -5 87.6525 15.9863   3
   3   3  -5 72.4423 15.3995   1
  -3  -3   5 83.4556 16.7669   6
   3   3  -4 1155.22 51.7164   1
  -3  -3   4 1107.86 48.0709   6
   3   3  -4 1118.23 45.2634   3
  -3  -3   3 583.356 31.9386   6
   3   3  -3 567.129 35.6068   1
   3   3  -3 569.425 30.3735   3
  -3  -3   3 604.002 31.1369   3
   3   3  -2 1197.31 48.3099   1
  -3  -3   2 1238.49 48.5107   5
  -3  -3   2 1217.06 41.3415   3
  -3  -3   2 1252.08 45.3897   7
  -3  -3   2 1183.17 39.7645   6
   3   3  -1 5494.50 76.4139   6
   3   3  -1 5212.14 95.8081   1
  -3  -3   1 5431.18 93.6879   5
   3   3  -1 5490.98 93.1552   5
  -3  -3   1 5598.91 69.1600   2
  -3  -3   1 5399.42 95.1570   1
  -3  -3   1 5569.20 82.4708   3
  -3  -3   1 5563.45 93.6670   7
  -3  -3   1 5319.79 74.1952   6
   3   3   0 1263.41 32.9176   6
  -3  -3   0 1323.88 43.4674   5
   3   3   0 1291.52 46.0405   1
   3   3   0 1356.18 43.0152   5
  -3  -3   0 1364.35 46.0685   4
  -3  -3   0 1368.97 46.9306   1
  -3  -3   0 1308.62 32.8923   6
  -3  -3  -1 382.519 21.9604   5
   3   3   1 390.343 25.1151   1
  -3  -3  -1 382.634 17.6163   6
  -3  -3  -1 407.423 24.5016   4
   3   3   1 368.064 17.3213   6
  -3  -3  -2 1436.18 40.1302   5
   3   3   2 1502.51 36.2789   6
  -3  -3  -2 1491.49 41.7895   4
   3   3   2 1503.80 45.6422   1
   3   3   2 1496.03 43.1463   4
  -3  -3  -2 1399.27 36.4566   6
   3   3   3 2319.32 54.6631   1
  -3  -3  -3 2388.77 49.7345   4
  -3  -3  -3 2199.28 50.9934   6
   3   3   3 2329.78 52.4073   4
   3   3   3 2369.84 51.4885   6
   3   3   4 891.683 32.4747   1
   3   3   4 855.794 31.3943   4
  -3  -3  -4 868.533 29.6964   4
   3   3   4 907.056 35.3831   6
  -3  -3  -5 140.241 18.6270   3
   3   3   5 133.703 13.1082   1
  -3  -3  -5 115.679 12.1529   4
   3   3   5 123.312 13.5616   4
  -3  -3  -6 120.280 20.4807   3
   3   3   6 140.134 12.2967   1
  -3  -3  -6 126.086 13.2798   4
   3   3   6 130.007 14.3035   4
  -3  -3  -7 3.54049 11.6442   3
  -3  -3  -7-18.4948 8.30158   4
   3   3   7-6.84850 5.92996   1
   3   3   7 6.61146 9.17518   4
   3   3   8 6.12406 3.33787   1
  -3  -3  -8-12.9968 14.0356   3
   3   3   8 8.62068 9.45434   4
  -3  -3  -9 1171.53 64.9031   3
   3   3   9 1085.91 42.2208   4
  -3  -3 -10 208.068 30.8522   3
  -3  -3 -10 209.563 24.5024   7
  -3  -3 -11 13.9086 16.8371   3
  -3  -3 -12 64.1136 22.0774   3
  -3  -4   9 317.900 41.7680   6
  -3  -4   8-9.06169 21.1052   6
   3   4  -8 30.9039 13.3942   3
   3   4  -7 50.1544 14.7575   1
  -3  -4   7 109.704 23.8110   6
   3   4  -7 88.7344 20.3994   3
   3   4  -6 169.303 22.8043   1
  -3  -4   6 192.759 27.0559   6
   3   4  -6 180.910 23.9836   3
   3   4  -5 225.404 26.3443   1
   3   4  -5 244.558 25.8496   3
  -3  -4   5 229.426 26.9801   6
  -3  -4   4 30.9917 14.0358   6
   3   4  -4 30.6355 14.0496   1
   3   4  -4 38.1143 14.1415   3
   3   4  -3 52.2300 12.8555   3
  -3  -4   3 44.3831 12.9815   6
   3   4  -3 45.8809 14.9128   1
   3   4  -2 1841.37 64.3671   1
  -3  -4   2 1844.93 56.2356   6
   3   4  -1 1003.58 38.9113   6
  -3  -4   1 973.135 40.3032   3
  -3  -4   1 984.716 43.6887   5
   3   4  -1 944.010 44.9253   1
  -3  -4   1 950.953 26.9000   2
  -3  -4   1 955.398 37.2885   6
  -3  -4   0 6487.42 99.6961   3
  -3  -4   0 6565.29 104.610   5
   3   4   0 6448.82 89.9637   6
  -3  -4   0 6461.76 88.5959   6
   3   4   0 6413.82 100.754   5
   3   4   0 6233.53 111.787   1
  -3  -4  -1 842.118 34.9810   5
   3   4   1 821.067 21.3745   2
   3   4   1 885.708 34.9682   5
   3   4   1 833.793 39.4729   1
   3   4   1 828.315 39.8398   4
  -3  -4  -1 854.009 31.5288   6
   3   4   1 838.605 31.3142   6
  -3  -4  -2 28.5452 10.4869   4
  -3  -4  -2 7.07975 6.72385   6
   3   4   2 15.6252 9.76879   4
   3   4   2 9.52220 6.33671   6
  -3  -4  -2 9.01941 6.46203   5
   3   4   2 21.9161 10.8081   1
  -3  -4  -3 3127.78 57.6850   5
   3   4   3 3061.99 69.1966   4
   3   4   3 3141.52 71.5092   1
  -3  -4  -3 3073.95 66.9854   4
  -3  -4  -3 3041.27 64.7620   6
   3   4   3 3177.52 64.1018   6
   3   4   4 738.696 34.0904   6
  -3  -4  -4 726.408 35.1547   6
  -3  -4  -4 788.675 33.2962   4
   3   4   4 761.552 35.1904   1
   3   4   4 783.307 34.7510   4
   3   4   5 795.906 35.1107   4
  -3  -4  -5 776.716 32.8825   4
   3   4   5 840.479 35.8093   1
   3   4   6 17.0156 9.25353   1
  -3  -4  -6 24.6948 8.81083   4
   3   4   6 30.6556 11.5790   4
   3   4   7 127.976 16.5899   4
  -3  -4  -7 126.601 22.9142   3
   3   4   7 139.315 15.3981   1
  -3  -4  -7 113.050 15.5356   4
  -3  -4  -8 490.840 41.2936   3
   3   4   8 505.703 24.8499   1
   3   4   8 492.324 30.2881   4
  -3  -4  -9 54.2978 18.1484   3
   3   4   9 84.2019 15.0422   4
  -3  -4 -10 11.9254 13.3051   3
  -3  -4 -11 488.573 48.4099   3
  -3  -4 -11 477.366 38.7448   7
  -3  -4 -12-33.3371 20.1914   3
  -3  -5   8 225.947 34.8688   6
   3   5  -8 233.004 32.3198   3
   3   5  -7 22.2261 11.3918   1
   3   5  -7 56.0888 18.2795   3
  -3  -5   7 85.4299 24.7376   6
  -3  -5   6 133.159 27.1253   6
   3   5  -6 107.635 22.0251   1
   3   5  -6 118.252 22.6158   3
  -3  -5   5 233.863 28.1258   6
   3   5  -5 160.859 22.7756   1
   3   5  -5 199.630 25.8892   3
  -3  -5   4 34.5583 14.7902   6
   3   5  -4 19.4533 13.3657   3
   3   5  -4 10.5414 11.3969   1
   3   5  -3 543.799 39.5515   1
  -3  -5   3 526.928 36.8758   6
  -3  -5   2 1484.47 38.2886   2
   3   5  -2 1424.26 61.1709   1
  -3  -5   2 1436.77 55.3727   6
   3   5  -1 235.206 26.5224   1
  -3  -5   1 228.089 22.0128   6
   3   5   0 1256.75 46.1400   6
   3   5   0 1215.13 53.7545   1
  -3  -5   0 1314.11 47.3542   6
   3   5   1 464.042 27.5540   6
   3   5   1 414.227 32.4791   4
   3   5   1 392.828 26.3410   5
   3   5   1 461.592 33.4851   1
  -3  -5  -1 410.317 26.6973   5
  -3  -5  -1 436.393 27.0538   6
   3   5   2 92.7476 16.1890   4
   3   5   2 93.1262 13.6443   6
   3   5   2 82.5349 16.3279   1
  -3  -5  -2 88.1086 14.0490   6
  -3  -5  -2 88.8577 13.8424   5
  -3  -5  -3 18.0099 8.91267   6
   3   5   3 20.2943 11.5874   1
  -3  -5  -3 23.2010 7.90107   5
   3   5   3 19.0856 11.9244   4
   3   5   3 33.6941 10.7145   6
  -3  -5  -4 129.801 17.8988   6
   3   5   4 125.467 17.6462   4
  -3  -5  -4 131.615 13.2522   5
   3   5   4 131.426 18.3017   1
   3   5   5 169.985 20.7792   4
  -3  -5  -5 160.390 21.3410   6
  -3  -5  -5 166.031 13.8057   5
   3   5   6 342.650 26.4956   4
  -3  -5  -6 311.393 29.7103   6
   3   5   7 486.881 32.1472   4
   3   5   8 27.9428 13.6429   4
  -3  -5  -8 9.20057 13.6867   3
  -3  -5  -9 837.402 56.3184   3
   3   5   9 797.265 42.0275   4
   3   5   9 793.645 35.6211   1
  -3  -5 -10 14.0503 13.5635   3
   3   5  10 16.0259 11.6415   4
  -3  -5 -11 40.6519 17.4185   3
  -3  -5 -11 17.0043 12.9117   7
  -3  -5 -12 174.592 31.0164   3
  -3  -5 -12 210.707 29.1580   7
  -3  -6   8 121.631 28.5558   6
  -3  -6   7 42.8724 22.9808   6
   3   6  -7-27.0055 18.0364   3
   3   6  -6 258.206 33.1113   1
  -3  -6   6 227.558 33.9830   6
   3   6  -6 215.983 28.6506   3
  -3  -6   5 85.7705 21.2573   6
   3   6  -5 24.0882 13.4916   1
  -3  -6   4 53.9279 18.6485   6
   3   6  -4 37.3813 14.5024   1
   3   6  -3 64.7492 19.0519   1
  -3  -6   3 44.3461 15.0042   6
  -3  -6   2 235.610 26.4017   6
  -3  -6   2 223.606 14.2637   2
   3   6  -2 243.838 29.4065   1
   3   6  -1 1243.60 60.0093   1
  -3  -6   1 1217.75 53.7904   6
  -3  -6   0 116.640 19.1519   6
   3   6   0 106.026 20.9353   1
   3   6   1 507.947 37.6937   1
   3   6   1 527.492 39.1161   4
  -3  -6  -1 529.248 33.9988   6
  -3  -6  -2 426.666 27.0049   5
   3   6   2 455.215 35.4147   1
   3   6   2 481.031 36.7273   4
  -3  -6  -2 463.329 31.1392   6
  -3  -6  -3 1914.35 51.4167   5
   3   6   3 2035.95 71.6015   4
   3   6   3 1992.41 71.0187   1
  -3  -6  -3 1853.17 60.8098   6
   3   6   4 177.222 22.8564   4
  -3  -6  -4 177.368 15.4113   5
  -3  -6  -4 147.653 21.0389   6
  -3  -6  -5 47.3357 14.2067   6
   3   6   5 34.8592 14.5734   4
  -3  -6  -5 40.1072 8.54882   5
  -3  -6  -6 44.2733 15.7053   6
  -3  -6  -6 54.7029 8.87081   5
   3   6   6 47.2996 15.1392   4
  -3  -6  -7 540.926 22.5888   5
   3   6   7 555.255 37.6795   4
  -3  -6  -7 592.901 42.7793   6
   3   6   8 6.27036 11.2447   4
  -3  -6  -9 1291.88 69.8765   3
   3   6   9 1258.20 56.9094   4
  -3  -6 -10 91.0007 23.6234   3
   3   6  10 60.9382 16.8034   4
  -3  -6 -11 151.192 30.0681   3
  -3  -6 -12 10.8738 18.3437   3
  -3  -6 -12-2.67299 15.3066   7
  -3  -6 -13 132.039 26.6166   7
  -3  -7   7 243.751 35.8178   6
  -3  -7   6 113.409 26.0521   6
   3   7  -6 126.092 25.9019   1
  -3  -7   5 301.107 36.9012   6
   3   7  -5 304.281 36.4817   1
  -3  -7   4 127.867 23.6288   6
   3   7  -4 170.945 28.9535   1
   3   7  -3 404.178 39.9115   1
  -3  -7   3 422.371 39.5064   6
   3   7  -2 501.976 43.1509   1
  -3  -7   2 535.192 41.2265   6
   3   7  -1 635.233 47.0265   1
  -3  -7   1 692.828 44.9778   6
   3   7   0 921.460 54.8471   1
  -3  -7   0 924.731 49.7899   6
   3   7   1 649.650 46.8969   4
   3   7   1 540.129 43.2153   1
  -3  -7  -1 551.492 38.1958   6
  -3  -7  -2 5.09090 11.8191   6
   3   7   2 10.7649 14.7104   1
   3   7   2 10.8627 14.6609   4
   3   7   3 3114.58 94.9299   4
  -3  -7  -3 3001.95 84.0076   6
   3   7   3 2946.71 93.2900   1
  -3  -7  -4 858.824 46.7860   6
   3   7   4 922.226 52.6526   4
  -3  -7  -5 877.020 31.1123   5
   3   7   5 886.319 50.3151   4
  -3  -7  -5 872.881 49.7522   6
   3   7   6 12.3647 14.0374   4
  -3  -7  -6 1.41013 5.33452   5
  -3  -7  -6-1.46082 12.8547   6
   3   7   7 253.050 29.3980   4
  -3  -7  -7 206.225 28.4006   6
   3   7   8 52.2921 16.9397   4
  -3  -7  -8 38.5585 16.8427   6
   3   7   9 178.933 26.1315   4
   3   7  10 233.112 29.2159   4
  -3  -7 -10 196.799 32.3539   3
  -3  -7 -11 220.798 35.0524   3
  -3  -7 -12 3.63491 17.0827   7
  -3  -8   6 51.6047 21.6597   6
  -3  -8   5 94.1744 27.3330   6
   3   8  -5 50.8375 19.2024   1
  -3  -8   4 25.9586 19.1411   6
   3   8  -4 12.2775 13.6112   1
  -3  -8   3 11.4789 15.4847   6
   3   8  -3 3.12414 12.3606   1
  -3  -8   2 237.645 30.9882   6
   3   8  -2 260.158 34.8657   1
  -3  -8   1 264.470 31.6621   6
   3   8  -1 252.948 33.0563   1
   3   8   0 7.59225 15.2452   1
  -3  -8   0-4.19195 12.0664   6
   3   8   1 560.483 45.8653   1
   3   8   1 669.028 51.5722   4
  -3  -8  -1 600.215 44.0480   6
   3   8   2-12.8614 13.5385   4
  -3  -8  -2 29.4675 14.4082   6
   3   8   2 39.3301 21.0573   1
  -3  -8  -3 36.2477 17.8155   6
   3   8   3 20.1370 14.8188   1
   3   8   3 11.1974 14.3924   4
   3   8   4 799.915 53.6933   1
   3   8   4 792.581 52.8011   4
  -3  -8  -4 783.676 48.5241   6
   3   8   5 2194.47 84.5623   4
  -3  -8  -5 1937.75 76.0431   6
   3   8   6 48.0920 16.5749   4
  -3  -8  -6 50.7643 15.7203   6
  -3  -8  -7 761.581 52.4309   6
   3   8   7 806.082 52.8158   4
   3   8   8 56.6467 19.5305   4
  -3  -8  -8 90.9835 20.8819   6
   3   8   9 377.928 38.7969   4
   3   8  10 261.984 31.5229   4
  -3  -8 -10 353.402 42.4509   3
   3   8  11 61.5465 17.9052   4
  -3  -8 -11 56.7981 19.5182   3
  -3  -9   4 125.911 26.6163   6
   3   9  -4 110.659 24.3340   1
   3   9  -3 5.18127 16.1456   1
  -3  -9   3-2.69303 17.6667   6
   3   9  -2 68.6991 19.8396   1
  -3  -9   2 76.1068 20.9887   6
  -3  -9   1 223.250 33.1253   6
   3   9  -1 216.150 31.7484   1
  -3  -9   0 174.337 26.9769   6
   3   9   0 182.182 30.4965   1
  -3  -9  -1 22.8620 16.7272   6
   3   9   1 42.7225 19.9081   4
   3   9   1 0.63358 17.1339   1
   3   9   2 6.73130 17.7843   1
   3   9   2 12.7360 14.9009   4
  -3  -9  -2-5.83266 12.5215   6
  -3  -9  -3 150.542 24.2434   6
   3   9   3 151.349 27.5814   1
   3   9   3 189.350 29.8371   4
  -3  -9  -4 104.425 21.9653   6
   3   9   4 149.567 27.3806   4
   3   9   4 150.085 26.8489   1
  -3  -9  -5 339.059 35.5752   6
   3   9   5 275.062 33.4995   4
   3   9   6 1250.32 69.4709   4
  -3  -9  -6 1143.58 64.2895   6
   3   9   7 319.488 37.6813   4
  -3  -9  -7 334.176 37.3581   6
  -3  -9  -8-15.8596 19.3979   6
   3   9   8 3.70468 17.5016   4
  -3  -9  -9 131.840 28.8118   6
   3   9   9 152.129 28.1752   4
   3   9  10 42.5833 16.7220   4
   3   9  11 41.8382 19.8595   4
  -3 -10   3 59.2570 22.8302   6
   3  10  -2 32.9013 17.4155   1
   3  10  -1 54.0508 24.7320   1
  -3 -10   1 36.9407 17.0533   6
   3  10   0 94.9832 22.5869   1
  -3 -10   0 122.477 27.5045   6
  -3 -10  -1 226.719 32.6806   6
   3  10   1 270.519 37.9296   1
  -3 -10  -2 255.274 34.4161   6
   3  10   2 258.462 38.3408   4
   3  10   2 275.393 37.8428   1
   3  10   3 1.25677 15.5564   4
   3  10   3-22.2601 18.8691   1
   3  10   4 317.978 38.5723   4
   3  10   4 340.697 41.5187   1
  -3 -10  -4 289.298 35.2240   6
  -3 -10  -5 100.762 25.6208   6
   3  10   5 111.848 27.2395   4
   3  10   5 104.627 24.4895   1
  -3 -10  -6 9.83127 14.4475   6
   3  10   6 11.8341 15.8336   4
   3  10   7 821.254 60.6821   4
  -3 -10  -7 779.972 58.2067   6
  -3 -10  -8 49.3136 20.9062   6
   3  10   8 21.8921 16.5643   4
  -3 -10  -9 130.734 30.3673   6
   3  10   9 143.867 27.2744   4
   3  10  10 14.0257 17.7838   4
  -3 -10 -10 14.7436 21.9529   6
   3  10  11-27.0459 21.0764   4
  -3 -11   1 40.8982 22.4271   6
  -3 -11   0 32.2469 22.8795   6
  -3 -11  -1 122.253 25.9620   6
  -3 -11  -2 43.8091 16.6291   6
   3  11   2 31.7849 18.3626   4
   3  11   2 15.4007 15.1787   1
   3  11   3 52.9516 23.9834   1
  -3 -11  -3 25.0907 15.8002   6
   3  11   3 19.9499 17.3340   4
  -3 -11  -4 7.98741 17.5919   6
   3  11   4 14.8522 19.7048   4
   3  11   4-10.1257 16.9262   1
  -3 -11  -5 25.6284 14.9350   6
   3  11   5 71.7107 24.1701   4
   3  11   5 35.4344 18.6880   1
  -3 -11  -6 151.350 29.5675   6
   3  11   6 118.804 29.3034   4
   3  11   6 131.998 27.5840   1
   3  11   7-12.3304 19.5079   4
  -3 -11  -7 0.81135 18.2525   6
  -3 -11  -8 245.924 38.1481   6
   3  11   8 217.444 37.4031   4
   3  11   9 345.243 45.0831   4
  -3 -12  -3-13.6049 17.0811   6
  -3 -12  -4 23.7033 18.4279   6
  -3 -12  -5 45.7717 18.5709   6
  -3 -12  -6 28.0224 20.7871   6
   4 -11  -7 55.3611 17.8022   7
   4 -11  -6 136.827 28.2885   7
   4 -11  -5 46.7986 16.6828   7
   4 -11  -4 394.127 40.2445   7
  -4  11   4 410.921 48.6992   4
  -4  11   3 119.837 27.0790   4
  -4  11   2 39.3270 24.0005   4
  -4  11   1 56.5300 23.5722   4
  -4  11   0 347.344 44.0986   4
   4 -10  -8 32.2171 20.2175   6
   4 -10  -8 120.324 27.4350   7
  -4  10   7 20.3333 20.7136   4
   4 -10  -7 43.6345 23.4376   6
   4 -10  -7 34.3788 18.0663   7
  -4  10   6 40.9374 22.6455   4
   4 -10  -6 38.3553 16.3652   7
   4 -10  -6 40.7795 20.3728   6
  -4  10   5 33.7052 23.0449   4
   4 -10  -5 50.9670 22.8751   6
   4 -10  -5-11.1855 14.1612   7
  -4  10   4 19.1527 18.8284   4
   4 -10  -4 88.1840 26.3297   6
   4 -10  -4 27.1740 13.8515   7
  -4  10   3 98.8708 27.6559   4
   4 -10  -3 134.964 29.6744   6
   4 -10  -3 112.658 20.9367   7
  -4  10   2-8.65134 16.3773   4
   4 -10  -2 17.5001 19.5901   6
  -4  10   1 43.5723 21.6981   4
   4 -10  -1-6.87170 17.5478   6
  -4  10   0-27.6460 17.9232   4
   4 -10   0 5.57133 17.5584   6
  -4  10  -1-42.6341 20.5522   4
  -4   9   9 261.954 40.5168   4
   4  -9  -9 240.541 36.0288   6
   4  -9  -9 309.990 41.5744   7
   4  -9  -8 274.987 37.1056   6
   4  -9  -8 303.379 38.7328   7
  -4   9   8 234.288 35.6158   4
   4  -9  -7 20.6367 15.9836   6
   4  -9  -7 43.2864 17.3442   7
  -4   9   7 6.45160 18.2240   4
   4  -9  -6 160.499 28.0685   6
   4  -9  -6 166.773 28.4365   7
  -4   9   6 150.321 29.1215   4
  -4   9   5 33.6069 21.7051   4
   4  -9  -5-2.22030 15.1306   7
   4  -9  -5 5.28223 16.1253   6
  -4   9   4 127.251 24.9858   4
   4  -9  -4 120.935 26.3706   6
   4  -9  -4 164.451 26.1739   7
  -4   9   3 101.376 24.8238   4
   4  -9  -3 118.486 22.2292   7
   4  -9  -3 110.714 25.0629   6
  -4   9   2 59.8324 19.6747   4
   4  -9  -2 97.9098 24.3812   6
   4  -9  -2 91.1373 18.4250   7
  -4   9   1 377.190 39.8602   4
   4  -9  -1 456.695 45.8212   6
  -4   9   0 295.933 35.9147   4
   4  -9   0 277.378 40.5116   6
   4  -9   1 301.192 40.5791   6
  -4   9  -1 195.067 28.6080   4
  -4   9  -2 62.8909 20.0704   4
   4  -9   2 20.0364 16.5172   6
  -4   9  -2 103.691 27.1013   3
   4  -8 -10 186.876 32.6892   6
   4  -8 -10 281.739 39.8137   7
  -4   8  10 223.639 36.7505   4
   4  -8  -9 35.5682 21.9682   6
   4  -8  -9 22.7843 17.2630   7
  -4   8   9 20.8799 19.9136   4
  -4   8   8 393.508 43.7441   4
   4  -8  -8 450.915 44.8173   7
   4  -8  -8 354.496 39.9131   6
  -4   8   7 975.599 63.7509   4
   4  -8  -7 1121.88 67.6387   7
   4  -8  -7 1034.93 64.5511   6
  -4   8   6 293.756 36.9662   4
   4  -8  -6 292.566 34.5068   7
   4  -8  -6 292.881 35.7379   6
   4  -8  -5 223.104 29.4114   7
   4  -8  -5 210.498 29.6617   6
  -4   8   5 209.825 29.8187   4
  -4   8   4 260.591 31.8407   4
   4  -8  -4 288.121 32.0366   7
   4  -8  -4 281.757 34.7722   6
  -4   8   3 154.740 25.8300   4
   4  -8  -3 183.270 29.7322   6
   4  -8  -3 145.214 23.1979   7
  -4   8   2 19.7454 15.4426   4
   4  -8  -2 11.4866 13.5934   6
   4  -8  -2 44.4795 14.4548   7
   4  -8  -1 88.8059 23.6643   6
   4  -8  -1 90.1131 17.8106   2
   4  -8  -1 89.0857 16.5948   7
  -4   8   1 67.8531 20.7222   4
   4  -8   0 725.304 43.5376   2
   4  -8   0 715.996 36.3215   7
  -4   8   0 747.675 50.2212   4
   4  -8   0 738.154 56.4874   6
  -4   8  -1 551.893 48.7967   3
   4  -8   1 522.691 38.1952   2
   4  -8   1 596.856 52.6449   6
  -4   8  -1 511.742 42.1555   4
  -4   8  -2 16.2059 16.4361   4
   4  -8   2-8.76723 15.7880   6
  -4   8  -2 7.22311 16.1224   3
   4  -8   2 3.15245 11.8605   2
   4  -8   3 203.001 33.3462   6
  -4   8  -3 234.006 29.2786   4
  -4   8  -3 257.072 37.8020   3
   4  -8   4 5.68668 16.9092   6
  -4   8  -4 17.8297 17.3489   3
  -4   7  11 101.437 29.3437   4
   4  -7 -10 45.2737 19.3057   7
  -4   7  10 91.3228 25.7154   4
  -4   7   9 718.106 56.8351   4
   4  -7  -9 702.283 55.3717   7
   4  -7  -9 648.731 52.5250   6
   4  -7  -8 22.3768 17.9308   6
   4  -7  -8 0.68750 14.2765   7
  -4   7   8 24.1184 19.0732   4
   4  -7  -7 25.1590 15.9849   6
   4  -7  -7 1.08504 11.7307   7
  -4   7   7 20.5633 18.4090   4
  -4   7   6 755.268 52.2440   4
   4  -7  -6 869.830 55.0827   7
   4  -7  -6 865.201 54.6759   6
   4  -7  -5 49.9033 16.5673   6
  -4   7   5 58.6148 20.4089   4
   4  -7  -5 52.6993 14.9520   7
   4  -7  -4 2.92050 12.6260   6
   4  -7  -4 4.11702 10.5656   7
  -4   7   4 0.05287 15.1357   4
   4  -7  -3 162.916 24.8086   6
   4  -7  -3 134.840 20.9224   7
  -4   7   3 113.478 22.7474   4
  -4   7   2 4.20539 14.1752   4
   4  -7  -2 13.3482 14.3419   6
   4  -7  -2 15.2303 11.5907   7
  -4   7   1 10.2413 13.8252   4
   4  -7  -1-7.12217 13.7545   6
   4  -7  -1-17.3801 13.3751   2
   4  -7  -1 4.42413 8.38464   7
  -4   7   0 767.287 51.2054   3
   4  -7   0 589.836 38.9000   2
   4  -7   0 707.597 34.8647   7
  -4   7   0 700.312 45.6496   4
   4  -7   0 683.375 50.1013   6
  -4   7  -1 1441.11 71.5621   3
   4  -7   1 1439.78 61.4703   2
   4  -7   1 1386.96 42.2558   7
  -4   7  -1 1448.10 63.9030   4
   4  -7   1 1388.63 73.8218   6
  -4   7  -2 1217.82 69.0118   3
  -4   7  -2 1211.20 59.7807   4
   4  -7   2 1242.59 71.7397   6
  -4   7  -3 671.533 54.4377   3
  -4   7  -3 695.276 44.8290   4
   4  -7   3 683.935 56.1952   6
  -4   7  -4 255.163 36.2584   3
   4  -7   4 304.530 42.2902   6
  -4   7  -5 821.686 67.0306   3
   4  -7   5 718.183 62.0826   6
   4  -6 -11 208.114 32.9186   7
  -4   6  11 196.865 34.8171   4
  -4   6  10 269.857 37.5544   4
   4  -6 -10 251.248 35.6167   7
  -4   6   9 644.161 51.9591   4
   4  -6  -9 651.530 53.7855   7
  -4   6   8 795.563 54.8290   4
   4  -6  -8 879.444 57.6992   7
   4  -6  -8 870.240 56.1091   6
   4  -6  -7 124.200 22.3156   6
   4  -6  -7 145.090 25.6353   7
  -4   6   7 114.641 24.2849   4
   4  -6  -6 78.5454 18.9619   6
  -4   6   6 69.3525 10.4292   5
   4  -6  -6 57.1925 15.2530   7
  -4   6   6 69.2150 19.8612   4
  -4   6   5 742.612 30.0911   5
  -4   6   5 743.555 48.3444   4
   4  -6  -5 791.121 48.9311   7
   4  -6  -5 741.543 46.9528   6
   4  -6  -4 621.380 42.3093   6
  -4   6   4 598.589 42.3286   4
   4  -6  -4 595.488 40.6194   7
   4  -6  -3-2.57754 12.4079   6
   4  -6  -3-2.47178 10.7101   7
  -4   6   3-14.3636 14.7252   4
   4  -6  -2 174.544 25.6073   6
   4  -6  -2 223.525 22.7206   7
  -4   6   2 237.355 28.3626   4
  -4   6   1 16.8662 14.9948   4
   4  -6  -1 18.6089 14.5381   6
   4  -6  -1 6.05354 11.8390   2
   4  -6  -1-8.52914 10.3380   7
  -4   6   0 290.864 30.1223   3
   4  -6   0 310.892 29.0685   2
  -4   6   0 318.874 29.9642   4
   4  -6   0 282.610 21.7498   7
   4  -6   0 292.205 32.5047   6
   4  -6   1 776.804 30.4871   7
  -4   6  -1 776.363 49.4448   3
  -4   6  -1 800.172 43.8600   4
   4  -6   1 807.308 53.1779   6
  -4   6  -2 532.197 43.2296   3
   4  -6   2 507.061 18.9576   7
  -4   6  -2 568.771 37.6080   4
   4  -6   2 530.682 45.0931   6
  -4   6  -3 383.379 38.8866   3
  -4   6  -3 405.266 33.6617   4
   4  -6   3 417.661 42.6412   6
   4  -6   4 77.1243 24.2461   6
  -4   6  -4 50.1479 19.7623   3
   4  -6   5-6.14292 19.8588   6
  -4   6  -5-5.37498 15.9170   3
   4  -6   6 108.351 27.4602   6
  -4   6  -6 98.9681 25.3059   3
   4  -5 -11 9.99157 12.5145   7
  -4   5  11-13.6314 18.3838   4
   4  -5 -10 57.9155 18.8087   7
  -4   5  10 36.5962 20.6340   4
   4  -5  -9 7.25389 13.2897   7
  -4   5   9-7.39966 16.2676   4
  -4   5   8 394.609 38.9992   4
   4  -5  -8 382.452 28.0449   3
   4  -5  -8 434.461 39.8232   7
   4  -5  -7-2.89530 10.9873   6
  -4   5   7-1.61366 7.58499   5
   4  -5  -7 19.5633 12.2384   7
  -4   5   7 9.44592 15.3685   4
   4  -5  -6 112.876 20.4815   6
  -4   5   6 106.739 12.9843   5
  -4   5   6 98.8375 21.7310   4
   4  -5  -6 124.161 21.2777   7
  -4   5   5 63.9597 18.8788   4
   4  -5  -5 61.0451 16.1964   6
  -4   5   5 51.7226 9.64321   5
   4  -5  -5 80.9383 13.8419   3
   4  -5  -5 63.2765 15.8407   7
   4  -5  -4 231.777 20.7690   3
   4  -5  -4 227.159 25.6008   7
  -4   5   4 220.010 26.9827   4
   4  -5  -4 249.955 26.4246   6
   4  -5  -3 1569.73 52.6657   3
  -4   5   3 1612.30 61.3550   4
   4  -5  -3 1640.08 59.8413   7
   4  -5  -3 1554.81 59.6075   6
   4  -5  -2 202.769 23.9270   2
   4  -5  -2 203.491 20.9365   7
   4  -5  -2 194.533 24.0258   6
  -4   5   2 190.207 23.1304   4
   4  -5  -1-11.6878 13.6634   6
   4  -5  -1 19.2915 8.29235   7
   4  -5  -1 16.4305 12.3591   2
  -4   5   1-3.68185 10.2685   3
  -4   5   1-13.3511 14.0460   4
  -4   5   0 1602.26 61.0477   3
   4  -5   0 1701.23 60.8030   2
   4  -5   0 1642.46 64.9061   6
  -4   5   0 1739.63 57.0183   4
   4  -5   0 1650.50 48.0103   7
  -4   5  -1 558.276 39.2584   3
  -4   5  -1 590.660 34.2609   4
   4  -5   1 547.460 24.5002   7
   4  -5   1 580.725 41.6552   6
  -4   5  -2 602.413 43.3293   3
  -4   5  -2 622.946 35.3703   4
   4  -5   2 530.487 19.1441   7
   4  -5   2 548.341 42.8732   6
  -4   5  -3 159.307 19.3122   4
   4  -5   3 117.626 23.5016   6
  -4   5  -3 128.786 24.2073   3
   4  -5   4 86.7619 22.6631   6
  -4   5  -4 139.910 25.7465   3
   4  -5   5 70.7780 23.0033   6
  -4   5  -5 86.2991 23.8908   3
   4  -5   6-11.7350 17.9759   6
  -4   5  -6-6.75200 17.5255   3
   4  -5   7 75.4514 26.9109   6
  -4   5  -7 81.2368 26.2479   3
  -4   4  12 42.6862 21.2479   4
   4  -4 -12-19.5692 16.5106   7
   4  -4 -11 25.9961 12.5344   7
  -4   4  11 10.4372 19.0975   4
   4  -4 -10 31.8211 16.8986   7
  -4   4  10 25.1879 16.4186   4
  -4   4   9 425.488 41.7635   4
   4  -4  -9 353.460 36.8641   7
   4  -4  -8 969.007 40.5698   3
  -4   4   8 948.769 57.2066   4
   4  -4  -8 1085.93 60.5797   7
  -4   4   7 822.497 37.3033   5
  -4   4   7 939.008 55.0620   4
   4  -4  -7 886.716 36.3523   3
   4  -4  -7 912.727 54.0623   7
  -4   4   6 2568.40 62.0342   5
  -4   4   6 2419.78 82.9168   4
   4  -4  -6 2692.16 86.6937   7
   4  -4  -6 2510.29 77.1494   6
   4  -4  -5 63.7853 14.7939   6
  -4   4   5 60.8038 11.0176   5
   4  -4  -5 63.0390 15.4400   7
  -4   4   5 51.6359 16.9837   4
   4  -4  -4 1263.34 39.8972   3
  -4   4   4 1228.72 40.2498   5
  -4   4   4 1277.01 54.9488   4
   4  -4  -4 1344.77 55.9614   7
   4  -4  -4 1275.74 49.7935   6
   4  -4  -3 120.262 17.6208   6
  -4   4   3 125.482 19.4577   4
   4  -4  -3 125.764 18.9658   7
   4  -4  -3 97.5738 13.0143   3
   4  -4  -2 1106.06 47.7092   2
   4  -4  -2 1117.44 44.8213   7
   4  -4  -2 1122.56 40.5574   3
  -4   4   2 1136.72 45.8491   4
   4  -4  -2 1163.10 46.6106   6
  -4   4   1 204.678 19.6925   3
   4  -4  -1 207.090 19.8821   3
   4  -4  -1 202.675 22.6010   2
  -4   4   1 239.737 22.1379   4
   4  -4  -1 206.079 18.8381   7
   4  -4  -1 228.664 23.1524   6
   4  -4   0 17.6805 11.3671   6
   4  -4   0 16.6560 7.15570   7
   4  -4   0 16.3369 11.1576   2
  -4   4   0 20.4681 10.8154   3
   4  -4   0 33.6229 10.4929   4
  -4   4   0 30.8040 11.6813   4
  -4   4  -1 636.796 37.9566   3
   4  -4   1 520.368 27.9544   4
  -4   4  -1 523.603 29.2120   4
   4  -4   1 560.363 24.2009   7
   4  -4   1 635.371 39.2709   6
  -4   4  -2 1022.71 51.0692   3
   4  -4   2 856.478 24.4134   7
   4  -4   2 863.517 35.0001   4
  -4   4  -2 872.970 37.0058   4
   4  -4   2 940.230 50.2221   6
  -4   4  -3 251.310 29.1828   3
  -4   4  -3 201.475 19.0361   4
   4  -4   3 238.875 19.2141   4
   4  -4   3 247.861 29.9620   6
   4  -4   4 379.370 36.5196   6
  -4   4  -4 432.559 37.9683   3
   4  -4   5 84.7404 21.7919   6
  -4   4  -5 94.7813 22.6186   3
   4  -4   6 338.705 40.1296   6
  -4   4  -6 283.281 35.8150   3
   4  -4   7 220.234 34.5511   6
  -4   4  -7 228.150 34.9350   3
   4  -4   8 512.053 52.3983   6
  -4   4  -8 547.838 53.9233   3
  -4   3  12 122.161 31.2402   4
   4  -3 -12 102.515 22.4879   7
   4  -3 -11 35.0478 16.4676   7
  -4   3  11 71.6561 24.9686   4
   4  -3 -10 292.957 34.8870   7
  -4   3  10 237.515 33.3077   4
  -4   3   9 182.164 28.7226   4
   4  -3  -9 210.950 27.7266   7
   4  -3  -8 1736.73 52.0423   3
  -4   3   8 1611.67 74.1525   4
   4  -3  -8 1775.33 75.6590   7
   4  -3  -7 574.602 27.7933   3
  -4   3   7 539.639 42.2206   4
   4  -3  -7 600.752 42.3803   7
  -4   3   6 1100.94 43.7153   5
  -4   3   6 1045.13 54.2332   4
   4  -3  -6 1139.71 34.4984   3
   4  -3  -6 1186.60 56.6117   7
   4  -3  -5 2762.54 72.0128   6
  -4   3   5 2707.50 63.9030   5
  -4   3   5 2634.24 78.7170   4
   4  -3  -5 2813.17 81.2833   7
   4  -3  -4 2352.22 44.1560   3
  -4   3   4 2339.64 56.8732   5
  -4   3   4 2286.94 69.0128   4
   4  -3  -4 2468.52 72.4886   7
   4  -3  -4 2321.35 61.3834   6
  -4   3   4 2381.41 63.8567   6
  -4   3   3 127.532 15.3778   6
   4  -3  -3 135.744 12.0098   3
  -4   3   3 124.734 18.8281   4
   4  -3  -3 142.027 16.3192   6
   4  -3  -3 127.736 17.3625   7
   4  -3  -2 2879.71 74.1114   2
   4  -3  -2 2979.59 54.6157   3
   4  -3  -2 2910.16 70.2981   4
  -4   3   2 2919.40 68.2429   4
   4  -3  -2 2989.35 70.9032   7
  -4   3   2 2946.96 66.3390   6
   4  -3  -2 2963.60 65.3377   6
  -4   3   1 921.776 33.8450   3
   4  -3  -1 859.980 41.1479   2
   4  -3  -1 904.730 33.3306   3
   4  -3  -1 875.488 36.2930   4
  -4   3   1 871.539 35.6055   4
  -4   3   1 875.216 34.7158   7
   4  -3  -1 908.011 36.9655   7
   4  -3  -1 893.979 37.3445   6
  -4   3   1 879.202 37.4372   6
  -4   3   0 428.497 28.0220   6
  -4   3   0 424.242 25.6915   3
   4  -3   0 417.017 25.0795   3
   4  -3   0 385.134 27.9623   2
   4  -3   0 405.991 23.0238   4
  -4   3   0 442.588 24.4527   4
  -4   3   0 426.059 22.3260   7
   4  -3   0 407.140 23.0873   7
   4  -3   0 344.958 24.9046   6
   4  -3   1 113.820 12.0760   4
   4  -3   1 104.919 16.8679   6
  -4   3  -1 150.208 14.5543   4
  -4   3  -1 140.516 12.3254   7
   4  -3   1 142.208 12.6738   7
  -4   3  -1 126.179 16.6835   3
   4  -3   1 127.792 16.5563   3
  -4   3  -2 804.677 41.7957   3
   4  -3   2 760.901 27.8332   4
  -4   3  -2 773.975 29.3848   4
   4  -3   2 801.698 24.4208   7
   4  -3   2 795.482 42.0920   6
   4  -3   3 743.390 43.7795   6
  -4   3  -3 816.553 45.4861   3
  -4   3  -3 781.774 29.0946   4
   4  -3   3 729.756 26.3548   4
   4  -3   4 871.081 50.3871   6
  -4   3  -4 846.634 49.2216   3
   4  -3   4 864.759 28.9967   4
   4  -3   5 155.417 25.6620   6
  -4   3  -5 161.398 26.5625   3
   4  -3   6 15.7674 14.7386   6
  -4   3  -6 20.2602 16.3698   3
   4  -3   7 388.767 43.4621   6
  -4   3  -7 424.600 43.3428   3
   4  -3   8 174.663 32.0009   6
  -4   3  -8 161.723 30.7551   3
   4  -3   9 132.469 30.2777   6
  -4   3  -9 77.2897 24.9156   3
   4  -2 -12 4.12901 12.9341   7
   4  -2 -11 199.163 30.7950   7
  -4   2  11 233.622 36.8049   4
  -4   2  10 461.139 45.4630   4
   4  -2 -10 489.151 44.0188   7
  -4   2   9 39.7475 17.3829   4
   4  -2  -9 68.2028 18.2804   7
   4  -2  -8 959.868 39.0980   3
  -4   2   8 1000.97 58.9911   4
   4  -2  -8 1002.90 56.5645   7
  -4   2   7 66.5807 19.6266   4
   4  -2  -7 73.7773 11.7107   3
   4  -2  -7 54.0956 16.0687   7
  -4   2   6 600.208 35.1832   5
   4  -2  -6 636.082 24.6268   3
  -4   2   6 639.090 43.3067   4
   4  -2  -6 671.572 42.1276   7
   4  -2  -5-1.46793 4.74024   3
  -4   2   5 14.4743 12.6707   4
  -4   2   5 1.19534 8.75627   5
   4  -2  -5 5.55495 9.04882   7
  -4   2   4 3733.60 74.6431   5
  -4   2   4 3796.48 88.1240   4
   4  -2  -4 3801.98 41.0645   3
   4  -2  -4 4007.84 90.5988   7
   4  -2  -4 3981.46 74.6498   6
  -4   2   4 3956.47 75.0785   6
   4  -2  -3 1780.56 28.0917   3
  -4   2   3 2034.63 53.2272   5
  -4   2   3 2020.97 60.3583   4
   4  -2  -3 2103.22 61.9486   7
   4  -2  -3 2069.43 49.3425   6
  -4   2   3 1989.18 49.7394   6
   4  -2  -2 280.550 23.9391   2
   4  -2  -2 302.871 13.4947   3
   4  -2  -2 323.760 23.5924   4
  -4   2   2 323.930 23.1985   4
  -4   2   2 290.971 22.1524   7
   4  -2  -2 318.266 23.5423   7
   4  -2  -2 308.938 18.9142   6
  -4   2   2 302.828 19.3858   6
  -4   2   1 301.378 16.8742   3
   4  -2  -1 311.775 24.9488   2
   4  -2  -1 295.447 15.9277   3
   4  -2  -1 274.641 20.2875   4
  -4   2   1 309.983 21.6651   4
  -4   2   1 304.220 21.2638   7
   4  -2  -1 280.651 20.6369   7
   4  -2  -1 298.738 19.2117   6
  -4   2   1 309.089 19.4361   6
  -4   2   0 2424.14 55.3076   6
  -4   2   0 2421.41 52.1499   3
   4  -2   0 2387.83 50.9635   3
   4  -2   0 2293.55 63.4003   2
   4  -2   0 2310.94 50.3251   4
  -4   2   0 2425.24 49.6081   4
  -4   2   0 2315.67 51.5394   7
   4  -2   0 2420.10 54.5839   7
   4  -2   0 2332.71 53.4041   6
  -4   2  -1 118.380 15.0304   3
   4  -2   1 115.335 14.9815   6
  -4   2  -1 127.954 15.4903   6
   4  -2   1 113.431 10.7612   4
  -4   2  -1 96.6121 10.2639   7
   4  -2   1 112.681 12.0550   7
  -4   2  -1 111.493 10.9002   4
   4  -2   1 106.136 13.3041   3
   4  -2   2 3314.80 75.1727   6
  -4   2  -2 3192.99 73.8351   3
   4  -2   2 3368.54 74.7152   3
   4  -2   2 3219.41 46.8304   4
  -4   2  -2 3236.23 46.8141   4
  -4   2  -2 3061.04 47.8535   7
   4  -2   3 2178.84 67.2664   6
  -4   2  -3 1945.27 35.1680   4
  -4   2  -3 2082.53 65.9182   3
   4  -2   3 2026.78 33.5659   4
  -4   2  -3 1970.88 32.6676   7
   4  -2   4 1699.44 65.3331   6
  -4   2  -4 1722.88 64.5540   3
   4  -2   4 1578.34 28.4149   4
   4  -2   5 1498.77 66.8208   6
  -4   2  -5 1222.54 27.4224   1
  -4   2  -5 1430.48 63.8203   3
   4  -2   5 1374.21 28.0199   4
   4  -2   6 366.120 37.0431   6
  -4   2  -6 399.857 37.8148   3
   4  -2   6 288.619 15.0809   4
  -4   2  -7 286.691 34.8927   3
   4  -2   7 329.979 39.1291   6
   4  -2   8 228.681 35.9432   6
  -4   2  -8 191.134 31.4004   3
   4  -2   9 759.463 62.9841   6
  -4   2  -9 637.154 56.4474   3
  -4   1  11-34.0744 23.6246   4
   4  -1 -11 38.6158 16.8602   7
   4  -1 -10 257.530 31.7151   7
  -4   1  10 234.864 35.0104   4
  -4   1   9 124.124 24.0216   4
   4  -1  -9 164.176 25.4326   7
   4  -1  -8 710.198 34.9187   3
  -4   1   8 805.272 53.7244   4
   4  -1  -8 856.400 51.3776   7
   4  -1  -7 225.904 26.5950   7
   4  -1  -7 205.258 17.4133   3
  -4   1   7 190.222 26.9746   4
  -4   1   6 207.884 23.8483   5
   4  -1  -6 204.461 15.2407   3
   4  -1  -6 241.634 26.3945   7
  -4   1   6 220.042 27.2318   4
  -4   1   5 9.46002 8.98011   6
  -4   1   5-1.54645 9.82258   5
  -4   1   5-0.45337 12.4793   4
   4  -1  -5 3.17742 4.59236   3
   4  -1  -5 1.72467 10.7779   7
  -4   1   4 1409.63 48.8720   5
  -4   1   4 1496.64 55.8387   4
   4  -1  -4 1497.41 55.4084   7
  -4   1   4 1501.16 44.4335   6
  -4   1   3 76.9390 12.9195   5
   4  -1  -3 73.5830 13.5234   7
  -4   1   3 97.0785 16.4322   4
  -4   1   3 100.760 11.5808   6
   4  -1  -2 6116.29 66.9463   6
  -4   1   2 5844.14 68.9559   6
  -4   1   2 6164.47 99.4146   1
   4  -1  -2 6107.47 98.5214   7
  -4   1   2 6114.24 99.1039   2
  -4   1   2 5817.77 94.1758   4
  -4   1   2 5890.37 94.0389   7
  -4   1   1 674.978 18.0126   3
   4  -1  -1 691.258 34.4070   2
  -4   1   1 693.360 29.8160   4
   4  -1  -1 700.168 17.7640   3
   4  -1  -1 679.855 31.9326   7
  -4   1   1 727.977 32.7858   1
  -4   1   1 703.384 31.3293   7
   4  -1  -1 725.894 22.1610   6
  -4   1   1 676.207 22.4515   6
  -4   1   0 276.725 15.9802   6
   4  -1   0 298.947 20.6110   7
  -4   1   0 284.259 15.7326   3
   4  -1   0 321.386 24.6701   2
  -4   1   0 299.601 17.7857   4
   4  -1   0 278.123 15.3957   3
  -4   1   0 275.954 18.8013   7
   4  -1   0 268.810 15.3146   6
  -4   1   0 301.038 20.4748   1
  -4   1  -1 2036.99 47.4371   3
   4  -1   1 2054.42 47.8055   3
  -4   1  -1 2130.51 37.5854   4
  -4   1  -1 2039.09 46.0807   7
   4  -1   1 2062.68 48.7800   7
  -4   1  -1 2043.85 48.4724   1
   4  -1   1 2102.08 47.3812   6
   4  -1   2 64.2256 11.8094   3
   4  -1   2 67.7918 12.0734   6
  -4   1  -2 52.8624 5.58531   4
  -4   1  -2 55.6312 8.91414   1
  -4   1  -2 51.5789 8.07052   7
  -4   1  -2 55.2381 11.2465   3
  -4   1  -3 1.97018 4.30123   7
   4  -1   3 13.5244 9.76612   6
  -4   1  -3 10.9636 5.96695   1
  -4   1  -3 2.10347 9.46076   3
  -4   1  -4 857.340 43.5051   3
  -4   1  -4 842.564 24.6119   7
   4  -1   4 895.775 45.0010   6
  -4   1  -4 818.112 23.0556   1
   4  -1   5 369.589 33.2398   6
  -4   1  -5 329.187 30.5871   3
  -4   1  -5 307.995 14.4693   7
   4  -1   6 6.53122 13.4896   6
  -4   1  -6-2.61659 4.14857   7
  -4   1  -6 23.1809 5.07032   7
  -4   1  -6-3.28629 13.3439   3
   4  -1   7 566.221 45.6695   6
  -4   1  -7 571.025 44.7823   3
   4  -1   8 174.055 29.4288   6
  -4   1  -8 161.195 27.4721   3
   4  -1   9 43.2718 17.4568   6
  -4   1  -9 25.7454 15.2033   3
  -4   1 -10 141.673 29.1951   3
   4  -1  10 225.857 39.9665   6
  -4   0  11-17.3281 18.2310   4
  -4   0  10 54.8010 21.7829   4
   4   0 -10 52.0961 17.7558   7
  -4   0   9 21.5632 18.1639   4
   4   0  -9 19.1604 12.2934   7
   4   0  -8 466.183 30.4814   3
  -4   0   8 482.108 43.9314   4
   4   0  -8 516.368 39.8017   7
   4   0  -7 245.588 20.2776   3
   4   0  -7 296.013 29.3622   7
  -4   0   7 232.435 30.1664   4
   4   0  -6 286.844 19.7684   3
   4   0  -6 278.651 27.3510   7
  -4   0   6 294.869 32.0235   4
  -4   0   5 125.454 16.7645   6
   4   0  -5 129.032 11.7718   3
  -4   0   5 113.887 19.0856   5
   4   0  -5 100.736 17.3817   7
  -4   0   5 108.644 20.6018   4
  -4   0   4 24.4611 9.11994   6
  -4   0   4 15.9119 11.5710   5
   4   0  -4 10.4520 3.57623   3
  -4   0   4 5.65735 10.8988   4
   4   0  -4 15.0253 10.0260   7
  -4   0   3 59.3135 8.47302   6
  -4   0   3 59.5938 12.7130   5
   4   0  -3 78.9151 14.5192   1
   4   0  -3 63.1898 12.7601   7
  -4   0   3 75.4259 15.1663   4
  -4   0   2 276.661 21.5205   5
  -4   0   2 298.427 22.3986   2
   4   0  -2 290.865 23.0000   1
  -4   0   2 314.463 23.6109   4
  -4   0   2 278.755 21.7831   7
   4   0  -2 301.191 23.6315   7
  -4   0   2 308.074 13.5971   6
  -4   0   2 308.270 22.9773   1
   4   0  -1 1052.55 40.5994   2
  -4   0   1 881.145 16.1822   3
  -4   0   1 1085.12 38.8839   4
   4   0  -1 1107.94 41.4865   7
  -4   0   1 1012.40 38.5778   7
   4   0  -1 1040.93 39.7453   1
   4   0  -1 1019.23 17.9229   6
  -4   0   1 1064.64 39.7625   1
  -4   0   1 952.204 18.3441   6
   4   0   0 445.402 26.0824   2
   4   0   0 422.344 24.3082   1
  -4   0   0 403.930 21.3207   4
  -4   0   0 435.978 16.8740   3
  -4   0   0 473.253 25.2367   7
   4   0   0 435.540 25.5286   7
   4   0   0 422.394 12.3926   6
  -4   0   0 442.108 24.7550   1
  -4   0  -1 2.73799 6.02959   3
  -4   0  -1 6.05430 5.82290   1
   4   0   1 7.14337 5.25777   6
   4   0   1 7.48443 5.74623   3
  -4   0  -1 10.1073 5.28564   4
  -4   0  -1 9.92916 6.69204   7
  -4   0  -2 93.4914 10.7850   1
  -4   0  -2 90.1652 12.6514   3
   4   0   2 101.681 13.0655   3
   4   0   2 100.828 12.1878   6
  -4   0  -2 90.9045 6.65022   4
  -4   0  -2 97.8269 11.8851   7
  -4   0  -3 1684.30 37.3535   1
  -4   0  -3 1672.64 52.2974   3
   4   0   3 1827.42 53.9287   3
  -4   0  -3 1706.75 43.0469   7
  -4   0  -4 2.96597 3.53961   1
  -4   0  -4 9.94745 10.5221   3
  -4   0  -5 545.784 37.0038   3
  -4   0  -6 46.4064 16.1055   3
  -4   0  -7 21.0586 14.0173   3
  -4   0  -8 1031.59 61.2830   3
  -4   0  -9 429.839 42.8891   3
  -4   0 -10 57.1572 20.7927   3
   4   0  11-3.74840 22.7118   6
  -4  -1  11 114.702 31.0195   6
  -4  -1  10 43.2420 21.8994   4
   4   1 -10 39.7865 15.3861   7
  -4  -1   9 1.98526 15.7480   4
   4   1  -9 22.1346 13.8540   7
   4   1  -8 31.3521 14.0449   7
   4   1  -8 12.5677 9.70160   3
  -4  -1   8 19.6974 16.7348   4
   4   1  -7 732.173 36.8451   3
  -4  -1   7 740.317 51.8550   4
   4   1  -7 767.954 46.6985   7
   4   1  -6 428.467 25.9711   3
  -4  -1   6 492.128 27.6501   3
   4   1  -6 424.826 33.6857   1
   4   1  -6 472.051 35.3104   7
   4   1  -5 288.759 19.3885   3
  -4  -1   5 286.555 28.2686   5
   4   1  -5 278.425 26.3877   7
  -4  -1   5 296.310 18.7547   3
   4   1  -5 271.279 26.7168   1
   4   1  -4 879.677 27.9782   3
  -4  -1   4 862.173 44.6940   5
  -4  -1   4 893.696 27.4656   3
   4   1  -4 883.405 43.8280   7
   4   1  -4 835.067 42.8483   1
  -4  -1   3 359.923 27.4653   5
  -4  -1   3 300.444 13.8886   3
   4   1  -3 314.751 25.7271   7
  -4  -1   3 340.009 18.5602   6
   4   1  -3 296.168 25.0550   1
  -4  -1   2 1736.21 31.5192   6
  -4  -1   2 1694.95 53.4315   5
  -4  -1   2 1590.46 27.6379   3
  -4  -1   2 1754.06 52.1660   2
   4   1  -2 1763.61 55.9500   7
   4   1  -2 1607.65 54.0138   1
  -4  -1   1 5786.32 94.4234   1
   4   1  -1 5650.87 86.9947   2
  -4  -1   1 5579.17 90.8091   5
  -4  -1   1 5488.49 86.3408   2
  -4  -1   1 5556.83 91.4754   7
   4   1  -1 5861.95 97.0620   7
   4   1  -1 5554.77 94.4469   1
   4   1   0 4919.40 84.1767   1
  -4  -1   0 5244.77 84.8952   1
   4   1   0 5179.64 81.3270   2
  -4  -1   0 5110.34 86.2734   7
   4   1   1 2160.61 29.8852   6
  -4  -1  -1 2340.05 54.0694   1
  -4  -1  -1 2284.42 46.4392   3
  -4  -1  -1 2404.82 58.0354   7
   4   1   1 2153.57 28.0989   6
   4   1   1 2255.09 53.5126   1
  -4  -1  -2 830.458 30.4676   1
  -4  -1  -2 800.811 31.8970   3
  -4  -1  -2 854.652 23.7008   4
   4   1   2 804.888 30.1082   1
  -4  -1  -3 1524.01 37.8100   1
  -4  -1  -3 1627.29 50.5017   3
  -4  -1  -3 1446.89 21.7259   4
   4   1   3 1567.47 37.9161   1
  -4  -1  -4 283.206 24.4208   3
  -4  -1  -4 248.551 14.0964   1
   4   1   4 281.054 14.5743   1
  -4  -1  -5 74.8499 16.9706   3
  -4  -1  -6 776.181 46.0077   3
  -4  -1  -7 459.430 39.3201   3
   4   1   7 270.478 8.99199   4
   4   1   7 190.750 8.02950   4
  -4  -1  -8 4.17581 13.8816   3
  -4  -1  -9 77.6947 22.5084   3
  -4  -1 -10 476.674 46.7848   3
  -4  -1 -11 10.9585 18.1529   3
  -4  -2  10 392.894 44.1685   6
  -4  -2  10 237.321 35.2927   4
  -4  -2   9 101.205 25.5162   6
  -4  -2   9 69.6317 22.4254   4
   4   2  -9 99.1375 20.4597   7
  -4  -2   8 8.07069 14.9172   6
   4   2  -8 6.68357 11.0833   3
  -4  -2   8 5.57132 14.7759   4
   4   2  -8-6.14135 12.0410   7
  -4  -2   7 148.446 22.9629   6
   4   2  -7 163.360 20.6261   3
   4   2  -7 128.998 21.3549   1
   4   2  -7 145.065 22.0762   7
   4   2  -6 61.7219 15.9006   7
  -4  -2   6 60.7427 17.0135   6
   4   2  -6 56.7613 14.2142   3
   4   2  -6 40.4912 14.1144   1
  -4  -2   5 228.097 23.1344   6
   4   2  -5 244.095 20.9977   3
   4   2  -5 245.134 25.0259   7
  -4  -2   5 199.405 18.1502   3
   4   2  -5 198.326 24.2702   1
   4   2  -4 446.073 33.4712   1
  -4  -2   4 491.420 29.8441   6
   4   2  -4 480.587 25.6504   3
  -4  -2   4 488.001 35.6475   5
  -4  -2   4 501.476 25.7473   3
   4   2  -4 483.193 33.5087   7
  -4  -2   3 140.822 15.5846   6
   4   2  -3 119.142 17.3269   1
  -4  -2   3 161.714 18.2760   2
  -4  -2   3 141.383 13.0035   3
  -4  -2   3 157.434 20.3129   5
   4   2  -3 142.465 18.3077   7
  -4  -2   2 51.7466 8.77891   6
   4   2  -2 53.2213 14.0974   1
  -4  -2   2 45.6419 14.5974   5
  -4  -2   2 64.1737 11.8045   2
  -4  -2   2 57.1198 8.47178   3
   4   2  -1 4031.95 85.4071   1
  -4  -2   1 3913.29 57.4273   3
  -4  -2   1 3888.05 80.0164   5
  -4  -2   1 3980.54 71.0292   2
  -4  -2   1 3782.54 42.4180   6
   4   2   0 2545.59 65.2359   1
  -4  -2   0 2576.68 62.1274   5
   4   2   0 2512.27 54.8967   2
  -4  -2   0 2476.42 62.2549   1
  -4  -2   0 2604.84 65.8083   7
   4   2   1 509.458 28.7394   1
  -4  -2  -1 486.012 27.5141   1
   4   2   1 469.888 13.4465   6
  -4  -2  -1 501.793 24.7265   4
   4   2   2 1175.96 40.4419   1
  -4  -2  -2 1131.14 38.5314   1
  -4  -2  -2 1190.97 34.4907   4
   4   2   2 1151.06 27.8135   6
   4   2   3 183.839 15.9980   1
  -4  -2  -3 199.421 16.2826   1
  -4  -2  -3 191.833 19.0134   3
  -4  -2  -3 201.430 13.1499   4
   4   2   3 200.904 15.5098   6
   4   2   4 1793.36 42.9531   1
  -4  -2  -4 1861.27 59.0849   3
  -4  -2  -4 1741.93 31.7019   4
   4   2   4 1590.55 33.3311   4
   4   2   4 1710.97 49.1553   6
  -4  -2  -5 1804.55 31.0605   4
  -4  -2  -5 1860.98 64.2199   3
   4   2   5 1720.96 31.9409   4
   4   2   5 1912.74 39.1328   1
  -4  -2  -6 106.942 20.7666   3
   4   2   6 91.9112 7.26871   1
   4   2   6 101.512 8.78926   4
   4   2   7 13.9454 4.80587   4
  -4  -2  -7 8.09578 12.6239   3
  -4  -2  -8 331.241 35.3774   3
  -4  -2  -9 499.901 43.9808   3
  -4  -2 -10 1061.23 68.0090   3
  -4  -2 -11 577.461 54.9356   3
  -4  -3  10 68.9106 21.1215   6
  -4  -3   9 1155.48 72.4075   6
  -4  -3   9 1208.98 78.1314   4
   4   3  -8 997.704 57.9316   1
  -4  -3   8 1187.72 68.5143   6
  -4  -3   7 452.204 41.1193   6
   4   3  -7 426.560 33.6612   3
   4   3  -7 409.878 36.4317   1
  -4  -3   6 2136.05 78.0794   6
   4   3  -6 2044.65 67.4427   3
   4   3  -6 1971.29 76.6537   1
  -4  -3   5 923.157 47.1513   6
   4   3  -5 853.369 40.9792   3
   4   3  -5 870.395 49.7208   1
  -4  -3   4 681.078 37.1142   6
  -4  -3   4 631.899 32.3871   3
   4   3  -4 646.987 42.1802   1
  -4  -3   3 1290.05 45.1912   6
   4   3  -3 1311.74 56.8795   1
  -4  -3   3 1393.23 48.2508   2
  -4  -3   3 1310.13 56.4596   5
  -4  -3   3 1333.21 44.6313   3
   4   3  -2 694.580 40.5934   1
  -4  -3   2 728.886 40.5433   5
  -4  -3   2 721.607 31.5950   3
  -4  -3   2 691.508 31.7907   2
  -4  -3   2 690.633 29.1949   6
   4   3  -1 776.011 40.9426   1
  -4  -3   1 772.753 31.2867   3
  -4  -3   1 766.322 38.8157   5
  -4  -3   1 763.655 30.2913   2
  -4  -3   1 781.294 26.3103   6
   4   3   0 4651.88 57.5258   6
   4   3   0 4594.80 92.9127   1
   4   3   0 4627.38 69.5952   2
  -4  -3   0 4630.06 87.4448   5
  -4  -3   0 4754.25 55.2275   6
   4   3   1 2305.44 63.9346   1
  -4  -3  -1 2298.66 59.0554   5
   4   3   1 2271.25 50.0376   2
  -4  -3  -1 2404.29 63.3165   1
  -4  -3  -1 2388.30 60.4921   4
  -4  -3  -1 2322.17 38.7507   6
   4   3   1 2283.31 39.0825   6
  -4  -3  -2 144.724 15.0925   4
  -4  -3  -2 130.081 15.5265   1
  -4  -3  -2 131.546 11.5358   6
   4   3   2 128.662 16.0074   1
   4   3   2 139.701 11.3984   6
   4   3   3 141.670 16.2560   1
  -4  -3  -3 133.917 13.8983   4
   4   3   3 136.760 14.6508   4
   4   3   3 120.717 12.4234   6
   4   3   4 1054.09 38.1857   1
  -4  -3  -4 1002.72 31.7607   4
   4   3   4 992.365 34.3456   4
   4   3   4 1034.47 38.7318   6
   4   3   5 342.627 21.0535   1
  -4  -3  -5 347.004 18.6471   4
  -4  -3  -5 303.042 27.6030   3
   4   3   5 343.789 20.2931   4
   4   3   6 1896.56 44.2784   1
  -4  -3  -6 1843.60 42.1406   4
  -4  -3  -6 1954.25 71.4210   3
   4   3   6 1929.03 45.1155   4
  -4  -3  -7 21.2178 15.6195   3
   4   3   7 13.8757 8.00313   4
   4   3   7 7.84745 4.79582   1
  -4  -3  -7 4.32833 5.83552   4
  -4  -3  -8 461.488 41.1236   3
   4   3   8 448.896 23.3771   4
  -4  -3  -9 279.741 35.0606   3
  -4  -3 -10 618.861 52.6418   3
  -4  -3 -11 467.796 47.7946   3
  -4  -4   9 252.002 39.0042   6
  -4  -4   8 74.0669 19.4711   6
   4   4  -8 84.7046 19.1389   1
  -4  -4   7 526.423 44.3484   6
   4   4  -7 520.589 39.4477   3
   4   4  -7 455.907 41.5941   1
   4   4  -6 64.3091 16.7041   1
  -4  -4   6 110.919 20.9836   6
   4   4  -6 80.4564 15.6830   3
  -4  -4   5 95.2049 20.2421   6
   4   4  -5 66.4772 17.5163   1
   4   4  -5 80.7730 16.4193   3
  -4  -4   4 233.287 24.7466   6
   4   4  -4 216.450 26.8670   1
  -4  -4   3 529.488 30.0526   2
   4   4  -3 555.008 40.2068   1
  -4  -4   3 551.073 33.3096   6
   4   4  -2 213.075 25.3573   1
  -4  -4   2 255.878 27.1352   5
  -4  -4   2 244.185 18.6802   2
  -4  -4   2 249.646 21.5109   6
   4   4  -1 1006.95 50.1446   1
  -4  -4   1 1044.43 41.9413   3
  -4  -4   1 1073.64 48.7433   5
  -4  -4   1 1021.90 36.5823   6
   4   4   0 1712.51 44.2335   6
  -4  -4   0 1716.25 52.0713   3
   4   4   0 1735.60 62.6914   1
  -4  -4   0 1676.99 57.0950   5
  -4  -4   0 1739.48 43.4839   6
  -4  -4  -1 856.985 38.1753   5
   4   4   1 853.667 43.7285   1
   4   4   1 877.296 28.6161   2
  -4  -4  -1 842.598 29.4043   6
   4   4   1 826.843 29.6694   6
  -4  -4  -2 3383.02 71.5500   5
   4   4   2 3342.04 80.3855   1
   4   4   2 3307.99 76.8267   4
  -4  -4  -2 3237.36 59.8678   6
   4   4   2 3382.52 60.0300   6
  -4  -4  -3 709.231 32.2971   5
   4   4   3 693.062 36.1075   1
  -4  -4  -3 700.134 33.0487   4
   4   4   3 682.187 34.3464   4
  -4  -4  -3 667.138 30.1860   6
   4   4   3 696.665 29.9018   6
   4   4   4 141.327 15.6060   6
   4   4   4 131.714 16.5905   1
  -4  -4  -4 153.977 17.1178   4
   4   4   4 156.843 17.5807   4
  -4  -4  -4 143.356 17.3767   6
   4   4   5 2159.55 58.9783   1
  -4  -4  -5 2066.88 52.4515   4
   4   4   5 2109.35 56.9679   4
   4   4   6 1030.66 39.2206   1
  -4  -4  -6 974.104 36.5822   4
  -4  -4  -6 993.223 52.7537   3
   4   4   6 1032.75 39.4498   4
   4   4   7 9.91223 9.77447   4
  -4  -4  -7 21.6544 15.6735   3
   4   4   7 26.5706 9.59134   1
  -4  -4  -7 15.0605 7.27513   4
   4   4   8 299.730 18.7836   1
  -4  -4  -8 317.514 35.1679   3
   4   4   8 279.477 21.7347   4
  -4  -4  -9 16.2813 15.5244   3
  -4  -4 -10 144.782 27.1722   3
  -4  -4 -11 26.2624 14.8794   3
  -4  -5   8 153.016 28.2166   6
   4   5  -7 20.6735 14.7622   1
  -4  -5   7 34.2350 20.6111   6
   4   5  -7 13.6809 12.6734   3
   4   5  -6 282.426 33.2842   1
  -4  -5   6 391.609 38.8096   6
  -4  -5   5 169.054 25.7394   6
   4   5  -5 174.303 27.5888   1
  -4  -5   4 40.6398 14.0054   6
   4   5  -4 1.63835 11.5305   1
  -4  -5   3 43.2412 13.5470   6
  -4  -5   3 45.0177 10.7544   2
   4   5  -3 52.9652 16.6726   1
  -4  -5   2 77.1036 16.5491   6
  -4  -5   2 50.4486 9.27911   2
   4   5  -2 54.9640 17.1399   1
   4   5  -1 161.521 19.5739   6
  -4  -5   1 173.122 18.7313   6
  -4  -5   1 153.543 21.3004   5
   4   5  -1 136.340 21.5832   1
   4   5   0 2073.31 57.1296   6
  -4  -5   0 2144.38 68.3843   5
   4   5   0 2105.41 74.0032   1
  -4  -5   0 2104.87 56.3570   6
  -4  -5  -1 1975.34 62.3216   5
   4   5   1 1893.72 68.8825   1
  -4  -5  -1 1883.36 51.4326   6
   4   5   1 1852.80 51.8397   6
  -4  -5  -2 60.7274 12.3521   6
   4   5   2 40.6823 13.4221   4
   4   5   2 50.3563 11.1577   6
  -4  -5  -2 47.1357 11.6274   5
   4   5   2 42.2685 13.8232   1
   4   5   2 45.2972 8.21407   2
  -4  -5  -3 1741.16 51.4774   5
  -4  -5  -3 1699.64 52.4001   6
   4   5   3 1689.61 61.6076   1
   4   5   3 1844.52 62.7190   4
   4   5   3 1795.39 52.1843   6
  -4  -5  -4 1560.57 46.9678   5
   4   5   4 1646.64 57.8466   4
   4   5   4 1556.62 57.9938   1
  -4  -5  -4 1451.86 51.5114   6
  -4  -5  -5 74.8164 16.3211   6
   4   5   5 53.7220 13.4965   4
   4   5   5 58.6428 14.5493   1
   4   5   6 340.980 26.8439   1
   4   5   6 341.860 27.0241   4
   4   5   7 48.4943 13.8280   4
   4   5   7 66.6241 12.9017   1
  -4  -5  -7 66.8626 18.4513   3
   4   5   8 33.9268 12.9363   4
  -4  -5  -8 29.7995 15.0669   3
   4   5   8 15.5430 8.90004   1
   4   5   9 118.101 18.1092   4
  -4  -5  -9 136.092 26.7350   3
  -4  -5 -10 259.502 35.7075   3
  -4  -5 -11 49.0579 20.4626   3
  -4  -5 -12 92.7014 23.4005   7
   4   6  -7 5.04176 11.2746   1
  -4  -6   7-45.2138 25.4771   6
  -4  -6   6 195.101 30.4950   6
   4   6  -6 216.707 32.3638   1
   4   6  -5 329.190 36.9800   1
  -4  -6   5 313.857 35.3720   6
   4   6  -4 360.725 38.7298   1
  -4  -6   4 321.397 32.6703   6
   4   6  -3 266.555 31.8751   1
  -4  -6   3 306.705 30.7760   6
  -4  -6   2 28.8001 13.0016   6
   4   6  -2 46.7800 16.0134   1
   4   6  -1 30.2511 13.6358   1
  -4  -6   1 53.6198 15.1286   6
   4   6   0 844.055 51.5627   1
  -4  -6   0 828.033 41.1817   6
  -4  -6  -1 777.650 41.9328   5
   4   6   1 748.297 47.5661   1
  -4  -6  -1 749.609 37.8414   6
   4   6   2 62.8040 16.6025   4
  -4  -6  -2 51.0007 12.3652   5
   4   6   2 70.3879 17.4423   1
  -4  -6  -2 68.4694 13.5861   6
  -4  -6  -3 80.9545 15.7038   6
   4   6   3 69.4581 17.2577   4
   4   6   3 74.1608 17.4309   1
  -4  -6  -3 90.1926 14.4627   5
  -4  -6  -4 149.086 19.6183   6
   4   6   4 152.928 21.8709   4
  -4  -6  -4 148.996 16.5787   5
   4   6   4 142.515 22.5107   1
  -4  -6  -5 791.401 33.7616   5
   4   6   5 850.774 46.7308   1
   4   6   5 912.331 47.3556   4
  -4  -6  -5 800.637 43.4381   6
  -4  -6  -6 38.7230 16.6033   6
  -4  -6  -6 13.2271 6.58247   5
   4   6   6 13.2330 13.3621   4
   4   6   6 12.9094 15.1757   1
   4   6   7 197.927 24.4206   4
   4   6   7 189.108 22.8920   1
  -4  -6  -8-15.3369 13.3629   3
   4   6   8 3.55323 10.3969   4
   4   6   8-0.57091 10.2192   1
   4   6   9 42.6972 15.2027   4
  -4  -6  -9 79.1909 21.9871   3
   4   6   9 43.4516 11.7364   1
  -4  -6 -10 86.3211 23.5626   3
  -4  -6 -11-3.53297 15.4919   3
  -4  -7   6 171.740 30.6139   6
   4   7  -6 179.847 30.6603   1
   4   7  -5 346.667 38.8453   1
  -4  -7   5 377.030 40.9048   6
   4   7  -4 299.415 36.6314   1
  -4  -7   4 336.061 37.2866   6
   4   7  -3 268.084 33.5443   1
  -4  -7   3 317.363 33.8816   6
  -4  -7   2-12.3971 12.7892   6
   4   7  -2-26.3967 17.1953   1
   4   7  -1 284.251 33.9057   1
  -4  -7   1 342.498 30.6883   6
  -4  -7   0 92.4665 18.7988   6
   4   7   0 59.4850 17.5209   1
   4   7   1 1531.08 71.3732   1
  -4  -7  -1 1612.85 61.3087   6
  -4  -7  -2 120.979 17.5845   6
   4   7   2 147.232 24.6045   4
  -4  -7  -2 149.568 21.1363   5
   4   7   2 137.514 24.3534   1
  -4  -7  -3 70.3324 14.6465   6
   4   7   3 111.520 21.9925   4
   4   7   3 70.0021 5.63984   2
   4   7   3 90.1879 21.3093   1
  -4  -7  -3 101.520 16.6210   5
  -4  -7  -4 189.609 23.8750   6
  -4  -7  -4 224.819 21.0746   5
   4   7   4 259.038 30.3029   1
   4   7   4 228.991 28.7422   4
  -4  -7  -5 1075.06 40.3924   5
   4   7   5 1012.82 55.4360   1
   4   7   5 1095.27 57.2889   4
  -4  -7  -5 1002.02 51.1937   6
  -4  -7  -6 1378.90 42.6364   5
   4   7   6 1291.78 61.3264   1
   4   7   6 1305.51 60.7569   4
  -4  -7  -6 1295.70 60.9666   6
  -4  -7  -7 226.748 29.2078   6
  -4  -7  -7 267.444 18.9514   5
   4   7   7 259.548 28.6991   1
   4   7   7 268.606 28.9016   4
   4   7   8 7.30125 13.9555   4
   4   7   8 18.3406 14.2262   1
   4   7   9 167.527 24.9899   4
  -4  -7  -9 104.912 21.3879   3
   4   7   9 219.611 25.7795   1
  -4  -7 -10 309.641 40.0501   3
  -4  -7 -11 67.9447 24.3754   3
   4   8  -5 390.120 44.4327   1
  -4  -8   5 382.767 42.3986   6
   4   8  -4 359.619 43.7007   1
  -4  -8   4 368.327 39.9368   6
  -4  -8   3 263.186 34.2802   6
   4   8  -3 209.141 32.0179   1
  -4  -8   2 30.2818 16.2020   6
   4   8  -2 48.7745 21.1119   1
  -4  -8   1 80.2828 19.3322   6
   4   8  -1 108.647 25.2647   1
   4   8   0 332.249 37.2844   1
  -4  -8   0 338.410 33.5125   6
   4   8   1 2040.91 89.0077   1
  -4  -8  -1 2127.39 77.6755   6
   4   8   2-8.14867 13.8506   1
  -4  -8  -2-17.6642 14.6546   6
   4   8   2 8.77546 14.1996   4
   4   8   3 792.553 54.3312   1
  -4  -8  -3 875.765 49.1946   6
   4   8   3 857.900 56.1435   4
  -4  -8  -4 21.6940 12.1300   6
   4   8   4 38.8419 17.7157   4
   4   8   4 29.6553 15.4764   1
  -4  -8  -5 62.9515 16.8516   6
   4   8   5 67.8361 18.9695   4
   4   8   5 50.2420 15.9106   1
  -4  -8  -5 116.841 15.7740   5
   4   8   6 756.647 51.9462   1
   4   8   6 788.017 51.9452   4
  -4  -8  -6 771.744 49.4918   6
   4   8   7 510.244 42.4510   4
   4   8   7 502.798 42.4295   1
  -4  -8  -7 505.713 43.4175   6
  -4  -8  -8 114.172 22.6779   6
   4   8   8 137.352 23.9724   4
   4   8   8 155.401 25.3554   1
   4   8   9 2.07706 13.5935   4
   4   8   9 20.4957 14.2207   1
   4   8  10 190.349 27.6163   4
  -4  -8 -10 102.311 24.6729   3
  -4  -9   3 642.843 53.4204   6
   4   9  -3 548.405 52.9728   1
  -4  -9   2-16.5696 17.4457   6
   4   9  -2-13.2765 16.8613   1
  -4  -9   1-11.1690 16.7806   6
   4   9  -1 16.2492 16.2413   1
  -4  -9   0-3.43957 14.9803   6
   4   9   0-5.60160 14.2936   1
   4   9   1 380.679 41.8807   1
  -4  -9  -1 318.094 34.5266   6
   4   9   2 91.9228 25.1089   1
  -4  -9  -2 85.8096 20.7874   6
   4   9   2 77.1573 22.1781   4
  -4  -9  -3 10.3375 12.2604   6
   4   9   3 7.26255 14.9197   4
   4   9   3 17.2687 17.4195   1
   4   9   4-7.25440 14.2936   1
  -4  -9  -4-17.7337 14.5204   6
   4   9   4-9.07736 17.2513   4
  -4  -9  -5 131.435 23.1276   6
   4   9   5 189.049 29.9468   1
   4   9   5 147.305 26.1918   4
  -4  -9  -6 86.8738 20.6466   6
   4   9   6 74.2017 21.0812   4
   4   9   6 54.5335 19.9758   1
   4   9   7 236.168 31.7516   4
  -4  -9  -7 277.948 34.9162   6
   4   9   7 283.202 36.0154   1
   4   9   8 723.503 54.2817   1
   4   9   8 667.632 51.8527   4
  -4  -9  -8 692.468 53.5304   6
   4   9   9 235.994 32.5461   4
   4   9   9 299.826 36.3286   1
   4   9  10 548.966 47.1947   4
  -4 -10   2 59.1986 18.6446   6
  -4 -10   1 226.183 34.0840   6
   4  10  -1 202.751 33.3384   1
  -4 -10   0 34.8165 18.9251   6
   4  10   0 28.3654 16.4580   1
   4  10   1 422.367 47.0346   1
  -4 -10  -1 408.977 42.3035   6
  -4 -10  -2 126.488 24.6593   6
   4  10   2 154.379 31.9384   1
  -4 -10  -3 82.7742 21.2678   6
   4  10   3 82.2694 23.0503   4
   4  10   3 71.4134 23.5606   1
  -4 -10  -4 87.5999 21.1204   6
   4  10   4 84.2129 21.9204   4
   4  10   4 96.9843 24.7443   1
  -4 -10  -5-11.1746 14.4171   6
   4  10   5 18.5790 17.1504   4
   4  10   5-9.11559 15.2436   1
  -4 -10  -6 250.847 32.6369   6
   4  10   6 237.795 34.4181   4
   4  10   6 247.528 35.9056   1
  -4 -10  -7 2.71667 14.2583   6
   4  10   7-24.5911 19.5650   4
   4  10   7 9.78596 14.5686   1
  -4 -10  -8-24.7733 17.5457   6
   4  10   8 8.99324 16.6134   4
   4  10   8 5.70299 15.8518   1
   4  10   9 354.182 41.9838   1
   4  10   9 392.554 43.6490   4
  -4 -10  -9 384.373 43.9878   6
   4  10  10 179.787 31.5300   4
  -4 -11   0 0.32698 15.3153   6
  -4 -11  -1 131.953 31.6899   6
  -4 -11  -2-33.8335 24.1931   6
  -4 -11  -3 121.204 28.4149   6
   4  11   3 35.0053 20.4990   1
   4  11   3 104.209 28.2842   4
  -4 -11  -4 130.801 26.9683   6
   4  11   4 31.4275 18.0472   4
   4  11   4 109.789 28.6073   1
  -4 -11  -5 101.537 24.5975   6
   4  11   5 101.166 25.9084   4
   4  11   5 118.385 28.9107   1
  -4 -11  -6 74.0422 22.6019   6
   4  11   6 97.0145 26.7687   4
   4  11   6 94.5711 27.9247   1
  -4 -11  -7 26.3470 18.6817   6
   4  11   7 52.6729 18.7923   4
   4  11   7 62.1331 22.0283   1
  -4 -11  -8 80.8367 27.6106   6
   4  11   8 122.613 30.6531   4
   4  11   8 76.7121 24.2113   1
   4  11   9 24.9567 20.9461   4
   4  11   9 48.7784 20.8975   1
  -4 -12  -3 0.33724 15.9332   6
  -4 -12  -4 38.6664 23.4528   6
  -4 -12  -5 3.21655 15.7231   6
  -4 -12  -6 29.6684 20.3030   6
   5 -11  -6 13.3239 15.9553   7
   5 -11  -5 22.2041 13.7036   7
   5 -10  -7 193.005 34.9514   6
   5 -10  -7 168.800 31.5912   7
  -5  10   6-8.80745 17.5663   4
   5 -10  -6 39.9261 20.4119   6
   5 -10  -6 45.5428 17.4354   7
  -5  10   5-7.31245 17.3805   4
   5 -10  -5-17.5383 20.8660   7
  -5  10   4 195.533 33.2845   4
   5 -10  -4 157.813 30.4113   6
   5 -10  -4 171.881 29.2007   7
  -5  10   3 126.504 28.4124   4
   5 -10  -3 89.6447 24.9624   6
   5 -10  -3 106.606 21.1556   7
  -5  10   2 46.4732 19.5918   4
   5 -10  -2 72.7923 23.4380   6
  -5  10   1 63.9034 20.9682   4
   5 -10  -1-0.09403 23.0654   6
  -5  10   0 43.7345 17.9827   4
   5  -9  -9 32.3502 21.9023   6
   5  -9  -8-3.99891 18.7332   6
   5  -9  -8 12.4138 12.8423   7
  -5   9   8 52.0270 25.0649   4
   5  -9  -7 133.115 26.5610   6
   5  -9  -7 187.495 32.3165   7
  -5   9   7 146.188 30.1773   4
   5  -9  -6 149.487 28.7101   6
   5  -9  -6 149.909 28.2002   7
  -5   9   6 149.446 31.1441   4
  -5   9   5 19.1540 19.2678   4
   5  -9  -5 3.97847 15.9813   6
   5  -9  -5-7.20795 17.3250   7
   5  -9  -4 29.3917 17.7016   6
  -5   9   4-5.68185 19.7950   4
   5  -9  -4-14.4562 15.3199   7
  -5   9   3 64.6316 23.0660   4
   5  -9  -3 82.9072 21.9759   6
   5  -9  -3 53.9857 14.4212   7
  -5   9   2 49.7951 21.0868   4
   5  -9  -2-25.4967 17.1140   6
   5  -9  -2 17.9751 10.5802   7
  -5   9   1 33.2709 19.2164   4
   5  -9  -1-21.4202 18.9967   6
  -5   9   0 12.1484 15.3671   4
   5  -9   0 40.0563 18.9277   6
  -5   9  -1 34.3338 15.8109   4
   5  -9   1 64.5244 22.6657   6
  -5   9  -2 212.170 36.5043   3
   5  -8 -10 24.5850 16.6606   6
   5  -8  -9 401.830 43.7057   6
  -5   8   9 410.691 47.0864   4
   5  -8  -9 498.421 51.0745   7
   5  -8  -8 197.479 32.4656   6
   5  -8  -8 239.929 34.1087   7
  -5   8   8 171.931 30.2217   4
   5  -8  -7-4.00716 15.3182   6
   5  -8  -7-19.1395 18.2093   7
  -5   8   7 2.87525 21.9899   4
  -5   8   6 622.680 51.9340   4
   5  -8  -6 668.128 52.5271   7
   5  -8  -6 672.150 52.1370   6
   5  -8  -5 321.296 35.3593   7
   5  -8  -5 346.773 37.2724   6
  -5   8   5 287.635 35.7280   4
   5  -8  -4 179.526 28.0868   6
   5  -8  -4 213.582 29.1064   7
  -5   8   4 171.812 28.5892   4
   5  -8  -3 747.071 54.9314   6
  -5   8   3 634.086 49.2960   4
   5  -8  -3 737.358 47.8903   7
  -5   8   2 73.5148 20.6811   4
   5  -8  -2 69.5602 19.4212   6
   5  -8  -2 65.1508 15.3526   7
  -5   8   1 260.529 31.4540   4
   5  -8  -1 207.037 27.0193   2
   5  -8  -1 283.271 27.2586   7
   5  -8  -1 269.576 36.9288   6
  -5   8   0-11.9085 14.9660   4
   5  -8   0 35.9470 19.9428   6
   5  -8   0 11.4211 13.7386   2
  -5   8  -1 262.764 31.1306   4
   5  -8   1 253.631 36.2783   6
   5  -8   1 215.351 28.2149   2
  -5   8  -1 245.118 34.5235   3
   5  -8   2 279.549 38.5962   6
  -5   8  -2 333.957 42.6042   3
   5  -8   2 276.590 31.6574   2
  -5   8  -2 272.605 31.8029   4
  -5   8  -3 616.472 56.5455   3
   5  -8   3 555.120 54.6389   6
   5  -7 -10 149.243 30.6059   7
  -5   7  10 67.9417 24.9237   4
   5  -7  -9 83.1825 22.1927   6
   5  -7  -9 156.129 28.4676   7
  -5   7   9 94.7419 25.6435   4
   5  -7  -8 201.822 30.5333   6
  -5   7   8 193.896 33.1266   4
   5  -7  -8 225.541 31.9933   7
  -5   7   7 1009.22 64.4708   4
   5  -7  -7 1182.30 68.8038   7
   5  -7  -7 1119.91 64.0797   6
   5  -7  -6 5.77055 12.7768   6
   5  -7  -6-3.25564 13.5126   7
  -5   7   6-25.7647 19.7672   4
   5  -7  -5 19.3419 12.1736   6
   5  -7  -5 65.8352 18.9956   7
  -5   7   5 59.7815 19.2274   4
  -5   7   4 917.463 55.9867   4
   5  -7  -4 955.384 54.8459   7
   5  -7  -4 839.379 52.8631   6
  -5   7   3 589.491 44.3067   4
   5  -7  -3 663.920 43.4827   7
   5  -7  -3 564.914 44.0701   6
  -5   7   2 222.291 28.0948   4
   5  -7  -2 165.709 25.9218   6
   5  -7  -2 220.378 24.4184   7
  -5   7   1 225.005 27.8143   4
   5  -7  -1 231.598 31.2716   6
   5  -7  -1 243.322 27.6175   2
   5  -7  -1 266.692 25.0416   7
  -5   7   0 75.2385 18.3423   4
   5  -7   0 80.0975 22.3331   6
   5  -7   0 53.4191 10.8789   7
   5  -7   0 57.9983 17.9638   2
  -5   7   0 55.8024 17.5296   3
  -5   7  -1 89.7406 18.5803   4
   5  -7   1 77.4148 20.0340   6
   5  -7   1 62.2750 17.0622   2
  -5   7  -1 89.1043 23.6590   3
  -5   7  -2 32.7649 15.1925   4
   5  -7   2 36.5072 19.7752   6
  -5   7  -2 28.4508 15.6471   3
  -5   7  -3 1370.74 77.7325   3
  -5   7  -3 1455.06 64.1197   4
   5  -7   3 1459.18 82.4266   6
   5  -7   4 84.1075 28.0883   6
  -5   7  -4 39.7162 18.1474   3
   5  -7   5 194.846 38.7226   6
  -5   7  -5 210.850 36.4401   3
   5  -6 -10 85.7981 24.2538   7
  -5   6  10 85.0745 25.5223   4
   5  -6  -9 304.202 40.3431   7
  -5   6   9 247.458 35.5260   4
  -5   6   8 428.133 43.6631   4
   5  -6  -8 522.510 47.3654   7
   5  -6  -8 414.853 38.9249   6
  -5   6   7 768.129 54.2625   4
   5  -6  -7 779.808 54.6252   7
   5  -6  -7 765.711 50.5341   6
  -5   6   6 1165.58 42.4580   5
  -5   6   6 1251.93 65.9080   4
   5  -6  -6 1309.60 67.4070   7
   5  -6  -6 1241.67 61.7375   6
   5  -6  -5 185.483 25.4867   6
   5  -6  -5 143.058 22.9617   7
  -5   6   5 145.153 15.9547   5
  -5   6   5 150.213 26.4859   4
  -5   6   4 755.443 48.8532   4
   5  -6  -4 809.161 48.6596   7
   5  -6  -4 808.708 48.3118   6
  -5   6   3 1862.20 71.8620   4
   5  -6  -3 2007.27 71.6315   7
   5  -6  -3 1828.29 71.0088   6
   5  -6  -2 329.576 32.7135   2
  -5   6   2 344.656 32.5109   4
   5  -6  -2 332.404 28.3858   7
   5  -6  -2 325.262 32.6023   6
  -5   6   1-15.8399 15.1460   4
   5  -6  -1-11.1006 14.5504   6
   5  -6  -1 1.88559 11.8736   2
   5  -6  -1-5.53209 10.9782   7
  -5   6   0 6.55687 12.6970   4
   5  -6   0 12.9775 13.5440   6
   5  -6   0-0.81713 8.65219   7
   5  -6   0 3.12655 12.1623   2
  -5   6   0 13.7080 12.2529   3
  -5   6  -1 18.0054 12.4115   4
   5  -6   1 18.2690 12.2981   6
  -5   6  -1 10.0524 13.2152   3
   5  -6   1-4.71055 14.3851   2
   5  -6   1 7.49642 6.95853   7
  -5   6  -2 59.5146 16.2745   4
   5  -6   2 28.2409 15.0437   6
  -5   6  -2 38.3998 17.3712   3
  -5   6  -3 1053.55 63.9119   3
  -5   6  -3 1146.95 51.6570   4
   5  -6   3 1033.32 64.5062   6
  -5   6  -4 426.182 44.0654   3
   5  -6   4 477.375 48.1521   6
  -5   6  -5 941.619 67.3977   3
   5  -6   5 869.713 66.1281   6
   5  -6   6 186.409 35.8307   6
  -5   6  -6 163.489 33.4300   3
   5  -5 -11 89.3562 24.4596   7
  -5   5  11 63.7329 25.5175   4
   5  -5 -10 14.5360 16.7835   7
  -5   5  10 28.4403 17.9261   4
   5  -5  -9 4066.36 144.809   7
  -5   5   9 9.94212 15.2514   4
   5  -5  -8 66.0595 19.1932   7
  -5   5   8 75.5599 22.7637   4
   5  -5  -7 386.796 35.2054   6
  -5   5   7 422.990 28.2370   5
  -5   5   7 417.807 40.7421   4
   5  -5  -7 463.924 42.0017   7
  -5   5   6 854.914 38.1596   5
  -5   5   6 858.647 53.6724   4
   5  -5  -6 925.010 55.4925   7
   5  -5  -6 856.550 48.9001   6
   5  -5  -5 733.899 34.1197   3
  -5   5   5 724.762 34.7471   5
  -5   5   5 780.960 49.0848   4
   5  -5  -5 809.155 49.3065   7
   5  -5  -5 742.738 44.3001   6
   5  -5  -4 2.54163 10.9307   6
   5  -5  -4 4.85082 11.8071   7
   5  -5  -4-4.95127 9.17176   3
  -5   5   4 12.6055 15.1573   4
   5  -5  -3 40.9496 15.2682   6
   5  -5  -3 33.9127 12.7798   7
   5  -5  -3 53.1813 13.7447   3
  -5   5   3 26.1718 15.8883   4
   5  -5  -2 503.121 37.4797   2
  -5   5   2 457.478 34.4798   4
   5  -5  -2 484.044 32.9037   7
   5  -5  -2 480.289 35.8182   6
  -5   5   1 2223.55 69.2328   3
   5  -5  -1 2243.76 76.3441   2
  -5   5   1 2169.35 67.6127   4
   5  -5  -1 2219.04 64.7407   7
   5  -5  -1 2205.99 74.9637   6
  -5   5   0 272.857 27.4748   3
   5  -5   0 215.414 25.6946   2
  -5   5   0 261.870 24.8943   4
   5  -5   0 232.783 20.2258   7
   5  -5   0 260.178 27.9152   6
  -5   5  -1 135.960 19.0949   4
   5  -5   1 133.330 23.0397   6
  -5   5  -1 136.163 22.6010   3
   5  -5   1 139.116 14.6318   7
  -5   5  -2 159.220 19.2199   4
   5  -5   2 166.300 26.2401   6
  -5   5  -2 175.553 25.6025   3
   5  -5   2 164.382 12.7798   7
  -5   5  -3 509.658 42.6267   3
  -5   5  -3 538.759 32.1291   4
   5  -5   3 509.059 43.0493   6
   5  -5   4 204.843 29.2115   6
  -5   5  -4 244.195 32.8593   3
   5  -5   5 19.0987 18.7721   6
  -5   5  -5 27.3528 17.9596   3
   5  -5   6 137.459 29.4697   6
  -5   5  -6 157.460 33.5554   3
   5  -5   7 49.1287 26.1629   6
  -5   5  -7 8.34481 18.8076   3
  -5   4  11 96.8103 27.4390   4
   5  -4 -11 165.290 31.2195   7
  -5   4  10 33.1493 20.6728   4
   5  -4 -10 20.7949 15.1060   7
  -5   4   9 356.233 39.6255   4
   5  -4  -9 353.827 39.7912   7
   5  -4  -8 112.877 23.4137   7
  -5   4   8 94.9271 23.9844   4
   5  -4  -7 9.72930 6.93082   3
  -5   4   7 15.4606 10.6318   5
   5  -4  -7 3.21670 11.1203   7
  -5   4   7 3.53882 14.4653   4
   5  -4  -6 118.847 19.3221   6
  -5   4   6 138.833 17.5626   5
   5  -4  -6 136.811 13.1343   3
   5  -4  -6 167.182 23.6904   7
  -5   4   6 124.878 24.8228   4
   5  -4  -5 272.052 18.2476   3
  -5   4   5 244.575 21.6586   5
   5  -4  -5 238.297 27.6334   7
   5  -4  -5 256.988 25.9679   6
  -5   4   5 250.316 29.4986   4
   5  -4  -4 45.6170 13.3543   6
   5  -4  -4 51.0425 10.9455   3
   5  -4  -4 45.4409 15.2376   7
  -5   4   4 45.6655 16.3829   4
   5  -4  -3 312.129 20.1210   3
  -5   4   3 396.353 31.9627   4
   5  -4  -3 379.245 30.9433   7
   5  -4  -3 350.245 26.9008   6
   5  -4  -2 152.460 19.2448   6
   5  -4  -2 159.851 22.7239   2
   5  -4  -2 123.531 14.2267   3
   5  -4  -2 143.352 18.6778   7
  -5   4   2 132.094 19.6657   4
  -5   4   1 378.951 26.6077   3
   5  -4  -1 374.205 32.0712   2
   5  -4  -1 389.540 26.3809   3
  -5   4   1 417.062 29.0532   4
   5  -4  -1 383.608 27.8000   7
   5  -4  -1 389.805 29.1501   6
  -5   4   0 368.376 28.2951   3
   5  -4   0 349.391 31.2619   2
   5  -4   0 369.816 24.7881   7
  -5   4   0 344.994 25.4288   4
  -5   4   0 350.816 23.4443   7
   5  -4   0 349.604 29.4813   6
  -5   4  -1 79.9406 14.3345   4
   5  -4   1 72.5038 16.2250   6
  -5   4  -1 77.5958 16.5755   3
   5  -4   1 90.0358 12.3375   7
   5  -4   1 72.5796 13.0344   4
  -5   4  -2 1.87418 8.93536   4
   5  -4   2 10.2344 13.3450   6
  -5   4  -2 0.72577 12.6831   3
   5  -4   2-16.3873 7.29993   7
   5  -4   2-0.29431 7.49513   4
  -5   4  -3 1789.57 73.1544   3
  -5   4  -3 1749.94 49.8293   4
   5  -4   3 1848.32 75.8435   6
  -5   4  -4 400.877 37.7714   3
   5  -4   4 399.905 38.5619   6
   5  -4   5 102.653 24.8721   6
  -5   4  -5 123.461 25.6120   3
  -5   4  -6 238.158 33.7640   3
   5  -4   6 214.671 33.2110   6
   5  -4   7 59.7742 22.6862   6
  -5   4  -7 31.6613 17.0709   3
   5  -4   8 127.945 31.8960   6
  -5   4  -8 142.503 31.8437   3
  -5   3  11 261.279 38.4932   4
   5  -3 -11 341.281 40.6671   7
   5  -3 -10 140.358 27.1222   7
  -5   3  10 69.7496 24.5694   4
   5  -3  -9-12.8012 12.3383   7
  -5   3   9 24.2162 15.8128   4
   5  -3  -8 265.985 32.1247   7
  -5   3   8 210.257 30.7492   4
  -5   3   7 470.361 33.6692   5
   5  -3  -7 426.317 20.4062   3
  -5   3   7 395.834 37.2908   4
   5  -3  -7 442.243 39.5996   7
  -5   3   6 2625.64 73.5205   5
   5  -3  -6 2480.33 42.2799   3
  -5   3   6 2548.04 86.8137   4
   5  -3  -6 2557.39 86.7165   7
   5  -3  -5 1675.64 33.4710   3
  -5   3   5 1797.78 57.8172   5
  -5   3   5 1776.03 69.6876   4
   5  -3  -5 1777.33 32.6882   3
   5  -3  -5 1990.95 73.6259   7
   5  -3  -5 1831.33 59.2659   6
   5  -3  -4 990.471 25.8018   3
  -5   3   4 1054.88 43.3790   5
  -5   3   4 997.896 49.3170   4
   5  -3  -4 1111.98 52.8514   7
   5  -3  -4 1034.76 42.1863   6
   5  -3  -3 2426.58 43.5899   3
  -5   3   3 2470.02 71.7051   4
   5  -3  -3 2574.59 75.2750   7
   5  -3  -3 2537.60 62.9381   6
  -5   3   3 2511.41 64.3868   6
   5  -3  -2 4512.74 101.897   2
   5  -3  -2 4503.95 66.8582   3
   5  -3  -2 4645.86 95.8783   7
  -5   3   2 4426.62 89.3354   4
   5  -3  -2 4389.29 80.2097   6
  -5   3   2 4535.71 84.7096   6
  -5   3   1 459.887 25.0764   3
   5  -3  -1 487.968 35.0766   2
   5  -3  -1 475.999 25.0583   3
   5  -3  -1 449.169 28.2366   4
  -5   3   1 486.480 29.1137   4
   5  -3  -1 487.769 30.2820   7
   5  -3  -1 494.676 28.9689   6
  -5   3   1 482.310 29.1453   6
   5  -3   0 120.907 16.4473   6
  -5   3   0 132.216 17.1084   6
  -5   3   0 131.848 15.2119   7
   5  -3   0 121.697 19.9295   2
   5  -3   0 124.481 15.6118   7
  -5   3   0 144.801 17.0631   3
  -5   3   0 128.254 15.5721   4
   5  -3   0 105.831 14.2632   3
   5  -3   0 127.691 15.1196   4
  -5   3  -1 92.8529 13.2903   4
   5  -3   1 77.6547 16.1339   6
   5  -3   1 59.2323 10.7472   4
  -5   3  -1 65.0091 10.4400   7
  -5   3  -1 81.9498 16.0510   3
   5  -3   1 70.3874 11.3575   7
  -5   3  -2 18.1164 7.73350   4
   5  -3   2 17.4746 12.1066   6
  -5   3  -2 17.4718 6.57195   7
  -5   3  -2 19.7097 11.7673   3
   5  -3   2 16.3481 6.81403   4
  -5   3  -3 5.40293 6.88912   4
   5  -3   3 5.45925 12.2561   6
  -5   3  -3 22.9035 5.99496   7
  -5   3  -3 4.54556 11.9940   3
   5  -3   3 23.2898 7.18301   4
   5  -3   4 401.414 36.3257   6
  -5   3  -4 384.062 35.1066   3
   5  -3   5 131.488 25.4821   6
  -5   3  -5 100.145 21.9847   3
   5  -3   6 32.3483 17.8633   6
  -5   3  -6 45.0316 20.3266   3
   5  -3   7 352.534 42.0338   6
  -5   3  -7 338.311 40.3013   3
   5  -3   8 74.3505 24.3321   6
  -5   3  -8 101.899 26.9763   3
   5  -3   9 71.9699 27.3306   6
   5  -2 -11-32.8150 19.3624   7
  -5   2  11 4.35889 17.0858   4
   5  -2 -10 121.406 23.6926   7
  -5   2  10 75.9467 23.3765   4
   5  -2  -9 69.4961 19.7235   7
  -5   2   9 49.7746 20.7003   4
   5  -2  -8 84.0872 18.7642   7
  -5   2   8 121.492 24.6628   4
  -5   2   7 276.140 27.9430   5
  -5   2   7 292.965 33.9817   4
   5  -2  -7 347.437 34.3071   7
  -5   2   6 1105.72 51.0306   5
   5  -2  -6 923.065 22.2945   3
  -5   2   6 1140.53 59.3823   4
   5  -2  -6 1120.21 57.4811   7
  -5   2   5 811.330 41.2751   5
  -5   2   5 807.087 47.3136   4
   5  -2  -5 817.731 47.4928   7
   5  -2  -4 99.6262 13.5734   6
  -5   2   4 108.195 14.0585   6
  -5   2   4 95.0026 14.9615   5
   5  -2  -4 112.858 18.5403   7
  -5   2   4 109.141 19.8913   4
   5  -2  -3 81.1140 12.2820   6
  -5   2   3 90.8938 13.1514   6
  -5   2   3 77.9396 14.6069   5
   5  -2  -3 74.3182 15.8982   7
  -5   2   3 71.6029 14.8006   4
   5  -2  -2 5106.05 104.734   2
   5  -2  -2 4861.90 50.9451   3
  -5   2   2 5074.29 93.2078   4
   5  -2  -2 5051.96 74.8992   6
  -5   2   2 4977.02 77.2748   6
   5  -2  -2 5131.93 99.6958   7
   5  -2  -1 2711.41 68.5365   7
  -5   2   1 2766.17 50.0924   3
   5  -2  -1 2725.58 76.0763   2
   5  -2  -1 2671.65 64.7479   4
   5  -2  -1 2673.88 47.9396   3
  -5   2   1 2827.35 63.9862   4
   5  -2  -1 2666.65 55.1180   6
  -5   2   1 2669.81 57.1113   6
  -5   2   0 145.030 15.5721   6
  -5   2   0 156.156 15.2735   3
   5  -2   0 145.809 15.1996   4
   5  -2   0 147.288 14.3493   3
  -5   2   0 153.364 15.3769   4
   5  -2   0 160.619 17.0728   7
   5  -2   0 142.278 20.6857   2
  -5   2   0 141.392 15.2623   7
   5  -2   0 153.166 15.4601   6
   5  -2   1-12.7749 9.62516   3
   5  -2   1 8.77698 9.86411   6
  -5   2  -1-0.19842 7.95343   6
   5  -2   1 2.39140 5.16272   4
  -5   2  -1-3.06136 5.63693   7
  -5   2  -1 16.8081 10.5703   3
   5  -2   1 2.43023 7.14998   7
  -5   2  -1 2.83444 6.58411   4
  -5   2  -2 372.335 28.1317   3
   5  -2   2 358.565 17.4395   4
  -5   2  -2 354.663 16.7736   4
  -5   2  -2 330.438 19.3309   7
  -5   2  -2 329.134 22.1253   1
   5  -2   2 313.807 25.2826   6
   5  -2   3 1081.33 49.4364   6
  -5   2  -3 1056.01 49.0410   3
   5  -2   3 870.778 21.6878   4
  -5   2  -3 1033.83 30.2433   7
  -5   2  -3 970.050 23.8481   4
  -5   2  -3 1041.28 36.8482   1
   5  -2   4 437.791 34.6843   6
  -5   2  -4 474.388 36.8239   3
  -5   2  -4 397.260 16.3784   7
  -5   2  -4 419.860 21.9363   1
   5  -2   5 278.400 31.5615   6
  -5   2  -5 216.971 14.0577   1
  -5   2  -5 255.278 29.9573   3
   5  -2   6 769.506 52.3201   6
  -5   2  -6 743.110 51.3081   3
   5  -2   7 784.317 57.3901   6
  -5   2  -7 733.994 55.0908   3
   5  -2   8 193.715 31.2558   6
  -5   2  -8 197.658 32.7408   3
   5  -2   9 31.5737 18.2605   6
  -5   2  -9 59.9311 24.7644   3
   5  -1 -11 839.621 61.2907   7
   5  -1 -10 655.903 52.2085   7
  -5   1  10 498.914 49.2249   4
  -5   1   9 398.730 43.2539   4
   5  -1  -9 476.267 42.9126   7
  -5   1   8 987.850 62.1803   4
   5  -1  -8 1080.86 61.1665   7
  -5   1   7 364.945 36.4867   4
   5  -1  -7 357.786 34.6191   7
   5  -1  -6 961.036 23.5259   3
  -5   1   6 1177.06 55.0323   5
  -5   1   6 1149.61 60.5304   4
   5  -1  -6 1151.27 58.3545   7
  -5   1   5 1261.78 54.3986   5
  -5   1   5 1206.22 57.4537   4
   5  -1  -5 1204.48 57.1162   7
  -5   1   5 1247.18 45.2597   6
  -5   1   4 146.136 19.3931   5
  -5   1   4 158.813 22.8873   4
   5  -1  -4 154.026 21.8157   7
  -5   1   4 154.846 15.0810   6
  -5   1   3 38.7883 7.82877   6
  -5   1   3 32.6114 10.5912   5
  -5   1   3 31.3013 11.8874   4
   5  -1  -3 24.5396 10.2030   7
  -5   1   2 792.353 37.8408   4
   5  -1  -2 784.808 39.7044   7
   5  -1  -2 769.615 24.6278   6
  -5   1   2 736.776 25.2215   6
  -5   1   1 6113.12 59.1650   3
   5  -1  -1 6055.30 109.003   2
  -5   1   1 5993.00 94.0508   4
   5  -1  -1 6115.59 57.2879   3
   5  -1  -1 6278.68 105.848   7
   5  -1  -1 6131.78 65.5741   6
  -5   1   1 5922.45 68.3784   6
  -5   1   0 1790.71 41.3196   6
  -5   1   0 1732.15 40.5359   3
   5  -1   0 1767.50 58.9612   2
  -5   1   0 1736.76 45.6994   4
   5  -1   0 1761.14 40.3028   3
  -5   1   0 1671.37 50.1665   7
   5  -1   0 1805.24 55.2656   7
  -5   1   0 1781.31 54.5512   1
   5  -1   0 1743.63 38.8505   6
  -5   1  -1 155.654 15.9227   3
  -5   1  -1 121.805 11.3492   4
   5  -1   1 150.081 14.7503   3
  -5   1  -1 132.077 14.2656   7
  -5   1  -1 146.591 16.3446   1
   5  -1   1 150.986 14.5592   6
   5  -1   2 946.224 37.6692   6
  -5   1  -2 945.787 39.9833   3
   5  -1   2 998.793 40.1681   3
  -5   1  -2 980.192 23.5730   4
  -5   1  -2 961.408 34.7153   7
  -5   1  -2 968.100 36.3206   1
  -5   1  -3 784.558 39.8752   3
  -5   1  -3 740.221 28.6428   7
  -5   1  -3 792.415 30.8045   1
   5  -1   3 772.051 38.6202   6
   5  -1   4 1160.10 51.9945   6
  -5   1  -4 1200.40 53.4709   3
  -5   1  -4 1092.39 32.9358   7
  -5   1  -4 1109.61 32.6875   1
   5  -1   5 322.060 30.8007   6
  -5   1  -5 251.147 13.2843   1
  -5   1  -5 312.872 32.3797   3
  -5   1  -5 267.623 15.7233   7
   5  -1   6 109.898 22.0075   6
  -5   1  -6 104.056 21.6682   3
   5  -1   7 859.932 57.3986   6
  -5   1  -7 824.294 55.4139   3
   5  -1   8 526.675 48.6226   6
  -5   1  -8 514.302 47.3701   3
   5  -1   9 175.978 30.6708   6
  -5   1  -9 170.586 31.1639   3
   5  -1  10 20.3306 17.8086   6
  -5   1 -10 56.0714 21.0059   3
   5   0 -11 128.130 24.9494   7
  -5   0  10 469.648 48.7234   4
   5   0 -10 511.867 47.5278   7
  -5   0   9 2.61058 14.6866   4
   5   0  -9 12.1563 11.6794   7
   5   0  -8 230.563 28.6077   7
  -5   0   8 256.696 34.4090   4
  -5   0   7 2.52093 13.2345   4
   5   0  -7 4.75986 10.5094   7
   5   0  -6 1985.30 40.6077   3
  -5   0   6 2105.51 77.9135   5
  -5   0   6 2111.07 81.8036   4
   5   0  -6 2237.32 80.4240   7
  -5   0   5 219.513 25.6949   5
   5   0  -5 186.470 24.6316   7
  -5   0   5 196.509 27.4381   4
  -5   0   5 222.036 20.2425   6
  -5   0   4 128.453 13.8177   6
  -5   0   4 152.754 20.5989   5
  -5   0   4 140.744 23.0065   4
   5   0  -4 121.630 19.5747   7
  -5   0   3 176.183 20.1168   5
  -5   0   3 147.426 19.9225   4
   5   0  -3 163.363 21.0202   7
  -5   0   3 168.159 13.1383   6
  -5   0   2 49.8741 5.96878   6
  -5   0   2 46.3020 10.9875   5
  -5   0   2 58.3074 13.8055   4
   5   0  -2 38.0885 11.1219   7
  -5   0   1 519.965 13.6574   6
   5   0  -1 597.703 34.9047   2
  -5   0   1 564.717 15.2080   3
  -5   0   1 643.230 32.3895   4
   5   0  -1 659.171 36.1321   7
  -5   0   0 118.461 10.2950   3
   5   0   0 103.095 17.1040   2
  -5   0   0 108.166 13.3342   4
   5   0   0 114.699 16.3251   7
   5   0   0 106.537 6.90175   6
  -5   0   0 141.039 16.8545   1
  -5   0  -1 2537.05 61.6579   7
  -5   0  -1 2458.38 52.0317   3
  -5   0  -1 2478.50 48.8453   4
   5   0   1 2551.37 43.2254   6
  -5   0  -1 2604.98 62.4402   1
  -5   0  -2 13.9356 9.75766   3
   5   0   2 6.32021 7.34193   3
   5   0   2 2.75865 7.01036   6
  -5   0  -2 19.6648 7.88273   1
  -5   0  -2 14.5372 5.36361   4
  -5   0  -2 2.15207 5.39096   7
   5   0   3 177.281 18.0722   6
  -5   0  -3 154.448 14.4076   1
  -5   0  -3 155.297 18.8514   3
  -5   0  -3 176.146 16.8044   7
   5   0   4 1170.40 48.5606   6
  -5   0  -4 1172.15 33.3242   1
  -5   0  -4 1222.49 51.9542   3
  -5   0  -4 1111.41 38.5331   7
   5   0   5 22.5547 13.1591   6
  -5   0  -5 24.9513 7.68767   7
  -5   0  -5 11.4347 4.48058   1
  -5   0  -5 16.8020 14.0267   3
  -5   0  -6 6.42527 14.1573   3
  -5   0  -7 259.178 31.7395   3
  -5   0  -8 168.493 27.9585   3
   5   0   9 22.3840 18.0142   6
  -5   0  -9 66.1929 21.5049   3
   5   0  10 73.0147 21.7624   6
  -5   0 -10 135.820 29.5132   3
  -5  -1  10 525.566 49.6988   6
  -5  -1  10 599.702 56.7720   4
   5   1 -10 586.602 49.5070   7
  -5  -1   9 50.8771 21.8178   4
   5   1  -9 43.7984 18.5767   7
  -5  -1   8 1.98631 15.3926   4
   5   1  -8-15.8954 14.1535   7
  -5  -1   7 9.16082 13.0607   4
   5   1  -7 15.8100 12.0791   7
   5   1  -6 73.9553 11.5540   3
  -5  -1   6 84.6923 21.9416   4
   5   1  -6 42.6931 13.4914   7
  -5  -1   5 1515.51 65.2839   5
   5   1  -5 1588.68 66.1490   7
   5   1  -5 1375.50 61.2073   1
  -5  -1   5 1468.85 35.5398   3
  -5  -1   4 564.125 38.7043   5
  -5  -1   4 488.108 17.4988   3
   5   1  -4 530.224 37.9268   7
   5   1  -4 428.146 33.8811   1
  -5  -1   4 572.780 27.3125   6
  -5  -1   3 6.80899 2.94156   3
  -5  -1   3-0.48464 5.81314   6
  -5  -1   3 2.31718 9.80733   5
   5   1  -3 8.14111 9.46508   7
   5   1  -3 4.56652 9.92292   1
  -5  -1   2 98.4374 7.80805   6
  -5  -1   2 82.2800 6.35389   3
  -5  -1   2 115.374 18.0786   5
   5   1  -2 95.6699 17.0980   7
  -5  -1   2 104.760 7.15258   6
   5   1  -2 110.856 18.1057   1
   5   1  -1 924.513 40.4044   2
  -5  -1   1 947.682 42.2043   5
  -5  -1   1 943.335 22.6554   3
   5   1  -1 936.543 43.1181   1
  -5  -1   0 73.8441 9.09854   3
   5   1   0 72.8938 12.7931   2
   5   1   0 57.5860 12.6812   1
   5   1   1 5.37857 2.72288   6
  -5  -1  -1 5.76696 6.92727   3
   5   1   1 5.04337 2.80690   6
  -5  -1  -1 2.19263 7.37223   1
   5   1   1 4.27848 8.02527   1
   5   1   2 1364.79 34.4872   6
  -5  -1  -2 1398.13 44.7774   1
  -5  -1  -2 1315.57 43.0124   3
  -5  -1  -2 1423.06 35.1861   4
  -5  -1  -2 1371.59 47.7024   7
   5   1   2 1289.34 43.0726   1
  -5  -1  -3 2727.78 58.5947   1
  -5  -1  -3 2685.02 67.5932   3
  -5  -1  -3 2691.54 36.6831   4
  -5  -1  -3 2771.54 66.9244   7
   5   1   3 2794.67 58.4989   1
  -5  -1  -4-5.65045 9.80201   3
  -5  -1  -4 10.3823 7.33689   1
  -5  -1  -5 1138.26 52.8775   3
  -5  -1  -6 227.000 27.0056   3
  -5  -1  -7-11.3492 13.3215   3
  -5  -1  -8 155.856 27.2630   3
  -5  -1  -9 33.5614 19.1278   3
  -5  -1 -10 2.27252 15.2518   3
  -5  -2   9 29.5919 18.5814   6
  -5  -2   9 15.7253 18.0903   4
   5   2  -9 40.4910 17.2415   7
  -5  -2   8 179.669 28.9317   6
  -5  -2   8 154.431 30.5581   4
   5   2  -8 156.969 25.7810   7
  -5  -2   7 47.5970 12.4971   6
   5   2  -7 58.8806 16.8074   1
   5   2  -7 76.4632 17.8032   7
  -5  -2   6 6.01986 10.3042   6
   5   2  -6-0.42786 7.36211   3
   5   2  -6 19.2913 14.1672   1
   5   2  -6-5.82436 9.96013   7
  -5  -2   5 262.039 25.1220   6
  -5  -2   5 203.060 27.4057   5
  -5  -2   5 197.478 17.6910   3
   5   2  -5 229.056 26.9433   7
   5   2  -5 217.616 27.1720   1
  -5  -2   4 65.8172 13.3864   6
  -5  -2   4 52.3334 17.3604   5
   5   2  -4 46.4654 13.8255   7
  -5  -2   4 57.6739 9.73761   3
   5   2  -4 34.1358 14.5919   1
  -5  -2   3 179.750 15.3389   6
   5   2  -3 172.195 22.7723   1
  -5  -2   3 212.717 25.2600   5
  -5  -2   3 177.234 13.5535   3
   5   2  -2 106.985 18.8557   1
  -5  -2   2 125.283 11.5724   3
  -5  -2   2 116.814 18.4738   5
  -5  -2   2 115.079 9.91119   6
  -5  -2   1 2361.24 45.2139   3
  -5  -2   1 2192.42 66.2052   5
   5   2  -1 2385.52 72.3303   1
   5   2   0 368.480 25.1115   2
  -5  -2   0 348.270 26.5692   5
   5   2   0 357.485 27.7912   1
  -5  -2  -1 804.627 34.4349   4
   5   2   1 781.252 37.7457   1
  -5  -2  -2 3711.48 76.6279   1
  -5  -2  -2 3467.06 70.4153   3
  -5  -2  -2 3625.34 65.3826   4
   5   2   2 3577.97 47.0789   6
   5   2   2 3422.97 74.7022   1
  -5  -2  -3 1333.25 43.9063   1
  -5  -2  -3 1239.22 46.7506   3
  -5  -2  -3 1378.10 35.2123   4
   5   2   3 1306.89 43.9320   1
   5   2   3 1265.04 36.6451   6
   5   2   4 3286.40 64.7589   1
  -5  -2  -4 3207.63 80.5356   3
  -5  -2  -4 3102.93 43.2569   4
  -5  -2  -4 3180.12 63.5477   1
   5   2   4 3130.76 66.8999   6
  -5  -2  -5 222.031 9.47781   4
  -5  -2  -5 287.315 27.9495   3
   5   2   5 301.976 18.6495   1
  -5  -2  -6 32.5005 15.0402   3
   5   2   6 39.5824 6.75676   1
  -5  -2  -7 655.619 46.7663   3
  -5  -2  -8 29.7897 16.6639   3
  -5  -2  -9 241.139 31.8984   3
  -5  -2 -10 127.670 28.6444   3
  -5  -2 -11 35.2702 19.9655   3
  -5  -3   9 124.673 27.5427   4
  -5  -3   8 72.9683 23.0764   6
   5   3  -8 19.9757 14.0820   1
  -5  -3   7 675.716 47.8421   6
   5   3  -7 573.790 46.0117   1
  -5  -3   6 1260.57 58.8290   6
   5   3  -6 1126.78 61.9580   1
  -5  -3   5 483.539 34.4295   6
   5   3  -5 433.071 38.3446   1
  -5  -3   4 213.274 21.4862   6
  -5  -3   4 211.114 28.0427   5
  -5  -3   4 193.693 18.2097   3
   5   3  -4 251.035 28.9213   1
  -5  -3   3 711.778 45.2846   5
  -5  -3   3 698.816 31.6863   3
   5   3  -3 652.045 43.0892   1
  -5  -3   3 709.340 32.3214   6
  -5  -3   2 75.7145 10.1853   6
   5   3  -2 66.7281 16.0700   1
  -5  -3   2 71.2830 15.8592   5
  -5  -3   2 89.0904 15.8908   2
  -5  -3   2 73.4083 11.7716   3
   5   3  -1 1466.92 61.2146   1
  -5  -3   1 1531.39 43.8806   3
  -5  -3   1 1582.04 59.3601   5
  -5  -3   1 1523.69 31.6278   6
   5   3   0 590.837 37.7272   1
   5   3   0 567.371 29.0081   2
  -5  -3   0 606.359 35.7392   5
  -5  -3   0 524.260 15.0411   6
   5   3   1 9.28234 3.78569   6
  -5  -3  -1 20.9340 9.23637   5
   5   3   1 23.1267 11.1581   1
   5   3   1 25.6015 9.51856   2
   5   3   2 1471.90 54.6880   1
  -5  -3  -2 1432.93 47.1117   4
   5   3   2 1380.56 31.6494   6
   5   3   3 1220.85 47.4751   1
  -5  -3  -3 1198.05 45.5680   1
  -5  -3  -3 1199.73 39.2582   4
   5   3   3 1227.63 35.5944   6
   5   3   4 966.863 40.2932   1
  -5  -3  -4 887.050 44.0940   3
  -5  -3  -4 922.869 31.7344   4
   5   3   4 892.354 35.7266   6
  -5  -3  -5 0.54679 12.1808   3
   5   3   5 12.9113 8.18800   1
  -5  -3  -5 11.4709 7.53464   4
   5   3   6 743.698 30.7515   1
  -5  -3  -6 687.990 23.6793   4
  -5  -3  -6 711.280 45.4373   3
   5   3   6 626.116 24.3722   4
   5   3   7 43.2538 7.75091   1
  -5  -3  -7 37.5618 16.9724   3
   5   3   7 44.7472 7.44147   4
  -5  -3  -8 1773.70 79.0073   3
  -5  -3  -9 425.176 42.4074   3
  -5  -3 -10-8.62729 16.4354   3
  -5  -3 -11 138.577 28.1831   3
  -5  -4   8-4.37331 20.7399   6
   5   4  -8 48.0691 18.9683   1
  -5  -4   7 228.826 30.1281   6
   5   4  -7 213.574 31.6705   1
  -5  -4   6 1424.68 65.1855   6
   5   4  -6 1391.03 72.2520   1
  -5  -4   5 2104.94 73.3173   6
   5   4  -5 2061.93 84.6896   1
   5   4  -4 1375.85 67.2121   1
  -5  -4   4 1413.69 55.4880   6
   5   4  -3 531.956 41.9940   1
  -5  -4   3 519.035 41.1619   5
  -5  -4   3 544.215 31.1800   6
   5   4  -2 684.607 46.7143   1
  -5  -4   2 747.931 45.3744   5
  -5  -4   2 703.339 34.8326   2
  -5  -4   2 720.800 31.9749   6
   5   4  -1 896.231 51.3178   1
  -5  -4   1 943.484 40.3615   3
  -5  -4   1 872.742 46.9135   5
  -5  -4   1 904.150 31.3891   6
   5   4   0 483.109 22.5740   6
   5   4   0 430.427 34.5318   1
  -5  -4   0 476.908 34.0340   5
  -5  -4   0 475.467 20.6514   6
  -5  -4  -1 63.6141 9.36776   6
   5   4   1 40.9136 7.37684   6
  -5  -4  -1 62.6993 14.2221   5
   5   4   1 77.0470 12.8204   2
   5   4   1 77.8173 16.9734   1
   5   4   2 1102.33 49.9570   1
  -5  -4  -2 1107.26 45.9117   5
  -5  -4  -2 1088.37 33.3963   6
   5   4   2 1132.79 33.8180   6
   5   4   3 1137.89 49.4491   1
  -5  -4  -3 1139.00 45.3992   5
   5   4   3 1214.82 38.1167   6
   5   4   4 2312.96 67.0943   1
  -5  -4  -4 2298.46 58.3282   4
   5   4   4 2367.95 62.1686   4
   5   4   4 2398.85 58.4578   6
   5   4   5 4.42559 8.39668   4
  -5  -4  -5 27.8991 16.8349   3
   5   4   5 9.99229 9.86742   1
  -5  -4  -5 7.88268 9.11600   4
   5   4   6 323.144 24.1970   1
  -5  -4  -6 273.578 19.6404   4
  -5  -4  -6 286.086 31.5624   3
   5   4   6 289.735 21.9306   4
   5   4   7 7.94378 8.39347   4
  -5  -4  -7-1.87650 13.4136   3
   5   4   7-0.15299 7.92465   1
  -5  -4  -8 995.220 59.9861   3
  -5  -4  -9 84.7387 22.6801   3
  -5  -4 -10 57.6848 21.9667   3
  -5  -4 -11 10.0735 15.7234   3
   5   5  -7 25.6441 12.9669   1
   5   5  -6 133.979 25.2339   1
  -5  -5   6 110.780 22.7723   6
  -5  -5   5 191.806 25.0337   6
   5   5  -5 172.031 28.1861   1
   5   5  -4 397.082 39.1957   1
  -5  -5   4 451.186 34.3763   6
  -5  -5   3 27.8623 10.2792   6
   5   5  -3 49.8335 18.6119   1
  -5  -5   2 13.8927 9.38590   6
  -5  -5   2 16.9707 14.7387   5
   5   5  -2 8.10250 12.9301   1
  -5  -5   1 155.884 16.7067   6
  -5  -5   1 185.342 26.4146   5
   5   5  -1 185.050 26.1217   1
  -5  -5   0 4.04969 7.81355   6
   5   5   0 33.9868 11.5292   6
  -5  -5   0-0.77762 11.6716   5
   5   5   0 19.0586 14.3214   1
   5   5   1 1079.52 55.0564   1
  -5  -5  -1 1119.39 50.4139   5
  -5  -5  -1 1064.67 36.6137   6
   5   5   1 1086.07 37.9010   6
   5   5   2 588.116 40.1296   1
  -5  -5  -2 612.144 35.9199   5
   5   5   2 592.705 27.2813   2
  -5  -5  -2 567.778 28.1449   6
   5   5   2 555.407 27.5814   6
   5   5   3 541.939 37.9898   1
  -5  -5  -3 541.182 32.7320   5
  -5  -5  -3 483.079 27.6447   6
   5   5   3 506.304 27.5277   6
   5   5   4 1669.62 63.5047   1
  -5  -5  -4 1728.72 55.8807   5
   5   5   4 1813.94 61.7198   4
  -5  -5  -4 1606.96 52.7370   6
   5   5   4 1618.21 51.6688   6
   5   5   5 1252.26 53.1794   1
   5   5   5 1272.99 50.4955   4
   5   5   6 1043.14 47.0191   1
   5   5   6 1030.29 45.1102   4
   5   5   7 22.7303 10.4857   1
   5   5   7 17.8596 9.23305   4
  -5  -5  -7 22.9184 14.5762   3
   5   5   8 1218.94 46.0015   1
  -5  -5  -8 1245.46 68.1289   3
   5   5   8 1133.44 46.4333   4
  -5  -5  -9 210.248 32.5979   3
  -5  -5 -10 94.4654 23.9601   3
  -5  -5 -11 20.1434 17.4152   3
   5   6  -6 246.510 35.0880   1
  -5  -6   5 143.728 25.8611   6
   5   6  -5 212.985 32.0973   1
  -5  -6   4 90.9039 20.7647   6
   5   6  -4 78.5223 23.3633   1
   5   6  -3 624.929 50.1421   1
  -5  -6   3 669.014 42.3296   6
   5   6  -2 394.110 39.3469   1
  -5  -6   2 381.530 30.2720   6
  -5  -6   1-2.48399 10.9785   6
   5   6  -1-70.5693 18.7592   1
   5   6   0 694.410 49.0891   1
  -5  -6   0 741.901 45.9807   5
  -5  -6   0 735.335 36.5184   6
   5   6   1 206.969 20.2850   6
   5   6   1 231.134 28.9987   1
  -5  -6  -1 222.007 25.7437   5
  -5  -6  -1 233.083 20.8781   6
  -5  -6  -2 67.8271 12.1420   6
   5   6   2 60.7519 13.1755   6
   5   6   2 91.4483 20.6781   1
  -5  -6  -2 75.7845 15.1602   5
   5   6   2 73.1682 9.84420   2
  -5  -6  -3 333.894 27.0127   5
   5   6   3 380.622 35.5319   1
   5   6   3 349.672 33.5473   4
  -5  -6  -3 369.800 27.0980   6
  -5  -6  -4 1549.39 54.2160   5
   5   6   4 1547.73 65.6397   1
   5   6   4 1578.18 64.1657   4
  -5  -6  -4 1453.98 53.9969   6
  -5  -6  -5 12.5167 11.8914   6
   5   6   5 22.6863 12.7739   4
  -5  -6  -5 12.1475 8.09524   5
   5   6   5 0.64739 10.7475   1
  -5  -6  -6 705.061 35.7376   5
   5   6   6 753.974 44.2495   1
   5   6   6 722.245 42.4305   4
   5   6   7 190.009 22.2445   1
   5   6   7 191.288 23.1078   4
   5   6   8 0.65953 10.1065   4
  -5  -6  -8 4.51366 13.3782   3
   5   6   8 6.82992 8.70871   1
  -5  -6  -9 110.448 25.0957   3
  -5  -6 -10-1.98613 13.6849   3
  -5  -6 -11 2.26452 15.3185   3
   5   7  -6 41.7405 19.1999   1
   5   7  -5-58.2718 20.6702   1
  -5  -7   4 172.039 26.9650   6
   5   7  -4 184.460 30.8166   1
  -5  -7   3 6.95478 12.2298   6
   5   7  -3 44.0953 17.5196   1
  -5  -7   2 203.570 24.2334   6
   5   7  -2 183.706 28.6711   1
   5   7  -1 517.188 45.6629   1
  -5  -7   1 544.429 37.5526   6
   5   7   0 76.4940 17.7776   1
  -5  -7   0 108.286 19.5324   6
  -5  -7  -1-5.61689 12.1297   6
   5   7   1 13.4791 12.0245   1
  -5  -7  -1 14.6955 12.7174   5
  -5  -7  -2 261.228 26.7769   5
   5   7   2 209.239 27.7187   1
  -5  -7  -2 205.490 22.4435   6
  -5  -7  -3 40.0207 12.5770   6
   5   7   3 37.2815 16.3135   4
  -5  -7  -3 33.3561 11.7779   5
   5   7   3 59.5973 18.9797   1
  -5  -7  -4 669.534 37.6521   5
   5   7   4 656.100 47.2107   1
   5   7   4 652.107 45.9814   4
  -5  -7  -4 612.997 38.0863   6
  -5  -7  -5 28.8897 13.3135   6
   5   7   5 26.0316 15.1069   4
  -5  -7  -5 49.3661 12.5900   5
   5   7   5 31.9298 13.8800   1
  -5  -7  -6 50.2754 13.8522   6
   5   7   6 77.8014 18.7001   4
  -5  -7  -6 88.9063 14.3189   5
   5   7   6 76.8622 19.0959   1
   5   7   7 8.59363 12.2556   4
  -5  -7  -7-20.0428 8.98865   5
   5   7   7 10.8336 14.3735   1
   5   7   8 685.138 44.0612   1
   5   7   8 671.982 44.8189   4
  -5  -7  -9 137.197 27.5068   3
  -5  -7 -10 39.2821 20.0338   3
   5   8  -4 49.0663 22.7491   1
   5   8  -3 274.094 37.8221   1
   5   8  -2 624.688 53.4710   1
  -5  -8   2 699.499 48.1374   6
  -5  -8   1 152.723 22.4960   6
   5   8  -1 141.181 26.7398   1
   5   8   0 526.554 49.0831   1
  -5  -8   0 549.036 40.0843   6
  -5  -8  -1 142.119 21.6837   6
   5   8   1 145.121 27.9534   1
  -5  -8  -2 41.1263 14.0486   6
   5   8   2 31.9657 15.6290   1
  -5  -8  -3 707.103 42.5007   5
   5   8   3 689.019 53.5452   1
   5   8   3 697.520 51.1278   4
  -5  -8  -3 669.932 42.5938   6
  -5  -8  -4 856.136 43.8715   5
   5   8   4 862.375 57.8260   1
   5   8   4 965.285 59.7455   4
  -5  -8  -4 887.452 49.2701   6
  -5  -8  -5 135.786 22.8720   6
   5   8   5 179.014 26.8650   4
  -5  -8  -5 160.749 19.1175   5
   5   8   5 145.733 26.1727   1
  -5  -8  -6 161.537 25.4348   6
   5   8   6 234.987 30.5504   4
   5   8   6 171.813 27.9251   1
  -5  -8  -7 46.9612 18.8039   6
   5   8   7 72.8335 18.2062   4
   5   8   7 35.7041 16.5045   1
   5   8   8 231.776 29.8622   4
   5   8   8 211.646 28.3269   1
   5   8   9 638.216 45.9069   1
   5   8   9 650.079 47.7741   4
  -5  -8 -10 230.198 35.7196   3
   5   9  -2 76.0567 24.4980   1
  -5  -9   1 259.801 30.4830   6
   5   9  -1 224.810 34.2182   1
   5   9   0 121.049 26.9722   1
  -5  -9   0 110.488 21.0249   6
  -5  -9  -1 25.9768 14.7285   6
   5   9   1 16.1989 16.5107   1
  -5  -9  -2 27.4798 15.6934   6
   5   9   2 12.9918 16.7381   1
  -5  -9  -3 192.814 26.4953   6
   5   9   3 228.039 33.9816   1
   5   9   4 577.884 52.1883   1
   5   9   4 561.897 49.9584   4
  -5  -9  -4 575.708 43.7694   6
  -5  -9  -5 109.593 21.6965   6
   5   9   5 106.805 25.4790   4
   5   9   5 90.7643 23.0298   1
   5   9   6 99.8635 24.0913   1
  -5  -9  -6 96.3917 21.0726   6
   5   9   6 53.8830 17.8063   4
  -5  -9  -7-2.33619 13.8959   6
   5   9   7-15.1142 14.7090   4
   5   9   7-12.6283 15.2466   1
   5   9   8-25.4421 17.4802   4
   5   9   8 4.11983 14.7106   1
  -5  -9  -8-24.2238 20.5811   6
   5   9   9 163.300 27.7118   4
   5   9   9 217.535 30.8461   1
  -5 -10  -1 75.2652 18.1892   6
   5  10   1 121.626 28.6704   1
  -5 -10  -2-11.6335 16.5266   6
   5  10   2-21.1004 17.7268   1
  -5 -10  -3-15.3641 15.0373   6
   5  10   3-25.0385 19.6348   1
  -5 -10  -4 198.454 29.8498   6
   5  10   4 186.998 32.9636   4
   5  10   4 242.096 36.0992   1
  -5 -10  -5 74.0687 20.1627   6
   5  10   5 67.5324 23.3246   4
   5  10   5 72.8776 23.9158   1
   5  10   6 15.4134 15.8105   1
  -5 -10  -6-19.4363 16.8404   6
   5  10   6 7.17335 14.5366   4
  -5 -10  -7-33.7948 23.1370   6
   5  10   7 7.50380 14.5854   4
   5  10   7 40.3422 18.3007   1
  -5 -10  -8-10.5355 14.7956   6
   5  10   8 5.88278 15.0047   4
   5  10   8 10.3300 17.1158   1
   5  10   9 6.92527 17.6450   1
   5  10   9 43.7836 20.7587   4
  -5 -11  -4 147.978 25.9727   6
   5  11   4 247.596 38.4894   4
  -5 -11  -5 50.0204 20.8588   6
   5  11   5 78.3806 25.3835   4
  -5 -11  -6 150.304 28.8456   6
   5  11   6 280.579 41.2890   4
   5  11   6 210.192 35.9853   1
   5  11   7 83.7300 26.6984   1
  -5 -11  -7 70.8517 23.7916   6
   5  11   7 63.1119 21.7436   4
  -5 -11  -8 11.0614 15.5933   6
   5  11   8-3.19425 15.6096   4
   5  11   9 1.88528 21.4446   1
   5  11   9 36.2849 19.0607   4
   6 -10  -6 26.0861 14.9071   7
  -6  10   5-1.94974 19.9394   4
   6 -10  -5 8.29737 15.5627   6
   6 -10  -5-22.9992 19.5005   7
  -6  10   4 5.16299 18.1162   4
   6 -10  -4-3.99438 17.8186   6
   6 -10  -4 14.8493 12.6040   7
  -6  10   3-6.89837 16.3034   4
   6 -10  -3 28.1782 18.3781   6
  -6  10   2 35.9038 21.5326   4
  -6  10   1 54.5254 17.6854   4
   6  -9  -8 135.592 29.4558   6
   6  -9  -7 84.2855 24.4916   6
   6  -9  -7 115.907 27.7298   7
  -6   9   7 142.293 30.5392   4
   6  -9  -6 11.9969 16.8572   6
   6  -9  -6 12.8479 16.1432   7
  -6   9   6-0.32367 19.5194   4
   6  -9  -5 8.48374 17.0375   6
   6  -9  -5-0.21863 13.5387   7
  -6   9   5 18.8338 17.9412   4
  -6   9   4 494.543 48.6125   4
   6  -9  -4 533.220 46.1586   7
   6  -9  -4 430.548 45.6980   6
  -6   9   3 131.536 25.8687   4
   6  -9  -3 140.796 29.5901   6
   6  -9  -3 168.499 25.3399   7
  -6   9   2 32.8180 17.7975   4
   6  -9  -2-89.9321 24.5667   6
  -6   9   1 54.7952 23.8247   4
   6  -9  -1 84.6350 27.6702   6
  -6   9   0 74.0726 21.7980   4
   6  -9   0 24.3922 17.8784   6
   6  -8  -9 48.0192 19.6013   6
   6  -8  -8 48.2430 20.0391   6
   6  -8  -8 100.903 25.0734   7
  -6   8   8 71.5686 23.7983   4
   6  -8  -7 148.721 27.5070   6
   6  -8  -7 214.688 34.1431   7
  -6   8   7 179.931 32.9225   4
   6  -8  -6 45.2558 19.4717   6
   6  -8  -6 13.9872 11.4717   7
  -6   8   6 22.2458 17.5734   4
   6  -8  -5 20.7338 13.9190   6
   6  -8  -5 52.4448 20.1705   7
  -6   8   5 36.8823 20.0499   4
   6  -8  -4 196.674 30.9144   6
   6  -8  -4 217.189 29.1256   7
  -6   8   4 188.614 29.9614   4
  -6   8   3 318.794 36.8694   4
   6  -8  -3 325.261 32.6029   7
   6  -8  -3 294.513 35.5791   6
  -6   8   2 134.918 25.6991   4
   6  -8  -2 121.292 25.8152   6
   6  -8  -2 79.3848 16.5276   7
   6  -8  -1 6.95815 13.4959   6
   6  -8  -1-16.7443 15.4581   2
  -6   8   0 26.3467 16.4159   4
   6  -8   0 64.3627 19.5728   6
   6  -8   0 22.9762 16.3957   2
  -6   8  -1 80.5409 22.1589   4
   6  -8   1 63.0097 21.7280   6
   6  -8   1 85.3159 21.0464   2
  -6   8  -1 121.992 26.9488   3
   6  -8   2 9.54329 18.2896   6
   6  -8   2 3.94105 13.6748   2
  -6   8  -2-11.9889 19.0571   3
   6  -8   3 2.86690 16.0416   6
  -6   8  -3 46.9650 21.8529   3
   6  -8   3 32.2814 16.0561   2
   6  -7  -9 193.919 32.8795   6
   6  -7  -9 308.826 40.7782   7
  -6   7   9 228.132 39.7163   4
   6  -7  -8 193.667 29.4867   6
   6  -7  -8 239.247 35.1011   7
  -6   7   8 217.580 36.0653   4
   6  -7  -7 220.600 30.6556   6
   6  -7  -7 257.363 34.5129   7
  -6   7   7 241.698 35.4555   4
  -6   7   6 494.485 46.8874   4
   6  -7  -6 541.817 47.2680   7
   6  -7  -6 541.056 45.1314   6
   6  -7  -5 336.061 36.3009   7
   6  -7  -5 267.385 32.1225   6
  -6   7   5 319.162 36.4029   4
   6  -7  -4 42.8252 14.9810   6
   6  -7  -4 86.0661 19.1770   7
  -6   7   4 89.6133 24.0345   4
  -6   7   3 845.829 53.2942   4
   6  -7  -3 790.898 49.7533   7
   6  -7  -3 792.699 52.6811   6
  -6   7   2 501.900 41.1417   4
   6  -7  -2 542.655 38.9904   7
   6  -7  -2 521.556 44.7615   6
   6  -7  -1 478.516 41.2720   2
  -6   7   1 546.114 41.5719   4
   6  -7  -1 547.749 36.6732   7
   6  -7  -1 511.564 44.0068   6
  -6   7   0 591.388 46.5106   3
   6  -7   0 528.430 43.6483   2
  -6   7   0 555.463 41.3328   4
   6  -7   0 561.345 33.9496   7
   6  -7   0 549.515 48.1556   6
  -6   7  -1 170.040 24.0644   4
   6  -7   1 207.843 31.8847   6
   6  -7   1 194.668 29.1587   2
  -6   7  -1 177.062 29.0667   3
   6  -7   2 88.1525 22.2358   6
   6  -7   2 124.640 23.5554   2
  -6   7  -2 127.568 26.9409   3
   6  -7   3 28.0470 19.3190   6
  -6   7  -3 4.15453 16.7551   3
   6  -7   4-83.5239 25.3947   6
  -6   7  -4-21.9146 21.4615   3
   6  -6  -9 104.464 26.0350   7
  -6   6   9 58.1917 21.1943   4
   6  -6  -8 44.3131 18.7702   6
   6  -6  -8 2.66311 12.8289   7
  -6   6   8 40.1275 20.6992   4
  -6   6   7 452.172 45.5436   4
   6  -6  -7 473.414 45.0722   7
   6  -6  -7 364.193 36.8226   6
   6  -6  -6 28.2223 13.2536   6
  -6   6   6 28.9292 10.0080   5
   6  -6  -6 20.6293 14.2833   7
  -6   6   6 30.5717 19.6585   4
  -6   6   5 380.614 28.2607   5
  -6   6   5 431.367 40.7231   4
   6  -6  -5 431.426 39.6985   7
   6  -6  -5 353.621 34.1701   6
  -6   6   4 834.331 52.8967   4
   6  -6  -4 863.201 52.4873   7
   6  -6  -4 855.469 50.7391   6
   6  -6  -3 208.052 26.8548   6
   6  -6  -3 181.968 24.0583   7
  -6   6   3 217.141 28.3027   4
   6  -6  -2 27.0940 15.1781   6
   6  -6  -2 30.9589 15.1452   2
   6  -6  -2 19.5321 10.4851   7
  -6   6   2-4.63618 15.2001   4
   6  -6  -1 659.703 46.7435   2
  -6   6   1 677.782 42.2366   4
   6  -6  -1 689.983 40.3345   7
   6  -6  -1 671.050 47.5482   6
   6  -6   0 192.414 26.8363   6
   6  -6   0 194.105 26.7095   2
  -6   6   0 213.521 27.6121   3
  -6   6   0 227.346 26.2506   4
   6  -6   0 228.551 22.4828   7
  -6   6  -1 217.386 23.6571   4
   6  -6   1 244.877 31.9937   6
   6  -6   1 225.881 29.4944   2
  -6   6  -1 205.470 29.2617   3
   6  -6   1 207.905 19.0186   7
  -6   6  -2 24.9555 13.0023   4
   6  -6   2 13.6691 13.9901   6
  -6   6  -2 4.30713 15.7138   3
   6  -6   3-15.7518 18.1541   6
  -6   6  -3-99.1867 23.5720   3
   6  -6   4-18.9228 18.9476   6
  -6   6  -4-12.4981 15.2044   3
   6  -6   5 157.213 31.6072   6
  -6   6  -5 184.341 33.2608   3
   6  -5 -10 175.116 32.1309   7
  -6   5  10 141.293 29.8486   4
   6  -5  -9 201.707 33.8100   7
  -6   5   9 179.456 31.1491   4
   6  -5  -8 48.0373 19.0230   7
  -6   5   8 57.3578 19.6069   4
  -6   5   7 470.637 32.8679   5
  -6   5   7 476.025 44.1224   4
   6  -5  -7 422.389 40.3722   7
   6  -5  -7 484.005 39.6250   6
  -6   5   6 320.603 26.7830   5
  -6   5   6 298.550 34.3751   4
   6  -5  -6 319.925 35.0088   7
   6  -5  -6 297.959 30.0396   6
  -6   5   5 1382.04 53.3121   5
  -6   5   5 1409.84 67.4473   4
   6  -5  -5 1487.28 70.5474   7
   6  -5  -5 1482.05 62.4230   6
   6  -5  -4 251.482 28.3469   7
   6  -5  -4 236.233 25.9581   6
  -6   5   4 225.995 29.1782   4
   6  -5  -3 4002.64 82.7980   3
  -6   5   3 4240.58 105.118   4
   6  -5  -3 4457.54 110.056   7
   6  -5  -3 4311.80 101.635   6
   6  -5  -2 58.2886 14.7812   6
   6  -5  -2 72.9685 20.2686   2
   6  -5  -2 68.6736 15.2963   7
  -6   5   2 67.7419 18.7947   4
  -6   5   1 229.416 23.7502   3
   6  -5  -1 251.485 29.5056   2
  -6   5   1 273.855 27.4632   4
   6  -5  -1 272.803 25.6165   7
   6  -5  -1 264.949 27.5835   6
  -6   5   0 720.497 43.5585   3
   6  -5   0 698.688 47.0696   2
  -6   5   0 730.216 39.9578   4
   6  -5   0 703.374 37.2944   7
   6  -5   0 718.492 46.4830   6
  -6   5  -1 731.344 46.7192   3
   6  -5   1 725.793 49.0433   2
  -6   5  -1 716.801 38.1433   4
   6  -5   1 691.496 34.1362   7
   6  -5   1 757.141 49.1668   6
  -6   5  -2 36.2219 11.9702   4
   6  -5   2 52.5531 19.0788   6
  -6   5  -2 26.2703 13.7749   3
  -6   5  -3 64.9824 13.4289   4
   6  -5   3 63.7381 19.7077   6
  -6   5  -3 18.4614 14.7460   3
   6  -5   4 17.8863 17.6267   6
  -6   5  -4 19.6322 14.8436   3
   6  -5   5 17.5170 14.6005   6
  -6   5  -5 41.5273 21.3686   3
  -6   5  -6 494.586 50.8779   3
   6  -5   6 454.144 49.1839   6
   6  -4 -10-0.75174 14.7567   7
  -6   4  10-10.5511 18.6625   4
   6  -4  -9 282.115 38.6275   7
  -6   4   9 231.878 34.8464   4
  -6   4   8-3.80038 11.1865   5
   6  -4  -8 20.4918 14.2381   7
  -6   4   8-6.08485 15.8299   4
  -6   4   7 100.822 17.8483   5
   6  -4  -7 78.1580 19.2593   7
  -6   4   7 73.4842 21.1811   4
  -6   4   6 295.418 26.9396   5
  -6   4   6 329.000 35.5593   4
   6  -4  -6 312.347 34.0409   7
   6  -4  -6 260.773 27.7035   6
   6  -4  -5 7.17563 9.69017   6
  -6   4   5-3.66232 9.40198   5
   6  -4  -5-2.37044 12.9314   7
  -6   4   5 14.4776 16.8747   4
   6  -4  -4 9.57535 11.1906   6
  -6   4   4 4.11186 8.51851   5
   6  -4  -4-12.0895 12.9129   7
   6  -4  -4-8.80552 6.75297   3
  -6   4   4 4.12204 15.0609   4
   6  -4  -3 950.840 34.0183   3
  -6   4   3 971.276 50.0595   4
   6  -4  -3 975.784 51.4029   7
   6  -4  -3 954.227 44.4732   6
   6  -4  -2 65.3868 14.6198   6
   6  -4  -2 94.6633 21.7240   2
   6  -4  -2 69.1776 15.3588   7
  -6   4   2 77.5187 17.5590   4
   6  -4  -2 69.7120 11.5818   3
  -6   4   1 625.504 34.1021   3
   6  -4  -1 625.583 44.2375   2
  -6   4   1 618.399 36.6030   4
   6  -4  -1 645.260 38.0532   7
   6  -4  -1 624.589 38.0173   6
  -6   4   0 256.186 25.7285   3
  -6   4   0 239.055 23.0876   4
   6  -4   0 212.546 27.4937   2
   6  -4   0 234.367 22.0855   7
   6  -4   0 219.731 24.8159   6
  -6   4  -1 563.199 37.6351   3
  -6   4  -1 579.093 31.6623   4
  -6   4  -1 487.327 27.3635   7
   6  -4   1 561.275 31.3909   7
   6  -4   1 531.684 37.9466   6
  -6   4  -2 1774.55 70.5450   3
  -6   4  -2 1707.34 50.3556   4
   6  -4   2 1646.22 68.4772   6
  -6   4  -3-1.83043 7.59654   4
   6  -4   3 19.5360 14.5303   6
  -6   4  -3-3.36070 15.1115   3
   6  -4   4 52.6336 18.5886   6
  -6   4  -4 28.2649 15.0318   3
   6  -4   5 186.273 31.2754   6
  -6   4  -5 196.975 31.2997   3
  -6   4  -6 377.139 41.5043   3
   6  -4   6 325.347 39.4897   6
   6  -4   7 91.1208 26.1417   6
  -6   4  -7 123.482 31.0975   3
   6  -3 -10 25.9060 16.0498   7
  -6   3  10 0.33755 18.0284   4
  -6   3   9 384.850 43.2850   4
   6  -3  -9 407.203 42.2648   7
  -6   3   8 49.1961 14.4456   5
   6  -3  -8 20.3205 13.9390   7
  -6   3   8 36.5691 16.4993   4
  -6   3   7 136.396 21.5536   5
   6  -3  -7 132.633 24.2105   7
  -6   3   7 149.457 28.1026   4
  -6   3   6 267.778 26.5091   5
   6  -3  -6 298.723 33.8897   7
  -6   3   6 270.533 32.3206   4
   6  -3  -5 1.80722 8.90554   6
  -6   3   5 0.58296 10.5259   5
   6  -3  -5 12.5348 10.5663   7
  -6   3   5 0.50857 15.3381   4
   6  -3  -4 47.2923 12.9331   6
  -6   3   4 60.7600 14.4564   5
   6  -3  -4 36.9248 13.7031   7
  -6   3   4 39.2298 16.7822   4
   6  -3  -3 784.164 23.0840   3
  -6   3   3 818.825 44.5288   4
   6  -3  -3 868.258 48.2774   7
   6  -3  -3 749.104 35.7444   6
  -6   3   3 807.425 37.7256   6
   6  -3  -2 1347.59 62.2237   2
   6  -3  -2 1298.19 36.0066   3
  -6   3   2 1279.44 52.1623   4
   6  -3  -2 1383.65 57.0644   7
   6  -3  -2 1286.00 45.6373   6
  -6   3   2 1310.84 47.9616   6
  -6   3   1 271.539 23.4689   6
  -6   3   1 263.478 20.3120   3
   6  -3  -1 228.523 18.5967   3
   6  -3  -1 245.709 28.1020   2
  -6   3   1 253.070 23.3226   4
   6  -3  -1 255.657 24.3982   7
   6  -3  -1 209.892 20.5249   6
  -6   3   0 873.092 39.1792   3
   6  -3   0 880.176 49.9188   2
   6  -3   0 796.290 37.1262   4
   6  -3   0 839.223 37.5835   3
  -6   3   0 888.530 37.5736   4
   6  -3   0 882.061 41.2736   7
   6  -3   0 882.783 41.2263   6
  -6   3  -1 688.661 38.9669   3
   6  -3   1 614.253 30.0915   4
  -6   3  -1 644.115 30.3122   4
  -6   3  -1 562.679 29.8976   7
   6  -3   1 711.993 35.0898   7
   6  -3   1 602.752 36.1992   6
  -6   3  -2 23.8895 9.33063   4
   6  -3   2 1.63304 13.0252   6
  -6   3  -2 33.5379 8.96305   7
   6  -3   2 18.7061 7.31854   4
  -6   3  -2 30.0316 14.4106   3
  -6   3  -3 758.861 46.6824   3
  -6   3  -3 715.257 26.0027   4
   6  -3   3 785.686 46.8975   6
   6  -3   4 10.0475 12.5399   6
  -6   3  -4 57.7575 19.6751   3
   6  -3   5 237.958 31.0873   6
  -6   3  -5 243.372 32.6577   3
   6  -3   6 665.901 52.2565   6
  -6   3  -6 604.803 50.9429   3
   6  -3   7 335.271 41.6100   6
  -6   3  -7 318.774 39.8292   3
   6  -3   8 160.091 32.6903   6
  -6   3  -8 124.895 29.1984   3
   6  -2 -10 116.463 25.6966   7
  -6   2  10 113.958 28.9357   4
  -6   2   9 1.18275 21.2932   4
   6  -2  -9-10.1310 14.8794   7
   6  -2  -8 102.824 22.4714   7
  -6   2   8 84.3936 22.0920   4
  -6   2   7 587.363 42.7564   5
  -6   2   7 504.019 44.2906   4
   6  -2  -7 617.310 48.0269   7
  -6   2   6 62.9592 16.1171   5
   6  -2  -6 77.2174 19.2562   7
  -6   2   6 70.4508 19.5063   4
  -6   2   5 776.194 43.3147   5
  -6   2   5 783.794 48.9969   4
   6  -2  -5 800.504 49.9464   7
  -6   2   4 284.207 26.3094   5
  -6   2   4 254.340 27.4293   4
   6  -2  -4 288.144 29.8475   7
   6  -2  -4 294.509 22.3803   6
  -6   2   4 289.540 22.4418   6
  -6   2   3 3169.62 82.3750   5
  -6   2   3 3370.35 87.9639   4
   6  -2  -3 3302.15 90.9249   7
   6  -2  -3 3308.51 64.5350   6
  -6   2   3 3233.42 66.4807   6
   6  -2  -2 2186.42 76.4571   2
  -6   2   2 2119.64 64.9393   4
   6  -2  -2 2071.37 33.0597   3
   6  -2  -2 2206.33 71.7334   7
   6  -2  -2 2146.64 49.9553   6
  -6   2   2 2121.06 52.4691   6
  -6   2   1 432.702 25.1241   6
  -6   2   1 406.680 20.6988   3
   6  -2  -1 414.555 34.1507   2
  -6   2   1 386.558 26.8966   4
   6  -2  -1 407.166 20.1153   3
   6  -2  -1 432.250 31.8501   7
   6  -2  -1 400.656 22.5084   6
  -6   2   0 3630.30 74.4396   6
  -6   2   0 3512.99 69.3311   3
   6  -2   0 3454.17 93.7027   2
   6  -2   0 3477.93 67.2664   3
  -6   2   0 3521.05 70.9535   4
   6  -2   0 3569.55 84.5066   7
   6  -2   0 3434.19 68.6118   6
  -6   2  -1 1395.88 49.0673   3
   6  -2   1 1426.31 48.8478   3
  -6   2  -1 1458.38 40.7439   4
   6  -2   1 1468.12 51.6384   7
   6  -2   1 1367.71 48.3287   6
  -6   2  -2 1079.09 47.8258   3
  -6   2  -2 1019.04 29.9186   4
  -6   2  -2 994.176 37.6985   7
   6  -2   2 1047.63 45.9768   6
  -6   2  -3 18.6764 5.02270   4
   6  -2   3 15.5306 13.2070   6
  -6   2  -3 20.2356 6.97360   7
  -6   2  -3 13.3030 12.3767   3
  -6   2  -3 7.44611 8.21856   1
  -6   2  -4 31.2942 9.81086   1
   6  -2   4 28.4451 13.6287   6
  -6   2  -4 2.70354 12.1433   3
   6  -2   5 32.0308 14.8769   6
  -6   2  -5 58.9953 19.7908   3
   6  -2   6 68.3905 19.5124   6
  -6   2  -6 61.8401 21.0861   3
   6  -2   7 191.511 29.8250   6
  -6   2  -7 229.944 34.6026   3
   6  -2   8 201.177 33.3538   6
  -6   2  -8 204.443 34.6623   3
   6  -2   9 25.4747 20.1862   6
   6  -1 -11 83.0189 25.5076   7
  -6   1  10 119.555 31.0944   4
   6  -1 -10 168.462 30.1186   7
  -6   1   9 769.822 60.4229   4
   6  -1  -9 745.187 56.5915   7
  -6   1   8 81.5513 23.8106   4
   6  -1  -8 157.875 28.0882   7
  -6   1   7 8.14649 11.5668   5
  -6   1   7 27.5544 18.5452   4
   6  -1  -7 4.36571 11.4807   7
  -6   1   6 422.133 36.7704   5
  -6   1   6 331.124 35.5750   4
   6  -1  -6 362.716 35.3282   7
  -6   1   5 339.160 31.0692   5
  -6   1   5 284.250 32.1773   4
   6  -1  -5 336.833 33.5045   7
  -6   1   5 315.263 23.1818   6
  -6   1   4 452.877 33.9671   5
  -6   1   4 453.302 36.2993   4
   6  -1  -4 474.893 37.5286   7
  -6   1   4 496.968 25.5454   6
  -6   1   3 777.923 42.5125   5
  -6   1   3 790.497 44.6792   4
   6  -1  -3 793.770 45.6963   7
  -6   1   3 773.794 28.3926   6
  -6   1   2 814.389 41.4926   4
   6  -1  -2 849.834 46.1669   7
   6  -1  -2 807.342 25.3520   6
  -6   1   2 803.819 26.3818   6
  -6   1   1 284.952 16.1354   6
  -6   1   1 284.953 14.5157   3
   6  -1  -1 276.697 28.6737   2
  -6   1   1 282.653 23.8154   4
   6  -1  -1 277.267 26.0179   7
   6  -1  -1 263.907 14.1891   6
   6  -1   0 2.23886 5.75615   6
   6  -1   0 4.88065 5.80819   3
  -6   1   0 5.39682 6.14354   6
   6  -1   0 5.96620 12.0781   2
  -6   1   0 3.57330 7.83635   4
  -6   1   0-0.62672 6.75881   3
   6  -1   0 2.29503 7.82353   7
  -6   1  -1 1529.91 47.4304   3
  -6   1  -1 1547.98 41.2923   4
   6  -1   1 1597.08 47.4167   3
   6  -1   1 1548.61 43.6355   6
  -6   1  -2 3344.75 77.2246   3
  -6   1  -2 3357.34 50.0669   4
  -6   1  -2 3197.71 70.8613   7
   6  -1   2 3384.15 72.1110   6
  -6   1  -3 69.8473 11.5890   1
   6  -1   3 99.9505 16.8455   6
  -6   1  -3 86.6085 12.8447   7
  -6   1  -3 87.8578 17.8050   3
   6  -1   4 583.645 38.4685   6
  -6   1  -4 538.817 27.2107   1
  -6   1  -4 570.652 39.4851   3
  -6   1  -4 514.635 26.5197   7
   6  -1   5 134.665 23.1249   6
  -6   1  -5 150.778 23.7695   3
   6  -1   6 603.180 46.6001   6
  -6   1  -6 592.153 45.6030   3
   6  -1   7 622.598 50.3617   6
  -6   1  -7 563.043 48.1251   3
   6  -1   8 130.709 29.0783   6
  -6   1  -8 86.9627 22.2645   3
   6  -1   9 709.846 60.6315   6
  -6   1  -9 717.992 59.8944   3
   6   0 -10 303.579 38.8811   7
  -6   0   9 132.413 29.0591   4
   6   0  -9 121.757 25.2550   7
  -6   0   8 1827.40 89.4331   4
   6   0  -8 1975.86 88.0566   7
  -6   0   7 272.694 35.9997   4
   6   0  -7 281.017 32.9077   7
  -6   0   6 240.375 29.0251   5
   6   0  -6 229.321 29.7873   7
  -6   0   6 211.053 29.4196   4
  -6   0   5 505.923 39.7817   5
  -6   0   5 483.799 40.4145   4
   6   0  -5 466.097 38.3912   7
  -6   0   5 478.290 27.3211   6
  -6   0   4 972.504 50.4055   5
  -6   0   4 1004.32 53.8360   4
   6   0  -4 1004.66 54.7056   7
  -6   0   4 948.052 32.9779   6
  -6   0   3 608.168 38.7247   5
  -6   0   3 616.578 40.1625   4
   6   0  -3 568.335 40.3418   7
  -6   0   3 603.414 21.7872   6
  -6   0   2 2377.92 72.2409   5
  -6   0   2 2336.52 71.1339   4
   6   0  -2 2364.20 77.0795   7
  -6   0   2 2065.61 30.9601   6
  -6   0   1 104.292 7.86704   3
   6   0  -1 144.368 21.8127   2
  -6   0   1 107.817 15.9727   4
   6   0  -1 114.988 17.6873   7
   6   0   0 68.3203 16.4717   2
  -6   0   0 84.2422 13.6390   4
   6   0   0 66.5157 5.54273   6
  -6   0   0 87.7683 10.6322   3
  -6   0  -1 677.358 30.1948   3
  -6   0  -1 645.643 28.3852   4
   6   0   1 629.499 22.1648   6
  -6   0  -2 644.369 33.7096   1
  -6   0  -2 656.328 33.2940   3
  -6   0  -2 685.287 24.4402   4
   6   0   2 654.487 28.4962   6
   6   0   3 2311.57 61.1615   6
  -6   0  -3 2369.09 60.5572   1
  -6   0  -3 2309.38 68.0591   3
  -6   0  -3 2088.83 26.7836   4
   6   0   4 587.416 36.0095   6
  -6   0  -4 501.058 25.8773   1
  -6   0  -4 533.600 37.0136   3
  -6   0  -4 470.612 28.4626   7
   6   0   5 63.3240 16.9490   6
  -6   0  -5 62.4297 9.82081   1
  -6   0  -5 36.9220 9.33310   7
  -6   0  -5 61.8938 17.6600   3
   6   0   6 189.615 25.2673   6
  -6   0  -6 154.508 24.3329   3
   6   0   7 582.498 45.7711   6
  -6   0  -7 575.750 47.7720   3
   6   0   8 68.0132 22.0830   6
  -6   0  -8 42.4926 19.7308   3
   6   0   9 70.3660 24.4651   6
  -6   0  -9 86.7323 24.8350   3
   6   0  10-1.87072 19.3273   6
  -6   0 -10 4.66470 16.6732   3
   6   1 -10 34.6796 14.5202   7
  -6  -1   9 105.527 27.6318   4
   6   1  -9 88.1951 23.5039   7
  -6  -1   8 45.3442 17.0588   4
   6   1  -8 82.2006 23.0194   7
  -6  -1   7 485.894 47.1878   4
   6   1  -7 478.217 42.9052   7
  -6  -1   6 214.960 29.1077   5
  -6  -1   6 182.721 30.3783   4
   6   1  -6 184.796 27.1891   7
  -6  -1   5 750.944 48.5994   5
  -6  -1   5 716.252 50.6800   4
   6   1  -5 683.029 47.0179   1
   6   1  -5 811.029 50.9254   7
  -6  -1   5 733.609 34.1672   6
  -6  -1   4 42.4563 8.52679   6
  -6  -1   4 44.2312 16.2152   5
   6   1  -4 43.6896 16.3121   1
   6   1  -4 42.4761 15.2082   7
  -6  -1   3 1317.61 32.5935   6
  -6  -1   3 1358.59 58.7584   5
   6   1  -3 1301.64 59.4669   1
   6   1  -3 1390.25 62.2006   7
  -6  -1   3 1318.34 30.0005   6
  -6  -1   2 250.552 25.8732   5
   6   1  -2 286.523 29.1116   7
   6   1  -2 227.392 25.8543   1
  -6  -1   1 121.906 18.3573   5
   6   1  -1 143.448 20.7666   2
  -6  -1   1 117.044 9.21090   3
   6   1  -1 129.074 20.0477   1
  -6  -1   0 30.5376 8.03362   3
   6   1   0 21.4269 10.6490   2
   6   1   0 18.9334 11.2083   1
  -6  -1  -1 131.133 14.2357   3
   6   1   1 131.812 19.4242   2
   6   1   1 122.988 17.7663   1
  -6  -1  -2 0.90246 8.65152   3
  -6  -1  -2 7.72494 5.03245   4
   6   1   2-3.86633 6.14121   6
   6   1   2 8.47361 8.71355   1
   6   1   2 4.42378 5.18160   6
  -6  -1  -3 61.6307 13.3243   3
  -6  -1  -3 74.5850 12.9775   1
  -6  -1  -3 65.3395 8.16449   4
   6   1   3 75.1403 12.5879   6
  -6  -1  -3 76.7859 8.59517   4
   6   1   3 69.9023 13.1968   1
  -6  -1  -4 148.863 20.6234   3
   6   1   4 171.811 19.3686   6
  -6  -1  -4 131.541 14.9501   1
  -6  -1  -5 560.904 39.7066   3
  -6  -1  -5 580.191 26.3094   1
  -6  -1  -6 97.9133 20.1348   3
  -6  -1  -7 701.637 50.6698   3
  -6  -1  -8 170.249 29.2898   3
  -6  -1  -9 208.382 33.8061   3
  -6  -1 -10-1.37952 15.7859   3
  -6  -2   8 161.024 33.1549   4
   6   2  -8 154.624 28.1790   7
  -6  -2   7 683.355 45.1886   6
  -6  -2   7 637.520 55.2675   4
   6   2  -7 574.697 47.0009   7
  -6  -2   6 22.8439 12.0690   6
   6   2  -6 16.9519 13.5324   1
   6   2  -6 6.85946 11.7319   7
  -6  -2   5 630.889 35.0756   6
  -6  -2   5 689.405 48.9512   5
   6   2  -5 684.627 47.8992   7
   6   2  -5 602.692 45.4611   1
  -6  -2   4 11.4324 5.06830   3
  -6  -2   4 0.78081 9.82745   6
  -6  -2   4-11.4380 13.5108   5
   6   2  -4-6.99903 12.5950   1
  -6  -2   3 40.9965 6.57907   6
  -6  -2   3 46.5842 8.45086   6
  -6  -2   3 57.7376 17.2308   5
  -6  -2   3 38.8059 6.94825   3
   6   2  -3 54.6725 18.0703   1
  -6  -2   2 2306.31 42.8672   3
  -6  -2   2 2252.80 75.4728   5
   6   2  -2 2255.50 78.5207   1
  -6  -2   1 1070.72 30.7003   3
  -6  -2   1 1104.70 51.2354   5
   6   2  -1 1087.67 53.1507   1
   6   2   0 6.29481 9.88240   1
  -6  -2   0 5.87140 8.77901   5
   6   2   0 19.5639 11.9269   2
   6   2   1 545.683 33.9714   2
  -6  -2  -1 552.124 27.7754   3
  -6  -2  -1 590.206 32.1681   4
   6   2   1 569.424 36.7213   1
   6   2   2 483.288 18.4986   6
  -6  -2  -2 540.075 30.2743   3
  -6  -2  -2 526.983 27.6682   4
   6   2   2 551.762 34.3795   1
   6   2   2 507.619 16.8713   6
  -6  -2  -3 536.266 33.0243   3
  -6  -2  -3 565.994 25.4548   4
   6   2   3 544.852 32.4339   1
   6   2   3 550.561 24.0128   6
   6   2   4 510.514 29.5992   1
  -6  -2  -4 458.569 33.5557   3
  -6  -2  -4 468.477 28.1738   1
  -6  -2  -4 488.067 18.8112   4
   6   2   4 481.277 27.3567   6
  -6  -2  -5 1976.90 71.8784   3
   6   2   5 1959.11 51.1218   1
  -6  -2  -6 133.304 23.9357   3
  -6  -2  -7 488.345 43.4177   3
  -6  -2  -8 124.581 25.6640   3
  -6  -2  -9 445.484 44.9860   3
  -6  -2 -10 30.0505 15.6108   3
  -6  -3   8 179.818 34.9598   4
   6   3  -7 114.544 21.8436   1
  -6  -3   6 127.684 20.0168   6
   6   3  -6 163.488 29.3443   1
  -6  -3   5 302.743 26.1243   6
   6   3  -5 279.448 33.4121   1
   6   3  -4 30.2770 13.1815   1
  -6  -3   4 48.4623 11.7607   6
  -6  -3   4 43.5733 16.4339   5
   6   3  -3 213.683 28.5194   1
  -6  -3   3 205.740 17.2815   3
  -6  -3   3 248.242 29.5838   5
  -6  -3   3 257.574 18.6496   6
   6   3  -2 123.818 20.5621   1
  -6  -3   2 141.348 14.9846   3
  -6  -3   2 118.491 20.7742   5
  -6  -3   2 129.103 10.3604   6
  -6  -3   1 333.715 21.5365   3
  -6  -3   1 333.561 30.5762   5
   6   3  -1 341.987 32.3357   1
   6   3   0 409.758 28.3559   2
  -6  -3   0 419.790 32.4133   5
   6   3   0 424.317 34.6217   1
   6   3   1 15.0972 12.0224   1
  -6  -3  -1 16.6542 11.4473   5
   6   3   1 23.0611 11.3551   2
   6   3   2 160.870 10.4298   6
   6   3   2 181.573 22.7995   1
  -6  -3  -3 599.890 36.3263   3
  -6  -3  -3 696.128 32.5304   4
   6   3   3 660.928 25.3799   6
   6   3   3 681.001 38.2564   1
  -6  -3  -4 764.164 43.0768   3
  -6  -3  -4 783.499 30.5882   4
   6   3   4 786.823 33.1914   6
   6   3   4 797.711 39.7299   1
  -6  -3  -5 1159.36 55.7970   3
  -6  -3  -5 1203.66 32.9937   4
   6   3   5 1149.65 44.6147   1
  -6  -3  -6 186.628 26.0439   3
   6   3   6 177.367 17.5386   1
  -6  -3  -7 868.997 55.2405   3
   6   3   7 888.300 31.3649   1
  -6  -3  -8 54.8381 18.2703   3
  -6  -3  -9 338.305 39.8405   3
  -6  -3 -10 169.181 32.2480   3
   6   4  -8 65.4194 22.6836   1
   6   4  -7 201.803 31.3839   1
   6   4  -6 264.584 33.7149   1
   6   4  -5 62.8954 20.2765   1
  -6  -4   5 40.5890 13.1805   6
   6   4  -4 2178.12 89.2180   1
  -6  -4   4 2249.96 66.3337   6
  -6  -4   3 1896.98 79.6520   5
   6   4  -3 2001.43 82.8920   1
  -6  -4   3 1916.99 53.8608   6
  -6  -4   2 1220.38 61.8901   5
  -6  -4   2 1191.60 36.5498   6
   6   4  -2 1133.29 62.0730   1
   6   4  -1 2144.04 82.1762   1
  -6  -4   1 2292.82 80.4791   5
  -6  -4   1 2279.88 41.6380   6
   6   4   0 932.906 52.9252   1
  -6  -4   0 948.809 49.6617   5
  -6  -4   0 873.750 22.1066   6
   6   4   1 497.284 18.7413   6
   6   4   1 564.479 40.3669   1
  -6  -4  -1 593.789 38.5559   5
   6   4   1 542.943 31.3104   2
  -6  -4  -1 496.464 17.6023   6
   6   4   2 399.368 33.8877   1
  -6  -4  -2 440.922 32.7210   5
   6   4   2 388.264 27.8674   2
   6   4   2 350.395 16.9728   6
   6   4   3 235.054 26.0926   1
  -6  -4  -3 245.526 25.0221   5
   6   4   3 208.477 15.7041   6
   6   4   4 382.799 30.7132   1
  -6  -4  -4 379.614 25.6757   4
   6   4   4 369.575 23.1724   6
   6   4   5 1009.50 46.3103   1
  -6  -4  -5 923.340 51.4802   3
  -6  -4  -5 922.992 36.1948   4
   6   4   6 339.376 26.3563   1
  -6  -4  -6 298.936 33.1445   3
  -6  -4  -7-3.18665 14.1726   3
   6   4   7-0.57593 6.97504   1
  -6  -4  -8 161.234 28.0143   3
  -6  -4  -9 262.432 36.2303   3
  -6  -4 -10 27.6710 16.8614   3
   6   5  -7 134.771 27.5412   1
   6   5  -6 39.7206 16.7255   1
   6   5  -5 119.223 23.1586   1
   6   5  -4 249.022 32.7999   1
   6   5  -3 318.776 37.6301   1
  -6  -5   3 291.848 24.8942   6
   6   5  -2 2381.31 93.3151   1
  -6  -5   2 2452.33 89.9302   5
  -6  -5   2 2407.73 60.7399   6
   6   5  -1 287.170 33.7032   1
  -6  -5   1 322.569 33.4734   5
  -6  -5   1 327.188 21.2038   6
   6   5   0 594.272 45.3671   1
  -6  -5   0 647.329 43.4848   5
  -6  -5   0 625.313 25.9594   6
  -6  -5  -1 36.8179 8.21726   6
   6   5   1 36.1798 8.44751   6
   6   5   1 41.9228 11.0984   2
  -6  -5  -1 49.6218 14.8837   5
   6   5   1 32.2553 13.5944   1
  -6  -5  -2-1.44610 6.55926   6
   6   5   2 10.5290 7.17168   6
  -6  -5  -2 3.67606 9.94047   5
   6   5   2 7.56774 8.96975   2
   6   5   2-1.80975 12.5282   1
   6   5   3 7.35127 8.28969   6
  -6  -5  -3 14.5524 12.2384   5
   6   5   3 10.2716 12.3853   1
  -6  -5  -4 124.344 18.8145   5
   6   5   4 122.034 19.6517   1
   6   5   4 142.335 16.9504   6
   6   5   5 652.946 40.8194   1
   6   5   6 426.861 32.0663   1
  -6  -5  -6 385.905 37.6552   3
   6   5   7 559.293 34.8734   1
  -6  -5  -7 552.874 45.8497   3
   6   5   7 532.237 31.7206   4
  -6  -5  -8 228.747 33.0651   3
  -6  -5  -9 130.494 24.8288   3
  -6  -5 -10 142.509 28.9102   3
   6   6  -6 437.611 47.6379   1
   6   6  -5 31.4118 16.7706   1
   6   6  -4 146.868 26.2707   1
   6   6  -3 141.280 28.9846   1
  -6  -6   2 45.4905 11.8355   6
   6   6  -2 29.4743 18.3098   1
  -6  -6   1 138.522 16.5292   6
  -6  -6   1 136.028 23.3721   5
   6   6  -1 104.991 20.8297   1
   6   6   0 896.678 58.2131   1
  -6  -6   0 899.270 53.5104   5
  -6  -6   0 839.228 36.0270   6
   6   6   1 617.141 47.4616   1
  -6  -6  -1 559.461 41.1709   5
  -6  -6  -1 514.959 27.9949   6
  -6  -6  -2-0.54713 7.45322   6
  -6  -6  -2-19.8983 14.0465   5
   6   6   2-5.85996 7.81316   2
   6   6   2-0.62976 13.3408   1
  -6  -6  -3 103.975 15.1210   6
  -6  -6  -3 122.733 19.3741   5
   6   6   3 117.943 15.0957   2
   6   6   3 112.020 21.4588   1
  -6  -6  -4 42.9251 13.1537   6
  -6  -6  -4 57.9263 14.9824   5
   6   6   4 43.7810 13.6992   1
   6   6   5 341.379 32.9342   1
  -6  -6  -5 338.334 28.1827   5
   6   6   6 460.074 36.6563   1
  -6  -6  -6 407.319 30.9518   5
   6   6   6 418.433 33.1121   4
  -6  -6  -7 179.150 28.7432   3
   6   6   7 222.391 25.5604   1
   6   6   7 226.693 24.9100   4
   6   6   8 501.236 35.1422   1
  -6  -6  -8 333.692 39.1143   3
  -6  -6  -9 796.675 60.9178   3
  -6  -6 -10 52.3395 21.7913   3
   6   7  -5-18.1169 15.2477   1
   6   7  -4 190.915 33.5454   1
   6   7  -3 20.1760 15.6310   1
   6   7  -2 125.279 25.9655   1
   6   7  -1 65.0427 21.8503   1
   6   7   0 1088.59 67.4936   1
  -6  -7   0 1110.44 61.3486   5
  -6  -7   0 1098.91 47.5978   6
   6   7   1 394.357 40.3515   1
  -6  -7  -1 385.981 36.0491   5
  -6  -7  -1 373.494 28.4143   6
  -6  -7  -2 83.8953 14.9556   6
  -6  -7  -2 95.2505 20.4085   5
   6   7   2 83.7378 21.9362   1
   6   7   3 9.42505 15.5148   1
  -6  -7  -3-1.86214 10.7634   6
  -6  -7  -3 9.09198 11.2211   5
   6   7   4 246.659 30.8505   1
  -6  -7  -4 193.751 22.4935   5
  -6  -7  -4 189.789 22.1271   6
  -6  -7  -5 79.1251 16.8699   6
   6   7   5 74.5474 19.3584   1
   6   7   5 70.7765 18.1331   4
  -6  -7  -5 70.5563 15.7056   5
   6   7   6 190.017 26.9806   1
   6   7   6 203.268 26.1861   4
  -6  -7  -6 159.576 20.6689   5
   6   7   7 50.7798 11.1943   1
   6   7   7 120.594 22.3757   4
  -6  -7  -7 128.792 18.3971   5
   6   7   8-7.42827 12.3711   1
  -6  -7  -8 3.74382 15.0146   3
  -6  -7  -9 250.038 36.6102   3
  -6  -7 -10 106.444 29.4032   3
   6   8  -3 39.0883 18.4118   1
   6   8  -2 159.245 31.9898   1
   6   8  -1 32.9984 14.8435   1
   6   8   0 500.766 48.7203   1
   6   8   1 255.099 36.1457   1
   6   8   2 171.976 28.6958   1
  -6  -8  -2 181.858 22.7327   6
  -6  -8  -2 146.413 24.1205   5
  -6  -8  -3 24.0398 12.8048   6
   6   8   3 12.9621 13.6954   1
  -6  -8  -3 28.3859 14.7982   5
   6   8   4 35.2402 18.2667   1
  -6  -8  -4 23.2485 11.8019   5
  -6  -8  -5 362.887 30.9436   5
   6   8   5 343.791 37.6562   1
   6   8   5 309.747 35.4145   4
  -6  -8  -5 255.417 28.2219   6
  -6  -8  -6 179.563 25.4516   6
   6   8   6 146.873 25.8107   4
   6   8   6 212.447 29.3504   1
   6   8   7 50.1723 17.3151   4
   6   8   7 52.8647 20.5275   1
   6   8   8 11.5204 11.9646   4
   6   8   8-10.2263 11.6488   1
  -6  -8  -9 159.998 29.8594   3
   6   9  -1 27.2106 21.8719   1
   6   9   0 640.227 58.3293   1
   6   9   1 478.648 49.6802   1
   6   9   2 44.1072 19.4367   1
   6   9   3 260.443 34.5509   1
  -6  -9  -4 40.9939 11.8062   6
   6   9   4 38.5110 18.4994   1
  -6  -9  -4 87.8431 19.4680   5
   6   9   5 285.873 36.2452   1
   6   9   5 345.283 39.0479   4
  -6  -9  -5 329.188 33.5116   6
   6   9   6 539.557 49.7055   1
   6   9   6 526.829 47.5946   4
  -6  -9  -6 497.327 41.5825   6
   6   9   7 440.928 43.4417   1
   6   9   7 485.500 45.2679   4
  -6  -9  -7 442.521 41.6835   6
   6   9   8-11.1310 17.9506   4
   6   9   8 15.7988 14.9207   1
   6  10   2 261.571 39.6436   1
   6  10   3-19.7426 14.6326   1
   6  10   4 25.3196 16.5113   1
   6  10   5 94.4022 26.5537   1
   6  10   6 25.4294 17.5664   4
   6  10   6-22.8678 21.2264   1
   6  10   7 172.176 30.5439   4
   6  10   7 172.513 30.3920   1
   6  10   8-34.2020 14.6053   4
   6  10   8 40.2411 20.2556   1
   6  11   6 55.5928 19.3711   4
   6  11   7 72.4418 23.4176   4
   6  11   8 40.6064 18.7290   4
   7 -10  -5 25.6097 19.2720   7
  -7  10   3 12.0104 21.4994   4
  -7  10   2 55.2018 23.7902   4
   7  -9  -7 18.8382 14.7934   6
   7  -9  -6 56.0071 22.3001   6
   7  -9  -6 16.4807 13.8780   7
  -7   9   6 26.2507 23.9801   4
   7  -9  -5 27.8909 19.2151   6
   7  -9  -5 80.5541 23.5591   7
  -7   9   5 97.8390 28.0165   4
  -7   9   4-23.7639 22.9104   4
   7  -9  -4 21.0411 16.9144   6
   7  -9  -4 28.0313 16.0320   7
  -7   9   3 11.3604 20.9194   4
   7  -9  -3 8.68253 16.2869   6
  -7   9   2 219.333 33.9000   4
   7  -9  -2 218.797 35.8640   6
  -7   9   1-17.6863 17.5169   4
   7  -9  -1-28.7560 21.3011   6
   7  -8  -9-2.30804 16.5564   6
   7  -8  -8 8.62277 13.9625   6
   7  -8  -7-10.3386 16.0692   6
  -7   8   7 24.5080 21.6217   4
   7  -8  -6 138.937 27.9137   6
   7  -8  -6 98.8052 24.7715   7
  -7   8   6 126.511 30.5245   4
   7  -8  -5-22.2778 17.3913   6
   7  -8  -5 30.1887 16.5678   7
  -7   8   5 15.6810 17.4637   4
   7  -8  -4 261.077 34.4070   6
   7  -8  -4 286.594 34.4835   7
  -7   8   4 224.701 33.0833   4
  -7   8   3-19.6220 19.7176   4
   7  -8  -3-10.7784 16.3085   6
   7  -8  -3-9.05779 13.6109   7
  -7   8   2-8.27958 18.2139   4
   7  -8  -2 16.4384 13.5585   7
  -7   8   1 140.254 24.2938   4
   7  -8  -1 166.817 30.3261   6
   7  -8  -1 188.218 30.6808   2
  -7   8   0 220.115 30.7967   4
   7  -8   0 223.698 34.6870   6
   7  -8   0 232.692 33.0127   2
   7  -8   1-9.48035 16.1966   6
  -7   8  -1 19.0386 16.8347   3
   7  -8   2 164.695 34.4949   6
   7  -8   2 72.1149 17.9667   2
  -7   8  -2 130.964 27.8882   3
   7  -8   3 27.9467 21.2050   2
   7  -7  -9 37.4709 16.4947   6
   7  -7  -8 18.2070 17.0823   6
   7  -7  -8 105.546 28.3226   7
  -7   7   8 48.0259 19.8854   4
   7  -7  -7-8.13267 13.6874   6
   7  -7  -7 6.32228 12.9936   7
  -7   7   7 16.8993 17.8023   4
   7  -7  -6 200.511 29.3916   6
   7  -7  -6 243.863 33.2774   7
  -7   7   6 242.212 35.2260   4
   7  -7  -5 0.92631 12.9091   6
   7  -7  -5 1.95093 11.4324   7
  -7   7   5 0.68700 16.2613   4
  -7   7   4 625.181 50.1536   4
   7  -7  -4 577.178 46.1357   7
   7  -7  -4 618.939 48.0166   6
   7  -7  -3 73.1457 19.2415   6
   7  -7  -3 43.5770 15.3865   7
  -7   7   3 63.8304 20.9169   4
   7  -7  -2 95.4735 23.0971   6
   7  -7  -2 80.0916 18.6644   7
  -7   7   2 87.8618 22.1759   4
  -7   7   1 33.9315 13.8671   4
   7  -7  -1 22.9980 14.1867   6
   7  -7  -1 40.5017 17.9375   2
   7  -7  -1 31.6203 10.8288   7
  -7   7   0 405.916 38.2652   3
   7  -7   0 304.560 35.8831   2
  -7   7   0 325.864 32.4992   4
   7  -7   0 377.200 40.1534   6
   7  -7   1 221.041 32.0141   6
   7  -7   1 263.377 33.0603   2
  -7   7  -1 259.198 33.4195   3
   7  -7   2 220.438 32.0536   2
  -7   7  -2 182.641 30.3714   3
   7  -7   2 309.861 40.7008   6
   7  -7   3 45.1077 18.2274   6
  -7   7  -3 37.2668 18.1040   3
   7  -7   3 102.987 25.7290   2
   7  -6  -8 73.6641 21.3326   6
   7  -6  -8 94.8607 24.6769   7
  -7   6   8 17.0634 16.4822   4
   7  -6  -7 129.741 22.6469   6
   7  -6  -7 117.276 26.0176   7
  -7   6   7 95.5132 23.1551   4
   7  -6  -6 176.411 26.9149   6
   7  -6  -6 143.307 26.9417   7
  -7   6   6 141.357 26.2145   4
   7  -6  -5 100.033 21.3002   6
  -7   6   5 74.5184 14.9083   5
   7  -6  -5 74.7174 21.3899   7
  -7   6   5 78.2805 21.8273   4
  -7   6   4 385.621 38.1720   4
   7  -6  -4 457.545 41.1840   7
   7  -6  -4 334.983 33.0898   6
  -7   6   3 400.847 37.6166   4
   7  -6  -3 476.917 39.9062   7
   7  -6  -3 430.594 37.1209   6
   7  -6  -2 1072.91 63.8955   2
  -7   6   2 1021.86 55.4255   4
   7  -6  -2 1039.67 55.2618   7
   7  -6  -2 1111.75 58.8251   6
   7  -6  -1 32.6271 14.7025   6
   7  -6  -1 14.6419 15.3554   2
   7  -6  -1 6.80074 10.7101   7
  -7   6   1 0.42720 14.1588   4
  -7   6   0 354.411 34.6374   3
   7  -6   0 342.036 38.3513   2
  -7   6   0 353.344 31.5085   4
   7  -6   0 351.721 29.6778   7
   7  -6   0 346.578 36.4480   6
  -7   6  -1 408.902 39.0844   3
   7  -6   1 401.493 40.5701   2
  -7   6  -1 362.558 30.8284   4
   7  -6   1 323.819 36.5182   6
  -7   6  -2 922.854 60.2190   3
   7  -6   2 859.858 59.5067   2
   7  -6   2 877.685 61.0715   6
  -7   6  -3 457.778 46.0916   3
   7  -6   3 346.734 39.0152   6
   7  -6   4-42.0454 22.1023   6
  -7   6  -4 8.24467 18.0983   3
   7  -6   5 28.2828 18.4719   6
  -7   6  -5 84.1777 25.6085   3
   7  -5  -9 276.734 38.5540   7
  -7   5   9 313.969 41.1539   4
  -7   5   8 365.384 43.9984   4
   7  -5  -8 377.770 42.1876   7
   7  -5  -7 38.7642 15.6775   6
  -7   5   7 52.1497 15.1824   5
   7  -5  -7 47.3214 16.2010   7
  -7   5   7 33.9173 19.4992   4
   7  -5  -6 107.378 19.6885   6
   7  -5  -6 140.594 26.5273   7
  -7   5   6 131.541 19.6150   5
  -7   5   6 129.223 25.7791   4
   7  -5  -5 20.5763 11.4666   6
  -7   5   5 42.5609 14.7440   5
   7  -5  -5 36.3717 15.3484   7
  -7   5   5 47.1112 19.2913   4
   7  -5  -4 187.717 23.6512   6
   7  -5  -4 191.523 27.0946   7
  -7   5   4 159.049 25.9654   4
  -7   5   3 777.924 48.0081   4
   7  -5  -3 875.685 52.5763   7
   7  -5  -3 755.551 44.7195   6
   7  -5  -2 592.961 47.3445   2
  -7   5   2 558.688 40.0924   4
   7  -5  -2 600.001 41.6034   7
   7  -5  -2 538.784 37.8914   6
  -7   5   1 990.913 47.5455   3
   7  -5  -1 973.488 58.8004   2
  -7   5   1 891.434 47.2806   4
   7  -5  -1 914.240 48.0806   7
   7  -5  -1 931.116 50.9082   6
   7  -5   0 124.526 22.9764   6
   7  -5   0 118.280 24.1774   2
  -7   5   0 135.004 21.8940   3
   7  -5   0 142.792 18.9390   7
  -7   5   0 116.790 19.0281   4
  -7   5  -1 85.3113 16.2023   4
   7  -5   1 89.0075 20.9223   6
   7  -5   1 96.8608 23.9189   2
  -7   5  -1 92.7218 20.8808   3
   7  -5   1 106.730 15.9223   7
  -7   5  -2 451.377 39.9698   3
   7  -5   2 462.718 42.0036   6
   7  -5   3 266.869 33.9562   6
  -7   5  -3 287.834 34.2281   3
   7  -5   4-14.9766 13.8756   6
  -7   5  -4 11.6401 16.3333   3
   7  -5   5 22.9029 19.6834   6
  -7   5  -5-38.2167 23.0842   3
   7  -5   6-36.9791 23.8164   6
  -7   5  -6-19.3483 21.1843   3
   7  -4  -9 172.465 32.4894   7
  -7   4   9 152.269 28.9367   4
  -7   4   8 151.979 23.5592   5
   7  -4  -8 298.809 42.9795   7
  -7   4   8 154.503 29.4638   4
  -7   4   7 742.339 45.9965   5
  -7   4   7 703.706 54.6817   4
   7  -4  -7 798.851 58.1882   7
  -7   4   6 303.077 29.2372   5
   7  -4  -6 367.837 39.4750   7
   7  -4  -6 310.150 29.8470   6
  -7   4   6 271.247 34.7895   4
   7  -4  -5 18.8925 12.2955   6
  -7   4   5-9.62673 9.50682   5
   7  -4  -5 15.1209 13.3041   7
  -7   4   5 19.0468 16.8204   4
   7  -4  -4 9.00666 8.86149   6
  -7   4   4 14.6684 9.84856   5
   7  -4  -4 23.5109 13.8732   7
  -7   4   4 9.75509 13.2360   4
  -7   4   3 621.211 42.1961   4
   7  -4  -3 653.611 45.0845   7
   7  -4  -3 622.028 36.7231   6
   7  -4  -2 825.291 53.6131   2
  -7   4   2 736.571 43.8759   4
   7  -4  -2 822.096 47.9110   7
   7  -4  -2 783.762 41.1431   6
  -7   4   1 837.353 40.3794   3
   7  -4  -1 838.135 54.3009   2
  -7   4   1 750.936 41.1192   4
   7  -4  -1 837.445 46.3607   7
   7  -4  -1 819.321 43.5786   6
  -7   4   0 974.959 47.3495   3
   7  -4   0 938.568 56.4252   2
  -7   4   0 941.255 43.2274   4
   7  -4   0 871.718 45.3050   7
   7  -4   0 976.436 49.4996   6
  -7   4  -1 402.137 34.0083   3
   7  -4   1 367.776 36.8502   2
  -7   4  -1 380.953 26.6602   4
   7  -4   1 390.839 29.0223   7
   7  -4   1 387.296 34.4368   6
  -7   4  -2 32.8876 10.2024   4
   7  -4   2 19.8101 14.0059   6
  -7   4  -2 40.6836 15.4985   3
  -7   4  -3 593.498 45.4625   3
   7  -4   3 632.313 47.0884   6
  -7   4  -4 337.745 36.3580   3
   7  -4   4 317.662 36.0388   6
   7  -4   5 28.8880 15.8526   6
  -7   4  -5 55.7174 21.9942   3
   7  -4   6 57.9839 21.4603   6
  -7   4  -6 69.6545 24.3827   3
   7  -4   7-10.7215 18.2365   6
  -7   4  -7 16.7925 17.3591   3
  -7   3   9 494.384 51.0913   4
   7  -3  -9 504.632 53.6700   7
  -7   3   8 129.393 22.5048   5
   7  -3  -8 98.3712 26.4732   7
  -7   3   8 142.297 28.3773   4
  -7   3   7 151.012 22.8672   5
   7  -3  -7 162.483 30.3263   7
  -7   3   7 124.262 25.1409   4
  -7   3   6 168.596 23.8581   5
   7  -3  -6 172.919 27.0530   7
  -7   3   6 244.389 32.0690   4
   7  -3  -5-5.13972 9.92278   6
  -7   3   5-7.43203 11.4551   5
   7  -3  -5-8.01053 13.3661   7
  -7   3   5-0.56505 14.0640   4
  -7   3   4 983.766 50.2396   5
  -7   3   4 1006.52 55.0160   4
   7  -3  -4 1127.79 60.6975   7
   7  -3  -4 1031.26 43.6529   6
  -7   3   3 431.407 35.4492   4
   7  -3  -3 444.509 37.1610   7
   7  -3  -3 409.687 26.9979   6
   7  -3  -2 13.1625 5.94229   3
   7  -3  -2-4.40485 9.41977   6
   7  -3  -2-4.31349 13.6990   2
   7  -3  -2 3.81726 10.7235   7
  -7   3   2-6.65090 13.6611   4
   7  -3  -1 11.7467 7.95876   3
   7  -3  -1-6.48134 8.44366   6
   7  -3  -1 8.30393 13.6571   2
  -7   3   1-7.14463 8.75170   3
   7  -3  -1-1.54718 11.0057   7
  -7   3   1 3.18580 13.1548   4
   7  -3   0-9.24092 10.4342   6
   7  -3   0 11.8162 14.6772   2
  -7   3   0 5.07468 9.67827   3
   7  -3   0 17.0512 11.2565   7
  -7   3   0 6.12961 11.8085   4
  -7   3  -1 217.977 20.2439   4
   7  -3   1 227.524 28.7195   2
   7  -3   1 201.685 21.9687   7
  -7   3  -1 199.511 22.6067   3
   7  -3   1 209.327 23.2571   6
  -7   3  -2 465.940 35.6553   3
  -7   3  -2 498.944 25.1592   4
   7  -3   2 499.758 35.8574   6
   7  -3   3 102.495 20.0403   6
  -7   3  -3 100.277 20.2348   3
   7  -3   4 67.4834 19.6324   6
  -7   3  -4 44.2577 17.2569   3
  -7   3  -5 596.230 48.7129   3
   7  -3   5 459.737 41.8085   6
   7  -3   6 50.7010 19.6797   6
  -7   3  -6 87.6802 25.6443   3
   7  -3   7 4.21632 15.7807   6
  -7   3  -7 36.1173 19.4116   3
   7  -3   8 317.059 43.0380   6
  -7   2   9 564.620 54.1163   4
   7  -2  -9 649.966 56.7002   7
  -7   2   8 150.729 25.6449   5
  -7   2   8 139.406 26.3093   4
   7  -2  -8 130.941 29.0134   7
  -7   2   7 198.805 27.3415   5
  -7   2   7 187.953 31.6657   4
   7  -2  -7 196.360 31.2668   7
  -7   2   6 293.273 31.1948   5
  -7   2   6 233.703 31.6452   4
   7  -2  -6 243.876 30.0153   7
  -7   2   5 264.560 28.3937   5
  -7   2   5 281.949 33.6063   4
   7  -2  -5 301.866 34.0701   7
  -7   2   4 34.1986 10.4175   6
  -7   2   4 44.1048 12.8066   5
  -7   2   4 25.2047 16.0580   4
   7  -2  -4 27.4279 13.8313   7
   7  -2  -3 94.5255 13.2361   6
  -7   2   3 98.0020 14.1907   6
  -7   2   3 85.9838 17.8465   5
   7  -2  -3 114.106 21.3569   7
  -7   2   3 79.0762 18.6339   4
   7  -2  -2 662.042 46.4310   2
  -7   2   2 646.394 39.7478   4
   7  -2  -2 712.690 44.9914   7
   7  -2  -2 651.706 28.0602   6
  -7   2   2 696.049 31.4202   6
  -7   2   1 546.322 28.7962   6
  -7   2   1 528.174 24.7436   3
   7  -2  -1 588.836 43.8640   2
  -7   2   1 501.458 33.0307   4
   7  -2  -1 537.759 23.6489   3
   7  -2  -1 523.940 38.2967   7
   7  -2  -1 527.416 26.3092   6
  -7   2   0 1367.63 46.9849   6
  -7   2   0 1328.67 45.4637   3
   7  -2   0 1465.40 66.9414   2
  -7   2   0 1321.22 47.4536   4
   7  -2   0 1301.36 43.0723   3
   7  -2   0 1446.77 59.0167   7
   7  -2   0 1321.53 44.0996   6
  -7   2  -1 605.755 34.4372   3
   7  -2   1 575.272 43.6629   2
  -7   2  -1 534.762 27.5711   4
   7  -2   1 552.651 32.3194   6
  -7   2  -2 774.935 42.2324   3
  -7   2  -2 804.027 29.0553   4
   7  -2   2 823.481 41.5780   6
  -7   2  -3 2307.62 77.7798   3
  -7   2  -3 1935.20 33.3104   4
   7  -2   3 2241.94 73.4232   6
  -7   2  -4 300.953 32.1138   3
   7  -2   4 322.570 31.6369   6
   7  -2   5 233.343 30.3324   6
  -7   2  -5 192.046 28.2485   3
   7  -2   6 216.454 30.2983   6
  -7   2  -6 264.292 35.1691   3
   7  -2   7 60.1972 22.0037   6
  -7   2  -7 65.0095 23.2114   3
   7  -2   8 94.0559 23.5222   6
  -7   2  -8 116.941 30.7502   3
   7  -2   9 12.5002 18.2377   6
  -7   1   9 21.7986 19.1293   4
   7  -1  -9 18.7271 16.2984   7
  -7   1   8 199.006 32.9022   4
   7  -1  -8 180.161 30.3196   7
  -7   1   7 782.184 52.8310   5
  -7   1   7 762.199 58.3496   4
   7  -1  -7 681.613 54.4288   7
  -7   1   6-5.00046 13.3056   5
  -7   1   6 14.0773 15.1080   4
   7  -1  -6-8.84699 11.5720   7
  -7   1   5 120.897 20.9888   5
  -7   1   5 143.573 24.4550   4
   7  -1  -5 187.165 27.9534   7
  -7   1   4 70.3475 11.3864   6
  -7   1   4 52.9228 14.8429   5
  -7   1   4 60.9310 17.5445   4
   7  -1  -4 65.5348 16.6158   7
  -7   1   3 186.511 24.4401   5
  -7   1   3 219.164 26.9728   4
   7  -1  -3 199.538 26.2234   7
  -7   1   3 208.049 15.4837   6
  -7   1   2 1437.13 60.5675   5
  -7   1   2 1542.30 60.9484   4
   7  -1  -2 1608.15 67.9686   7
   7  -1  -2 1444.28 32.7600   6
  -7   1   2 1516.76 35.5945   6
  -7   1   1 632.175 23.7749   6
  -7   1   1 591.564 21.5069   3
   7  -1  -1 579.056 42.4463   2
  -7   1   1 623.510 36.7345   4
   7  -1  -1 586.459 39.8809   7
   7  -1  -1 619.277 21.3949   6
  -7   1   0 743.573 30.8398   3
   7  -1   0 819.807 49.4141   2
  -7   1   0 728.303 35.8510   4
   7  -1   0 820.984 46.1582   7
   7  -1   0 761.539 26.9637   6
  -7   1  -1 213.651 19.8200   3
   7  -1   1 263.925 30.4756   2
  -7   1  -1 208.179 18.3968   4
   7  -1   1 213.516 19.0882   3
   7  -1   1 219.886 17.6794   6
  -7   1  -2 819.784 41.1522   3
  -7   1  -2 784.716 27.5402   4
   7  -1   2 739.294 35.6164   6
  -7   1  -3 929.367 47.8960   3
  -7   1  -3 733.984 17.8944   4
   7  -1   3 851.062 42.0006   6
   7  -1   4 1307.93 57.2979   6
  -7   1  -4 1371.17 62.5351   3
   7  -1   5 254.556 28.9955   6
  -7   1  -5 213.822 28.3503   3
   7  -1   6 7.33943 14.3440   6
  -7   1  -6 22.6442 15.1630   3
   7  -1   7 153.390 27.9110   6
  -7   1  -7 100.527 25.7838   3
   7  -1   8 329.464 39.9571   6
  -7   1  -8 404.496 45.9352   3
   7  -1   9 30.3546 17.0575   6
   7   0  -9 339.294 41.6979   7
  -7   0   9 292.297 43.0622   4
  -7   0   8 418.289 47.1292   4
   7   0  -8 427.253 45.0308   7
  -7   0   7 278.353 33.1895   5
  -7   0   7 140.999 28.4138   4
   7   0  -7 204.588 30.8111   7
  -7   0   6 3362.72 107.712   5
  -7   0   6 3193.43 110.386   4
   7   0  -6 3449.40 115.018   7
  -7   0   5 302.314 32.2826   5
  -7   0   5 349.149 37.1957   4
   7   0  -5 355.669 37.1910   7
  -7   0   4 116.623 21.9773   5
  -7   0   4 148.768 25.1644   4
   7   0  -4 137.755 24.0510   7
  -7   0   3 298.996 30.0225   5
  -7   0   3 329.189 32.6247   4
   7   0  -3 289.570 31.5800   7
  -7   0   3 290.099 13.6773   6
  -7   0   2 1528.75 63.4524   5
  -7   0   2 1515.29 60.5693   4
   7   0  -2 1687.13 70.0053   7
   7   0  -1 1178.57 57.0406   2
  -7   0   1 1007.28 24.3295   3
  -7   0   1 1119.16 49.3248   4
   7   0  -1 1170.49 57.5712   7
   7   0   0 359.714 32.7892   2
  -7   0   0 319.023 18.9607   3
  -7   0   0 359.518 26.5835   4
  -7   0  -1 371.403 24.2456   3
   7   0   1 382.500 34.0341   2
  -7   0  -1 354.955 24.2080   4
   7   0   1 355.834 16.6718   6
  -7   0  -2 193.773 21.1903   3
  -7   0  -2 179.447 15.2897   4
   7   0   2 177.869 15.9025   6
   7   0   3 213.039 20.9054   6
  -7   0  -3 205.226 24.2259   3
  -7   0  -3 218.412 11.6786   4
  -7   0  -3 204.331 11.8282   4
   7   0   4 1311.30 53.0186   6
  -7   0  -4 1242.84 45.8381   1
  -7   0  -4 1303.43 58.7581   3
   7   0   5 410.976 34.2338   6
  -7   0  -5 376.024 35.3315   3
   7   0   6 411.303 37.7667   6
  -7   0  -6 377.964 37.4187   3
   7   0   7 442.703 42.4008   6
  -7   0  -7 449.065 43.8194   3
   7   0   8 121.260 25.2689   6
  -7   0  -8 115.874 24.4616   3
   7   0   9 405.771 46.5638   6
  -7   0  -9 339.239 43.0177   3
   7   0  10 159.665 33.6735   6
   7   1  -9 88.4693 24.2956   7
  -7  -1   8 147.328 30.4598   4
   7   1  -8 204.597 32.6063   7
  -7  -1   7 568.926 52.8644   4
   7   1  -7 689.793 53.9749   7
  -7  -1   6 461.958 43.1371   5
  -7  -1   6 400.509 42.5392   4
   7   1  -6 435.543 42.6294   7
  -7  -1   5 1041.31 40.3399   6
  -7  -1   5 1005.57 58.9959   5
  -7  -1   5 976.583 61.7179   4
   7   1  -5 1006.34 60.5984   7
  -7  -1   4 628.593 25.3331   6
  -7  -1   4 591.533 44.0901   5
  -7  -1   4 604.042 47.3824   4
   7   1  -4 642.670 47.3687   7
  -7  -1   3 1447.89 64.8955   5
  -7  -1   3 1450.74 67.1954   4
   7   1  -3 1365.81 65.8753   1
   7   1  -3 1461.14 69.2417   7
  -7  -1   2 626.052 42.5143   5
   7   1  -2 514.979 40.0774   1
   7   1  -1 1815.98 68.9544   2
  -7  -1   1 1828.26 68.9708   5
  -7  -1   1 1648.81 32.3597   3
   7   1  -1 1776.71 70.1453   1
  -7  -1   0 147.044 20.2127   4
  -7  -1   0 159.528 14.2080   3
   7   1   0 142.767 21.6944   2
   7   1   0 124.220 19.4978   1
   7   1   1 459.201 36.1571   2
  -7  -1  -1 466.390 29.0633   4
  -7  -1  -1 439.333 25.6232   3
   7   1   1 447.488 34.3917   1
  -7  -1  -2-5.47165 8.82733   3
   7   1   2-1.73098 4.91355   6
  -7  -1  -2 2.91380 4.43810   4
   7   1   2 0.90895 4.89553   6
  -7  -1  -2 9.69912 7.86817   4
   7   1   3 608.432 29.3202   6
  -7  -1  -3 605.191 23.8009   4
  -7  -1  -3 603.068 36.9376   3
  -7  -1  -3 672.105 24.9660   4
  -7  -1  -4 6.40202 10.9297   3
   7   1   4-7.65431 10.0269   6
  -7  -1  -5 95.6929 19.6470   3
   7   1   5 110.874 18.4004   6
  -7  -1  -6 221.469 29.5916   3
   7   1   6 245.493 28.6782   6
   7   1   7 256.570 30.6971   6
  -7  -1  -7 253.404 33.8210   3
   7   1   8 133.942 25.2507   6
  -7  -1  -8 159.437 30.4311   3
   7   1   9 0.15776 16.1187   6
  -7  -1  -9 29.9891 19.6832   3
   7   1  10 95.3875 24.1550   6
  -7  -2   8-4.38516 24.4138   4
  -7  -2   7 41.2317 21.0320   4
  -7  -2   6 173.043 28.2764   5
  -7  -2   6 194.064 30.0570   4
   7   2  -6 203.958 31.8192   1
  -7  -2   5 443.380 41.6368   5
   7   2  -5 365.080 38.1664   1
  -7  -2   4 144.024 25.4566   5
   7   2  -4 125.364 24.5505   1
  -7  -2   3 219.161 28.2928   5
   7   2  -3 175.902 25.9557   1
  -7  -2   3 196.059 9.05791   6
  -7  -2   2 23.3704 5.51485   3
  -7  -2   2 9.16882 12.9240   5
  -7  -2   2 5.78720 4.23755   3
   7   2  -2 17.5905 13.2623   1
  -7  -2   1 100.690 9.71669   3
  -7  -2   1 86.2634 17.5392   5
  -7  -2   1 124.234 11.8800   3
   7   2  -1 91.7046 18.2532   1
   7   2   0 914.748 47.3571   2
  -7  -2   0 942.310 50.7215   5
  -7  -2   0 927.847 33.5170   3
   7   2   0 922.103 51.4968   1
  -7  -2  -1 153.816 16.8766   3
   7   2   1 165.514 22.5644   2
   7   2   1 152.771 20.4017   1
  -7  -2  -2 1.18740 9.30324   3
  -7  -2  -2 16.1489 9.97071   4
   7   2   2 3.95390 2.37108   6
   7   2   2 2.15200 10.6550   1
   7   2   3 273.802 18.5630   6
  -7  -2  -3 271.707 25.8136   3
  -7  -2  -3 283.806 20.0746   4
   7   2   3 296.841 26.6760   1
   7   2   3 252.545 15.8543   6
  -7  -2  -4 31.9885 7.44195   4
   7   2   4 23.8308 7.29399   6
  -7  -2  -4 42.1071 15.6412   3
   7   2   4 34.6249 11.2573   1
  -7  -2  -5 226.286 26.7689   3
  -7  -2  -6 310.300 33.7214   3
  -7  -2  -7 708.194 52.5016   3
  -7  -2  -8 249.362 35.3295   3
  -7  -2  -9-15.6747 16.6916   3
  -7  -2 -10 112.234 25.8059   3
   7   3  -7 23.4751 17.5940   1
   7   3  -6 257.685 34.6569   1
  -7  -3   5 472.639 44.4422   5
   7   3  -5 477.109 44.4394   1
  -7  -3   4 56.9328 18.3242   5
   7   3  -4 50.3661 16.7065   1
  -7  -3   3 113.462 23.3268   5
   7   3  -3 128.251 25.0179   1
  -7  -3   2 344.690 34.1511   5
   7   3  -2 334.539 35.1987   1
  -7  -3   1 691.786 29.9108   3
  -7  -3   1 653.786 44.3917   5
   7   3  -1 698.904 48.3154   1
   7   3   0 489.164 34.0700   2
  -7  -3   0 491.122 37.6796   5
   7   3   0 501.284 39.9280   1
  -7  -3  -1 1031.98 52.9644   5
   7   3   1 1010.27 48.4844   2
   7   3   1 1018.68 53.7359   1
  -7  -3  -2 206.068 22.1131   3
   7   3   2 185.162 23.9914   2
   7   3   2 231.640 26.1939   1
  -7  -3  -3 184.347 21.8926   3
  -7  -3  -3 206.853 20.3808   4
   7   3   3 180.757 23.2786   1
   7   3   3 188.292 12.8728   6
  -7  -3  -4 338.624 31.5372   3
  -7  -3  -4 362.795 22.6079   4
   7   3   4 409.718 31.1308   1
   7   3   4 344.560 22.0163   6
  -7  -3  -5 418.688 35.4006   3
   7   3   5 516.633 32.9972   1
  -7  -3  -6 29.9683 15.0582   3
   7   3   6 62.3534 11.5849   1
  -7  -3  -7 964.582 60.1154   3
  -7  -3  -8 339.154 39.1308   3
  -7  -3  -9 470.867 48.1145   3
  -7  -3 -10 8.34067 20.5073   3
   7   4  -7 178.454 29.9900   1
   7   4  -6 79.3426 23.9116   1
   7   4  -5 220.693 33.1385   1
   7   4  -4 127.809 26.4127   1
  -7  -4   4 156.154 27.8866   5
   7   4  -3 70.2349 21.2294   1
  -7  -4   3 65.1489 19.0619   5
   7   4  -2 45.5658 15.8566   1
  -7  -4   2 18.4121 14.4439   5
  -7  -4   1 2413.54 87.2186   5
   7   4  -1 2247.21 87.7280   1
   7   4   0 108.387 22.2895   1
  -7  -4   0 93.7495 19.7724   5
   7   4   1 31.8927 14.4634   1
  -7  -4  -1 7.56528 13.0148   5
   7   4   1 7.70594 10.5832   2
   7   4   2 9.44293 11.0652   1
  -7  -4  -2 9.69967 9.85708   5
   7   4   2 18.0342 10.2439   2
   7   4   3 1649.25 67.1923   1
  -7  -4  -3 1669.53 66.2553   5
  -7  -4  -4 79.3129 17.8151   3
   7   4   4 60.3427 12.8689   1
  -7  -4  -5 137.783 22.8008   3
   7   4   5 163.660 20.6821   1
   7   4   6 69.4381 13.4568   1
  -7  -4  -6 61.9511 18.8530   3
  -7  -4  -7 210.978 31.4244   3
  -7  -4  -8 629.519 51.7621   3
  -7  -4  -9 121.349 26.3294   3
  -7  -4 -10 95.7525 26.9908   3
   7   5  -6-9.89581 20.1291   1
   7   5  -5 77.8006 23.1690   1
   7   5  -4 41.5722 19.7786   1
   7   5  -3 108.343 23.3840   1
  -7  -5   3 118.665 25.4770   5
  -7  -5   2 290.677 35.1607   5
   7   5  -2 254.347 34.5616   1
   7   5  -1 2935.89 105.929   1
  -7  -5   1 3075.75 102.923   5
   7   5   0 1768.94 81.2753   1
  -7  -5   0 1748.48 74.5033   5
   7   5   1 2642.30 95.9732   1
   7   5   1 2612.37 70.1065   2
  -7  -5  -1 2674.43 89.0325   5
   7   5   2 660.942 47.0737   1
  -7  -5  -2 680.711 44.3372   5
   7   5   2 569.723 34.0677   2
   7   5   3 1282.11 63.8542   1
  -7  -5  -3 1244.94 57.8111   5
   7   5   3 1223.07 51.5608   2
   7   5   4 629.909 43.7829   1
  -7  -5  -4 574.165 39.6655   5
   7   5   5 336.754 31.8283   1
  -7  -5  -5 288.815 31.3651   3
  -7  -5  -6 17.5972 13.2555   3
   7   5   6 57.8268 14.8263   1
   7   5   7 301.779 28.1823   1
  -7  -5  -7 254.697 33.2343   3
  -7  -5  -8 542.740 49.1969   3
  -7  -5  -9 103.580 26.9257   3
  -7  -5 -10 77.7211 26.8900   3
   7   6  -5 153.232 29.9654   1
   7   6  -4 31.5386 15.3910   1
   7   6  -3 13.1530 15.9426   1
   7   6  -2 20.6657 15.8742   1
  -7  -6   2 47.8547 18.4598   5
  -7  -6   1 206.358 30.0857   5
   7   6  -1 212.801 32.7522   1
  -7  -6   0 243.757 30.8882   5
   7   6   0 170.752 28.1118   1
   7   6   1 282.522 34.3293   1
  -7  -6  -1 355.860 35.3375   5
  -7  -6  -2 22.3465 11.6606   5
   7   6   2 27.7936 8.97337   2
   7   6   2 49.9533 19.0183   1
  -7  -6  -3 182.560 23.8755   5
   7   6   3 179.929 28.1426   1
   7   6   3 142.280 17.4654   2
  -7  -6  -4 41.7383 13.4345   5
   7   6   4 59.3304 17.6368   1
  -7  -6  -5 22.4037 10.5733   5
   7   6   5 6.07874 11.3870   1
  -7  -6  -6 65.0341 19.3086   3
  -7  -6  -6 28.1905 10.4242   5
   7   6   6 30.9374 15.0679   1
  -7  -6  -7-20.4432 18.4944   3
   7   6   7 13.5338 13.0856   1
  -7  -6  -8 311.939 38.4621   3
  -7  -6  -9 379.118 43.9384   3
   7   7  -3 167.207 30.8654   1
   7   7  -2 53.9672 21.4950   1
   7   7  -1 355.002 41.6815   1
  -7  -7   1 403.014 41.6848   5
  -7  -7   0 200.013 29.8949   5
   7   7   0 181.432 30.6622   1
  -7  -7  -1-1.65019 12.9249   5
   7   7   1 7.50860 14.8091   1
   7   7   2 413.995 42.4971   1
  -7  -7  -2 429.179 39.0799   5
   7   7   3 486.534 44.6404   1
  -7  -7  -3 428.161 37.4843   5
  -7  -7  -4 0.35282 10.0674   5
   7   7   4 3.81574 15.4799   1
  -7  -7  -5 14.9841 10.8451   5
   7   7   5 18.0593 13.9104   1
  -7  -7  -6 9.65794 10.9942   5
   7   7   6-16.1323 15.6196   1
  -7  -7  -7 18.2938 16.4500   3
  -7  -7  -7 20.7218 10.3218   5
   7   7   7 32.2869 16.0867   1
  -7  -7  -8 149.225 28.0044   3
  -7  -7  -9 216.285 36.7617   3
   7   8  -1 143.021 32.1759   1
   7   8   0 11.0728 15.4058   1
  -7  -8  -1 95.1811 21.9402   5
   7   8   1 109.155 26.2242   1
  -7  -8  -2 32.8179 17.1584   5
   7   8   2 19.3882 16.7193   1
   7   8   3 408.651 44.2938   1
  -7  -8  -3 447.636 38.8843   5
   7   8   4 636.121 53.6424   1
  -7  -8  -4 614.396 44.2211   5
  -7  -8  -5 5.76850 10.2864   5
   7   8   5-5.05472 13.3157   1
   7   8   6-2.92050 12.9334   1
   7   8   7 58.7540 21.3393   1
  -7  -8  -8 64.2235 23.1199   3
   7   9   1 88.1741 26.9380   1
   7   9   2 42.0910 21.9426   1
   7   9   3 672.218 59.5555   1
  -7  -9  -3 733.106 51.3698   5
  -7  -9  -4 119.411 23.5475   5
   7   9   4 64.4506 17.0357   1
   7   9   5 327.634 40.6174   1
   7   9   6 33.5533 17.1236   1
   7   9   7-12.4048 17.6889   1
   7   9   8 322.105 37.8890   1
   7  10   5 143.325 31.1030   1
   7  10   6-7.10655 14.0370   1
   7  10   7 71.0793 17.5343   1
   7  10   8-14.9236 16.1550   1
   8  -9  -6 24.4511 19.1212   6
   8  -9  -5-31.9548 18.9978   6
   8  -9  -5 38.1039 18.0132   7
  -8   9   4 97.0659 26.5533   4
   8  -9  -4 52.7448 20.6224   6
   8  -9  -4 73.9065 22.1156   7
  -8   9   3 10.3513 17.6427   4
   8  -9  -3 10.7051 17.8340   6
   8  -9  -2-5.25942 19.9093   6
   8  -8  -6 56.5823 19.6848   6
   8  -8  -6 38.8092 18.1040   7
  -8   8   6 14.5199 19.5756   4
   8  -8  -5 87.8110 22.6218   6
   8  -8  -5 176.361 32.3660   7
  -8   8   5 105.920 27.1639   4
   8  -8  -4 192.397 31.4478   6
   8  -8  -4 205.068 30.9427   7
  -8   8   4 168.619 30.0758   4
   8  -8  -3 46.4443 19.5378   6
   8  -8  -3 66.5747 19.4685   7
  -8   8   3 43.8997 21.9795   4
  -8   8   2 132.387 26.7811   4
   8  -8  -2 83.4096 21.2628   6
   8  -8  -1 2.82711 13.4590   6
   8  -8  -1 14.4861 20.5708   2
   8  -8   0-27.8645 20.7759   6
   8  -8   0 0.08248 15.4536   2
   8  -8   1 228.248 37.9787   6
  -8   8  -1 325.705 44.2440   3
   8  -8   1 274.883 37.1481   2
   8  -8   2 140.750 30.3186   2
   8  -7  -7 34.2447 18.4623   7
  -8   7   7 16.5815 21.4730   4
   8  -7  -6 19.0891 14.9852   6
   8  -7  -6 78.5809 23.9282   7
  -8   7   6 72.2689 25.2015   4
   8  -7  -5 131.722 24.8611   6
   8  -7  -5 156.207 28.1330   7
  -8   7   5 183.965 30.6343   4
   8  -7  -4 204.467 30.0394   6
   8  -7  -4 288.368 35.1315   7
  -8   7   4 256.694 34.9857   4
   8  -7  -3 91.9580 19.1643   6
   8  -7  -3 159.739 26.5009   7
  -8   7   3 136.038 26.6368   4
   8  -7  -2-11.6882 13.3249   6
   8  -7  -2 13.1324 10.1594   7
  -8   7   2 5.19116 14.8984   4
  -8   7   1 23.6059 17.8534   4
   8  -7  -1 40.4646 19.7873   6
   8  -7  -1 62.7782 21.7353   2
   8  -7   0-4.90697 16.4553   6
   8  -7   0 36.8237 19.9627   2
   8  -7   1-21.7428 19.9851   6
  -8   7  -1 9.04689 13.8879   3
   8  -7   2 182.752 33.0304   6
   8  -7   2 283.199 39.3258   2
  -8   7  -2 261.451 37.5774   3
   8  -7   3 85.0504 24.2978   6
   8  -7   3 122.105 29.5203   2
  -8   7  -3 46.1736 19.6210   3
   8  -6  -7 104.993 25.3380   7
  -8   6   7 89.5402 25.6702   4
   8  -6  -6 112.009 22.4497   6
   8  -6  -6 161.740 29.9003   7
  -8   6   6 140.216 28.2283   4
   8  -6  -5 42.5733 15.6646   6
  -8   6   5 9.06633 9.26810   5
   8  -6  -5-2.14954 11.7065   7
  -8   6   5 22.2790 19.4444   4
  -8   6   4 335.490 38.2064   4
   8  -6  -4 329.615 38.2092   7
   8  -6  -4 273.130 30.8464   6
   8  -6  -3 112.129 20.9062   6
   8  -6  -3 120.854 23.7974   7
  -8   6   3 116.096 23.4319   4
   8  -6  -2 435.799 46.0947   2
  -8   6   2 414.374 37.4137   4
   8  -6  -2 405.082 36.8598   7
   8  -6  -2 360.669 34.2181   6
   8  -6  -1 142.307 23.8742   6
   8  -6  -1 147.427 27.2887   2
   8  -6  -1 142.360 22.7871   7
  -8   6   1 97.2134 18.3597   4
  -8   6   0 327.722 34.8829   3
   8  -6   0 315.504 37.3947   2
  -8   6   0 269.526 28.6078   4
   8  -6   0 287.102 34.4637   6
   8  -6   1 238.683 32.0294   6
  -8   6  -1 268.589 32.8422   3
   8  -6   1 204.058 31.7719   2
   8  -6   2 185.099 30.1119   6
   8  -6   2 240.270 35.5840   2
  -8   6  -2 213.971 32.4297   3
   8  -6   3 176.637 31.5359   6
   8  -6   3 269.312 38.3318   2
  -8   6  -3 224.746 35.7896   3
   8  -6   4 292.971 41.7208   6
  -8   6  -4 386.707 46.8583   3
   8  -5  -8 256.880 38.5803   7
  -8   5   8 281.433 40.9071   4
  -8   5   7 379.798 43.8889   4
   8  -5  -7 439.495 47.5631   7
  -8   5   6 330.996 33.0093   5
  -8   5   6 332.703 39.1928   4
   8  -5  -6 453.412 46.3108   7
   8  -5  -5 7.97692 10.7601   6
  -8   5   5-7.08619 11.4959   5
   8  -5  -5-10.5883 13.8955   7
  -8   5   5-26.0617 19.3853   4
   8  -5  -4 129.539 20.2080   6
   8  -5  -4 160.098 26.2749   7
  -8   5   4 165.493 28.1554   4
   8  -5  -3 83.1060 17.5260   6
   8  -5  -3 114.198 22.1928   7
  -8   5   3 105.676 22.7357   4
   8  -5  -2 7.84580 10.0417   6
   8  -5  -2 34.4372 19.7769   2
   8  -5  -2 50.8598 16.2882   7
  -8   5   2 26.9205 13.9553   4
   8  -5  -1 88.4077 19.7431   6
  -8   5   1 98.4493 16.3536   3
   8  -5  -1 52.0707 19.0450   2
   8  -5  -1 62.9545 16.1486   7
  -8   5   1 67.7479 18.4342   4
  -8   5   0 621.463 42.4915   3
   8  -5   0 635.682 52.8324   2
  -8   5   0 578.125 37.4762   4
   8  -5   0 659.021 42.6722   7
   8  -5   0 590.272 43.0247   6
  -8   5  -1 492.883 39.9793   3
   8  -5   1 630.473 52.0731   2
   8  -5   1 475.719 40.8787   6
   8  -5   2 225.212 29.7807   6
   8  -5   2 224.554 34.4072   2
  -8   5  -2 181.600 27.9750   3
   8  -5   3 90.6843 22.4294   6
  -8   5  -3 103.896 25.9235   3
   8  -5   4 13.0625 14.3844   6
  -8   5  -4 43.9769 17.2397   3
  -8   5  -5 486.330 50.1187   3
   8  -5   5 454.722 48.8171   6
   8  -4  -8 380.515 44.4605   7
  -8   4   8 259.437 36.8466   4
  -8   4   7 37.0882 13.8993   5
   8  -4  -7 10.7292 13.0631   7
  -8   4   7 38.8572 19.7596   4
  -8   4   6 447.177 38.7141   5
  -8   4   6 512.476 46.6097   4
   8  -4  -6 526.851 48.8881   7
  -8   4   5 313.467 31.4510   5
  -8   4   5 328.396 35.7408   4
   8  -4  -5 416.728 42.7184   7
   8  -4  -5 286.513 27.2228   6
  -8   4   4 306.215 31.1430   5
  -8   4   4 318.636 34.8949   4
   8  -4  -4 331.289 36.4260   7
   8  -4  -4 362.051 29.2492   6
  -8   4   3 581.924 44.0162   4
   8  -4  -3 628.728 47.5837   7
   8  -4  -3 608.100 36.4091   6
   8  -4  -2 48.8342 11.9067   6
   8  -4  -2 41.5925 19.7948   2
   8  -4  -2 49.2680 15.9602   7
  -8   4   2 47.4313 17.2719   4
  -8   4   1 294.204 25.1426   3
   8  -4  -1 276.489 35.1510   2
  -8   4   1 296.206 28.8997   4
   8  -4  -1 237.234 27.6720   7
   8  -4  -1 282.715 27.1285   6
  -8   4   0 669.451 40.6055   3
   8  -4   0 729.872 55.3504   2
  -8   4   0 626.878 37.3747   4
   8  -4   0 652.720 42.7145   7
   8  -4   0 604.866 39.3641   6
  -8   4  -1 874.948 49.3615   3
   8  -4   1 809.181 57.5964   2
  -8   4  -1 813.512 39.0183   4
   8  -4   1 919.195 47.6607   7
   8  -4   1 817.353 48.0652   6
  -8   4  -2 1090.36 59.7679   3
   8  -4   2 1067.95 66.5701   2
   8  -4   2 1095.43 59.1315   6
   8  -4   3 136.374 25.2077   6
  -8   4  -3 150.859 26.0405   3
   8  -4   4 84.6669 22.5100   6
  -8   4  -4 135.888 27.4641   3
   8  -4   5 110.214 23.5925   6
  -8   4  -5 126.094 28.9605   3
   8  -4   6 221.649 36.2111   6
  -8   4  -6 265.616 38.6878   3
  -8   3   8 138.860 23.2638   5
   8  -3  -8 177.170 32.8576   7
  -8   3   8 177.469 32.0730   4
  -8   3   7 384.753 37.2400   5
  -8   3   7 431.766 44.3040   4
   8  -3  -7 412.940 44.8601   7
  -8   3   6 274.048 31.4831   5
   8  -3  -6 330.544 38.3415   7
  -8   3   6 257.207 34.3464   4
  -8   3   5 37.4960 12.7231   5
   8  -3  -5 30.4183 15.4389   7
  -8   3   5 25.8843 14.6081   4
  -8   3   4 644.079 44.3882   5
  -8   3   4 736.137 49.9410   4
   8  -3  -4 772.635 54.0910   7
   8  -3  -4 680.786 35.1399   6
  -8   3   3 329.216 32.8768   4
   8  -3  -3 371.628 37.0997   7
   8  -3  -3 304.808 23.3012   6
   8  -3  -2 80.8582 14.2805   6
   8  -3  -2 54.2969 19.6694   2
   8  -3  -2 72.0508 17.5030   7
  -8   3   2 78.9517 17.1546   4
   8  -3  -1 94.8427 14.9283   6
   8  -3  -1 83.9273 20.1770   2
  -8   3   1 78.2042 12.2401   3
   8  -3  -1 99.1570 16.7915   7
  -8   3   1 82.6633 17.0546   4
   8  -3   0 18.4406 9.96405   6
   8  -3   0 30.6656 16.9555   2
  -8   3   0 0.74862 11.6401   3
   8  -3   0 24.4742 11.2664   7
  -8   3   0 35.3269 13.1605   4
  -8   3  -1 597.714 38.9881   3
   8  -3   1 597.172 47.8436   2
  -8   3  -1 519.299 29.6513   4
   8  -3   1 528.989 34.4999   6
   8  -3   2 131.326 20.9465   6
  -8   3  -2 177.678 24.5878   3
  -8   3  -3 471.409 40.2085   3
   8  -3   3 437.564 37.4128   6
  -8   3  -4 202.920 30.3783   3
   8  -3   4 253.055 31.6209   6
   8  -3   5 10.7546 16.6618   6
  -8   3  -5-7.12645 14.1273   3
  -8   3  -6 411.170 44.8903   3
   8  -3   6 437.980 45.7674   6
  -8   3  -7 259.911 39.0075   3
   8  -3   7 310.956 41.4404   6
  -8   2   8 176.790 27.6869   5
  -8   2   8 130.705 28.9776   4
   8  -2  -8 149.283 27.8686   7
  -8   2   7 413.302 39.5863   5
  -8   2   7 379.738 42.9555   4
   8  -2  -7 466.643 48.9822   7
  -8   2   6 554.363 44.6012   5
  -8   2   6 577.083 50.3239   4
   8  -2  -6 574.405 50.0535   7
  -8   2   5 217.693 27.6808   5
   8  -2  -5 270.041 35.0289   7
  -8   2   5 233.686 31.2594   4
  -8   2   4 24.4789 13.1702   5
  -8   2   4 10.3211 13.5592   4
   8  -2  -4-1.55074 15.0612   7
  -8   2   3 507.208 39.4943   5
  -8   2   3 548.770 41.4101   4
   8  -2  -3 568.064 46.2337   7
   8  -2  -3 507.001 24.9266   6
   8  -2  -2 50.5299 10.1784   6
   8  -2  -2 19.6578 14.1737   2
   8  -2  -2 58.6968 17.2795   7
  -8   2   2 29.8773 12.9741   4
  -8   2   1 998.050 33.3714   3
   8  -2  -1 962.366 58.4525   2
  -8   2   1 971.027 47.1913   4
   8  -2  -1 1049.70 56.6926   7
   8  -2  -1 956.324 34.5059   6
   8  -2   0 130.232 14.6367   6
   8  -2   0 135.642 23.9910   2
  -8   2   0 126.731 16.6933   3
   8  -2   0 120.950 20.7155   7
  -8   2   0 145.560 18.7432   4
   8  -2   1 8.88277 8.64351   6
   8  -2   1-0.92250 14.1662   2
  -8   2  -1-5.03605 11.1567   3
  -8   2  -1 6.71916 8.92712   4
   8  -2   2 30.7306 11.6989   6
  -8   2  -2 38.1942 12.3423   3
  -8   2  -2 25.6476 7.30725   4
  -8   2  -3 174.445 24.5089   3
   8  -2   3 213.667 24.6066   6
   8  -2   4 0.72210 10.7231   6
  -8   2  -4 6.76910 12.8332   3
  -8   2  -5 388.427 39.9688   3
   8  -2   5 411.250 38.7159   6
  -8   2  -6 362.147 40.6646   3
   8  -2   6 374.887 40.5332   6
   8  -2   7-2.87500 15.4493   6
  -8   2  -7 4.12335 16.0688   3
   8  -2   8 306.261 40.9324   6
  -8   1   8 200.839 32.0229   5
  -8   1   8 221.998 35.7395   4
   8  -1  -8 261.965 38.6884   7
  -8   1   7 95.1653 22.4566   5
  -8   1   7 129.405 29.6770   4
   8  -1  -7 88.3454 24.8151   7
  -8   1   6 171.933 27.6318   5
  -8   1   6 154.266 29.4500   4
   8  -1  -6 112.834 27.3606   7
  -8   1   5 275.799 32.7258   5
  -8   1   5 289.652 35.5828   4
   8  -1  -5 355.831 39.0758   7
  -8   1   4 80.5063 18.3216   5
  -8   1   4 72.5850 19.9139   4
   8  -1  -4 85.3615 21.4604   7
  -8   1   3 411.319 36.3966   5
  -8   1   3 416.120 36.8685   4
   8  -1  -3 491.319 43.1842   7
  -8   1   2 267.786 29.6991   5
  -8   1   2 278.071 29.5438   4
   8  -1  -2 291.647 31.6838   7
  -8   1   1 264.214 14.8356   3
   8  -1  -1 252.861 31.1821   2
  -8   1   1 282.977 27.8150   4
   8  -1  -1 255.833 29.3684   7
   8  -1  -1 247.385 12.7332   6
  -8   1   0 397.651 23.8705   3
   8  -1   0 379.075 36.4211   2
  -8   1   0 377.103 28.4124   4
   8  -1   0 380.343 18.3102   6
  -8   1  -1 357.579 26.3819   3
   8  -1   1 378.360 37.5720   2
  -8   1  -1 366.676 24.9277   4
   8  -1   1 326.215 20.5962   6
  -8   1  -2 1860.95 63.7062   3
  -8   1  -2 1910.07 46.3466   4
   8  -1   2 1867.81 55.2477   6
  -8   1  -3 464.855 35.8264   3
   8  -1   3 405.166 29.7981   6
  -8   1  -4 689.898 46.2092   3
   8  -1   4 681.978 42.3534   6
   8  -1   5 199.434 26.4373   6
  -8   1  -5 155.299 25.5473   3
   8  -1   6 1123.36 63.0030   6
  -8   1  -6 1206.43 69.2949   3
   8  -1   7 189.836 29.0146   6
  -8   1  -7 235.544 34.9008   3
   8  -1   8 12.3328 15.6434   6
  -8   1  -8 35.5283 22.5145   3
   8  -1   9 97.8231 29.2800   6
  -8   0   8 259.854 39.7888   4
   8   0  -8 221.409 34.5472   7
  -8   0   7 204.745 31.3525   5
  -8   0   7 206.323 33.3693   4
   8   0  -7 216.743 33.7512   7
  -8   0   6 95.4046 21.4783   5
  -8   0   6 90.7928 25.1821   4
   8   0  -6 43.1419 16.7746   7
  -8   0   5 214.858 30.1024   5
   8   0  -5 202.881 34.2396   7
  -8   0   5 229.820 32.6819   4
  -8   0   4 753.246 50.2567   5
  -8   0   4 755.486 51.6823   4
   8   0  -4 815.540 56.4035   7
  -8   0   3 330.415 33.5531   5
  -8   0   3 399.505 37.1038   4
   8   0  -3 363.309 37.3084   7
  -8   0   2 164.760 24.4177   5
  -8   0   2 192.817 25.4345   4
   8   0  -2 162.076 26.0697   7
  -8   0   1 7.17334 10.0810   5
   8   0  -1 2.17405 12.2874   2
  -8   0   1-2.31240 3.32874   3
  -8   0   1 4.18748 11.6775   4
  -8   0   0 188.739 16.0308   3
   8   0   0 180.897 27.4390   2
  -8   0   0 183.895 21.5604   4
  -8   0  -1 1043.18 41.4228   3
   8   0   1 1003.82 57.6276   2
  -8   0  -1 1023.17 42.6973   4
   8   0   1 915.433 23.1390   6
  -8   0  -2 494.876 32.4633   3
  -8   0  -2 537.786 26.8217   4
   8   0   2 538.949 25.0051   6
   8   0   3 58.1144 12.2035   6
  -8   0  -3 59.7195 7.98199   4
  -8   0  -3 77.8158 16.7902   3
   8   0   4 546.169 35.1346   6
  -8   0  -4 638.442 43.5380   3
   8   0   5 25.4357 11.7222   6
  -8   0  -5 35.5439 16.0945   3
   8   0   6 879.537 52.9728   6
  -8   0  -6 842.761 56.3445   3
   8   0   7 296.771 33.1037   6
  -8   0  -7 351.173 40.2405   3
   8   0   8 454.730 44.5914   6
  -8   0  -8 474.142 48.3826   3
   8   0   9 12.2267 16.2706   6
   8   1  -8 211.033 35.6987   7
  -8  -1   7 100.011 23.8550   5
  -8  -1   7 107.620 27.5061   4
   8   1  -7 127.137 26.6746   7
  -8  -1   6 718.547 55.5514   5
  -8  -1   6 739.490 58.6991   4
   8   1  -6 821.088 60.7401   7
  -8  -1   5 348.765 38.3469   5
   8   1  -5 341.453 40.6245   7
  -8  -1   5 298.257 36.4570   4
  -8  -1   4 589.375 46.9677   5
  -8  -1   4 561.143 47.0315   4
   8   1  -4 571.268 48.4605   7
  -8  -1   3 2752.81 95.5454   5
  -8  -1   3 2896.49 98.5198   4
  -8  -1   2 1086.88 58.9833   5
  -8  -1   2 1106.35 58.4752   4
  -8  -1   1 217.604 27.3404   5
  -8  -1   1 188.236 11.3515   3
  -8  -1   1 222.470 27.1432   4
   8   1  -1 183.572 25.9148   2
   8   1   0 226.435 28.6063   2
  -8  -1   0 226.481 16.8309   3
  -8  -1   0 212.480 24.1978   4
   8   1   1 771.856 48.7056   2
  -8  -1  -1 767.639 34.9273   3
  -8  -1  -1 806.788 40.2763   4
   8   1   2 1282.12 63.9690   2
  -8  -1  -2 1233.49 49.0240   3
  -8  -1  -2 1268.97 44.8744   4
   8   1   2 1129.35 25.6195   6
  -8  -1  -3 549.981 36.5672   3
  -8  -1  -3 494.959 23.5055   4
   8   1   3 532.414 26.3423   6
   8   1   4 214.097 20.4623   6
  -8  -1  -4 235.013 27.5273   3
   8   1   5 2.26747 9.35723   6
  -8  -1  -5 13.8110 12.2331   3
   8   1   6 504.545 39.8247   6
  -8  -1  -6 400.703 39.7934   3
   8   1   7 133.398 23.9065   6
  -8  -1  -7 93.3037 22.0288   3
   8   1   8 604.007 50.5167   6
  -8  -1  -8 583.977 52.3257   3
   8   1   9 49.4764 18.6543   6
  -8  -1  -9 74.0341 23.8233   3
   8   1  10 180.651 32.7793   6
  -8  -2   7 137.803 30.7794   4
  -8  -2   6-8.65993 14.6636   5
  -8  -2   6-15.4339 17.3975   4
  -8  -2   5 90.7647 22.4458   5
   8   2  -5 66.7693 20.7095   1
  -8  -2   5 70.5459 19.5057   4
  -8  -2   4 631.801 50.0011   5
   8   2  -4 598.088 50.1130   1
  -8  -2   3 52.8846 19.1293   5
   8   2  -3 47.3002 17.5004   1
  -8  -2   2 1430.61 68.9115   5
   8   2  -2 1436.19 72.0810   1
  -8  -2   1 459.444 39.5274   5
  -8  -2   1 403.611 19.0489   3
   8   2  -1 364.945 35.8043   1
   8   2   0 905.735 51.4730   2
  -8  -2   0 827.170 50.7395   5
  -8  -2   0 941.419 34.7823   3
   8   2   0 894.330 54.0331   1
  -8  -2  -1 18.5334 8.52215   3
   8   2   1 17.9323 12.4196   2
   8   2   1 27.8841 13.2968   1
   8   2   2 1369.26 64.2712   2
  -8  -2  -2 1277.58 50.4258   3
   8   2   2 1270.50 59.3181   1
  -8  -2  -3 28.6426 10.6974   3
   8   2   3 36.3904 11.6554   1
  -8  -2  -3 55.4580 11.0598   4
   8   2   4 199.266 19.1551   6
  -8  -2  -4 154.387 22.1689   3
  -8  -2  -5 50.3559 18.2050   3
   8   2   5-10.5619 10.5271   6
  -8  -2  -6-3.62403 12.5676   3
   8   2   6-22.5927 14.5698   6
  -8  -2  -7 26.9859 15.6423   3
   8   2   7 17.2063 13.7989   6
   8   2   8 21.7839 13.0564   6
  -8  -2  -8 24.5417 16.4601   3
   8   2   9-6.94082 15.2212   6
  -8  -2  -9-22.4286 19.4476   3
   8   2  10 191.199 34.6603   6
   8   3  -6 10.8997 14.6352   1
  -8  -3   5-39.2162 18.9233   5
   8   3  -5-29.2353 17.2116   1
  -8  -3   4 4.07421 15.8680   5
   8   3  -4 0.51631 14.8987   1
  -8  -3   3 608.333 49.6959   5
   8   3  -3 607.349 51.0458   1
  -8  -3   2 438.295 40.6781   5
   8   3  -2 417.216 41.5536   1
  -8  -3   1 94.1384 20.8232   5
  -8  -3   1 116.232 14.0665   3
   8   3  -1 69.7796 19.0577   1
   8   3   0 776.587 46.3783   2
  -8  -3   0 778.672 50.7496   5
  -8  -3   0 769.560 34.4528   3
   8   3   0 794.967 52.8113   1
  -8  -3  -1 9.40076 9.63731   3
  -8  -3  -1-0.85295 12.5823   5
   8   3   1 6.32755 9.98132   2
   8   3   1 11.4151 11.5018   1
  -8  -3  -2 12.6343 9.35742   3
  -8  -3  -2-13.9430 11.8604   5
   8   3   2 14.1492 11.6858   2
   8   3   2-0.10453 11.8781   1
  -8  -3  -3 1119.83 52.2293   3
   8   3   3 1100.08 55.8123   1
  -8  -3  -4 402.435 34.5493   3
   8   3   4 427.978 34.4792   1
  -8  -3  -5 20.9277 16.9539   3
   8   3   5 19.9994 11.0738   1
  -8  -3  -6 76.5114 19.3362   3
   8   3   6 85.4092 15.1708   1
  -8  -3  -7 77.3934 18.8329   3
  -8  -3  -8 73.7705 22.3072   3
  -8  -3  -9 35.5361 20.5987   3
   8   4  -6 432.678 47.9004   1
   8   4  -5 152.583 30.7347   1
  -8  -4   4 28.8273 19.9806   5
   8   4  -4 17.9303 14.0825   1
  -8  -4   3 303.448 36.7096   5
   8   4  -3 349.235 41.4301   1
   8   4  -2-2.30916 17.1150   1
  -8  -4   2 27.2599 16.0823   5
  -8  -4   1 617.096 47.2106   5
   8   4  -1 636.054 51.2347   1
   8   4   0 112.892 23.5306   1
  -8  -4   0 114.317 21.1994   5
   8   4   1 335.410 30.9996   2
  -8  -4  -1 334.761 34.3517   5
   8   4   1 331.196 35.0917   1
  -8  -4  -2 406.121 36.1038   5
   8   4   2 380.671 31.9457   2
  -8  -4  -2 374.208 30.0669   3
   8   4   2 396.700 37.2061   1
  -8  -4  -3 300.776 31.7720   5
   8   4   3 309.093 30.7797   2
  -8  -4  -3 244.444 26.0478   3
   8   4   3 334.905 33.5169   1
  -8  -4  -4 279.697 30.4901   3
   8   4   4 307.048 31.0248   1
  -8  -4  -5 291.273 31.6903   3
   8   4   5 267.241 27.9089   1
  -8  -4  -6 1.97910 13.5066   3
   8   4   6 27.0690 12.3175   1
  -8  -4  -7 71.4495 20.6304   3
  -8  -4  -8 330.440 40.4614   3
  -8  -4  -9 145.744 29.2026   3
   8   5  -5 142.303 27.9496   1
   8   5  -4 126.597 28.4494   1
   8   5  -3 6.03150 12.2078   1
  -8  -5   3 1.77677 13.6040   5
   8   5  -2 85.1997 23.5675   1
  -8  -5   2 130.664 27.9443   5
  -8  -5   1 546.622 47.9937   5
   8   5  -1 534.049 48.5004   1
   8   5   0-13.2964 19.0230   1
  -8  -5   0-5.29062 13.6434   5
  -8  -5  -1 825.003 53.1687   5
   8   5   1 842.950 57.9017   1
  -8  -5  -2 939.956 55.8752   5
   8   5   2 894.882 46.3536   2
   8   5   2 907.235 58.5533   1
  -8  -5  -3 1735.87 73.2282   5
   8   5   3 1583.17 63.8906   2
   8   5   3 1774.45 78.6327   1
  -8  -5  -4 211.849 27.3069   3
   8   5   4 209.994 28.3140   1
  -8  -5  -4 232.956 28.3332   5
  -8  -5  -5 156.778 25.8120   3
   8   5   5 175.690 25.4652   1
  -8  -5  -5 172.981 24.1916   5
  -8  -5  -6 771.834 54.2715   3
   8   5   6 739.957 45.6275   1
  -8  -5  -7-12.5300 13.6779   3
  -8  -5  -8 62.5076 21.4947   3
  -8  -5  -9 38.6721 22.6808   3
   8   6  -3 261.507 40.2375   1
   8   6  -2 10.6703 15.7011   1
  -8  -6   2 6.51222 15.3674   5
   8   6  -1 42.6824 17.5609   1
  -8  -6   1 83.2582 22.7109   5
   8   6   0 246.647 35.2937   1
  -8  -6   0 237.109 31.7423   5
   8   6   1 129.889 27.1164   1
  -8  -6  -1 121.592 22.7110   5
   8   6   2 782.066 58.3993   1
  -8  -6  -2 756.688 52.3573   5
   8   6   3 1530.40 78.0142   1
  -8  -6  -3 1491.10 69.8530   5
   8   6   3 1389.61 56.6111   2
   8   6   4 1223.15 67.5026   1
  -8  -6  -4 1236.29 62.5531   5
   8   6   4 1182.20 55.1244   2
   8   6   5 604.803 46.3726   1
  -8  -6  -5 542.349 42.0918   5
  -8  -6  -5 557.061 45.6337   3
  -8  -6  -6 80.5452 21.0459   3
   8   6   6 64.2105 20.4567   1
  -8  -6  -6 56.7392 16.1999   5
  -8  -6  -7 107.830 25.0510   3
  -8  -6  -8 131.863 26.5018   3
  -8  -6  -9 66.5348 25.7976   3
   8   7  -2 2.43044 16.0702   1
   8   7  -1 552.943 55.1322   1
  -8  -7   1 650.051 54.5836   5
   8   7   0 7.93719 17.2023   1
  -8  -7   0 24.1931 15.7481   5
  -8  -7  -1-5.72770 15.2085   5
   8   7   1 5.98957 15.1056   1
  -8  -7  -2 179.596 27.8199   5
   8   7   2 163.025 28.8027   1
  -8  -7  -3 9.40225 11.8545   5
   8   7   3 21.2450 15.8535   1
  -8  -7  -4 259.463 30.8703   5
   8   7   4 278.098 35.7452   1
  -8  -7  -5 61.6868 17.1675   5
   8   7   5 72.3708 22.8047   1
  -8  -7  -6 12.3951 14.1968   3
  -8  -7  -6 3.14548 10.1358   5
   8   7   6 21.7652 16.6096   1
  -8  -7  -7 88.7755 20.7831   3
   8   7   7 190.988 28.1170   1
  -8  -7  -8 17.3213 17.9854   3
  -8  -8   0 132.722 26.6985   5
   8   8   0 132.128 32.6092   1
  -8  -8  -1 60.6515 16.6304   5
   8   8   1 79.3841 24.9711   1
  -8  -8  -2 64.9419 20.8052   5
   8   8   2 72.5257 22.4644   1
  -8  -8  -3 61.2383 19.5381   5
   8   8   3 81.8892 23.1443   1
  -8  -8  -4 123.648 23.6742   5
   8   8   4 94.6335 25.1186   1
  -8  -8  -5 131.097 23.9399   5
   8   8   5 149.042 29.1516   1
   8   8   6 526.959 47.5707   1
  -8  -8  -7 66.3393 26.4819   3
   8   8   7-8.51205 14.3305   1
  -8  -9  -2 22.9944 16.2858   5
  -8  -9  -3 10.6742 13.6898   5
   8   9   3 30.0463 23.2469   1
   8   9   4 43.1347 18.5462   1
   8   9   5 9.01738 16.1393   1
   8   9   6 149.283 29.3228   1
   8   9   7 61.5656 19.0948   1
   9  -8  -4 125.679 29.0443   7
  -9   8   4 101.299 28.4702   4
  -9   8   3 183.261 32.1061   4
   9  -7  -5 182.823 30.7584   7
  -9   7   5 161.512 28.6152   4
   9  -7  -4 162.831 31.2245   7
  -9   7   4 106.838 27.7406   4
   9  -7  -3-33.7127 22.9205   7
  -9   7   3-35.2738 21.7567   4
  -9   7   2 56.4023 18.7398   4
   9  -7  -1 179.649 34.1344   2
   9  -7   0 7.67105 16.4021   6
   9  -7   0 74.5138 24.8259   2
   9  -7   1 190.153 33.1557   6
   9  -7   2-17.3173 23.6618   6
  -9   7  -2 1.74065 19.6128   3
   9  -6  -6 27.8181 18.0958   7
  -9   6   6 11.1785 20.4705   4
   9  -6  -5 30.2964 21.5058   7
  -9   6   5-9.84135 21.2701   4
   9  -6  -4 170.798 27.6817   7
  -9   6   4 176.324 29.4968   4
   9  -6  -3 27.5667 14.6166   7
  -9   6   3 13.7548 16.5122   4
   9  -6  -2 27.8175 14.1589   7
  -9   6   2 17.3697 15.0184   4
   9  -6  -1 90.3872 27.1000   2
   9  -6  -1 120.945 23.4265   7
   9  -6   0 132.446 24.2989   6
   9  -6   0 191.732 35.0188   2
   9  -6   1 26.8055 17.9059   6
   9  -6   1 65.0421 25.6494   2
   9  -6   2 98.2649 25.0808   6
   9  -6   2 121.753 27.4147   2
  -9   6  -2 35.8444 18.2259   3
   9  -6   3 59.8744 24.2332   6
  -9   6  -3-4.19699 18.2992   3
  -9   5   7 91.0310 24.7356   4
  -9   5   6 94.7702 19.1519   5
   9  -5  -6 131.340 29.0888   7
  -9   5   6 106.112 25.9903   4
  -9   5   5 326.934 35.7568   5
   9  -5  -5 366.964 42.8461   7
  -9   5   5 301.390 36.4431   4
  -9   5   4 357.428 36.4168   5
  -9   5   4 431.988 42.0662   4
   9  -5  -4 357.681 39.7551   7
   9  -5  -3 154.935 28.5037   7
  -9   5   3 152.643 26.7123   4
   9  -5  -2 238.183 35.3792   2
   9  -5  -2 177.124 26.4611   7
  -9   5   2 166.927 25.9849   4
   9  -5  -1 16.2229 18.3937   2
   9  -5  -1 30.3120 15.6801   7
  -9   5   1 10.8466 13.6439   4
   9  -5   0 110.623 27.7604   2
   9  -5   0 145.479 22.5732   7
   9  -5   1 243.961 30.9356   6
  -9   5  -1 317.406 35.1875   3
   9  -5   1 297.872 38.0813   2
  -9   5  -2 477.481 43.9264   3
   9  -5   2 391.292 45.0340   2
   9  -5   2 386.675 40.1109   6
   9  -5   3 233.209 34.3509   6
   9  -5   3 229.753 35.5567   2
  -9   5  -3 268.254 34.3970   3
   9  -5   4 145.520 29.5151   6
  -9   5  -4 179.366 32.5505   3
   9  -5   5 119.344 27.9004   6
  -9   4   7 122.728 23.5570   5
   9  -4  -7 127.305 26.2049   7
  -9   4   7 182.598 33.1481   4
  -9   4   6 204.140 28.8711   5
   9  -4  -6 273.197 37.9613   7
  -9   4   6 251.099 36.6694   4
  -9   4   5 31.7397 10.8255   5
   9  -4  -5 53.7553 19.9507   7
  -9   4   5 60.1974 18.5637   4
  -9   4   4 497.999 42.3834   5
  -9   4   4 509.848 45.2327   4
   9  -4  -4 541.329 49.3097   7
  -9   4   3 628.928 46.8969   4
   9  -4  -3 711.375 54.1241   7
   9  -4  -2 7.11662 17.6970   2
   9  -4  -2 9.21515 12.6834   7
  -9   4   2-30.9162 16.1651   4
   9  -4  -1 148.587 28.7447   2
   9  -4  -1 147.334 25.0882   7
  -9   4   1 146.844 22.6402   4
   9  -4   0 55.0033 22.4452   2
   9  -4   0 43.4268 15.6293   7
  -9   4   0 13.8830 11.0324   4
   9  -4   1-18.1934 22.8714   2
  -9   4  -1-42.2991 17.2252   3
  -9   4  -2 391.345 37.3285   3
   9  -4   2 352.354 43.0368   2
   9  -4   2 370.249 35.4378   6
  -9   4  -3 404.834 39.7942   3
   9  -4   3 404.500 46.3000   2
   9  -4   3 384.969 40.1132   6
   9  -4   4 102.510 24.6896   6
  -9   4  -4 63.9368 19.7313   3
   9  -4   5 176.667 31.7773   6
  -9   4  -5 145.709 28.7990   3
   9  -4   6 12.7706 14.0997   6
  -9   3   8 30.6128 13.8070   5
  -9   3   7 44.6766 15.4287   5
   9  -3  -7 47.0396 20.2676   7
  -9   3   7 90.9649 26.4605   4
  -9   3   6 43.3907 15.3832   5
   9  -3  -6 45.3169 20.3731   7
  -9   3   6 52.7963 20.6560   4
  -9   3   5 117.629 23.2161   5
   9  -3  -5 155.402 28.2060   7
  -9   3   5 147.880 28.2702   4
  -9   3   4 120.391 21.4085   5
   9  -3  -4 181.427 29.5558   7
  -9   3   4 157.629 27.3702   4
  -9   3   3 616.871 47.2098   5
  -9   3   3 616.084 45.7714   4
   9  -3  -3 677.744 52.8349   7
   9  -3  -2 868.326 61.4056   2
  -9   3   2 816.149 49.7066   4
   9  -3  -2 999.602 61.3303   7
   9  -3  -1 619.665 51.8117   2
  -9   3   1 534.839 37.2648   4
   9  -3  -1 663.513 48.4984   7
   9  -3   0 80.2409 18.6541   2
   9  -3   0 76.5509 18.9902   7
  -9   3   0 85.7990 16.6711   4
  -9   3  -1 253.850 26.5218   3
   9  -3   1 271.662 37.1864   2
   9  -3   2 107.218 25.0278   2
  -9   3  -2 129.125 23.3543   3
  -9   3  -3 609.692 46.7685   3
   9  -3   3 588.996 42.5290   6
  -9   3  -4 416.765 42.0205   3
   9  -3   4 322.856 34.1696   6
  -9   3  -5 327.436 38.7954   3
   9  -3   5 445.052 43.5195   6
   9  -3   6 159.397 26.6844   6
  -9   3  -6 113.865 25.5785   3
  -9   2   8 27.2354 18.4361   5
  -9   2   7 172.136 29.4043   5
  -9   2   7 221.541 35.9785   4
   9  -2  -7 205.016 33.8288   7
  -9   2   6 178.860 28.8526   5
  -9   2   6 115.902 26.1009   4
   9  -2  -6 165.883 30.9541   7
  -9   2   5 86.0091 20.2090   5
  -9   2   5 100.260 24.3411   4
   9  -2  -5 132.256 27.3098   7
  -9   2   4 632.913 49.5200   5
  -9   2   4 465.860 42.3626   4
   9  -2  -4 470.374 45.9810   7
  -9   2   3 474.202 41.0754   5
  -9   2   3 465.262 40.8185   4
   9  -2  -3 614.065 50.2000   7
   9  -2  -2 53.2134 18.9625   7
  -9   2   2 86.7812 19.8521   4
   9  -2  -1 254.920 35.2993   2
   9  -2  -1 270.872 32.6729   7
  -9   2   1 206.983 25.0027   4
   9  -2   0 24.8675 14.5346   2
  -9   2   0 13.1070 10.9081   4
  -9   2  -1 318.577 27.8811   3
   9  -2   1 299.170 38.1760   2
  -9   2  -1 267.028 22.7523   4
  -9   2  -2 358.986 32.1408   3
   9  -2   2 314.827 37.3584   2
  -9   2  -3-15.1300 16.2855   3
  -9   2  -4 10.4971 12.6738   3
  -9   2  -5 11.2788 14.3373   3
  -9   2  -6 102.319 27.1142   3
  -9   2  -7 270.450 39.1275   3
  -9   1   8 93.8322 25.6387   5
  -9   1   7 99.1964 24.5568   5
  -9   1   7 117.633 30.9262   4
   9  -1  -7 48.3919 16.9242   7
  -9   1   6 165.588 27.9728   5
  -9   1   6 91.9903 21.9608   4
   9  -1  -6 177.603 30.8595   7
  -9   1   5 413.308 40.6547   5
  -9   1   5 388.793 42.1320   4
   9  -1  -5 395.147 44.5704   7
  -9   1   4 110.106 25.9368   5
  -9   1   4 113.403 23.9972   4
   9  -1  -4 111.078 25.9075   7
  -9   1   3 731.463 51.3728   5
  -9   1   3 779.767 52.6249   4
   9  -1  -3 702.887 53.9024   7
  -9   1   2 553.297 44.4298   5
  -9   1   2 613.470 43.8884   4
   9  -1  -2 547.379 45.9571   7
   9  -1  -1 25.3444 15.5921   2
  -9   1   1 41.5303 14.9582   4
  -9   1   0 277.607 26.6170   4
   9  -1   0 234.519 31.6936   2
   9  -1   1 50.1477 18.0072   2
  -9   1  -1 44.8443 12.4577   3
  -9   1  -1 50.0463 12.9766   4
   9  -1   2-0.76548 16.6559   2
  -9   1  -2-5.45496 11.7778   3
  -9   1  -3 25.1626 11.9729   3
  -9   1  -4 29.5373 12.1093   3
  -9   1  -5 63.5257 17.6418   3
  -9   1  -6 123.992 25.7536   3
  -9   1  -7 208.917 32.9572   3
  -9   0   7 31.8986 15.6502   5
  -9   0   7 69.4893 25.4254   4
   9   0  -7 115.760 27.8678   7
  -9   0   6 82.9792 22.4677   5
  -9   0   6 182.663 33.7947   4
   9   0  -6 97.2865 27.7347   7
  -9   0   5 182.237 30.2243   5
  -9   0   5 210.996 33.1440   4
   9   0  -5 160.405 31.6907   7
  -9   0   4-15.7712 16.8613   5
  -9   0   4 4.83447 15.5047   4
   9   0  -4 17.1375 15.7720   7
  -9   0   3 235.505 31.0895   5
   9   0  -3 237.992 34.1237   7
  -9   0   3 206.958 28.7215   4
  -9   0   2 567.476 45.3131   5
  -9   0   2 527.578 41.6939   4
  -9   0   1 154.061 25.1150   5
   9   0  -1 130.122 24.0652   2
  -9   0   1 171.061 24.7305   4
   9   0   0 108.536 23.9761   2
  -9   0   0 118.842 19.5202   4
   9   0   1 9.12343 15.4454   2
  -9   0  -1 19.1521 9.51044   4
  -9   0  -1 18.4921 7.62982   3
  -9   0  -2 739.585 40.5574   3
   9   0   2 792.176 56.3000   2
  -9   0  -3 279.747 28.5031   3
  -9   0  -4 673.199 46.0741   3
  -9   0  -5 118.349 23.5439   3
  -9   0  -6 364.049 39.1205   3
  -9   0  -7 244.983 35.0125   3
  -9   0  -8 99.1143 24.8643   3
  -9  -1   6 202.440 32.2748   5
  -9  -1   6 215.888 35.6457   4
  -9  -1   5 31.3668 17.7327   5
  -9  -1   5 10.4306 13.8589   4
  -9  -1   4 263.900 33.6842   5
  -9  -1   4 218.391 31.9730   4
  -9  -1   3 231.520 31.8339   5
  -9  -1   3 238.288 31.7831   4
  -9  -1   2 914.253 58.2564   5
  -9  -1   2 1026.90 58.4194   4
   9   1  -1 1018.21 60.5635   2
  -9  -1   1 1014.75 59.5640   5
  -9  -1   1 1008.01 54.7067   4
   9   1   0 715.816 50.5344   2
  -9  -1   0 707.475 50.1335   5
  -9  -1   0 670.885 42.1455   4
   9   1   1-2.15081 14.4223   2
  -9  -1  -1 7.17890 9.41622   4
  -9  -1  -1-2.49087 8.26998   3
   9   1   2 56.7521 17.6314   2
  -9  -1  -2 66.0521 13.5970   4
  -9  -1  -2 78.7108 15.0518   3
  -9  -1  -3 316.249 29.7413   3
  -9  -1  -4 1066.56 56.6196   3
  -9  -1  -5 27.3900 15.2618   3
  -9  -1  -6 338.561 37.7415   3
  -9  -1  -7 152.744 29.8723   3
  -9  -1  -8 54.6402 22.9926   3
  -9  -2   6 128.678 29.1109   5
  -9  -2   6 95.0630 26.3574   4
  -9  -2   5 187.746 34.2843   5
  -9  -2   5 176.653 33.8969   4
  -9  -2   4 238.228 33.5016   5
  -9  -2   4 224.594 36.0374   4
  -9  -2   3 12.9206 11.4233   5
   9   2  -3 28.3227 15.2699   1
  -9  -2   3 41.7474 21.1356   4
  -9  -2   2 1833.39 82.7792   5
  -9  -2   2 1962.63 84.6745   4
   9   2  -2 1856.61 85.6594   1
  -9  -2   1 215.894 30.1640   5
  -9  -2   1 236.033 28.9090   4
   9   2  -1 212.987 29.3478   1
   9   2   0 1711.45 74.6512   2
  -9  -2   0 1779.60 79.8118   5
  -9  -2   0 1857.03 73.5505   4
   9   2   0 1772.70 79.9361   1
  -9  -2  -1 258.774 31.6213   5
  -9  -2  -1 215.846 19.6184   3
   9   2   1 214.706 28.9185   2
   9   2   1 204.497 27.2633   1
  -9  -2  -1 204.442 24.5386   4
  -9  -2  -2 6.67877 9.60208   3
   9   2   2-10.2352 13.1184   2
   9   2   2 17.5999 14.6160   1
  -9  -2  -2 11.5437 9.27206   4
  -9  -2  -3 19.1601 12.0993   3
  -9  -2  -4 638.674 44.0346   3
  -9  -2  -5 294.908 32.5018   3
  -9  -2  -6 176.073 28.2082   3
  -9  -2  -7 94.5513 25.6074   3
  -9  -2  -8 154.332 29.8110   3
  -9  -3   5 159.893 30.4675   5
  -9  -3   5 150.993 32.0551   4
   9   3  -5 174.337 31.8307   1
  -9  -3   4 37.7216 21.0051   5
   9   3  -4 14.1780 13.3218   1
  -9  -3   3 76.0392 21.0803   5
   9   3  -3 82.4815 22.1091   1
  -9  -3   2 220.505 31.6279   5
   9   3  -2 250.721 34.9576   1
  -9  -3   1 124.637 23.8414   5
   9   3  -1 119.857 25.3947   1
   9   3   0 393.921 36.9573   2
  -9  -3   0 307.236 34.5381   5
   9   3   0 344.168 37.2793   1
  -9  -3  -1 23.3588 10.5112   3
  -9  -3  -1 67.1548 19.6359   5
   9   3   1 57.9796 17.9708   2
   9   3   1 54.5860 17.4445   1
  -9  -3  -2 805.080 53.7451   5
   9   3   2 812.263 51.7809   2
  -9  -3  -2 920.589 45.3196   3
   9   3   2 786.541 52.0421   1
  -9  -3  -3 156.973 21.8589   3
   9   3   3 183.004 27.7189   2
   9   3   3 172.282 25.8186   1
  -9  -3  -4 56.8188 17.1663   3
   9   3   4 87.4588 19.3633   1
  -9  -3  -5 184.186 27.2337   3
   9   3   5 165.669 21.7906   1
  -9  -3  -6 10.8375 13.2691   3
  -9  -3  -7 119.622 24.3490   3
  -9  -3  -8 17.1961 17.9492   3
  -9  -4   4 432.329 47.1745   5
   9   4  -4 428.182 48.0284   1
  -9  -4   3 11.7544 17.0594   5
   9   4  -3 20.6137 18.2440   1
  -9  -4   2 1.50130 16.6294   5
   9   4  -2 37.4726 14.8729   1
  -9  -4   1 45.9771 18.0997   5
   9   4  -1 74.3178 22.8303   1
  -9  -4   0 358.041 37.9520   5
   9   4   0 306.301 37.3514   1
   9   4   1 48.6036 19.5460   1
  -9  -4  -1 43.3491 12.2339   3
  -9  -4  -1 25.3384 16.0890   5
   9   4   1 16.4019 10.1545   2
   9   4   2 93.7121 22.9467   1
  -9  -4  -2 82.0175 17.4616   3
  -9  -4  -2 101.862 22.4369   5
   9   4   2 67.3863 15.7241   2
  -9  -4  -3 587.548 46.5712   5
   9   4   3 502.092 40.9124   2
  -9  -4  -3 537.535 39.1929   3
   9   4   3 587.982 46.3126   1
  -9  -4  -4 286.010 31.3285   3
   9   4   4 230.184 29.3709   1
  -9  -4  -5 90.0740 20.7368   3
   9   4   5 136.017 22.0422   1
  -9  -4  -6 349.148 38.5569   3
  -9  -4  -7 278.541 35.6846   3
  -9  -4  -8 41.0444 17.1760   3
  -9  -5   3 163.098 29.8504   5
   9   5  -3 199.817 34.7194   1
  -9  -5   2 437.889 46.0722   5
   9   5  -2 532.300 52.3289   1
   9   5  -1 121.556 26.4919   1
  -9  -5   1 113.469 24.8191   5
   9   5   0 35.7967 18.1481   1
  -9  -5   0 39.7252 17.6057   5
   9   5   1 6.25703 13.6781   1
  -9  -5  -1 19.3206 14.9928   5
   9   5   2 44.9580 17.3687   1
  -9  -5  -2 85.9854 18.2399   3
  -9  -5  -2 57.1120 18.1524   5
   9   5   2 68.9627 16.7344   2
   9   5   3 24.9299 15.9952   1
  -9  -5  -3 41.4161 16.3721   3
  -9  -5  -3 18.1099 13.2050   5
   9   5   3 4.89112 11.4814   2
  -9  -5  -4 291.592 32.7063   5
   9   5   4 272.418 30.5692   2
  -9  -5  -4 340.500 34.8241   3
   9   5   4 277.106 33.5385   1
  -9  -5  -5 367.537 37.5794   5
  -9  -5  -5 373.920 38.5747   3
   9   5   5 400.686 37.2424   1
  -9  -5  -6 196.245 31.1862   3
   9   5   6 260.457 30.4447   1
  -9  -5  -7 103.362 24.8792   3
  -9  -5  -8 488.732 49.2768   3
  -9  -6   2 85.6571 25.8678   5
   9   6  -1 190.623 35.1419   1
  -9  -6   1 219.339 35.6716   5
   9   6   0 71.7994 21.8028   1
  -9  -6   0 45.3551 20.5563   5
   9   6   1 41.4450 18.0305   1
  -9  -6  -1 4.19500 16.1447   5
   9   6   2 185.624 31.7061   1
  -9  -6  -2 140.673 26.6991   5
  -9  -6  -3 440.426 41.4197   5
   9   6   3 431.022 44.9256   1
  -9  -6  -4 614.432 48.1995   5
  -9  -6  -4 581.251 45.7731   3
   9   6   4 636.673 51.7892   1
  -9  -6  -5 915.997 58.0628   5
  -9  -6  -5 941.273 60.5807   3
   9   6   5 911.409 59.0427   1
  -9  -6  -6 1241.75 66.8071   5
  -9  -6  -6 1186.61 70.0805   3
   9   6   6 1227.08 66.5498   1
  -9  -6  -7 425.404 40.0205   5
  -9  -6  -7 401.228 43.6524   3
  -9  -6  -8 173.640 31.5231   3
   9   7   0 182.213 35.3533   1
  -9  -7   0 201.953 32.9633   5
   9   7   1-4.57944 14.4896   1
  -9  -7  -1 24.2240 15.9652   5
   9   7   2 72.5715 24.3318   1
  -9  -7  -2 62.8964 22.1154   5
   9   7   3 76.4793 23.5884   1
  -9  -7  -3 60.2572 19.3089   5
   9   7   4 64.3536 16.4567   1
  -9  -7  -4 107.597 22.8644   5
  -9  -7  -5 186.594 30.4466   3
   9   7   5 155.517 28.0047   1
  -9  -7  -5 168.862 26.6925   5
  -9  -7  -6 58.5538 15.9318   3
   9   7   6 94.1809 21.3346   1
  -9  -7  -6 106.222 23.4228   5
  -9  -7  -7 315.428 41.4662   3
  -9  -8  -1 44.1914 19.2354   5
  -9  -8  -2 300.627 37.7504   5
   9   8   3-15.9017 22.9111   1
  -9  -8  -3 14.0817 13.3276   5
  -9  -8  -4 174.226 29.7346   5
   9   8   4 185.672 33.3134   1
  -9  -8  -5-14.4951 15.9066   5
   9   8   5 62.2934 24.9182   1
  -9  -8  -6 61.0119 22.5011   3
   9   8   6-10.4453 18.9475   1
  -9  -9  -2-42.4874 21.3890   5
  -9  -9  -3-38.5350 24.9434   5
  10  -7  -4 59.2187 22.9342   7
 -10   7   4-26.7318 24.5589   4
 -10   6   5 9.83625 16.7845   4
 -10   6   4 7.11668 12.1307   5
  10  -6  -4 5.48333 14.6254   7
 -10   6   4 16.5559 20.9003   4
  10  -6  -3 46.5994 20.1062   7
 -10   6   3 18.4916 17.1037   4
  10  -6  -2 93.0226 23.7470   7
 -10   5   5 28.8302 13.3288   5
  10  -5  -5 24.9006 13.8221   7
 -10   5   5-0.85458 16.8940   4
 -10   5   4 65.3001 18.3364   5
  10  -5  -4 96.6474 24.0439   7
 -10   5   4 72.4264 22.0206   4
  10  -5  -3 48.8057 17.1754   7
 -10   5   3 147.470 27.1957   4
  10  -5  -2 12.9368 14.8991   7
 -10   5   2 42.0767 15.9955   4
  10  -5  -1 42.4656 22.9738   2
  10  -5  -1 44.4343 18.0214   7
  10  -5   0 192.214 33.8380   2
 -10   4   6 241.438 33.3623   5
 -10   4   6 289.930 39.5888   4
 -10   4   5 85.5783 20.7926   5
  10  -4  -5 103.086 26.4870   7
 -10   4   5 78.3272 24.8782   4
 -10   4   4 281.833 34.8340   5
 -10   4   4 337.275 39.2087   4
  10  -4  -4 367.405 44.1096   7
  10  -4  -3 451.506 45.9122   7
 -10   4   3 311.633 34.2652   4
  10  -4  -2 333.377 38.8534   7
 -10   4   2 228.729 29.3661   4
  10  -4  -1 234.073 36.4365   2
  10  -4  -1 247.157 32.8161   7
  10  -4   0 131.075 30.0597   2
  10  -4   1 85.6570 25.8774   2
  10  -4   2 7.58603 22.1093   2
 -10   4  -4 45.9858 21.7429   3
 -10   3   7 35.5016 17.3993   5
 -10   3   6 35.8516 17.0281   5
 -10   3   6 6.13935 17.6554   4
 -10   3   5-3.22654 14.8620   5
  10  -3  -5 24.3596 15.3947   7
 -10   3   5-4.77802 18.9862   4
 -10   3   4 153.925 26.5398   5
  10  -3  -4 138.758 29.0768   7
 -10   3   4 130.676 25.3354   4
 -10   3   3 276.854 34.4536   5
  10  -3  -3 277.487 36.7990   7
 -10   3   3 235.950 31.5797   4
  10  -3  -2 113.045 26.2014   7
 -10   3   2 96.0361 23.1627   4
  10  -3  -1 447.043 46.9005   2
 -10   3   1 406.880 35.0677   4
  10  -3  -1 384.386 39.5838   7
  10  -3   0 381.978 44.5876   2
  10  -3   1 347.941 43.1023   2
  10  -3   2 243.852 36.3543   2
  10  -3   3 79.1334 26.4883   2
 -10   3  -4 1.30054 16.0087   3
 -10   3  -5 395.882 44.5009   3
 -10   2   7 32.5040 15.2711   5
 -10   2   6 19.8024 17.8589   5
 -10   2   6 36.9020 21.8341   4
 -10   2   5-6.53659 12.0016   5
 -10   2   5-42.1882 19.9930   4
  10  -2  -5-23.8690 14.9046   7
 -10   2   4 2.63396 11.4935   5
 -10   2   4-34.9484 20.4137   4
  10  -2  -4 4.78423 13.4107   7
 -10   2   3 188.788 28.6237   5
  10  -2  -3 185.754 31.9305   7
 -10   2   3 161.756 27.9010   4
 -10   2   2 158.515 26.9827   5
  10  -2  -2 167.974 27.4174   7
 -10   2   2 187.960 27.4963   4
  10  -2  -1 113.707 28.9590   2
 -10   2   1 116.876 20.8713   4
  10  -2   0 259.343 37.2664   2
  10  -2   1 1158.85 74.7128   2
  10  -2   2 108.522 25.8504   2
  10  -2   3 224.388 36.1685   2
 -10   2  -3 189.041 26.3661   3
 -10   2  -4 39.5187 13.8913   3
 -10   2  -5 50.0635 21.1860   3
 -10   2  -6 127.459 26.9990   3
 -10   1   6 122.431 28.6146   5
 -10   1   6 87.0495 28.2760   4
 -10   1   5 3.89200 13.0765   5
 -10   1   5 30.1840 19.4973   4
  10  -1  -5-28.1653 19.6676   7
 -10   1   4 263.418 34.3690   5
 -10   1   4 263.706 35.6056   4
  10  -1  -4 225.002 34.8270   7
 -10   1   3 658.764 51.3487   5
 -10   1   3 681.716 51.4844   4
  10  -1  -3 725.743 58.4110   7
 -10   1   2 81.9680 19.9034   5
 -10   1   2 91.3345 21.7988   4
  10  -1  -1 417.724 44.5613   2
 -10   1   1 396.092 34.6421   4
  10  -1   0 219.631 32.8197   2
 -10   1   0 223.079 25.5224   4
  10  -1   1 48.8414 17.7038   2
  10  -1   2 84.0848 22.8915   2
  10  -1   3 99.6690 25.8159   2
 -10   1  -3 34.4902 13.3404   3
 -10   1  -4 890.552 55.9709   3
 -10   1  -5-22.8004 18.2683   3
 -10   1  -6 84.2840 25.6801   3
 -10   0   6 12.5704 14.5425   5
 -10   0   5 149.662 26.7753   5
 -10   0   5 154.930 29.0518   4
  10   0  -5 222.529 35.4786   7
 -10   0   4 30.8739 14.9511   5
 -10   0   4-17.5155 20.1214   4
 -10   0   3 523.301 46.9442   5
 -10   0   3 610.233 50.5295   4
 -10   0   2 218.664 30.7638   5
 -10   0   2 317.366 36.0750   4
 -10   0   1 41.3424 17.9694   5
  10   0  -1 58.7376 21.0645   2
 -10   0   1 39.1136 14.7797   4
  10   0   0 227.981 34.4815   2
 -10   0   0 160.299 22.5747   4
  10   0   1 768.015 57.8487   2
  10   0   2 42.3704 19.1989   2
  10   0   3 146.060 29.7374   2
 -10   0  -3 153.666 25.7827   3
 -10   0  -4 136.114 23.7267   3
 -10   0  -5 105.181 21.8754   3
 -10   0  -6 142.616 28.6539   3
 -10   0  -7 395.101 44.1338   3
 -10  -1   5-21.2901 21.3559   5
 -10  -1   5-30.2761 22.4209   4
 -10  -1   4 59.0459 15.6793   5
 -10  -1   4 69.5471 20.8856   4
 -10  -1   3 237.446 33.2891   5
 -10  -1   3 227.974 31.9539   4
 -10  -1   2 17.1932 12.3932   5
 -10  -1   2 54.2651 17.5151   4
 -10  -1   1 81.0505 20.3436   5
 -10  -1   1 77.8896 18.9106   4
 -10  -1   0 95.9141 22.7980   5
  10   1   0 69.1909 21.7489   2
 -10  -1   0 96.0037 19.6576   4
  10   1   1 539.866 48.1430   2
 -10  -1  -1 520.656 36.8845   4
  10   1   2 324.633 38.4907   2
  10   1   3 98.1238 25.9404   2
 -10  -1  -3 86.1346 18.8947   3
 -10  -1  -4 96.8835 20.6715   3
 -10  -1  -5 77.9293 20.6633   3
 -10  -1  -6 583.123 49.6687   3
 -10  -1  -7 89.6010 21.5900   3
 -10  -2   5-69.9183 30.8317   4
 -10  -2   4 31.7241 18.5800   5
 -10  -2   4-18.9265 20.4123   4
 -10  -2   3 90.8573 20.3486   5
 -10  -2   3 153.506 29.8007   4
 -10  -2   2 385.221 42.8609   5
 -10  -2   2 426.080 42.3052   4
 -10  -2   1 49.5659 16.5938   5
 -10  -2   1 37.8845 16.8830   4
  10   2   0 319.170 37.2485   2
 -10  -2   0 335.208 38.0313   5
 -10  -2   0 320.096 32.7632   4
  10   2   1 1094.97 65.7010   2
 -10  -2  -1 1088.34 66.3131   5
 -10  -2  -1 1102.36 55.6956   4
  10   2   2 1125.33 67.2889   2
  10   2   3 689.576 54.6249   2
 -10  -2  -3 713.233 44.2626   3
 -10  -2  -4 0.98349 12.0397   3
 -10  -2  -5-3.93444 14.3779   3
 -10  -2  -6 302.521 36.4746   3
 -10  -2  -7 743.157 57.9130   3
 -10  -3   4 134.436 28.1608   4
 -10  -3   3 106.875 25.4340   5
  10   3  -3 84.4274 24.7119   1
 -10  -3   3 92.6853 24.8260   4
 -10  -3   2 522.090 49.4452   5
  10   3  -2 543.153 51.9643   1
 -10  -3   1 1.12801 14.4486   5
  10   3  -1 3.93985 15.6591   1
 -10  -3   0 18.8555 12.4602   5
  10   3   0 46.2732 19.2335   1
  10   3   1 481.771 43.1304   2
 -10  -3  -1 392.152 41.0436   5
  10   3   1 420.605 42.0801   1
 -10  -3  -2 387.532 41.6052   5
  10   3   2 418.326 41.6191   2
  10   3   2 404.571 40.7700   1
  10   3   3 528.022 47.0009   2
  10   3   3 550.922 45.2453   1
 -10  -3  -4 148.132 23.8843   3
  10   3   4 130.729 25.1972   2
 -10  -3  -5 28.8903 14.3543   3
 -10  -3  -6 7.74942 15.1042   3
 -10  -3  -7 365.638 43.9374   3
 -10  -3  -8 127.945 29.4948   3
 -10  -4   2 315.183 41.1318   5
  10   4  -2 276.584 38.8329   1
 -10  -4   1 16.9875 14.9621   5
  10   4  -1 18.6009 16.8447   1
 -10  -4   0 15.5349 12.5793   5
  10   4   0 22.4589 15.5746   1
 -10  -4  -1 11.2520 14.0383   5
  10   4   1-30.4383 17.3297   2
  10   4   1 13.8616 12.3658   1
  10   4   2 316.719 34.1115   2
 -10  -4  -2 353.146 39.4348   5
  10   4   2 378.110 40.7129   1
 -10  -4  -3 153.094 25.8060   5
  10   4   3 135.943 23.7234   2
  10   4   3 190.931 30.1381   1
 -10  -4  -4 54.3298 15.9640   3
 -10  -4  -4 65.8292 18.0370   5
  10   4   4 74.0345 20.6911   2
  10   4   4 65.3580 17.5425   1
 -10  -4  -5 316.714 35.7420   3
  10   4   5 303.803 33.0599   1
 -10  -4  -6-33.4456 19.0296   3
 -10  -4  -7 60.6727 19.6115   3
 -10  -5   1 618.549 55.3120   5
  10   5  -1 576.820 55.5821   1
 -10  -5   0-2.41019 13.6608   5
  10   5   0 41.6788 20.8965   1
 -10  -5  -1 98.5677 22.8679   5
  10   5   1 74.1026 18.9042   1
 -10  -5  -2 20.4058 13.2462   5
  10   5   2 27.3224 15.9893   1
 -10  -5  -3 70.1122 17.8808   5
  10   5   3 95.3342 22.6587   2
  10   5   3 79.6821 21.3542   1
 -10  -5  -4 18.1993 14.1808   3
 -10  -5  -4 43.0873 18.6833   5
  10   5   4 31.6357 13.2658   2
  10   5   4 1.56431 15.3730   1
 -10  -5  -5-10.3399 14.3036   3
 -10  -5  -5 17.7542 13.6647   5
  10   5   5 5.69641 14.3266   2
  10   5   5 20.7666 13.0691   1
 -10  -5  -6 118.757 27.7451   3
 -10  -5  -7 237.576 35.7910   3
 -10  -6   0 169.445 31.7390   5
 -10  -6  -1 390.817 45.7508   5
  10   6   1 371.038 44.6008   1
  10   6   2-11.6940 18.9361   1
 -10  -6  -2 27.9388 17.5907   5
  10   6   3 143.988 27.2624   1
 -10  -6  -3 166.021 29.6741   5
  10   6   4 26.2076 17.2755   1
 -10  -6  -4 14.9672 13.1941   5
  10   6   5 87.8586 23.1981   1
 -10  -6  -5 85.0933 21.6677   3
 -10  -6  -5 28.0921 14.9725   5
 -10  -6  -6 2.98272 15.6896   3
 -10  -6  -6-29.4903 20.8414   5
 -10  -6  -7 289.549 40.1032   3
 -10  -6  -7 307.948 36.6086   5
 -10  -7  -2 146.848 29.5336   5
  10   7   3 25.6422 15.5651   1
 -10  -7  -3 36.4194 15.7968   5
  10   7   4 9.37551 17.7221   1
 -10  -7  -4 37.1553 17.6651   5
  10   7   5 241.203 34.4823   1
 -10  -7  -5 127.982 22.6329   3
 -10  -7  -5 175.480 29.0684   5
 -10  -7  -6 97.4884 25.7487   3
 -10  -7  -6 65.5399 21.0747   5
 -10  -8  -4 110.372 28.3541   5
 -11   5   4 299.836 40.6168   4
  11  -5  -3 36.2727 21.5176   7
  11  -5  -2 19.0509 14.9335   7
 -11   4   4 353.190 41.8018   5
 -11   4   4 445.591 45.6205   4
 -11   4   3 29.8649 17.4738   5
  11  -4  -3 30.4181 19.8886   7
 -11   4   3 35.3397 19.6308   4
  11  -4  -2 130.662 27.1278   7
 -11   3   5 65.2190 25.1195   4
 -11   3   4 354.060 41.1325   5
 -11   3   4 331.468 40.4996   4
 -11   3   3 272.737 36.1930   5
  11  -3  -3 353.268 43.7898   7
 -11   3   3 342.084 37.2913   4
  11  -3  -2 0.16848 14.0552   7
 -11   2   5 24.0164 17.2032   4
 -11   2   4 70.4601 19.6320   5
 -11   2   4 110.451 26.9157   4
 -11   2   3-23.3254 15.3486   5
  11  -2  -3 12.8736 16.5843   7
 -11   2   3 42.2618 17.3888   4
 -11   2   2 29.1889 15.5270   5
 -11   2   2 5.86706 14.3538   4
  11  -2  -1 87.1475 27.6131   2
  11  -2   0 48.6046 22.0656   2
  11  -2   1 253.796 39.4856   2
 -11   1   5 130.589 30.0634   4
 -11   1   4 77.3491 22.7004   5
 -11   1   4 77.8963 23.3517   4
 -11   1   3 52.1635 17.5476   5
 -11   1   3 74.7831 20.6356   4
 -11   1   2 37.4080 18.5223   5
 -11   1   2-2.66355 14.2454   4
  11  -1  -1 129.750 30.8646   2
 -11   1   1 129.316 25.0392   5
  11  -1   0 102.127 26.9750   2
  11  -1   1 199.360 34.9207   2
  11  -1   2 122.954 29.4194   2
  11  -1   3 336.462 44.7921   2
 -11   0   4 12.1704 17.3427   4
 -11   0   3 316.885 40.0195   5
 -11   0   3 414.956 42.3182   4
 -11   0   2 20.1195 15.5901   5
 -11   0   2 19.8087 16.4831   4
 -11   0   1 348.981 40.7316   5
 -11   0   1 289.700 32.7445   4
 -11   0   0 189.032 30.8047   5
  11   0   0 258.666 36.2199   2
  11   0   1 286.247 40.0442   2
  11   0   2 253.982 37.6121   2
  11   0   3 341.175 42.5676   2
 -11  -1   4 59.3261 25.1369   4
 -11  -1   3 251.732 35.2505   4
 -11  -1   2 30.9035 17.2675   5
 -11  -1   2 23.1628 13.8659   4
 -11  -1   1 65.5351 23.2762   5
 -11  -1   1 50.4039 18.4689   4
 -11  -1   0 3.08701 13.5418   5
  11   1   0-6.05251 15.6460   2
 -11  -1  -1 262.641 35.8295   5
  11   1   1 261.952 36.2132   2
  11   1   2 12.5957 14.7708   2
  11   1   3 289.694 39.9995   2
  11   1   4 289.419 40.0871   2
 -11  -2   3 118.022 27.8220   4
 -11  -2   2-1.13128 16.0629   4
 -11  -2   1 212.586 33.0312   5
 -11  -2   1 225.267 31.0586   4
  11   2   0-5.79186 16.3404   2
 -11  -2   0 15.5729 12.0708   5
 -11  -2   0-14.5225 16.2316   4
 -11  -2  -1 35.2042 15.7783   5
  11   2   1 10.5378 14.2608   2
 -11  -2  -2 107.695 24.6648   5
  11   2   2 98.6773 24.3597   2
  11   2   3 426.984 45.7912   2
  11   2   4 208.445 33.6235   2
 -11  -2  -7 36.1587 16.2276   3
 -11  -3   3 28.0738 18.5889   4
 -11  -3   2 206.360 34.3797   4
 -11  -3   1-27.7453 21.0154   4
 -11  -3   0 145.235 29.9179   5
 -11  -3   0 175.365 28.9790   4
 -11  -3  -1 200.233 30.7925   5
  11   3   1 205.093 32.3327   2
 -11  -3  -2 11.7441 16.5800   5
  11   3   2-2.79560 13.7483   2
 -11  -3  -3 451.940 46.1041   5
  11   3   3 457.889 45.5958   2
  11   3   4 714.749 57.5206   2
  11   3   5 336.657 42.4871   2
 -11  -3  -7 28.6932 17.2543   3
  11   4   0 193.149 34.1632   1
 -11  -4  -1 14.7893 15.8428   5
  11   4   1 9.76082 12.4926   1
 -11  -4  -2 19.7859 13.4123   5
  11   4   2 39.9715 16.3848   2
  11   4   2 6.20704 14.1189   1
 -11  -4  -3 11.2082 12.2574   5
  11   4   3 41.6819 21.7085   2
  11   4   3 29.0747 15.5795   1
 -11  -4  -4 115.224 25.3481   5
  11   4   4 129.221 25.8153   2
  11   4   4 166.725 28.4690   1
  11   4   5 52.9066 20.1362   2
 -11  -4  -7 169.157 29.5872   3
  11   5   2 38.3241 19.7959   1
  11   5   3-17.1932 13.6403   1
 -11  -5  -4 62.8399 21.9036   5
  11   5   4 73.4689 20.7749   1
  11   6   4 111.997 25.3018   1
 -12   0   3-37.0092 20.3841   4
 -12  -1   3 280.995 41.1814   4
 -12  -2   2 353.877 42.8841   4
  12   2   1 235.090 36.1453   2
  12   3   1 22.9461 17.1130   2
  12   3   2 108.424 25.6865   2
   0   0   0    0.00    0.00   0
TITL CoAbptTcm in P-1
REM P-1 (#2 in standard setting)
CELL 0.71073   9.202073   9.352189   9.950450  68.1809  87.4925  87.4700
ZERR    1.00   0.000237   0.000250   0.000275   0.0026   0.0022   0.0022
LATT  1
SFAC C H N Co
UNIT 32.00 20.00 18.00 1.00
TREF
HKLF 4
END
;
_shelx_hkl_checksum              11682
#END Tags that were not found in dictionaries
loop_
_space_group_symop_operation_xyz
'x, y, z'
'-x, -y, -z'
loop_
_atom_site_label
_atom_site_type_symbol
_atom_site_fract_x
_atom_site_fract_y
_atom_site_fract_z
_atom_site_U_iso_or_equiv
_atom_site_adp_type
_atom_site_occupancy
_atom_site_site_symmetry_order
_atom_site_calc_flag
_atom_site_refinement_flags_posn
_atom_site_refinement_flags_adp
_atom_site_refinement_flags_occupancy
Co1 Co 0.5000 0.0000 0.5000 0.01831(12) Uani 1 2 d S . P
N1 N 0.43913(18) 0.0405(2) 0.28423(19) 0.0257(4) Uani 1 1 d . . .
N2 N 0.1779(2) -0.0253(2) -0.0525(2) 0.0420(5) Uani 1 1 d . . .
N3 N 0.4642(2) 0.3691(3) -0.1696(2) 0.0587(7) Uani 1 1 d . . .
N10 N 0.62953(16) -0.19414(18) 0.50098(17) 0.0193(4) Uani 1 1 d . . .
N5 N 0.70183(16) 0.09727(18) 0.41321(17) 0.0201(4) Uani 1 1 d . . .
N6 N 0.75930(17) 0.24186(19) 0.35959(18) 0.0218(4) Uani 1 1 d . . .
N7 N 0.91770(16) 0.07456(18) 0.32410(17) 0.0191(3) Uani 1 1 d . . .
N8 N 1.04075(19) 0.0064(2) 0.2779(2) 0.0254(4) Uani 1 1 d . . .
H8A H 1.018(3) 0.005(3) 0.192(3) 0.038 Uiso 1 1 d . U .
H8B H 1.113(3) 0.069(3) 0.268(3) 0.038 Uiso 1 1 d . U .
N20 N 1.12843(17) 0.31490(19) 0.21848(18) 0.0218(4) Uani 1 1 d . . .
C1 C 0.4050(2) 0.0775(2) 0.1657(2) 0.0214(4) Uani 1 1 d . . .
C2 C 0.2613(2) 0.0407(2) -0.0178(2) 0.0272(5) Uani 1 1 d . . .
C3 C 0.4200(2) 0.2590(3) -0.0830(2) 0.0322(5) Uani 1 1 d . . .
C11 C 0.5870(2) -0.3399(2) 0.5545(2) 0.0225(4) Uani 1 1 d . . .
H11 H 0.4929 -0.3610 0.5992 0.027 Uiso 1 1 calc R U .
C12 C 0.6744(2) -0.4614(2) 0.5474(2) 0.0243(4) Uani 1 1 d . . .
H12 H 0.6414 -0.5640 0.5880 0.029 Uiso 1 1 calc R U .
C13 C 0.8096(2) -0.4310(2) 0.4808(2) 0.0252(5) Uani 1 1 d . . .
H13 H 0.8705 -0.5123 0.4727 0.030 Uiso 1 1 calc R U .
C14 C 0.8569(2) -0.2804(2) 0.4253(2) 0.0235(4) Uani 1 1 d . . .
H14 H 0.9502 -0.2570 0.3792 0.028 Uiso 1 1 calc R U .
C15 C 0.7648(2) -0.1656(2) 0.4389(2) 0.0190(4) Uani 1 1 d . . .
C5 C 0.79744(19) -0.0019(2) 0.3918(2) 0.0189(4) Uani 1 1 d . . .
C6 C 0.8892(2) 0.2260(2) 0.3038(2) 0.0196(4) Uani 1 1 d . . .
C25 C 0.9877(2) 0.3537(2) 0.2327(2) 0.0198(4) Uani 1 1 d . . .
C24 C 0.9331(2) 0.5045(2) 0.1835(2) 0.0234(4) Uani 1 1 d . . .
H24 H 0.8325 0.5266 0.1940 0.028 Uiso 1 1 calc R U .
C23 C 1.0295(2) 0.6216(2) 0.1188(2) 0.0268(5) Uani 1 1 d . . .
H23 H 0.9964 0.7263 0.0853 0.032 Uiso 1 1 calc R U .
C22 C 1.1744(2) 0.5844(2) 0.1036(2) 0.0281(5) Uani 1 1 d . . .
H22 H 1.2426 0.6630 0.0594 0.034 Uiso 1 1 calc R U .
C21 C 1.2187(2) 0.4312(2) 0.1537(2) 0.0248(5) Uani 1 1 d . . .
H21 H 1.3185 0.4067 0.1416 0.030 Uiso 1 1 calc R U .
C4 C 0.3623(2) 0.1252(2) 0.0226(2) 0.0229(4) Uani 1 1 d . . .
loop_
_atom_site_aniso_label
_atom_site_aniso_U_11
_atom_site_aniso_U_22
_atom_site_aniso_U_33
_atom_site_aniso_U_23
_atom_site_aniso_U_13
_atom_site_aniso_U_12
Co1 0.0151(2) 0.0202(2) 0.0173(2) -0.00440(16) 0.00178(14) -0.00168(14)
N1 0.0248(9) 0.0277(10) 0.0225(10) -0.0067(8) 0.0001(8) -0.0028(7)
N2 0.0483(13) 0.0431(13) 0.0335(11) -0.0108(10) -0.0069(10) -0.0157(10)
N3 0.0478(14) 0.0588(16) 0.0446(14) 0.0120(12) -0.0001(11) -0.0227(12)
N10 0.0164(8) 0.0217(9) 0.0175(8) -0.0045(7) 0.0005(6) -0.0027(6)
N5 0.0174(8) 0.0202(9) 0.0219(9) -0.0067(7) 0.0019(7) -0.0031(6)
N6 0.0202(8) 0.0201(9) 0.0229(9) -0.0054(7) 0.0034(7) -0.0048(7)
N7 0.0151(8) 0.0213(9) 0.0202(8) -0.0071(7) 0.0022(7) -0.0019(6)
N8 0.0165(8) 0.0280(10) 0.0326(10) -0.0131(8) 0.0077(8) -0.0027(7)
N20 0.0186(8) 0.0256(9) 0.0207(8) -0.0079(7) 0.0006(7) -0.0045(7)
C1 0.0167(9) 0.0207(10) 0.0255(11) -0.0073(9) 0.0037(8) -0.0008(8)
C2 0.0303(11) 0.0278(12) 0.0196(10) -0.0042(9) 0.0006(9) -0.0008(9)
C3 0.0261(11) 0.0375(13) 0.0258(12) -0.0029(10) -0.0025(9) -0.0044(10)
C11 0.0206(10) 0.0231(11) 0.0213(10) -0.0051(8) 0.0006(8) -0.0054(8)
C12 0.0283(11) 0.0202(10) 0.0226(10) -0.0055(8) -0.0022(9) -0.0034(8)
C13 0.0275(11) 0.0217(11) 0.0257(11) -0.0085(9) 0.0005(9) 0.0022(8)
C14 0.0202(10) 0.0254(11) 0.0232(10) -0.0075(9) 0.0030(8) -0.0014(8)
C15 0.0185(9) 0.0211(10) 0.0154(9) -0.0044(8) -0.0006(8) -0.0018(8)
C5 0.0152(9) 0.0229(10) 0.0168(9) -0.0052(8) 0.0019(7) -0.0026(7)
C6 0.0181(9) 0.0207(10) 0.0178(10) -0.0046(8) -0.0004(8) -0.0011(8)
C25 0.0204(10) 0.0240(10) 0.0146(9) -0.0063(8) 0.0010(8) -0.0042(8)
C24 0.0224(10) 0.0254(11) 0.0212(10) -0.0072(9) 0.0002(8) -0.0020(8)
C23 0.0321(12) 0.0211(11) 0.0239(11) -0.0045(9) -0.0013(9) -0.0024(9)
C22 0.0298(11) 0.0287(12) 0.0235(11) -0.0061(9) 0.0023(9) -0.0123(9)
C21 0.0183(10) 0.0311(12) 0.0246(11) -0.0095(9) 0.0017(8) -0.0057(8)
C4 0.0227(10) 0.0250(11) 0.0183(10) -0.0048(8) 0.0013(8) -0.0020(8)
loop_
_atom_type_symbol
_atom_type_description
_atom_type_scat_dispersion_real
_atom_type_scat_dispersion_imag
_atom_type_scat_source
C C 0.0033 0.0016 'International Tables Vol C Tables 4.2.6.8 and 6.1.1.4'
H H 0.0000 0.0000 'International Tables Vol C Tables 4.2.6.8 and 6.1.1.4'
N N 0.0061 0.0033 'International Tables Vol C Tables 4.2.6.8 and 6.1.1.4'
Co Co 0.3494 0.9721 'International Tables Vol C Tables 4.2.6.8 and 6.1.1.4'
loop_
_geom_angle_atom_site_label_1
_geom_angle_atom_site_label_2
_geom_angle_atom_site_label_3
_geom_angle
_geom_angle_site_symmetry_1
_geom_angle_site_symmetry_3
N5 Co1 N5 180.0 2_656 .
N5 Co1 N10 77.17(6) 2_656 2_656
N5 Co1 N10 102.83(6) . 2_656
N5 Co1 N10 102.82(6) 2_656 .
N5 Co1 N10 77.18(6) . .
N10 Co1 N10 180.00(5) 2_656 .
N5 Co1 N1 92.12(6) 2_656 .
N5 Co1 N1 87.88(6) . .
N10 Co1 N1 90.34(6) 2_656 .
N10 Co1 N1 89.66(6) . .
N5 Co1 N1 87.88(6) 2_656 2_656
N5 Co1 N1 92.12(6) . 2_656
N10 Co1 N1 89.66(6) 2_656 2_656
N10 Co1 N1 90.34(6) . 2_656
N1 Co1 N1 180.0 . 2_656
C1 N1 Co1 173.25(17) . .
C11 N10 C15 118.13(17) . .
C11 N10 Co1 125.21(13) . .
C15 N10 Co1 116.63(13) . .
C5 N5 N6 109.07(15) . .
C5 N5 Co1 113.50(13) . .
N6 N5 Co1 137.12(12) . .
C6 N6 N5 106.14(16) . .
C5 N7 C6 105.95(15) . .
C5 N7 N8 124.70(16) . .
C6 N7 N8 129.23(16) . .
N7 N8 H8A 105.6(16) . .
N7 N8 H8B 106.0(16) . .
H8A N8 H8B 110(2) . .
C21 N20 C25 116.64(17) . .
N1 C1 C4 178.7(2) . .
N2 C2 C4 178.7(2) . .
N3 C3 C4 178.6(2) . .
N10 C11 C12 122.70(18) . .
N10 C11 H11 118.7 . .
C12 C11 H11 118.7 . .
C13 C12 C11 118.80(19) . .
C13 C12 H12 120.6 . .
C11 C12 H12 120.6 . .
C12 C13 C14 119.58(19) . .
C12 C13 H13 120.2 . .
C14 C13 H13 120.2 . .
C15 C14 C13 118.31(18) . .
C15 C14 H14 120.8 . .
C13 C14 H14 120.8 . .
N10 C15 C14 122.44(18) . .
N10 C15 C5 111.49(16) . .
C14 C15 C5 126.06(17) . .
N5 C5 N7 108.80(17) . .
N5 C5 C15 120.78(16) . .
N7 C5 C15 130.42(17) . .
N6 C6 N7 110.01(16) . .
N6 C6 C25 124.14(17) . .
N7 C6 C25 125.84(16) . .
N20 C25 C24 123.73(18) . .
N20 C25 C6 116.47(17) . .
C24 C25 C6 119.79(17) . .
C23 C24 C25 118.10(19) . .
C23 C24 H24 120.9 . .
C25 C24 H24 120.9 . .
C22 C23 C24 119.10(19) . .
C22 C23 H23 120.4 . .
C24 C23 H23 120.4 . .
C23 C22 C21 118.86(19) . .
C23 C22 H22 120.6 . .
C21 C22 H22 120.6 . .
N20 C21 C22 123.55(18) . .
N20 C21 H21 118.2 . .
C22 C21 H21 118.2 . .
C1 C4 C2 120.51(18) . .
C1 C4 C3 120.03(19) . .
C2 C4 C3 119.45(18) . .
loop_
_geom_bond_atom_site_label_1
_geom_bond_atom_site_label_2
_geom_bond_distance
_geom_bond_site_symmetry_2
Co1 N5 2.1089(15) 2_656
Co1 N5 2.1089(15) .
Co1 N10 2.1247(16) 2_656
Co1 N10 2.1247(16) .
Co1 N1 2.1328(18) .
Co1 N1 2.1329(18) 2_656
N1 C1 1.152(3) .
N2 C2 1.146(3) .
N3 C3 1.147(3) .
N10 C11 1.336(2) .
N10 C15 1.357(2) .
N5 C5 1.318(2) .
N5 N6 1.377(2) .
N6 C6 1.322(2) .
N7 C5 1.355(2) .
N7 C6 1.369(2) .
N7 N8 1.417(2) .
N8 H8A 0.90(3) .
N8 H8B 0.89(3) .
N20 C21 1.342(3) .
N20 C25 1.345(2) .
C1 C4 1.394(3) .
C2 C4 1.408(3) .
C3 C4 1.409(3) .
C11 C12 1.385(3) .
C11 H11 0.9500 .
C12 C13 1.375(3) .
C12 H12 0.9500 .
C13 C14 1.390(3) .
C13 H13 0.9500 .
C14 C15 1.381(3) .
C14 H14 0.9500 .
C15 C5 1.465(3) .
C6 C25 1.469(3) .
C25 C24 1.388(3) .
C24 C23 1.383(3) .
C24 H24 0.9500 .
C23 C22 1.379(3) .
C23 H23 0.9500 .
C22 C21 1.379(3) .
C22 H22 0.9500 .
C21 H21 0.9500 .
loop_
_geom_hbond_atom_site_label_D
_geom_hbond_atom_site_label_H
_geom_hbond_atom_site_label_A
_geom_hbond_distance_DH
_geom_hbond_distance_HA
_geom_hbond_distance_DA
_geom_hbond_angle_DHA
_geom_hbond_site_symmetry_A
N8 H8A N2 0.90(3) 2.28(2) 3.030(3) 141(2) 2_655
N8 H8B N20 0.89(3) 2.18(3) 2.867(3) 135(2) .
loop_
_geom_torsion_atom_site_label_1
_geom_torsion_atom_site_label_2
_geom_torsion_atom_site_label_3
_geom_torsion_atom_site_label_4
_geom_torsion
C5 N5 N6 C6 1.2(2)
Co1 N5 N6 C6 -171.70(15)
C15 N10 C11 C12 -0.7(3)
Co1 N10 C11 C12 177.59(15)
N10 C11 C12 C13 -1.0(3)
C11 C12 C13 C14 1.5(3)
C12 C13 C14 C15 -0.3(3)
C11 N10 C15 C14 2.1(3)
Co1 N10 C15 C14 -176.40(15)
C11 N10 C15 C5 -177.35(16)
Co1 N10 C15 C5 4.2(2)
C13 C14 C15 N10 -1.6(3)
C13 C14 C15 C5 177.76(18)
N6 N5 C5 N7 -0.3(2)
Co1 N5 C5 N7 174.49(12)
N6 N5 C5 C15 179.87(16)
Co1 N5 C5 C15 -5.4(2)
C6 N7 C5 N5 -0.8(2)
N8 N7 C5 N5 -177.06(17)
C6 N7 C5 C15 179.08(19)
N8 N7 C5 C15 2.8(3)
N10 C15 C5 N5 0.9(3)
C14 C15 C5 N5 -178.54(19)
N10 C15 C5 N7 -178.97(19)
C14 C15 C5 N7 1.6(3)
N5 N6 C6 N7 -1.7(2)
N5 N6 C6 C25 179.08(17)
C5 N7 C6 N6 1.6(2)
N8 N7 C6 N6 177.64(18)
C5 N7 C6 C25 -179.25(18)
N8 N7 C6 C25 -3.2(3)
C21 N20 C25 C24 0.5(3)
C21 N20 C25 C6 -179.96(17)
N6 C6 C25 N20 161.88(18)
N7 C6 C25 N20 -17.2(3)
N6 C6 C25 C24 -18.6(3)
N7 C6 C25 C24 162.34(19)
N20 C25 C24 C23 -1.3(3)
C6 C25 C24 C23 179.18(18)
C25 C24 C23 C22 1.0(3)
C24 C23 C22 C21 -0.1(3)
C25 N20 C21 C22 0.5(3)
C23 C22 C21 N20 -0.8(3)
