#------------------------------------------------------------------------------
#$Date: 2016-03-23 22:32:00 +0200 (Wed, 23 Mar 2016) $
#$Revision: 179484 $
#$URL: svn://www.crystallography.net/cod/cif/4/33/81/4338171.cif $
#------------------------------------------------------------------------------
#
# This file is available in the Crystallography Open Database (COD),
# http://www.crystallography.net/
#
# All data on this site have been placed in the public domain by the
# contributors.
#
data_4338171
loop_
_publ_author_name
'Zhang, Xu'
'Yi, Wei'
'Feng, Kai'
'Wu, Desheng'
'Yang, Yifeng'
'Zheng, Ping'
'Yao, Jiyong'
'Matsushita, Yoshitaka'
'Sato, Akira'
'Jiang, Hongwei'
'Wang, Hai'
'Shi, Youguo'
'Yamaura, Kazunari'
'Wang, Nanlin'
_publ_section_title
;
 Crystal Growth, Structural, Electrical, and Magnetic Properties of
 Mixed-Valent Compounds YbOs2Al10 and LuOs2Al10.
;
_journal_issue                   9
_journal_name_full               'Inorganic chemistry'
_journal_page_first              4387
_journal_page_last               4393
_journal_paper_doi               10.1021/ic403168v
_journal_volume                  53
_journal_year                    2014
_chemical_formula_sum            'Al10 Lu Os2'
_chemical_formula_weight         825.17
_chemical_name_systematic
;
 ?
;
_space_group_crystal_system      orthorhombic
_space_group_IT_number           63
_space_group_name_Hall           '-C 2c 2'
_space_group_name_H-M_alt        'C m c m'
_symmetry_space_group_name_Hall  '-C 2c 2'
_symmetry_space_group_name_H-M   'C m c m'
_audit_creation_method           SHELXL-2013
_cell_angle_alpha                90
_cell_angle_beta                 90
_cell_angle_gamma                90
_cell_formula_units_Z            4
_cell_length_a                   9.0947(4)
_cell_length_b                   10.1608(5)
_cell_length_c                   9.1007(4)
_cell_measurement_reflns_used    6236
_cell_measurement_temperature    293(2)
_cell_measurement_theta_max      40.423
_cell_measurement_theta_min      3.006
_cell_volume                     840.99(7)
_computing_cell_refinement       'Bruker SAINT'
_computing_data_collection       'Bruker APEX2'
_computing_data_reduction        'Bruker SAINT'
_computing_structure_refinement  'SHELXL-2013 (Sheldrick, 2013)'
_computing_structure_solution    'SHELXS-97 (Sheldrick, 2008)'
_diffrn_ambient_temperature      293(2)
_diffrn_measured_fraction_theta_full 0.979
_diffrn_measured_fraction_theta_max 0.964
_diffrn_measurement_device_type  'Bruker APEX CCD'
_diffrn_measurement_method       '\f and \w scans'
_diffrn_radiation_monochromator  graphite
_diffrn_radiation_source         'sealed tube'
_diffrn_radiation_type           MoK\a
_diffrn_radiation_wavelength     0.71073
_diffrn_reflns_av_R_equivalents  0.0565
_diffrn_reflns_av_unetI/netI     0.0353
_diffrn_reflns_Laue_measured_fraction_full 0.979
_diffrn_reflns_Laue_measured_fraction_max 0.964
_diffrn_reflns_limit_h_max       16
_diffrn_reflns_limit_h_min       -16
_diffrn_reflns_limit_k_max       18
_diffrn_reflns_limit_k_min       -18
_diffrn_reflns_limit_l_max       15
_diffrn_reflns_limit_l_min       -15
_diffrn_reflns_number            9404
_diffrn_reflns_point_group_measured_fraction_full 0.979
_diffrn_reflns_point_group_measured_fraction_max 0.964
_diffrn_reflns_theta_full        25.242
_diffrn_reflns_theta_max         40.637
_diffrn_reflns_theta_min         3.749
_exptl_absorpt_coefficient_mu    42.754
_exptl_absorpt_correction_T_max  0.0550
_exptl_absorpt_correction_T_min  0.0076
_exptl_absorpt_correction_type   multi-scan
_exptl_absorpt_process_details   '(SADABS; Bruker, 2001)'
_exptl_crystal_colour            'Metallic gray'
_exptl_crystal_density_diffrn    6.517
_exptl_crystal_description       Plate
_exptl_crystal_F_000             1412
_exptl_crystal_size_max          0.250
_exptl_crystal_size_mid          0.200
_exptl_crystal_size_min          0.050
_refine_diff_density_max         9.291
_refine_diff_density_min         -5.784
_refine_diff_density_rms         0.800
_refine_ls_extinction_coef       0.0083(3)
_refine_ls_extinction_expression Fc^*^=kFc[1+0.001xFc^2^\l^3^/sin(2\q)]^-1/4^
_refine_ls_extinction_method     SHELXL
_refine_ls_goodness_of_fit_ref   1.090
_refine_ls_hydrogen_treatment    undef
_refine_ls_matrix_type           full
_refine_ls_number_parameters     41
_refine_ls_number_reflns         1433
_refine_ls_number_restraints     0
_refine_ls_restrained_S_all      1.090
_refine_ls_R_factor_all          0.0363
_refine_ls_R_factor_gt           0.0357
_refine_ls_shift/su_max          0.000
_refine_ls_shift/su_mean         0.000
_refine_ls_structure_factor_coef Fsqd
_refine_ls_weighting_details
'w=1/[\s^2^(Fo^2^)+(0.0635P)^2^+1.3076P] where P=(Fo^2^+2Fc^2^)/3'
_refine_ls_weighting_scheme      calc
_refine_ls_wR_factor_gt          0.0904
_refine_ls_wR_factor_ref         0.0909
_reflns_Friedel_coverage         0.000
_reflns_number_gt                1393
_reflns_number_total             1433
_reflns_threshold_expression     'I > 2\s(I)'
_cod_data_source_file            ic403168v_si_003.cif
_cod_data_source_block           shelx
_cod_depositor_comments
'Adding full bibliography for 4338170--4338171.cif.'
_cod_database_code               4338171
#BEGIN Tags that were not found in dictionaries:
_shelx_space_group_comment
;
The symmetry employed for this shelxl refinement is uniquely defined
by the following loop, which should always be used as a source of
symmetry information in preference to the above space-group names.
They are only intended as comments.
;
_shelx_hkl_file
;
   2   0   0  170.92   12.01
   2   0   0  172.75   12.60
  -2   0   0  161.57   13.99
  -4   0   0  707.10   61.73
   4   0   0  795.27   53.11
   4   0   0  749.51   55.74
  -6   0   0   34.01    3.01
   6   0   0   32.72    2.47
  -8   0   0  430.78   37.58
   8   0   0  460.15   32.25
  -8   0   0  460.30   32.20
   8   0   0  468.50   34.70
 -10   0   0   28.79    2.72
  10   0   0   25.86    2.29
  10   0   0   29.06    2.15
 -10   0   0   30.83    2.14
 -12   0   0  193.01   13.74
 -14   0   0    5.37    0.53
   1   1   0   51.10    3.32
  -1   1   0   44.19    3.88
   1  -1   0   46.68    3.31
  -1  -1   0   47.42    3.47
  -1  -1   0   39.88    3.89
   1  -1   0   47.29    3.48
  -3  -1   0   84.29    6.90
   3   1   0   78.90    5.64
   3  -1   0   84.34    6.14
   3  -1   0   83.91    5.87
   3   1   0   82.75    6.14
   3   1   0   85.90    5.87
  -3   1   0   74.87    6.87
   5  -1   0   51.20    3.57
  -5  -1   0   46.27    4.14
   5  -1   0   48.79    3.46
  -5   1   0   41.76    4.10
   7  -1   0    9.18    0.79
   7   1   0    9.34    0.79
   7  -1   0    8.48    0.85
  -7   1   0   11.29    0.79
  -7  -1   0   10.19    0.79
  -7  -1   0    8.40    1.06
  -7   1   0    8.10    1.04
  -9   1   0   28.87    2.65
  -9  -1   0   30.47    2.11
  -9   1   0   30.98    2.10
  -9  -1   0   29.34    2.67
   9   1   0   28.83    2.12
   9  -1   0   25.33    2.26
   9   1   0   25.71    2.25
   9  -1   0   27.17    2.11
  11   1   0    7.25    0.74
  11  -1   0    6.69    0.72
 -11   1   0    7.77    0.67
 -11  -1   0    8.99    1.20
  11  -1   0    7.17    0.70
 -11  -1   0    9.07    0.69
 -13  -1   0    4.29    0.47
 -13   1   0    4.10    0.46
 -15  -1   0    1.82    0.31
   0  -2   0  364.58   23.96
   0   2   0  330.69   27.86
   0  -2   0  322.25   25.16
   2   2   0  275.16   19.43
  -2   2   0  263.17   22.64
   2  -2   0  295.63   19.43
  -2  -2   0  292.99   22.67
   2  -2   0  259.43   20.41
  -2  -2   0  263.76   20.40
   4   2   0  330.95   23.39
  -4  -2   0  313.36   26.03
   4  -2   0  301.57   23.39
   4   2   0  325.86   21.50
   4  -2   0  314.71   22.31
  -4   2   0  297.44   25.98
   4   2   0  321.63   22.31
  -6  -2   0  189.73   16.24
  -6   2   0  180.43   16.18
   6  -2   0  207.25   13.85
   6   2   0  200.56   13.85
  -8  -2   0  198.38   17.31
   8   2   0  209.24   14.74
  -8   2   0  188.90   17.24
  -8  -2   0  218.77   14.73
   8  -2   0  202.91   15.88
  -8   2   0  230.32   14.71
   8  -2   0  208.08   14.74
   8   2   0  198.22   15.84
 -10  -2   0  120.49   10.36
 -10  -2   0  121.99    8.69
 -10   2   0  133.22    8.68
  10  -2   0  115.73    9.37
  10  -2   0  120.37    8.71
  10   2   0  119.15    8.71
 -10   2   0  118.99   10.29
  12  -2   0   99.60    7.76
 -12  -2   0  100.76    7.19
 -14  -2   0   54.79    4.00
 -16  -2   0   40.28    2.98
  -1  -3   0   52.86    3.83
   1  -3   0   49.80    3.64
  -1   3   0   52.00    4.32
   1  -3   0   53.01    3.84
  -1  -3   0   44.75    4.34
  -3  -3   0  169.05   14.00
  -3   3   0  163.84   13.97
   3  -3   0  162.69   12.53
   3   3   0  170.71   11.94
   3  -3   0  181.03   11.94
  -3  -3   0  160.76   12.52
  -5   3   0   14.76    1.64
   5  -3   0   18.28    1.37
   5   3   0   17.98    1.36
   5   3   0   17.54    1.25
  -5  -3   0   13.39    1.69
   5  -3   0   17.80    1.34
   5   3   0   19.37    1.34
  -7   3   0   74.27    6.03
   7  -3   0   69.58    5.06
  -7  -3   0   75.86    5.07
   7  -3   0   62.90    5.46
   7   3   0   70.86    5.06
  -7  -3   0   66.22    6.07
   9  -3   0    9.45    0.86
  -9  -3   0    9.83    1.24
  -9   3   0   11.75    1.21
  -9  -3   0   10.36    0.85
   9   3   0    9.89    0.84
  -9   3   0   11.86    0.84
   9  -3   0    8.75    0.91
  11  -3   0   34.21    2.50
  11  -3   0   31.22    2.67
 -11  -3   0   34.15    2.47
  13  -3   0    1.56    0.30
 -13  -3   0    1.67    0.29
 -15  -3   0    5.56    0.56
   0  -4   0   19.64    1.75
   0  -4   0   23.90    1.64
  -2  -4   0  579.39   50.97
  -2   4   0  634.69   50.96
  -2  -4   0  601.96   46.07
   2   4   0  664.10   43.80
   2  -4   0  614.79   46.00
  -4   4   0   73.52    6.54
  -4  -4   0   74.15    5.77
   4  -4   0   76.95    5.53
  -4  -4   0   72.22    6.57
   4   4   0   82.28    5.53
   4  -4   0   79.73    5.79
  -6   4   0  597.50   46.52
   6  -4   0  520.54   41.90
   6  -4   0  583.75   39.96
   6   4   0  561.62   39.94
   6  -4   0  556.25   43.04
  -6  -4   0  579.98   39.93
  -6  -4   0  553.47   46.59
  -8  -4   0   26.01    2.95
  -8   4   0   35.54    2.95
   8  -4   0   27.77    2.57
  -8  -4   0   34.94    2.39
   8   4   0   33.87    2.38
   8  -4   0   32.69    2.39
  10  -4   0  266.64   17.28
 -10  -4   0  236.54   17.23
  10  -4   0  240.14   18.59
  10   4   0  244.41   17.26
 -10  -4   0  223.57   20.30
  12  -4   0   16.28    1.45
 -12  -4   0   17.49    1.34
  14  -4   0  117.03    8.87
 -14  -4   0  112.19    8.22
 -16  -4   0   11.27    0.96
   1  -5   0    2.59    0.30
   1   5   0    3.55    0.26
  -1  -5   0    3.03    0.31
   1   5   0    1.93    0.44
  -1   5   0    2.74    0.47
  -3  -5   0   42.90    3.22
   3  -5   0   43.76    3.24
  -3   5   0   41.95    3.73
   3  -5   0   36.32    3.06
   3   5   0   47.99    3.07
  -5  -5   0    0.32    0.10
   5  -5   0    0.73    0.18
   5  -5   0    0.16    0.18
  -5   5   0    0.49    0.32
  -5  -5   0    0.20    0.32
   5  -5   0    0.38    0.12
  -5  -5   0    0.67    0.18
  -7  -5   0   16.25    1.16
   7   5   0   15.92    1.14
  -7   5   0   14.87    1.46
  -7  -5   0   13.51    1.54
   7  -5   0   13.20    1.14
   7  -5   0   12.40    1.25
  -9   5   0    0.39    0.35
   9  -5   0    0.65    0.24
   9   5   0    0.32    0.17
  -9  -5   0    0.35    0.18
  -9  -5   0    0.39    0.46
 -11  -5   0    7.56    0.68
  11  -5   0    7.48    0.77
 -13  -5   0    0.19    0.18
  13  -5   0    0.15    0.20
 -15  -5   0    1.43    0.28
  15  -5   0    1.43    0.32
   0   6   0  101.05    9.51
   0   6   0  122.09    8.05
   0  -6   0  116.27    8.52
   2   6   0  283.60   18.94
  -2   6   0  263.86   22.18
  -2  -6   0  259.52   19.94
   2  -6   0  264.25   19.95
  -4  -6   0  123.66    9.41
   4   6   0  137.86    8.96
   4  -6   0  124.80    9.43
   4  -6   0  117.19    9.70
  -6  -6   0  251.72   20.64
  -6  -6   0  263.81   17.61
  -6   6   0  266.24   20.62
  -6  -6   0  249.75   17.67
   6  -6   0  216.31   18.99
   6  -6   0  232.03   18.46
   6   6   0  258.35   17.60
  -8  -6   0   99.70    8.70
  -8  -6   0  102.43    7.32
   8  -6   0   90.45    7.91
   8   6   0  104.81    7.31
  -8   6   0  114.02    8.69
 -10  -6   0  137.25    9.84
  10  -6   0  137.88   10.64
  12  -6   0   58.75    4.48
 -12  -6   0   54.30    4.13
  14  -6   0   74.57    5.43
 -14  -6   0   63.69    5.00
   1   7   0   32.72    3.36
  -1   7   0   39.11    3.40
   1  -7   0   41.20    2.96
  -1  -7   0   39.69    2.95
   3  -7   0   69.49    5.97
   3   7   0   83.84    5.49
   3   7   0   62.34    6.54
  -3   7   0   78.76    6.59
   3  -7   0   81.45    5.81
  -3  -7   0   77.38    5.78
  -3  -7   0   81.26    5.56
  -5  -7   0   43.40    2.88
   5  -7   0   32.47    3.09
  -5  -7   0   32.44    3.48
  -5   7   0   38.82    3.49
  -5  -7   0   39.45    2.87
   5   7   0   41.76    2.82
   5  -7   0   37.96    2.86
   5  -7   0   40.00    2.97
   7  -7   0   14.62    1.51
  -7   7   0   20.66    1.81
   7   7   0   18.93    1.36
  -7  -7   0   17.10    1.39
  -7  -7   0   17.91    1.39
  -7  -7   0   17.45    1.80
   9   7   0   30.69    2.11
  -9   7   0   30.91    2.77
  -9  -7   0   27.14    2.12
   9  -7   0   24.43    2.31
  -9  -7   0   27.80    2.70
  11  -7   0   10.82    1.09
 -11  -7   0   12.22    0.99
  13  -7   0    5.87    0.66
 -13  -7   0    4.22    0.52
  15  -7   0    3.63    0.51
 -15  -7   0    3.19    0.42
   0  -8   0  544.90   38.18
   0   8   0  501.90   42.30
   0  -8   0  492.85   36.42
   2  -8   0  103.16    7.44
  -2   8   0  107.00    8.78
  -2  -8   0  106.41    7.79
   2   8   0   87.84    8.73
   2  -8   0  105.10    8.01
  -2  -8   0  106.48    7.45
   2  -8   0  108.11    7.81
   4  -8   0  391.38   27.22
   4   8   0  340.16   31.67
  -4  -8   0  386.61   27.23
  -4  -8   0  362.90   28.49
  -4   8   0  411.43   31.73
   4  -8   0  370.13   28.52
   4  -8   0  421.68   29.26
   6  -8   0   32.25    3.17
  -6   8   0   40.32    2.97
  -6  -8   0   42.38    2.94
  -6  -8   0   42.57    2.93
  -6  -8   0   36.39    3.61
   6  -8   0   41.49    3.03
  -6   8   0   39.78    3.57
  -8  -8   0  299.51   22.94
   8  -8   0  242.03   21.05
  -8  -8   0  252.42   19.50
  -8   8   0  311.74   22.89
 -10  -8   0   28.88    2.21
  10  -8   0   29.30    2.43
 -12  -8   0  107.12    8.06
  12  -8   0  117.31    8.74
  14  -8   0    8.86    0.88
 -14  -8   0    8.11    0.76
   1  -9   0    0.45    0.17
  -1   9   0    0.30    0.27
   1  -9   0    0.28    0.19
  -1  -9   0    0.12    0.13
   1  -9   0    0.17    0.12
  -1  -9   0    0.30    0.14
   1   9   0    0.48    0.29
   3  -9   0    0.50    0.15
   3  -9   0    0.37    0.22
  -3   9   0    0.55    0.35
  -3  -9   0    0.25    0.13
   3   9   0    0.71    0.35
  -3  -9   0    0.21    0.14
   3  -9   0    0.51    0.15
   5   9   0    0.57    0.39
  -5  -9   0    1.52    0.26
  -5  -9   0    1.44    0.26
   5  -9   0    1.59    0.25
  -5   9   0    0.92    0.40
   5  -9   0    1.65    0.34
   5  -9   0    1.44    0.23
  -7  -9   0    1.93    0.32
   7  -9   0    2.03    0.40
  -7  -9   0    2.03    0.64
  -7   9   0    2.52    0.60
  -7  -9   0    2.05    0.32
  -9  -9   0    1.41    0.29
   9  -9   0    1.83    0.39
 -11  -9   0    0.07    0.19
  11  -9   0    0.45    0.28
 -13  -9   0    0.18    0.20
  13  -9   0    0.55    0.28
   0  10   0  200.05   17.11
   0 -10   0  218.28   15.37
   0 -10   0  198.42   14.65
   2 -10   0   72.20    5.42
   2 -10   0   81.99    5.70
   2  10   0   63.14    6.38
  -2 -10   0   76.72    5.43
   2 -10   0   73.12    5.85
  -2 -10   0   79.97    5.68
  -2  10   0   78.02    6.46
  -4 -10   0  161.46   12.82
   4 -10   0  174.24   13.21
  -4 -10   0  167.73   12.27
   4 -10   0  173.39   12.27
   4 -10   0  168.43   12.86
  -4  10   0  188.95   14.43
   6 -10   0   55.69    4.26
   6  10   0   46.37    4.88
  -6 -10   0   62.57    4.10
  -6 -10   0   57.17    4.10
  -6  10   0   61.96    4.99
   6 -10   0   51.91    4.45
   8 -10   0  131.85   10.24
  -8 -10   0  131.35    9.43
 -10 -10   0   44.62    3.45
  10 -10   0   49.01    3.80
 -12 -10   0   65.29    5.10
  12 -10   0   75.77    5.59
   1  11   0    8.95    1.11
  -1 -11   0   11.21    0.92
  -1 -11   0   10.02    0.86
  -1  11   0   10.52    1.16
   1 -11   0   12.14    0.94
   1 -11   0   10.53    0.86
  -3 -11   0   44.64    3.22
   3 -11   0   45.32    3.21
  -3 -11   0   45.07    3.36
   3 -11   0   46.89    3.38
   3  11   0   34.85    3.81
  -3  11   0   47.00    3.93
   3 -11   0   41.62    3.49
   5 -11   0    4.23    0.46
   5  11   0    4.08    0.74
   5 -11   0    4.37    0.47
   5 -11   0    5.31    0.65
  -5 -11   0    4.43    0.46
  -5  11   0    3.91    0.83
  -7 -11   0   20.72    1.51
  -7 -11   0   19.45    1.51
   7 -11   0   16.81    1.67
  -9 -11   0    4.18    0.51
   9 -11   0    3.83    0.60
  11 -11   0   12.75    1.22
 -11 -11   0   11.88    1.05
  13 -11   0    1.47    0.40
 -13 -11   0    1.08    0.30
   0  12   0   27.84    2.67
   0 -12   0   31.25    2.31
   0 -12   0   28.24    2.18
  -2  12   0  188.16   15.12
   2 -12   0  180.68   12.88
  -2 -12   0  180.78   12.89
   2  12   0  157.75   15.03
   2 -12   0  188.87   13.53
  -2 -12   0  186.42   13.51
   4 -12   0   44.54    3.75
  -4 -12   0   46.44    3.44
   4 -12   0   48.87    3.44
  -6 -12   0  164.03   12.13
   6 -12   0  175.17   13.10
   8 -12   0   26.43    2.34
  -8 -12   0   26.57    2.09
  -8 -12   0   29.00    2.10
 -10 -12   0   88.49    6.74
  10 -12   0   98.82    7.37
 -12 -12   0   15.58    1.40
  12 -12   0   19.42    1.61
  -1 -13   0    1.10    0.21
   1 -13   0    0.99    0.21
   3 -13   0    0.04    0.12
  -3 -13   0   -0.10    0.14
  -5 -13   0    1.77    0.30
   5 -13   0    1.56    0.29
   5 -13   0    1.22    0.36
  -7 -13   0   -0.11    0.16
   7 -13   0    0.61    0.34
   9 -13   0    1.02    0.37
  11 -13   0    0.30    0.34
   0 -14   0   19.46    1.51
   2 -14   0   76.80    5.55
  -2 -14   0   76.52    5.56
  -4 -14   0   31.53    2.50
   4 -14   0   35.37    2.52
   6 -14   0   88.64    6.69
  -6 -14   0   81.01    6.13
   8 -14   0   35.20    2.59
  -8 -14   0   26.14    2.25
  10 -14   0   68.45    5.49
  -1 -15   0    3.89    0.46
   1 -15   0    4.38    0.45
  -3 -15   0    9.70    0.87
   3 -15   0   10.62    0.88
  -5 -15   0    4.78    0.58
   5 -15   0    6.31    0.61
  -7 -15   0    2.04    0.36
   7 -15   0    2.83    0.59
   9 -15   0    7.18    0.99
   0 -16   0  104.23    7.52
   2 -16   0   32.26    2.38
  -2 -16   0   30.82    2.38
   4 -16   0   92.09    6.17
  -4 -16   0   77.60    6.13
  -6 -16   0   16.67    1.36
  -1 -17   0    0.14    0.16
   1 -17   0    0.19    0.17
   3 -17   0    0.83    0.24
  -3 -17   0    0.67    0.21
  -5 -17   0    0.14    0.22
  -5  17   0    0.18    0.41
   0 -18   0   55.04    4.05
  -2 -18   0   18.90    1.60
   2 -18   0   22.48    1.64
   0   0   1    0.57    0.12
   0   0  -1    0.66    0.15
  -2   0  -1    0.85    0.13
  -2   0   1    0.83    0.23
   2   0  -1    0.72    0.23
  -2   0  -1    0.94    0.15
  -2   0  -1    0.69    0.22
   2   0   1    0.59    0.15
  -4   0  -1    0.21    0.21
   4   0  -1    0.26    0.14
   4   0  -1    0.54    0.14
   4   0   1    0.47    0.14
  -4   0   1    0.24    0.24
  -6   0   1    0.77    0.32
  -6   0  -1    0.70    0.29
   6   0  -1    0.28    0.14
   6   0   1    0.26    0.13
   8   0   1    0.08    0.13
  -8   0  -1    0.17    0.28
  -8   0   1    0.13    0.14
  -8   0  -1    0.22    0.14
   8   0  -1   -0.01    0.13
   8   0  -1    0.67    0.19
  -8   0   1    0.01    0.34
   8   0   1    0.04    0.15
 -10   0  -1    0.27    0.13
 -10   0   1    0.34    0.39
 -10   0  -1    0.15    0.28
 -10   0   1    0.27    0.14
  10   0  -1    0.17    0.15
  10   0   1    0.09    0.17
  10   0  -1    0.00    0.14
 -12   0   1    0.14    0.15
 -12   0  -1    0.42    0.17
  12   0  -1    0.02    0.15
 -14   0   1   -0.04    0.13
 -14   0  -1    0.06    0.16
 -16   0   1    0.03    0.18
  -1   1   1   55.00    3.60
   1   1  -1   56.14    3.80
  -1   1   1   46.77    4.23
  -1  -1  -1   47.23    4.23
   1  -1   1   55.05    3.79
   1   1  -1   56.68    3.49
  -1  -1  -1   50.61    3.80
   1  -1   1   44.78    3.61
  -1  -1   1   47.42    3.61
   1  -1  -1   45.35    3.82
   1   1   1   46.07    3.61
  -1   1  -1   51.48    4.21
   3  -1   1   67.15    5.05
  -3  -1  -1   71.94    5.94
  -3   1   1   61.67    5.91
  -3  -1  -1   69.62    5.25
   3  -1   1   80.54    5.27
   3   1  -1   59.18    5.30
   3  -1  -1   73.87    5.04
  -3  -1   1   79.91    5.05
  -3   1  -1   66.72    5.91
   3   1   1   72.33    5.05
  -3  -1   1   71.24    5.94
   3  -1  -1   68.44    5.30
   5   1  -1   53.64    4.63
   5   1  -1   65.69    4.44
  -5  -1  -1   61.86    5.27
  -5   1   1   57.63    5.26
   5  -1   1   61.90    4.44
   5  -1  -1   65.96    4.43
  -5  -1   1   58.17    5.27
   5   1   1   64.58    4.44
  -5   1  -1   59.21    5.24
   5  -1  -1   63.78    4.61
  -7  -1  -1    3.79    0.39
   7  -1   1    4.21    0.43
  -7   1   1    4.73    0.40
  -7  -1  -1    3.14    0.61
  -7   1   1    3.33    0.64
   7   1  -1    3.91    0.39
   7  -1  -1    2.74    0.44
  -7  -1   1    3.46    0.67
  -7   1  -1    3.54    0.61
   7   1   1    3.60    0.41
  -7  -1   1    4.25    0.40
  -9   1   1   35.31    2.50
   9  -1   1   33.28    2.53
  -9  -1  -1   36.30    2.50
   9   1  -1   29.51    2.68
  -9  -1  -1   37.90    3.14
  -9   1   1   32.91    3.13
   9   1  -1   32.95    2.50
   9  -1   1   31.35    2.69
  -9  -1   1   36.21    2.51
  -9   1  -1   31.57    3.06
  -9  -1   1   34.02    3.15
  -9   1  -1   36.54    2.49
   9  -1  -1   35.35    2.51
   9   1   1   34.02    2.52
   9  -1  -1   31.34    2.70
  11  -1   1    6.69    0.69
 -11   1   1    7.50    0.65
  11  -1   1    7.44    0.70
  11   1  -1    6.38    0.68
 -11  -1  -1    7.71    0.65
 -11   1   1    8.06    1.16
 -11  -1   1    7.10    1.13
 -11   1  -1    8.03    0.65
  11  -1  -1    7.22    0.67
  11  -1  -1    6.76    0.70
 -11  -1   1    7.29    0.65
 -13   1   1    3.37    0.40
 -13  -1  -1    3.77    0.42
 -13  -1   1    3.59    0.43
  13  -1  -1    3.33    0.45
 -15  -1  -1    2.56    0.37
 -15   1   1    2.44    0.38
 -15  -1   1    3.42    0.40
   0  -2   1   82.98    5.49
   0  -2   1   77.53    5.75
   0   2  -1   78.70    6.38
   0   2   1   74.17    5.46
   0   2   1   67.59    6.40
   0  -2  -1   74.59    5.76
  -2   2   1  100.72    8.47
  -2  -2  -1  102.40    8.46
  -2  -2  -1  104.97    7.56
   2  -2   1  100.95    7.56
   2  -2   1   98.58    7.22
   2  -2  -1  100.38    7.59
   2  -2  -1  103.83    7.20
  -2  -2   1   95.50    8.46
  -2  -2   1  114.57    7.22
   2   2   1   96.04    7.21
  -2  -2   1   93.88    7.56
  -2   2  -1   97.43    8.42
   4   2  -1   12.52    1.00
   4  -2   1   15.09    1.07
  -4   2   1   13.93    1.35
   4  -2   1   13.78    1.07
   4   2  -1   14.47    1.06
   4   2  -1   12.57    1.09
  -4  -2  -1   12.54    1.34
  -4  -2  -1   12.64    1.05
   4  -2  -1   13.67    1.09
   4  -2  -1   14.46    1.05
   4   2   1   12.18    1.05
  -4   2  -1   13.05    1.30
  -4  -2   1   12.61    1.36
   6  -2   1   83.40    5.72
  -6   2   1   74.33    6.75
  -6  -2  -1   80.47    6.78
   6   2  -1   83.07    5.70
   6   2   1   82.29    5.70
  -6  -2   1   71.09    6.76
   6  -2  -1   80.50    5.93
  -6   2  -1   71.81    6.70
   6  -2  -1   82.02    5.69
   8   2  -1   30.93    2.56
  -8   2   1   36.45    2.37
   8  -2   1   28.78    2.56
  -8  -2  -1   35.47    2.38
   8  -2   1   29.04    2.38
  -8  -2  -1   32.46    2.97
  -8   2   1   33.16    2.97
   8   2  -1   30.12    2.37
   8  -2  -1   26.57    2.56
  -8   2  -1   29.08    2.88
  -8  -2   1   35.85    2.39
  -8  -2   1   31.76    2.99
   8   2   1   32.75    2.38
   8  -2  -1   30.48    2.36
  -8   2  -1   35.96    2.36
  10   2  -1    4.07    0.45
  10  -2   1    3.79    0.49
 -10  -2  -1    4.45    0.82
  10  -2   1    4.19    0.49
 -10   2   1    3.78    0.77
 -10  -2  -1    3.97    0.41
 -10   2   1    3.99    0.41
 -10  -2   1    4.20    0.43
 -10   2  -1    3.35    0.65
 -10  -2   1    4.48    0.87
 -10   2  -1    4.57    0.43
  10  -2  -1    4.06    0.47
  10  -2  -1    3.98    0.46
  10   2   1    4.21    0.47
  12  -2   1   14.33    1.31
 -12   2   1   18.37    1.23
 -12  -2  -1   15.09    1.21
  12  -2  -1   13.64    1.30
 -12  -2   1   15.21    1.22
 -14  -2  -1    4.99    0.48
 -14  -2   1    4.05    0.48
  14  -2  -1    4.27    0.52
 -16  -2  -1    1.96    0.32
 -16  -2   1    2.11    0.33
  -1  -3  -1   49.30    3.55
   1  -3   1   43.90    3.53
  -1   3   1   45.00    4.00
   1  -3  -1   52.50    3.33
  -1  -3   1   47.54    3.36
   1   3   1   45.72    3.35
   1  -3  -1   47.83    3.56
  -1  -3   1   48.59    3.54
  -1   3  -1   38.63    3.95
  -3  -3  -1   59.32    4.39
  -3   3   1   59.23    5.03
   3  -3   1   56.14    4.21
  -3  -3  -1   54.66    4.99
   3  -3   1   58.66    4.40
   3  -3  -1   61.58    4.43
  -3  -3   1   67.13    4.22
  -3   3  -1   55.20    4.95
  -3  -3   1   53.67    4.40
   3   3   1   58.51    4.20
  -3  -3   1   53.11    5.00
   3  -3  -1   63.15    4.20
  -5  -3  -1   47.83    4.31
  -5  -3  -1   41.28    3.68
   5   3  -1   48.53    3.41
  -5   3   1   53.62    4.30
   5  -3   1   54.02    3.70
   5   3  -1   49.04    3.71
   5  -3   1   49.03    3.58
   5   3  -1   52.35    3.57
   5  -3  -1   50.67    3.56
  -5  -3   1   43.38    4.30
  -5   3  -1   48.96    4.22
   5   3   1   48.59    3.56
   5  -3  -1   51.51    3.72
   7  -3   1    8.07    0.65
   7   3  -1    5.81    0.59
  -7   3   1    7.04    0.58
   7  -3   1    5.79    0.66
  -7  -3  -1    5.72    0.92
  -7   3   1    7.59    0.90
  -7  -3  -1    7.49    0.61
   7   3   1    7.22    0.60
   7  -3  -1    5.48    0.67
  -7  -3   1    6.51    1.00
  -7   3  -1    6.25    0.80
   7  -3  -1    6.23    0.58
  -7  -3   1    7.50    0.62
   9  -3   1   24.47    2.00
   9   3  -1   25.67    1.97
   9  -3   1   25.05    2.15
  -9  -3  -1   25.42    2.53
  -9  -3  -1   28.09    1.98
  -9   3   1   33.14    2.61
  -9   3   1   28.59    1.97
   9   3   1   27.07    1.99
   9  -3  -1   23.16    2.14
   9  -3  -1   24.26    1.97
  -9  -3   1   28.70    1.99
  -9  -3   1   22.38    2.52
  -9   3  -1   27.98    2.46
 -11   3   1    8.60    0.68
 -11  -3  -1    7.32    0.67
  11  -3   1    7.00    0.74
  11  -3   1    7.47    0.74
  11  -3  -1    8.03    0.75
 -11  -3   1    7.24    0.68
  11  -3  -1    7.12    0.70
  13  -3   1    2.48    0.39
 -13  -3  -1    3.24    0.39
 -13  -3   1    2.71    0.37
  13  -3  -1    3.25    0.43
 -15  -3  -1    2.43    0.34
  15  -3  -1    2.70    0.39
 -15  -3   1    1.95    0.32
   0   4  -1    0.48    0.21
   0   4   1   -0.10    0.18
   0  -4  -1    0.29    0.12
   0  -4   1    0.32    0.10
   2  -4   1    0.95    0.18
  -2  -4  -1    1.07    0.37
   2  -4   1    1.09    0.21
  -2  -4  -1    1.65    0.20
  -2   4   1    1.26    0.37
  -2  -4   1    1.77    0.19
   2   4   1    1.67    0.17
  -2  -4   1    1.88    0.20
   2  -4  -1    1.35    0.22
  -2  -4   1    1.25    0.40
  -2   4  -1    0.83    0.28
   2  -4  -1    1.54    0.16
   4  -4   1    0.47    0.16
  -4  -4  -1    0.41    0.29
  -4   4   1    0.62    0.35
   4  -4   1    0.82    0.13
   4   4  -1    0.49    0.14
  -4  -4  -1    0.50    0.10
   4   4   1    0.36    0.12
   4  -4  -1    0.45    0.12
  -4  -4   1    0.95    0.36
  -4  -4   1    0.45    0.11
  -4   4  -1    0.47    0.23
   4  -4  -1    0.42    0.13
   6  -4   1    0.66    0.20
   6  -4   1    1.18    0.16
   6  -4   1    0.64    0.22
   6   4  -1    0.73    0.19
  -6   4   1    0.46    0.32
  -6  -4  -1    0.65    0.36
  -6  -4  -1    1.92    0.26
   6   4   1    0.94    0.18
   6  -4  -1    0.68    0.18
   6  -4  -1    1.33    0.28
   6  -4  -1    0.72    0.15
  -6  -4   1    1.68    0.24
  -6   4  -1    0.34    0.25
  -6  -4   1    0.49    0.37
  -8   4   1    0.33    0.15
  -8  -4  -1    0.03    0.35
   8  -4   1    0.42    0.20
   8   4  -1    0.20    0.15
  -8   4   1    0.23    0.34
   8  -4   1    1.55    0.29
  -8  -4  -1    0.18    0.14
   8   4   1    0.52    0.17
  -8   4  -1    0.05    0.24
   8  -4  -1    0.54    0.18
  -8  -4   1    0.58    0.18
   8  -4  -1    0.11    0.17
  -8  -4   1    0.34    0.40
  10  -4   1    0.65    0.27
 -10   4   1    0.81    0.48
 -10  -4  -1    0.36    0.17
  10  -4   1    0.18    0.20
  10   4  -1    0.15    0.16
 -10  -4  -1   -0.24    0.38
 -10  -4   1    0.52    0.17
  10   4   1    0.07    0.15
 -10  -4   1    0.37    0.50
  10  -4  -1    0.36    0.24
 -10   4  -1    0.06    0.27
  10  -4  -1   -0.03    0.16
 -12  -4  -1    0.52    0.19
  12  -4   1    0.51    0.21
  12  -4  -1    0.15    0.18
 -12  -4   1    0.18    0.17
  14  -4   1    0.34    0.22
 -14  -4  -1    0.19    0.18
 -14  -4   1   -0.04    0.16
  14  -4  -1   -0.19    0.16
 -16  -4  -1    0.00    0.18
  16  -4  -1    0.07    0.18
 -16  -4   1    0.02    0.18
   1   5  -1   36.98    3.56
   1  -5   1   42.41    2.98
  -1   5   1   35.05    3.57
   1  -5   1   39.62    3.13
  -1  -5  -1   42.92    3.15
  -1   5  -1   38.74    3.55
  -1  -5   1   39.02    3.13
  -1  -5   1   45.57    2.96
   1  -5  -1   45.78    3.17
   1   5   1   42.64    2.95
  -3  -5  -1   53.76    4.07
   3  -5   1   52.84    4.07
   3  -5   1   51.03    3.90
  -3   5   1   49.71    4.68
   3  -5  -1   53.43    3.86
   3  -5  -1   57.85    4.10
   3   5   1   55.33    3.87
  -3  -5   1   55.29    4.07
   5  -5   1   53.51    3.93
   5  -5   1   47.41    4.10
  -5  -5  -1   53.19    4.55
   5   5  -1   60.53    3.78
  -5  -5  -1   59.07    3.81
  -5   5   1   57.71    4.60
   5  -5   1   50.78    3.79
  -5  -5   1   48.49    4.54
   5  -5  -1   46.27    4.10
  -5  -5   1   44.57    3.91
   5   5   1   54.38    3.76
  -5   5  -1   54.66    4.50
   5  -5  -1   53.44    3.76
   5  -5  -1   46.65    3.94
  -7  -5  -1    3.90    0.71
   7   5  -1    3.88    0.37
   7  -5   1    2.73    0.43
  -7   5   1    4.69    0.73
   7  -5   1    3.72    0.44
  -7  -5  -1    3.50    0.41
  -7  -5  -1    3.41    0.43
  -7   5  -1    3.72    0.57
   7   5   1    3.45    0.36
  -7  -5   1    2.87    0.66
  -7  -5   1    3.18    0.40
   7  -5  -1    2.78    0.45
  -9  -5  -1   34.42    3.10
  -9   5   1   40.61    3.15
  -9  -5  -1   30.89    2.44
   9   5  -1   32.89    2.44
   9  -5   1   28.11    2.65
  -9   5  -1   37.92    3.02
   9   5   1   34.17    2.45
  -9  -5   1   33.55    2.46
  -9  -5   1   30.33    3.10
   9  -5  -1   30.37    2.66
  11  -5   1    7.65    0.73
 -11  -5  -1    7.20    0.63
 -11  -5   1    6.12    0.62
  11  -5  -1    6.07    0.69
  13  -5   1    3.51    0.48
 -13  -5  -1    3.14    0.41
 -13  -5   1    2.80    0.40
  13  -5  -1    3.28    0.46
  15  -5   1    2.43    0.39
 -15  -5  -1    2.40    0.36
  15  -5  -1    3.11    0.44
 -15  -5   1    2.62    0.37
   0  -6  -1   58.81    4.22
   0  -6   1   60.61    3.95
   0   6  -1   52.90    4.73
   0   6   1   45.22    4.72
   0  -6   1   55.43    4.19
  -2  -6  -1   71.28    5.03
   2   6  -1   60.70    5.68
  -2   6   1   66.50    5.71
   2  -6   1   66.46    5.02
   2  -6   1   63.06    4.79
  -2  -6   1   71.42    5.02
  -2   6  -1   55.02    5.64
   2   6   1   73.23    4.75
   2   6   1   58.12    5.67
   2  -6  -1   72.93    5.05
   4  -6   1   11.64    1.10
  -4  -6  -1    9.99    1.32
  -4  -6  -1   14.19    1.04
  -4  -6  -1   11.81    1.00
   4   6  -1   14.57    0.99
  -4  -6  -1   12.02    1.02
   4  -6   1   12.90    1.02
   4  -6  -1    9.93    1.09
   4  -6  -1   13.49    1.04
   4   6   1   12.76    0.96
  -4   6  -1   11.85    1.28
  -4  -6   1   11.57    1.00
  -6   6   1   63.36    5.26
   6   6  -1   65.76    4.34
   6  -6   1   61.17    4.52
  -6  -6  -1   63.03    4.37
  -6  -6  -1   58.80    5.21
  -6  -6  -1   55.63    4.38
   6  -6   1   51.10    4.71
   6  -6  -1   51.62    4.71
  -6   6  -1   59.52    5.16
   6  -6  -1   60.74    4.53
  -6  -6   1   66.59    4.37
  -6  -6   1   61.39    4.35
  -6  -6   1   56.83    5.22
  -6   6  -1   64.14    4.42
   6   6   1   57.48    4.32
  -8  -6  -1   27.01    2.48
  -8  -6  -1   25.96    1.96
  -8  -6  -1   23.36    1.97
   8   6  -1   27.23    1.94
  -8   6   1   30.62    2.51
   8  -6   1   24.15    2.14
  -8   6  -1   28.00    2.40
   8  -6  -1   22.51    2.12
  -8  -6   1   23.06    2.45
  -8  -6   1   26.67    1.96
   8   6   1   26.56    1.94
 -10  -6  -1    3.79    0.48
  10  -6   1    4.18    0.56
 -10  -6   1    4.92    0.48
  10  -6  -1    5.05    0.61
  12  -6   1   12.81    1.22
 -12  -6  -1   13.73    1.11
 -12  -6   1   13.04    1.11
  12  -6  -1   14.22    1.23
  14  -6   1    3.76    0.52
 -14  -6  -1    3.61    0.46
 -14  -6   1    3.94    0.48
  14  -6  -1    4.43    0.56
   1   7  -1   21.39    2.16
  -1  -7  -1   25.22    1.86
  -1   7   1   20.79    2.16
   1  -7   1   24.36    1.85
  -1  -7   1   26.09    1.85
   1   7   1   19.86    2.15
   1  -7  -1   23.86    1.87
  -1   7  -1   26.16    2.19
  -3   7   1   30.00    2.90
  -3  -7  -1   34.74    2.40
   3  -7   1   28.55    2.56
   3  -7   1   30.05    2.36
  -3  -7  -1   31.52    2.45
   3  -7   1   32.87    2.46
  -3   7  -1   31.20    2.86
   3   7   1   26.73    2.85
  -3  -7   1   34.57    2.36
  -3  -7   1   32.51    2.45
   3  -7  -1   36.70    2.50
   5  -7   1   26.20    1.97
   5  -7   1   23.20    2.09
  -5  -7  -1   23.59    2.40
  -5  -7  -1   26.92    1.95
  -5   7   1   26.11    2.44
   5   7  -1   30.03    1.89
  -5  -7  -1   28.04    1.93
   5  -7  -1   24.61    1.90
   5  -7  -1   21.19    2.08
  -5   7  -1   25.74    1.95
  -5  -7   1   22.44    1.95
  -5   7  -1   22.55    2.32
   5  -7  -1   25.75    1.98
  -5  -7   1   25.46    1.90
   5   7   1   26.01    1.87
  -5  -7   1   20.45    2.40
  -5  -7   1   29.08    1.93
  -7   7   1    8.13    1.06
  -7  -7  -1    6.48    0.96
   7   7  -1    7.79    0.63
   7  -7   1    5.71    0.72
  -7  -7  -1    6.40    0.68
  -7  -7  -1    7.39    0.66
  -7   7  -1    7.54    0.87
  -7  -7   1    8.42    0.66
  -7  -7   1    7.65    1.08
   7  -7  -1    6.01    0.73
   7   7   1    7.21    0.62
   9   7  -1   14.99    1.17
  -9  -7  -1   16.95    1.67
   9  -7   1   13.11    1.32
  -9  -7  -1   13.32    1.18
  -9  -7   1   13.76    1.65
  -9   7  -1   17.23    1.65
   9   7   1   15.83    1.18
  -9  -7   1   14.49    1.19
   9  -7  -1   14.51    1.32
  11  -7   1    5.15    0.68
 -11  -7  -1    5.24    0.55
 -11  -7   1    5.60    0.57
  11  -7  -1    5.70    0.64
  13  -7   1    2.37    0.41
 -13  -7  -1    2.17    0.35
  13  -7  -1    2.76    0.43
 -13  -7   1    2.51    0.37
  15  -7   1    2.09    0.37
 -15  -7  -1    1.70    0.31
  15  -7  -1    1.86    0.36
 -15  -7   1    1.81    0.32
   0  -8  -1    0.72    0.18
   0  -8  -1    0.70    0.16
   0   8  -1    0.67    0.31
   0  -8   1    0.31    0.14
   0  -8   1    0.70    0.17
   0   8   1    0.57    0.30
   2  -8   1    3.04    0.43
   2   8  -1    2.57    0.53
   2  -8   1    3.38    0.35
  -2   8   1    2.74    0.58
  -2  -8  -1    3.34    0.39
  -2  -8  -1    3.74    0.37
   2  -8   1    3.74    0.36
   2   8   1    2.87    0.38
  -2   8  -1    2.81    0.55
  -2  -8   1    3.49    0.36
   2   8   1    1.96    0.49
  -2  -8   1    3.72    0.36
   2  -8  -1    3.44    0.35
   2  -8  -1    3.49    0.41
  -4  -8  -1    0.90    0.21
   4   8  -1    0.18    0.34
   4  -8   1    0.18    0.19
  -4  -8  -1    0.18    0.11
   4  -8   1    0.12    0.12
  -4   8   1    0.18    0.33
  -4  -8  -1    0.18    0.16
   4  -8   1    0.12    0.11
   4  -8  -1    0.24    0.14
  -4  -8   1    0.31    0.13
   4  -8  -1    0.09    0.13
  -4   8  -1    0.40    0.30
   4  -8  -1    0.70    0.26
  -4  -8   1    1.09    0.22
  -4  -8   1    0.13    0.14
  -6  -8  -1    2.83    0.36
   6  -8   1    2.43    0.31
  -6   8   1    1.81    0.55
   6  -8   1    3.03    0.47
  -6  -8  -1    3.38    0.68
  -6  -8  -1    2.74    0.37
  -6  -8   1    2.68    0.35
  -6   8  -1    2.89    0.54
  -6   8  -1    3.10    0.43
   6  -8  -1    2.42    0.32
  -6  -8   1    2.51    0.63
  -6  -8   1    3.21    0.39
   6  -8  -1    2.33    0.41
  -8  -8  -1    1.62    0.29
  -8   8   1    1.07    0.45
  -8  -8  -1    1.12    0.25
   8  -8   1    0.88    0.29
  -8  -8  -1    0.99    0.50
  -8  -8   1    0.93    0.22
  -8   8  -1    0.65    0.35
  -8  -8   1    0.92    0.57
   8  -8  -1    0.97    0.30
 -10  -8  -1    0.20    0.20
  10  -8   1    0.05    0.20
 -10  -8   1    0.29    0.19
  10  -8  -1    0.31    0.25
 -12  -8  -1    0.91    0.25
  12  -8   1    1.29    0.34
 -12  -8   1    0.80    0.25
  12  -8  -1    0.90    0.31
 -14  -8  -1   -0.02    0.16
  14  -8   1    0.40    0.25
  14  -8  -1   -0.04    0.21
 -14  -8   1    0.12    0.19
   1   9  -1   22.56    2.22
   1  -9   1   23.20    1.83
   1  -9   1   25.38    1.92
   1  -9   1   22.48    1.99
  -1  -9  -1   27.13    1.94
  -1   9   1   21.46    2.24
  -1  -9  -1   23.42    1.83
   1   9   1   23.22    1.86
  -1   9  -1   24.85    2.25
   1  -9  -1   24.88    1.83
   1  -9  -1   27.56    1.95
  -1  -9   1   26.11    1.84
   1   9   1   20.12    2.21
  -1  -9   1   26.14    1.92
  -3   9   1   35.74    3.05
   3  -9   1   33.54    2.45
   3  -9   1   35.64    2.56
   3   9  -1   27.65    2.95
  -3  -9  -1   31.47    2.54
  -3  -9  -1   35.74    2.47
   3  -9   1   31.70    2.67
   3  -9  -1   36.20    2.59
  -3   9  -1   34.63    3.00
  -3  -9   1   35.59    2.46
   3  -9  -1   30.40    2.66
   3  -9  -1   32.89    2.44
   3   9   1   31.67    2.45
  -3  -9   1   34.11    2.55
   3   9   1   28.68    2.95
  -5  -9  -1   40.21    2.70
  -5  -9  -1   35.51    2.70
  -5   9   1   35.05    3.33
   5  -9   1   36.17    2.69
   5  -9   1   33.77    2.93
   5  -9   1   37.01    2.79
  -5  -9   1   37.81    2.68
   5  -9  -1   38.80    2.69
  -5   9  -1   37.11    3.28
   5   9   1   33.08    3.26
  -5  -9   1   36.42    2.68
   5  -9  -1   30.53    2.92
   5  -9  -1   37.63    2.80
  -7  -9  -1    4.67    0.50
  -7  -9  -1    4.28    0.50
  -7   9   1    3.91    0.76
  -7  -9  -1    5.15    0.85
   7  -9   1    3.70    0.57
  -7  -9   1    4.31    0.90
  -7  -9   1    4.30    0.49
   7  -9  -1    3.08    0.52
  -7   9  -1    4.17    0.69
   9  -9   1   22.13    1.96
  -9  -9  -1   23.54    1.77
   9  -9  -1   25.63    1.99
  -9  -9   1   20.19    1.75
 -11  -9  -1    6.64    0.66
  11  -9   1    6.94    0.77
 -11  -9   1    5.98    0.69
  11  -9  -1    6.46    0.74
 -13  -9  -1    3.10    0.43
  13  -9   1    3.51    0.55
  13  -9  -1    4.33    0.59
 -13  -9   1    3.23    0.46
   0 -10   1   28.27    2.43
   0 -10  -1   28.99    2.21
   0 -10   1   30.33    2.21
   0  10   1   29.12    2.70
   0 -10  -1   31.46    2.34
   0 -10   1   30.79    2.32
   0  10  -1   28.99    2.69
   2 -10   1   33.38    2.45
  -2  10   1   32.56    3.01
  -2 -10  -1   34.92    2.47
   2  10  -1   29.79    2.96
   2 -10   1   31.22    2.67
  -2 -10  -1   33.73    2.57
   2 -10   1   36.36    2.58
   2 -10  -1   36.22    2.60
   2  10   1   26.03    2.93
  -2 -10   1   32.74    2.45
  -2 -10   1   35.66    2.57
  -2  10  -1   32.70    2.99
   2 -10  -1   33.29    2.45
  -4  10   1    8.84    1.13
  -4 -10  -1    9.72    0.81
   4 -10   1   10.24    0.80
   4 -10   1    9.72    0.81
   4  10  -1    9.01    1.10
   4 -10   1    8.55    0.89
  -4 -10  -1    8.11    0.79
  -4 -10   1    9.80    0.81
   4 -10  -1   10.02    0.84
   4  10   1    9.35    0.80
   4 -10  -1    9.60    0.78
   4 -10  -1    9.15    0.92
  -4  10  -1    9.84    1.11
  -4 -10   1   10.11    0.80
   4  10   1    7.84    1.05
  -6 -10  -1   31.16    2.36
   6 -10   1   30.82    2.42
  -6 -10  -1   32.29    2.34
  -6  10   1   32.56    2.97
   6 -10   1   31.05    2.58
  -6 -10   1   31.59    2.34
  -6  10  -1   34.00    2.41
   6  10   1   26.73    2.84
   6 -10  -1   30.66    2.58
   6 -10  -1   30.63    2.42
  -6 -10   1   30.06    2.32
  -6  10  -1   32.46    2.87
  -8 -10  -1   15.02    1.25
  -8 -10  -1   15.91    1.27
   8 -10   1   14.92    1.43
   8 -10  -1   15.77    1.43
  -8 -10   1   15.55    1.26
 -10 -10  -1    4.82    0.54
  10 -10   1    3.50    0.60
 -10 -10   1    4.97    0.56
  10 -10  -1    5.29    0.70
  12 -10   1    8.56    0.91
 -12 -10  -1    8.37    0.79
 -12 -10   1    7.57    0.79
  12 -10  -1   10.10    0.96
   1 -11   1    8.16    0.71
   1  11  -1    6.16    0.92
  -1 -11  -1    7.34    0.67
   1 -11   1    7.64    0.80
   1 -11   1    7.19    0.66
  -1 -11  -1    8.15    0.72
  -1  11   1    7.46    1.00
  -1 -11   1    7.70    0.67
   1 -11  -1    7.47    0.66
   1  11   1    6.62    0.88
   1 -11  -1    9.45    0.75
  -1  11  -1    7.92    0.95
  -1 -11   1    8.95    0.72
  -3 -11  -1   10.07    0.89
  -3 -11  -1   10.75    0.88
   3 -11   1   10.76    0.91
   3 -11   1    9.66    0.99
   3 -11   1   10.28    0.86
   3  11  -1    8.28    1.12
  -3  11   1   10.40    1.22
   3 -11  -1   10.64    0.86
  -3 -11   1   10.89    0.90
   3  11   1    9.61    1.14
  -3  11  -1   11.31    1.20
   3 -11  -1   11.72    0.93
  -3 -11   1   10.65    0.86
   5 -11   1    7.74    0.69
   5  11  -1    6.37    1.01
  -5 -11  -1    7.39    0.69
   5 -11   1    6.91    0.79
   5 -11   1    7.95    0.69
   5 -11  -1    8.61    0.69
   5 -11  -1    7.96    0.70
   5  11   1    7.09    0.68
  -5 -11   1    7.18    0.66
   5 -11  -1    7.31    0.81
  -5  11  -1    7.39    1.01
  -7 -11  -1    3.61    0.48
  -7 -11  -1    4.51    0.46
   7 -11   1    3.60    0.59
  -7 -11   1    4.05    0.47
   7 -11  -1    4.17    0.60
  -7 -11   1    3.97    0.48
   9 -11   1    4.43    0.68
  -9 -11  -1    4.65    0.55
   9 -11  -1    5.37    0.73
  -9 -11   1    5.82    0.60
  11 -11   1    3.03    0.54
 -11 -11  -1    2.58    0.41
  11 -11  -1    3.11    0.54
 -11 -11   1    2.65    0.42
  13 -11   1    1.52    0.40
 -13 -11  -1    1.18    0.30
 -13 -11   1    1.10    0.33
  13 -11  -1    1.15    0.35
   0 -12  -1    2.22    0.33
   0 -12   1    1.89    0.27
   0  12  -1    1.95    0.46
   0  12   1    1.82    0.46
   0 -12  -1    1.57    0.25
   0 -12   1    2.06    0.32
  -2 -12  -1    4.62    0.46
   2 -12   1    4.95    0.50
   2 -12   1    3.76    0.43
  -2 -12  -1    4.41    0.50
   2  12  -1    4.41    0.71
   2 -12   1    4.86    0.62
  -2  12   1    3.31    0.69
  -2  12  -1    4.33    0.71
  -2 -12   1    4.38    0.49
  -2 -12   1    4.48    0.45
   2  12   1    4.31    0.71
   2 -12  -1    4.52    0.44
   2 -12  -1    5.07    0.52
  -4 -12  -1    0.42    0.18
   4 -12   1    0.29    0.25
   4 -12   1    0.54    0.19
   4 -12  -1    0.54    0.17
  -4 -12   1    0.43    0.17
  -6 -12  -1    3.79    0.47
   6 -12   1    4.14    0.61
   6  12   1    3.87    0.47
   6 -12  -1    3.79    0.58
  -6 -12   1    3.84    0.46
  -6  12  -1    3.86    0.52
   8 -12   1    1.33    0.40
  -8 -12  -1    1.90    0.33
   8 -12  -1    1.94    0.43
  10 -12   1    0.38    0.32
 -10 -12   1    0.24    0.25
  10 -12  -1    0.18    0.30
  12 -12   1    1.56    0.40
 -12 -12   1    1.12    0.34
  12 -12  -1    1.22    0.42
  -1 -13  -1   16.46    1.19
   1 -13   1   14.59    1.16
   1 -13  -1   14.16    1.16
  -1 -13   1   13.92    1.16
   3 -13   1   17.94    1.44
   3 -13   1   17.72    1.64
  -3 -13  -1   18.61    1.46
  -3 -13   1   19.06    1.45
   3 -13  -1   19.10    1.44
   5 -13   1   18.35    1.75
  -5 -13  -1   20.09    1.57
   5 -13  -1   21.84    1.58
  -5 -13   1   19.37    1.55
   7 -13   1    3.31    0.58
  -7 -13  -1    4.52    0.51
   7 -13  -1    3.99    0.62
  -7 -13   1    4.47    0.49
   9 -13   1   14.83    1.47
   9 -13  -1   19.01    1.54
   9  13   1   14.45    1.30
  11 -13   1    5.82    0.79
  11 -13  -1    6.35    0.84
  11  13   1    5.84    0.72
   0 -14   1   12.72    1.03
   0 -14  -1   12.54    1.03
   2 -14   1   12.65    1.06
  -2 -14  -1   13.17    1.08
   2 -14  -1   13.58    1.07
  -2 -14   1   13.29    1.07
   4 -14   1    5.39    0.57
  -4 -14  -1    6.16    0.60
  -4 -14   1    5.36    0.57
   4 -14  -1    6.67    0.60
  -6 -14  -1   12.21    1.11
   6 -14   1   13.79    1.31
  -6 -14   1   12.77    1.09
  -6  14  -1   15.19    1.21
  -8 -14  -1    6.32    0.72
   8 -14   1    7.28    0.94
   8 -14  -1    9.35    0.97
  10 -14   1    3.06    0.59
  10 -14  -1    2.38    0.60
   1 -15   1    1.72    0.28
  -1 -15  -1    1.33    0.26
  -1 -15   1    1.36    0.26
   1 -15  -1    1.47    0.27
   3 -15   1    2.62    0.36
  -3 -15  -1    1.93    0.33
   3 -15  -1    2.60    0.35
  -3 -15   1    2.25    0.33
  -5 -15  -1    1.27    0.28
  -5  15  -1    1.10    0.33
  -5 -15   1    1.10    0.26
  -7 -15  -1    1.27    0.31
   7 -15   1    1.31    0.49
  -7 -15   1    1.22    0.31
   9 -15   1    0.76    0.47
   9 -15  -1    0.93    0.49
   0 -16   1    2.33    0.34
   0 -16  -1    2.65    0.36
  -2 -16  -1    3.95    0.48
   2 -16   1    3.71    0.47
   2 -16  -1    5.04    0.49
  -2 -16   1    4.62    0.50
   4 -16   1    1.14    0.26
  -4 -16  -1    0.75    0.24
  -4 -16   1    1.37    0.28
   4 -16  -1    1.12    0.28
  -6 -16  -1    3.53    0.47
  -6 -16   1    3.17    0.45
  -6  16  -1    3.95    0.62
  -8 -16  -1    2.09    0.40
   8 -16   1    2.78    0.62
   1 -17   1    7.17    0.70
  -1 -17  -1    7.84    0.72
   1 -17  -1    8.14    0.72
  -1 -17   1    7.38    0.70
   3 -17   1   10.39    0.88
  -3 -17  -1    9.08    0.85
  -3 -17   1    9.26    0.86
   3 -17  -1   10.95    0.90
  -5 -17  -1    8.97    0.84
  -5  17  -1   11.03    1.01
  -5 -17   1    8.60    0.84
   0 -18  -1    5.59    0.57
   0 -18   1    4.82    0.56
   2 -18   1    5.29    0.55
  -2 -18  -1    3.46    0.49
   2 -18  -1    4.70    0.55
  -2 -18   1    4.06    0.50
  -4  18  -1    2.67    0.61
   4 -18  -1    2.88    0.43
   0   0  -2  141.01   10.33
   0   0   2  131.96    9.81
   2   0   2  533.58   35.17
  -2   0  -2  465.22   36.96
  -2   0  -2  493.65   40.85
  -2   0   2  463.69   40.85
  -2   0   2  528.07   35.16
  -4   0   2  236.66   15.89
  -4   0  -2  222.40   18.52
  -4   0   2  214.52   18.54
   4   0  -2  201.73   16.73
   4   0   2  241.87   15.91
   6   0  -2  423.20   30.29
  -6   0   2  391.50   35.30
   6   0   2  467.08   30.32
  -6   0  -2  428.39   35.28
  -8   0  -2  118.66    7.98
  -8   0  -2  112.30    9.44
   8   0  -2  110.62    8.65
  -8   0   2  113.44    8.00
   8   0   2  109.54    8.60
  -8   0   2  107.28    9.48
   8   0   2  112.65    8.03
   8   0  -2  108.50    7.99
  10   0  -2  167.15   12.52
 -10   0   2  164.87   14.78
  10   0  -2  166.94   13.49
  10   0   2  183.76   12.56
 -10   0  -2  177.90   14.71
 -10   0  -2  188.78   12.50
 -10   0   2  179.74   12.52
  12   0  -2   45.21    3.80
 -12   0  -2   50.69    3.53
 -12   0   2   48.87    3.54
 -14   0   2   93.21    6.72
 -16   0   2   24.70    1.89
   1   1  -2   56.78    3.89
   1  -1   2   49.52    3.70
   1   1  -2   55.10    3.57
  -1  -1  -2   42.79    4.28
  -1   1   2   44.90    4.29
  -1  -1   2   47.62    4.26
  -1  -1   2   53.17    3.70
  -1   1  -2   58.25    3.56
  -1   1  -2   52.99    4.26
   1  -1  -2   41.92    3.92
  -1   1  -2   56.93    3.87
   3   1  -2  142.25   11.25
  -3   1   2  150.54   12.47
  -3  -1  -2  163.60   12.48
  -3  -1  -2  130.70   11.20
  -3   1   2  156.96   10.67
  -3  -1   2  152.72   10.68
  -3   1  -2  151.27   12.44
  -3  -1   2  142.41   12.45
  -3   1  -2  157.93   10.29
  -3   1  -2  158.88   11.19
   3  -1  -2  137.69   11.26
   3   1   2  155.39   10.69
   5   1  -2   16.51    1.29
  -5  -1  -2   16.89    1.60
  -5   1   2   14.37    1.61
   5  -1   2   16.73    1.31
  -5   1  -2   17.67    1.31
   5  -1  -2   16.44    1.28
  -5   1  -2   17.02    1.59
   5   1   2   17.22    1.30
  -5   1  -2   17.55    1.20
   5  -1  -2   16.01    1.35
  -5  -1   2   16.15    1.63
   7   1  -2   63.18    4.54
   7  -1   2   61.87    4.57
   7   1  -2   59.88    4.93
  -7   1   2   60.93    5.46
  -7   1   2   68.31    4.55
  -7  -1  -2   65.48    5.43
  -7  -1  -2   66.99    4.53
   7  -1  -2   60.24    4.53
  -7   1  -2   61.31    5.38
   7  -1  -2   59.67    4.93
  -7  -1   2   54.98    5.42
  -7  -1   2   66.46    4.55
   7   1   2   64.54    4.56
  -9   1   2    8.94    0.74
   9   1  -2    7.98    0.73
   9   1  -2    7.74    0.81
  -9  -1  -2    9.00    1.05
  -9   1   2   10.81    1.28
   9  -1   2    8.30    0.79
   9  -1   2    9.10    0.79
  -9  -1  -2    9.02    0.73
   9  -1  -2    8.89    0.73
  -9  -1   2    7.16    1.11
   9   1   2    8.20    0.75
  -9  -1   2   10.10    0.75
  -9   1  -2    8.70    1.02
  -9   1  -2    9.34    0.72
   9  -1  -2    7.91    0.81
 -11   1   2   27.93    2.13
 -11   1   2   29.42    2.85
 -11  -1  -2   30.17    2.13
  11   1  -2   27.02    2.29
  11  -1  -2   25.72    2.30
 -11  -1   2   29.19    2.85
 -11  -1   2   29.08    2.14
  11  -1  -2   29.78    2.14
 -13   1   2    1.98    0.31
 -13  -1  -2    1.78    0.28
  13  -1  -2    1.34    0.30
 -13  -1   2    1.49    0.28
 -15   1   2    5.02    0.55
 -15  -1   2    5.12    0.52
   0  -2  -2  274.97   19.43
   0   2  -2  256.30   21.40
   0  -2   2  269.09   18.48
   0   2   2  258.10   18.44
   0   2   2  249.42   21.44
   0  -2   2  256.18   19.37
  -2   2   2  304.28   20.88
  -2   2   2  263.33   24.35
   2  -2   2  298.81   21.95
  -2  -2  -2  302.28   21.97
   2   2  -2  308.42   20.19
  -2  -2  -2  298.45   24.33
   2   2  -2  310.54   21.97
   2  -2   2  318.67   20.93
   2  -2  -2  267.92   22.00
  -2  -2   2  294.29   24.33
  -2  -2   2  287.62   20.90
   2   2   2  291.88   20.90
  -2   2  -2  290.54   24.29
  -4  -2  -2  247.37   20.58
  -4  -2  -2  221.64   18.46
   4   2  -2  236.93   17.02
   4  -2   2  281.86   18.49
   4  -2   2  278.77   17.66
  -4   2   2  242.94   20.58
   4   2  -2  255.60   18.53
   4  -2  -2  254.42   18.52
   4   2   2  255.58   17.63
  -4   2  -2  236.21   20.51
  -4  -2   2  227.58   20.57
   4  -2  -2  240.93   17.61
  -4  -2   2  252.25   17.63
  -6  -2  -2  224.74   18.75
  -6   2   2  209.05   18.75
   6  -2   2  249.16   16.06
   6   2  -2  218.28   16.02
   6  -2  -2  230.42   16.79
   6  -2  -2  245.51   17.31
  -6   2  -2  219.37   18.68
  -6  -2   2  239.78   16.03
   6   2   2  223.24   16.03
  -6  -2   2  194.56   18.73
   6  -2  -2  225.35   16.01
   8   2  -2  160.62   12.70
   8   2  -2  147.43   11.75
  -8  -2  -2  170.09   11.85
  -8   2   2  155.72   13.86
  -8   2   2  177.22   11.76
   8  -2   2  161.79   12.67
   8  -2   2  171.93   11.81
  -8  -2  -2  171.59   13.85
  -8  -2  -2  175.33   11.76
   8  -2  -2  161.29   11.75
   8  -2  -2  163.83   12.69
  -8   2  -2  171.27   13.78
  -8  -2   2  145.98   13.85
  -8  -2   2  173.15   11.77
   8   2   2  168.56   11.78
  10  -2   2  140.68    9.53
 -10  -2  -2  139.91   11.24
 -10  -2  -2  137.27    9.47
 -10   2   2  124.08   11.25
  10   2  -2  125.17    9.48
  10  -2   2  129.21   10.21
  10   2  -2  126.85   10.21
 -10   2   2  143.96    9.48
 -10  -2   2  134.75    9.48
  10   2   2  136.15    9.51
 -10  -2   2  116.23   11.25
 -10   2  -2  140.71   11.16
  10  -2  -2  130.96    9.47
  10  -2  -2  129.27   10.22
 -12  -2  -2   90.39    6.23
 -12   2   2   83.19    6.23
 -12  -2   2   86.87    6.24
  12  -2  -2   85.66    6.73
 -14  -2  -2   65.35    4.64
 -14   2   2   64.41    4.64
 -14  -2   2   62.51    4.64
  14  -2  -2   63.02    5.01
 -16  -2   2   36.51    2.72
  -1   3   2   69.10    4.48
  -1  -3  -2   58.54    5.32
  -1   3   2   59.41    5.30
   1  -3   2   67.57    4.73
  -1  -3  -2   60.02    4.75
   1   3  -2   65.58    5.28
   1   3   2   57.77    4.49
  -1   3  -2   58.11    5.24
   1  -3  -2   59.12    4.76
  -1  -3   2   65.27    4.51
  -1  -3   2   67.93    4.73
   3   3  -2  119.09    7.62
   3  -3   2  110.05    7.91
   3   3  -2  116.74    8.29
  -3  -3  -2  111.73    9.25
  -3  -3  -2  101.80    8.26
  -3   3   2  104.67    9.29
   3  -3   2  117.50    8.27
  -3  -3   2  110.87    7.88
   3  -3  -2  106.97    8.30
   3   3   2  109.84    7.88
  -3  -3   2  104.69    9.26
  -3   3  -2  110.45    9.20
   5   3  -2   56.48    4.22
   5   3  -2   54.98    3.87
  -5   3   2   58.79    4.85
  -5  -3  -2   54.69    4.82
   5  -3   2   54.64    4.05
   5  -3  -2   57.15    4.00
  -5   3  -2   57.82    4.73
   5  -3  -2   56.71    4.21
  -5  -3   2   47.18    4.81
   5   3   2   54.89    4.02
  -7   3   2   22.28    1.58
   7   3  -2   20.79    1.75
  -7   3   2   19.76    2.02
  -7  -3  -2   21.84    1.57
  -7  -3  -2   18.85    1.62
  -7  -3  -2   20.20    2.01
   7  -3   2   20.60    1.61
   7   3  -2   21.27    1.57
   7  -3   2   19.70    1.71
  -7  -3   2   22.94    1.59
  -7  -3   2   16.86    2.01
   7  -3  -2   20.40    1.55
   7  -3  -2   19.07    1.73
   7   3   2   20.46    1.57
  -7   3  -2   19.14    1.81
  -7   3  -2   21.84    1.93
   9   3  -2   32.12    2.76
   9  -3   2   33.39    2.76
   9   3  -2   33.00    2.54
  -9  -3  -2   35.46    2.55
  -9   3   2   37.56    2.56
   9  -3   2   35.56    2.60
  -9   3   2   34.26    3.22
  -9  -3  -2   36.51    3.22
   9  -3  -2   31.61    2.77
   9  -3  -2   34.93    2.54
   9   3   2   33.82    2.56
  -9  -3   2   35.49    2.57
  -9  -3   2   31.03    3.22
  -9   3  -2   38.06    3.10
  11  -3   2   14.33    1.21
 -11  -3  -2   12.85    1.09
 -11   3   2   14.89    1.11
  11  -3  -2   13.44    1.20
 -11  -3   2   14.00    1.11
  11  -3  -2   12.59    1.10
 -13   3   2    6.31    0.58
 -13  -3  -2    5.99    0.58
 -13  -3   2    5.24    0.57
  13  -3  -2    6.47    0.65
 -15  -3  -2    2.93    0.38
  15  -3  -2    3.11    0.43
 -15  -3   2    2.64    0.38
   0   4  -2  669.88   54.97
   0   4   2  694.72   47.30
   0  -4  -2  676.67   49.73
   0  -4   2  646.08   49.70
   0   4   2  656.91   55.01
  -2  -4  -2  267.05   20.91
  -2   4   2  258.24   23.23
  -2   4   2  288.09   19.86
   2  -4   2  302.11   19.96
   2  -4   2  255.91   20.90
  -2   4  -2  279.55   23.16
  -2  -4   2  277.15   20.91
  -2  -4   2  307.52   23.24
  -2  -4   2  286.78   19.89
   2   4   2  295.32   19.89
   2  -4  -2  269.79   20.94
   4  -4   2  418.78   34.68
   4   4  -2  512.58   31.91
  -4  -4  -2  413.14   34.67
  -4  -4  -2  509.42   38.50
   4   4  -2  507.45   34.71
  -4   4  -2  467.40   38.42
  -4  -4   2  498.74   38.52
  -4  -4   2  472.87   33.02
   4  -4  -2  465.42   33.01
   4  -4  -2  460.26   34.72
   4   4   2  413.83   33.02
   6  -4   2  126.50    9.79
   6   4  -2  125.63    9.06
  -6  -4  -2  127.97   10.69
  -6   4   2  147.73   10.77
  -6  -4  -2  122.79    9.13
  -6  -4  -2  137.72    9.08
   6  -4   2  127.19    9.10
  -6  -4   2  112.11   10.70
  -6  -4   2  138.67    9.08
   6  -4  -2  124.72    9.49
   6  -4  -2  117.65    9.79
   6   4   2  122.57    9.05
  -6   4  -2  130.34   10.59
   6  -4  -2  116.83    9.03
  -8  -4  -2  254.91   22.67
  -8  -4  -2  271.58   19.35
   8  -4   2  265.13   20.87
  -8  -4  -2  293.25   19.45
   8  -4   2  283.84   19.41
   8   4  -2  247.69   19.35
  -8   4   2  276.88   19.34
   8   4  -2  257.52   20.87
  -8   4   2  311.04   22.76
   8   4   2  271.15   19.37
   8  -4  -2  269.40   20.88
  -8  -4   2  263.85   19.35
  -8   4  -2  290.52   22.58
   8  -4  -2  267.29   19.34
  10  -4   2   73.65    6.02
 -10  -4  -2   77.13    5.57
  10  -4   2   78.64    5.63
 -10   4   2   80.63    5.57
  10   4  -2   70.79    5.56
 -10   4   2   89.82    6.83
 -10  -4  -2   73.42    6.70
  10   4   2   77.39    5.59
 -10   4  -2   84.46    6.62
 -10  -4   2   74.52    5.58
  10  -4  -2   74.10    6.03
 -12  -4  -2  108.78    7.72
  12  -4   2  106.13    8.33
  12  -4  -2  113.28    8.35
 -12  -4   2  101.84    7.72
 -14  -4  -2   18.07    1.42
 -14  -4   2   16.86    1.41
  14  -4  -2   18.99    1.55
 -16  -4  -2   37.90    2.75
 -16  -4   2   32.93    2.74
  16  -4  -2   40.12    2.98
  -1   5   2   40.56    3.80
   1  -5   2   44.23    3.22
  -1  -5  -2   45.63    3.37
   1  -5   2   45.35    3.34
   1   5  -2   44.27    3.77
  -1   5  -2   40.89    3.75
   1  -5  -2   46.66    3.38
   1   5   2   39.62    3.78
  -1  -5   2   45.92    3.35
   1   5   2   41.98    3.15
  -1  -5   2   46.37    3.17
   3  -5   2   57.40    4.19
  -3   5   2   53.68    4.82
  -3  -5  -2   53.26    4.18
   3  -5   2   51.52    4.04
  -3  -5  -2   45.40    4.76
   3   5   2   58.00    3.99
  -3  -5   2   62.69    4.00
  -3   5  -2   52.12    4.71
   3  -5  -2   59.62    3.96
  -3  -5   2   50.61    4.78
   3  -5  -2   59.05    4.23
  -3  -5   2   56.15    4.19
   5  -5   2   43.50    3.68
   5   5  -2   50.70    3.27
  -5  -5  -2   50.03    3.42
   5  -5   2   44.50    3.42
   5  -5   2   47.95    3.53
   5   5  -2   49.33    3.39
   5   5  -2   50.92    3.56
  -5   5   2   43.52    4.13
  -5  -5  -2   39.83    3.43
  -5  -5  -2   43.18    4.06
   5  -5  -2   48.94    3.37
   5   5   2   45.29    3.37
   5  -5  -2   41.22    3.69
   5  -5  -2   44.47    3.55
  -5  -5   2   55.08    3.42
  -5   5  -2   46.98    4.01
  -5  -5   2   41.55    4.08
   7   5  -2   10.48    0.85
   7  -5   2   10.25    0.97
  -7   5   2   11.02    0.86
  -7  -5  -2   10.29    0.87
   7  -5   2    9.97    0.91
  -7  -5  -2    8.47    1.14
  -7  -5  -2   10.08    0.90
  -7   5   2   11.81    1.28
   7  -5  -2    9.20    0.96
  -7   5  -2   10.69    1.09
  -7  -5   2   10.77    1.01
  -7   5  -2   13.04    1.06
  -7  -5   2    9.63    1.24
  -7  -5   2   11.49    0.89
   7   5   2   10.09    0.85
  -9  -5  -2   27.94    2.04
   9  -5   2   24.17    2.21
   9   5  -2   24.91    2.01
  -9  -5  -2   29.20    2.60
  -9   5   2   27.60    2.02
  -9   5   2   32.11    2.69
  -9   5  -2   29.30    2.48
  -9  -5   2   24.48    2.62
   9  -5  -2   25.57    2.22
   9   5   2   26.31    2.03
  -9  -5   2   27.39    2.04
  11  -5   2    6.49    0.70
 -11  -5  -2    6.59    0.61
 -11  -5   2    6.75    0.63
  11  -5  -2    6.41    0.71
  13  -5   2    5.02    0.61
 -13  -5  -2    5.08    0.56
  13  -5  -2    5.40    0.61
 -13  -5   2    4.72    0.51
 -15  -5  -2    1.89    0.31
  15  -5  -2    2.29    0.39
 -15  -5   2    1.95    0.34
   0   6  -2  266.73   22.09
   0  -6  -2  281.14   19.96
   0  -6   2  243.31   19.91
   0  -6   2  279.85   18.93
  -2   6   2  186.41   16.08
  -2  -6  -2  200.84   14.43
   2  -6   2  179.70   14.41
   2  -6   2  161.30   13.75
   2   6  -2  191.85   16.05
   2  -6  -2  193.81   14.45
  -2  -6   2  197.01   14.41
   2   6   2  207.99   16.07
  -2   6  -2  184.32   16.01
  -2  -6   2  211.06   13.69
   2   6   2  210.96   13.69
  -4  -6  -2  229.44   17.79
  -4  -6  -2  203.79   15.24
  -4   6   2  222.93   17.83
   4  -6   2  240.55   16.37
   4  -6   2  202.48   15.90
  -4  -6  -2  191.83   15.89
   4  -6   2  237.61   15.21
  -4  -6   2  197.82   15.90
   4  -6  -2  208.33   16.35
  -4   6  -2  223.93   15.25
  -4  -6   2  191.88   17.75
   4  -6  -2  221.41   15.94
  -4   6  -2  206.16   17.68
   4   6   2  215.23   15.13
  -6   6   2  153.29   12.58
   6   6  -2  148.73   10.62
  -6  -6  -2  131.17   10.69
   6  -6   2  149.55   11.50
  -6   6   2  154.26   10.64
   6  -6   2  148.54   11.13
  -6  -6  -2  154.54   10.65
  -6  -6  -2  161.01   12.52
  -6  -6   2  159.19   10.65
  -6   6  -2  149.63   12.42
  -6   6  -2  167.30   10.75
   6  -6  -2  133.67   11.48
   6  -6  -2  141.93   11.14
   6   6   2  144.17   10.61
  -6  -6   2  142.54   12.52
  -8   6   2  184.91   13.65
  -8  -6  -2  158.94   11.51
  -8  -6  -2  170.68   13.56
   8  -6   2  149.36   12.44
   8   6  -2  150.02   11.50
  -8  -6  -2  161.64   11.58
  -8   6  -2  171.61   13.47
   8   6   2  154.91   11.50
   8  -6  -2  151.52   12.43
  -8  -6   2  157.30   11.52
  -8  -6   2  173.87   13.61
  10  -6   2   93.28    7.43
 -10  -6  -2   96.98    6.87
  10  -6  -2   96.62    7.43
 -10  -6   2   94.06    6.87
 -12  -6  -2   77.13    5.79
  12  -6   2   80.61    6.28
  12  -6  -2   87.24    6.29
 -12  -6   2   75.84    5.79
  14  -6   2   42.88    3.37
 -14  -6  -2   40.35    3.10
  14  -6  -2   47.23    3.40
 -14  -6   2   37.97    3.10
   1   7  -2   31.02    2.88
  -1  -7  -2   34.12    2.55
  -1   7   2   30.61    2.92
   1  -7   2   33.02    2.52
  -1  -7  -2   33.24    2.44
   1  -7   2   32.75    2.42
  -1  -7   2   33.54    2.53
   1  -7  -2   33.98    2.57
  -1   7  -2   32.18    2.89
  -1  -7   2   34.67    2.42
  -1  -7   2   35.22    2.37
   1   7   2   26.14    2.87
  -3  -7  -2  112.04    7.85
   3  -7   2  103.91    8.16
  -3   7   2  105.27    9.21
   3  -7   2  100.70    7.81
   3  -7   2  112.72    8.42
   3   7  -2  105.28    9.18
  -3  -7  -2  101.84    8.16
  -3  -7   2  115.02    7.75
  -3  -7   2  110.59    8.16
   3   7   2  117.16    7.82
   3  -7  -2  111.19    8.20
   3   7   2  109.54    9.17
  -3  -7   2  112.29    7.80
  -3   7  -2  104.96    9.12
  -5  -7  -2   13.42    1.36
   5  -7   2   13.80    1.01
  -5  -7  -2   12.41    1.05
  -5   7   2   11.92    1.42
  -5  -7  -2   13.05    1.01
   5  -7   2   11.40    1.10
   5   7  -2   14.26    0.98
  -5  -7   2    8.39    1.35
   5  -7  -2   12.46    1.03
  -5   7  -2   10.99    1.23
  -5  -7   2   10.99    0.99
  -5  -7   2   14.12    1.01
   5  -7  -2   10.24    1.10
  -5   7  -2   10.83    1.03
  -5  -7   2   12.32    0.97
  -7   7   2   55.11    4.44
  -7  -7  -2   42.64    3.60
   7  -7   2   45.76    3.90
   7   7  -2   50.85    3.56
  -7  -7  -2   52.29    4.34
  -7  -7  -2   47.59    3.58
  -7   7  -2   48.77    4.23
  -7  -7   2   46.37    4.35
  -7   7  -2   57.21    3.69
  -7  -7   2   51.08    3.58
   7  -7  -2   44.19    3.89
   7   7   2   47.92    3.55
  -9  -7  -2    8.04    0.79
   9  -7   2    8.42    0.90
  -9  -7  -2    7.85    0.82
   9   7  -2    9.23    0.77
   9  -7  -2    9.85    0.92
   9   7   2    9.77    0.79
  -9  -7   2    9.65    1.28
  -9  -7   2    9.52    0.80
 -11  -7  -2   25.24    1.93
  11  -7   2   24.63    2.12
 -11  -7   2   25.19    1.94
  11  -7  -2   25.64    2.12
 -13  -7  -2    1.95    0.32
  13  -7   2    1.55    0.34
  13  -7  -2    2.17    0.39
 -13  -7   2    1.65    0.30
  15  -7   2    5.55    0.65
 -15  -7  -2    4.57    0.53
 -15  -7   2    4.22    0.53
  15  -7  -2    5.34    0.64
   0  -8  -2   80.03    5.62
   0  -8   2   78.28    6.06
   0  -8  -2   83.86    5.91
   0   8  -2   76.16    6.58
   0   8   2   68.29    6.57
   0  -8   2   77.49    5.61
   0  -8   2   78.21    5.87
  -2  -8  -2  299.26   21.75
   2  -8   2  265.98   21.73
   2  -8   2  283.03   20.76
   2   8  -2  276.77   24.13
  -2  -8  -2  296.86   20.78
   2  -8   2  337.86   22.32
  -2   8   2  276.59   24.17
   2  -8  -2  289.25   20.74
  -2  -8   2  288.70   20.75
   2   8   2  300.97   24.15
  -2   8  -2  293.55   24.13
   2   8   2  289.92   20.72
   2  -8  -2  295.57   21.78
  -2  -8   2  290.07   21.73
   4   8  -2   99.84    9.87
   4  -8   2  114.61    8.43
   4  -8   2  112.22    8.80
  -4   8   2  124.10    9.98
   4  -8   2  123.68    9.09
  -4  -8  -2  119.81    8.46
  -4  -8  -2  100.56    8.78
   4   8   2  120.14    9.89
  -4  -8   2  115.64    8.80
  -4   8  -2  115.23    9.85
   4  -8  -2  106.57    9.06
   4  -8  -2  122.22    8.83
   4  -8  -2  128.75    8.41
  -4  -8   2  122.91    8.41
  -4  -8   2  136.46    8.40
  -6   8   2  261.09   22.60
   6   8  -2  277.54   19.26
   6  -8   2  286.35   20.80
  -6  -8  -2  255.18   19.35
  -6  -8  -2  301.60   19.27
   6  -8   2  253.36   20.20
   6  -8  -2  254.52   20.22
   6  -8  -2  275.84   20.79
  -6  -8   2  236.95   22.55
  -6  -8   2  292.33   19.25
  -6   8  -2  282.36   19.39
  -6   8  -2  276.22   22.46
  -8  -8  -2   62.61    4.93
  -8   8   2   79.16    6.00
  -8  -8  -2   63.88    4.89
   8   8  -2   64.97    4.86
   8  -8   2   62.88    5.32
  -8  -8  -2   79.10    5.94
  -8  -8   2   75.22    5.98
   8  -8  -2   62.67    5.31
  -8   8  -2   69.56    5.77
  -8  -8   2   64.40    4.89
 -10  -8  -2  121.61    8.80
  10  -8   2  117.04    9.53
  10  -8  -2  135.48    9.56
 -10  -8   2  117.05    8.80
  12  -8   2   33.21    2.67
 -12  -8  -2   29.46    2.41
 -12  -8   2   31.12    2.43
  12  -8  -2   35.36    2.68
 -14  -8  -2   64.53    4.86
  14  -8   2   70.62    5.29
 -14  -8   2   57.91    4.86
  14  -8  -2   76.15    5.32
   1   9  -2   13.17    1.29
   1  -9   2   14.10    1.08
  -1   9   2   11.62    1.32
   1  -9   2   12.92    1.03
   1  -9   2   12.46    1.15
  -1  -9  -2   13.24    1.05
  -1  -9  -2   12.76    1.10
  -1  -9   2   14.07    1.04
  -1   9  -2   13.04    1.31
   1  -9  -2   14.80    1.12
  -1  -9   2   12.81    1.19
   1  -9  -2   13.33    1.03
   1   9   2   11.86    1.30
   1   9   2   11.69    1.07
  -1  -9   2   13.38    1.07
   3  -9   2   33.13    2.50
   3  -9   2   31.91    2.41
   3   9  -2   29.80    2.90
  -3  -9  -2   34.63    2.44
   3  -9   2   30.40    2.62
  -3  -9  -2   31.13    2.50
  -3   9   2   33.45    2.97
  -3   9  -2   33.79    2.91
   3  -9  -2   35.93    2.55
  -3  -9   2   33.64    2.40
   3   9   2   31.87    2.42
  -3  -9   2   33.74    2.50
   3  -9  -2   32.64    2.39
   3  -9  -2   27.37    2.59
   3   9   2   32.39    2.90
   5  -9   2    5.22    0.67
  -5  -9  -2    5.30    0.58
  -5   9   2    6.44    0.96
   5  -9   2    5.88    0.53
   5   9  -2    5.88    0.89
  -5   9  -2    5.45    0.78
  -5  -9   2    6.03    0.53
  -5   9  -2    5.67    0.58
   5  -9  -2    4.92    0.65
   5  -9  -2    5.74    0.56
  -5  -9   2    6.44    0.57
   5   9   2    4.99    0.78
  -7  -9  -2   17.34    1.42
   7  -9   2   16.53    1.59
  -7  -9  -2   16.80    1.45
  -7  -9  -2   22.57    1.95
  -7   9   2   18.47    1.92
  -7  -9   2   16.85    1.41
  -7   9  -2   18.28    1.76
   7  -9  -2   19.49    1.61
  -7   9  -2   20.13    1.52
  -7  -9   2   17.46    1.94
  -9  -9  -2    3.01    0.39
  -9  -9  -2    2.98    0.43
   9  -9   2    2.07    0.43
   9  -9  -2    2.36    0.45
  -9  -9   2    2.98    0.41
 -11  -9  -2    8.54    0.81
  11  -9   2   10.11    0.97
  11  -9  -2    9.13    0.95
 -11  -9   2    8.51    0.82
 -13  -9  -2    0.52    0.22
  13  -9   2    0.93    0.33
 -13  -9   2    1.13    0.29
  13  -9  -2    0.88    0.32
   0 -10   2   61.14    4.51
   0 -10   2   61.10    4.90
   0  10   2   56.97    5.32
   0  10  -2   61.35    5.32
   0 -10  -2   68.58    4.77
   0 -10   2   64.00    4.73
   0 -10  -2   61.94    4.51
   2 -10   2  123.92    9.20
   2  10  -2  110.15   10.26
  -2  10   2  115.57   10.32
  -2 -10  -2  125.92    8.81
   2 -10   2  118.20    8.79
  -2 -10  -2  123.14    9.21
   2 -10   2  127.50    9.48
  -2 -10   2  125.17    9.20
   2 -10  -2  128.61    9.25
   2  10   2  118.31    8.79
   2  10   2  124.37   10.29
  -2 -10   2  124.78    8.78
  -2  10  -2  123.73   10.29
   2 -10  -2  126.46    8.78
  -4 -10  -2   81.23    5.76
   4 -10   2   82.14    6.20
   4 -10   2   80.95    5.98
  -4  10   2   76.73    6.82
  -4 -10  -2   68.75    5.97
   4  10  -2   69.76    6.74
   4 -10   2   79.02    5.74
   4 -10  -2   84.21    6.02
   4 -10  -2   71.60    6.18
   4  10   2   79.50    5.73
  -4 -10   2   74.57    5.97
   4  10   2   81.44    6.76
  -4 -10   2   83.18    5.72
  -4  10  -2   87.18    6.78
   4 -10  -2   88.66    5.72
  -6  10   2  129.34   11.01
   6 -10   2  133.11   10.05
   6 -10   2  128.57    9.70
  -6 -10  -2  119.73    9.31
  -6 -10   2  127.47    9.26
   6  10   2  133.15   10.92
  -6  10  -2  135.19   10.88
  -6  10  -2  132.91    9.35
   6 -10  -2  134.91   10.04
   6 -10  -2  122.22    9.71
   8 -10   2   64.69    5.33
  -8 -10  -2   71.05    4.89
  -8 -10  -2   61.27    4.91
  -8 -10   2   68.11    4.89
   8 -10  -2   70.28    5.34
  10 -10   2   84.37    6.73
 -10 -10  -2   83.67    6.17
  10 -10  -2   97.08    6.76
 -10 -10   2   77.79    6.18
  12 -10   2   44.49    3.57
 -12 -10  -2   41.55    3.24
 -12 -10   2   38.07    3.25
  12 -10  -2   53.55    3.62
  -1 -11  -2   21.94    1.63
   1  11  -2   21.90    2.00
   1 -11   2   21.48    1.70
  -1  11   2   18.75    1.99
  -1 -11  -2   21.93    1.72
   1 -11   2   20.13    1.80
   1 -11   2   20.96    1.62
  -1 -11   2   22.38    1.70
   1  11   2   18.68    1.96
   1 -11  -2   22.20    1.62
   1 -11  -2   23.09    1.73
  -1 -11   2   20.94    1.62
  -1  11  -2   20.31    1.99
   3 -11   2   38.99    2.93
  -3 -11  -2   38.83    3.06
   3  11  -2   35.25    3.49
   3 -11   2   38.81    3.06
  -3  11   2   36.46    3.54
   3 -11   2   39.91    3.20
  -3 -11  -2   40.43    2.95
   3  11   2   40.17    3.51
  -3 -11   2   38.76    3.05
  -3  11  -2   44.47    3.56
  -3 -11   2   40.09    2.92
   3 -11  -2   42.84    2.93
   3  11   2   38.88    2.96
   3 -11  -2   41.96    3.10
  -5 -11  -2   20.66    1.65
   5 -11   2   20.16    1.80
   5  11  -2   16.41    1.98
   5 -11   2   22.19    1.68
  -5  11  -2   22.88    1.69
   5 -11  -2   22.11    1.70
   5 -11  -2   21.28    1.82
  -5  11  -2   23.79    2.05
  -5 -11   2   20.20    1.60
   5  11   2   19.98    1.64
  -7 -11  -2   10.51    0.98
   7 -11   2   10.26    1.10
  -7  11  -2   12.91    1.06
   7 -11  -2   11.75    1.14
   7  11   2   11.78    0.99
  -9 -11  -2   14.67    1.34
   9 -11   2   16.10    1.51
   9 -11  -2   18.18    1.54
  -9 -11   2   16.95    1.34
  11 -11   2    8.25    0.94
 -11 -11  -2    8.89    0.80
  11 -11  -2    9.62    0.96
 -11 -11   2    8.30    0.84
  13 -11   2    3.79    0.58
  13 -11  -2    3.79    0.60
 -13 -11   2    3.61    0.54
   0 -12  -2  211.74   15.21
   0 -12   2  223.82   15.95
   0 -12  -2  220.83   15.97
   0  12   2  210.06   17.73
   0 -12   2  200.35   15.19
   0  12  -2  213.09   17.72
  -2 -12  -2   77.93    5.62
  -2 -12  -2   75.23    5.87
   2  12  -2   75.54    6.60
   2 -12   2   80.09    6.08
   2 -12   2   76.51    5.61
   2 -12  -2   77.57    5.60
  -2 -12   2   77.82    5.60
  -2 -12   2   76.86    5.87
  -2  12  -2   80.24    6.62
   4  12  -2  133.71   13.20
   4 -12   2  175.10   12.23
   4 -12   2  160.42   11.33
  -4 -12  -2  163.76   11.35
  -4 -12   2  149.44   11.84
   4 -12  -2  177.93   11.33
   4  12   2  153.44   11.31
  -4 -12   2  151.30   11.30
   6 -12   2   42.56    3.39
  -6 -12  -2   41.72    3.10
  -6 -12   2   38.08    3.05
   6 -12  -2   42.29    3.39
  -6  12  -2   42.26    3.14
   6  12   2   42.13    3.10
  -8 -12  -2  102.99    8.30
   8 -12   2  114.82    9.01
   8 -12  -2  132.77    9.03
   8  12   2  112.35    8.32
  10 -12   2   30.85    2.83
  10  12   2   33.43    2.61
  10 -12  -2   37.35    2.86
  12 -12   2   61.91    4.97
 -12 -12   2   53.25    4.54
  12 -12  -2   72.77    5.02
  12  12   2   62.83    4.63
   1 -13   2    3.80    0.45
  -1 -13  -2    5.59    0.50
   1 -13  -2    5.25    0.48
  -1 -13   2    4.34    0.47
   3 -13   2    2.86    0.40
  -3 -13  -2    3.67    0.44
   3 -13   2    3.48    0.56
   3 -13  -2    3.66    0.42
  -3 -13   2    4.44    0.41
   5 -13   2    7.07    0.87
  -5 -13  -2    7.00    0.70
  -5  13  -2    8.52    0.77
  -5 -13   2    7.01    0.66
  -7 -13  -2    0.88    0.25
   7 -13   2    0.34    0.31
   7  13   2    0.74    0.27
   7 -13  -2    0.37    0.32
  -7  13  -2    0.66    0.31
   9 -13   2    4.14    0.69
  -9 -13  -2    4.75    0.59
   9 -13  -2    6.58    0.83
   9  13   2    5.59    0.65
  11 -13   2    0.78    0.35
  11  13   2    0.91    0.33
  11 -13  -2    0.87    0.43
   0 -14  -2   96.91    6.84
   0 -14   2   92.51    6.83
   2 -14   2   43.98    3.29
  -2 -14  -2   43.86    3.30
   2 -14  -2   45.50    3.29
  -2 -14   2   44.80    3.29
   4 -14   2   84.18    6.14
   4 -14   2   82.31    6.66
  -4 -14  -2   79.68    6.13
   4 -14  -2   96.05    6.15
  -4 -14   2   80.53    6.11
  -6 -14  -2   32.65    2.48
   6 -14   2   30.23    2.73
  -6  14  -2   36.58    2.56
  -6 -14   2   31.21    2.44
   8 -14   2   72.49    5.40
  -8 -14  -2   62.63    4.91
  10 -14   2   34.05    2.89
   1 -15   2    9.51    0.81
  -1 -15  -2    9.07    0.81
   1 -15  -2   10.09    0.81
  -1 -15   2    8.31    0.79
   3 -15   2   22.63    1.82
  -3 -15  -2   22.57    1.83
  -3 -15   2   22.22    1.81
   3 -15  -2   27.46    1.84
  -5 -15  -2    4.70    0.59
   5 -15   2    5.40    0.77
  -5 -15   2    5.24    0.56
  -5  15  -2    7.34    0.74
   7 -15   2   14.40    1.36
  -7 -15  -2   12.15    1.11
  -7  15  -2   13.86    1.27
  -9 -15  -2    4.34    0.55
   9 -15   2    4.14    0.71
   0 -16   2   23.82    1.92
   0 -16  -2   26.48    1.94
   2 -16   2   78.19    5.69
  -2 -16  -2   77.98    5.70
   2 -16  -2   84.64    5.71
  -2 -16   2   72.78    5.68
  -4 -16  -2   29.51    2.30
  -4 -16   2   29.04    2.27
  -4  16  -2   32.03    2.36
   6 -16   2   74.43    5.61
  -6 -16  -2   64.95    5.09
  -6  16  -2   77.56    5.20
  -6 -16   2   64.40    5.07
  -8 -16  -2   19.46    1.68
   8 -16   2   23.89    2.00
   1 -17   2    0.68    0.21
  -1 -17  -2    0.98    0.25
  -1 -17   2    1.04    0.24
   1 -17  -2    0.77    0.24
  -3 -17  -2    1.45    0.31
  -3 -17   2    1.11    0.27
   3 -17  -2    1.45    0.31
  -5 -17  -2    0.19    0.21
  -5  17  -2    0.58    0.38
  -5 -17   2    0.41    0.25
   0 -18  -2   10.31    0.90
   0 -18   2   10.00    0.89
   2 -18   2   39.82    3.05
  -2 -18  -2   40.17    3.05
  -2 -18   2   38.33    3.04
   2 -18  -2   45.22    3.08
   0   0   3    0.09    0.13
   0   0  -3   -0.13    0.20
   0   0   3    0.24    0.09
  -2   0  -3    0.18    0.15
  -2   0   3    0.64    0.15
   2   0   3    0.13    0.12
  -2   0   3    0.39    0.18
   2   0  -3    0.21    0.27
  -2   0  -3    0.19    0.20
  -4   0   3   -0.09    0.19
   4   0  -3    0.23    0.25
  -4   0  -3    0.35    0.21
  -4   0  -3    0.24    0.20
   4   0   3    0.38    0.15
  -4   0   3    0.01    0.10
  -6   0  -3   -0.11    0.22
  -6   0   3    0.22    0.12
  -6   0   3    0.23    0.29
   6   0  -3    0.73    0.26
   6   0  -3    0.08    0.11
   6   0   3    0.11    0.14
   6   0  -3    0.40    0.23
  -8   0  -3    0.15    0.28
   8   0  -3    0.28    0.20
   8   0   3    0.03    0.14
  -8   0   3    1.26    0.46
  -8   0   3    0.02    0.11
   8   0  -3    0.05    0.13
  -8   0  -3    0.28    0.37
  -8   0  -3    0.05    0.10
 -10   0   3    0.09    0.13
  10   0  -3    0.07    0.16
 -10   0  -3    0.00    0.29
 -10   0  -3    0.22    0.14
  10   0  -3    0.17    0.17
 -10   0   3    0.01    0.50
  10   0   3    0.01    0.18
  12   0  -3   -0.03    0.16
 -12   0   3    0.18    0.17
 -14   0   3   -0.05    0.18
  14   0  -3    0.03    0.17
 -16   0   3    0.03    0.19
   1  -1   3   60.25    4.73
  -1   1   3   68.26    4.73
   1   1  -3   70.39    4.99
   1   1  -3   63.88    4.57
  -1   1   3   55.44    5.45
  -1   1  -3   68.00    4.56
   1  -1  -3   52.14    5.02
   1   1   3   61.71    4.71
  -1   1  -3   71.76    5.42
  -1  -1   3   73.89    4.75
  -1   1  -3   70.52    4.96
  -3   1   3   75.05    6.69
  -3  -1  -3   89.55    6.70
  -3   1   3   84.18    5.72
  -3  -1  -3   68.10    6.04
   3   1  -3   78.31    6.07
  -3  -1   3   83.01    5.73
   3   1   3   81.71    5.74
  -3   1  -3   82.70    6.67
  -3  -1   3   73.77    6.67
   3  -1  -3   69.99    6.09
  -3   1  -3   81.37    5.52
  -3   1  -3   85.00    6.01
  -5   1   3   66.08    6.12
  -5   1   3   74.68    5.18
   5  -1   3   75.42    5.22
  -5  -1  -3   73.93    6.12
  -5   1  -3   73.78    5.43
  -5   1  -3   75.45    6.09
  -5  -1   3   71.54    5.18
  -5  -1   3   67.50    6.11
   5  -1  -3   71.03    5.49
  -5   1  -3   70.61    4.98
   5   1   3   69.00    5.19
   7  -1   3    8.99    0.81
  -7   1   3    9.43    0.79
   7   1  -3    8.25    0.91
  -7  -1  -3    7.55    0.98
  -7  -1  -3    9.74    0.76
  -7  -1  -3   10.34    1.06
   7   1  -3    9.06    0.77
  -7   1   3    9.24    1.11
  -7  -1   3   10.31    0.80
   7  -1  -3    8.66    0.76
  -7   1  -3    7.47    1.03
   7   1   3    9.80    0.81
   7  -1  -3    8.93    0.91
  -7   1  -3   10.22    1.03
  -7  -1   3    8.42    1.10
  -9   1   3   35.68    3.45
  -9  -1  -3   42.76    3.42
   9  -1   3   39.34    2.81
  -9  -1  -3   32.12    2.87
  -9   1   3   38.67    2.77
   9   1  -3   36.64    2.75
  -9  -1  -3   40.94    2.75
   9   1  -3   35.30    3.02
  -9  -1   3   34.65    3.43
   9  -1  -3   36.78    3.02
   9  -1  -3   35.67    2.75
  -9   1  -3   38.30    3.34
   9   1   3   36.89    2.79
  -9  -1   3   39.81    2.78
 -11   1   3   12.18    0.94
 -11   1   3   11.71    1.55
  11   1  -3   10.75    1.01
 -11  -1  -3   10.55    0.90
 -11  -1   3   10.67    0.92
  11  -1  -3   10.66    1.01
 -11  -1   3   12.86    1.57
 -13   1   3    5.12    0.50
  13   1  -3    3.95    0.51
  13  -1  -3    3.71    0.51
 -13  -1   3    4.61    0.48
 -15   1   3    3.96    0.48
 -15  -1   3    3.41    0.46
  15  -1  -3    3.98    0.50
   0   2   3  217.87   16.65
   0  -2   3  192.02   14.38
   0   2   3  204.23   14.34
   0   2  -3  203.09   15.06
   0   2  -3  186.48   16.58
   0   2  -3  201.66   13.84
  -2  -2  -3  218.73   18.19
   2  -2   3  241.87   15.68
   2   2  -3  222.63   15.12
   2   2  -3  226.24   16.45
  -2   2   3  229.71   15.63
  -2   2   3  186.15   18.21
  -2  -2   3  225.07   15.65
  -2   2  -3  223.15   16.42
   2  -2  -3  203.76   16.51
  -2   2  -3  207.89   18.14
  -2   2  -3  226.79   15.10
   2   2   3  222.75   15.64
  -4  -2  -3   89.38    7.72
   4   2  -3   82.68    6.92
  -4   2   3   79.77    7.73
  -4  -2  -3   90.98    6.88
   4  -2   3   89.09    6.60
  -4   2   3   93.76    6.56
  -4   2  -3  102.36    6.88
   4   2   3   92.32    6.58
  -4   2  -3  102.66    6.33
  -4  -2   3   91.91    6.57
  -4   2  -3   91.45    7.66
   4  -2  -3   87.86    6.95
  -4  -2   3   87.74    7.72
  -6   2   3  169.64   11.80
   6  -2   3  179.75   11.84
  -6  -2  -3  179.20   11.78
  -6  -2  -3  166.81   13.81
  -6   2   3  143.74   13.81
  -6  -2   3  171.25   11.79
  -6  -2   3  139.57   13.80
   6  -2  -3  172.43   12.77
   6  -2  -3  162.35   11.77
   6   2   3  163.97   11.79
  -6  -2   3  163.87   12.76
  -6   2  -3  165.89   13.75
   6  -2  -3  166.67   12.37
   8   2  -3   85.92    6.59
  -8  -2  -3   77.71    6.15
  -8   2   3   75.21    7.22
  -8   2   3   88.51    6.07
   8  -2   3   89.73    6.11
   8  -2   3   85.92    6.52
  -8  -2  -3   88.94    7.21
   8   2  -3   80.92    6.05
  -8  -2  -3   87.33    6.04
  -8   2  -3   83.28    7.11
   8   2   3   83.78    6.07
  -8  -2   3   88.21    6.07
   8  -2  -3   86.11    6.57
   8  -2  -3   80.13    6.03
  -8  -2   3   78.53    7.22
 -10   2   3   28.09    2.02
  10   2  -3   24.72    2.19
  10  -2   3   27.53    2.17
 -10  -2  -3   26.59    1.99
 -10   2   3   25.28    2.64
  10   2  -3   25.23    1.99
 -10  -2  -3   28.92    2.56
  10  -2   3   27.63    2.08
 -10  -2   3   26.90    2.70
  10  -2  -3   25.82    1.99
 -10   2  -3   29.02    2.48
  10   2   3   25.96    2.03
 -10  -2   3   27.07    2.02
  10  -2  -3   25.56    2.19
  12   2  -3   33.26    2.93
 -12   2   3   39.73    2.74
 -12  -2  -3   38.46    2.72
 -12  -2   3   35.27    2.73
  12  -2  -3   36.99    2.96
 -14  -2  -3   13.83    1.11
 -14   2   3   14.73    1.13
  14  -2  -3   13.75    1.22
 -14  -2   3   12.30    1.11
  16  -2  -3    8.03    0.77
 -16  -2   3    6.86    0.70
   1  -3   3   28.70    2.07
   1  -3   3   22.31    2.02
  -1   3   3   24.36    2.33
  -1  -3  -3   26.14    2.11
   1   3  -3   30.18    1.92
   1   3  -3   26.82    2.27
  -1   3   3   28.41    1.97
   1   3  -3   29.96    2.08
  -1   3  -3   23.92    2.26
   1   3   3   22.80    1.95
   1  -3  -3   25.68    2.13
  -1  -3   3   28.95    2.01
   3   3  -3   39.39    2.63
  -3   3   3   31.61    3.27
  -3  -3  -3   35.23    2.84
  -3  -3  -3   33.10    3.20
   3  -3   3   43.29    2.85
   3   3  -3   41.53    2.87
  -3   3   3   41.14    2.70
   3  -3   3   30.27    2.73
  -3  -3   3   37.01    2.71
  -3   3  -3   36.53    3.15
   3   3   3   37.32    2.72
   3  -3  -3   36.46    2.90
  -3  -3   3   36.05    3.21
  -5   3   3   31.27    2.82
   5   3  -3   27.44    2.40
   5   3  -3   26.33    2.19
  -5  -3  -3   33.06    2.79
   5  -3   3   31.58    2.32
   5   3   3   33.35    2.28
  -5  -3   3   27.98    2.80
   5  -3  -3   32.03    2.25
  -5   3  -3   31.07    2.69
  -5  -3   3   32.48    2.28
   5  -3  -3   30.92    2.39
   7  -3   3    2.32    0.38
  -7  -3  -3    1.92    0.53
  -7   3   3    1.79    0.55
  -7   3   3    2.57    0.34
   7   3  -3    2.08    0.29
  -7  -3  -3    1.92    0.39
   7  -3   3    1.99    0.34
  -7  -3  -3    3.45    0.36
  -7  -3   3    2.54    0.34
  -7   3  -3    3.69    0.62
   7  -3  -3    1.76    0.37
   7  -3  -3    3.12    0.32
  -7  -3   3    1.90    0.57
  -7   3  -3    1.75    0.40
   7   3   3    1.95    0.31
   9  -3   3   18.02    1.55
  -9  -3  -3   18.27    1.41
  -9   3   3   16.55    1.93
  -9  -3  -3   19.07    1.87
   9  -3   3   19.42    1.50
  -9   3   3   20.96    1.45
   9   3  -3   16.67    1.41
  -9  -3  -3   18.31    1.50
   9   3  -3   18.88    1.60
  -9   3  -3   19.08    1.76
  -9  -3   3   19.29    1.44
   9  -3  -3   18.21    1.57
   9  -3  -3   18.44    1.41
  -9  -3   3   15.02    1.92
   9   3   3   18.16    1.44
 -11   3   3    4.45    0.45
 -11  -3  -3    4.00    0.44
  11  -3   3    4.04    0.50
  11   3  -3    4.41    0.54
  11  -3  -3    4.17    0.48
  11  -3  -3    3.51    0.51
 -11  -3   3    4.66    0.46
 -13  -3  -3    1.77    0.30
 -13   3   3    2.54    0.33
  13  -3  -3    1.84    0.36
 -13  -3   3    2.15    0.32
 -15  -3  -3    1.29    0.27
 -15  -3   3    1.48    0.30
  15  -3  -3    1.33    0.31
   0   4   3   10.22    1.02
   0  -4   3   10.77    0.91
   0   4  -3    9.84    0.97
   0   4   3    9.91    0.82
   0  -4   3   12.70    0.89
   0  -4  -3   10.94    0.94
   2  -4   3   12.59    1.18
  -2  -4  -3   14.75    1.19
   2  -4   3   17.82    1.19
  -2  -4  -3   12.62    1.39
  -2   4   3   12.52    1.40
  -2   4  -3   14.06    1.31
  -2  -4   3   15.58    1.13
   2   4   3   14.22    1.12
   2  -4  -3   15.21    1.23
   4   4  -3    5.48    0.46
  -4   4   3    5.22    0.81
   4   4  -3    5.26    0.49
   4  -4   3    6.08    0.47
  -4  -4  -3    4.35    0.64
   4  -4   3    4.44    0.51
  -4  -4  -3    4.67    0.44
  -4   4  -3    4.85    0.56
   4   4   3    5.19    0.46
   4  -4  -3    4.42    0.50
  -4  -4   3    3.77    0.66
  -4  -4   3    5.06    0.46
  -6  -4  -3    8.67    1.03
   6  -4   3    8.68    0.83
  -6  -4  -3    8.98    0.85
  -6   4   3    9.94    0.81
   6  -4   3    8.67    0.84
  -6   4   3    9.90    1.16
  -6  -4  -3    9.84    0.79
   6  -4  -3    8.16    0.73
  -6   4  -3   11.02    0.95
   6  -4  -3    8.78    0.89
   6   4   3    8.51    0.76
  -6   4  -3    9.21    0.95
  -6  -4   3    9.00    1.18
  -6  -4   3    9.08    0.96
  -6  -4   3   11.93    0.82
   6  -4  -3    9.27    0.79
  -8   4   3    4.03    0.45
  -8  -4  -3    5.57    0.81
  -8  -4  -3    4.51    0.46
   8   4  -3    4.13    0.59
   8  -4   3    4.78    0.57
   8  -4   3    4.67    0.52
  -8   4   3    3.53    0.77
   8   4  -3    4.28    0.43
  -8  -4  -3    4.54    0.56
  -8   4  -3    6.20    0.80
  -8  -4   3    4.95    0.47
   8  -4  -3    4.12    0.43
   8   4   3    4.94    0.47
  -8   4  -3    4.32    0.62
   8  -4  -3    3.56    0.53
  -8  -4   3    4.68    0.88
 -10   4   3    1.21    0.25
  10  -4   3    1.29    0.37
 -10  -4  -3    1.44    0.25
 -10   4   3    1.54    0.66
  10  -4   3    1.38    0.30
  10  -4  -3    2.56    0.39
 -10  -4   3    1.72    0.28
 -10  -4   3    0.74    0.65
  10   4   3    1.32    0.28
 -10   4  -3    1.50    0.41
 -12  -4  -3    1.78    0.30
  12  -4   3    2.45    0.39
 -12   4   3    1.94    0.31
  12  -4  -3    1.87    0.37
 -12  -4   3    1.44    0.30
 -14  -4  -3    0.78    0.22
  14  -4  -3    0.77    0.25
 -14  -4   3    0.56    0.21
  -1   5   3   69.33    4.34
  -1   5   3   56.87    5.16
  -1  -5  -3   59.07    4.63
   1   5  -3   62.04    5.12
   1  -5   3   63.20    4.60
   1  -5   3   52.65    4.43
  -1  -5   3   64.62    4.39
  -1  -5   3   65.88    4.61
   1   5   3   56.85    4.36
  -1   5  -3   53.59    5.09
   1   5   3   65.49    5.17
   1  -5  -3   56.71    4.64
   3  -5   3   67.85    5.14
  -3  -5  -3   73.18    5.33
  -3  -5  -3   67.86    6.01
   3  -5   3   63.65    5.31
  -3   5   3   66.77    6.05
   3  -5  -3   73.49    5.37
   3   5   3   76.80    5.07
  -3   5  -3   65.76    5.91
  -3  -5   3   76.46    6.01
  -3  -5   3   71.51    5.07
  -5   5   3   79.71    5.33
   5   5  -3   64.88    5.52
  -5  -5  -3   71.83    6.22
  -5  -5  -3   71.32    5.34
   5   5  -3   62.62    5.07
  -5   5   3   66.05    6.30
   5  -5   3   80.23    5.51
   5  -5   3   73.39    5.32
   5  -5   3   72.70    5.70
  -5  -5  -3   82.13    5.30
  -5  -5   3   65.38    5.75
  -5  -5   3   70.94    5.25
  -5  -5   3   85.89    5.29
   5  -5  -3   70.85    5.72
  -5   5  -3   69.16    6.14
  -5  -5   3   70.42    6.24
   5   5   3   72.55    5.25
   5  -5  -3   73.69    5.53
  -5   5  -3   80.63    5.35
  -7  -5  -3    9.07    0.84
   7  -5   3    9.44    0.92
   7  -5   3    9.63    0.93
  -7   5   3   10.78    0.87
  -7  -5  -3    9.93    1.11
  -7  -5  -3    9.34    0.89
   7   5  -3   10.30    0.83
  -7   5   3   10.15    1.25
   7   5   3    9.04    0.82
  -7  -5   3   12.51    0.88
  -7  -5   3    9.81    1.02
  -7  -5   3   11.04    1.23
  -7   5  -3   12.67    1.04
  -7   5  -3   10.32    1.03
   7  -5  -3    9.67    0.95
  -9  -5  -3   44.48    3.89
   9  -5   3   42.37    3.26
  -9  -5  -3   42.75    3.23
  -9   5   3   45.85    3.19
  -9  -5  -3   40.62    3.17
   9  -5   3   42.38    3.46
  -9   5   3   48.09    4.04
   9   5  -3   39.04    3.16
  -9  -5   3   48.03    3.99
  -9  -5   3   43.67    3.20
   9  -5  -3   41.88    3.47
   9   5   3   40.81    3.18
  -9   5  -3   48.04    3.79
 -11  -5  -3   10.70    0.94
  11  -5   3   10.31    1.04
 -11   5   3   13.06    0.97
  11  -5  -3   11.38    1.06
 -11  -5   3   11.13    0.96
 -13  -5  -3    6.02    0.59
  13  -5   3    7.25    0.70
  13  -5  -3    6.62    0.71
 -13  -5   3    5.55    0.61
 -15  -5  -3    4.58    0.50
  15  -5  -3    4.45    0.58
 -15  -5   3    3.97    0.51
   0  -6   3  105.86    8.40
   0   6   3  117.86    9.38
   0  -6   3  123.26    8.02
   0  -6  -3  107.66    8.44
   0   6  -3  105.04    9.32
   2  -6   3  124.39    9.43
  -2  -6  -3  119.67    9.18
   2  -6   3  122.91    8.78
   2  -6   3  113.63    8.79
  -2   6   3  120.56   10.26
   2  -6   3  114.72    9.16
  -2  -6  -3  119.85    8.80
   2   6  -3  126.12   10.21
   2   6   3  131.97    8.71
  -2   6  -3  113.00   10.17
   2   6   3  134.55   10.25
   2  -6  -3  122.85    9.21
  -2  -6   3  126.01    9.17
  -2  -6   3  119.81    8.71
  -4  -6  -3   44.18    3.67
  -4  -6  -3   49.34    4.24
   4  -6   3   49.93    3.69
   4  -6   3   46.77    3.83
   4  -6   3   44.94    3.59
  -4   6   3   48.49    4.30
  -4   6   3   47.21    3.60
  -4  -6  -3   54.70    3.57
  -4  -6  -3   41.94    3.58
   4   6   3   52.01    3.52
  -4  -6   3   49.78    3.51
   4  -6  -3   47.95    3.84
  -4   6  -3   44.55    4.12
  -4   6  -3   49.03    3.58
   4  -6  -3   51.86    3.73
  -4  -6   3   49.31    4.24
   6  -6   3   99.98    7.32
  -6  -6  -3  108.71    7.28
  -6  -6  -3  106.13    8.56
  -6  -6  -3  101.60    7.33
  -6   6   3  108.07    7.30
  -6   6   3  102.58    8.66
   6  -6   3   99.57    7.85
   6   6  -3   98.69    7.24
  -6  -6   3   90.74    7.88
  -6  -6   3   98.97    8.58
  -6   6  -3   93.11    8.45
  -6  -6   3  109.39    7.27
   6   6   3   92.81    7.23
   6  -6  -3   98.25    7.60
   6  -6  -3   99.82    7.86
  -6   6  -3  112.83    7.36
  -8  -6  -3   54.00    3.97
   8   6  -3   51.45    3.89
   8  -6   3   49.35    4.24
  -8   6   3   55.93    3.93
  -8   6   3   61.32    4.84
  -8  -6  -3   51.92    3.91
  -8  -6  -3   55.75    4.71
   8  -6  -3   50.48    4.26
   8   6   3   50.35    3.90
  -8  -6   3   60.32    4.79
  -8  -6   3   55.25    3.93
  -8   6  -3   53.30    4.60
  10  -6   3   15.75    1.39
 -10  -6  -3   15.14    1.25
 -10  -6   3   15.79    1.26
  10  -6  -3   15.80    1.40
 -12  -6  -3   23.05    1.80
  12  -6   3   22.67    1.98
  12  -6  -3   25.60    2.01
 -12  -6   3   22.86    1.82
  14  -6   3    8.82    0.88
 -14  -6  -3    8.85    0.79
 -14  -6   3    8.43    0.79
  14  -6  -3    9.73    0.92
  -1  -7  -3    1.49    0.26
  -1  -7  -3    1.81    0.28
   1  -7   3    1.70    0.26
   1   7  -3    1.12    0.30
   1  -7   3    1.70    0.24
   1  -7   3    2.41    0.31
   1  -7   3    2.35    0.34
  -1   7   3    1.42    0.37
  -1  -7   3    1.46    0.21
  -1  -7   3    1.39    0.33
   1   7   3    1.59    0.37
  -1  -7   3    1.68    0.25
  -1  -7   3    1.84    0.25
   1  -7  -3    1.71    0.30
  -1   7  -3    1.96    0.36
   1   7   3    1.35    0.30
  -3   7   3    4.23    0.71
   3   7  -3    4.88    0.68
  -3  -7  -3    4.82    0.52
   3  -7   3    5.09    0.47
   3  -7   3    4.46    0.57
  -3   7   3    3.59    0.52
  -3  -7  -3    5.33    0.48
  -3  -7   3    2.87    0.60
  -3   7  -3    5.67    0.62
  -3  -7   3    5.24    0.48
  -3  -7   3    4.66    0.43
  -3  -7   3    5.74    0.46
   3   7   3    4.64    0.67
   3   7   3    4.93    0.52
   3  -7  -3    5.02    0.52
   5  -7   3    3.00    0.47
   5  -7   3    3.81    0.38
  -5   7   3    5.28    0.54
   5   7  -3    4.24    0.44
  -5  -7  -3    4.02    0.45
  -5   7   3    5.40    0.84
   5   7  -3    4.25    0.41
  -5  -7  -3    3.60    0.64
  -5  -7  -3    3.00    0.46
  -5  -7   3    3.56    0.68
   5  -7  -3    4.02    0.54
  -5  -7   3    3.47    0.61
  -5   7  -3    3.53    0.46
  -5  -7   3    4.31    0.43
  -5   7  -3    3.48    0.52
   5  -7  -3    3.89    0.45
   7   7  -3    0.24    0.14
  -7  -7  -3    0.05    0.30
  -7  -7  -3    0.65    0.19
  -7  -7  -3    0.41    0.21
  -7   7   3    1.47    0.54
   7  -7   3    0.04    0.16
  -7   7  -3    0.63    0.26
  -7   7  -3    0.35    0.24
  -7  -7   3    0.29    0.17
   7  -7  -3    1.28    0.31
  -7  -7   3    0.27    0.46
  -9  -7  -3    3.86    0.48
  -9  -7  -3    2.69    0.38
   9  -7   3    2.67    0.46
   9   7  -3    2.58    0.35
  -9  -7   3    3.54    0.42
   9  -7  -3    3.75    0.53
   9   7   3    3.33    0.40
 -11  -7  -3    1.12    0.24
  11  -7   3    0.86    0.27
  11  -7  -3    0.67    0.27
 -11  -7   3    0.88    0.25
 -13  -7  -3    0.24    0.18
  13  -7   3    0.42    0.25
 -13  -7   3    0.42    0.20
  13  -7  -3    0.23    0.24
 -15  -7  -3    0.40    0.19
  15  -7   3    1.00    0.29
  15  -7  -3    0.51    0.29
 -15  -7   3    0.25    0.24
   0  -8  -3   13.37    1.12
   0  -8   3   14.92    1.06
   0  -8   3   12.93    1.18
   0  -8   3   13.38    1.08
   0   8  -3   12.24    1.25
   0  -8  -3   13.57    1.06
   0   8   3   11.86    1.08
   0   8   3   12.83    1.29
   2  -8   3   17.64    1.61
   2   8  -3   18.59    1.77
  -2   8   3   19.42    1.84
  -2  -8  -3   20.66    1.52
  -2   8   3   15.70    1.49
   2  -8   3   19.45    1.53
  -2  -8  -3   19.23    1.55
   2  -8   3   20.21    1.49
   2   8   3   19.45    1.80
   2  -8  -3   20.41    1.58
   2   8   3   19.09    1.52
  -2  -8   3   17.80    1.69
  -2  -8   3   20.72    1.54
  -2  -8   3   21.06    1.47
   2  -8  -3   19.66    1.46
  -2   8  -3   17.37    1.76
   4   8  -3    4.93    0.81
   4  -8   3    6.89    0.58
  -4   8   3    6.89    0.66
  -4   8   3    7.94    1.01
   4  -8   3    6.18    0.67
  -4  -8  -3    6.48    0.65
  -4  -8  -3    5.61    0.56
   4  -8  -3    5.77    0.67
   4   8   3    6.66    0.81
  -4  -8   3    5.85    0.57
  -4  -8   3    6.87    0.89
  -4  -8   3    6.53    0.54
   4   8   3    7.37    0.62
  -4   8  -3    5.37    0.75
  -4   8  -3    6.06    0.60
  -4  -8   3    6.56    0.55
   4  -8  -3    6.50    0.61
   6   8  -3   14.56    1.08
   6  -8   3   15.03    1.13
   6  -8   3   11.33    1.21
  -6  -8  -3   13.83    1.12
  -6  -8  -3   15.65    1.49
  -6  -8  -3   13.25    1.16
  -6   8   3   14.87    1.57
  -6  -8   3   12.96    1.53
   6  -8  -3   13.43    1.25
  -6   8  -3   13.51    1.34
   6  -8  -3   13.17    1.14
  -6   8  -3   12.84    1.14
  -6  -8   3   14.36    1.11
   8   8  -3    7.13    0.64
  -8  -8  -3    7.36    0.67
   8  -8   3    7.06    0.77
  -8  -8  -3    7.27    0.74
  -8   8  -3    6.85    0.83
  -8   8  -3    8.07    0.83
  -8  -8   3    7.66    0.69
   8  -8  -3    7.90    0.81
 -10  -8  -3    1.87    0.34
  10  -8   3    2.46    0.43
 -10  -8  -3    2.25    0.39
  10  -8  -3    2.53    0.45
 -10  -8   3    1.70    0.34
  12  -8   3    3.55    0.53
 -12  -8  -3    3.05    0.41
 -12  -8   3    2.75    0.43
  12  -8  -3    4.58    0.59
 -14  -8  -3    1.29    0.29
  14  -8   3    1.09    0.32
  14  -8  -3    1.64    0.39
 -14  -8   3    1.15    0.31
   1   9  -3   25.74    2.42
   1  -9   3   26.02    2.24
  -1   9   3   26.74    2.08
  -1   9   3   26.22    2.47
  -1  -9  -3   29.62    2.08
   1  -9   3   26.83    2.13
  -1  -9  -3   26.76    2.16
   1  -9   3   29.37    2.06
   1  -9  -3   28.68    2.18
   1  -9  -3   28.43    2.05
   1   9   3   30.10    2.47
  -1  -9   3   26.65    2.28
  -1  -9   3   27.48    2.13
   1   9   3   24.97    2.08
  -1  -9   3   28.48    2.05
  -1   9  -3   25.61    2.43
  -3  -9  -3   34.61    2.78
   3   9  -3   34.64    3.18
   3  -9   3   36.09    2.78
   3  -9   3   35.31    2.69
  -3   9   3   33.77    3.23
  -3  -9  -3   37.14    2.72
   3  -9   3   35.65    2.91
  -3  -9   3   36.29    2.78
   3   9   3   39.09    3.21
  -3  -9   3   31.96    3.01
   3   9   3   35.75    2.71
  -3   9  -3   34.28    3.16
   3  -9  -3   39.10    2.67
   3  -9  -3   38.58    2.84
  -3  -9   3   38.06    2.66
   5   9  -3   34.38    3.23
  -5  -9  -3   34.12    2.71
  -5   9   3   39.75    3.33
   5  -9   3   35.66    2.76
   5  -9   3   33.99    2.90
   5  -9  -3   37.87    2.79
  -5   9  -3   34.73    2.69
  -5  -9   3   31.89    2.77
  -5  -9   3   36.22    2.63
   5   9   3   37.61    2.70
   5  -9  -3   35.98    2.91
  -5   9  -3   36.54    3.15
   5   9   3   38.95    3.21
  -7   9   3    5.91    1.05
  -7  -9  -3    5.40    0.65
   7  -9   3    6.46    0.77
   7  -9  -3    5.67    0.73
   7  -9  -3    6.15    0.60
  -7   9  -3    5.50    0.76
  -7   9  -3    6.62    0.71
  -7  -9   3    6.35    0.61
   9  -9   3   25.10    2.14
  -9  -9  -3   26.34    1.98
  -9  -9  -3   23.50    1.91
  -9  -9   3   24.44    1.93
   9  -9  -3   25.93    2.14
 -11  -9  -3    8.02    0.75
  11  -9   3    8.80    0.90
 -11  -9   3    7.47    0.77
  11  -9  -3    9.13    0.92
  13  -9   3    3.53    0.52
 -13  -9  -3    3.52    0.45
 -13  -9   3    2.81    0.46
  13  -9  -3    4.04    0.57
   0  10  -3   35.93    3.22
   0 -10  -3   38.23    2.73
   0 -10  -3   36.03    2.88
   0  10   3   38.20    3.25
   0 -10   3   36.53    2.84
   0 -10   3   36.09    2.99
   0  10   3   37.49    2.76
   0 -10   3   36.56    2.72
   2 -10   3   42.20    3.18
  -2 -10  -3   42.86    3.08
  -2  10   3   38.49    3.64
  -2 -10  -3   39.07    3.20
   2  10  -3   37.56    3.58
   2 -10   3   42.50    3.07
   2 -10   3   40.76    3.32
   2  10   3   38.13    3.08
  -2 -10   3   42.99    3.19
  -2  10  -3   41.75    3.62
   2  10   3   45.86    3.64
  -2 -10   3   38.84    3.40
   2 -10  -3   42.99    3.05
  -2 -10   3   44.17    3.05
   2 -10  -3   42.84    3.23
   4 -10   3   15.33    1.32
   4 -10   3   15.54    1.21
  -4 -10  -3   14.88    1.22
  -4  10   3   14.38    1.55
  -4  10  -3   15.36    1.21
   4 -10  -3   15.07    1.24
  -4 -10   3   14.02    1.21
  -4 -10   3   15.05    1.15
   4  10   3   16.06    1.48
   4  10   3   14.65    1.21
  -4  10  -3   11.49    1.41
   6 -10   3   39.03    2.92
   6 -10   3   36.04    3.09
  -6 -10  -3   34.86    2.85
  -6  10  -3   37.66    2.87
  -6  10  -3   37.47    3.33
   6  10   3   37.62    2.84
   6 -10  -3   37.06    2.93
   6 -10  -3   43.12    3.11
  -8 -10  -3   20.22    1.63
   8 -10   3   18.60    1.77
   8 -10  -3   19.99    1.77
  -8  10  -3   21.55    1.70
  -8 -10   3   20.48    1.60
 -10 -10  -3    5.77    0.62
 -10 -10  -3    5.58    0.68
  10 -10   3    6.53    0.82
  10 -10  -3    8.55    0.81
 -10 -10   3    6.25    0.66
  12 -10   3   11.49    1.09
 -12 -10  -3   10.06    0.91
  12 -10  -3   12.30    1.12
 -12 -10   3    9.42    0.97
  -1  11   3    0.26    0.25
   1  11  -3    0.58    0.28
   1 -11   3    0.30    0.22
  -1 -11  -3    0.33    0.17
  -1 -11  -3    0.37    0.19
   1 -11   3    0.13    0.13
   1 -11   3    0.49    0.17
   1  11   3    0.34    0.21
  -1 -11   3    0.38    0.29
   1 -11  -3    0.34    0.15
   1 -11  -3    0.13    0.18
  -1  11  -3    0.47    0.29
   1  11   3    0.06    0.20
  -1 -11   3    0.46    0.16
  -1 -11   3    0.20    0.13
   3 -11   3    0.20    0.20
   3 -11   3    0.23    0.14
  -3  11   3    0.27    0.30
  -3 -11  -3    0.13    0.17
   3 -11   3    0.20    0.14
  -3 -11  -3    0.31    0.17
  -3  11  -3    0.43    0.29
  -3 -11   3    0.19    0.14
   3  11   3    0.09    0.16
  -3 -11   3    0.05    0.17
   3 -11  -3    0.44    0.16
   3  11   3    0.23    0.26
   3 -11  -3    0.26    0.20
  -5 -11  -3    0.06    0.17
   5 -11   3   -0.08    0.17
   5 -11   3    0.27    0.18
  -5 -11   3    0.06    0.14
   5  11   3    0.48    0.21
  -5  11  -3    0.39    0.27
  -5  11  -3    0.15    0.18
   7 -11   3    0.43    0.30
  -7 -11  -3    0.54    0.25
   7  11   3    0.26    0.20
   7 -11  -3    0.58    0.31
  -7  11  -3    0.51    0.26
  -9 -11  -3    0.26    0.24
   9 -11   3    0.49    0.32
   9  11   3    0.09    0.23
   9 -11  -3    0.26    0.28
  11 -11   3    0.09    0.27
  11  11   3   -0.18    0.24
  11 -11  -3    0.11    0.28
 -11 -11   3    0.18    0.29
  13 -11   3    0.03    0.30
 -13 -11   3    0.25    0.31
   0 -12  -3    6.31    0.58
   0 -12   3    6.42    0.58
   0 -12   3    5.51    0.74
   2 -12   3   10.63    0.90
  -2 -12  -3   10.16    0.96
  -2 -12  -3   10.13    0.91
   2 -12   3   11.70    1.06
   2 -12  -3   11.38    0.90
  -2  12  -3   10.72    1.14
  -2 -12   3   10.91    0.89
  -4 -12  -3    2.20    0.38
   4 -12   3    2.76    0.47
  -4 -12   3    2.78    0.35
   4  12   3    2.58    0.39
  -4  12  -3    2.62    0.41
   6 -12   3    8.62    0.88
  -6 -12  -3    7.58    0.76
   6  12   3    7.65    0.78
  -6  12  -3    8.71    0.81
   8 -12   3    4.05    0.66
  -8 -12  -3    3.67    0.51
  -8  12  -3    5.03    0.66
   8 -12  -3    5.10    0.67
   8  12   3    4.38    0.56
 -10 -12  -3    1.24    0.34
  10 -12   3    1.89    0.44
  10 -12  -3    2.41    0.52
  10  12   3    1.55    0.36
  12 -12   3    3.09    0.59
  12  12   3    3.84    0.58
  12 -12  -3    3.23    0.60
   1 -13   3   10.13    0.85
   1 -13   3    9.58    1.02
  -1 -13  -3   10.24    0.86
  -1 -13   3    9.47    0.83
   1 -13  -3    9.50    0.83
  -3 -13  -3   12.68    1.09
   3 -13   3   13.31    1.08
   3 -13   3   12.61    1.23
   3 -13  -3   13.74    1.06
  -3 -13   3   12.28    1.05
  -5 -13  -3   13.00    1.15
   5 -13   3   14.76    1.32
  -5 -13   3   13.31    1.10
   5  13   3   12.27    1.15
  -5  13  -3   15.61    1.19
  -7 -13  -3    2.15    0.38
   7 -13   3    1.94    0.47
  -7  13  -3    2.47    0.45
   7  13   3    2.02    0.39
   9 -13   3   11.57    1.18
  -9 -13  -3   10.96    1.01
   9  13   3   11.06    1.04
  11 -13   3    3.26    0.62
  11 -13  -3    4.19    0.70
  11  13   3    3.58    0.56
   0 -14  -3   12.35    1.00
   0 -14   3   11.41    0.99
  -2 -14  -3   11.72    1.00
   2 -14   3   11.25    1.16
   2 -14   3   11.75    0.97
  -2 -14   3   11.12    0.96
   2 -14  -3   12.09    0.98
  -4 -14  -3    5.26    0.60
   4 -14   3    5.32    0.71
  -4 -14   3    5.00    0.53
  -4  14  -3    5.19    0.65
  -6 -14  -3   11.44    0.98
   6 -14   3   10.71    1.12
  -6  14  -3   10.28    1.01
   8 -14   3    7.69    0.96
  -8 -14  -3    6.81    0.71
   8  14   3    6.14    0.73
 -10 -14  -3    1.87    0.41
  10 -14   3    3.28    0.62
  10 -14  -3    3.29    0.61
  10  14   3    2.38    0.47
   1 -15   3   -0.02    0.15
  -1 -15  -3    0.48    0.19
  -1 -15   3    0.16    0.17
   1 -15  -3    0.49    0.19
  -3 -15  -3   -0.04    0.18
  -3 -15   3   -0.05    0.14
   3 -15  -3    0.55    0.21
   5 -15   3    0.20    0.34
  -5 -15  -3    0.41    0.21
  -5 -15   3    0.29    0.21
  -5  15  -3    0.34    0.28
  -7 -15  -3    0.25    0.23
   7 -15   3    0.22    0.43
  -7  15  -3    0.12    0.37
   9 -15   3    0.04    0.37
  -9 -15  -3    0.03    0.28
   0 -16  -3    2.93    0.40
   0 -16   3    2.53    0.36
  -2 -16  -3    4.49    0.52
   2 -16   3    3.87    0.48
   2 -16  -3    4.20    0.50
  -2 -16   3    4.33    0.50
  -4 -16  -3    1.10    0.29
  -4  16  -3    1.40    0.35
  -4 -16   3    1.25    0.27
  -6 -16  -3    3.92    0.52
   6 -16   3    3.93    0.74
  -6  16  -3    4.53    0.63
  -1 -17  -3    4.11    0.50
   1 -17   3    3.87    0.46
   1 -17  -3    3.52    0.47
  -1 -17   3    3.36    0.45
  -3 -17  -3    4.75    0.58
  -3 -17   3    5.36    0.59
  -3  17  -3    4.95    0.63
  -5 -17  -3    4.89    0.56
  -5  17  -3    4.78    0.65
  -5 -17   3    4.28    0.54
   0 -18   3    3.47    0.47
   0 -18  -3    4.69    0.54
  -2 -18  -3    4.11    0.52
  -2 -18   3    3.72    0.49
  -2  18  -3    4.34    0.59
   2 -18  -3    4.29    0.52
   0   0  -4  808.66   68.25
   0   0   4  943.21   64.93
   0   0   4 1000.00   75.38
   2   0   4  267.70   19.10
  -2   0  -4  267.21   22.13
  -2   0   4  301.06   19.12
  -2   0  -4  294.15   20.12
  -2   0   4  232.54   22.10
   2   0  -4  249.26   20.13
  -4   0  -4  476.53   39.42
  -4   0   4  508.99   33.93
   4   0  -4  430.67   35.74
  -4   0   4  442.27   39.43
  -4   0  -4  535.90   35.70
  -6   0   4  104.53    7.44
   6   0  -4  110.33    8.13
  -6   0   4   97.85    8.72
   6   0  -4   95.10    7.88
  -6   0   4  102.89    7.42
   6   0   4  107.43    7.46
  -6   0  -4  105.12    8.69
  -8   0  -4  280.83   24.18
   8   0  -4  274.89   20.74
   8   0  -4  316.75   22.46
  -8   0   4  279.05   20.75
   8   0   4  315.71   20.81
  -8   0   4  297.94   24.27
  -8   0  -4  284.70   20.71
 -10   0   4   63.27    4.71
 -10   0  -4   66.17    5.60
  10   0  -4   64.58    5.13
  10   0   4   64.10    4.75
 -10   0   4   72.42    5.76
  10   0  -4   61.76    4.69
  12   0  -4  127.07    9.70
 -12   0   4  123.34    8.98
  14   0  -4   15.61    1.33
 -14   0   4   14.49    1.23
 -16   0   4   40.11    3.00
  -1   1   4   14.08    1.29
  -1   1   4   14.62    1.15
   1  -1   4   13.50    1.16
   1   1  -4   14.41    1.24
  -1  -1  -4   12.59    1.29
  -1  -1  -4   12.07    1.26
  -1  -1   4   16.64    1.20
   1   1   4   13.40    1.14
   1  -1  -4   11.27    1.28
  -1   1  -4   16.20    1.23
  -1   1  -4   16.84    1.13
  -3   1   4   34.59    3.27
  -3   1   4   44.48    2.81
  -3  -1  -4   39.02    3.28
   3  -1   4   32.45    2.81
  -3  -1  -4   33.45    3.00
   3   1  -4   37.16    3.01
  -3   1  -4   36.43    2.71
  -3  -1   4   39.21    3.25
  -3   1  -4   40.48    2.97
   3  -1  -4   34.13    3.06
  -3  -1   4   41.54    2.82
  -3   1  -4   42.59    3.25
   3   1   4   35.92    2.81
   5  -1   4   17.85    1.47
  -5   1   4   21.73    1.49
   5   1  -4   13.99    1.57
  -5   1   4   20.07    1.44
  -5   1   4   17.87    1.78
  -5  -1  -4   20.97    1.77
  -5  -1   4   18.63    1.67
   5   1   4   18.15    1.45
   5  -1  -4   16.94    1.62
  -5   1  -4   18.06    1.52
  -5  -1   4   17.57    1.76
  -5   1  -4   17.98    1.71
   5  -1  -4   18.67    1.68
  -5  -1   4   20.13    1.45
  -7  -1  -4    2.12    0.29
  -7   1   4    2.89    0.58
   7  -1   4    1.75    0.35
  -7   1   4    2.88    0.37
   7   1  -4    1.71    0.43
  -7  -1  -4    1.36    0.46
  -7  -1  -4    2.57    0.53
  -7   1  -4    1.88    0.42
  -7  -1   4    2.13    0.33
   7   1   4    1.99    0.34
  -7  -1   4    3.91    0.65
   7  -1  -4    2.38    0.47
  -7   1  -4    2.26    0.54
   7  -1  -4    3.48    0.33
  -9  -1  -4   13.45    1.09
  -9  -1  -4   14.54    1.47
   9   1  -4   14.27    1.30
  -9   1   4   15.15    1.15
   9   1  -4   13.24    1.10
  -9   1   4   14.91    1.61
  -9  -1  -4   10.29    1.28
   9  -1   4   14.51    1.18
  -9  -1   4   15.30    1.14
  -9  -1   4   16.59    1.62
   9  -1  -4   14.78    1.29
   9   1   4   13.75    1.14
  -9   1  -4   13.79    1.41
  -9   1  -4   10.54    1.29
   9  -1  -4   13.97    1.10
 -11  -1  -4    3.57    0.39
  11   1  -4    3.84    0.53
 -11   1   4    3.53    0.93
 -11   1   4    3.41    0.42
 -11  -1   4    3.63    0.43
  11  -1  -4    2.60    0.45
  13   1  -4    1.62    0.35
 -13   1   4    1.84    0.32
  13  -1  -4    3.42    0.44
 -13  -1   4    2.08    0.35
 -15   1   4    0.97    0.28
 -15  -1   4    1.06    0.27
  15  -1  -4    1.29    0.32
   0   2  -4  282.94   22.63
   0   2  -4  262.11   20.58
   0   2  -4  260.17   18.91
   0   2   4  310.10   19.58
   0  -2   4  264.29   19.61
  -2   2   4  303.84   18.41
   2   2  -4  251.78   17.78
  -2   2   4  252.55   21.40
   2  -2   4  262.94   18.44
  -2  -2  -4  224.01   19.39
  -2  -2  -4  239.21   21.35
   2   2  -4  264.93   19.36
   2  -2  -4  230.03   19.43
  -2   2  -4  262.98   17.77
  -2   2  -4  260.23   21.32
  -2   2  -4  269.90   19.33
  -2  -2   4  287.65   18.44
   2   2   4  257.46   18.40
  -4  -2  -4  236.60   19.23
  -4  -2  -4  203.92   17.34
  -4   2   4  234.49   16.49
   4   2  -4  218.41   17.37
   4  -2   4  258.16   16.56
   4   2   4  243.65   16.52
  -4   2  -4  238.44   17.32
  -4   2  -4  232.63   15.92
  -4   2  -4  225.61   19.17
  -4  -2   4  236.49   16.51
   4  -2  -4  228.29   17.44
  -6   2   4  197.19   14.14
   6   2  -4  178.93   14.92
  -6  -2  -4  229.22   14.16
  -6   2   4  206.31   14.21
   6  -2   4  217.64   14.23
  -6  -2  -4  204.99   16.56
  -6   2   4  180.09   16.57
  -6  -2   4  190.25   16.56
   6   2   4  194.38   14.18
  -6  -2   4  197.23   14.17
  -6  -2   4  182.37   15.32
  -6   2  -4  208.84   14.37
  -6  -2   4  192.34   14.16
   6  -2  -4  203.58   14.91
  -6   2  -4  190.82   16.48
   6  -2  -4  210.13   15.36
   8  -2   4  163.57   12.09
  -8   2   4  159.58   11.26
   8  -2   4  172.27   11.31
  -8  -2  -4  147.79   11.38
  -8   2   4  150.59   13.24
  -8  -2  -4  166.61   13.21
   8   2  -4  163.37   12.22
  -8  -2  -4  153.75   11.21
   8   2  -4  142.83   11.22
  -8   2  -4  159.66   13.11
  -8   2  -4  158.15   11.47
   8  -2  -4  160.62   12.18
  -8  -2   4  165.18   13.25
   8  -2  -4  148.66   11.21
  -8  -2   4  155.67   11.24
   8   2   4  155.43   11.25
 -10   2   4  130.08   10.35
 -10  -2  -4  126.16    8.80
 -10  -2  -4  126.05   10.26
  10   2  -4  108.89    8.66
  10   2  -4  121.89    9.41
 -10   2   4  121.39    8.69
  10  -2   4  130.37    8.75
 -10  -2  -4  115.43    8.64
  10  -2  -4  123.63    9.39
  10   2   4  118.00    8.70
  10  -2  -4  114.47    8.65
 -10   2  -4  131.56   10.18
 -10  -2   4  113.11    8.67
 -12   2   4   81.71    5.89
  12   2  -4   81.03    6.36
 -12  -2  -4   80.05    5.85
 -12  -2   4   78.26    5.88
  12  -2  -4   85.55    6.37
 -14   2   4   55.61    4.07
  14  -2  -4   58.13    4.40
 -14  -2   4   52.45    4.06
 -16   2   4   37.35    2.95
  16  -2  -4   41.91    3.20
   1  -3   4    5.86    0.64
   1   3  -4    5.54    0.59
  -1   3   4    5.80    0.69
  -1   3   4    6.57    0.58
  -1  -3  -4    8.33    0.76
   1   3   4    6.32    0.68
  -1   3  -4    6.35    0.61
   1  -3  -4    5.81    0.77
  -1   3  -4    7.51    0.57
  -1   3  -4    7.93    0.62
  -1  -3   4    6.58    0.64
   1   3   4    4.80    0.56
  -3   3   4   83.08    5.68
  -3  -3  -4   80.91    6.01
   3  -3   4   73.78    5.73
  -3   3   4   70.48    6.70
  -3  -3  -4   66.78    6.62
   3   3  -4   77.08    6.00
   3   3  -4   78.69    5.51
   3   3   4   73.38    5.69
  -3   3  -4   84.44    5.49
   3  -3  -4   84.20    6.08
  -3  -3   4   89.65    6.63
  -3   3  -4   83.35    5.97
  -3   3  -4   79.21    6.59
  -5   3   4    1.72    0.32
   5  -3   4    0.48    0.24
   5   3  -4    0.73    0.26
  -5  -3  -4    0.74    0.20
  -5   3   4    1.09    0.42
  -5  -3  -4    0.95    0.34
  -5  -3  -4    0.54    0.32
  -5   3   4    0.71    0.19
   5   3   4    0.28    0.18
  -5   3  -4    0.95    0.19
  -5  -3   4    0.75    0.22
  -5  -3   4    0.46    0.18
  -5  -3   4    1.04    0.41
  -5   3  -4    0.70    0.30
   5  -3  -4    1.60    0.38
  -5   3  -4    0.91    0.20
  -5  -3   4    0.92    0.37
   5  -3  -4    0.62    0.25
  -7  -3  -4   24.15    2.33
  -7   3   4   25.65    1.93
  -7   3   4   23.06    2.38
  -7  -3  -4   24.81    1.99
  -7  -3  -4   24.72    1.87
   7  -3   4   24.76    1.95
   7  -3   4   25.74    2.03
  -7  -3   4   25.19    2.15
  -7  -3   4   26.71    1.90
   7  -3  -4   23.28    1.85
  -7   3  -4   25.42    2.24
   7   3   4   23.37    1.88
  -7   3  -4   28.89    2.11
  -7  -3   4   25.56    2.40
   7  -3  -4   24.18    2.10
   9   3  -4    1.33    0.24
  -9  -3  -4    1.63    0.37
   9   3  -4    1.12    0.35
  -9   3   4    1.42    0.27
   9  -3   4    1.10    0.33
  -9  -3  -4    0.72    0.19
   9  -3   4    1.30    0.27
  -9   3   4    1.07    0.59
  -9  -3  -4    1.33    0.47
   9  -3  -4    1.01    0.31
   9   3   4    1.06    0.24
  -9  -3   4    1.36    0.25
  -9   3  -4    1.09    0.47
  -9   3  -4    0.99    0.34
   9  -3  -4    0.77    0.22
  11   3  -4   15.22    1.34
 -11  -3  -4   13.76    1.16
 -11   3   4   14.33    1.20
  11  -3  -4   16.92    1.35
 -11  -3   4   14.24    1.19
 -13  -3  -4    0.27    0.17
 -13   3   4    0.46    0.19
  13  -3  -4    0.25    0.24
 -13  -3   4    0.07    0.18
 -15   3   4    2.69    0.39
 -15  -3   4    2.27    0.36
  15  -3  -4    1.92    0.39
   0   4  -4   88.69    5.93
   0   4   4   83.92    7.13
   0   4  -4   86.79    6.45
   0  -4   4   78.65    6.19
   0   4   4   85.20    6.11
   0  -4  -4   85.49    6.51
  -2   4   4  458.73   39.66
  -2   4   4  533.85   34.08
   2   4  -4  462.30   32.95
  -2  -4  -4  424.93   39.64
   2   4  -4  465.12   35.85
   2   4  -4  472.86   39.58
   2  -4   4  485.71   34.16
  -2  -4  -4  530.84   35.88
  -2   4  -4  446.81   39.56
   2  -4  -4  511.15   35.92
   2   4   4  463.23   34.09
  -2  -4   4  524.18   34.13
  -4   4   4  134.18   10.04
   4   4  -4  139.15   10.47
   4   4  -4  136.41    9.62
  -4   4   4  130.62   11.70
  -4  -4  -4  144.54   10.07
  -4  -4  -4  132.18   10.43
   4  -4   4  136.64   10.01
  -4  -4  -4  141.50   11.62
   4  -4   4  154.98   10.75
  -4   4   4  142.10    9.92
  -4   4  -4  149.77   10.05
  -4   4  -4  142.82   11.56
   4  -4  -4  138.90   10.50
  -4  -4   4  116.19   10.78
  -4  -4   4  127.46    9.94
   4   4   4  142.87    9.96
  -4  -4   4  156.62   11.63
  -6  -4  -4  418.27   33.62
  -6  -4  -4  462.82   28.87
   6  -4   4  464.93   28.96
  -6   4   4  395.46   28.91
   6  -4   4  441.48   31.09
  -6  -4  -4  425.31   29.04
  -6   4   4  395.44   33.68
  -6  -4   4  346.43   31.12
   6   4   4  383.57   28.86
  -6  -4   4  377.56   28.85
   6  -4  -4  418.89   30.32
   6  -4  -4  369.33   28.83
   6  -4  -4  428.47   31.15
  -6  -4   4  363.51   28.84
  -6   4  -4  420.32   33.54
   8  -4   4   72.51    4.92
  -8   4   4   71.98    4.86
   8   4  -4   59.10    4.80
  -8  -4  -4   68.04    5.74
  -8   4   4   64.20    5.82
  -8  -4  -4   64.74    4.80
  -8  -4  -4   68.66    4.91
   8  -4   4   66.12    5.19
   8  -4  -4   63.97    5.24
  -8   4  -4   69.57    5.65
   8   4   4   62.04    4.81
  -8  -4   4   68.81    4.83
  10   4  -4  178.58   13.59
 -10   4   4  177.15   12.56
  10  -4   4  174.99   13.52
 -10  -4  -4  167.40   12.52
 -10  -4  -4  183.15   12.64
  10  -4   4  188.14   12.65
 -10   4   4  169.49   14.82
 -10  -4   4  159.77   12.53
  10  -4  -4  185.02   13.57
 -12   4   4   34.53    2.46
 -12  -4  -4   32.77    2.42
  12  -4  -4   33.82    2.68
 -12  -4   4   29.11    2.44
 -14  -4  -4   87.42    6.39
 -14   4   4   90.48    6.43
 -14  -4   4   76.12    6.40
  14  -4  -4  102.41    6.97
  -1   5   4   10.83    0.80
  -1  -5  -4   10.82    0.91
   1  -5   4    8.32    0.88
   1  -5   4   11.64    0.86
  -1   5   4    9.67    1.00
   1   5  -4    9.35    0.92
  -1   5  -4    8.67    0.92
   1  -5  -4   10.67    0.92
   1   5   4    9.82    0.99
  -1  -5   4   11.06    0.87
   1   5   4    9.20    0.80
  -3  -5  -4   48.62    3.96
   3  -5   4   55.93    3.97
   3   5  -4   57.54    3.67
  -3   5   4   52.37    4.52
  -3  -5  -4   49.28    4.48
   3   5  -4   57.54    4.00
  -3  -5  -4   50.66    3.85
   3  -5   4   43.70    3.83
   3  -5   4   53.39    4.10
  -3   5  -4   47.93    4.37
   3   5   4   53.34    3.78
  -3  -5   4   51.50    3.78
  -3   5  -4   53.20    3.83
   3   5   4   54.70    3.83
   3  -5  -4   50.07    4.01
  -5  -5  -4    1.68    0.37
  -5   5   4    1.45    0.51
   5  -5   4    1.25    0.34
   5   5  -4    1.83    0.33
  -5  -5  -4    1.89    0.44
   5  -5   4    2.69    0.31
   5  -5   4    2.10    0.35
  -5  -5  -4    2.12    0.32
   5   5  -4    1.69    0.29
  -5   5   4    2.38    0.42
   5  -5  -4    1.99    0.41
  -5  -5   4    1.80    0.28
  -5  -5   4    2.64    0.34
  -5  -5   4    2.75    0.50
  -5  -5   4    2.31    0.48
  -5   5  -4    2.21    0.36
   5  -5  -4    2.11    0.34
  -5   5  -4    2.65    0.39
   5   5   4    1.96    0.29
  -7  -5  -4   22.59    2.01
  -7   5   4   21.86    2.10
  -7  -5  -4   21.63    1.62
  -7  -5  -4   20.11    1.70
   7  -5   4   20.05    1.71
   7   5  -4   19.24    1.60
   7  -5   4   20.31    1.76
  -7   5   4   23.11    1.69
   7  -5  -4   20.28    1.80
  -7  -5   4   22.08    1.64
  -7  -5   4   19.69    1.86
  -7   5  -4   25.73    1.78
  -7   5  -4   21.76    1.92
   7   5   4   19.86    1.61
  -9  -5  -4    1.21    0.25
  -9   5   4    2.64    0.36
   9   5  -4    1.95    0.44
   9   5  -4    1.37    0.26
  -9  -5  -4    1.55    0.35
   9  -5   4    1.55    0.43
  -9  -5  -4    2.00    0.49
   9  -5   4    1.77    0.32
  -9   5   4    1.54    0.65
  -9  -5   4    1.63    0.29
   9  -5  -4    1.99    0.37
   9   5   4    2.08    0.31
  -9   5  -4    2.16    0.53
  -9   5  -4    1.14    0.33
 -11  -5  -4   10.50    0.92
  11  -5   4   10.73    1.04
 -11   5   4   12.40    0.99
  11  -5  -4   11.91    1.09
 -11  -5   4   11.08    0.96
 -13  -5  -4    0.29    0.17
 -13  -5   4    0.14    0.20
  13  -5  -4    0.39    0.25
 -15  -5  -4    1.86    0.31
  15  -5  -4    2.68    0.43
 -15  -5   4    2.14    0.35
   0  -6  -4  175.65   12.29
   0  -6   4  170.70   11.69
   0  -6   4  169.00   12.58
   0   6   4  182.04   13.58
   0   6   4  165.62   11.70
   0  -6   4  149.77   12.23
   0   6  -4  138.23   13.50
   0  -6   4  161.26   11.69
  -2   6   4  154.04   12.14
   2  -6   4  187.20   13.08
  -2  -6  -4  156.70   12.19
  -2   6   4  176.01   14.16
  -2  -6  -4  176.88   12.75
   2   6  -4  166.16   14.07
   2  -6   4  169.59   12.72
   2  -6   4  170.64   12.18
   2   6   4  175.01   12.17
  -2   6  -4  173.09   12.17
  -2  -6   4  172.62   12.10
  -2   6  -4  154.14   14.05
   2   6   4  190.46   14.14
  -2  -6   4  154.46   13.11
   2  -6  -4  175.75   12.77
  -4   6   4  174.60   14.46
  -4   6   4  158.96   12.39
   4   6  -4  183.79   11.92
   4  -6   4  186.55   13.30
   4  -6   4  166.83   12.38
  -4  -6  -4  184.38   14.43
   4   6  -4  185.13   12.96
  -4  -6  -4  171.00   12.42
   4  -6   4  174.76   12.92
  -4  -6  -4  165.41   12.91
   4   6   4  188.46   12.38
  -4   6  -4  168.37   14.30
   4  -6  -4  170.87   12.96
   4  -6  -4  180.90   13.30
  -4   6  -4  177.39   12.40
  -4  -6   4  159.15   12.29
  -4  -6   4  164.88   13.35
   4   6   4  179.56   12.31
  -4  -6   4  145.47   14.35
   6  -6   4  171.12   12.94
   6  -6   4  164.39   12.06
  -6  -6  -4  166.41   12.09
  -6  -6  -4  178.69   14.04
  -6  -6  -4  180.20   12.00
  -6   6   4  173.32   12.06
  -6   6   4  170.12   14.12
   6  -6  -4  160.57   12.58
   6  -6  -4  166.81   12.95
  -6  -6   4  167.88   11.99
  -6   6  -4  185.45   12.11
  -6  -6   4  151.47   11.95
  -6   6  -4  162.49   13.93
   6   6   4  159.32   11.97
   8  -6   4  131.63   10.10
  -8   6   4  144.57   11.11
  -8  -6  -4  130.51    9.34
  -8   6   4  134.37    9.39
  -8  -6  -4  131.45   10.98
  -8  -6  -4  136.16    9.45
   8  -6  -4  129.78   10.12
   8   6   4  117.46    9.33
  -8  -6   4  124.57   10.13
  -8  -6   4  128.32    9.36
  -8   6  -4  131.33   10.89
  10  -6   4  102.16    8.18
 -10  -6  -4  107.63    7.64
 -10   6   4  108.74    7.59
 -10  -6  -4   96.59    7.54
  10  -6  -4  112.06    8.22
  12  -6   4   70.86    5.53
 -12  -6  -4   64.60    5.08
 -12  -6   4   65.77    5.11
  12  -6  -4   81.80    5.59
 -14  -6  -4   51.73    3.88
 -14  -6   4   47.52    3.90
  14  -6  -4   61.26    4.28
   1  -7   4   11.29    0.99
   1  -7   4   11.50    0.94
   1  -7   4   10.20    1.02
   1  -7   4   13.10    0.96
  -1  -7  -4   10.76    0.95
  -1   7   4   11.42    1.14
   1   7  -4   10.56    1.06
  -1   7   4   10.05    0.93
  -1  -7  -4   11.27    0.99
   1  -7  -4   12.00    0.92
  -1  -7   4   12.15    0.95
   1   7   4    9.74    0.96
   1   7   4   11.83    1.12
  -1  -7   4    9.11    1.05
   1  -7  -4   12.73    1.02
  -1   7  -4    9.45    1.05
  -1  -7   4   12.61    0.93
  -1  -7   4   10.89    0.91
  -3   7   4   37.25    3.08
  -3   7   4   28.89    2.56
  -3  -7  -4   32.24    2.59
   3  -7   4   32.05    2.75
   3  -7   4   36.04    2.64
  -3  -7  -4   33.75    2.65
  -3   7  -4   35.09    2.57
   3   7   4   35.50    3.02
  -3  -7   4   28.97    2.82
   3   7   4   36.97    2.60
  -3  -7   4   34.30    2.51
  -3  -7   4   37.86    2.52
   3  -7  -4   34.62    2.69
   3  -7  -4   33.61    2.74
  -3   7  -4   32.38    2.94
  -5   7   4   13.99    1.19
   5  -7   4   12.99    1.20
  -5  -7  -4   13.79    1.39
   5  -7   4   14.57    1.11
   5   7  -4   14.71    1.07
  -5  -7  -4   13.87    1.16
   5   7  -4   14.59    1.17
  -5   7   4   12.21    1.46
   5  -7  -4   13.19    1.14
   5   7   4   13.49    1.13
  -5  -7   4   15.55    1.10
  -5   7  -4   12.23    1.26
  -5  -7   4   13.25    1.06
  -5  -7   4   10.07    1.28
  -5   7  -4   12.82    1.13
   5  -7  -4   13.74    1.23
  -7   7   4    5.51    0.61
   7  -7   4    4.31    0.58
  -7  -7  -4    4.63    0.49
  -7  -7  -4    4.81    0.59
  -7   7   4    6.73    0.95
  -7  -7  -4    4.71    0.76
   7   7  -4    3.93    0.46
  -7   7  -4    4.88    0.63
  -7  -7   4    5.39    0.51
  -7  -7   4    5.12    0.72
  -7   7  -4    5.54    0.63
   7  -7  -4    4.51    0.49
   7  -7  -4    5.67    0.66
   9  -7   4   12.04    1.15
  -9  -7  -4   11.38    1.01
  -9  -7  -4   12.61    1.10
  -9  -7   4   12.51    1.05
  -9   7  -4   15.16    1.27
   9  -7  -4   12.39    1.18
 -11  -7  -4    4.41    0.51
  11  -7   4    5.76    0.69
  11  -7  -4    5.99    0.73
 -11  -7   4    5.68    0.58
 -13  -7  -4    1.94    0.32
  13  -7   4    1.61    0.37
  13  -7  -4    2.17    0.43
 -13  -7   4    2.03    0.36
   0  -8  -4  453.22   33.02
   0  -8  -4  482.35   34.64
   0   8   4  513.30   32.95
   0  -8   4  403.21   34.56
   0  -8   4  547.34   35.49
   0   8  -4  406.55   38.21
   0  -8   4  451.25   33.01
  -2   8   4  133.00   10.05
   2  -8   4  120.74    9.25
  -2   8   4  120.51    8.58
  -2  -8  -4  117.20    8.63
   2  -8   4  110.87    8.96
  -2  -8  -4  121.85    9.00
   2   8   4  136.61   10.01
  -2  -8   4  111.29    9.29
  -2  -8   4  121.71    8.56
   2  -8  -4  117.03    9.02
  -2   8  -4  105.79    9.93
   2  -8  -4  125.43    8.57
   2   8   4  119.11    8.61
  -2  -8   4  116.12    8.97
  -4   8   4  280.60   22.91
  -4  -8  -4  311.67   23.00
  -4  -8  -4  297.25   24.01
  -4   8   4  332.30   26.72
   4  -8   4  362.40   24.67
   4   8  -4  353.64   22.12
   4  -8   4  282.05   24.00
   4   8  -4  350.22   24.06
   4  -8  -4  318.88   24.06
  -4  -8   4  300.09   22.81
  -4   8  -4  322.01   22.99
  -4   8  -4  293.14   26.57
   4  -8  -4  350.13   24.65
  -4  -8   4  291.80   22.89
  -4  -8   4  337.47   24.74
   4   8   4  356.91   26.66
   4   8   4  350.61   22.94
   6   8  -4   44.09    3.65
   6  -8   4   50.32    4.03
  -6   8   4   51.09    4.50
  -6  -8  -4   51.91    3.78
  -6  -8  -4   59.73    4.48
  -6   8   4   58.42    3.79
  -6   8  -4   49.89    3.75
   6  -8  -4   51.06    4.03
  -6  -8   4   53.96    3.72
   6   8   4   54.83    3.76
   6  -8  -4   48.72    3.86
  -6   8  -4   43.81    4.28
  -6  -8   4   43.48    4.07
  -8  -8  -4  226.61   15.82
  -8  -8  -4  225.02   15.70
   8  -8   4  227.28   16.97
   8  -8  -4  224.66   16.97
  -8   8  -4  223.24   18.27
  -8  -8   4  197.36   15.69
 -10  -8  -4   39.09    2.76
 -10  -8  -4   33.50    2.67
  10  -8   4   34.57    2.95
  10  -8  -4   39.46    2.98
 -10  -8   4   33.85    2.69
 -12  -8  -4   93.65    6.49
  12  -8   4   92.13    7.05
 -12  -8   4   83.82    6.50
  14  -8   4   11.80    1.05
 -14  -8  -4    9.69    0.90
  14  -8  -4   13.51    1.12
 -14  -8   4    9.21    0.96
  -1  -9  -4   10.45    0.85
  -1  -9  -4    9.42    0.87
  -1   9   4   10.10    1.01
   1  -9   4   12.06    0.85
   1  -9   4    9.65    0.83
  -1   9   4    9.12    0.82
   1  -9   4    8.69    0.92
  -1  -9   4   10.38    0.82
   1   9   4    8.28    0.85
   1   9   4    9.80    0.99
  -1  -9   4    8.50    0.95
  -1  -9   4    9.31    0.83
   1  -9  -4    9.91    0.82
   1  -9  -4    9.85    0.89
  -3  -9  -4    8.99    0.84
  -3   9   4   10.49    1.07
  -3   9   4    8.73    0.82
   3  -9   4    9.18    0.79
  -3  -9  -4    8.80    0.81
   3  -9   4    9.13    0.89
  -3   9  -4    9.07    0.81
   3   9   4    9.54    0.84
   3   9   4   10.06    1.00
  -3  -9   4    9.30    0.81
  -3   9  -4    8.90    0.95
  -3  -9   4    8.59    1.02
  -3  -9   4    9.72    0.77
   3  -9  -4    9.29    0.85
   5   9  -4   14.58    1.06
   5  -9   4   13.50    1.20
   5  -9   4   13.86    1.10
  -5   9   4   13.75    1.46
  -5  -9  -4   13.13    1.15
   5   9  -4   15.04    1.15
   5  -9  -4   12.34    1.12
  -5   9  -4   11.03    1.25
   5   9   4   12.19    1.10
   5  -9  -4   12.76    1.21
   5   9   4   13.69    1.34
  -5   9  -4   13.22    1.11
  -5  -9   4   11.92    1.32
  -7  -9  -4    1.24    0.31
   7  -9   4    1.53    0.34
   7  -9  -4    1.58    0.36
   7  -9  -4    1.05    0.24
  -7   9  -4    1.66    0.34
   7   9   4    1.15    0.27
  -7   9  -4    1.23    0.33
   9  -9   4    8.70    0.99
  -9  -9  -4   10.53    0.95
  -9  -9   4    8.78    0.87
   9  -9  -4   10.02    1.02
  -9   9  -4   12.97    1.08
  11  -9   4    1.46    0.36
  11  -9  -4    1.80    0.43
 -11  -9   4    1.11    0.30
  13  -9   4    1.51    0.37
  13  -9  -4    2.82    0.52
 -13  -9   4    1.92    0.41
   0 -10   4  156.16   12.05
   0 -10   4  146.79   11.17
   0  10   4  158.92   11.17
   0 -10   4  140.74   11.68
   0  10   4  181.45   13.03
   0 -10  -4  153.30   11.19
   0 -10  -4  158.85   11.75
  -2 -10  -4  104.04    7.93
   2 -10   4   96.33    7.90
   2 -10   4  102.00    7.58
  -2  10   4  122.69    8.89
   2 -10   4  112.62    8.18
  -2  10   4  104.35    7.55
  -2 -10  -4  107.66    7.61
   2 -10  -4  112.20    7.56
  -2 -10   4   96.62    8.22
  -2 -10   4  102.16    7.91
   2  10   4   99.07    7.59
   2 -10  -4  104.64    7.96
  -2 -10   4  104.72    7.55
   4 -10   4  111.02    9.11
  -4  10   4  128.82   10.26
  -4 -10  -4  113.52    8.77
   4 -10   4  132.43    9.43
  -4 -10   4  115.48    8.69
   4  10   4  131.49   10.18
   4 -10  -4  122.10    9.16
   4  10   4  120.89    8.75
  -4  10  -4  120.28    8.76
   6 -10   4   84.11    6.51
  -6 -10  -4   85.28    6.06
   6 -10  -4   90.32    6.51
   6  10   4   79.15    6.02
  -6  10  -4   81.46    6.04
  -6  10  -4   76.59    6.97
  -8 -10  -4  100.70    7.49
   8 -10   4   95.51    8.05
   8 -10  -4  106.95    8.06
  -8  10  -4  113.35    7.55
   8  10   4   99.20    7.48
  10 -10   4   61.10    5.07
 -10 -10  -4   64.38    4.70
  10 -10  -4   69.64    5.09
  10  10   4   69.29    4.74
 -10 -10   4   54.66    4.63
  12 -10  -4   70.26    5.32
  12  10   4   62.74    4.93
  -1  11   4    9.15    0.78
   1 -11   4    7.95    0.74
   1 -11   4    7.69    0.86
  -1  11   4    9.07    0.96
  -1 -11  -4    8.41    0.77
  -1 -11  -4    8.17    0.79
   1 -11   4    7.76    0.75
   1 -11  -4    9.64    0.76
   1  11   4    8.63    0.92
  -1 -11   4    8.68    0.76
   1  11   4    7.70    0.76
  -1 -11   4    7.86    0.90
  -1 -11   4    8.92    0.73
   1 -11  -4    8.87    0.81
   3 -11   4   36.59    2.95
  -3  11   4   41.54    3.29
  -3 -11  -4   36.58    2.75
  -3 -11  -4   33.39    2.81
   3 -11   4   34.79    2.80
   3  11   4   34.58    2.74
  -3 -11   4   35.64    2.81
  -3 -11   4   36.31    2.67
  -3  11  -4   38.87    2.75
   5 -11   4    4.32    0.57
  -5 -11  -4    4.34    0.54
   5  11   4    3.07    0.47
  -5  11  -4    3.49    0.49
  -5 -11   4    3.42    0.43
  -7 -11  -4   16.55    1.43
   7 -11   4   15.55    1.54
   7 -11  -4   18.98    1.58
  -7  11  -4   17.35    1.43
   7  11   4   17.19    1.43
  -9 -11  -4    3.45    0.51
   9 -11   4    2.76    0.54
  -9  11  -4    5.17    0.70
   9  11   4    3.41    0.53
   9 -11  -4    3.40    0.59
  11 -11   4   11.23    1.23
  11  11   4   13.10    1.19
  11 -11  -4   14.17    1.29
   0 -12   4   22.67    2.02
   0 -12   4   23.12    1.79
   0 -12  -4   24.03    1.81
  -2 -12  -4  180.15   13.20
   2 -12   4  201.48   14.21
   2 -12   4  168.69   13.17
   2  12   4  183.52   13.16
   2 -12  -4  197.61   13.18
  -2 -12   4  174.59   13.15
   4 -12   4   42.89    3.11
  -4 -12  -4   35.23    2.84
   4  12   4   34.89    2.84
  -4 -12   4   37.41    2.78
  -4  12  -4   38.15    2.85
   6 -12   4  184.74   13.23
  -6 -12  -4  165.76   12.28
  -6  12  -4  169.49   12.30
   6  12   4  163.82   12.25
  -8 -12  -4   23.64    1.99
   8 -12   4   23.51    2.18
  -8  12  -4   27.73    2.06
   8  12   4   23.97    2.00
   8 -12  -4   28.01    2.22
 -10 -12  -4   93.02    6.93
  10 -12   4   88.48    7.49
  10  12   4   89.98    6.96
  10 -12  -4  110.40    7.54
  12 -12  -4   19.57    1.83
  -1 -13  -4    2.63    0.35
   1 -13   4    2.00    0.31
   1 -13   4    2.17    0.46
   1 -13  -4    1.73    0.31
  -1 -13   4    1.51    0.27
   3 -13   4    4.42    0.65
  -3 -13  -4    5.49    0.59
   3  13   4    3.92    0.54
  -3 -13   4    4.91    0.50
  -3  13  -4    5.59    0.62
   5 -13   4    0.96    0.34
  -5 -13  -4    0.47    0.26
  -5 -13   4    0.71    0.21
  -5  13  -4    0.64    0.26
   5  13   4    0.91    0.29
  -7 -13  -4    3.52    0.52
   7 -13   4    3.22    0.59
  -7  13  -4    3.58    0.53
   7  13   4    4.18    0.56
   9 -13   4    0.71    0.38
  -9 -13  -4    0.40    0.27
   9  13   4    0.79    0.33
  11 -13   4    2.33    0.56
  11 -13  -4    3.66    0.67
  11  13   4    2.26    0.48
   0 -14   4   26.00    2.08
   0 -14  -4   28.98    2.12
   2 -14   4   64.46    5.32
  -2 -14  -4   67.53    4.90
   2 -14  -4   72.39    4.89
  -2 -14   4   62.64    4.86
  -4 -14  -4   32.08    2.60
   4 -14   4   37.12    2.88
  -4  14  -4   34.97    2.64
  -4 -14   4   33.52    2.56
   6 -14   4   73.92    5.61
  -6 -14  -4   70.62    5.16
   6  14   4   62.59    5.14
  -6  14  -4   74.12    5.20
  -8 -14  -4   30.39    2.56
   8 -14   4   32.20    2.84
  -8  14  -4   41.85    2.70
   8  14   4   31.62    2.60
 -10 -14  -4   50.77    3.84
  10 -14   4   52.69    4.25
  -1 -15  -4    8.34    0.77
   1 -15   4    7.86    0.75
   1 -15  -4    8.62    0.76
  -1 -15   4    7.72    0.74
  -3 -15  -4   12.99    1.14
   3 -15   4   13.97    1.36
  -3  15  -4   13.54    1.18
  -3 -15   4   13.38    1.11
  -5 -15  -4    7.38    0.77
   5 -15   4    7.19    0.97
  -5  15  -4    8.44    0.79
  -5 -15   4    7.39    0.73
   7 -15   4    5.42    0.82
  -7 -15  -4    4.84    0.61
  -7  15  -4    5.52    0.71
   0 -16  -4  119.83    8.06
   0 -16   4  103.10    8.02
  -2 -16  -4   26.38    2.04
   2 -16  -4   30.06    2.05
  -2 -16   4   23.02    1.99
  -2  16  -4   25.53    2.07
  -4 -16  -4   85.54    6.17
   4 -16   4   91.34    6.75
  -4  16  -4   83.70    6.20
  -4 -16   4   79.12    6.13
  -6 -16  -4   14.93    1.29
   6 -16   4   15.12    1.55
  -6  16  -4   17.00    1.40
  -1 -17  -4    0.36    0.24
  -1 -17   4    0.46    0.23
   1 -17  -4    0.65    0.26
  -3 -17  -4    0.29    0.24
  -3 -17   4    0.47    0.26
  -3  17  -4    0.29    0.26
  -5 -17  -4    1.36    0.34
  -5  17  -4    1.84    0.43
   0   0   5    0.06    0.08
   0   0  -5    0.14    0.25
   0   0   5   -0.06    0.14
   2   0   5    0.17    0.19
  -2   0   5    0.24    0.15
  -2   0  -5    0.08    0.26
  -2   0  -5    0.05    0.16
   2   0  -5    0.32    0.27
  -2   0   5    0.60    0.21
  -4   0  -5    0.18    0.27
   4   0   5    0.33    0.18
  -4   0   5    0.19    0.17
   4   0  -5    0.09    0.29
  -4   0  -5    0.21    0.21
  -4   0   5    0.19    0.22
  -6   0  -5   -0.16    0.31
  -6   0  -5    0.64    0.29
   6   0   5    0.32    0.21
  -6   0   5    0.05    0.16
  -6   0   5    0.41    0.30
  -6   0   5    0.48    0.21
   6   0  -5    0.10    0.29
   6   0  -5    0.14    0.31
   8   0   5    0.15    0.20
  -8   0  -5    0.98    0.41
  -8   0  -5    0.37    0.30
   8   0  -5    0.00    0.28
   8   0  -5    0.52    0.18
  -8   0   5    0.29    0.18
 -10   0  -5   -0.17    0.37
 -10   0  -5   -0.11    0.30
  10   0  -5    0.02    0.19
 -10   0   5    0.02    0.15
  10   0  -5    0.04    0.22
  12   0  -5    0.32    0.26
 -12   0   5    0.17    0.19
  14   0  -5    0.20    0.22
 -14   0   5    0.18    0.21
   1   1  -5   66.06    4.98
  -1   1   5   62.01    4.69
  -1   1   5   70.11    5.39
  -1  -1  -5   61.84    5.02
  -1  -1  -5   65.05    5.38
   1  -1  -5   54.37    5.01
   1   1   5   61.94    4.68
  -1   1  -5   72.20    5.35
  -1   1  -5   60.58    4.96
  -3  -1  -5   85.52    6.46
   3   1  -5   66.07    5.89
  -3  -1  -5   63.32    5.90
  -3   1   5   84.86    5.59
  -3   1   5   85.45    6.47
   3  -1   5   74.83    5.59
  -3  -1   5   85.43    5.61
  -3   1  -5   73.98    5.87
   3  -1  -5   65.94    5.95
  -3   1  -5   84.70    6.43
   3   1   5   71.89    5.58
  -5  -1  -5   76.67    6.36
   5  -1   5   76.48    5.48
  -5   1   5   76.08    5.43
  -5   1   5   81.79    6.39
  -5   1   5   79.53    5.51
   5   1  -5   66.80    5.78
  -5  -1   5   74.79    5.44
   5   1   5   76.38    5.47
  -5   1  -5   79.06    5.60
  -5   1  -5   74.65    6.32
   5  -1  -5   74.11    5.99
  -5  -1   5   61.08    5.90
  -5  -1   5   81.74    5.47
   5  -1  -5   67.54    5.82
  -5   1  -5   78.73    5.74
   7  -1   5   11.85    1.04
  -7  -1  -5   11.81    0.94
  -7   1   5   12.34    1.03
  -7  -1  -5   11.73    1.22
   7   1  -5   10.87    1.19
  -7   1   5   13.17    1.32
  -7   1   5   12.17    0.98
  -7  -1  -5    7.97    1.15
   7  -1  -5   11.73    1.19
  -7   1  -5   14.19    1.24
  -7  -1   5   12.01    0.99
  -7   1  -5   12.27    1.20
   7   1   5   11.21    1.00
  -7  -1   5   13.39    1.03
  -9   1   5   41.21    2.97
   9   1  -5   42.48    3.30
  -9  -1  -5   42.42    3.54
  -9  -1  -5   37.31    2.88
   9  -1   5   39.16    2.98
   9   1  -5   37.11    2.91
  -9  -1  -5   33.10    3.09
  -9   1  -5   42.38    3.49
   9   1   5   39.54    2.97
  -9  -1   5   40.26    2.95
   9  -1  -5   42.03    3.28
   9  -1  -5   40.32    2.91
  -9   1  -5   37.24    3.12
  11   1  -5   10.00    1.08
 -11   1   5   11.24    0.95
 -11  -1   5   10.80    0.95
  11  -1  -5   11.08    1.06
  13   1  -5    6.24    0.71
 -13   1   5    6.32    0.64
  13  -1  -5    6.30    0.72
 -13  -1   5    6.44    0.65
  15   1  -5    4.15    0.58
 -15   1   5    4.42    0.56
 -15  -1   5    4.73    0.56
  15  -1  -5    4.56    0.59
   0  -2  -5   42.93    3.96
   0   2   5   53.80    4.19
   0   2  -5   45.62    3.54
   0   2   5   53.12    3.65
   0   2  -5   48.14    3.87
  -2   2   5   70.10    4.68
  -2  -2  -5   55.03    5.37
  -2  -2  -5   55.49    4.98
   2  -2   5   59.98    4.68
  -2   2   5   71.41    5.43
  -2   2  -5   69.84    5.34
  -2  -2   5   72.30    4.73
   2  -2  -5   55.28    5.01
  -2   2  -5   64.00    4.50
   2   2   5   58.59    4.66
  -2   2  -5   65.86    4.91
  -4  -2  -5    5.94    0.77
   4   2  -5    5.59    0.74
  -4  -2  -5    4.65    0.79
   4  -2   5    6.26    0.70
  -4  -2  -5    6.48    0.78
  -4   2   5   10.01    0.81
  -4   2   5    6.87    0.84
  -4   2   5    7.75    0.66
   4  -2  -5    5.34    0.83
  -4   2  -5    6.51    0.63
  -4   2  -5    7.43    0.85
  -4  -2   5    7.36    0.67
  -4  -2   5    6.37    0.77
  -4   2  -5    9.26    0.78
   4   2   5    6.45    0.68
  -4   2  -5    7.42    0.70
   6   2  -5   50.81    4.20
  -6   2   5   58.42    4.72
   6  -2   5   57.47    4.23
  -6  -2  -5   57.66    3.92
  -6   2   5   57.22    4.02
  -6  -2  -5   55.32    4.67
   6  -2   5   53.37    4.00
  -6   2   5   55.55    3.93
  -6   2  -5   53.69    4.59
  -6  -2   5   51.63    3.94
   6  -2  -5   50.73    4.21
  -6  -2   5   57.67    3.97
   6  -2  -5   51.11    4.35
  -6   2  -5   54.89    4.11
   6   2   5   49.89    3.95
  -6  -2   5   44.55    4.30
  -8  -2  -5   20.13    1.84
  -8  -2  -5   21.07    1.64
  -8   2   5   24.02    2.18
   8  -2   5   22.37    1.75
   8   2  -5   20.40    1.66
  -8  -2  -5   23.57    2.10
   8   2  -5   22.73    1.97
  -8   2   5   22.83    1.74
  -8  -2   5   21.45    1.69
   8  -2  -5   21.67    1.91
   8   2   5   20.32    1.69
  -8   2  -5   23.33    2.02
   8  -2  -5   21.81    1.66
  -8   2  -5   22.64    1.90
 -10  -2  -5    2.29    0.31
 -10  -2  -5    3.12    0.55
  10   2  -5    2.31    0.49
 -10   2   5    2.58    0.40
 -10  -2   5    2.20    0.36
 -10   2  -5    2.66    0.60
  10  -2  -5    2.99    0.37
 -10   2  -5    2.92    0.50
  10  -2  -5    2.48    0.47
  12   2  -5   12.12    1.13
 -12   2   5   12.08    1.01
  12  -2  -5   11.72    1.12
 -12  -2   5   10.44    0.99
  14   2  -5    3.74    0.54
 -14   2   5    3.64    0.48
  14  -2  -5    3.27    0.52
 -14  -2   5    3.21    0.47
  -1   3   5   52.44    4.08
  -1  -3  -5   41.49    3.80
   1  -3   5   40.44    3.54
  -1   3   5   44.82    3.51
   1   3   5   56.16    4.08
  -1   3  -5   52.44    4.01
  -1  -3   5   48.29    3.60
  -1   3  -5   50.43    3.41
   1   3   5   44.14    3.51
   1  -3  -5   42.68    3.81
  -1   3  -5   50.89    3.72
   3  -3   5   54.54    4.28
  -3   3   5   64.89    4.24
  -3   3   5   65.57    5.02
  -3   3   5   49.63    4.31
  -3  -3  -5   59.73    4.53
  -3  -3  -5   55.49    4.93
   3   3  -5   50.00    4.10
  -3   3  -5   54.08    4.44
   3  -3  -5   55.50    4.57
  -3  -3   5   67.14    4.30
   3   3   5   60.07    4.26
  -3   3  -5   64.52    4.89
  -3   3  -5   55.31    4.08
  -5  -3  -5   50.07    4.41
  -5  -3  -5   45.35    3.87
  -5   3   5   53.54    3.87
   5  -3   5   46.70    3.81
   5  -3   5   56.56    4.06
   5   3  -5   43.73    3.97
  -5   3   5   50.08    4.47
  -5   3   5   52.37    3.74
  -5   3  -5   52.95    3.62
   5  -3  -5   50.76    4.16
   5   3   5   50.85    3.78
  -5   3  -5   51.77    3.88
  -5  -3   5   53.88    3.78
  -5   3  -5   54.49    3.94
  -5   3  -5   53.31    4.37
   5   3   5   57.98    3.80
   5  -3  -5   49.16    4.03
  -5  -3   5   48.94    3.76
  -7  -3  -5   10.92    0.91
   7  -3   5   10.78    1.02
  -7   3   5   13.44    1.04
  -7   3   5   11.54    1.30
   7  -3   5   11.93    1.00
  -7  -3  -5   12.01    1.20
  -7  -3  -5   11.67    1.07
  -7  -3   5   13.40    0.97
  -7  -3   5   10.95    0.94
   7   3   5   10.09    0.93
  -7   3  -5   10.14    1.10
  -7  -3   5    9.37    1.11
   7  -3  -5   11.36    1.11
   7  -3  -5   11.06    0.90
  -7   3  -5   11.30    1.09
   9   3  -5   29.61    2.33
  -9  -3  -5   29.55    2.52
   9  -3   5   28.02    2.13
   9   3  -5   23.44    1.99
  -9   3   5   29.29    2.08
  -9  -3  -5   25.82    2.12
  -9  -3  -5   22.96    1.97
   9  -3  -5   25.62    1.98
  -9  -3   5   27.27    2.03
  -9   3  -5   28.77    2.40
   9   3   5   25.01    2.02
   9  -3  -5   27.98    2.26
 -11  -3  -5    7.25    0.77
  11   3  -5    9.44    1.00
 -11  -3  -5   10.46    0.98
 -11   3   5   10.41    0.89
  11  -3  -5   11.04    0.99
 -11  -3   5   10.27    0.85
 -13  -3  -5    3.21    0.40
 -13   3   5    3.45    0.46
  13   3  -5    3.89    0.53
  13  -3  -5    3.51    0.53
 -13  -3   5    3.23    0.46
 -15   3   5    3.22    0.48
 -15  -3   5    3.87    0.51
  15  -3  -5    4.12    0.57
   0   4  -5    1.58    0.29
   0  -4   5    1.70    0.34
   0   4   5    1.72    0.25
   0   4   5    2.13    0.32
   0   4  -5    1.86    0.28
   2   4  -5    4.45    0.48
  -2   4   5    2.40    0.42
  -2  -4  -5    3.62    0.51
  -2   4   5    5.17    0.42
   2   4  -5    4.57    0.46
  -2   4   5    3.15    0.51
   2  -4   5    3.59    0.49
   2   4   5    3.24    0.42
   2  -4  -5    4.26    0.60
  -2   4  -5    4.21    0.39
  -2   4  -5    4.25    0.43
   2   4   5    3.02    0.46
  -2  -4   5    4.17    0.51
  -2   4  -5    3.53    0.41
  -2  -4   5    3.28    0.54
   4  -4   5    0.89    0.28
   4  -4   5    0.39    0.20
  -4   4   5    0.64    0.35
  -4  -4  -5    0.45    0.20
   4   4  -5    0.80    0.21
  -4  -4  -5    0.63    0.26
  -4   4   5    1.00    0.33
   4   4  -5    0.85    0.24
  -4  -4  -5    0.28    0.23
  -4   4   5    0.63    0.16
  -4  -4   5    0.51    0.20
  -4   4  -5    0.66    0.25
  -4  -4   5    0.11    0.27
   4  -4  -5    0.29    0.27
  -4   4  -5    0.57    0.20
   4   4   5    0.33    0.19
   4   4   5    1.18    0.27
   4  -4  -5    1.48    0.33
  -6  -4  -5    2.39    0.47
  -6   4   5    2.73    0.44
   6  -4   5    3.35    0.42
   6  -4   5    2.45    0.41
  -6  -4  -5    1.91    0.41
   6   4  -5    2.62    0.42
  -6   4   5    2.92    0.58
   6   4   5    2.41    0.34
   6  -4  -5    2.46    0.48
   6  -4  -5    2.46    0.39
  -6  -4   5    2.20    0.49
  -6   4  -5    2.30    0.44
  -6  -4   5    2.88    0.37
  -6  -4   5    2.17    0.32
  -6   4  -5    2.58    0.41
   8  -4   5    1.21    0.37
  -8   4   5    1.23    0.54
  -8  -4  -5    0.80    0.20
  -8  -4  -5    1.47    0.37
   8  -4   5    1.17    0.27
   8   4  -5    0.86    0.22
  -8  -4  -5    0.96    0.37
  -8   4   5    1.29    0.30
   8  -4  -5    1.19    0.33
  -8   4  -5    1.99    0.46
  -8   4  -5    1.39    0.33
   8   4   5    1.30    0.27
  -8  -4   5    1.32    0.42
 -10   4   5    0.25    0.21
  10  -4   5    0.16    0.18
 -10  -4  -5    0.39    0.15
 -10  -4  -5    0.13    0.28
  10   4  -5    0.74    0.35
  10  -4  -5    0.40    0.26
 -10   4  -5    0.06    0.41
 -10  -4   5    0.03    0.17
 -12  -4  -5    0.72    0.21
 -12   4   5    0.95    0.28
  12   4  -5    0.70    0.33
 -12  -4   5    0.45    0.23
  12  -4  -5    1.06    0.31
 -14  -4  -5    0.15    0.18
 -14   4   5    0.33    0.25
  14  -4  -5    0.00    0.24
 -14  -4   5   -0.13    0.20
   1   5  -5   58.21    4.11
  -1   5   5   51.51    4.22
  -1   5   5   64.24    4.96
   1  -5   5   52.43    4.30
  -1  -5  -5   61.28    4.53
   1   5  -5   60.62    4.48
   1  -5   5   57.40    4.60
  -1   5   5   58.36    4.27
   1   5   5   57.29    4.22
   1   5   5   64.79    4.95
  -1  -5   5   59.49    4.32
   1  -5  -5   59.25    4.54
   1   5   5   56.25    4.30
  -1   5  -5   62.53    4.47
  -1  -5   5   50.00    4.61
  -1   5  -5   61.87    4.11
  -1   5  -5   58.15    4.27
   3  -5   5   64.69    5.15
  -3   5   5   74.13    6.01
   3   5  -5   71.70    4.94
   3  -5   5   70.64    5.51
   3   5  -5   72.72    5.38
  -3  -5  -5   70.33    5.18
  -3  -5  -5   74.33    6.00
  -3   5   5   57.53    5.13
  -3  -5  -5   69.53    5.36
  -3   5  -5   76.13    4.92
   3   5   5   73.92    5.16
  -3  -5   5   66.95    5.11
   3   5   5   69.90    5.10
  -3   5  -5   77.57    5.35
  -3   5  -5   69.22    5.14
   3  -5  -5   73.22    5.43
  -3   5  -5   66.03    5.87
  -3  -5   5   68.47    5.57
  -5   5   5   64.08    4.89
  -5  -5  -5   66.03    4.88
   5   5  -5   62.20    5.04
  -5  -5  -5   68.74    5.62
  -5   5   5   70.54    5.71
   5  -5   5   67.83    5.17
   5   5  -5   59.56    4.62
   5  -5   5   64.12    4.85
  -5  -5   5   69.56    4.79
   5   5   5   74.26    4.85
  -5   5  -5   66.47    4.85
  -5   5  -5   72.84    4.60
  -5  -5   5   59.07    4.77
  -5  -5   5   56.22    5.21
  -5   5  -5   71.67    5.00
   5   5   5   65.38    4.79
   5  -5  -5   62.23    5.05
  -5   5  -5   65.27    5.54
   5  -5  -5   67.73    5.21
   7  -5   5   12.01    1.05
   7  -5   5   11.88    1.09
  -7  -5  -5   11.55    1.20
  -7   5   5   13.31    1.08
  -7  -5  -5   11.57    0.95
  -7  -5  -5   11.73    1.07
  -7   5   5   12.93    1.36
  -7  -5   5    9.93    1.14
   7  -5  -5   11.33    1.11
   7   5   5   11.01    0.96
   7  -5  -5   11.16    1.00
  -7  -5   5   12.63    0.98
  -7   5  -5   11.70    1.08
  -7   5  -5   11.83    1.13
  -7  -5   5   10.46    0.95
   9   5  -5   40.91    3.21
  -9  -5  -5   39.01    2.92
   9  -5   5   38.70    2.97
  -9   5   5   42.88    3.56
   9  -5   5   38.14    3.06
  -9   5   5   42.57    2.92
  -9  -5  -5   36.09    2.81
  -9   5  -5   36.99    3.31
  -9  -5   5   37.21    2.85
   9  -5  -5   36.03    3.11
   9   5   5   34.59    2.83
  11   5  -5   12.15    1.23
 -11  -5  -5   13.01    1.13
 -11   5   5   13.38    1.10
  11  -5   5   12.24    1.13
 -11  -5  -5   11.89    1.00
  11  -5  -5   12.92    1.20
 -11  -5   5   11.63    1.05
 -13   5   5    5.57    0.62
 -13  -5  -5    5.01    0.52
 -13  -5   5    5.19    0.60
  13  -5  -5    6.15    0.74
 -15  -5  -5    4.45    0.48
  15  -5  -5    5.44    0.66
 -15  -5   5    4.23    0.55
   0  -6   5   29.47    2.37
   0  -6  -5   32.25    2.34
   0  -6  -5   31.87    2.46
   0  -6   5   26.52    2.50
   0   6   5   30.36    2.67
   0   6  -5   32.66    2.42
   0   6   5   25.95    2.31
   0   6  -5   33.68    2.23
   0   6  -5   30.28    2.30
  -2   6   5   44.40    3.67
   2  -6   5   41.38    3.38
   2   6  -5   46.51    3.03
  -2  -6  -5   40.36    3.17
   2  -6   5   38.40    3.17
  -2   6   5   38.81    3.12
   2   6  -5   44.10    3.28
  -2  -6  -5   45.60    3.30
  -2   6  -5   38.56    3.13
   2   6   5   44.04    3.64
  -2  -6   5   41.17    3.13
   2  -6  -5   43.38    3.33
   2   6   5   36.45    3.15
  -2  -6   5   44.24    3.11
   4   6  -5    4.92    0.48
  -4  -6  -5    5.80    0.72
  -4   6   5    4.68    0.59
  -4  -6  -5    3.92    0.55
   4   6  -5    5.26    0.53
  -4  -6  -5    3.49    0.46
  -4   6   5    5.54    0.73
   4  -6   5    3.66    0.55
   4  -6   5    4.64    0.52
   4   6   5    4.75    0.47
  -4   6  -5    3.99    0.50
   4  -6  -5    3.91    0.52
  -4  -6   5    3.76    0.60
  -4   6  -5    4.15    0.50
  -4  -6   5    5.17    0.48
   4   6   5    4.73    0.55
   4  -6  -5    4.91    0.59
  -6   6   5   41.04    3.37
   6  -6   5   33.52    2.82
  -6  -6  -5   39.43    3.28
  -6   6   5   39.76    2.86
  -6  -6  -5   34.84    2.81
   6  -6   5   39.02    2.99
  -6   6  -5   34.89    3.17
  -6  -6   5   39.14    2.75
   6  -6  -5   37.89    3.01
  -6   6  -5   37.27    2.81
   6  -6  -5   36.79    2.88
   6   6   5   36.59    2.74
   6   6   5   40.35    2.80
  -6  -6   5   31.14    3.01
  -6  -6   5   33.86    2.72
  -8   6   5   19.31    1.34
  -8  -6  -5   16.12    1.54
  -8   6   5   16.88    1.68
  -8  -6  -5   15.32    1.31
   8  -6   5   15.29    1.34
   8   6  -5   12.81    1.19
  -8  -6   5   15.03    1.24
  -8   6  -5   15.06    1.43
  -8   6  -5   17.51    1.37
   8   6   5   13.38    1.21
  -8  -6   5   15.23    1.45
   8  -6  -5   14.59    1.38
 -10   6   5    3.20    0.47
 -10  -6  -5    2.81    0.46
 -10  -6  -5    3.07    0.37
  10   6  -5    2.60    0.59
  10  -6   5    2.81    0.44
  10  -6  -5    3.10    0.52
 -10  -6   5    2.20    0.39
 -10   6  -5    3.78    0.67
 -12  -6  -5    8.40    0.78
  12  -6   5    9.14    0.90
 -12   6   5   10.26    0.87
 -12  -6   5    7.87    0.81
  12  -6  -5   10.15    0.98
  14  -6  -5    3.64    0.54
 -14  -6   5    2.40    0.43
  -1  -7  -5   21.00    1.70
  -1   7   5   24.62    1.97
   1   7  -5   23.23    1.60
   1  -7   5   18.15    1.80
   1  -7   5   17.98    1.73
  -1  -7  -5   22.14    1.77
  -1   7   5   21.72    1.67
   1   7  -5   23.60    1.75
   1  -7   5   20.59    1.71
  -1  -7   5   17.95    1.83
   1   7   5   22.83    1.94
   1  -7  -5   22.00    1.78
  -1  -7   5   23.90    1.67
  -1   7  -5   21.75    1.67
   1  -7  -5   22.82    1.67
   1   7   5   18.29    1.68
  -1  -7   5   22.35    1.68
  -3  -7  -5   25.18    2.08
  -3   7   5   22.32    2.01
   3   7  -5   30.06    2.12
   3  -7   5   25.52    2.17
   3  -7   5   26.12    2.06
  -3   7   5   28.05    2.40
  -3  -7  -5   26.70    2.07
   3   7  -5   28.81    1.94
   3  -7   5   27.39    2.07
  -3  -7   5   24.44    2.23
  -3  -7   5   29.03    1.97
   3   7   5   27.14    2.35
  -3  -7   5   25.20    1.98
   3   7   5   24.09    2.04
   3  -7  -5   26.92    2.13
  -3   7  -5   25.10    2.01
   5   7  -5   22.89    1.78
   5  -7   5   21.15    1.82
  -5   7   5   23.02    1.77
  -5  -7  -5   21.46    1.74
   5   7  -5   23.82    1.64
  -5   7   5   24.08    2.10
  -5  -7  -5   22.80    2.04
  -5   7  -5   20.25    1.70
   5  -7  -5   21.42    1.84
   5   7   5   21.69    1.72
   5  -7  -5   19.62    1.75
  -5  -7   5   19.76    1.89
  -5  -7   5   20.39    1.64
  -7   7   5    7.80    1.01
  -7   7   5    7.39    0.74
  -7  -7  -5    8.03    0.96
   7  -7   5    5.97    0.68
  -7  -7  -5    6.07    0.72
  -7   7  -5    5.53    0.70
   7  -7  -5    5.82    0.63
  -7  -7   5    8.02    0.67
   7  -7  -5    6.03    0.77
   7   7   5    6.99    0.67
  -7  -7   5    5.15    0.80
  -9   7   5   14.99    1.19
   9  -7   5   11.42    1.21
  -9  -7  -5   12.89    1.19
   9  -7  -5   12.25    1.26
  -9  -7   5   13.96    1.14
  -9   7  -5   16.50    1.32
  11  -7   5    5.27    0.67
 -11  -7  -5    5.73    0.68
  11  -7  -5    5.37    0.71
 -11  -7   5    5.03    0.60
  13  -7   5    2.51    0.44
 -13  -7   5    2.82    0.44
  13  -7  -5    2.43    0.49
   0  -8   5    4.20    0.41
   0  -8   5    3.42    0.39
   0  -8   5    3.34    0.50
   0   8   5    2.50    0.43
   0   8   5    2.40    0.38
   0  -8  -5    3.20    0.44
   0  -8  -5    3.65    0.43
   2   8  -5    8.60    0.72
  -2   8   5    8.32    0.85
   2   8  -5    7.93    0.65
  -2  -8  -5    6.49    0.72
   2  -8   5    7.56    0.66
   2  -8   5    6.93    0.75
  -2   8   5    6.76    0.65
  -2  -8  -5    7.08    0.70
  -2  -8   5    8.45    0.66
   2   8   5    7.49    0.79
  -2  -8   5    5.47    0.80
   2  -8  -5    7.68    0.66
   2   8   5    6.15    0.71
  -2   8  -5    6.76    0.66
  -2  -8   5    7.47    0.65
   2  -8  -5    6.82    0.71
  -4   8   5    0.88    0.27
   4   8  -5    0.84    0.25
  -4   8   5    1.58    0.44
   4  -8   5    1.17    0.23
  -4  -8  -5    1.74    0.34
   4   8  -5    0.99    0.24
   4  -8   5    1.26    0.29
   4  -8  -5    1.19    0.29
  -4   8  -5    1.20    0.28
  -4  -8   5    0.84    0.35
  -4  -8   5    1.11    0.22
   4   8   5    0.73    0.26
  -6   8   5    6.53    0.90
  -6   8   5    5.90    0.69
  -6  -8  -5    3.98    0.61
  -6  -8  -5    7.27    0.81
   6  -8   5    5.66    0.63
  -6   8  -5    5.94    0.65
  -6  -8   5    4.67    0.74
   6  -8  -5    6.07    0.71
   6   8   5    5.72    0.65
  -6  -8   5    5.09    0.53
   6  -8  -5    4.95    0.58
  -8   8   5    3.08    0.47
   8  -8   5    2.71    0.45
  -8  -8  -5    2.45    0.44
   8  -8  -5    2.11    0.44
  -8  -8   5    2.35    0.37
   8   8   5    2.18    0.42
  -8   8  -5    2.80    0.47
  10  -8   5    0.41    0.25
 -10  -8  -5    2.83    0.42
 -10   8  -5    0.61    0.42
 -10  -8   5    0.93    0.27
  10  -8  -5    0.60    0.33
  10   8   5    0.40    0.30
  12  -8   5    1.64    0.39
  12   8   5    1.28    0.38
  12  -8  -5    2.34    0.47
 -12  -8   5    1.42    0.34
  14  -8   5    0.51    0.25
  14   8   5    0.95    0.40
  14  -8  -5    1.23    0.39
 -14  -8   5    0.42    0.31
  -1   9   5   37.23    2.90
  -1   9   5   34.16    2.46
   1  -9   5   31.26    2.68
  -1  -9  -5   32.87    2.60
   1  -9   5   31.66    2.54
  -1  -9  -5   31.44    2.50
  -1  -9   5   35.36    2.46
   1   9   5   36.29    2.88
   1  -9  -5   34.27    2.62
  -1  -9   5   29.51    2.54
  -1  -9   5   28.02    2.69
   1   9   5   31.11    2.48
   1  -9  -5   34.40    2.47
   3   9  -5   42.76    3.07
  -3  -9  -5   37.06    3.04
   3  -9   5   38.34    3.16
  -3  -9  -5   35.96    2.97
  -3   9   5   34.92    2.91
   3  -9   5   38.60    3.02
   3   9  -5   43.67    2.83
  -3   9   5   46.01    3.48
   3   9   5   37.98    2.96
   3   9   5   41.72    3.41
  -3  -9   5   36.01    3.22
   3  -9  -5   40.03    3.08
  -3   9  -5   37.92    2.93
  -3  -9   5   38.93    2.88
   5  -9   5   41.08    3.41
   5   9  -5   43.03    3.30
  -5   9   5   46.04    3.79
   5   9  -5   44.04    3.04
  -5  -9  -5   42.09    3.21
   5  -9   5   40.90    3.24
  -5   9   5   40.54    3.18
   5  -9  -5   41.99    3.29
   5   9   5   42.66    3.19
  -5   9  -5   42.82    3.17
   5   9   5   43.91    3.69
  -5  -9   5   37.94    3.45
  -7  -9  -5    7.93    0.80
   7  -9   5    6.93    0.85
   7   9   5    7.35    0.76
   7  -9  -5    7.30    0.82
  -7   9  -5    7.59    0.77
   9  -9   5   28.36    2.61
  -9  -9  -5   33.13    2.47
   9  -9  -5   32.51    2.65
   9   9   5   32.04    2.46
 -11  -9  -5    9.78    0.93
  11  -9   5    8.34    0.93
  11  -9  -5    9.38    0.99
 -11  -9   5    7.30    0.83
  11   9   5   10.25    0.94
  13  -9   5    5.03    0.71
  13  -9  -5    6.68    0.79
  13   9   5    6.19    0.73
 -13  -9   5    4.72    0.64
   0 -10   5   14.36    1.24
   0  10   5   16.81    1.45
   0 -10  -5   15.29    1.23
   0 -10   5   15.98    1.22
   0 -10   5   14.00    1.36
   0  10   5   14.14    1.22
   0 -10  -5   15.67    1.31
  -2  10   5   19.23    1.62
   2 -10   5   14.77    1.46
  -2 -10  -5   15.76    1.37
  -2 -10  -5   16.67    1.40
  -2  10   5   16.65    1.32
   2 -10   5   15.98    1.35
   2  10   5   14.97    1.36
   2  10   5   18.17    1.56
   2 -10  -5   17.05    1.32
   2 -10  -5   18.06    1.43
  -2 -10   5   17.72    1.31
  -2  10  -5   16.61    1.35
  -2 -10   5   14.88    1.53
   4 -10   5    3.05    0.41
   4  10  -5    4.59    0.49
  -4 -10  -5    3.43    0.50
   4  10  -5    4.17    0.51
  -4  10   5    4.21    0.68
   4 -10   5    3.28    0.51
  -4  10   5    3.85    0.50
  -4 -10   5    4.76    0.68
  -4  10  -5    3.98    0.49
   4  10   5    3.07    0.49
   4 -10  -5    4.30    0.52
  -4 -10   5    3.67    0.40
   6 -10   5   15.55    1.42
  -6 -10  -5   15.46    1.33
   6  10   5   14.51    1.30
  -6  10  -5   16.21    1.30
  -8 -10  -5    9.67    0.90
   8 -10   5    8.28    0.92
   8 -10  -5    8.64    0.94
  -8  10  -5    8.54    0.87
   8  10   5    8.27    0.85
 -10 -10  -5    1.63    0.39
  10 -10   5    2.08    0.44
  10 -10  -5    1.94    0.45
  10  10   5    2.24    0.42
  12 -10   5    4.76    0.68
 -12 -10   5    4.81    0.66
  12 -10  -5    6.89    0.82
  12  10   5    4.93    0.68
   1 -11   5    6.40    0.77
  -1 -11  -5    5.92    0.68
  -1  11   5    5.68    0.57
  -1 -11  -5    5.83    0.62
  -1  11   5    7.50    0.77
   1  11   5    6.71    0.75
  -1 -11   5    6.59    0.59
  -1 -11   5    5.23    0.74
   1  11   5    6.02    0.60
   1 -11  -5    6.37    0.60
   3 -11   5    7.65    0.81
  -3 -11  -5    7.16    0.73
  -3 -11  -5    6.72    0.74
  -3  11  -5    7.50    0.73
  -3 -11   5    8.23    0.67
   3  11   5    7.09    0.73
  -3 -11   5    8.68    1.01
  -5 -11  -5    5.95    0.70
   5 -11   5    5.01    0.69
   5  11   5    5.51    0.67
  -5  11  -5    5.72    0.61
  -7 -11  -5    3.27    0.50
   7 -11   5    3.10    0.53
  -7  11  -5    2.96    0.47
   7  11   5    3.88    0.53
   9 -11   5    3.38    0.59
  -9 -11  -5    3.99    0.57
   9  11   5    3.69    0.56
   9 -11  -5    4.84    0.68
  -9  11  -5    3.25    0.60
  11 -11   5    2.28    0.48
 -11 -11  -5    2.22    0.48
  11 -11  -5    3.77    0.62
  11  11   5    2.84    0.51
   0 -12   5    2.68    0.51
   0 -12  -5    3.23    0.43
   0 -12   5    2.96    0.40
   0  12   5    3.61    0.40
  -2 -12  -5    5.29    0.64
   2 -12   5    5.10    0.71
   2 -12  -5    6.38    0.59
   2  12   5    6.10    0.61
  -2 -12   5    5.90    0.56
  -2 -12   5    6.04    0.86
  -2  12  -5    5.64    0.60
   4 -12   5    1.16    0.35
  -4 -12  -5    1.50    0.35
   4  12   5    1.35    0.33
  -4 -12   5    1.16    0.24
  -4  12  -5    2.28    0.37
  -6 -12  -5    4.61    0.59
   6 -12   5    4.54    0.66
  -6  12  -5    4.13    0.57
   6  12   5    4.49    0.60
   8 -12   5    3.08    0.54
  -8 -12  -5    2.63    0.45
  -8  12  -5    3.23    0.53
   8  12   5    3.09    0.50
 -10 -12  -5    2.48    0.45
  10 -12   5    0.50    0.33
  10 -12  -5    0.95    0.45
  10  12   5    0.63    0.34
   1 -13   5   15.31    1.44
  -1 -13  -5   15.03    1.26
  -1 -13   5   13.21    1.46
  -1 -13   5   15.06    1.23
   1 -13  -5   17.62    1.27
   1  13   5   14.39    1.26
  -3 -13  -5   17.61    1.51
   3 -13   5   19.23    1.66
   3  13   5   18.73    1.50
  -3  13  -5   18.73    1.51
  -3 -13   5   18.08    1.45
   5 -13   5   19.71    1.74
  -5 -13  -5   19.20    1.58
  -5  13  -5   20.11    1.58
   5  13   5   17.93    1.56
  -7 -13  -5    4.74    0.62
   7 -13   5    5.98    0.78
   7  13   5    4.24    0.61
  -7  13  -5    5.04    0.65
  -9 -13  -5   14.81    1.31
   9 -13   5   13.95    1.44
   9  13   5   14.29    1.34
  -9  13  -5   17.94    1.45
   0 -14   5    4.82    0.76
   0 -14   5    5.07    0.58
   0 -14  -5    5.80    0.60
   2 -14   5    6.98    0.89
  -2 -14  -5    6.06    0.69
  -2  14  -5    6.26    0.70
  -2 -14   5    7.70    0.65
   4 -14   5    1.36    0.42
  -4 -14  -5    1.69    0.33
  -4 -14   5    1.97    0.31
   4  14   5    1.41    0.31
  -4  14  -5    1.80    0.38
  -6 -14  -5    7.31    0.72
   6 -14   5    6.83    0.86
  -6  14  -5    6.36    0.77
   6  14   5    6.30    0.75
  -8 -14  -5    3.88    0.53
   8 -14   5    3.36    0.62
   8  14   5    3.25    0.55
  -8  14  -5    3.77    0.61
  -1 -15  -5    1.77    0.35
   1 -15   5    1.38    0.49
  -1  15  -5    1.09    0.33
  -1 -15   5    1.54    0.29
   1 -15  -5    1.42    0.32
  -3 -15  -5    1.80    0.37
   3 -15   5    2.55    0.57
  -3  15  -5    2.00    0.38
  -3 -15   5    1.65    0.31
  -5 -15  -5    0.95    0.31
   5 -15   5    1.28    0.42
  -5  15  -5    1.87    0.39
  -7 -15  -5    1.12    0.32
   7 -15   5    1.07    0.42
  -7  15  -5    1.09    0.42
   7  15   5    1.27    0.36
   0 -16  -5    2.84    0.43
  -2 -16  -5    4.49    0.57
  -2 -16   5    3.98    0.52
  -2  16  -5    4.97    0.61
   4 -16   5    0.91    0.50
  -4 -16  -5    0.65    0.26
  -4  16  -5    1.33    0.35
  -4 -16   5    1.05    0.31
   6 -16   5    3.72    0.71
  -6 -16  -5    3.41    0.50
  -6  16  -5    4.36    0.62
  -1 -17  -5    6.66    0.73
  -1  17  -5    7.31    0.81
   1 -17  -5    7.34    0.73
  -3 -17  -5    8.38    0.83
  -3  17  -5    8.99    0.86
  -3 -17   5    7.62    0.82
   0   0   6   35.62    2.75
   0   0  -6   39.29    3.01
   2   0  -6  566.93   42.17
  -2   0   6  550.74   40.07
   2   0   6  546.54   40.04
  -2   0  -6  597.43   42.16
  -4   0  -6   98.39    6.97
  -4   0  -6  107.65    7.26
   4   0   6   86.00    6.85
   4   0  -6   88.50    7.27
  -4   0   6   84.90    7.37
  -4   0  -6   98.64    7.92
  -4   0   6   92.91    6.89
  -4   0   6   98.93    6.86
  -6   0  -6  477.36   31.34
   6   0  -6  391.64   32.74
  -6   0   6  430.22   31.13
   6   0   6  500.47   31.16
  -6   0   6  422.65   31.08
  -6   0  -6  411.32   36.09
  -8   0  -6   42.22    3.38
  -8   0   6   43.37    3.21
  -8   0  -6   43.57    3.79
  -8   0   6   44.95    3.26
   8   0   6   43.53    3.26
   8   0  -6   41.48    3.61
 -10   0  -6  164.53   13.53
 -10   0   6  184.22   13.37
  10   0  -6  211.61   14.52
 -12   0   6   22.15    1.86
  12   0  -6   25.11    2.07
  14   0  -6  117.40    8.42
 -14   0   6   98.23    7.77
  -1  -1  -6   31.43    2.42
   1   1  -6   28.25    2.34
  -1   1   6   26.13    2.15
   1  -1   6   28.74    2.17
   1   1   6   28.36    2.15
  -1   1  -6   26.65    2.32
   1   1   6   30.65    2.42
   1  -1  -6   27.59    2.39
  -1  -1   6   27.46    2.19
  -3   1   6   80.87    6.77
  -3  -1  -6   99.33    7.75
  -3   1   6  101.89    6.74
  -3  -1  -6   82.18    7.12
   3  -1   6   86.31    6.73
   3   1  -6   96.97    7.13
  -3  -1  -6   98.09    6.83
   3  -1  -6   78.26    7.14
  -3  -1   6  102.55    6.77
   3   1   6   88.56    6.73
  -3   1  -6  101.33    7.11
  -3   1  -6   96.96    6.82
  -5  -1  -6    9.38    0.99
  -5   1   6   10.39    0.93
   5  -1   6    8.07    0.86
  -5   1   6    9.18    0.82
  -5  -1  -6    8.29    1.02
   5   1  -6    8.23    0.95
  -5   1  -6    9.22    0.98
  -5  -1   6   10.03    0.85
  -5  -1   6    7.87    0.92
   5  -1  -6    9.30    1.15
  -5  -1   6   10.45    0.90
   5   1   6    8.26    0.85
   5   1   6    9.67    0.83
   5  -1  -6    9.14    1.09
  -5   1  -6    9.69    0.95
   7  -1   6   40.38    3.02
  -7   1   6   39.22    2.96
  -7   1   6   41.42    3.03
  -7  -1  -6   40.02    3.50
  -7  -1  -6   36.74    3.11
   7   1  -6   37.61    3.34
   7  -1  -6   39.24    3.35
  -7  -1   6   38.52    2.96
  -7  -1   6   41.07    3.00
   7   1   6   37.10    2.98
  -7   1  -6   39.13    3.46
   7   1   6   44.27    2.97
  -7   1  -6   42.73    3.15
  -9  -1  -6    6.93    0.88
   9  -1   6    6.00    0.69
  -9   1   6    5.99    0.69
   9   1  -6    7.10    0.90
   9   1  -6    6.19    0.60
  -9  -1  -6    4.65    0.79
  -9   1  -6    6.14    0.81
   9  -1  -6    5.47    0.59
   9   1   6    6.31    0.64
   9  -1  -6    5.44    0.78
  -9   1  -6    5.53    0.80
  -9  -1   6    5.99    0.63
 -11  -1  -6   17.95    1.76
  11   1  -6   21.51    1.86
 -11   1   6   22.23    1.66
 -11  -1   6   19.99    1.64
 -11   1  -6   18.80    1.83
  11  -1  -6   20.58    1.82
 -13   1   6    1.26    0.31
  13   1  -6    1.51    0.37
  13  -1  -6    1.31    0.39
 -13  -1   6    1.11    0.30
 -15   1   6    4.04    0.54
  15   1  -6    4.13    0.60
  15  -1  -6    4.39    0.61
 -15  -1   6    3.58    0.54
   0   2  -6  170.67   14.94
   0   2   6  199.75   14.18
   0  -2   6  201.83   14.22
   0   2   6  222.83   16.40
  -2  -2  -6  216.45   18.04
   2   2  -6  214.71   16.41
  -2  -2  -6  201.20   16.47
  -2   2   6  229.18   15.59
   2  -2   6  252.08   15.62
  -2   2   6  207.63   15.61
   2  -2  -6  201.22   16.50
   2   2   6  223.54   15.58
  -2  -2   6  245.43   15.66
  -2   2  -6  216.91   16.39
  -2   2  -6  197.60   15.05
   4  -2   6  173.82   12.42
  -4  -2  -6  150.64   13.05
  -4  -2  -6  180.98   14.35
  -4  -2  -6  143.55   12.49
  -4   2   6  155.27   12.45
  -4   2   6  190.92   12.38
   4   2  -6  177.03   13.05
  -4  -2   6  173.10   12.39
  -4   2  -6  159.16   12.99
  -4  -2   6  183.47   12.41
   4   2   6  183.75   12.41
   4  -2  -6  177.92   13.45
  -4  -2   6  197.69   13.38
   4  -2  -6  159.43   13.12
  -4   2  -6  168.72   12.48
   4   2   6  193.44   12.41
   6  -2   6  220.72   15.44
  -6   2   6  197.47   14.34
   6  -2   6  209.91   14.43
  -6   2   6  193.68   14.44
   6   2  -6  202.12   15.15
  -6  -2  -6  202.87   16.71
   6   2   6  220.17   14.38
  -6   2  -6  205.69   14.52
  -6  -2   6  188.78   14.37
   6  -2  -6  196.14   15.19
  -6   2  -6  197.58   16.66
   6   2   6  201.84   14.39
   6  -2  -6  191.37   15.59
  -6  -2   6  191.02   14.36
   8   2  -6  127.94    9.94
  -8   2   6  131.12    9.15
   8  -2   6  141.37    9.17
  -8  -2  -6  113.71    9.21
  -8  -2  -6  125.07   10.61
  -8   2  -6  137.91    9.26
   8  -2  -6  120.45    9.03
  -8  -2   6  114.33    9.07
   8   2   6  122.27    9.09
  -8  -2   6  124.22    9.06
  -8   2  -6  129.67   10.55
   8  -2  -6  131.99    9.90
 -10  -2  -6  120.89    8.54
  10   2  -6  125.36    9.18
 -10   2   6  112.86    8.42
 -10  -2  -6  106.68    8.31
  10  -2  -6  118.54    9.12
 -10  -2   6  101.55    8.37
 -10   2  -6  137.00    8.63
 -12   2   6   69.26    5.26
  12   2  -6   76.33    5.73
  12  -2  -6   75.72    5.70
 -12  -2   6   66.18    5.24
 -14   2   6   60.04    4.51
  14   2  -6   64.69    4.87
  14  -2  -6   66.94    4.89
 -14  -2   6   53.10    4.48
   1   3  -6   49.49    3.82
  -1   3   6   51.66    3.61
   1   3  -6   46.37    3.49
  -1   3   6   49.69    3.58
  -1  -3  -6   45.94    3.91
   1   3   6   58.44    4.14
  -1   3  -6   51.65    3.81
   1   3   6   50.43    3.59
   1   3   6   47.46    3.61
  -1  -3   6   47.53    3.66
  -1  -3   6   40.35    3.88
  -1   3  -6   48.93    3.49
   1  -3  -6   43.90    3.91
   3  -3   6   96.21    6.56
   3   3  -6   75.82    6.41
  -3   3   6   74.68    6.13
  -3  -3  -6   72.79    6.45
   3  -3   6   83.68    6.12
  -3  -3  -6   78.43    7.04
  -3   3   6   88.86    6.08
  -3  -3  -6   76.39    6.16
  -3  -3   6   92.39    6.15
  -3  -3   6   95.90    6.60
   3   3   6   81.71    6.09
   3  -3  -6   77.23    6.52
  -3   3  -6   84.26    5.87
   3   3   6   90.18    6.12
  -3   3  -6   86.26    6.15
  -3   3  -6   86.45    6.39
  -5   3   6   44.26    3.43
  -5  -3  -6   38.78    3.42
  -5  -3  -6   43.00    3.86
   5  -3   6   43.66    3.39
  -5   3   6   47.18    3.31
   5  -3   6   49.84    3.58
   5   3  -6   41.59    3.52
  -5  -3   6   46.94    3.35
  -5  -3   6   41.29    3.63
   5   3   6   49.39    3.36
   5  -3  -6   43.06    3.69
   5   3   6   43.67    3.34
  -5  -3   6   49.03    3.35
  -5   3  -6   45.99    3.48
   5  -3  -6   43.59    3.61
  -5   3  -6   44.33    3.42
  -5   3  -6   44.43    3.19
   7  -3   6   21.58    1.67
  -7   3   6   22.00    1.68
  -7   3   6   19.88    1.55
  -7  -3  -6   17.63    1.67
  -7  -3  -6   21.42    1.89
   7  -3   6   21.23    1.67
  -7  -3   6   19.74    1.57
  -7   3  -6   21.85    1.72
  -7   3  -6   20.03    1.86
   7  -3  -6   20.23    1.76
   7   3   6   18.79    1.58
   7   3   6   20.69    1.58
  -7  -3   6   20.30    1.58
  -7  -3   6   15.54    1.74
   7  -3  -6   19.24    1.80
   9  -3   6   30.33    2.43
  -9   3   6   30.84    2.40
   9   3  -6   29.54    2.66
  -9  -3  -6   27.91    2.42
  -9  -3  -6   30.48    2.79
   9  -3  -6   29.96    2.60
  -9   3  -6   39.44    2.55
  -9  -3   6   28.83    2.33
  -9   3  -6   30.44    2.72
 -11  -3  -6   13.19    1.24
  11   3  -6   15.10    1.38
 -11  -3  -6   11.86    1.05
 -11   3   6   13.92    1.20
 -11   3  -6   17.60    1.45
  11  -3  -6   14.23    1.30
 -11  -3   6   12.03    1.13
  13   3  -6    6.11    0.77
 -13   3   6    5.62    0.68
 -13  -3   6    5.26    0.65
  13  -3  -6    6.70    0.79
 -15   3   6    3.44    0.53
 -15  -3   6    3.97    0.54
  15  -3  -6    4.11    0.61
   0  -4   6  738.93   52.97
   0   4   6  821.73   49.17
   0   4   6  757.55   49.20
   0  -4   6  691.22   49.25
   0   4  -6  610.11   47.54
   0  -4  -6  625.74   51.81
   0   4  -6  618.90   51.71
   2   4  -6  141.78   11.17
  -2  -4  -6  148.54   10.70
  -2   4   6  140.19   10.63
  -2  -4  -6  151.80   11.25
   2   4  -6  135.52   10.26
   2  -4   6  160.02   11.45
   2  -4   6  158.62   10.66
  -2   4   6  142.88   10.59
  -2  -4   6  146.31   11.47
  -2   4  -6  156.27   10.67
   2  -4  -6  142.98   11.27
   2   4   6  140.80   10.65
  -2   4  -6  146.08   10.25
   2   4   6  164.34   12.31
   2   4   6  142.63   10.60
  -2  -4   6  152.76   10.69
  -4   4   6  557.92   40.37
   4   4  -6  420.85   36.47
   4  -4   6  495.98   34.75
  -4  -4  -6  496.81   40.30
  -4  -4  -6  459.32   34.87
  -4   4   6  463.34   34.66
   4  -4   6  554.46   37.35
  -4  -4  -6  504.47   36.49
   4   4   6  499.13   34.75
  -4  -4   6  539.27   37.39
  -4  -4   6  415.02   34.67
  -4   4  -6  484.05   36.45
  -4   4  -6  483.68   33.50
   4  -4  -6  537.62   37.47
  -4  -4   6  453.10   34.71
   4  -4  -6  502.73   36.58
   4   4   6  476.65   34.71
  -4   4  -6  475.26   34.85
  -6  -4  -6   48.76    3.79
  -6  -4  -6   52.66    4.32
   6  -4   6   52.96    3.96
   6   4  -6   43.90    3.88
  -6   4   6   54.60    3.83
   6  -4   6   50.71    3.77
   6  -4  -6   50.95    4.07
  -6  -4   6   53.83    3.70
   6   4   6   50.08    3.70
   6  -4  -6   46.76    3.91
  -6  -4   6   42.19    4.01
   6   4   6   55.42    3.73
  -6  -4   6   46.71    3.68
  -6   4  -6   53.58    3.79
  -8   4   6  287.35   20.12
   8  -4   6  316.44   20.16
  -8  -4  -6  285.16   23.31
  -8  -4  -6  307.07   20.19
   8  -4   6  286.36   21.54
   8  -4  -6  296.59   21.66
  -8  -4   6  244.42   19.99
   8   4   6  255.05   20.02
  -8  -4   6  253.17   20.01
   8   4   6  291.85   20.06
 -10   4   6   40.42    2.92
  10   4  -6   34.13    3.18
 -10  -4  -6   37.36    2.93
 -10  -4   6   35.72    2.84
  10  -4  -6   41.39    3.14
  12   4  -6  126.97    9.52
 -12   4   6  122.11    8.79
 -12  -4   6  104.48    8.74
  12  -4  -6  134.37    9.50
 -14   4   6    9.79    0.96
  14  -4  -6   11.97    1.07
 -14  -4   6    8.70    0.91
   1   5  -6   12.58    0.95
  -1   5   6   10.99    0.95
  -1  -5  -6   10.68    1.00
   1   5  -6   11.01    1.01
   1  -5   6    9.91    1.00
  -1   5   6   12.92    1.10
  -1  -5  -6   12.07    1.10
   1  -5   6   10.35    1.05
   1   5  -6   11.39    0.93
  -1   5  -6   11.80    1.00
  -1   5  -6   11.97    0.96
  -1   5  -6   12.81    0.93
   1   5   6   11.31    1.07
   1   5   6   10.86    1.00
  -1  -5   6   11.09    1.04
   1   5   6   11.01    0.91
  -1  -5   6    8.30    1.04
   1  -5  -6   13.83    1.16
   3  -5   6   17.18    1.54
  -3  -5  -6   18.45    1.60
  -3  -5  -6   18.97    1.57
   3   5  -6   18.91    1.60
   3   5  -6   18.97    1.47
   3  -5   6   19.09    1.63
  -3   5   6   22.08    1.82
  -3   5   6   16.95    1.53
  -3  -5   6   21.70    1.57
   3   5   6   17.55    1.55
   3  -5  -6   21.02    1.68
  -3   5  -6   20.97    1.56
  -3  -5   6   19.22    1.69
  -3   5  -6   19.57    1.43
  -3   5  -6   19.06    1.52
   3  -5  -6   20.12    1.68
   3   5   6   16.03    1.49
   5   5  -6   12.56    1.29
   5  -5   6   13.85    1.29
  -5  -5  -6   15.17    1.47
  -5   5   6   14.84    1.34
  -5  -5  -6   13.78    1.30
  -5   5   6   17.49    1.56
   5  -5   6   14.68    1.32
   5   5  -6   13.02    1.18
  -5  -5   6   17.03    1.24
  -5  -5   6   15.90    1.25
   5  -5  -6   15.17    1.39
  -5   5  -6   15.26    1.29
  -5   5  -6   16.32    1.16
   5   5   6   15.61    1.25
   5   5   6   17.07    1.30
  -5  -5   6   16.72    1.42
   5  -5  -6   13.86    1.33
  -5   5  -6   15.98    1.26
  -7   5   6    2.19    0.45
   7  -5   6    1.72    0.32
  -7  -5  -6    1.54    0.40
  -7  -5  -6    2.30    0.46
   7  -5   6    1.97    0.47
   7   5   6    1.87    0.32
   7  -5  -6    2.30    0.45
  -7  -5   6    1.97    0.34
  -7  -5   6    2.04    0.34
  -7   5  -6    2.99    0.45
   7   5   6    1.86    0.36
   7  -5  -6    1.85    0.35
  -7  -5   6    1.79    0.42
   9  -5   6   10.39    1.06
  -9  -5  -6   12.10    1.10
  -9   5   6   13.00    1.11
  -9  -5   6   11.14    1.01
   9  -5  -6   10.83    1.14
   9   5   6   11.61    1.03
  -9   5  -6   16.05    1.20
 -11  -5  -6    2.26    0.47
 -11   5   6    2.86    0.48
  11   5  -6    3.88    0.65
 -11  -5   6    2.33    0.40
  11  -5  -6    2.90    0.54
 -11   5  -6    4.50    0.72
 -13   5   6    1.95    0.41
  13  -5  -6    2.94    0.51
 -13  -5   6    1.99    0.39
  13   5   6    2.59    0.47
   0   6  -6  251.16   17.66
   0  -6   6  226.41   18.33
   0  -6  -6  289.32   19.30
   0   6  -6  258.74   18.33
   0  -6  -6  238.47   18.35
   0  -6   6  271.11   19.73
   0   6   6  271.04   18.29
   0   6  -6  252.10   19.21
   2   6  -6  122.67    8.86
   2   6  -6  124.30    9.64
   2  -6   6  130.71    9.22
   2  -6   6  133.04    9.90
  -2  -6  -6  123.08    9.24
  -2  -6  -6  142.00    9.68
   2   6  -6  122.66    9.16
  -2   6   6  125.75    9.17
  -2  -6   6  130.54    9.22
  -2   6  -6  132.36    8.84
   2  -6  -6  138.96    9.71
   2   6   6  112.07    9.20
   2   6   6  135.42   10.64
  -2   6  -6  133.47    9.62
  -2  -6   6  113.48    9.91
  -2   6  -6  126.62    9.20
  -4  -6  -6  225.23   16.01
   4  -6   6  221.13   15.94
   4   6  -6  209.51   15.36
   4   6  -6  212.74   16.71
  -4  -6  -6  248.81   18.53
   4  -6   6  238.55   17.13
  -4   6  -6  223.92   15.32
   4  -6  -6  227.51   17.13
  -4  -6   6  195.65   15.87
   4   6   6  225.98   15.96
  -4  -6   6  231.92   17.16
  -4   6  -6  210.53   15.96
  -4   6  -6  225.11   16.67
   4  -6  -6  231.07   16.75
  -6  -6  -6   98.11    7.09
  -6  -6  -6  108.74    8.21
   6  -6   6   99.30    7.54
  -6   6   6   92.54    7.09
  -6   6   6  112.39    8.24
   6  -6   6   95.34    7.08
   6  -6  -6   95.11    7.36
  -6   6  -6   94.79    7.06
   6   6   6  102.96    7.06
  -6  -6   6   96.00    6.98
   6   6   6   97.19    7.00
  -6  -6   6   83.77    6.96
   6  -6  -6   99.77    7.58
  -6  -6   6   84.68    7.57
  -8   6   6  158.97   11.21
   8  -6   6  154.06   11.96
  -8  -6  -6  160.61   11.22
  -8  -6   6  142.87   11.09
   8   6   6  140.95   11.09
   8  -6  -6  171.22   12.04
   8   6   6  160.19   11.16
 -10  -6  -6   74.95    5.39
  10  -6   6   70.94    5.70
 -10   6   6   79.34    5.39
  10   6  -6   73.88    5.85
  10  -6  -6   78.99    5.79
  10   6   6   71.95    5.33
 -10  -6   6   61.18    5.28
 -12   6   6   87.65    6.34
  12   6   6   91.28    6.36
  12  -6  -6   98.52    6.88
 -12  -6   6   71.80    6.28
 -14  -6   6   30.00    2.83
  14  -6  -6   43.50    3.16
  14   6   6   41.57    2.93
  -1  -7  -6   31.27    2.23
   1   7  -6   27.33    2.06
  -1   7   6   27.06    2.06
   1  -7   6   24.66    2.26
   1   7  -6   28.82    2.18
   1   7  -6   29.38    2.01
  -1  -7  -6   24.17    2.11
  -1   7   6   30.69    2.41
   1  -7   6   22.26    2.12
  -1  -7   6   27.90    2.13
  -1  -7   6   22.72    2.27
  -1   7  -6   27.88    1.98
   1  -7  -6   29.37    2.24
  -1   7  -6   27.43    2.16
   1  -7  -6   28.07    2.10
   1   7   6   26.67    2.10
   1   7   6   28.70    2.39
  -1   7  -6   27.11    2.08
  -3  -7  -6   86.61    6.29
   3  -7   6   92.52    6.27
   3   7  -6   87.31    6.54
   3   7  -6   87.43    6.01
   3  -7   6   86.97    6.71
  -3   7   6   84.02    6.22
  -3  -7  -6   88.98    6.52
   3   7   6   78.42    6.25
  -3   7  -6   81.87    6.23
  -3  -7   6   82.96    6.75
  -3   7  -6   85.29    6.48
  -3  -7   6   79.63    6.20
   3  -7  -6   91.09    6.57
  -3   7  -6   85.11    5.96
   3   7   6   90.64    7.21
   5  -7   6   10.72    1.11
  -5  -7  -6   14.06    1.29
  -5   7   6   13.38    1.33
  -5  -7  -6   11.15    1.08
   5   7  -6   11.91    1.01
  -5   7   6   11.31    1.08
   5   7  -6   12.80    1.11
  -5   7  -6   12.18    1.04
   5  -7  -6   12.86    1.10
   5  -7  -6   13.28    1.17
  -5  -7   6   12.67    1.20
  -5   7  -6   12.31    0.96
  -5   7  -6   11.83    1.06
   5   7   6   11.69    1.08
  -5  -7   6   12.23    1.02
   7  -7   6   37.81    3.09
  -7  -7  -6   39.03    2.95
  -7   7   6   41.02    2.97
  -7  -7  -6   45.63    3.45
   7   7   6   41.49    2.92
  -7   7  -6   37.41    2.92
  -7  -7   6   37.93    2.91
  -7  -7   6   29.66    3.11
   7  -7  -6   38.59    2.99
  -7  -7   6   34.31    2.83
   7  -7  -6   39.93    3.13
  -9  -7  -6    8.47    0.91
  -9   7   6   10.77    0.96
   9  -7   6    9.15    0.93
   9  -7  -6    9.51    1.01
   9   7   6    9.65    0.90
  -9   7  -6   11.16    1.00
  -9  -7   6   10.06    0.87
  -9  -7   6    7.02    1.02
  11  -7   6   21.93    1.99
 -11  -7  -6   23.80    1.92
 -11   7   6   25.59    1.93
  11  -7  -6   26.28    2.09
  11   7   6   24.52    1.91
 -11  -7   6   20.68    1.85
 -13  -7   6    2.39    0.45
  13   7   6    3.27    0.54
  13  -7  -6    3.30    0.56
   0   8  -6   41.89    3.07
   0   8   6   47.22    3.57
   0  -8  -6   45.64    3.27
   0  -8   6   36.90    3.34
   0   8  -6   38.98    3.20
   0  -8  -6   42.54    3.12
   0   8  -6   39.62    2.94
   0   8   6   39.33    3.07
   2   8  -6  302.33   22.00
  -2   8   6  297.36   20.90
  -2  -8  -6  278.20   21.03
  -2  -8  -6  325.00   22.02
   2   8  -6  296.61   20.22
   2  -8   6  323.10   22.56
   2   8   6  286.60   20.96
  -2  -8   6  272.09   22.57
   2   8   6  328.36   24.30
   2  -8  -6  303.32   22.04
  -2   8  -6  271.83   21.95
  -2   8  -6  276.55   20.19
  -2   8  -6  280.82   21.00
  -2  -8   6  282.76   20.90
   4   8  -6   70.63    5.50
   4   8  -6   72.14    5.05
  -4  -8  -6   74.75    5.31
   4  -8   6   72.45    5.65
  -4   8   6   66.13    5.24
  -4   8  -6   71.55    5.44
   4  -8  -6   73.32    5.51
  -4  -8   6   65.75    5.18
  -4  -8   6   75.58    5.70
   4   8   6   74.10    6.07
  -4   8  -6   72.96    5.00
  -4   8  -6   70.15    5.25
   4   8   6   75.33    5.30
  -6  -8  -6  290.42   18.98
   6  -8   6  280.01   20.31
  -6   8   6  240.29   18.89
  -6   8  -6  271.65   18.94
   6   8   6  269.94   18.91
  -6  -8   6  240.21   20.31
   6  -8  -6  258.43   19.80
   6  -8  -6  267.36   20.31
  -8  -8  -6   42.43    3.16
   8  -8   6   39.21    3.33
  -8   8   6   44.57    3.19
   8  -8  -6   41.26    3.37
  -8   8  -6   46.68    3.19
  -8  -8   6   33.03    3.37
   8   8   6   42.46    3.15
 -10  -8  -6  150.64   10.08
 -10   8   6  135.55   10.04
  10  -8   6  125.63   10.74
  10   8   6  136.25   10.04
  10  -8  -6  147.56   10.81
 -12  -8  -6   24.34    1.95
  12  -8   6   21.52    1.97
  12   8   6   25.07    1.92
  12  -8  -6   27.70    2.09
 -12  -8   6   19.51    1.84
  -1   9   6    0.85    0.29
  -1   9   6    0.47    0.17
  -1  -9  -6    1.28    0.30
   1  -9   6    0.36    0.23
   1   9  -6    1.26    0.23
  -1  -9  -6    0.82    0.27
   1   9  -6    1.27    0.25
  -1  -9   6    0.52    0.27
   1  -9  -6    0.72    0.25
  -1   9  -6    0.78    0.19
  -1   9  -6    0.72    0.22
  -1   9  -6    0.73    0.20
   1   9   6    0.41    0.20
   1  -9  -6    1.13    0.26
   1   9   6    0.91    0.28
  -3  -9  -6    6.80    0.76
   3  -9   6    6.38    0.77
  -3   9   6   10.13    0.94
   3   9  -6    7.86    0.69
  -3   9   6    6.41    0.69
   3   9  -6    8.38    0.76
  -3  -9  -6    6.61    0.74
  -3   9  -6    7.45    0.71
  -3   9  -6    8.13    0.71
   3   9   6    6.76    0.74
  -3   9  -6    8.24    0.65
  -3  -9   6    8.72    0.69
   3   9   6    7.64    0.82
   3  -9  -6    7.98    0.79
  -3  -9   6    7.52    0.87
  -5   9   6    0.39    0.22
   5   9  -6    0.40    0.24
  -5  -9  -6    0.16    0.24
   5  -9   6    1.86    0.34
  -5   9   6    0.13    0.35
   5   9  -6    0.37    0.21
  -5   9  -6    0.11    0.18
   5   9   6    0.37    0.25
  -5  -9   6   -0.04    0.27
  -5   9  -6    0.42    0.23
  -5   9  -6    0.28    0.20
   5   9   6    0.25    0.28
   7  -9   6    3.00    0.51
  -7  -9  -6    3.96    0.57
  -7   9   6    3.69    0.55
   7   9   6    3.52    0.52
  -7  -9   6    2.70    0.57
  -7   9  -6    4.16    0.55
   7  -9  -6    5.08    0.64
   9  -9   6    0.67    0.27
  -9  -9  -6    0.20    0.24
  -9   9  -6    0.36    0.31
   9   9   6    0.54    0.29
   9  -9  -6    0.64    0.33
 -11  -9  -6    2.99    0.54
  11  -9   6    3.18    0.53
  11  -9  -6    3.93    0.62
  11   9   6    2.72    0.52
  13  -9   6    0.12    0.26
 -13  -9   6    0.10    0.30
  13  -9  -6    0.17    0.34
  13   9   6    0.66    0.36
   0  10   6   48.91    3.71
   0 -10   6   39.82    3.48
   0  10  -6   40.40    3.31
   0 -10  -6   42.71    3.21
   0  10  -6   40.65    3.18
   0 -10  -6   47.34    3.38
   0  10   6   41.29    3.16
   0  10  -6   42.21    3.04
  -2 -10  -6  122.89    9.58
  -2 -10  -6  139.22   10.01
   2  10  -6  135.07   10.00
   2  10  -6  133.25    9.19
  -2  10   6  135.69    9.49
   2 -10   6  129.98   10.28
   2  10   6  131.33    9.55
  -2  10  -6  130.37    9.56
  -2 -10   6  118.56   10.30
   2  10   6  143.96   11.05
  -2 -10   6  128.43    9.51
   2 -10  -6  142.52   10.05
  -4  10   6   54.32    4.13
   4 -10   6   55.20    4.48
  -4 -10  -6   60.00    4.22
  -4  10  -6   56.77    4.16
   4  10   6   50.17    4.17
  -4 -10   6   61.42    4.56
  -6 -10  -6  143.82    9.65
  -6  10   6  128.44    9.58
   6 -10   6  135.06   10.31
   6  10   6  130.26    9.60
  -6 -10   6  122.44   10.32
  -6  10  -6  136.40    9.60
   8 -10   6   49.22    4.19
  -8 -10  -6   51.52    3.93
   8 -10  -6   54.99    4.21
   8  10   6   53.04    3.93
  -8  10  -6   51.61    3.92
 -10 -10  -6   95.67    7.11
  10 -10   6   84.89    7.59
 -10  10  -6  114.24    7.20
  10  10   6   90.23    7.10
  10 -10  -6  103.29    7.65
  12 -10   6   31.47    3.03
  12  10   6   37.17    2.90
  12 -10  -6   44.64    3.16
   1 -11   6   13.75    1.35
  -1  11   6   15.68    1.17
  -1 -11  -6   13.69    1.23
  -1  11  -6   15.51    1.22
   1  11   6   13.64    1.18
  -1 -11   6   13.13    1.37
   1 -11  -6   15.62    1.21
   3 -11   6   23.14    2.27
  -3 -11  -6   24.28    2.13
  -3  11   6   29.88    2.08
   3  11   6   27.35    2.13
  -3  11  -6   27.70    2.12
  -3 -11   6   27.18    2.05
  -3 -11   6   31.43    2.40
  -5 -11  -6   14.38    1.25
   5 -11   6   13.19    1.31
  -5 -11   6   11.93    1.35
   5  11   6   15.15    1.24
  -5  11  -6   14.54    1.21
  -7 -11  -6    9.52    0.90
   7 -11   6    9.65    0.97
  -7  11  -6    8.28    0.87
   7  11   6    8.15    0.90
  -9 -11  -6   13.63    1.19
   9 -11   6   12.40    1.27
   9  11   6   11.39    1.19
   9 -11  -6   14.15    1.33
  -9  11  -6   14.39    1.25
 -11 -11  -6    6.82    0.84
  11 -11  -6    9.39    1.03
  11  11   6    7.74    0.93
   0  12  -6  198.99   13.89
   0 -12   6  205.03   14.97
   0 -12  -6  177.54   13.87
   0  12   6  193.78   13.79
  -2 -12  -6   58.60    4.60
   2 -12   6   61.30    4.96
  -2  12   6   66.00    4.52
  -2 -12   6   61.77    4.54
   2  12   6   63.10    4.56
  -2 -12   6   61.45    5.01
  -2  12  -6   61.85    4.59
   4 -12   6  153.61   11.71
  -4 -12  -6  156.71   10.92
  -4  12  -6  145.97   10.88
   4  12   6  137.38   10.84
  -4 -12   6  162.28   11.76
  -6 -12  -6   36.82    2.71
   6 -12   6   34.82    2.89
  -6  12  -6   33.98    2.66
   6  12   6   32.74    2.68
   8 -12   6  111.44    8.88
  -8 -12  -6  116.97    8.27
   8  12   6  105.21    8.25
  -8  12  -6  120.07    8.28
 -10 -12  -6   30.39    2.33
  10 -12   6   25.86    2.48
  10  12   6   28.50    2.36
 -10  12  -6   33.29    2.44
  -1 -13  -6    0.25    0.23
   1 -13   6    1.10    0.39
   1 -13  -6    0.91    0.25
   1  13   6    0.42    0.19
  -1  13  -6    0.23    0.21
  -1 -13   6    0.08    0.31
  -3 -13  -6    0.14    0.21
   3 -13   6    0.10    0.28
  -3 -13   6    0.25    0.19
   3  13   6    0.19    0.19
  -3  13  -6    0.20    0.22
   5 -13   6    1.05    0.38
  -5 -13  -6    0.92    0.33
  -5  13  -6    1.10    0.31
   5  13   6    1.28    0.32
  -7 -13  -6    0.20    0.28
   7 -13   6    0.83    0.37
   7  13   6    0.19    0.28
  -7  13  -6    0.57    0.31
   9 -13   6    0.71    0.38
  -9 -13  -6    0.91    0.34
   9  13   6    1.10    0.37
  -9  13  -6    1.56    0.46
   0 -14  -6  104.30    7.33
   0  14  -6  101.38    7.34
   0 -14   6   96.44    7.94
  -2 -14  -6   33.63    2.65
   2 -14   6   34.00    2.92
   2  14   6   35.44    2.60
  -2  14  -6   35.11    2.66
   4 -14   6   81.42    6.28
  -4 -14  -6   82.83    5.82
  -4  14  -6   78.18    5.81
   4  14   6   74.21    5.75
  -6 -14  -6   27.25    2.13
   6 -14   6   26.35    2.33
  -6  14  -6   28.45    2.13
   6  14   6   24.83    2.11
  -8 -14  -6   68.25    4.77
   8 -14   6   62.58    5.16
   8  14   6   56.86    4.76
  -8  14  -6   68.60    4.81
   1  15  -6    5.40    0.62
  -1 -15  -6    4.35    0.58
   1 -15   6    4.27    0.74
  -1  15  -6    5.81    0.65
   1 -15  -6    4.83    0.59
  -3 -15  -6   14.51    1.23
   3 -15   6   13.96    1.41
  -3  15  -6   13.70    1.23
   5 -15   6    2.85    0.56
  -5 -15  -6    2.68    0.45
  -5  15  -6    2.46    0.45
   5  15   6    2.76    0.43
  -7 -15  -6    8.00    0.84
   7 -15   6    8.28    1.07
  -7  15  -6    9.02    0.93
   0  16  -6   23.85    1.95
   0 -16  -6   24.88    1.93
   2 -16   6   70.87    5.80
  -2 -16  -6   72.51    5.30
   2  16  -6   73.74    5.31
  -2  16  -6   70.90    5.32
  -4 -16  -6   27.62    2.19
   4 -16   6   28.94    2.49
  -4  16  -6   27.30    2.20
  -1 -17  -6   -0.06    0.23
   1  17  -6   -0.24    0.23
  -1  17  -6    0.06    0.27
   3 -17   6    0.11    0.52
   3  17  -6   -0.06    0.26
   0   0  -7    0.25    0.27
   0   0   7    0.03    0.14
  -2   0   7    0.08    0.18
  -2   0  -7    0.19    0.28
   2   0   7    0.17    0.18
   2   0  -7    0.35    0.31
  -2   0  -7    0.06    0.25
  -2   0   7   -0.10    0.15
  -2   0   7    0.28    0.26
  -4   0  -7    0.51    0.34
   4   0  -7   -0.41    0.27
  -4   0   7   -0.19    0.18
   4   0   7    0.24    0.23
  -4   0  -7    0.11    0.26
  -4   0   7    0.34    0.24
  -4   0   7    0.41    0.30
   6   0   7    0.26    0.22
  -6   0  -7   -0.04    0.25
  -6   0   7   -0.12    0.20
  -6   0   7   -0.05    0.18
   6   0  -7    0.20    0.32
   8   0   7    0.11    0.24
  -8   0   7   -0.06    0.20
  -8   0  -7    0.41    0.36
  -8   0   7    0.29    0.25
   8   0  -7   -0.11    0.28
 -10   0  -7    0.79    0.44
  10   0  -7    0.02    0.31
 -10   0   7   -0.14    0.23
  12   0  -7    0.07    0.32
 -12   0   7    1.18    0.35
 -12   0  -7    0.23    0.44
 -14   0   7    0.17    0.25
  14   0  -7    0.08    0.30
  -1   1   7    5.15    0.51
   1   1  -7    5.48    0.70
   1  -1   7    4.86    0.52
  -1  -1  -7    5.32    0.73
  -1   1   7    5.33    0.59
  -1  -1   7    4.53    0.54
  -1   1  -7    6.17    0.73
   1   1   7    4.98    0.51
  -1  -1   7    4.65    0.56
   1  -1  -7    4.95    0.72
   3   1  -7   10.95    1.07
  -3   1   7   12.95    1.07
   3  -1   7    8.44    0.95
  -3  -1  -7   10.70    1.04
  -3   1   7    9.23    1.02
  -3   1   7   10.34    0.96
  -3  -1  -7   12.95    1.17
  -3  -1   7   10.16    0.98
  -3  -1   7   12.30    1.04
  -3   1  -7   12.92    1.09
  -3   1  -7   10.61    1.02
  -3  -1   7   11.25    1.05
   3   1   7    8.63    0.95
   3   1   7   11.69    0.97
   3  -1  -7   11.11    1.14
   5   1  -7   11.97    1.15
   5  -1   7   10.72    1.04
  -5   1   7   12.42    1.13
  -5  -1  -7   12.03    1.14
  -5   1   7   13.34    1.04
   5  -1  -7    9.85    1.16
  -5  -1   7   13.56    1.12
  -5  -1   7   11.32    1.04
  -5   1  -7   12.94    1.12
  -5  -1   7   12.29    1.12
   5   1   7   11.96    1.04
   5   1   7    9.91    1.03
   7  -1   7    0.75    0.30
  -7   1   7    0.51    0.23
  -7   1   7    0.76    0.33
  -7  -1  -7    0.40    0.33
   7   1   7    0.59    0.25
  -7  -1   7    0.72    0.24
  -7  -1   7    0.86    0.29
   7  -1  -7    0.69    0.41
  -7   1  -7    0.99    0.37
  -9  -1  -7    8.62    1.03
   9   1  -7    7.75    1.08
  -9   1   7    9.69    0.93
  -9   1  -7    9.37    1.07
  -9  -1   7    9.47    0.88
   9  -1  -7    8.13    1.06
 -11   1   7    2.12    0.43
  11   1  -7    1.74    0.49
 -11  -1  -7    1.53    0.47
 -11  -1   7    1.68    0.36
  11  -1  -7    1.89    0.46
 -11   1  -7    1.33    0.52
 -13   1   7    0.73    0.30
  13   1  -7    0.62    0.32
  13  -1  -7    0.59    0.35
 -13  -1   7    0.61    0.28
  15   1  -7    1.65    0.43
 -15   1   7    1.16    0.42
  15  -1  -7    1.19    0.44
   0   2   7   62.25    4.36
   0  -2   7   51.00    4.70
   0   2   7   65.48    4.35
   0  -2  -7   60.70    4.76
   0   2  -7   55.87    4.64
   0  -2   7   59.45    4.38
  -2   2   7   72.01    5.41
   2  -2   7   79.73    5.44
   2   2  -7   73.82    5.75
  -2  -2  -7   70.52    5.49
  -2  -2  -7   74.31    5.82
  -2   2   7   71.62    5.45
   2  -2   7   79.23    5.84
  -2   2  -7   69.40    5.72
   2  -2  -7   62.62    5.80
   2   2   7   76.04    5.42
  -2  -2   7   71.63    5.47
  -2  -2   7   86.78    5.86
  -2   2  -7   70.47    5.47
   2   2   7   77.78    5.42
   4   2  -7   16.09    1.43
  -4   2   7   16.68    1.32
  -4  -2  -7   15.50    1.51
   4  -2   7   19.07    1.41
   4  -2   7   13.03    1.33
  -4   2   7   13.30    1.38
  -4  -2  -7   15.91    1.43
   4  -2  -7   15.64    1.56
  -4  -2   7   17.26    1.38
  -4   2  -7   15.20    1.37
   4   2   7   17.43    1.37
  -4  -2   7   17.42    1.44
  -4  -2   7   14.40    1.34
  -4   2  -7   16.17    1.41
   4   2   7   14.56    1.33
   4  -2  -7   14.80    1.52
   6  -2   7   60.40    4.53
  -6   2   7   60.58    4.58
  -6  -2  -7   59.01    4.59
   6   2  -7   60.38    4.74
  -6   2   7   62.66    4.46
   6  -2  -7   56.67    4.80
  -6  -2   7   58.39    4.84
   6   2   7   64.73    4.48
   6  -2  -7   58.47    4.94
  -6   2  -7   59.44    4.56
  -6  -2   7   63.18    4.49
  -6  -2   7   63.64    4.51
   6   2   7   62.11    4.50
  -8   2   7   27.39    2.20
  -8  -2  -7   27.73    2.36
   8   2  -7   27.57    2.55
  -8   2   7   30.43    2.34
   8  -2   7   29.65    2.31
  -8  -2  -7   28.68    2.65
   8   2   7   28.37    2.21
   8  -2  -7   28.88    2.54
  -8  -2   7   30.12    2.27
  -8  -2   7   29.69    2.23
   8   2   7   27.45    2.24
  -8   2  -7   32.90    2.37
 -10  -2  -7    5.58    0.83
 -10   2   7    7.24    0.84
  10   2  -7    6.05    0.90
 -10  -2   7    7.28    0.73
 -10   2  -7    8.42    0.94
  10  -2  -7    6.44    0.88
 -12   2   7   17.35    1.42
  12   2  -7   15.21    1.57
 -12  -2  -7   16.43    1.50
 -12   2  -7   19.26    1.67
 -12  -2   7   14.37    1.37
  12  -2  -7   17.13    1.55
  14   2  -7    6.88    0.85
 -14   2   7    6.27    0.77
 -14  -2   7    5.29    0.70
  14  -2  -7    6.39    0.82
  -1   3   7    7.33    0.61
  -1   3   7    6.10    0.60
  -1  -3  -7    5.79    0.66
   1   3  -7    6.15    0.72
  -1  -3  -7    6.45    0.87
   1  -3   7    5.90    0.69
   1  -3   7    6.13    0.63
  -1   3  -7    6.93    0.73
  -1  -3   7    6.14    0.71
  -1   3  -7    6.77    0.68
   1  -3  -7    5.40    0.85
  -1   3  -7    6.02    0.62
   1   3   7    6.34    0.62
  -1  -3   7    5.51    0.69
   1   3   7    6.42    0.59
   3  -3   7   13.62    1.06
  -3   3   7   11.06    0.94
  -3  -3  -7   11.26    1.03
  -3   3   7   10.62    1.02
   3   3  -7    9.56    1.02
  -3  -3  -7    9.95    1.14
   3  -3   7   10.64    0.98
  -3  -3   7   11.45    0.98
  -3  -3   7   12.21    1.05
   3   3   7    9.16    0.93
   3  -3  -7   11.58    1.18
  -3   3  -7   11.18    0.92
   3  -3  -7   10.19    1.15
  -3  -3   7   11.14    1.03
  -3   3  -7   10.89    1.00
  -3   3  -7   11.29    1.02
   3   3   7   10.20    1.00
   5  -3   7    9.64    1.06
  -5   3   7   13.09    1.03
  -5  -3  -7    9.65    1.08
  -5  -3  -7   10.47    1.15
   5   3  -7   12.25    1.12
   5  -3   7   13.17    1.09
  -5   3   7   12.00    1.14
   5  -3  -7   13.17    1.23
  -5  -3   7   12.60    1.07
  -5  -3   7   12.84    1.07
   5   3   7   12.88    1.07
  -5  -3   7   12.29    1.13
   5  -3  -7   12.02    1.27
   5   3   7   11.95    1.06
  -5   3  -7   12.67    1.10
  -7   3   7    0.39    0.28
  -7  -3  -7    0.45    0.33
  -7   3   7    0.43    0.22
  -7  -3  -7    1.09    0.33
   7  -3   7    0.34    0.28
   7   3   7    0.76    0.26
   7  -3  -7    0.73    0.33
  -7  -3   7    0.59    0.23
   7  -3  -7    0.28    0.31
  -7   3  -7    0.71    0.30
  -7  -3   7    0.40    0.29
  -7  -3   7    0.09    0.20
   7   3   7    0.87    0.25
   9   3  -7    9.54    1.19
  -9   3   7    9.50    0.96
  -9  -3  -7    8.71    0.95
   9   3   7    8.93    0.84
   9  -3  -7    8.64    1.06
  -9   3  -7    9.59    0.97
  -9  -3   7    9.37    0.88
 -11  -3  -7    1.51    0.44
  11   3  -7    2.19    0.56
 -11   3   7    2.45    0.48
 -11   3  -7    2.56    0.58
  11  -3  -7    1.45    0.45
 -11  -3   7    1.93    0.40
  13   3  -7    1.18    0.44
 -13   3   7    1.21    0.35
 -13  -3   7    0.79    0.32
  13  -3  -7    1.11    0.39
   0   4  -7    0.36    0.20
   0  -4   7    1.19    0.30
   0  -4  -7    0.65    0.40
   0   4   7    0.31    0.20
   0   4   7    0.41    0.15
   0   4  -7    0.60    0.21
   0  -4   7    0.26    0.24
   0   4  -7    0.42    0.23
   0  -4  -7    0.76    0.24
  -2   4   7    0.10    0.16
  -2  -4  -7    0.05    0.27
  -2  -4  -7    0.29    0.25
   2   4  -7    0.21    0.23
   2   4  -7    0.26    0.25
   2  -4   7    0.20    0.18
   2  -4   7    0.13    0.22
  -2   4   7   -0.26    0.15
   2  -4  -7    0.06    0.36
   2   4   7   -0.01    0.16
   2   4   7    0.27    0.23
  -2   4  -7    0.01    0.22
  -2  -4   7    0.37    0.27
  -2   4  -7    0.01    0.18
  -2   4  -7    0.05    0.21
  -2  -4   7   -0.02    0.20
   4  -4   7    1.04    0.31
   4  -4   7    1.36    0.28
  -4   4   7    0.65    0.28
   4   4  -7    0.63    0.27
  -4  -4  -7    0.78    0.29
  -4  -4  -7    1.26    0.37
  -4  -4  -7    3.51    0.48
   4  -4  -7    1.24    0.44
  -4  -4   7    1.33    0.31
  -4   4  -7    0.88    0.27
  -4  -4   7    1.13    0.32
  -4   4  -7    1.08    0.27
  -4  -4   7    1.02    0.27
  -4   4  -7    1.05    0.29
   4  -4  -7    1.55    0.46
   4   4   7    0.79    0.26
   4   4   7    0.91    0.30
   6   4  -7    0.22    0.25
   6  -4   7    0.38    0.21
  -6  -4  -7    0.56    0.26
   6  -4   7    0.26    0.25
  -6   4   7    0.96    0.31
  -6  -4  -7    0.43    0.28
   6   4   7    0.66    0.25
   6  -4  -7    0.37    0.33
  -6  -4   7    0.01    0.19
   6   4   7    0.32    0.24
   6  -4  -7    0.30    0.31
  -6   4  -7    0.36    0.25
  -6  -4   7    0.19    0.23
  -6  -4   7    0.06    0.23
   8  -4   7    0.41    0.39
  -8   4   7    0.29    0.28
  -8  -4  -7   -0.12    0.27
  -8  -4  -7    0.27    0.25
  -8  -4   7    0.68    0.35
   8   4   7    0.15    0.23
   8  -4  -7    0.03    0.26
   8   4   7    0.62    0.23
  -8   4  -7    0.12    0.27
  -8  -4   7    0.22    0.23
  10   4  -7    1.32    0.48
 -10   4   7    0.75    0.34
 -10  -4  -7    0.48    0.33
  10  -4  -7    0.59    0.34
 -10   4  -7    0.59    0.37
 -10  -4   7    0.30    0.23
  10   4   7    0.09    0.22
 -12  -4  -7   -0.29    0.32
 -12   4   7   -0.02    0.27
  12   4  -7   -0.01    0.33
 -12  -4   7    0.21    0.24
  12   4   7    0.15    0.30
  12  -4  -7    0.30    0.30
 -14   4   7   -0.01    0.29
  14   4  -7    0.32    0.36
  14  -4  -7    0.03    0.29
 -14  -4   7   -0.10    0.25
   1   5  -7    5.81    0.55
  -1  -5  -7    7.87    0.83
   1  -5   7    5.94    0.65
   1  -5   7    5.81    0.71
  -1  -5  -7    5.36    0.64
   1   5  -7    6.39    0.64
  -1   5   7    5.88    0.54
   1   5  -7    5.69    0.60
   1  -5  -7    5.51    0.74
  -1   5  -7    5.43    0.56
  -1  -5   7    5.54    0.69
  -1   5  -7    5.27    0.61
  -1  -5   7    3.75    0.62
  -1   5  -7    5.05    0.55
   1   5   7    5.43    0.57
   1   5   7    5.88    0.60
   3  -5   7   11.24    0.99
   3   5  -7    9.94    0.97
   3  -5   7    9.41    0.91
   3   5  -7    9.98    0.87
  -3   5   7    9.10    0.89
  -3  -5  -7    9.11    0.94
  -3  -5  -7   10.67    1.01
  -3   5  -7   10.91    0.94
   3   5   7    9.66    1.00
  -3   5  -7   11.90    0.87
  -3  -5   7   11.82    1.00
   3   5   7    9.11    0.94
  -3  -5   7   10.43    1.01
  -3   5  -7    9.30    0.90
   3  -5  -7   10.56    1.05
   3   5   7   10.80    0.90
  -5   5   7   13.29    1.25
   5  -5   7   15.97    1.29
  -5  -5  -7   15.99    1.42
  -5  -5  -7   13.77    1.26
   5   5  -7   11.98    1.26
   5  -5   7   12.89    1.24
  -5  -5   7   13.26    1.21
   5   5   7   14.92    1.25
   5  -5  -7   15.43    1.38
  -5  -5   7   14.56    1.33
  -5   5  -7   13.14    1.21
   5   5   7   14.57    1.21
   5  -5  -7   14.79    1.32
  -5   5  -7   14.59    1.13
  -5   5  -7   15.85    1.24
   7  -5   7    0.86    0.40
  -7   5   7    0.48    0.31
  -7  -5  -7    0.68    0.31
  -7  -5  -7    0.70    0.31
   7  -5   7    0.75    0.24
   7   5   7    0.69    0.24
  -7   5  -7    0.65    0.30
  -7  -5   7    0.94    0.28
   7  -5  -7    0.47    0.28
  -7  -5   7    0.78    0.25
   7  -5  -7    0.72    0.34
   7   5   7    0.34    0.23
  -7  -5   7    0.83    0.33
  -9  -5  -7   11.36    1.11
   9  -5   7   10.69    1.05
  -9   5   7   13.26    1.17
   9  -5  -7   12.68    1.20
   9   5   7   12.46    1.04
  -9   5  -7   14.65    1.16
  -9  -5   7    8.76    1.00
 -11  -5  -7    1.92    0.45
 -11   5   7    1.58    0.43
  11   5  -7    1.34    0.48
  11   5   7    1.53    0.36
 -11   5  -7    1.38    0.48
  11  -5  -7    2.08    0.47
 -11  -5   7    1.54    0.38
 -13   5   7    1.48    0.38
  13   5  -7    1.61    0.50
  13   5   7    0.80    0.41
  13  -5  -7    1.38    0.42
 -13  -5   7    1.30    0.37
   0  -6   7   48.22    4.32
   0   6   7   53.90    3.97
   0   6  -7   54.81    3.85
   0   6  -7   54.65    4.19
   0  -6  -7   59.05    4.28
   0   6   7   63.13    4.59
   0  -6   7   47.47    4.04
   0   6  -7   52.34    3.98
  -2  -6  -7   55.93    4.51
   2  -6   7   60.08    4.84
  -2  -6  -7   66.90    4.75
   2   6  -7   62.64    4.71
   2   6  -7   59.20    4.32
   2  -6   7   63.35    4.50
  -2   6   7   60.12    4.44
  -2   6  -7   61.95    4.30
  -2  -6   7   59.21    4.53
  -2   6  -7   63.94    4.68
   2   6   7   58.72    4.49
   2   6   7   64.74    5.14
  -2   6  -7   60.05    4.47
  -2  -6   7   53.76    4.83
   2  -6  -7   64.47    4.78
   4   6  -7   18.62    1.51
   4  -6   7   20.45    1.60
   4   6  -7   17.93    1.64
  -4  -6  -7   17.91    1.59
   4  -6   7   20.30    1.69
  -4   6   7   18.52    1.57
  -4   6  -7   21.17    1.48
  -4  -6   7   20.74    1.72
   4   6   7   18.41    1.60
  -4  -6   7   19.28    1.59
  -4   6  -7   20.75    1.61
  -4   6  -7   18.22    1.56
   4   6   7   19.04    1.79
   4  -6  -7   21.92    1.71
  -6   6   7   48.25    3.84
  -6  -6  -7   51.25    3.84
   6  -6   7   51.08    4.04
  -6  -6  -7   56.61    4.42
   6  -6   7   51.84    3.84
   6   6   7   52.13    3.81
  -6  -6   7   46.88    3.75
  -6   6  -7   48.76    3.80
   6  -6  -7   54.12    4.11
   6  -6  -7   49.83    3.97
  -6  -6   7   48.31    4.07
  -8  -6  -7   22.12    2.10
  -8   6   7   31.17    2.20
   8  -6   7   24.70    2.18
   8   6   7   27.79    2.09
   8  -6  -7   30.14    2.30
  -8   6  -7   27.77    2.14
  -8  -6   7   23.18    2.25
  -8  -6   7   26.15    2.06
 -10  -6  -7    9.57    0.89
  10  -6   7    6.39    0.77
  10   6  -7    7.82    1.03
 -10   6   7    9.40    0.88
 -10   6  -7    9.70    0.93
 -10  -6   7    7.04    0.77
  10  -6  -7    7.11    0.91
  10   6   7    6.80    0.75
 -12  -6  -7   16.59    1.40
 -12   6   7   15.53    1.36
 -12  -6   7   13.12    1.29
  12   6   7   14.63    1.30
  12  -6  -7   16.40    1.47
 -14   6   7    6.31    0.74
  14   6   7    5.81    0.74
 -14  -6   7    5.92    0.74
  14  -6  -7    5.92    0.84
   1  -7   7    6.38    0.78
   1  -7   7    6.42    0.77
  -1  -7  -7    7.45    0.72
   1   7  -7    5.85    0.60
   1   7  -7    6.72    0.68
  -1   7   7    6.68    0.71
  -1  -7  -7    6.82    0.74
   1   7  -7    5.93    0.59
  -1   7   7    6.46    0.60
  -1  -7   7    5.86    0.78
  -1  -7   7    6.80    0.79
   1   7   7    7.06    0.70
  -1   7  -7    6.01    0.64
   1  -7  -7    6.78    0.78
  -1   7  -7    6.31    0.63
   1   7   7    6.11    0.64
  -1   7  -7    7.00    0.61
  -3  -7  -7   11.48    0.98
   3  -7   7   10.03    0.96
  -3  -7  -7    9.37    0.94
   3   7  -7   11.66    0.98
  -3   7   7    9.99    0.89
   3  -7   7   10.09    0.99
   3   7  -7   10.10    0.88
  -3  -7   7   10.10    0.95
  -3   7  -7   10.18    0.91
  -3  -7   7    9.13    1.01
   3   7   7   10.50    0.95
   3  -7  -7    9.98    1.00
  -3   7  -7    9.57    0.89
  -3   7  -7   10.52    0.84
   3   7   7    9.77    1.01
   5   7  -7    7.74    0.71
  -5  -7  -7    7.66    0.80
   5   7  -7    7.31    0.78
   5  -7   7    6.78    0.78
  -5   7   7    6.23    0.78
   5   7   7    7.62    0.91
   5   7   7    8.16    0.80
  -5  -7   7    7.12    0.75
  -5  -7   7    7.56    0.83
   5  -7  -7    8.20    0.81
  -5   7  -7    7.32    0.75
  -5   7  -7    8.05    0.74
  -5   7  -7    7.98    0.68
  -7   7   7    2.04    0.43
   7  -7   7    1.65    0.35
  -7  -7  -7    1.99    0.40
   7  -7  -7    3.91    0.55
   7   7   7    1.67    0.37
  -7   7  -7    1.51    0.38
  -7  -7   7    1.69    0.42
   9  -7   7    5.53    0.67
  -9  -7  -7    5.41    0.71
  -9   7   7    6.01    0.74
   9  -7  -7    5.67    0.76
  -9   7  -7    6.91    0.78
  -9  -7   7    5.59    0.64
   9   7   7    4.91    0.65
  -9  -7   7    4.03    0.72
 -11   7   7    2.65    0.51
 -11  -7  -7    2.81    0.55
  11  -7   7    2.12    0.43
  11  -7  -7    3.88    0.63
  11   7   7    3.02    0.49
 -11  -7   7    2.34    0.46
 -11   7  -7    3.67    0.62
  13   7   7    0.80    0.41
  13  -7  -7    0.67    0.36
 -13  -7   7    0.66    0.40
   0   8  -7    0.01    0.14
   0  -8   7    0.24    0.32
   0  -8  -7    0.11    0.22
   0  -8  -7   -0.08    0.23
   0   8   7    0.20    0.20
   0   8  -7    0.11    0.16
   0  -8   7    0.02    0.21
   0   8  -7    0.22    0.18
   0   8   7    0.18    0.16
  -2  -8  -7    0.65    0.31
  -2   8   7    0.41    0.17
   2   8  -7    0.58    0.23
   2   8  -7    0.78    0.26
   2  -8   7    0.45    0.26
  -2   8   7    0.76    0.30
  -2  -8  -7    0.71    0.27
   2   8  -7    0.41    0.16
  -2   8  -7    0.62    0.21
  -2  -8   7    0.90    0.34
   2   8   7    0.26    0.20
   2   8   7    0.54    0.25
  -2   8  -7    0.61    0.19
  -2   8  -7    0.42    0.19
  -2  -8   7    0.63    0.33
   2  -8  -7    1.21    0.33
   4  -8   7    0.72    0.25
   4   8  -7    0.60    0.24
  -4   8   7    0.65    0.22
   4   8  -7    0.96    0.29
  -4  -8  -7    0.56    0.29
  -4  -8   7    0.78    0.32
  -4   8  -7    0.34    0.22
   4   8   7    1.01    0.34
   4   8   7    0.25    0.23
  -4   8  -7    0.60    0.22
  -4   8  -7    0.50    0.21
   4  -8  -7    1.29    0.34
  -4  -8   7    0.40    0.26
  -6  -8  -7    0.43    0.30
  -6   8   7    0.52    0.25
   6  -8   7    0.35    0.22
  -6  -8   7    0.54    0.30
   6   8   7    0.47    0.27
  -6   8  -7    0.51    0.27
  -8  -8  -7    0.02    0.27
   8  -8   7    0.77    0.27
  -8   8   7    0.52    0.45
   8  -8  -7    0.49    0.33
   8   8   7    0.33    0.29
  -8  -8   7    0.25    0.31
  -8   8  -7    0.70    0.31
  10  -8   7    1.02    0.30
 -10  -8  -7    0.20    0.27
 -10   8   7    0.43    0.31
 -10   8  -7    0.28    0.34
  10  -8  -7    0.40    0.34
  10   8   7    0.67    0.32
 -12  -8  -7    0.42    0.40
  12  -8   7    0.93    0.33
 -12  -8   7    0.35    0.38
  12   8   7    0.22    0.32
  12  -8  -7    0.57    0.36
   1   9  -7    7.67    0.68
   1   9  -7    7.38    0.67
   1  -9   7    5.95    0.83
   1   9  -7    7.57    0.74
  -1  -9  -7    9.17    0.84
  -1  -9  -7    6.26    0.73
  -1   9   7    8.92    0.84
  -1   9   7    7.46    0.67
  -1   9  -7    7.24    0.64
  -1   9  -7    7.20    0.70
  -1  -9   7    6.37    0.86
   1   9   7    7.02    0.70
   1   9   7    7.84    0.80
   1  -9  -7    8.56    0.82
  -1   9  -7    7.69    0.72
   3  -9   7   12.00    1.17
   3   9  -7   13.66    1.15
  -3  -9  -7   12.80    1.13
  -3  -9  -7   12.09    1.12
   3   9  -7   13.58    1.05
  -3   9   7   13.38    1.04
  -3   9   7   14.00    1.29
   3   9   7   13.73    1.23
  -3  -9   7   11.24    1.20
   3   9   7   11.64    1.09
  -3   9  -7   10.60    1.05
  -3   9  -7   12.25    0.98
  -3   9  -7   11.76    1.07
   5  -9   7   11.83    1.15
  -5  -9  -7   12.84    1.13
  -5   9   7   11.20    1.05
   5   9   7   11.42    1.09
  -5   9  -7   12.14    1.05
  -5  -9   7   12.60    1.19
  -7   9   7    0.90    0.33
   7  -9   7    0.97    0.32
  -7  -9  -7    0.84    0.34
  -7   9  -7    0.84    0.30
  -7  -9   7    1.23    0.40
   7   9   7    1.14    0.35
  -9   9   7   11.85    1.08
  -9  -9  -7   10.61    1.07
   9  -9   7    9.61    1.07
  -9   9  -7   11.87    1.09
   9   9   7   10.75    1.06
   9  -9  -7   11.98    1.15
 -11  -9  -7    2.91    0.54
  11  -9   7    2.65    0.50
 -11   9  -7    4.47    0.70
  11   9   7    3.31    0.54
  11  -9  -7    3.83    0.63
   0 -10  -7   32.28    2.41
   0  10  -7   30.26    2.36
   0  10   7   31.64    2.34
   0 -10   7   30.27    2.62
   2  10  -7   35.92    2.77
  -2 -10  -7   37.37    2.87
  -2 -10  -7   38.99    3.02
  -2  10   7   39.30    2.77
   2 -10   7   34.09    3.06
   2  10   7   37.50    3.25
  -2  10  -7   37.80    2.82
   2  10   7   37.94    2.82
  -2 -10   7   36.79    3.10
  -4 -10  -7   15.49    1.30
  -4  10   7   13.94    1.20
   4 -10   7   14.10    1.36
  -4  10  -7   15.17    1.24
  -4 -10   7   15.62    1.41
   4  10   7   13.74    1.27
  -6  10   7   31.56    2.53
  -6 -10  -7   34.41    2.60
   6 -10   7   31.29    2.73
   6  10   7   32.14    2.58
  -6 -10   7   33.72    2.77
  -6  10  -7   34.24    2.54
   8 -10   7   18.51    1.64
  -8 -10  -7   19.10    1.57
  -8  10  -7   17.05    1.54
  10 -10   7    7.47    0.88
 -10 -10  -7    8.48    0.95
  10  10   7    7.78    0.93
  10 -10  -7    9.28    1.04
 -10  10  -7    9.22    1.00
  12 -10   7   10.12    1.10
 -12 -10  -7   11.39    1.13
  12  10   7   10.85    1.13
  12 -10  -7   13.86    1.28
  -1  11   7    3.54    0.39
  -1 -11  -7    2.49    0.41
   1 -11   7    2.91    0.51
   1  11  -7    2.73    0.38
   1  11   7    2.60    0.38
  -1 -11   7    2.43    0.51
  -1  11  -7    2.55    0.41
   3 -11   7    3.45    0.57
  -3  11   7    4.10    0.45
  -3 -11  -7    3.68    0.55
  -3 -11   7    4.02    0.61
   3  11   7    4.18    0.53
  -3  11  -7    3.15    0.47
   5 -11   7    3.33    0.57
  -5  11   7    3.61    0.48
  -5 -11  -7    3.64    0.57
  -5 -11   7    3.61    0.60
   5  11   7    2.63    0.50
  -5  11  -7    3.64    0.50
  -7 -11  -7    1.35    0.39
   7 -11   7    1.91    0.42
  -7  11  -7    1.22    0.33
   7  11   7    0.79    0.32
   9 -11   7    1.65    0.43
  -9 -11  -7    2.58    0.51
  -9  11  -7    3.15    0.52
   9  11   7    2.38    0.47
  11 -11   7    1.31    0.40
 -11 -11  -7    1.42    0.44
  11  11   7    0.95    0.39
  11 -11  -7    1.52    0.52
   0 -12  -7    1.10    0.29
   0 -12   7    0.59    0.35
   0  12  -7    0.81    0.26
   0  12   7    0.74    0.20
   2  12  -7    2.22    0.34
  -2  12   7    2.32    0.33
  -2 -12  -7    2.08    0.40
   2 -12   7    2.78    0.50
   2  12   7    2.56    0.37
  -2 -12   7    2.22    0.50
  -2  12  -7    2.02    0.37
  -4  12   7   -0.11    0.18
   4 -12   7    0.15    0.26
  -4 -12  -7    0.21    0.28
   4  12   7    0.28    0.25
  -4  12  -7    0.40    0.22
  -4 -12   7    0.39    0.34
   6 -12   7    1.71    0.45
  -6 -12  -7    3.23    0.52
   6  12   7    1.91    0.43
  -6  12  -7    2.88    0.46
   8 -12   7    0.70    0.34
  -8 -12  -7    0.50    0.32
   8  12   7    0.71    0.35
  -8  12  -7    1.12    0.38
 -10 -12  -7    0.00    0.30
  10 -12   7   -0.01    0.31
 -10  12  -7    0.40    0.44
  10  12   7    0.22    0.29
   1  13  -7    8.10    0.75
  -1  13   7    7.54    0.68
  -1 -13  -7    7.40    0.78
   1 -13   7    7.13    0.93
  -1 -13   7    6.38    0.92
   1  13   7    8.63    0.71
  -1  13  -7    7.47    0.75
  -3 -13  -7    9.12    0.92
   3 -13   7    9.82    1.06
  -3  13  -7    9.97    0.92
  -3 -13   7   11.67    1.15
   3  13   7    9.16    0.88
  -5 -13  -7   13.16    1.07
   5 -13   7   10.97    1.13
   5  13   7    9.04    0.98
  -5  13  -7   10.49    1.00
   7 -13   7    1.62    0.45
  -7 -13  -7    1.58    0.38
  -7  13  -7    2.23    0.44
   7  13   7    1.90    0.43
  -9 -13  -7    9.95    0.98
   9 -13   7    9.22    1.05
   9  13   7    9.70    1.03
   0  14   7   17.29    1.31
   0 -14   7   13.81    1.57
   0  14  -7   18.69    1.41
   0 -14  -7   15.87    1.38
   2 -14   7   15.85    1.50
   2  14  -7   15.40    1.29
  -2 -14  -7   15.77    1.33
  -2 -14   7   15.96    1.55
  -2  14  -7   15.14    1.32
   2  14   7   15.14    1.24
   4 -14   7    9.56    1.06
  -4 -14  -7    9.90    0.94
   4  14   7    8.66    0.86
  -4  14  -7    9.83    0.92
   6 -14   7   13.76    1.41
  -6 -14  -7   16.15    1.30
  -6  14  -7   13.34    1.26
   6  14   7   14.65    1.27
   8 -14   7   10.14    1.13
  -8 -14  -7    9.76    0.99
  -8  14  -7   11.19    1.08
   1  15  -7    0.39    0.26
   1 -15   7    0.83    0.45
  -1 -15  -7    0.62    0.30
  -1 -15   7    0.75    0.47
  -1  15  -7    0.55    0.26
  -3 -15  -7    0.70    0.32
   3 -15   7    1.06    0.44
   3  15   7    0.82    0.24
  -3  15  -7    1.09    0.32
   5 -15   7    0.11    0.36
  -5 -15  -7    0.48    0.30
  -5  15  -7    0.30    0.26
   5  15   7    0.23    0.23
   0  16  -7    1.71    0.37
   2 -16   7    2.71    0.66
   2  16  -7    3.01    0.46
  -2 -16  -7    2.11    0.43
  -2  16  -7    2.60    0.46
   4 -16   7    0.70    0.67
  -4 -16  -7    0.76    0.31
  -4  16  -7    0.58    0.32
   0   0  -8  573.29   45.61
   0   0  -8  631.66   47.88
   0   0   8  638.64   45.47
   0   0   8  660.67   45.47
   0   0   8  707.06   48.89
  -2   0  -8  215.60   14.78
  -2   0   8  164.09   13.98
  -2   0   8  173.05   13.95
  -2   0  -8  189.16   14.05
   2   0   8  186.54   13.95
   2   0  -8  202.99   14.77
  -2   0   8  226.24   15.02
   2   0   8  208.70   13.93
  -4   0   8  342.90   26.82
   4   0   8  368.01   26.83
   4   0  -8  416.05   28.27
  -4   0  -8  384.87   26.95
  -6   0   8   67.91    5.09
  -6   0   8   67.29    5.17
   6   0   8   66.37    5.12
  -6   0  -8   75.01    5.19
   6   0  -8   70.49    5.42
  -8   0  -8  246.16   15.71
  -8   0   8  208.87   15.61
   8   0  -8  197.83   16.85
  10   0  -8   46.48    4.09
 -10   0   8   50.42    3.79
 -10   0  -8   51.44    3.84
 -12   0  -8  117.69    8.01
  12   0  -8  115.08    8.56
 -12   0   8   93.71    7.88
  14   0  -8   14.41    1.40
 -14   0   8   14.34    1.32
  -1   1   8   31.40    2.48
   1   1  -8   33.35    2.73
   1  -1   8   34.75    2.50
  -1  -1  -8   31.35    2.55
   1  -1   8   29.69    2.68
  -1  -1  -8   36.13    2.78
  -1   1   8   32.92    2.52
  -1   1   8   39.37    2.69
  -1  -1   8   29.74    2.54
   1  -1  -8   39.04    2.82
  -1  -1   8   33.12    2.68
  -1  -1   8   31.86    2.51
  -1   1  -8   36.63    2.75
   1   1   8   32.90    2.48
  -1   1  -8   33.46    2.57
   1   1   8   31.87    2.48
  -3   1   8   45.41    3.66
  -3  -1  -8   49.53    3.68
  -3   1   8   41.81    3.58
   3  -1   8   47.12    3.61
   3   1  -8   52.18    3.87
   3   1   8   50.78    3.59
  -3   1  -8   52.90    3.86
  -3  -1   8   44.18    3.62
  -3  -1   8   55.18    3.88
  -3   1  -8   50.80    3.68
  -3  -1   8   42.30    3.66
   3   1   8   44.75    3.59
   3  -1  -8   59.06    3.96
  -5  -1  -8   30.93    2.34
   5   1  -8   29.38    2.41
  -5   1   8   28.61    2.35
  -5   1   8   28.29    2.24
   5  -1   8   26.13    2.26
  -5  -1   8   32.65    2.43
  -5   1  -8   28.97    2.31
  -5  -1   8   28.24    2.31
  -5  -1   8   29.12    2.27
   5   1   8   28.60    2.27
   5  -1  -8   28.37    2.46
  -7  -1  -8   11.49    1.12
   7  -1   8   11.19    1.07
  -7   1   8   11.20    1.11
  -7   1   8   11.62    1.02
   7  -1  -8    9.96    1.19
  -7   1  -8   11.87    1.10
   7   1   8   11.90    1.06
  -7  -1   8   11.05    1.01
  -7  -1   8   11.44    1.07
  -9   1   8   21.41    1.71
   9   1  -8   14.77    1.79
  -9  -1  -8   21.27    1.73
  -9   1  -8   19.69    1.68
   9  -1  -8   18.24    1.80
  -9  -1   8   20.51    1.66
 -11  -1  -8   10.10    1.06
 -11   1   8    8.24    0.99
  11   1  -8    8.97    1.10
  11  -1  -8    8.97    1.08
 -11  -1   8    8.49    0.89
 -11   1  -8    7.30    0.97
  13   1  -8    4.60    0.73
 -13   1   8    5.13    0.70
 -13  -1   8    4.91    0.69
  13  -1  -8    4.19    0.69
   0  -2  -8  208.22   15.73
   0  -2   8  217.34   15.68
   0   2   8  227.74   15.66
   0  -2  -8  236.05   16.64
   0   2   8  238.77   15.65
   0   2  -8  203.65   15.73
   0  -2   8  214.55   16.87
   0   2  -8  215.24   16.54
   2  -2   8  181.48   12.30
  -2  -2  -8  167.26   12.38
  -2  -2  -8  193.22   13.08
   2   2  -8  166.98   12.97
   2  -2   8  175.90   13.23
  -2   2   8  161.23   12.27
  -2   2   8  171.05   12.31
  -2   2  -8  156.03   12.35
  -2  -2   8  192.24   13.23
   2  -2  -8  172.41   13.06
   2   2   8  173.98   12.28
  -2  -2   8  150.57   12.31
  -2   2  -8  168.01   12.96
   2   2   8  179.22   12.27
  -4  -2  -8  179.60   12.53
  -4   2   8  163.12   12.40
  -4  -2  -8  188.46   13.16
   4   2  -8  181.31   13.10
  -4   2   8  171.16   12.49
   4  -2   8  176.53   12.44
  -4  -2   8  161.88   12.45
   4   2   8  173.81   12.43
   4  -2  -8  159.49   13.14
   4  -2  -8  172.42   13.46
  -4  -2   8  166.68   12.45
  -4   2  -8  179.80   13.07
  -4   2  -8  171.76   12.50
   4   2   8  183.06   12.43
  -6   2   8  129.92    9.27
  -6  -2  -8  138.33    9.42
  -6   2   8  110.40    9.35
   6  -2   8  119.64    9.32
   6   2  -8  136.97    9.80
  -6   2  -8  134.16    9.37
   6  -2  -8  126.95   10.11
  -6  -2   8  123.05    9.32
   6  -2  -8  107.89    9.81
   6   2   8  131.83    9.32
  -6  -2   8  131.78    9.31
  -6  -2   8  144.14   10.01
   6   2   8  138.90    9.30
  -8  -2  -8  145.28    9.00
   8   2  -8  110.14    9.61
  -8   2   8  119.68    8.93
  -8   2   8  122.41    8.79
   8  -2  -8  120.10    9.62
  -8  -2   8  117.26    8.86
  10   2  -8   83.50    7.21
 -10  -2  -8   99.33    6.72
 -10   2   8   80.48    6.66
  10  -2  -8   88.91    7.19
 -10  -2   8   84.00    6.62
 -10   2  -8  108.74    6.76
  12   2  -8   72.93    5.88
 -12  -2  -8   78.57    5.48
 -12   2   8   72.47    5.44
  12  -2  -8   76.63    5.85
 -12  -2   8   64.82    5.38
 -14   2   8   42.61    3.55
  14   2  -8   50.42    3.84
 -14  -2   8   43.21    3.53
  14  -2  -8   49.95    3.83
  -1  -3  -8   29.89    2.44
  -1   3   8   31.43    2.12
   1  -3   8   30.22    2.15
   1  -3   8   25.69    2.32
  -1   3   8   28.95    2.13
  -1  -3  -8   28.23    2.17
   1   3  -8   26.52    2.30
  -1   3  -8   27.17    2.30
  -1   3  -8   26.21    2.18
   1   3   8   31.12    2.11
  -1  -3   8   25.96    2.31
  -1  -3   8   26.72    2.17
   1  -3  -8   24.43    2.40
   1   3   8   28.46    2.12
   3  -3   8   99.02    6.74
  -3   3   8   83.26    6.25
   3  -3   8   91.68    6.25
  -3  -3  -8   91.07    6.31
   3   3  -8   83.97    6.59
  -3  -3  -8   79.72    6.65
  -3   3   8   77.37    6.19
  -3  -3   8   82.65    6.28
  -3   3  -8   74.37    6.54
   3   3   8   90.31    6.25
   3  -3  -8   97.94    6.82
  -3   3  -8   81.35    6.28
   3   3   8   89.77    6.23
   3  -3  -8   71.50    6.64
  -3  -3   8   94.76    6.71
   5  -3   8   12.00    1.09
   5  -3   8   11.39    1.07
   5   3  -8   11.63    1.13
  -5  -3  -8   12.76    1.12
  -5   3   8   10.42    1.11
  -5   3   8   12.59    1.02
  -5  -3   8   11.67    1.07
  -5  -3   8   12.59    1.09
   5  -3  -8   11.10    1.23
   5  -3  -8   12.81    1.26
   5   3   8   10.78    1.05
   5   3   8   11.44    1.07
  -5  -3   8   12.43    1.11
  -5   3  -8   11.71    1.08
  -7  -3  -8   41.20    2.99
  -7   3   8   37.26    3.00
   7  -3   8   34.18    2.95
   7  -3  -8   36.70    3.11
   7   3   8   38.14    2.91
  -7   3  -8   41.01    2.97
  -7  -3   8   38.66    2.93
  -7  -3   8   37.23    3.13
   7  -3  -8   37.69    3.22
   7   3   8   39.25    2.91
  -7  -3   8   38.42    2.93
   9   3  -8    7.86    1.10
  -9  -3  -8    9.71    0.99
  -9   3   8    9.35    0.97
  -9  -3   8    8.53    0.87
  -9   3  -8    9.31    0.96
   9  -3  -8    8.48    1.07
 -11   3   8   21.89    1.92
 -11  -3  -8   22.90    1.91
  11   3  -8   22.91    2.11
 -11  -3   8   19.01    1.82
 -11   3  -8   27.57    1.97
  11  -3  -8   23.42    2.05
 -13  -3  -8    1.51    0.54
 -13   3   8    2.74    0.52
  13   3  -8    1.84    0.50
 -13  -3   8    1.88    0.45
  13  -3  -8    1.97    0.47
   0  -4   8   60.96    4.21
   0   4   8   63.76    4.12
   0  -4  -8   51.28    4.17
   0  -4  -8   56.73    4.53
   0  -4   8   51.25    4.50
   0   4   8   59.13    4.14
   0   4  -8   57.83    4.19
   0   4  -8   51.35    4.03
   0   4  -8   57.99    4.43
   2  -4   8  362.08   24.20
   2  -4   8  368.48   22.47
  -2   4   8  332.42   22.44
  -2   4   8  312.19   22.41
   2   4  -8  267.35   23.60
  -2  -4  -8  307.94   22.53
  -2  -4  -8  296.91   23.69
  -2   4  -8  308.63   23.61
  -2   4  -8  318.35   22.54
  -2  -4   8  287.86   22.49
   2  -4  -8  295.00   23.72
  -2   4  -8  286.41   21.68
   2   4   8  333.73   22.42
   2   4   8  328.73   22.45
  -2  -4   8  330.84   24.16
   4   4  -8   92.50    7.70
   4  -4   8  108.64    7.34
  -4  -4  -8  100.52    7.38
   4  -4   8  117.56    7.90
  -4   4   8   93.89    7.34
   4   4   8   95.24    7.31
   4  -4  -8  103.71    7.81
  -4   4  -8   93.09    7.03
   4   4   8   97.53    7.34
  -4  -4   8   95.35    7.36
   4  -4  -8  106.46    7.96
  -4   4  -8  104.31    7.68
  -4  -4   8  109.25    7.88
  -4   4  -8   99.18    7.36
  -6  -4  -8  297.29   20.87
   6   4  -8  277.19   21.80
   6  -4   8  295.84   20.80
  -6   4   8  256.60   20.80
   6  -4   8  324.21   22.30
   6   4   8  278.85   20.75
   6   4   8  300.56   20.78
  -6   4  -8  313.24   20.86
  -6  -4   8  274.12   20.76
   6  -4  -8  298.54   21.88
  -6  -4   8  316.53   22.33
   6  -4  -8  299.84   22.43
  -6  -4   8  255.02   20.72
  -8   4   8   44.29    3.82
  -8  -4  -8   43.50    3.79
  -8  -4   8   48.74    3.76
  -8  -4   8   45.35    4.03
  -8   4  -8   55.90    3.82
   8  -4  -8   58.26    4.16
   8   4   8   56.20    3.77
 -10  -4  -8  134.15    9.39
  10   4  -8  124.74   10.14
 -10   4   8  130.83    9.40
  10   4   8  130.32    9.28
  10  -4  -8  138.85   10.09
 -10  -4   8  114.36    9.29
  12   4  -8   30.53    2.67
 -12  -4  -8   31.67    2.47
 -12   4   8   31.53    2.47
  12  -4  -8   33.49    2.63
 -12  -4   8   26.12    2.37
  14   4  -8   79.73    5.88
  14  -4  -8   79.34    5.89
 -14  -4   8   62.28    5.41
  -1  -5  -8   11.98    1.16
  -1   5   8   10.97    0.92
   1   5  -8    9.98    0.92
   1   5  -8   11.46    0.94
   1   5  -8   10.55    1.02
  -1  -5  -8    9.14    0.95
   1  -5   8   11.63    0.98
   1  -5   8   11.07    1.08
  -1   5  -8   12.21    0.95
  -1  -5   8   10.89    1.02
   1  -5  -8   12.00    1.17
  -1  -5   8    9.63    1.05
  -1   5  -8   13.54    1.06
   1   5   8   11.16    0.94
  -1   5  -8   10.17    0.94
   3   5  -8   34.41    2.96
   3  -5   8   38.63    3.05
  -3   5   8   36.49    2.79
   3  -5   8   41.21    2.82
  -3  -5  -8   39.61    3.04
  -3  -5  -8   34.44    2.83
   3  -5  -8   39.32    3.08
  -3   5  -8   38.75    2.70
   3   5   8   35.61    2.81
  -3  -5   8   35.28    2.87
  -3   5  -8   37.97    2.94
  -3   5  -8   36.76    2.83
  -3  -5   8   36.72    3.02
   3   5   8   36.49    2.83
   5   5  -8    3.84    0.57
  -5   5   8    3.62    0.55
   5  -5   8    4.10    0.58
   5  -5   8    5.08    0.59
  -5  -5  -8    3.43    0.54
   5  -5  -8    4.78    0.66
  -5  -5   8    4.87    0.61
  -5   5  -8    3.48    0.53
   5   5   8    4.54    0.57
   5   5   8    4.00    0.58
  -5  -5   8    4.94    0.63
   5  -5  -8    5.59    0.72
  -7   5   8   17.18    1.56
  -7  -5  -8   16.03    1.50
   7  -5   8   18.19    1.54
   7  -5  -8   18.18    1.65
   7   5   8   16.30    1.47
  -7  -5   8   18.90    1.48
  -7   5  -8   18.15    1.50
  -7  -5   8   18.81    1.60
   7  -5  -8   17.93    1.57
   7   5   8   17.58    1.47
  -9   5   8    2.58    0.53
  -9  -5  -8    3.22    0.55
  -9  -5   8    3.50    0.50
   9   5   8    2.77    0.45
  -9   5  -8    3.17    0.54
  -9  -5   8    2.00    0.47
   9  -5  -8    2.92    0.55
 -11   5   8   11.06    1.14
 -11  -5  -8   11.09    1.13
  11   5  -8   10.98    1.28
 -11   5  -8   14.69    1.21
  11   5   8   11.11    1.06
 -11  -5   8   10.28    1.06
  11  -5  -8   12.01    1.20
 -13   5   8    0.63    0.38
 -13  -5  -8    1.03    0.48
  13   5  -8    0.82    0.44
 -13  -5   8    0.41    0.39
  13  -5  -8    1.52    0.42
   0   6   8   88.53    6.13
   0  -6  -8   75.71    6.17
   0   6  -8   87.54    6.16
   0   6  -8   87.61    6.49
   0   6  -8   84.90    5.95
   0  -6   8   78.25    6.66
   0  -6   8   81.53    6.21
   0  -6  -8   96.43    6.59
   2  -6   8  180.32   11.82
  -2   6   8  170.85   11.77
  -2  -6  -8  187.24   12.49
   2  -6   8  176.46   12.75
   2   6  -8  153.99   12.41
   2   6  -8  145.28   11.39
  -2  -6  -8  158.64   11.85
  -2  -6   8  143.55   11.84
  -2  -6   8  158.07   12.72
  -2   6  -8  165.37   12.39
   2   6   8  168.04   11.81
  -2   6  -8  163.93   11.83
  -2   6  -8  160.97   11.38
   2  -6  -8  177.74   12.51
  -4  -6  -8   96.62    7.24
   4  -6   8  105.99    7.76
   4   6  -8   87.02    7.55
  -4   6   8   95.26    7.18
   4  -6   8  110.15    7.21
  -4  -6   8  103.74    7.74
   4   6   8   95.36    7.23
  -4   6  -8  102.55    7.53
  -4   6  -8   98.96    6.91
  -4   6  -8   95.48    7.21
  -4  -6   8   92.52    7.22
   4  -6  -8  108.02    7.64
   6  -6   8  159.13   11.14
   6  -6   8  156.70   11.92
  -6  -6  -8  147.30   11.15
  -6   6   8  136.94   11.12
  -6  -6   8  163.99   11.94
   6  -6  -8  166.51   11.98
   6  -6  -8  156.52   11.69
  -6   6  -8  147.00   11.14
   6   6   8  155.51   11.14
   8  -6   8   76.04    6.20
  -8  -6  -8   83.68    5.89
  -8   6   8   74.52    5.88
  -8   6  -8   85.76    5.88
  -8  -6   8   72.65    6.25
   8   6   8   79.62    5.83
   8  -6  -8   84.36    6.31
 -10  -6  -8   98.90    6.82
 -10   6   8   91.39    6.81
  10   6  -8   86.76    7.36
  10  -6  -8  103.07    7.31
 -10  -6   8   81.82    6.71
  10   6   8   92.66    6.74
 -12  -6  -8   56.04    3.88
 -12   6   8   52.52    3.86
  12   6  -8   50.53    4.19
 -12  -6   8   40.53    3.77
  12   6   8   49.32    3.79
  12  -6  -8   55.51    4.14
   1   7  -8   26.18    1.90
   1  -7   8   26.02    2.18
  -1  -7  -8   25.28    2.00
  -1   7   8   25.31    1.91
  -1  -7  -8   27.58    2.13
   1   7  -8   26.00    1.93
   1   7  -8   25.28    2.06
   1  -7   8   24.12    2.02
   1   7   8   25.88    1.95
  -1  -7   8   19.17    2.12
  -1   7  -8   24.77    1.87
  -1  -7   8   23.93    2.05
  -1   7  -8   24.80    1.95
   1  -7  -8   30.19    2.16
  -1   7  -8   25.60    2.05
   3  -7   8   50.63    3.54
   3   7  -8   44.47    3.70
  -3  -7  -8   46.98    3.57
   3  -7   8   46.25    3.81
  -3   7   8   48.19    3.49
   3   7  -8   42.87    3.39
  -3  -7  -8   50.11    3.73
  -3  -7   8   46.42    3.81
  -3   7  -8   47.75    3.67
   3   7   8   47.43    3.56
   3  -7  -8   51.54    3.77
  -3  -7   8   47.36    3.59
  -3   7  -8   44.93    3.51
  -3   7  -8   47.62    3.37
  -5  -7  -8   24.16    1.85
   5   7  -8   18.87    1.71
   5  -7   8   23.01    1.94
   5   7  -8   21.39    1.91
   5  -7   8   25.99    1.90
  -5   7   8   22.00    1.81
  -5  -7   8   25.83    1.97
  -5  -7   8   22.91    1.85
   5   7   8   22.10    1.85
  -5   7  -8   21.51    1.80
  -7   7   8   12.46    1.23
   7  -7   8   13.66    1.26
  -7  -7  -8   14.16    1.25
   7   7   8   13.97    1.23
   7  -7  -8   16.14    1.35
  -7  -7   8   12.97    1.29
  -7   7  -8   12.73    1.19
  -9   7   8   18.36    1.62
  -9  -7  -8   19.28    1.61
   9  -7   8   19.13    1.62
   9   7   8   17.21    1.55
   9  -7  -8   20.55    1.72
  -9   7  -8   21.17    1.61
  -9  -7   8   14.76    1.65
 -11  -7  -8   10.92    1.06
  11   7  -8   10.87    1.29
 -11   7   8   10.72    1.09
  11  -7  -8   12.73    1.18
 -11   7  -8   13.53    1.13
 -11  -7   8    8.17    1.03
  11   7   8    9.75    1.03
 -13   7   8    4.19    0.64
 -13  -7  -8    4.83    0.72
  13  -7  -8    6.11    0.80
 -13  -7   8    4.48    0.70
  13   7   8    4.35    0.68
   0  -8   8  258.88   21.47
   0   8   8  333.89   21.41
   0  -8   8  318.74   23.14
   0   8  -8  311.03   21.49
   0   8  -8  305.53   20.71
   0   8  -8  315.51   22.53
   0  -8  -8  265.57   21.49
  -2  -8  -8  127.79    8.29
  -2   8   8  111.52    7.79
  -2  -8  -8  111.99    7.91
   2  -8   8  111.10    8.49
   2   8  -8  109.45    8.24
   2   8  -8  100.93    7.56
  -2   8  -8  105.42    7.54
   2  -8  -8  119.40    8.30
  -2  -8   8   97.01    7.88
  -2   8  -8  105.41    8.20
  -2   8  -8  104.69    7.85
  -2  -8   8  101.26    8.47
   2   8   8  107.38    7.84
   4  -8   8  241.17   17.20
  -4   8   8  228.11   15.93
  -4  -8  -8  237.93   16.05
  -4   8  -8  216.33   16.71
  -4  -8   8  236.68   17.18
   4   8   8  220.65   16.00
  -4   8  -8  220.02   16.00
  -4  -8   8  194.26   15.94
  -4   8  -8  217.19   15.37
  -6  -8  -8   53.07    3.92
   6  -8   8   52.37    4.16
  -6   8   8   47.42    3.87
   6   8   8   52.61    3.93
  -6  -8   8   55.65    4.18
  -6   8  -8   50.03    3.87
  -8   8   8  128.32   10.47
  -8  -8  -8  156.71   10.55
   8  -8   8  144.80   11.23
   8   8   8  144.75   10.50
   8  -8  -8  162.46   11.30
  -8  -8   8  134.68   11.25
  10  -8   8   35.96    3.29
 -10  -8  -8   43.27    3.18
 -10   8   8   39.45    3.15
 -10   8  -8   45.67    3.18
  10   8   8   37.07    3.12
  10  -8  -8   45.43    3.41
 -12  -8  -8   84.39    5.89
 -12   8   8   70.96    5.82
  12  -8  -8   87.61    6.33
  12   8   8   74.83    5.84
   1  -9   8    4.80    0.70
   1   9  -8    4.97    0.52
  -1   9   8    4.97    0.50
  -1  -9  -8    4.65    0.62
  -1  -9   8    4.88    0.71
   1   9   8    5.58    0.54
  -1   9  -8    5.03    0.53
   3  -9   8    5.65    0.75
  -3  -9  -8    5.98    0.73
  -3   9   8    6.47    0.58
   3   9   8    5.86    0.69
  -3   9  -8    5.62    0.62
  -3  -9   8    5.13    0.73
  -5  -9  -8    8.59    0.83
   5  -9   8    7.27    0.81
  -5   9   8    7.45    0.73
  -5   9  -8    6.51    0.71
  -5  -9   8    7.13    0.82
   5   9   8    6.18    0.79
  -7   9   8    1.43    0.36
  -7  -9  -8    0.64    0.32
   7  -9   8    0.78    0.29
   7   9   8    1.19    0.41
  -7   9  -8    0.95    0.33
  -7  -9   8    1.21    0.38
  -9   9   8    6.80    0.78
   9  -9   8    4.54    0.68
  -9  -9  -8    5.69    0.76
  -9   9  -8    6.41    0.75
   9  -9  -8    7.11    0.84
  -9  -9   8    5.52    0.81
   9   9   8    5.97    0.75
  11  -9   8    1.14    0.35
 -11  -9  -8    1.03    0.43
  11  -9  -8    1.59    0.49
 -11   9  -8    1.55    0.50
  11   9   8    0.76    0.38
   0  10   8  141.83    9.70
   0 -10  -8  126.94    9.78
   0  10  -8  134.09    9.75
   0 -10   8  138.94   10.56
  -2 -10  -8   63.46    4.91
   2 -10   8   64.62    5.29
  -2  10   8   70.93    4.81
  -2 -10   8   63.31    5.28
  -2  10  -8   65.91    4.87
   2  10   8   67.92    4.86
  -4  10   8  122.28    8.67
   4 -10   8  118.88    9.40
  -4 -10  -8  128.61    8.80
  -4 -10   8  123.98    9.39
  -4  10  -8  115.55    8.73
   4  10   8  114.36    8.73
   6 -10   8   51.71    4.17
  -6 -10  -8   57.72    3.94
  -6  10   8   50.84    3.85
  -6 -10   8   53.00    4.17
   6  10   8   47.34    3.89
  -6  10  -8   49.71    3.87
  -8 -10  -8   98.97    6.62
   8 -10   8   91.22    7.04
  -8  10   8   81.13    6.53
  -8 -10   8   82.33    7.03
  -8  10  -8   94.94    6.59
   8  10   8   88.82    6.59
  10 -10   8   39.02    3.44
 -10 -10  -8   43.95    3.27
 -10  10  -8   48.85    3.30
  10  10   8   38.36    3.24
  -1  11   8   11.07    0.88
  -1 -11  -8   10.46    0.99
   1 -11   8    9.10    1.06
   1  11  -8    9.77    0.91
   1  11   8   11.83    0.92
  -1  11  -8   11.31    0.95
  -1 -11   8    8.68    1.08
  -3  11   8   36.79    2.56
  -3 -11  -8   35.80    2.67
   3 -11   8   32.19    2.85
  -3 -11   8   35.32    2.87
  -3  11  -8   32.30    2.60
   3  11   8   32.24    2.60
   5 -11   8    4.75    0.72
  -5 -11  -8    6.47    0.77
  -5  11   8    6.14    0.62
  -5 -11   8    5.77    0.77
   5  11   8    6.36    0.75
  -5  11  -8    6.05    0.69
  -7 -11  -8   16.31    1.44
  -7  11   8   15.76    1.37
   7 -11   8   14.89    1.49
  -7 -11   8   17.08    1.55
   7  11   8   16.18    1.44
  -7  11  -8   17.10    1.41
   9 -11   8    4.97    0.72
  -9 -11  -8    4.37    0.68
   9  11   8    6.05    0.77
  -9  11  -8    5.51    0.73
   0 -12   8   32.42    2.85
   0  12  -8   33.87    2.57
   0  12   8   34.47    2.51
  -2  12   8  127.90    8.76
   2 -12   8  117.34    9.55
  -2 -12  -8  122.45    8.88
  -2  12  -8  119.63    8.85
   2  12   8  123.95    8.79
  -2 -12   8  121.31    9.56
   4 -12   8   45.48    3.96
  -4 -12  -8   51.82    3.70
  -4  12   8   52.18    3.59
  -4  12  -8   45.12    3.63
   4  12   8   45.88    3.63
  -4 -12   8   50.71    3.95
   6 -12   8  115.12    9.25
  -6 -12  -8  129.96    8.65
   6  12   8  112.17    8.59
  -6  12  -8  117.34    8.60
  -6 -12   8  117.11    9.23
   8 -12   8   31.63    2.63
  -8 -12  -8   31.37    2.45
   8  12   8   29.44    2.46
  -8  12  -8   30.53    2.43
  -1  13   8    0.94    0.22
   1 -13   8    1.10    0.41
   1  13  -8    1.36    0.31
  -1 -13  -8    1.02    0.32
  -1 -13   8    1.10    0.39
  -1  13  -8    1.52    0.34
   1  13   8    1.14    0.23
  -3 -13  -8    2.83    0.46
   3 -13   8    2.27    0.52
  -3  13   8    2.60    0.37
  -3  13  -8    2.74    0.44
   3  13   8    2.65    0.41
  -3 -13   8    3.50    0.59
   5 -13   8    0.93    0.40
  -5 -13  -8    1.15    0.37
   5  13   8    0.42    0.25
  -5  13  -8    0.14    0.27
   7 -13   8    2.38    0.49
  -7 -13  -8    1.94    0.41
  -7  13  -8    1.68    0.41
   7  13   8    1.63    0.42
   0  14  -8   20.16    1.64
   0  14   8   21.33    1.56
   0 -14   8   18.33    1.85
   2 -14   8   60.64    5.05
  -2 -14  -8   63.93    4.65
  -2  14  -8   64.40    4.65
   2  14   8   60.21    4.55
  -2 -14   8   64.05    5.05
   4 -14   8   27.55    2.49
  -4 -14  -8   31.17    2.29
  -4  14  -8   27.65    2.26
   4  14   8   28.60    2.21
   6 -14   8   68.16    5.35
  -6  14  -8   66.13    4.92
   6  14   8   64.55    4.88
   1  15  -8    6.04    0.70
  -1 -15  -8    6.76    0.71
   1 -15   8    6.48    0.91
  -1  15  -8    5.99    0.72
   1  15   8    6.19    0.59
  -1 -15   8    7.50    0.98
  -3 -15  -8   11.86    1.03
   3 -15   8   10.38    1.21
   3  15   8   10.48    0.92
  -3  15  -8   11.08    1.01
   5 -15   8    6.54    0.91
  -5 -15  -8    6.07    0.73
  -5  15  -8    5.81    0.71
   5  15   8    5.96    0.64
   0 -16   8   76.48    6.14
   0  16  -8   76.76    5.64
   2 -16   8   27.83    2.71
  -2 -16  -8   32.58    2.42
  -2  16  -8   32.18    2.44
   0   0  -9    0.19    0.30
   0   0   9    0.29    0.16
   0   0   9    0.11    0.17
   0   0   9    0.18    0.21
  -2   0   9    0.10    0.16
  -2   0  -9    0.04    0.28
  -2   0   9    0.10    0.26
   2   0  -9    0.72    0.33
   2   0   9    0.31    0.17
  -2   0  -9    0.17    0.21
  -2   0   9    0.00    0.17
  -4   0   9    0.51    0.21
  -4   0   9   -0.04    0.27
  -4   0  -9   -0.09    0.37
   4   0   9    0.00    0.20
  -4   0  -9    0.63    0.27
  -4   0   9    0.19    0.20
   4   0  -9    0.08    0.29
  -6   0   9   -0.10    0.24
   6   0  -9   -0.12    0.30
   6   0   9   -0.08    0.21
  -6   0   9   -0.09    0.25
  -6   0  -9   -0.15    0.21
  -8   0  -9    0.01    0.29
  -8   0   9    0.24    0.34
   8   0  -9    0.03    0.30
 -10   0  -9    0.15    0.29
  10   0  -9    0.35    0.37
 -10   0   9   -0.11    0.29
 -12   0   9    0.02    0.31
 -12   0  -9    0.67    0.41
  12   0  -9   -0.07    0.34
   1  -1   9   35.10    2.99
  -1  -1  -9   34.56    2.83
   1   1  -9   36.65    3.03
   1  -1   9   37.59    2.78
  -1   1   9   36.94    2.77
  -1   1   9   36.81    2.80
  -1   1   9   41.01    2.99
  -1  -1  -9   42.20    3.11
   1   1   9   36.97    2.77
  -1  -1   9   35.86    2.79
   1   1   9   37.85    2.76
  -1  -1   9   36.92    2.99
  -1   1  -9   38.36    3.03
   1  -1  -9   41.48    3.09
  -1   1  -9   34.86    2.83
   3   1  -9   42.78    3.25
  -3   1   9   48.27    3.24
  -3   1   9   36.34    2.99
  -3  -1  -9   39.74    3.06
   3  -1   9   38.54    3.00
  -3   1   9   39.46    3.06
  -3   1  -9   38.70    3.06
   3  -1  -9   44.24    3.29
  -3  -1   9   35.42    3.01
   3   1   9   38.69    3.00
  -3  -1   9   34.89    3.07
  -3   1  -9   43.06    3.24
  -3  -1   9   42.97    3.22
   5   1  -9   44.14    3.20
  -5  -1  -9   44.34    3.07
  -5   1   9   37.64    3.05
   5  -1   9   35.97    2.98
  -5   1   9   36.26    2.95
  -5   1  -9   41.35    3.03
  -5  -1   9   34.49    3.04
   5   1   9   36.67    2.99
   5  -1  -9   39.22    3.21
  -5  -1   9   45.39    3.20
  -5  -1   9   37.49    2.98
  -7   1   9    6.39    0.82
  -7   1   9    5.78    0.87
  -7  -1  -9    7.38    0.91
  -7  -1   9    8.77    0.88
  -7   1  -9    8.39    0.84
   7  -1  -9    7.48    0.98
  -9   1   9   23.46    2.10
   9   1  -9   23.02    2.24
  -9  -1  -9   25.57    2.07
   9  -1  -9   24.38    2.24
  -9   1  -9   27.46    2.07
  -9  -1   9   24.98    2.07
 -11  -1  -9    7.55    0.88
 -11   1   9    6.17    0.85
  11   1  -9    5.52    0.91
 -11  -1   9    7.63    0.90
  11  -1  -9    6.19    0.91
 -11   1  -9    7.88    0.89
 -13   1   9    4.58    0.75
  13   1  -9    4.66    0.76
 -13  -1  -9    6.45    0.83
  13  -1  -9    5.06    0.76
 -13  -1   9    4.68    0.72
 -13   1  -9    6.80    0.83
   0   2   9   46.38    3.41
   0  -2   9   46.26    3.44
   0  -2   9   45.51    3.71
   0   2  -9   43.50    3.47
   0   2   9   47.43    3.42
   0   2  -9   46.01    3.70
   0  -2  -9   52.97    3.81
  -2  -2  -9   54.72    4.21
  -2  -2  -9   70.01    4.58
  -2   2   9   56.74    4.15
   2  -2   9   56.43    4.16
   2  -2   9   49.00    4.48
  -2   2   9   60.99    4.19
   2   2  -9   56.79    4.45
   2  -2  -9   63.90    4.56
   2   2   9   56.47    4.14
  -2  -2   9   59.37    4.47
  -2  -2   9   49.97    4.17
   2   2   9   56.98    4.15
  -2   2  -9   55.85    4.44
  -2   2  -9   52.97    4.21
   4  -2   9   13.01    1.14
  -4   2   9   14.26    1.21
  -4   2   9   11.08    1.10
  -4  -2  -9   14.12    1.20
   4   2  -9   13.56    1.26
  -4  -2   9   13.23    1.18
  -4  -2   9   11.73    1.14
   4   2   9   14.77    1.16
  -4  -2   9   12.85    1.23
   4  -2  -9   13.34    1.31
  -4   2  -9   13.32    1.25
   4  -2  -9   14.02    1.30
  -4   2  -9   13.07    1.18
   4   2   9   13.36    1.15
  -6  -2  -9   48.96    3.34
  -6   2   9   40.93    3.20
  -6   2   9   42.84    3.33
   6  -2   9   40.72    3.27
   6   2  -9   47.71    3.45
  -6  -2   9   50.56    3.49
   6  -2  -9   38.98    3.46
   6   2   9   40.12    3.25
  -6  -2   9   41.08    3.25
  -6  -2   9   38.72    3.27
  -6   2  -9   44.14    3.28
   6  -2  -9   39.71    3.55
  -8   2   9   19.89    1.78
  -8  -2  -9   25.32    1.77
   8   2  -9   17.82    1.86
  -8  -2   9   18.95    1.72
   8  -2  -9   19.49    1.88
  10   2  -9    4.94    0.84
 -10   2   9    5.63    0.82
 -10  -2  -9    5.85    0.77
 -10   2  -9    6.27    0.77
  10  -2  -9    5.82    0.84
 -10  -2   9    5.68    0.76
  12   2  -9   11.61    1.38
 -12  -2  -9   13.70    1.31
 -12   2   9   14.06    1.33
 -12  -2   9   12.52    1.28
  12  -2  -9   13.19    1.36
 -12   2  -9   18.06    1.41
  -1   3   9   20.40    1.49
  -1  -3  -9   18.88    1.55
  -1  -3  -9   22.43    1.81
   1  -3   9   21.69    1.54
   1  -3   9   17.67    1.66
   1   3  -9   17.88    1.68
  -1   3   9   20.32    1.51
  -1  -3   9   17.53    1.64
   1   3   9   18.41    1.48
   1  -3  -9   21.31    1.80
  -1  -3   9   18.85    1.55
  -1   3  -9   15.91    1.54
  -1   3  -9   20.57    1.69
   1   3   9   20.56    1.51
   3   3  -9   24.70    2.08
  -3   3   9   20.62    1.87
  -3  -3  -9   24.47    1.96
  -3   3   9   25.71    1.94
  -3  -3  -9   27.29    2.21
   3  -3   9   26.68    2.11
   3  -3   9   28.72    1.94
   3  -3  -9   25.11    2.16
   3  -3  -9   23.35    2.15
  -3  -3   9   21.28    1.94
  -3  -3   9   25.46    2.06
   3   3   9   25.23    1.91
  -3   3  -9   23.62    1.95
   3   3   9   25.39    1.91
  -3   3  -9   23.91    2.05
  -5  -3  -9   23.11    1.74
  -5   3   9   18.71    1.66
   5   3  -9   20.15    1.78
   5  -3   9   20.79    1.68
  -5   3   9   21.42    1.74
  -5  -3   9   19.60    1.71
   5   3   9   20.82    1.69
  -5  -3   9   20.87    1.72
   5   3   9   19.34    1.68
  -5  -3   9   20.86    1.76
   5  -3  -9   21.80    1.90
  -5   3  -9   21.88    1.71
   5  -3  -9   19.66    1.85
  -7   3   9    4.25    0.69
  -7  -3  -9    6.07    0.72
   7  -3  -9    5.20    0.79
   7   3   9    4.80    0.67
  -7  -3   9    6.81    0.77
  -7  -3   9    4.45    0.64
  -7   3  -9    6.50    0.73
   9   3  -9    8.09    1.27
  -9   3   9   12.91    1.24
  -9  -3  -9   14.23    1.20
  -9   3  -9   15.45    1.23
  -9  -3   9   13.25    1.20
   9  -3  -9   11.70    1.30
 -11  -3  -9    5.20    0.73
  11   3  -9    5.17    0.86
 -11   3   9    6.17    0.81
  11  -3  -9    5.79    0.83
 -11  -3   9    4.68    0.74
 -11   3  -9    7.67    0.82
  13   3  -9    1.38    0.49
 -13  -3  -9    3.33    0.61
 -13   3   9    1.69    0.50
 -13  -3   9    2.23    0.53
 -13   3  -9    3.34    0.67
  13  -3  -9    2.59    0.53
   0   4   9    2.25    0.31
   0   4  -9    2.35    0.48
   0  -4   9    1.86    0.41
   0  -4   9    2.48    0.37
   0   4   9    2.16    0.29
   0  -4  -9    2.36    0.57
   0   4  -9    1.79    0.36
   2  -4   9    4.46    0.48
  -2   4   9    3.00    0.42
   2   4  -9    3.02    0.52
  -2  -4  -9    3.28    0.66
  -2  -4  -9    3.26    0.47
   2  -4   9    4.25    0.59
   2  -4  -9    2.38    0.58
  -2  -4   9    3.80    0.52
   2   4   9    3.50    0.41
   2   4   9    3.62    0.44
  -2   4  -9    2.92    0.46
  -2  -4   9    3.27    0.49
  -2   4  -9    3.26    0.52
   4  -4   9    0.91    0.27
   4  -4   9    1.60    0.37
  -4  -4  -9    0.79    0.28
  -4   4   9    1.34    0.33
   4   4  -9    0.82    0.33
  -4   4  -9    1.02    0.30
  -4   4  -9    1.25    0.41
   4  -4  -9    0.85    0.42
  -4  -4   9    1.19    0.29
   4   4   9    1.31    0.32
  -4  -4   9    1.03    0.35
   4   4   9    1.61    0.35
   4  -4  -9    0.84    0.46
  -6  -4  -9    2.02    0.44
   6   4  -9    2.30    0.45
  -6   4   9    2.79    0.49
   6   4   9    2.01    0.44
  -6   4  -9    1.66    0.37
  -6  -4   9    2.87    0.56
   6  -4  -9    1.60    0.48
   6   4   9    2.83    0.45
   6  -4  -9    2.20    0.52
  -6  -4   9    2.64    0.44
  -8   4   9    1.55    0.42
  -8  -4  -9    1.08    0.34
  -8  -4   9    1.68    0.38
  -8   4  -9    1.65    0.38
   8  -4  -9    1.17    0.41
  -8  -4   9    1.41    0.38
   8   4   9    1.07    0.34
 -10  -4  -9    0.19    0.31
 -10   4   9    0.10    0.34
  10   4  -9    0.15    0.35
 -10  -4   9    0.56    0.33
  10  -4  -9    0.76    0.36
 -10   4  -9    0.56    0.34
 -12  -4  -9    1.60    0.47
 -12   4   9    1.06    0.42
  12   4  -9    0.51    0.40
 -12  -4   9    0.64    0.40
  12  -4  -9    0.87    0.38
 -12   4  -9    0.57    0.44
   1  -5   9   34.61    2.42
  -1  -5  -9   29.37    2.40
  -1   5   9   33.73    2.36
  -1  -5  -9   34.71    2.67
   1   5  -9   28.56    2.55
   1  -5   9   31.34    2.63
  -1   5  -9   31.01    2.56
   1   5   9   32.95    2.37
  -1  -5   9   30.04    2.44
  -1  -5   9   30.33    2.61
   1  -5  -9   34.75    2.68
  -1   5  -9   30.03    2.41
  -1   5  -9   29.39    2.32
   3   5  -9   32.83    3.11
  -3  -5  -9   42.40    3.21
   3  -5   9   44.34    3.23
  -3  -5  -9   39.64    2.97
  -3   5   9   41.07    2.93
   3  -5   9   44.09    2.95
  -3   5  -9   36.60    2.96
   3   5   9   40.67    2.95
  -3   5  -9   39.83    3.11
  -3  -5   9   35.11    2.98
   3  -5  -9   37.60    3.19
  -3  -5   9   38.67    3.15
  -3   5  -9   35.61    2.82
   5  -5   9   39.69    3.15
   5   5  -9   35.65    3.08
  -5   5   9   36.54    2.93
  -5  -5  -9   37.46    2.95
   5  -5   9   43.20    2.96
   5  -5  -9   37.67    3.22
  -5   5  -9   37.40    2.94
  -5  -5   9   41.01    3.13
   5   5   9   37.74    2.96
  -7  -5  -9    8.67    0.91
  -7   5   9    8.39    0.97
   7  -5  -9    9.78    1.02
  -7  -5   9    9.01    0.91
  -7   5  -9    9.26    0.88
   7   5   9    7.71    0.91
  -9   5   9   23.36    2.04
  -9  -5  -9   24.28    2.00
  -9  -5   9   22.71    1.98
   9  -5  -9   26.43    2.17
   9   5   9   22.22    1.94
  -9   5  -9   27.20    1.99
  11   5  -9    8.93    1.18
 -11   5   9    8.74    1.06
 -11  -5  -9   10.25    1.02
 -11  -5   9    8.52    1.05
  11  -5  -9    9.17    1.06
 -11   5  -9   13.18    1.08
 -13   5   9    4.37    0.68
 -13  -5  -9    4.81    0.72
  13   5  -9    3.97    0.71
 -13  -5   9    3.32    0.66
  13  -5  -9    5.72    0.77
   0  -6  -9   29.69    2.20
   0  -6   9   22.64    2.14
   0   6   9   25.10    1.90
   0  -6   9   25.66    2.01
   0   6  -9   24.75    2.07
   0   6  -9   25.22    1.95
   0   6  -9   23.66    1.89
   2  -6   9   35.47    2.83
  -2  -6  -9   31.78    2.58
   2   6  -9   30.11    2.71
   2   6  -9   27.38    2.46
   2  -6   9   38.93    2.60
  -2   6   9   33.20    2.52
  -2  -6  -9   37.84    2.81
  -2   6  -9   33.37    2.58
   2  -6  -9   35.90    2.81
  -2   6  -9   33.54    2.48
  -2  -6   9   32.42    2.64
  -2   6  -9   36.96    2.72
  -2  -6   9   33.12    2.78
   2   6   9   35.01    2.56
   4  -6   9    7.24    0.83
  -4   6   9    7.30    0.73
   4   6  -9    4.89    0.79
   4  -6   9    9.61    0.81
  -4  -6  -9    7.57    0.78
   4   6   9    7.69    0.78
  -4   6  -9    8.91    0.84
  -4  -6   9    7.76    0.80
  -4   6  -9    7.76    0.74
  -4   6  -9    7.19    0.76
  -6  -6  -9   27.16    2.27
  -6   6   9   28.59    2.27
   6  -6   9   30.67    2.42
   6   6   9   26.31    2.28
  -6   6  -9   28.37    2.27
  -6  -6   9   31.22    2.42
   8  -6   9   13.35    1.29
  -8  -6  -9   14.00    1.27
  -8   6   9   14.06    1.29
   8  -6  -9   16.14    1.40
   8   6   9   12.92    1.24
  -8  -6   9   15.16    1.35
  -8   6  -9   14.69    1.27
  10   6  -9    4.27    0.74
 -10   6   9    5.14    0.71
 -10  -6  -9    3.06    0.57
  10  -6  -9    4.51    0.66
 -10   6  -9    4.63    0.64
  10   6   9    3.50    0.56
 -12   6   9    8.79    1.04
  12   6  -9    9.27    1.16
 -12  -6  -9    8.90    1.01
  12  -6  -9    9.47    1.05
 -12  -6   9    8.06    1.02
 -12   6  -9   11.39    1.08
  12   6   9    7.43    0.94
  -1   7   9    5.39    0.57
  -1  -7  -9    6.81    0.83
   1  -7   9    6.95    0.76
   1  -7   9    6.51    0.81
  -1  -7  -9    6.04    0.69
  -1   7  -9    6.92    0.75
   1  -7  -9    7.57    0.86
  -1  -7   9    6.30    0.79
  -1   7  -9    5.69    0.62
  -1   7  -9    5.66    0.65
  -1  -7   9    6.19    0.80
   1   7   9    5.67    0.59
  -3  -7  -9    7.13    0.80
  -3   7   9    7.68    0.72
   3  -7   9    9.31    0.83
   3  -7   9    8.45    0.90
  -3   7  -9    8.15    0.78
   3   7   9    7.19    0.77
  -3  -7   9    7.55    1.00
  -3  -7   9    8.94    0.86
   5  -7   9    7.44    0.83
  -5   7   9    8.25    0.77
  -5  -7  -9    7.21    0.83
   5   7   9    7.70    0.87
  -5   7  -9    6.87    0.75
  -5  -7   9    7.99    0.82
  -7  -7  -9    0.94    0.33
  -7   7   9    1.52    0.37
   7  -7   9    1.49    0.36
  -7   7  -9    1.65    0.38
   7   7   9    1.26    0.37
  -7  -7   9    1.57    0.39
   9  -7   9    5.07    0.65
  -9   7   9    5.12    0.71
  -9  -7  -9    5.12    0.71
   9   7   9    5.71    0.71
   9  -7  -9    7.72    0.86
  -9  -7   9    4.80    0.73
  -9   7  -9    5.19    0.67
 -11   7   9    1.60    0.46
  11   7  -9    1.60    0.53
 -11  -7  -9    1.54    0.44
  11   7   9    1.59    0.46
 -11   7  -9    2.21    0.48
  11  -7  -9    1.89    0.52
   0   8   9    3.97    0.45
   0  -8   9    3.68    0.60
   0   8  -9    3.14    0.43
   0  -8   9    3.13    0.57
  -2   8   9    6.46    0.60
   2  -8   9    6.26    0.82
  -2  -8  -9    6.39    0.73
  -2  -8   9    6.48    0.83
  -2   8  -9    6.53    0.65
   2   8   9    6.83    0.66
  -4  -8  -9    1.48    0.36
   4  -8   9    1.73    0.40
  -4   8   9    1.67    0.31
   4   8   9    1.58    0.36
  -4   8  -9    1.36    0.33
  -4  -8   9    1.11    0.34
  -6  -8  -9    5.28    0.67
  -6   8   9    4.83    0.62
   6  -8   9    4.83    0.65
   6   8   9    4.74    0.66
  -6   8  -9    5.33    0.65
  -6  -8   9    5.50    0.69
   8  -8   9    2.40    0.44
  -8   8   9    2.00    0.43
  -8  -8  -9    2.57    0.47
  -8   8  -9    2.14    0.42
   8   8   9    2.29    0.47
  -8  -8   9    2.78    0.51
 -10   8   9    0.74    0.35
  10  -8   9    1.20    0.34
 -10  -8  -9    1.40    0.41
 -10   8  -9    0.55    0.31
  10  -8  -9    1.40    0.48
  10   8   9    1.09    0.39
 -12  -8  -9    2.07    0.60
 -12   8   9    2.03    0.48
  12   8   9    1.28    0.50
  12  -8  -9    1.93    0.55
 -12   8  -9    2.04    0.52
  -1   9   9   19.91    1.48
   1   9  -9   19.32    1.53
   1  -9   9   18.33    1.71
  -1  -9  -9   19.11    1.56
  -1   9  -9   18.50    1.51
   1   9   9   19.11    1.50
  -1  -9   9   17.11    1.70
  -3  -9  -9   25.49    1.90
  -3   9   9   23.96    1.78
   3  -9   9   24.50    2.05
  -3  -9   9   21.73    1.99
  -3   9  -9   21.76    1.83
   3   9   9   21.75    1.83
  -5   9   9   28.48    2.03
   5  -9   9   25.50    2.23
  -5  -9  -9   25.60    2.10
  -5   9  -9   23.80    2.04
  -5  -9   9   26.12    2.20
   7  -9   9    4.85    0.68
  -7   9   9    4.68    0.61
  -7  -9  -9    4.12    0.61
   7   9   9    4.53    0.65
  -7  -9   9    4.77    0.64
  -7   9  -9    4.28    0.59
  -9   9   9   17.88    1.60
   9  -9   9   19.23    1.69
  -9  -9  -9   20.66    1.65
   9   9   9   18.05    1.62
  -9   9  -9   20.40    1.62
  -9  -9   9   17.91    1.72
 -11   9   9    5.31    0.74
 -11  -9  -9    6.01    0.78
  11   9   9    5.69    0.77
  11  -9  -9    6.19    0.85
 -11   9  -9    6.46    0.79
   0  10   9   12.64    0.98
   0 -10   9   11.04    1.20
   0  10  -9   10.95    0.99
   2 -10   9   11.55    1.24
  -2  10   9   13.12    1.03
  -2 -10  -9   12.84    1.15
  -2 -10   9   11.27    1.22
  -2  10  -9   12.17    1.08
   2  10   9   13.33    1.08
  -4 -10  -9    4.48    0.62
  -4  10   9    4.33    0.50
   4 -10   9    2.84    0.58
  -4  10  -9    4.66    0.58
  -4 -10   9    4.22    0.61
   4  10   9    4.43    0.59
   6 -10   9   11.69    1.17
  -6 -10  -9   12.90    1.13
  -6  10   9   11.27    1.03
  -6 -10   9   12.57    1.17
   6  10   9   11.60    1.12
  -6  10  -9   11.62    1.09
  -8 -10  -9    9.05    0.87
  -8  10   9    7.35    0.80
   8 -10   9    7.63    0.86
   8  10   9    6.97    0.89
  -8  10  -9    7.16    0.84
  -8 -10   9    8.18    0.92
 -10 -10  -9    1.67    0.44
  10 -10   9    1.75    0.43
 -10  10   9    1.44    0.41
 -10  10  -9    2.59    0.51
   1  11  -9    1.30    0.30
  -1 -11  -9    1.33    0.34
   1 -11   9    2.04    0.49
  -1  11   9    1.13    0.24
  -1 -11   9    1.17    0.39
  -1  11  -9    1.64    0.33
   1  11   9    1.32    0.27
   3 -11   9    1.93    0.47
  -3  11   9    2.26    0.33
  -3 -11  -9    2.04    0.43
   3  11   9    1.95    0.38
  -3  11  -9    2.17    0.41
  -3 -11   9    2.59    0.50
   5 -11   9    1.62    0.42
  -5 -11  -9    1.61    0.41
  -5  11   9    1.37    0.31
  -5 -11   9    1.42    0.39
  -5  11  -9    1.26    0.36
   5  11   9    1.42    0.35
  -7 -11  -9    0.87    0.35
   7 -11   9    0.99    0.36
  -7  11   9    0.68    0.27
  -7 -11   9    0.37    0.35
   7  11   9    0.45    0.32
  -7  11  -9    0.31    0.29
  -9 -11  -9    0.86    0.35
   9 -11   9    0.74    0.35
   9  11   9    0.75    0.37
  -9  11  -9    1.00    0.38
   0  12   9    2.82    0.37
   0  12  -9    3.13    0.43
   0 -12   9    3.73    0.63
  -2 -12  -9    5.55    0.66
  -2  12   9    4.78    0.50
   2 -12   9    4.09    0.71
   2  12   9    5.21    0.54
  -2  12  -9    4.56    0.58
  -2 -12   9    4.94    0.72
  -4 -12  -9    2.04    0.40
   4 -12   9    1.43    0.43
  -4  12   9    1.59    0.30
   4  12   9    1.57    0.34
  -4  12  -9    1.71    0.36
  -4 -12   9    1.51    0.42
  -6  12   9    3.94    0.51
   6 -12   9    4.34    0.68
  -6 -12  -9    4.08    0.60
  -6 -12   9    4.26    0.66
  -6  12  -9    4.03    0.58
   6  12   9    4.00    0.58
  -8 -12  -9    2.81    0.52
   8 -12   9    2.40    0.53
  -8  12  -9    2.60    0.48
   8  12   9    3.14    0.54
   1 -13   9    8.29    1.07
  -1  13   9    9.52    0.77
   1  13  -9    8.24    0.82
  -1 -13   9    7.60    1.00
  -1  13  -9    8.96    0.85
   1  13   9    9.11    0.77
  -3  13   9   12.75    1.02
   3 -13   9   11.81    1.26
  -3 -13  -9   12.74    1.13
  -3 -13   9   12.40    1.25
  -3  13  -9   12.40    1.11
   3  13   9   11.34    1.03
   5 -13   9    9.90    1.21
  -5 -13  -9   11.66    1.09
  -5  13  -9   12.31    1.10
   5  13   9   12.76    1.08
  -5 -13   9   12.25    1.22
   7 -13   9    3.19    0.63
  -7 -13  -9    4.08    0.59
  -7  13  -9    4.11    0.59
   7  13   9    2.88    0.53
   0  14  -9    3.07    0.49
   0 -14   9    2.96    0.61
   0  14   9    4.43    0.43
  -2 -14  -9    5.19    0.65
  -2  14   9    6.02    0.55
   2 -14   9    5.28    0.81
  -2 -14   9    6.43    0.84
  -2  14  -9    5.68    0.67
   2  14   9    5.13    0.54
   4 -14   9    1.51    0.49
  -4 -14  -9    1.37    0.38
  -4  14  -9    1.23    0.37
   4  14   9    1.07    0.28
  -4 -14   9    1.61    0.50
  -6 -14  -9    6.08    0.72
   6 -14   9    4.82    0.88
   6  14   9    4.98    0.64
   1  15  -9    0.65    0.29
   1 -15   9    0.17    0.43
   1  15   9    0.29    0.16
  -1  15  -9    0.54    0.29
  -1 -15   9    0.15    0.41
   3 -15   9    0.53    0.43
  -3 -15  -9    0.17    0.25
   3  15   9    0.63    0.20
  -3  15  -9    0.30    0.28
  -3 -15   9    0.48    0.42
   0   0 -10   54.14    4.10
   0   0  10   49.39    3.75
  -2   0 -10  351.43   24.09
  -2   0  10  305.71   22.81
  -2   0  10  313.37   22.85
  -2   0 -10  292.97   22.90
   2   0 -10  326.40   24.08
   2   0  10  313.94   22.80
  -2   0  10  345.54   24.51
  -4   0  10   67.09    5.96
  -4   0  10   77.67    6.05
  -4   0  10   94.14    6.42
  -4   0 -10   81.23    6.04
   4   0  10   83.55    5.99
   4   0 -10   90.75    6.39
  -6   0  10  206.23   16.50
  -6   0 -10  253.44   16.54
  -8   0 -10   47.24    3.15
  -8   0  10   34.95    3.14
   8   0 -10   38.07    3.36
 -10   0  10   99.33    7.38
  10   0 -10  100.11    7.90
 -12   0  10   22.22    2.09
  12   0 -10   23.30    2.21
 -12   0 -10   30.86    2.12
  -1  -1 -10    1.86    0.50
   1  -1  10    2.31    0.31
  -1   1  10    1.48    0.29
  -1   1  10    1.47    0.26
   1   1 -10    2.15    0.45
  -1  -1 -10    1.18    0.31
  -1  -1  10    1.70    0.31
   1   1  10    1.36    0.25
   1   1  10    1.57    0.28
  -1   1 -10    1.20    0.34
   1  -1 -10    2.38    0.52
  -1  -1  10    1.22    0.27
  -1   1 -10    1.61    0.42
  -3   1  10   19.32    1.66
  -3   1  10   24.40    1.75
   3   1 -10   20.04    1.80
   3  -1  10   19.76    1.62
  -3  -1 -10   19.22    1.68
  -3   1  10   18.15    1.60
  -3  -1 -10   26.28    1.92
  -3  -1  10   17.89    1.62
  -3   1 -10   20.01    1.68
  -3  -1  10   21.05    1.73
  -3  -1  10   19.12    1.72
   3   1  10   20.73    1.62
  -3   1 -10   22.22    1.84
   3  -1 -10   22.23    1.84
  -5   1  10    0.27    0.24
   5   1 -10    0.34    0.33
  -5  -1 -10    0.30    0.26
  -5   1  10    0.22    0.31
  -5  -1  10    0.33    0.32
   5  -1 -10    0.28    0.37
  -5   1 -10   -0.16    0.23
  -5  -1  10    0.60    0.25
  -7  -1 -10    7.00    0.82
  -7   1  10    8.28    0.93
  -7  -1  10    6.12    0.85
  -7   1 -10    6.12    0.77
   7  -1 -10    7.22    0.92
  -9   1  10    0.43    0.37
   9   1 -10    0.11    0.33
  -9  -1 -10    0.72    0.35
  -9   1 -10    0.42    0.32
   9  -1 -10    0.36    0.33
  -9  -1  10    0.08    0.35
 -11   1  10    5.57    0.85
 -11  -1 -10    6.14    0.77
  11   1 -10    4.78    0.80
 -11   1 -10    6.92    0.80
  11  -1 -10    5.02    0.78
 -11  -1  10    5.88    0.84
 -13   1  10    0.93    0.41
 -13  -1 -10    0.22    0.39
  13   1 -10    0.24    0.33
  13  -1 -10   -0.05    0.33
 -13   1 -10    0.21    0.36
 -13  -1  10   -0.29    0.39
   0   2  10  156.02   10.91
   0  -2  10  151.18   10.93
   0  -2  10  151.96   11.76
   0  -2 -10  170.28   11.67
   0   2  10  147.11   10.90
   0   2 -10  142.52   11.57
   2   2 -10  140.34   10.70
  -2   2  10  138.67   10.08
  -2   2  10  144.61   10.11
  -2  -2 -10  141.78   10.16
   2  -2  10  143.46   10.09
  -2   2 -10  127.78   10.15
  -2  -2  10  146.06   10.85
   2   2  10  144.38   10.06
  -2   2 -10  140.79   10.69
  -2  -2  10  132.94   10.11
   2   2  10  140.92   10.08
   2  -2 -10  149.83   10.77
  -4  -2 -10  141.17    9.41
   4  -2  10  135.11    9.33
   4   2 -10  135.61    9.86
  -4   2  10  113.58    9.28
  -4   2  10  130.83    9.37
  -4  -2  10  112.13    9.37
  -4   2 -10  118.72    9.37
   4  -2 -10  140.33    9.92
  -4  -2  10  143.84   10.01
   4   2  10  135.80    9.33
   4  -2 -10  143.11   10.12
  -4  -2  10  107.66    9.32
  -6  -2 -10  116.49    8.05
  -6   2  10  110.01    8.05
  -6   2 -10  106.39    8.01
  -6  -2  10   89.26    8.01
  -6  -2  10  125.66    8.56
   6  -2 -10  111.53    8.66
  -8   2  10   85.83    6.80
   8   2 -10   88.77    7.30
  -8  -2 -10  104.53    6.80
  -8   2 -10  106.07    6.79
   8  -2 -10   86.12    7.28
  -8  -2  10   80.89    6.77
 -10  -2 -10   84.61    5.18
 -10   2  10   64.54    5.17
  10   2 -10   67.95    5.56
  10  -2 -10   66.14    5.52
 -10  -2  10   60.97    5.14
  12   2 -10   51.78    4.07
 -12   2  10   44.53    3.78
 -12  -2  10   47.11    3.79
  12  -2 -10   52.71    4.03
   1   3 -10    1.57    0.41
  -1  -3 -10    3.00    0.63
   1  -3  10    2.68    0.45
  -1   3  10    2.37    0.32
   1  -3  10    2.31    0.35
  -1   3  10    2.52    0.34
  -1  -3 -10    2.15    0.36
   1   3  10    2.33    0.32
  -1   3 -10    2.21    0.48
  -1   3 -10    1.76    0.37
   1   3  10    1.87    0.29
  -1  -3  10    2.12    0.38
   1  -3 -10    2.42    0.54
  -1  -3  10    1.87    0.35
   3   3 -10    9.79    1.05
  -3  -3 -10   12.60    1.24
  -3  -3 -10   10.69    0.96
   3  -3  10   10.48    0.92
  -3   3  10    9.60    0.88
  -3   3  10   12.62    0.96
   3  -3  10   10.19    1.04
   3  -3 -10   10.88    1.15
  -3   3 -10    8.58    0.95
   3   3  10    9.43    0.90
   3   3  10   10.68    0.91
  -3   3 -10   12.91    1.11
  -3  -3  10   10.84    0.98
  -3  -3  10    8.64    0.93
  -5  -3 -10    2.98    0.49
  -5   3  10    3.95    0.55
   5   3  10    2.70    0.46
  -5   3 -10    2.55    0.47
  -5  -3  10    3.04    0.45
   5  -3 -10    3.60    0.62
  -7  -3 -10    1.16    0.36
  -7   3  10    1.40    0.39
   7  -3 -10    1.17    0.42
  -7   3 -10    0.66    0.29
  -7  -3  10    1.02    0.30
  -7  -3  10    1.01    0.41
  -9   3  10    3.66    0.62
  -9  -3 -10    4.21    0.60
   9   3 -10    3.48    0.67
  -9  -3  10    4.01    0.65
   9  -3 -10    4.26    0.66
  -9   3 -10    3.75    0.57
 -11   3  10    2.59    0.58
  11   3 -10    1.39    0.51
 -11  -3 -10    2.09    0.46
 -11   3 -10    1.82    0.43
 -11  -3  10    3.37    0.63
  11  -3 -10    1.52    0.46
 -13  -3 -10    0.84    0.47
 -13   3 -10    1.00    0.46
   0   4  10  413.47   29.17
   0  -4  10  431.12   31.45
   0   4 -10  359.11   30.75
   0  -4 -10  420.36   30.85
   0  -4  10  434.96   29.23
   2  -4  10  107.30    8.37
   2  -4  10  115.01    7.73
  -2  -4 -10  109.08    7.75
  -2   4  10  115.45    7.72
   2   4 -10   96.61    8.17
  -2  -4 -10  111.78    8.27
  -2  -4  10   95.30    7.74
  -2   4 -10  101.38    8.16
   2  -4 -10  108.61    8.27
  -2  -4  10  106.06    8.31
  -2   4 -10  105.72    7.78
   2   4  10  110.41    7.69
   2   4  10  109.15    7.70
   4  -4  10  322.46   22.59
  -4   4  10  292.87   20.97
  -4  -4 -10  296.45   21.03
  -4   4 -10  283.51   21.04
   4   4  10  290.48   20.95
  -4   4 -10  283.05   22.04
   4   4  10  294.53   20.96
  -4  -4  10  292.45   22.51
  -6  -4 -10   48.67    3.58
  -6   4  10   46.90    3.59
   6  -4 -10   44.59    3.85
  -6  -4  10   48.87    3.78
  -6   4 -10   46.26    3.56
   6   4  10   47.38    3.56
  -8  -4 -10  193.60   13.05
  -8   4  10  157.21   13.02
  -8   4 -10  195.11   13.04
  -8  -4  10  191.42   13.94
   8  -4 -10  166.25   14.00
 -10  -4 -10   38.58    2.58
  10   4 -10   27.74    2.76
 -10   4  10   29.52    2.58
 -10   4 -10   38.03    2.56
 -10  -4  10   27.32    2.56
  10  -4 -10   31.84    2.73
  12   4 -10   74.13    5.92
 -12   4  10   75.35    5.51
 -12  -4  10   62.84    5.46
  12  -4 -10   81.91    5.88
   1  -5  10    4.34    0.54
   1  -5  10    3.77    0.62
  -1   5  10    3.74    0.46
  -1  -5 -10    5.21    0.77
   1  -5 -10    4.42    0.69
  -1  -5  10    4.03    0.58
   1   5  10    4.22    0.45
  -1   5 -10    4.93    0.65
  -1   5 -10    4.96    0.59
  -1  -5  10    3.47    0.52
   3  -5  10    8.43    0.87
  -3  -5 -10    6.89    0.71
  -3   5  10    7.24    0.68
  -3  -5 -10    6.92    0.93
   3   5  10    7.81    0.71
  -3   5 -10    6.59    0.72
  -3   5 -10    7.64    0.87
  -3  -5  10    6.39    0.73
  -5  -5 -10    5.70    0.68
   5  -5  10    5.37    0.72
  -5   5  10    5.46    0.65
  -5   5 -10    5.04    0.67
  -5  -5  10    5.81    0.65
   5   5  10    6.33    0.71
  -7  -5 -10    0.76    0.33
  -7   5  10    0.70    0.32
   7   5  10    1.11    0.35
   7  -5 -10    1.08    0.41
  -7  -5  10    0.99    0.30
  -7   5 -10    0.97    0.30
  -9   5  10    4.97    0.72
  -9  -5 -10    4.93    0.66
  -9   5 -10    5.14    0.64
   9  -5 -10    4.84    0.71
   9   5  10    3.75    0.61
 -11   5  10    1.46    0.43
  11   5 -10    1.23    0.45
 -11  -5 -10    1.57    0.42
  11  -5 -10    1.51    0.45
 -11  -5  10    1.02    0.51
 -11   5 -10    2.14    0.46
   0  -6  10  125.86    9.97
   0   6  10  129.84    9.17
  -2  -6 -10  127.99    9.54
  -2   6  10  129.89    8.89
  -2  -6 -10  125.76    8.94
   2  -6  10  119.23    9.66
  -2   6 -10  110.11    8.94
  -2  -6  10  123.26    9.61
   2   6  10  130.27    8.90
  -4  -6 -10  104.75    7.92
   4  -6  10  115.39    8.56
  -4   6  10  115.23    7.89
   4   6  10  103.99    7.90
  -4   6 -10  104.47    7.93
  -4  -6  10  111.18    8.48
  -6  -6 -10  100.93    7.00
  -6   6  10   89.64    6.94
   6  -6  10   98.09    7.48
  -6  -6  10   96.94    7.45
   6   6  10   94.77    6.98
  -6   6 -10   92.50    6.97
  -8  -6 -10   85.77    5.91
  -8   6  10   70.42    5.87
  -8   6 -10   86.46    5.90
  -8  -6  10   86.37    6.29
   8   6  10   70.51    5.85
   8  -6 -10   80.21    6.32
 -10   6  10   57.09    4.86
 -10  -6 -10   74.23    4.91
  10   6 -10   62.41    5.28
 -10   6 -10   76.75    4.89
  10  -6 -10   65.64    5.22
  10   6  10   56.79    4.83
  12   6 -10   43.40    4.41
 -12  -6 -10   55.96    4.13
 -12   6 -10   64.70    4.14
  12  -6 -10   54.27    4.40
   1  -7  10    1.74    0.45
  -1   7  10    1.69    0.28
   1   7  10    2.23    0.33
  -1  -7  10    1.72    0.40
  -1   7 -10    2.10    0.38
   3  -7  10   20.57    1.79
  -3   7  10   20.54    1.53
  -3  -7 -10   17.80    1.57
   3   7  10   21.73    1.59
  -3  -7  10   19.20    1.69
  -3   7 -10   16.62    1.56
   5  -7  10    0.63    0.32
  -5  -7 -10    0.73    0.30
  -5   7  10    0.84    0.26
  -5  -7  10    0.66    0.28
   5   7  10    1.16    0.35
  -5   7 -10    0.53    0.29
   7  -7  10    7.95    0.84
  -7   7  10    7.81    0.81
  -7  -7 -10    7.86    0.83
  -7  -7  10    7.46    0.81
  -7   7 -10    7.43    0.84
   7   7  10    7.41    0.87
  -9  -7 -10    0.51    0.31
  -9   7  10    0.73    0.34
   9   7  10    1.21    0.41
  -9  -7  10    0.86    0.34
   9  -7 -10    0.37    0.41
  -9   7 -10    0.63    0.33
  11   7 -10    4.55    0.82
 -11   7  10    6.36    0.81
 -11  -7 -10    7.09    0.83
  11   7  10    4.38    0.74
  11  -7 -10    7.58    0.89
 -11   7 -10    7.38    0.81
   0   8  10   25.54    1.84
   0   8 -10   23.72    1.87
   0  -8  10   22.07    2.10
   2  -8  10  209.29   15.99
  -2  -8 -10  191.84   14.82
  -2   8  10  214.32   14.74
  -2  -8  10  205.95   15.93
   2   8  10  219.35   14.77
  -2   8 -10  199.74   14.83
  -4   8  10   44.01    3.20
   4  -8  10   44.42    3.55
  -4  -8 -10   43.29    3.26
  -4  -8  10   43.10    3.47
   4   8  10   45.15    3.26
  -4   8 -10   38.02    3.24
  -6   8  10  193.08   13.86
  -6  -8 -10  195.03   13.94
   6  -8  10  193.45   14.95
   6   8  10  192.24   13.91
  -6  -8  10  194.07   14.90
  -8   8  10   25.70    2.05
   8  -8  10   23.82    2.17
  -8  -8 -10   27.99    2.09
   8   8  10   24.18    2.06
  -8  -8  10   26.25    2.18
  -8   8 -10   25.97    2.06
 -10   8  10   81.41    6.87
 -10  -8 -10  107.07    6.96
  10   8  10   84.94    6.90
 -10   8 -10  105.60    6.93
   1  -9  10    1.76    0.48
  -1   9  10    2.10    0.32
   1   9  10    1.96    0.32
  -1   9 -10    2.56    0.39
  -1  -9  10    2.15    0.48
  -3  -9 -10    7.11    0.76
   3  -9  10    7.01    0.92
  -3   9  10    7.92    0.69
   3   9  10    8.33    0.77
  -3   9 -10    6.89    0.76
  -3  -9  10    7.71    0.85
   5  -9  10    0.92    0.36
  -5   9  10    0.95    0.25
  -5  -9 -10    0.63    0.32
  -5   9 -10    0.95    0.33
  -5  -9  10    1.05    0.32
   5   9  10    0.71    0.34
  -7   9  10    5.03    0.59
   7  -9  10    4.31    0.63
  -7  -9 -10    3.18    0.55
  -7   9 -10    3.60    0.57
  -7  -9  10    4.22    0.60
   7   9  10    4.38    0.62
  -9   9  10    0.49    0.29
  -9  -9 -10    0.66    0.34
   9  -9  10    0.62    0.32
  -9   9 -10    0.65    0.31
   9   9  10    0.53    0.35
  -9  -9  10    0.91    0.40
   0  10 -10   49.17    3.68
   0 -10  10   44.40    4.04
   0  10  10   54.33    3.66
  -2  10  10   76.11    5.16
  -2 -10 -10   70.44    5.24
   2 -10  10   64.32    5.67
  -2  10 -10   66.91    5.21
   2  10  10   75.20    5.18
  -2 -10  10   71.48    5.65
   4 -10  10   58.07    4.95
  -4  10  10   63.40    4.50
  -4 -10 -10   60.87    4.58
   4  10  10   63.54    4.56
  -4 -10  10   63.79    4.90
  -4  10 -10   58.59    4.56
  -6  10  10   79.51    5.47
  -6 -10 -10   75.40    5.55
   6 -10  10   70.59    5.95
   6  10  10   72.70    5.52
  -6 -10  10   79.18    5.91
  -6  10 -10   71.26    5.52
  -8 -10 -10   51.16    3.86
  -8  10  10   49.01    3.79
  -8 -10  10   52.50    4.10
   8  10  10   50.81    3.85
  -8  10 -10   50.84    3.84
  -1  11  10    4.52    0.44
   1 -11  10    4.08    0.70
  -1  11 -10    3.47    0.50
   1  11  10    3.89    0.46
  -1 -11  10    3.89    0.63
  -3  11  10   11.19    0.94
  -3 -11 -10   12.37    1.05
   3 -11  10   10.57    1.17
  -3  11 -10   10.75    1.01
   3  11  10   11.31    0.98
  -3 -11  10    9.88    1.09
   5 -11  10    4.23    0.69
  -5 -11 -10    4.93    0.65
  -5  11  10    4.63    0.54
  -5  11 -10    4.30    0.62
   5  11  10    4.75    0.61
  -5 -11  10    5.52    0.67
   7 -11  10    2.95    0.58
  -7  11  10    2.97    0.44
  -7 -11 -10    2.70    0.50
   7  11  10    2.79    0.49
  -7 -11  10    3.06    0.56
  -7  11 -10    2.53    0.46
  -9  11  10    4.67    0.60
   0  12 -10  149.73   11.48
   0  12  10  167.13   11.40
   0 -12  10  162.36   12.42
   2 -12  10   28.51    2.70
  -2  12  10   33.10    2.37
  -2 -12 -10   32.44    2.45
  -2  12 -10   29.29    2.43
  -2 -12  10   31.68    2.66
   2  12  10   33.23    2.39
  -4  12  10  140.40    9.58
  -4 -12 -10  137.24    9.69
   4 -12  10  125.65   10.44
  -4 -12  10  135.13   10.37
   4  12  10  135.85    9.62
  -4  12 -10  126.38    9.68
   6 -12  10   19.13    1.72
  -6 -12 -10   18.50    1.56
   6  12  10   17.69    1.53
  -6 -12  10   19.86    1.67
  -6  12 -10   16.60    1.54
  -1  13  10    1.54    0.28
   1 -13  10    1.01    0.41
  -1 -13  10    1.65    0.45
   1  13  10    1.41    0.27
  -1  13 -10    1.79    0.36
  -3  13  10    0.86    0.24
   3 -13  10    0.95    0.41
  -3 -13 -10    0.46    0.28
  -3  13 -10    0.68    0.32
  -3 -13  10    0.36    0.34
   3  13  10    1.56    0.30
  -5  13  10    2.38    0.36
  -5 -13 -10    1.73    0.42
   5 -13  10    2.09    0.52
   5  13  10    2.25    0.40
  -5  13 -10    2.44    0.45
  -5 -13  10    3.01    0.55
   0 -14  10   62.66    5.11
   0  14  10   66.73    4.61
   0  14 -10   60.44    4.67
   2 -14  10   32.81    3.00
  -2  14  10   37.23    2.63
   2  14  10   34.85    2.63
  -2 -14  10   35.62    2.96
  -2  14 -10   35.12    2.72
  -4 -14  10   55.06    4.34
  -4  14 -10   52.58    4.06
   4  14  10   54.06    3.96
   0   0  11    0.46    0.19
   0   0 -11    0.39    0.37
  -2   0 -11    0.04    0.22
  -2   0  11    0.14    0.16
  -2   0  11    0.17    0.27
  -2   0 -11   -0.24    0.39
  -2   0  11   -0.07    0.17
  -4   0 -11    0.12    0.23
  -4   0  11    0.16    0.17
  -4   0  11    0.11    0.29
  -6   0  11    0.05    0.31
  -6   0 -11   -0.10    0.25
  -8   0  11    0.08    0.30
   8   0 -11    0.18    0.32
  -8   0 -11    0.30    0.29
  10   0 -11    0.00    0.31
 -10   0 -11    0.52    0.30
 -10   0  11   -0.10    0.35
 -12   0 -11    0.07    0.30
 -12   0  11    0.22    0.35
  12   0 -11    0.20    0.30
  -1   1  11   21.63    1.55
  -1   1  11   17.75    1.49
  -1  -1 -11   23.06    1.82
  -1  -1  11   17.57    1.54
   1   1  11   18.18    1.49
  -1   1 -11   19.16    1.72
  -1  -1  11   19.70    1.62
  -3   1  11   27.47    2.12
  -3  -1 -11   23.63    2.02
  -3   1  11   26.33    2.03
  -3  -1 -11   27.06    2.24
  -3   1 -11   26.74    2.21
  -3   1 -11   23.70    2.03
  -3  -1  11   25.27    2.11
  -5  -1 -11   20.12    1.69
  -5   1  11   19.15    1.71
  -5  -1  11   19.86    1.75
   5  -1 -11   23.12    1.86
  -5   1 -11   20.19    1.69
  -5  -1  11   20.60    1.73
  -7   1  11    4.40    0.67
  -7  -1 -11    4.37    0.61
   7   1 -11    5.00    0.71
  -7  -1  11    3.28    0.65
   7  -1 -11    4.46    0.67
  -7   1 -11    5.14    0.64
   9   1 -11   12.43    1.30
  -9   1  11   13.48    1.28
  -9  -1 -11   14.59    1.20
  -9  -1  11   10.89    1.24
   9  -1 -11   11.90    1.28
  -9   1 -11   13.03    1.19
 -11  -1 -11    6.28    0.70
 -11   1  11    6.61    0.86
  11   1 -11    4.79    0.75
 -11  -1  11    4.15    0.76
 -11   1 -11    6.11    0.71
  11  -1 -11    5.39    0.76
   0  -2  11   35.65    2.86
   0   2  11   34.06    2.62
   0   2  11   36.51    2.64
  -2   2  11   43.48    3.42
  -2   2  11   49.21    3.47
  -2  -2 -11   43.70    3.48
  -2  -2 -11   54.99    3.83
   2   2  11   47.18    3.44
  -2   2 -11   46.14    3.75
   2   2  11   47.81    3.43
  -2   2 -11   43.34    3.50
  -2  -2  11   46.96    3.71
  -4   2  11   14.36    1.18
  -4  -2 -11   13.93    1.18
  -4   2 -11   11.27    1.16
   4  -2 -11   14.20    1.31
  -4  -2  11   13.47    1.20
  -6  -2 -11   37.89    2.79
  -6   2  11   33.44    2.78
  -6  -2  11   31.35    2.81
  -6   2 -11   37.08    2.78
   6  -2 -11   38.23    3.02
  -6  -2  11   36.77    2.91
   8   2 -11   16.90    1.58
  -8   2  11   16.37    1.50
  -8  -2 -11   17.12    1.43
   8  -2 -11   16.79    1.57
  -8   2 -11   17.83    1.43
  -8  -2  11   14.24    1.49
 -10   2  11    4.99    0.77
 -10  -2 -11    5.85    0.68
  10   2 -11    5.83    0.82
 -10   2 -11    6.46    0.73
 -10  -2  11    4.30    0.76
  10  -2 -11    4.56    0.72
 -12  -2 -11   10.16    0.98
  12   2 -11    9.16    1.07
 -12   2  11    8.79    1.07
 -12   2 -11   12.85    1.05
 -12  -2  11    8.23    1.12
  12  -2 -11    8.86    1.02
   1  -3  11    9.30    0.98
  -1   3  11   10.76    0.84
  -1   3  11   10.49    0.87
   1   3  11    9.72    0.84
  -1  -3  11   10.22    0.96
   1   3  11    9.51    0.83
  -3  -3 -11   12.20    1.11
  -3  -3 -11   16.25    1.44
  -3   3  11   13.63    1.11
  -3   3 -11   12.30    1.12
  -3  -3  11   11.78    1.15
   3   3  11   13.06    1.07
  -5   3  11   13.35    1.18
  -5  -3 -11   13.72    1.17
  -5  -3  11   12.54    1.18
   5  -3 -11   15.04    1.34
  -5   3 -11   11.93    1.15
  -7  -3 -11    1.81    0.38
  -7   3  11    1.54    0.43
   7  -3 -11    2.07    0.49
  -7   3 -11    1.71    0.41
  -7  -3  11    2.03    0.39
   9   3 -11   10.30    1.08
  -9  -3 -11    9.76    0.92
  -9   3  11    9.29    0.99
  -9  -3  11    8.47    1.07
  -9   3 -11    9.40    0.93
   9  -3 -11    9.29    1.04
 -11  -3 -11    1.92    0.43
  11   3 -11    2.31    0.54
 -11   3  11    2.53    0.50
 -11  -3  11    2.32    0.64
  11  -3 -11    2.33    0.50
 -11   3 -11    3.19    0.49
   0   4  11    1.77    0.29
   0  -4  11    1.87    0.39
  -2  -4 -11    2.72    0.39
   2  -4  11    3.11    0.52
  -2   4  11    2.29    0.35
  -2   4 -11    2.15    0.40
  -2  -4  11    2.44    0.43
   2   4  11    2.35    0.34
  -4   4  11    0.54    0.23
  -4  -4 -11    0.32    0.25
   4   4  11    1.11    0.28
  -4  -4  11    1.06    0.28
  -4   4 -11    0.43    0.26
  -6  -4 -11    1.79    0.39
  -6   4  11    2.11    0.42
  -6  -4  11    1.79    0.36
   6   4  11    2.15    0.42
  -6   4 -11    1.60    0.38
  -8  -4 -11    1.01    0.33
  -8   4  11    1.17    0.40
   8  -4 -11    0.73    0.39
  -8   4 -11    1.06    0.35
  -8  -4  11    0.89    0.31
  10   4 -11    0.61    0.39
 -10  -4 -11    0.66    0.28
 -10   4  11    0.27    0.34
  10  -4 -11    0.48    0.36
 -10   4 -11    0.52    0.27
 -10  -4  11    0.05    0.45
 -12  -4  11    0.49    0.57
  -1   5  11   18.61    1.49
   1  -5  11   17.49    1.70
  -1  -5  11   20.82    1.69
  -1   5 -11   18.88    1.56
   1   5  11   19.51    1.49
  -3  -5 -11   20.34    1.73
   3  -5  11   22.69    1.97
  -3   5  11   24.32    1.74
  -3  -5  11   23.10    1.88
  -3   5 -11   19.93    1.77
   3   5  11   21.99    1.73
  -5  -5 -11   25.64    1.98
  -5   5  11   27.07    1.96
   5   5  11   24.15    1.96
  -5   5 -11   22.65    1.97
  -5  -5  11   24.40    2.07
  -7   5  11    4.43    0.59
  -7  -5 -11    3.73    0.53
  -7   5 -11    3.17    0.51
   7   5  11    4.27    0.58
  -7  -5  11    3.40    0.53
  -9  -5 -11   19.03    1.48
  -9   5  11   16.15    1.47
  -9   5 -11   17.19    1.45
   9  -5 -11   15.53    1.56
  11   5 -11    4.44    0.75
 -11  -5 -11    5.62    0.66
 -11   5  11    4.43    0.70
  11  -5 -11    5.38    0.74
 -11   5 -11    5.21    0.65
   0   6  11   22.91    1.80
   0  -6  11   24.53    2.06
   2  -6  11   30.23    2.35
  -2   6  11   27.63    2.03
  -2  -6 -11   25.48    2.06
   2   6  11   26.86    2.03
  -2   6 -11   23.69    2.08
  -2  -6  11   26.62    2.24
   4  -6  11    9.52    1.00
  -4   6  11    9.61    0.83
  -4  -6 -11    8.77    0.84
   4   6  11    9.45    0.84
  -4  -6  11    7.85    0.87
  -4   6 -11    8.21    0.87
  -6  -6 -11   22.86    1.82
  -6   6  11   22.28    1.78
  -6  -6  11   22.39    1.90
  -6   6 -11   21.25    1.81
   6   6  11   23.02    1.81
  -8  -6 -11   13.87    1.17
  -8   6  11   11.56    1.15
  -8   6 -11   12.69    1.15
  -8  -6  11   13.89    1.20
   8   6  11   12.11    1.18
  10   6 -11    3.16    0.61
 -10   6  11    3.01    0.56
 -10  -6 -11    3.99    0.57
  10  -6 -11    2.95    0.57
 -10   6 -11    3.47    0.52
   1  -7  11    3.62    0.61
  -1   7  11    3.23    0.40
  -1   7 -11    2.83    0.45
  -1  -7  11    3.22    0.56
   1   7  11    2.70    0.38
  -3  -7 -11    4.88    0.57
   3  -7  11    6.00    0.78
  -3   7  11    5.00    0.54
   3   7  11    4.47    0.56
  -3   7 -11    4.15    0.57
  -3  -7  11    3.86    0.59
  -5  -7 -11    3.41    0.49
   5  -7  11    3.72    0.58
  -5   7  11    3.68    0.47
   5   7  11    3.46    0.50
  -5   7 -11    2.94    0.48
  -5  -7  11    2.96    0.48
  -7  -7 -11    1.48    0.37
  -7   7  11    1.18    0.32
  -7   7 -11    0.80    0.32
  -7  -7  11    1.29    0.34
   7   7  11    0.85    0.34
  -9  -7 -11    3.06    0.48
  -9   7  11    2.01    0.43
   9   7  11    1.92    0.48
  -9  -7  11    2.21    0.45
  -9   7 -11    3.18    0.47
   0   8  11    2.84    0.38
   0  -8  11    2.50    0.53
   2  -8  11    4.49    0.72
  -2   8  11    4.55    0.51
  -2  -8 -11    4.27    0.58
   2   8  11    5.16    0.55
  -2   8 -11    3.68    0.53
  -2  -8  11    4.15    0.61
   4  -8  11    1.04    0.39
  -4   8  11    1.75    0.32
  -4  -8 -11    1.48    0.36
  -4  -8  11    1.33    0.35
  -4   8 -11    1.71    0.37
   4   8  11    1.90    0.38
  -6  -8 -11    3.50    0.51
  -6   8  11    3.70    0.47
   6  -8  11    3.98    0.61
  -6   8 -11    3.53    0.53
   6   8  11    2.83    0.51
  -6  -8  11    3.49    0.52
  -8   8  11    2.25    0.41
  -8  -8 -11    1.75    0.41
   8   8  11    2.54    0.48
  -8   8 -11    2.16    0.43
  -8  -8  11    2.08    0.42
 -10   8  11    0.56    0.30
  10   8 -11    0.97    0.43
 -10  -8 -11    0.15    0.31
  10   8  11    0.55    0.42
 -10   8 -11    0.62    0.33
   1  -9  11   11.27    1.18
  -1   9  11   11.02    0.93
  -1  -9  11   10.37    1.13
   1   9  11   13.16    0.97
  -1   9 -11   10.01    0.99
  -3  -9 -11   15.42    1.28
  -3   9  11   16.03    1.21
   3  -9  11   14.89    1.46
   3   9  11   14.16    1.22
  -3  -9  11   14.69    1.36
  -3   9 -11   13.51    1.27
  -5  -9 -11   15.18    1.29
  -5   9  11   15.44    1.22
   5  -9  11   14.35    1.42
   5   9  11   15.66    1.29
  -5   9 -11   12.75    1.26
  -5  -9  11   14.67    1.34
  -7   9  11    3.30    0.49
  -7  -9 -11    4.74    0.61
   7  -9  11    4.06    0.64
  -7  -9  11    3.38    0.53
   7   9  11    3.86    0.56
  -7   9 -11    3.19    0.53
  -9  -9 -11   12.59    1.09
  -9   9  11   10.04    1.00
  -9  -9  11   11.59    1.15
  -9   9 -11   11.59    1.04
   9   9  11    9.21    1.06
   0  10  11    9.43    0.79
   0 -10  11    8.06    1.04
  -2  10  11   12.29    1.01
   2 -10  11   11.95    1.27
  -2  10 -11   11.59    1.08
   2  10  11   12.82    1.05
  -2 -10  11   12.51    1.21
   4 -10  11    3.43    0.63
  -4 -10 -11    3.64    0.54
  -4  10  11    3.90    0.47
  -4  10 -11    3.40    0.53
  -4 -10  11    3.47    0.55
   4  10  11    4.20    0.54
  -6  10  11   13.67    1.09
   6 -10  11   12.83    1.28
  -6 -10 -11   12.27    1.15
   6  10  11   12.25    1.14
  -6 -10  11   12.22    1.18
   8 -10  11    4.96    0.73
  -8 -10 -11    5.54    0.69
  -8  10  11    5.30    0.62
   8  10  11    5.19    0.69
  -8  10 -11    6.01    0.70
  -8 -10  11    6.49    0.75
   1 -11  11    0.39    0.36
  -1  11  11    0.81    0.20
  -1 -11  11    0.75    0.35
   1  11  11    0.58    0.21
  -1  11 -11    0.65    0.28
   3 -11  11    1.17    0.43
  -3 -11 -11    0.63    0.31
  -3  11  11    0.77    0.23
   3  11  11    1.06    0.27
  -3  11 -11    0.77    0.31
  -3 -11  11    0.67    0.31
  -5 -11 -11    0.87    0.30
   5 -11  11    1.11    0.43
  -5  11  11    0.88    0.24
   5  11  11    0.98    0.29
  -5  11 -11    0.73    0.31
  -5 -11  11    0.55    0.28
  -7  11  11    0.29    0.22
   7 -11  11    0.58    0.35
  -7 -11 -11    0.00    0.28
  -7  11 -11    0.23    0.30
   7  11  11    0.40    0.29
  -7 -11  11    0.29    0.32
   0  12  11    2.39    0.34
   0 -12  11    2.11    0.50
  -2  12  11    4.59    0.48
   2 -12  11    4.61    0.70
  -2 -12  11    3.86    0.62
  -2  12 -11    4.25    0.58
   2  12  11    4.39    0.50
  -4 -12 -11    1.17    0.34
   4 -12  11    1.59    0.48
  -4  12  11    1.06    0.26
   4  12  11    0.96    0.28
  -4  12 -11    1.08    0.36
  -4 -12  11    1.40    0.37
  -6 -12 -11    3.81    0.54
  -6  12  11    3.74    0.46
   6 -12  11    3.55    0.65
  -6  12 -11    3.43    0.56
   6  12  11    3.34    0.52
  -6 -12  11    3.52    0.55
   1 -13  11    5.99    0.84
  -1  13  11    6.11    0.59
  -1  13 -11    5.50    0.67
  -1 -13  11    6.02    0.80
   1  13  11    6.13    0.59
   3 -13  11    5.94    0.88
  -3 -13 -11    5.19    0.66
  -3  13  11    7.43    0.63
  -3  13 -11    6.74    0.76
  -3 -13  11    6.55    0.79
   3  13  11    6.43    0.62
  -4   0 -12  208.45   16.28
  -4   0  12  240.77   17.41
  -4   0  12  231.96   16.27
  -6   0  12   42.72    3.37
   6   0 -12   45.97    3.60
  -6   0 -12   43.07    3.34
  -8   0  12  117.78    9.38
  -8   0 -12  134.51    9.37
   8   0 -12  134.91   10.10
 -10   0  12   29.56    2.50
  10   0 -12   28.74    2.61
 -10   0 -12   34.21    2.43
  -3  -1 -12   18.20    1.60
  -3   1  12   21.75    1.63
  -3   1 -12   19.78    1.62
  -3  -1  12   19.72    1.67
  -5   1  12   13.21    1.20
  -5  -1 -12   13.25    1.19
   5  -1 -12   13.25    1.28
  -5  -1  12   14.84    1.21
  -5   1 -12   11.78    1.18
   7   1 -12    5.77    0.77
  -7  -1 -12    5.16    0.68
  -7   1  12    5.50    0.72
  -7   1 -12    6.25    0.72
  -7  -1  12    5.84    0.78
   7  -1 -12    6.39    0.81
   9   1 -12    9.20    0.99
  -9  -1 -12    8.72    0.87
  -9   1  12    6.97    0.92
  -9  -1  12    8.64    1.01
   9  -1 -12    9.18    0.98
  -9   1 -12    9.51    0.90
 -11   1  12    4.29    0.72
  11   1 -12    4.75    0.69
 -11  -1 -12    4.46    0.58
 -11  -1  12    4.10    0.73
 -11   1 -12    5.07    0.63
  11  -1 -12    4.70    0.68
   0   2  12  142.13   10.17
  -2   2  12  114.03    7.58
  -2  -2  12  103.41    8.11
  -2   2 -12   97.10    7.60
  -4   2  12  123.78    8.25
  -4  -2 -12  110.34    8.25
  -4   2 -12  104.02    8.25
  -4  -2  12  117.30    8.81
  -6   2  12   83.81    6.12
  -6  -2 -12   82.78    6.11
   6  -2 -12   84.92    6.58
  -6   2 -12   77.20    6.10
  -6  -2  12   87.53    6.50
   8   2 -12   73.00    6.03
  -8   2  12   73.72    5.62
  -8  -2 -12   81.04    5.60
  -8   2 -12   77.31    5.59
  -8  -2  12   70.47    5.65
   8  -2 -12   79.40    6.04
 -10   2  12   49.97    4.01
 -10  -2 -12   58.01    3.97
  10   2 -12   52.26    4.30
 -10  -2  12   44.90    4.02
 -10   2 -12   60.41    4.00
  10  -2 -12   51.16    4.27
  -1   3  12   14.10    1.13
  -1  -3  12   12.06    1.21
   1   3  12   14.62    1.12
  -3   3  12   45.79    2.96
  -3  -3 -12   38.54    2.95
  -3   3 -12   34.19    2.96
  -3  -3  12   38.29    3.14
  -5  -3 -12    5.94    0.70
  -5   3  12    8.29    0.75
  -5  -3  12    6.33    0.70
  -5   3 -12    6.53    0.77
  -7  -3 -12   17.83    1.46
  -7   3  12   16.94    1.50
  -7  -3  12   18.96    1.54
   7  -3 -12   18.34    1.62
  -7   3 -12   15.66    1.45
   9   3 -12    3.23    0.60
  -9   3  12    5.39    0.69
  -9  -3 -12    4.28    0.56
   9  -3 -12    4.28    0.64
  -9   3 -12    3.58    0.53
  11   3 -12   10.88    1.15
 -11  -3 -12   12.46    1.03
 -11   3  12    9.87    1.04
 -11   3 -12   12.32    1.05
 -11  -3  12    8.30    1.14
  11  -3 -12   10.20    1.11
   0   4  12   42.55    3.16
   0  -4  12   42.90    3.45
   2  -4  12  210.83   15.14
  -2   4  12  201.33   14.00
  -2  -4  12  195.19   15.07
  -2   4 -12  181.18   14.07
   2   4  12  192.75   13.98
  -4   4  12   66.13    4.68
  -4  -4 -12   60.81    4.68
  -4  -4  12   63.75    5.01
   4   4  12   66.77    4.66
  -4   4 -12   60.70    4.71
  -6   4  12  175.45   12.39
  -6  -4 -12  177.71   12.41
  -6  -4  12  166.29   13.26
  -6   4 -12  170.53   12.42
  -8   4  12   34.34    2.73
  -8  -4 -12   37.56    2.72
   8  -4 -12   34.78    2.92
  -8   4 -12   34.15    2.71
  10   4 -12   75.51    6.51
 -10  -4 -12   87.30    6.03
 -10   4  12   76.77    6.04
 -10   4 -12   88.76    6.04
  10  -4 -12   82.14    6.47
   1  -5  12    6.59    0.83
  -1   5  12    6.22    0.62
  -1  -5  12    6.85    0.74
   1   5  12    6.92    0.63
  -3  -5 -12   18.31    1.45
  -3   5  12   20.03    1.44
   3  -5  12   17.97    1.65
  -3  -5  12   15.82    1.54
   3   5  12   18.51    1.42
  -3   5 -12   16.23    1.47
  -5  -5 -12    2.91    0.44
  -5   5  12    2.71    0.44
  -5   5 -12    3.37    0.48
  -5  -5  12    3.57    0.49
   5   5  12    3.17    0.45
  -7   5  12    9.61    0.89
  -7  -5 -12    9.71    0.90
  -7  -5  12    9.62    0.92
  -7   5 -12    8.22    0.89
   9   5 -12    1.79    0.48
  -9   5  12    1.72    0.40
  -9  -5 -12    2.06    0.39
  -9   5 -12    2.23    0.41
   9  -5 -12    2.06    0.53
   0  -6  12   66.94    5.19
   0   6  12   63.51    4.73
  -2   6  12  105.73    7.45
   2  -6  12  106.26    8.13
   2   6  12  104.65    7.44
  -2  -6  12  104.13    8.06
  -2   6 -12   96.14    7.50
  -4   6  12   68.78    4.78
  -4  -6 -12   66.57    4.80
   4  -6  12   65.16    5.23
   4   6  12   65.68    4.77
  -4   6 -12   59.34    4.81
  -4  -6  12   65.10    5.14
  -6   6  12   97.75    6.67
  -6  -6 -12   93.35    6.69
  -6  -6  12   88.11    7.13
   6   6  12   90.47    6.66
  -6   6 -12   88.44    6.69
  -8   6  12   50.80    3.79
  -8  -6 -12   51.48    3.80
  -8  -6  12   50.89    4.04
  -8   6 -12   49.42    3.80
  10   6 -12   55.41    4.84
 -10  -6 -12   65.05    4.50
 -10   6  12   55.98    4.46
 -10   6 -12   64.65    4.49
   1  -7  12   12.81    1.33
  -1   7  12   13.69    1.11
   1   7  12   13.59    1.11
  -1  -7  12   14.08    1.30
  -3  -7 -12   24.18    1.83
   3  -7  12   21.17    2.05
  -3   7  12   24.78    1.80
  -3  -7  12   23.19    1.98
  -3   7 -12   21.62    1.85
   3   7  12   23.23    1.80
  -5  -7 -12   13.75    1.09
   5  -7  12   13.39    1.26
  -5   7  12   11.82    1.03
  -5  -7  12   11.70    1.12
  -5   7 -12   10.84    1.06
   5   7  12   11.19    1.05
  -7  -7 -12    7.64    0.77
  -7   7  12    7.20    0.71
  -7   7 -12    7.18    0.79
  -7  -7  12    6.93    0.75
   7   7  12    6.71    0.79
  -9  -7 -12    9.96    0.94
  -9   7  12   10.03    0.92
   9   7  12    8.96    0.98
  -9  -7  12    9.47    0.95
  -9   7 -12    9.13    0.91
   0  -8  12  208.45   15.88
   0   8  12  203.16   14.66
  -2   8  12   72.97    4.94
   2  -8  12   66.65    5.44
  -2   8 -12   60.22    4.97
   2   8  12   70.95    4.94
  -2  -8  12   66.95    5.36
  -4  -8 -12  140.79    9.93
  -4   8  12  143.19    9.87
   4  -8  12  130.35   10.72
  -4   8 -12  131.07    9.94
  -4  -8  12  135.97   10.64
   4   8  12  142.88    9.89
  -6  -8 -12   36.29    2.70
   6  -8  12   32.20    2.93
  -6   8  12   37.04    2.66
   6   8  12   32.97    2.67
  -6   8 -12   34.86    2.70
  -6  -8  12   36.47    2.87
  -8   8  12   92.70    6.77
  -8  -8 -12  101.04    6.83
   8   8  12   87.06    6.78
  -8   8 -12   92.78    6.81
  -8  -8  12   93.00    7.27
   1  -9  12    2.57    0.56
  -1   9  12    3.51    0.42
  -1  -9  12    3.39    0.57
   1   9  12    2.93    0.40
   3  -9  12    3.08    0.57
  -3   9  12    3.36    0.41
  -3  -9 -12    2.89    0.44
   3   9  12    3.20    0.44
  -3  -9  12    3.14    0.51
  -3   9 -12    3.00    0.50
  -5  -9 -12    4.19    0.54
  -5   9  12    3.99    0.49
   5  -9  12    3.56    0.64
  -5   9 -12    2.78    0.51
   5   9  12    5.03    0.57
  -5  -9  12    4.34    0.56
  -7  -9 -12    0.95    0.33
  -7   9  12    0.78    0.26
   7  -9  12    0.73    0.36
  -7   9 -12    0.70    0.31
   7   9  12    0.51    0.33
  -7  -9  12    0.63    0.27
   0  10  12   95.13    6.89
   0 -10  12   96.14    7.54
   2 -10  12   44.98    3.86
  -2  10  12   50.11    3.46
  -2  10 -12   41.60    3.50
   2  10  12   49.76    3.47
  -2 -10  12   46.89    3.80
  -4  10  12   81.70    5.67
   4 -10  12   73.07    6.23
  -4 -10 -12   80.08    5.73
  -4 -10  12   76.36    6.14
  -4  10 -12   74.88    5.74
   4  10  12   81.44    5.69
  -6 -10 -12   41.12    2.77
  -6  10  12   34.75    2.68
   6 -10  12   32.39    2.99
   6  10  12   36.43    2.73
  -6 -10  12   35.00    2.91
  -6  10 -12   34.94    2.76
  -1  11  12    7.16    0.66
   1 -11  12    6.98    0.93
  -1 -11  12    6.41    0.86
   1  11  12    7.32    0.67
  -3  11  12   19.14    1.45
   3 -11  12   16.16    1.71
   3  11  12   20.45    1.49
  -3 -11  12   19.15    1.65
  -3  11 -12   16.31    1.52
   5 -11  12    2.84    0.61
  -5  11  12    3.84    0.48
  -5 -11 -12    4.46    0.55
  -5 -11  12    4.01    0.56
   5  11  12    4.55    0.54
  -5  11 -12    3.43    0.55
   0  12  12   26.86    1.98
   0 -12  12   24.83    2.26
   2 -12  12   79.36    6.43
  -2  12  12   85.49    5.84
  -2 -12  12   80.20    6.35
  -2  12 -12   71.56    5.89
   2  12  12   85.73    5.85
   4 -12  12   30.09    2.90
  -4  12  12   33.71    2.51
  -4 -12 -12   35.49    2.53
  -4  12 -12   30.77    2.59
  -4   0 -13    0.46    0.25
  -4   0  13    0.18    0.19
  -6   0  13    1.13    0.40
  -6   0 -13    0.65    0.29
   6   0 -13    0.20    0.29
  -8   0  13    0.12    0.37
   8   0 -13    0.39    0.31
  -8   0 -13   -0.03    0.22
  10   0 -13   -0.08    0.29
 -10   0  13   -0.08    0.40
 -10   0 -13    0.11    0.23
  -3   1  13    5.61    0.59
  -3  -1 -13    3.66    0.54
  -3   1 -13    4.65    0.59
  -3  -1  13    4.35    0.55
  -5   1  13    6.81    0.69
  -5  -1 -13    5.90    0.69
  -5   1 -13    5.15    0.68
   5  -1 -13    5.62    0.74
  -5  -1  13    6.64    0.66
  -7   1  13    0.31    0.31
   7   1 -13    0.37    0.31
  -7  -1 -13    0.10    0.24
  -7  -1  13   -0.02    0.42
   7  -1 -13    0.39    0.32
  -7   1 -13    0.17    0.24
  -9  -1 -13    4.97    0.58
   9   1 -13    4.64    0.69
  -9  -1  13    5.39    0.76
  -9   1 -13    3.97    0.56
   9  -1 -13    4.58    0.68
  -2   2  13   23.41    1.69
  -2  -2  13   19.39    1.77
  -4   2  13    5.50    0.62
  -4  -2 -13    4.35    0.57
  -4   2 -13    4.69    0.62
  -4  -2  13    5.42    0.58
  -6   2  13   17.43    1.37
  -6  -2 -13   13.78    1.30
  -6   2 -13   15.12    1.34
  -6  -2  13   16.54    1.38
   8   2 -13    7.90    0.97
  -8   2  13    9.00    0.89
  -8  -2 -13    8.03    0.82
  -8   2 -13    8.49    0.85
 -10  -2 -13    1.49    0.35
 -10   2  13    1.92    0.47
  10   2 -13    2.05    0.48
  10  -2 -13    1.65    0.44
 -10   2 -13    1.88    0.39
 -10  -2  13    1.87    0.53
  -1   3  13    3.40    0.44
   1   3  13    3.10    0.46
  -1  -3  13    3.70    0.50
  -3   3  13    6.17    0.60
  -3  -3  13    5.06    0.63
  -3   3 -13    4.23    0.59
  -5   3  13    3.68    0.50
  -5  -3 -13    3.63    0.49
  -5   3 -13    4.68    0.56
  -5  -3  13    3.32    0.48
  -7   3  13    0.79    0.33
  -7  -3 -13    0.67    0.27
  -7   3 -13    0.96    0.29
  -7  -3  13    0.43    0.24
  -9  -3 -13    2.76    0.45
   9   3 -13    2.41    0.52
  -9   3  13    3.52    0.55
  -9   3 -13    3.48    0.51
   9  -3 -13    3.55    0.56
   0   4  13   -0.02    0.17
   0  -4  13    0.35    0.26
  -2   4  13    0.23    0.18
   2   4  13    0.16    0.19
  -2  -4  13    0.26    0.22
  -4  -4 -13   -0.06    0.20
  -4   4  13    0.58    0.23
  -4   4 -13    0.00    0.23
  -4  -4  13    0.06    0.19
  -6   4  13    0.03    0.23
  -6  -4 -13    0.55    0.25
  -6   4 -13    0.08    0.22
  -6  -4  13    0.59    0.22
  -8   4  13    0.08    0.21
  -8  -4 -13    0.06    0.22
  -8   4 -13    0.10    0.22
  -1   5  13    3.45    0.43
   1  -5  13    3.99    0.57
  -1  -5  13    3.38    0.53
   1   5  13    3.61    0.43
  -3   5  13    5.40    0.54
  -3  -5  13    4.81    0.61
  -3   5 -13    4.81    0.62
   3   5  13    5.57    0.57
  -5   5  13    6.16    0.60
  -5  -5 -13    5.09    0.59
  -5   5 -13    4.27    0.61
  -5  -5  13    5.20    0.64
  -7  -5 -13    0.67    0.28
  -7   5  13    1.03    0.28
  -7  -5  13    0.26    0.21
  -7   5 -13    0.38    0.25
  -9   5  13    4.74    0.59
  -9  -5 -13    4.71    0.57
   9   5 -13    3.75    0.65
  -9   5 -13    4.37    0.59
   0   6  13   13.40    1.11
   0  -6  13   13.52    1.26
  -2   6  13   19.37    1.51
   2  -6  13   19.45    1.73
  -2  -6  13   18.28    1.66
   2   6  13   19.07    1.50
  -4  -6 -13    4.53    0.56
  -4   6  13    5.96    0.57
   4   6  13    5.77    0.60
  -4  -6  13    4.24    0.60
  -4   6 -13    4.87    0.63
  -6  -6 -13   16.10    1.34
  -6   6  13   16.16    1.32
  -6  -6  13   15.58    1.41
  -6   6 -13   15.63    1.36
   6   6  13   16.73    1.35
  -8  -6 -13    7.24    0.76
  -8   6  13    7.99    0.73
  -8  -6  13    6.72    0.75
  -8   6 -13    7.34    0.81
  -1   7  13    3.88    0.45
   1  -7  13    2.47    0.53
  -1  -7  13    3.71    0.54
   1   7  13    2.78    0.40
  -3   7  13    3.92    0.46
   3  -7  13    4.71    0.69
   3   7  13    3.26    0.45
  -3   7 -13    2.88    0.49
  -3  -7  13    4.00    0.55
  -5  -7 -13    3.49    0.49
  -5   7  13    3.39    0.45
   5   7  13    3.97    0.49
  -5  -7  13    3.50    0.50
  -5   7 -13    3.27    0.51
  -7   7  13    1.22    0.28
  -7  -7 -13    0.97    0.31
  -7  -7  13    0.94    0.30
   7   7  13    0.61    0.31
  -7   7 -13    0.72    0.30
   0  -8  13    0.04    0.26
   0   8  13    0.27    0.20
   2  -8  13    0.67    0.35
  -2   8  13    0.57    0.22
  -2  -8  13    0.47    0.28
   2   8  13    0.43    0.23
  -4   8  13    0.14    0.17
  -4  -8 -13    0.01    0.22
   4  -8  13    0.06    0.33
   4   8  13    0.32    0.21
  -4  -8  13    0.18    0.22
  -4   8 -13    0.04    0.25
  -6   8  13    0.48    0.23
  -6  -8 -13    0.47    0.25
   6   8  13    0.64    0.30
  -6  -8  13    0.28    0.22
  -6   8 -13    0.50    0.30
  -1   9  13    4.44    0.50
   1  -9  13    2.94    0.61
  -1  -9  13    3.67    0.60
   1   9  13    5.08    0.50
  -3   9  13    5.67    0.56
   3  -9  13    4.92    0.77
  -3   9 -13    4.72    0.63
   3   9  13    5.57    0.58
  -3  -9  13    5.12    0.68
   5  -9  13    6.60    0.89
  -5  -9 -13    6.99    0.71
  -5   9  13    6.57    0.65
  -5  -9  13    7.08    0.75
  -5   9 -13    5.96    0.74
   5   9  13    7.20    0.71
   0  10  13   13.60    1.05
   0 -10  13   10.98    1.22
  -2  10  13   11.57    0.98
   2 -10  13   11.64    1.21
  -2 -10  13   10.81    1.13
   2  10  13   12.23    1.00
  -4  10  13    5.90    0.58
   4 -10  13    5.21    0.80
  -4  10 -13    4.60    0.65
   4  10  13    6.17    0.62
  -4 -10  13    6.31    0.74
  -1  11  13    1.54    0.28
   1 -11  13    1.04    0.41
  -1 -11  13    2.22    0.45
   1  11  13    1.70    0.31
  -3  11  13    2.06    0.38
   3 -11  13    2.06    0.54
   3  11  13    3.09    0.44
  -3 -11  13    1.54    0.44
  -3  11 -13    1.38    0.35
  -4   0 -14   28.61    2.23
  -6   0 -14  147.03   10.87
   6   0 -14  155.09   11.71
  -8   0 -14   19.10    1.59
  -8   0  14   20.66    1.69
  -5   1  14    1.48    0.39
  -5  -1 -14    1.92    0.36
  -5   1 -14    2.17    0.41
  -7  -1 -14    6.34    0.66
   7   1 -14    5.69    0.76
  -7   1  14    6.99    0.77
   7  -1 -14    6.08    0.77
  -7   1 -14    5.23    0.66
  -4  -2 -14   59.60    4.90
  -4   2  14   77.50    4.95
  -4   2 -14   62.22    4.93
  -4  -2  14   69.72    5.26
  -6   2  14   81.74    5.38
  -6  -2 -14   68.83    5.34
  -6   2 -14   69.09    5.36
   8   2 -14   48.83    3.87
  -8  -2 -14   45.91    3.53
  -8   2  14   52.06    3.59
   8  -2 -14   42.44    3.82
  -8   2 -14   48.66    3.56
  -1   3  14    8.94    0.83
  -3   3  14   17.34    1.34
  -3  -3  14   15.17    1.40
  -5   3  14    8.66    0.77
  -5  -3 -14    6.05    0.69
  -5  -3  14    7.43    0.74
  -5   3 -14    6.87    0.78
  -7  -3 -14    3.67    0.49
  -7   3  14    5.17    0.59
  -7   3 -14    4.03    0.54
   0   4  14  256.90   18.27
  -2   4  14   55.19    3.92
  -2  -4  14   51.26    4.22
  -4   4  14  176.89   12.05
  -4   4 -14  159.53   12.09
  -4  -4  14  168.25   12.94
  -6   4  14   24.69    1.79
  -6  -4 -14   21.24    1.76
  -6  -4  14   22.38    1.88
  -6   4 -14   21.43    1.79
   8   4 -14   95.49    7.95
  -8   4  14  107.59    7.36
  -8  -4 -14  104.66    7.36
  -8   4 -14   98.07    7.37
  -1   5  14    2.40    0.37
  -1  -5  14    1.89    0.41
   1   5  14    3.07    0.41
  -3   5  14    3.67    0.48
  -3  -5  14    3.80    0.53
  -5  -5 -14    1.78    0.36
  -5   5  14    3.12    0.42
  -5   5 -14    2.69    0.43
  -5  -5  14    2.80    0.45
  -7   5  14    0.61    0.28
  -7  -5 -14    0.47    0.24
  -7  -5  14    0.53    0.25
  -7   5 -14    0.54    0.29
   0  -6  14  104.59    8.26
   0   6  14  107.07    7.63
  -2   6  14   59.04    4.35
   2   6  14   60.06    4.35
  -4   6  14   87.32    6.10
  -4  -6  14   85.24    6.58
   4   6  14   86.64    6.10
  -4   6 -14   77.29    6.14
  -6  -6 -14   40.96    3.11
  -6   6  14   44.31    3.11
  -6  -6  14   39.36    3.32
   1  -7  14    5.65    0.77
  -1   7  14    6.38    0.61
   1   7  14    6.39    0.62
  -1  -7  14    5.29    0.71
  -3   7  14   17.86    1.37
  -3  -7  14   16.06    1.50
   3   7  14   17.04    1.37
  -5   7  14    3.41    0.44
  -5  -7 -14    3.23    0.45
  -5  -7  14    2.44    0.43
   5   7  14    3.43    0.46
  -5   7 -14    2.52    0.44
   0  -8  14   19.45    1.86
   0   8  14   22.71    1.67
   2  -8  14  117.16    9.35
  -2   8  14  117.86    8.60
  -2  -8  14  120.80    9.31
   2   8  14  123.16    8.61
  -4   8  14   30.60    2.17
  -4   8 -14   24.54    2.19
   4   8  14   30.08    2.18
   1  -9  14    0.41    0.31
  -1   9  14    0.45    0.23
   1   9  14    0.15    0.20
  -1  -9  14    0.17    0.28
   3  -9  14    2.35    0.50
  -3   9  14    1.57    0.30
  -3  -9  14    1.05    0.33
   3   9  14    2.07    0.36
  -6   0 -15    0.07    0.23
  -5  -1 -15    6.82    0.68
  -7  -1 -15    2.26    0.37
  -7   1 -15    2.14    0.41
  -6  -2 -15    7.97    0.84
   6   2 -15   10.45    1.07
  -6   2  15   11.21    0.94
  -3   3  15    6.80    0.71
  -3  -3  15    6.28    0.78
  -5  -3 -15    5.88    0.65
  -5   3  15    8.06    0.74
  -5   3 -15    6.50    0.74
  -2   4  15    0.64    0.28
  -2  -4  15    0.67    0.29
  -4   4  15   -0.02    0.24
  -4  -4  15    0.11    0.21
  -6  -4 -15    0.10    0.21
  -6   4  15    0.35    0.27
  -6  -4  15    0.52    0.25
  -6   4 -15    0.21    0.25
  -1   5  15    8.69    0.82
  -3   5  15   10.48    0.92
  -5   5  15   10.66    0.90
  -5   5 -15    8.67    0.88
   0   6  15    8.01    0.71
   0  -6  15    5.68    0.77
  -2   6  15    9.17    0.81
   2   6  15    8.33    0.81
  -2  -6  15    8.28    0.89
  -4   6  15    3.00    0.41
  -4  -6  15    1.83    0.39
   1  -7  15    3.14    0.54
  -1   7  15    2.97    0.44
   1   7  15    2.91    0.43
  -1  -7  15    2.83    0.49
  -3   7  15    4.87    0.52
  -3  -7  15    4.19    0.59
   3   7  15    3.74    0.50
   0  -8  15    0.48    0.31
   0   0   0    0.00    0.00
;
_shelx_hkl_checksum              34052
#END Tags that were not found in dictionaries
loop_
_space_group_symop_operation_xyz
'x, y, z'
'-x, -y, z+1/2'
'x, -y, -z'
'-x, y, -z+1/2'
'x+1/2, y+1/2, z'
'-x+1/2, -y+1/2, z+1/2'
'x+1/2, -y+1/2, -z'
'-x+1/2, y+1/2, -z+1/2'
'-x, -y, -z'
'x, y, -z-1/2'
'-x, y, z'
'x, -y, z-1/2'
'-x+1/2, -y+1/2, -z'
'x+1/2, y+1/2, -z-1/2'
'-x+1/2, y+1/2, z'
'x+1/2, -y+1/2, z-1/2'
loop_
_atom_site_label
_atom_site_type_symbol
_atom_site_fract_x
_atom_site_fract_y
_atom_site_fract_z
_atom_site_U_iso_or_equiv
_atom_site_adp_type
_atom_site_occupancy
_atom_site_site_symmetry_order
_atom_site_calc_flag
_atom_site_refinement_flags_posn
_atom_site_refinement_flags_adp
_atom_site_refinement_flags_occupancy
Os Os 0.2500 0.2500 0.0000 0.00831(9) Uani 1 2 d S . P
Lu Lu 0.0000 0.13092(2) 0.2500 0.01173(9) Uani 1 4 d S T P
Al1 Al 0.3481(2) 0.13203(15) 0.2500 0.0116(3) Uani 1 2 d S T P
Al2 Al 0.0000 0.37645(15) 0.0461(2) 0.0128(3) Uani 1 2 d S T P
Al3 Al 0.2171(2) 0.36468(15) 0.2500 0.0123(3) Uani 1 2 d S T P
Al4 Al 0.0000 0.15431(17) 0.60032(19) 0.0113(2) Uani 1 2 d S T P
Al5 Al 0.2245(3) 0.0000 0.0000 0.0123(3) Uani 1 2 d S T P
loop_
_atom_site_aniso_label
_atom_site_aniso_U_11
_atom_site_aniso_U_22
_atom_site_aniso_U_33
_atom_site_aniso_U_23
_atom_site_aniso_U_13
_atom_site_aniso_U_12
Os 0.00990(13) 0.01071(13) 0.00432(14) -0.00026(3) -0.00036(3) 0.00013(4)
Lu 0.01452(13) 0.01222(13) 0.00846(13) 0.000 0.000 0.000
Al1 0.0132(6) 0.0145(6) 0.0072(6) 0.000 0.000 -0.0005(4)
Al2 0.0118(6) 0.0123(6) 0.0143(7) 0.0009(4) 0.000 0.000
Al3 0.0181(7) 0.0136(6) 0.0053(6) 0.000 0.000 0.0007(5)
Al4 0.0112(5) 0.0152(6) 0.0076(6) 0.0016(4) 0.000 0.000
Al5 0.0170(6) 0.0099(7) 0.0099(8) 0.0012(4) 0.000 0.000
loop_
_atom_type_symbol
_atom_type_description
_atom_type_scat_dispersion_real
_atom_type_scat_dispersion_imag
_atom_type_scat_source
Al Al 0.0645 0.0514 'International Tables Vol C Tables 4.2.6.8 and 6.1.1.4'
Lu Lu -0.4720 5.8584 'International Tables Vol C Tables 4.2.6.8 and 6.1.1.4'
Os Os -1.2165 7.6030 'International Tables Vol C Tables 4.2.6.8 and 6.1.1.4'
loop_
_geom_angle_atom_site_label_1
_geom_angle_atom_site_label_2
_geom_angle_atom_site_label_3
_geom_angle
_geom_angle_site_symmetry_1
_geom_angle_site_symmetry_3
Al5 Os Al5 180.0 13 .
Al5 Os Al3 63.88(3) 13 .
Al5 Os Al3 116.12(3) . .
Al5 Os Al3 116.12(3) 13 13
Al5 Os Al3 63.88(3) . 13
Al3 Os Al3 180.0 . 13
Al5 Os Al4 116.48(7) 13 10_556
Al5 Os Al4 63.52(7) . 10_556
Al3 Os Al4 111.90(6) . 10_556
Al3 Os Al4 68.10(6) 13 10_556
Al5 Os Al4 63.52(7) 13 6_554
Al5 Os Al4 116.48(7) . 6_554
Al3 Os Al4 68.10(6) . 6_554
Al3 Os Al4 111.90(6) 13 6_554
Al4 Os Al4 180.00(7) 10_556 6_554
Al5 Os Al2 113.92(7) 13 13
Al5 Os Al2 66.08(7) . 13
Al3 Os Al2 117.39(6) . 13
Al3 Os Al2 62.61(6) 13 13
Al4 Os Al2 120.49(5) 10_556 13
Al4 Os Al2 59.51(5) 6_554 13
Al5 Os Al2 66.08(7) 13 .
Al5 Os Al2 113.92(7) . .
Al3 Os Al2 62.61(6) . .
Al3 Os Al2 117.39(6) 13 .
Al4 Os Al2 59.51(5) 10_556 .
Al4 Os Al2 120.49(5) 6_554 .
Al2 Os Al2 180.0 13 .
Al5 Os Al1 65.88(4) 13 13
Al5 Os Al1 114.12(4) . 13
Al3 Os Al1 120.10(4) . 13
Al3 Os Al1 59.90(4) 13 13
Al4 Os Al1 65.82(5) 10_556 13
Al4 Os Al1 114.18(5) 6_554 13
Al2 Os Al1 111.28(5) 13 13
Al2 Os Al1 68.72(5) . 13
Al5 Os Al1 114.12(4) 13 .
Al5 Os Al1 65.88(4) . .
Al3 Os Al1 59.90(4) . .
Al3 Os Al1 120.10(4) 13 .
Al4 Os Al1 114.19(5) 10_556 .
Al4 Os Al1 65.81(5) 6_554 .
Al2 Os Al1 68.72(5) 13 .
Al2 Os Al1 111.28(5) . .
Al1 Os Al1 180.0 13 .
Al5 Os Lu 114.26(5) 13 .
Al5 Os Lu 65.74(5) . .
Al3 Os Lu 59.82(4) . .
Al3 Os Lu 120.18(4) 13 .
Al4 Os Lu 61.89(4) 10_556 .
Al4 Os Lu 118.11(4) 6_554 .
Al2 Os Lu 120.18(4) 13 .
Al2 Os Lu 59.82(4) . .
Al1 Os Lu 119.45(4) 13 .
Al1 Os Lu 60.55(4) . .
Al5 Os Lu 65.74(5) 13 13
Al5 Os Lu 114.26(5) . 13
Al3 Os Lu 120.18(4) . 13
Al3 Os Lu 59.82(4) 13 13
Al4 Os Lu 118.11(4) 10_556 13
Al4 Os Lu 61.89(4) 6_554 13
Al2 Os Lu 59.82(4) 13 13
Al2 Os Lu 120.18(4) . 13
Al1 Os Lu 60.55(4) 13 13
Al1 Os Lu 119.45(4) . 13
Lu Os Lu 180.0 . 13
Al3 Lu Al3 79.48(7) . 11
Al3 Lu Al2 51.90(3) . 10_556
Al3 Lu Al2 51.90(3) 11 10_556
Al3 Lu Al2 51.90(3) . .
Al3 Lu Al2 51.90(3) 11 .
Al2 Lu Al2 73.28(7) 10_556 .
Al3 Lu Al1 129.54(4) . 11
Al3 Lu Al1 50.06(4) 11 11
Al2 Lu Al1 89.84(2) 10_556 11
Al2 Lu Al1 89.84(2) . 11
Al3 Lu Al1 50.06(4) . .
Al3 Lu Al1 129.54(4) 11 .
Al2 Lu Al1 89.84(2) 10_556 .
Al2 Lu Al1 89.84(2) . .
Al1 Lu Al1 179.59(5) 11 .
Al3 Lu Al4 86.72(2) . 10_556
Al3 Lu Al4 86.72(2) 11 10_556
Al2 Lu Al4 122.38(4) 10_556 10_556
Al2 Lu Al4 49.10(5) . 10_556
Al1 Lu Al4 89.985(2) 11 10_556
Al1 Lu Al4 89.985(2) . 10_556
Al3 Lu Al4 86.72(2) . .
Al3 Lu Al4 86.72(2) 11 .
Al2 Lu Al4 49.10(5) 10_556 .
Al2 Lu Al4 122.38(4) . .
Al1 Lu Al4 89.985(2) 11 .
Al1 Lu Al4 89.985(2) . .
Al4 Lu Al4 171.47(6) 10_556 .
Al3 Lu Al4 134.10(3) . 2_554
Al3 Lu Al4 134.10(3) 11 2_554
Al2 Lu Al4 168.53(5) 10_556 2_554
Al2 Lu Al4 118.19(5) . 2_554
Al1 Lu Al4 90.19(2) 11 2_554
Al1 Lu Al4 90.18(2) . 2_554
Al4 Lu Al4 69.09(5) 10_556 2_554
Al4 Lu Al4 119.44(3) . 2_554
Al3 Lu Al4 134.10(3) . 9_556
Al3 Lu Al4 134.10(3) 11 9_556
Al2 Lu Al4 118.18(5) 10_556 9_556
Al2 Lu Al4 168.53(5) . 9_556
Al1 Lu Al4 90.19(2) 11 9_556
Al1 Lu Al4 90.18(2) . 9_556
Al4 Lu Al4 119.44(3) 10_556 9_556
Al4 Lu Al4 69.09(5) . 9_556
Al4 Lu Al4 50.35(6) 2_554 9_556
Al3 Lu Al5 85.14(4) . .
Al3 Lu Al5 134.293(19) 11 .
Al2 Lu Al5 136.68(4) 10_556 .
Al2 Lu Al5 85.00(3) . .
Al1 Lu Al5 127.86(4) 11 .
Al1 Lu Al5 52.34(4) . .
Al4 Lu Al5 49.39(3) 10_556 .
Al4 Lu Al5 135.26(4) . .
Al4 Lu Al5 49.35(3) 2_554 .
Al4 Lu Al5 85.94(3) 9_556 .
Al3 Lu Al5 134.293(19) . 9
Al3 Lu Al5 85.14(4) 11 9
Al2 Lu Al5 136.68(4) 10_556 9
Al2 Lu Al5 85.00(3) . 9
Al1 Lu Al5 52.34(4) 11 9
Al1 Lu Al5 127.86(4) . 9
Al4 Lu Al5 49.39(3) 10_556 9
Al4 Lu Al5 135.26(4) . 9
Al4 Lu Al5 49.35(3) 2_554 9
Al4 Lu Al5 85.94(3) 9_556 9
Al5 Lu Al5 75.52(8) . 9
Al3 Al1 Os 57.27(3) . 6
Al3 Al1 Os 57.27(3) . .
Os Al1 Os 113.42(6) 6 .
Al3 Al1 Al1 116.74(6) . 11_655
Os Al1 Al1 109.13(4) 6 11_655
Os Al1 Al1 109.13(4) . 11_655
Al3 Al1 Al3 140.95(7) . 15_545
Os Al1 Al3 111.12(4) 6 15_545
Os Al1 Al3 111.12(4) . 15_545
Al1 Al1 Al3 102.31(6) 11_655 15_545
Al3 Al1 Al5 103.96(6) . 10_556
Os Al1 Al5 54.196(16) 6 10_556
Os Al1 Al5 137.74(9) . 10_556
Al1 Al1 Al5 113.05(7) 11_655 10_556
Al3 Al1 Al5 57.31(3) 15_545 10_556
Al3 Al1 Al5 103.96(6) . .
Os Al1 Al5 137.74(9) 6 .
Os Al1 Al5 54.195(16) . .
Al1 Al1 Al5 113.05(7) 11_655 .
Al3 Al1 Al5 57.31(3) 15_545 .
Al5 Al1 Al5 104.86(8) 10_556 .
Al3 Al1 Al4 63.11(6) . 13_556
Os Al1 Al4 55.67(3) 6 13_556
Os Al1 Al4 102.60(6) . 13_556
Al1 Al1 Al4 61.67(4) 11_655 13_556
Al3 Al1 Al4 146.06(6) 15_545 13_556
Al5 Al1 Al4 99.41(4) 10_556 13_556
Al5 Al1 Al4 154.84(5) . 13_556
Al3 Al1 Al4 63.11(6) . 6_554
Os Al1 Al4 102.60(6) 6 6_554
Os Al1 Al4 55.67(3) . 6_554
Al1 Al1 Al4 61.67(4) 11_655 6_554
Al3 Al1 Al4 146.06(6) 15_545 6_554
Al5 Al1 Al4 154.84(5) 10_556 6_554
Al5 Al1 Al4 99.41(4) . 6_554
Al4 Al1 Al4 55.79(7) 13_556 6_554
Al3 Al1 Lu 63.47(6) . .
Os Al1 Lu 70.97(4) 6 .
Os Al1 Lu 70.97(4) . .
Al1 Al1 Lu 179.80(3) 11_655 .
Al3 Al1 Lu 77.49(6) 15_545 .
Al5 Al1 Lu 66.84(7) 10_556 .
Al5 Al1 Lu 66.84(7) . .
Al4 Al1 Lu 118.51(5) 13_556 .
Al4 Al1 Lu 118.51(5) 6_554 .
Al4 Al2 Os 60.07(3) 10_556 7_455
Al4 Al2 Os 60.07(3) 10_556 .
Os Al2 Os 118.54(6) 7_455 .
Al4 Al2 Al2 130.96(12) 10_556 9_565
Os Al2 Al2 114.23(5) 7_455 9_565
Os Al2 Al2 114.23(5) . 9_565
Al4 Al2 Al3 108.05(6) 10_556 11
Os Al2 Al3 57.40(3) 7_455 11
Os Al2 Al3 135.47(8) . 11
Al2 Al2 Al3 104.99(8) 9_565 11
Al4 Al2 Al3 108.05(6) 10_556 .
Os Al2 Al3 135.47(8) 7_455 .
Os Al2 Al3 57.40(3) . .
Al2 Al2 Al3 104.99(8) 9_565 .
Al3 Al2 Al3 93.45(9) 11 .
Al4 Al2 Al5 107.83(5) 10_556 13
Os Al2 Al5 162.13(8) 7_455 13
Os Al2 Al5 55.36(3) . 13
Al2 Al2 Al5 62.16(4) 9_565 13
Al3 Al2 Al5 139.87(8) 11 13
Al3 Al2 Al5 58.47(4) . 13
Al4 Al2 Al5 107.83(5) 10_556 5_455
Os Al2 Al5 55.36(3) 7_455 5_455
Os Al2 Al5 162.13(8) . 5_455
Al2 Al2 Al5 62.16(4) 9_565 5_455
Al3 Al2 Al5 58.47(4) 11 5_455
Al3 Al2 Al5 139.87(8) . 5_455
Al5 Al2 Al5 124.31(8) 13 5_455
Al4 Al2 Lu 67.20(5) 10_556 .
Os Al2 Lu 72.84(3) 7_455 .
Os Al2 Lu 72.84(3) . .
Al2 Al2 Lu 161.84(12) 9_565 .
Al3 Al2 Lu 63.66(5) 11 .
Al3 Al2 Lu 63.66(5) . .
Al5 Al2 Lu 116.35(4) 13 .
Al5 Al2 Lu 116.35(4) 5_455 .
Os Al3 Os 124.27(6) . 6
Os Al3 Al1 62.83(3) . .
Os Al3 Al1 62.83(3) 6 .
Os Al3 Al5 161.59(11) . 6
Os Al3 Al5 57.652(9) 6 6
Al1 Al3 Al5 111.40(6) . 6
Os Al3 Al5 57.652(9) . 13
Os Al3 Al5 161.59(11) 6 13
Al1 Al3 Al5 111.40(6) . 13
Al5 Al3 Al5 114.12(7) 6 13
Os Al3 Al2 59.98(4) . .
Os Al3 Al2 135.18(9) 6 .
Al1 Al3 Al2 111.53(6) . .
Al5 Al3 Al2 133.98(9) 6 .
Al5 Al3 Al2 63.01(7) 13 .
Os Al3 Al2 135.18(9) . 10_556
Os Al3 Al2 59.98(4) 6 10_556
Al1 Al3 Al2 111.53(6) . 10_556
Al5 Al3 Al2 63.01(7) 6 10_556
Al5 Al3 Al2 133.98(9) 13 10_556
Al2 Al3 Al2 86.33(9) . 10_556
Os Al3 Al1 117.85(3) . 15
Os Al3 Al1 117.85(3) 6 15
Al1 Al3 Al1 165.57(9) . 15
Al5 Al3 Al1 63.01(4) 6 15
Al5 Al3 Al1 63.01(4) 13 15
Al2 Al3 Al1 78.56(6) . 15
Al2 Al3 Al1 78.56(6) 10_556 15
Os Al3 Al4 106.28(7) . 13_556
Os Al3 Al4 56.96(4) 6 13_556
Al1 Al3 Al4 62.89(6) . 13_556
Al5 Al3 Al4 57.92(7) 6 13_556
Al5 Al3 Al4 104.63(9) 13 13_556
Al2 Al3 Al4 164.65(7) . 13_556
Al2 Al3 Al4 109.00(4) 10_556 13_556
Al1 Al3 Al4 104.63(7) 15 13_556
Os Al3 Al4 56.96(4) . 6_554
Os Al3 Al4 106.28(7) 6 6_554
Al1 Al3 Al4 62.89(6) . 6_554
Al5 Al3 Al4 104.63(9) 6 6_554
Al5 Al3 Al4 57.92(7) 13 6_554
Al2 Al3 Al4 109.00(4) . 6_554
Al2 Al3 Al4 164.65(7) 10_556 6_554
Al1 Al3 Al4 104.63(7) 15 6_554
Al4 Al3 Al4 55.67(7) 13_556 6_554
Os Al3 Lu 74.11(4) . .
Os Al3 Lu 74.11(4) 6 .
Al1 Al3 Lu 66.48(5) . .
Al5 Al3 Lu 121.02(6) 6 .
Al5 Al3 Lu 121.02(6) 13 .
Al2 Al3 Lu 64.44(5) . .
Al2 Al3 Lu 64.44(5) 10_556 .
Al1 Al3 Lu 127.95(8) 15 .
Al4 Al3 Lu 120.86(6) 13_556 .
Al4 Al3 Lu 120.86(6) 6_554 .
Al2 Al4 Os 60.42(3) 10_556 6
Al2 Al4 Os 60.42(3) 10_556 4
Os Al4 Os 119.21(6) 6 4
Al2 Al4 Al4 120.56(6) 10_556 10_557
Os Al4 Al4 110.26(4) 6 10_557
Os Al4 Al4 110.26(4) 4 10_557
Al2 Al4 Al5 108.93(5) 10_556 2
Os Al4 Al5 137.79(7) 6 2
Os Al4 Al5 56.72(4) 4 2
Al4 Al4 Al5 109.53(4) 10_557 2
Al2 Al4 Al5 108.93(5) 10_556 10_556
Os Al4 Al5 56.72(4) 6 10_556
Os Al4 Al5 137.79(7) 4 10_556
Al4 Al4 Al5 109.53(4) 10_557 10_556
Al5 Al4 Al5 96.74(10) 2 10_556
Al2 Al4 Al1 66.16(5) 10_556 13_556
Os Al4 Al1 58.51(4) 6 13_556
Os Al4 Al1 107.24(6) 4 13_556
Al4 Al4 Al1 62.11(4) 10_557 13_556
Al5 Al4 Al1 159.91(7) 2 13_556
Al5 Al4 Al1 103.28(6) 10_556 13_556
Al2 Al4 Al1 66.16(5) 10_556 7_456
Os Al4 Al1 107.24(6) 6 7_456
Os Al4 Al1 58.51(4) 4 7_456
Al4 Al4 Al1 62.11(3) 10_557 7_456
Al5 Al4 Al1 103.28(6) 2 7_456
Al5 Al4 Al1 159.91(7) 10_556 7_456
Al1 Al4 Al1 56.67(8) 13_556 7_456
Al2 Al4 Al3 107.12(5) 10_556 13_556
Os Al4 Al3 54.93(3) 6 13_556
Os Al4 Al3 161.22(8) 4 13_556
Al4 Al4 Al3 62.17(4) 10_557 13_556
Al5 Al4 Al3 141.01(8) 2 13_556
Al5 Al4 Al3 57.25(4) 10_556 13_556
Al1 Al4 Al3 54.01(5) 13_556 13_556
Al1 Al4 Al3 104.44(6) 7_456 13_556
Al2 Al4 Al3 107.12(5) 10_556 7_456
Os Al4 Al3 161.22(8) 6 7_456
Os Al4 Al3 54.93(3) 4 7_456
Al4 Al4 Al3 62.17(4) 10_557 7_456
Al5 Al4 Al3 57.25(4) 2 7_456
Al5 Al4 Al3 141.01(8) 10_556 7_456
Al1 Al4 Al3 104.44(6) 13_556 7_456
Al1 Al4 Al3 54.01(5) 7_456 7_456
Al3 Al4 Al3 123.73(7) 13_556 7_456
Al2 Al4 Lu 63.70(6) 10_556 .
Os Al4 Lu 71.46(4) 6 .
Os Al4 Lu 71.46(4) 4 .
Al4 Al4 Lu 175.74(3) 10_557 .
Al5 Al4 Lu 67.91(4) 2 .
Al5 Al4 Lu 67.91(4) 10_556 .
Al1 Al4 Lu 121.46(5) 13_556 .
Al1 Al4 Lu 121.46(5) 7_456 .
Al3 Al4 Lu 117.43(4) 13_556 .
Al3 Al4 Lu 117.43(4) 7_456 .
Al2 Al4 Lu 174.62(8) 10_556 9_556
Os Al4 Lu 118.76(3) 6 9_556
Os Al4 Lu 118.76(3) 4 9_556
Al4 Al4 Lu 64.83(3) 10_557 9_556
Al5 Al4 Lu 67.83(4) 2 9_556
Al5 Al4 Lu 67.83(4) 10_556 9_556
Al1 Al4 Lu 118.41(5) 13_556 9_556
Al1 Al4 Lu 118.41(5) 7_456 9_556
Al3 Al4 Lu 75.02(4) 13_556 9_556
Al3 Al4 Lu 75.02(4) 7_456 9_556
Lu Al4 Lu 110.91(5) . 9_556
Os Al5 Os 169.55(14) . 3
Os Al5 Al3 119.16(4) . 15_545
Os Al5 Al3 58.47(3) 3 15_545
Os Al5 Al3 58.47(3) . 13
Os Al5 Al3 119.16(4) 3 13
Al3 Al5 Al3 157.40(15) 15_545 13
Os Al5 Al4 129.77(10) . 2_554
Os Al5 Al4 59.76(4) 3 2_554
Al3 Al5 Al4 64.83(6) 15_545 2_554
Al3 Al5 Al4 135.91(10) 13 2_554
Os Al5 Al4 59.76(4) . 10_556
Os Al5 Al4 129.77(10) 3 10_556
Al3 Al5 Al4 135.91(10) 15_545 10_556
Al3 Al5 Al4 64.83(6) 13 10_556
Al4 Al5 Al4 83.26(10) 2_554 10_556
Os Al5 Al2 58.56(5) . 13
Os Al5 Al2 111.14(10) 3 13
Al3 Al5 Al2 100.12(10) 15_545 13
Al3 Al5 Al2 58.52(7) 13 13
Al4 Al5 Al2 164.73(8) 2_554 13
Al4 Al5 Al2 110.92(4) 10_556 13
Os Al5 Al2 111.14(10) . 5_545
Os Al5 Al2 58.56(5) 3 5_545
Al3 Al5 Al2 58.52(7) 15_545 5_545
Al3 Al5 Al2 100.12(10) 13 5_545
Al4 Al5 Al2 110.92(4) 2_554 5_545
Al4 Al5 Al2 164.73(8) 10_556 5_545
Al2 Al5 Al2 55.69(8) 13 5_545
Os Al5 Al1 59.93(3) . .
Os Al5 Al1 115.45(6) 3 .
Al3 Al5 Al1 59.68(5) 15_545 .
Al3 Al5 Al1 110.57(7) 13 .
Al4 Al5 Al1 107.22(5) 2_554 .
Al4 Al5 Al1 106.82(5) 10_556 .
Al2 Al5 Al1 64.16(7) 13 .
Al2 Al5 Al1 75.13(8) 5_545 .
Os Al5 Al1 115.45(6) . 3
Os Al5 Al1 59.93(3) 3 3
Al3 Al5 Al1 110.57(7) 15_545 3
Al3 Al5 Al1 59.68(5) 13 3
Al4 Al5 Al1 106.82(5) 2_554 3
Al4 Al5 Al1 107.22(5) 10_556 3
Al2 Al5 Al1 75.13(8) 13 3
Al2 Al5 Al1 64.16(7) 5_545 3
Al1 Al5 Al1 133.89(13) . 3
Os Al5 Lu 116.95(6) . 9
Os Al5 Lu 70.02(3) 3 9
Al3 Al5 Lu 119.37(6) 15_545 9
Al3 Al5 Lu 75.50(5) 13 9
Al4 Al5 Lu 62.70(6) 2_554 9
Al4 Al5 Lu 62.82(6) 10_556 9
Al2 Al5 Lu 128.11(5) 13 9
Al2 Al5 Lu 117.76(4) 5_545 9
Al1 Al5 Lu 165.29(10) . 9
Al1 Al5 Lu 60.81(4) 3 9
Os Al5 Lu 70.02(3) . .
Os Al5 Lu 116.95(6) 3 .
Al3 Al5 Lu 75.50(5) 15_545 .
Al3 Al5 Lu 119.37(6) 13 .
Al4 Al5 Lu 62.82(6) 2_554 .
Al4 Al5 Lu 62.70(6) 10_556 .
Al2 Al5 Lu 117.76(4) 13 .
Al2 Al5 Lu 128.11(5) 5_545 .
Al1 Al5 Lu 60.81(4) . .
Al1 Al5 Lu 165.29(10) 3 .
Lu Al5 Lu 104.48(8) 9 .
loop_
_geom_bond_atom_site_label_1
_geom_bond_atom_site_label_2
_geom_bond_distance
_geom_bond_site_symmetry_2
Os Al5 2.5508(3) 13
Os Al5 2.5508(3) .
Os Al3 2.5736(7) .
Os Al3 2.5736(7) 13
Os Al4 2.6360(8) 10_556
Os Al4 2.6360(8) 6_554
Os Al2 2.6451(8) 13
Os Al2 2.6451(8) .
Os Al1 2.7218(9) 13
Os Al1 2.7218(9) .
Os Lu 3.43656(13) .
Os Lu 3.43656(13) 13
Lu Al3 3.0888(19) .
Lu Al3 3.0888(19) 11
Lu Al2 3.1092(17) 10_556
Lu Al2 3.1092(18) .
Lu Al1 3.1655(19) 11
Lu Al1 3.1655(19) .
Lu Al4 3.1970(17) 10_556
Lu Al4 3.1970(17) .
Lu Al4 3.2024(17) 2_554
Lu Al4 3.2024(17) 9_556
Lu Al5 3.3337(19) .
Lu Al5 3.3337(19) 9
Al1 Al3 2.647(2) .
Al1 Os 2.7218(9) 6
Al1 Al1 2.764(4) 11_655
Al1 Al3 2.780(2) 15_545
Al1 Al5 2.8705(16) 10_556
Al1 Al5 2.8705(16) .
Al1 Al4 2.912(2) 13_556
Al1 Al4 2.912(2) 6_554
Al2 Al4 2.621(2) 10_556
Al2 Os 2.6451(8) 7_455
Al2 Al2 2.647(3) 9_565
Al2 Al3 2.712(2) 11
Al2 Al3 2.712(2) .
Al2 Al5 2.834(3) 13
Al2 Al5 2.834(3) 5_455
Al3 Os 2.5736(7) 6
Al3 Al5 2.7109(11) 6
Al3 Al5 2.7109(11) 13
Al3 Al2 2.712(2) 10_556
Al3 Al1 2.780(2) 15
Al3 Al4 2.917(2) 13_556
Al3 Al4 2.917(2) 6_554
Al4 Al2 2.621(2) 10_556
Al4 Os 2.6360(8) 6
Al4 Os 2.6360(8) 4
Al4 Al4 2.724(3) 10_557
Al4 Al5 2.731(3) 2
Al4 Al5 2.731(3) 10_556
Al4 Al1 2.912(2) 13_556
Al4 Al1 2.912(2) 7_456
Al4 Al3 2.917(2) 13_556
Al4 Al3 2.917(2) 7_456
Al4 Lu 3.2024(17) 9_556
Al5 Os 2.5508(3) 3
Al5 Al3 2.7109(11) 15_545
Al5 Al3 2.7109(11) 13
Al5 Al4 2.731(3) 2_554
Al5 Al4 2.731(3) 10_556
Al5 Al2 2.834(3) 13
Al5 Al2 2.834(3) 5_545
Al5 Al1 2.8705(16) 3
Al5 Lu 3.3337(19) 9
