#------------------------------------------------------------------------------
#$Date: 2016-03-23 22:36:42 +0200 (Wed, 23 Mar 2016) $
#$Revision: 179486 $
#$URL: svn://www.crystallography.net/cod/cif/4/33/83/4338382.cif $
#------------------------------------------------------------------------------
#
# This file is available in the Crystallography Open Database (COD),
# http://www.crystallography.net/
#
# All data on this site have been placed in the public domain by the
# contributors.
#
data_4338382
loop_
_publ_author_name
'Abrahams, Brendan F.'
'Dharma, A. David'
'Grannas, Martin J.'
'Hudson, Timothy A.'
'Maynard-Casely, Helen E'
'Oliver, Graham R.'
'Robson, Richard'
'White, Keith F.'
_publ_section_title
;
 Isomeric Ionic Lithium Isonicotinate Three-Dimensional Networks and
 Single-Crystal-to-Single-Crystal Rearrangements Generating Microporous
 Materials.
;
_journal_issue                   10
_journal_name_full               'Inorganic chemistry'
_journal_page_first              4956
_journal_page_last               4969
_journal_paper_doi               10.1021/ic403134c
_journal_volume                  53
_journal_year                    2014
_chemical_formula_sum            'C17 H13 Li2 N3 O4'
_chemical_formula_weight         337.18
_chemical_name_systematic
;
 ?
;
_space_group_crystal_system      monoclinic
_space_group_IT_number           14
_space_group_name_Hall           '-P 2yn'
_space_group_name_H-M_alt        'P 1 21/n 1'
_symmetry_space_group_name_Hall  '-P 2yn'
_symmetry_space_group_name_H-M   'P 1 21/n 1'
_atom_sites_solution_hydrogens   geom
_audit_creation_method           SHELXL-2014
_cell_angle_alpha                90
_cell_angle_beta                 102.790(9)
_cell_angle_gamma                90
_cell_formula_units_Z            2
_cell_length_a                   5.4241(4)
_cell_length_b                   13.8293(9)
_cell_length_c                   11.1181(9)
_cell_measurement_reflns_used    1512
_cell_measurement_temperature    130(2)
_cell_measurement_theta_max      74.85
_cell_measurement_theta_min      3.19
_cell_volume                     813.29(11)
_computing_cell_refinement
;
CrysAlisPro, Agilent Technologies,
Version 1.171.36.20 (release 27-06-2012 CrysAlis171 .NET)
(compiled Jul 11 2012,15:38:31)
;
_computing_data_collection
;
CrysAlisPro, Agilent Technologies,
Version 1.171.36.20 (release 27-06-2012 CrysAlis171 .NET)
(compiled Jul 11 2012,15:38:31)
;
_computing_data_reduction
;
CrysAlisPro, Agilent Technologies,
Version 1.171.36.20 (release 27-06-2012 CrysAlis171 .NET)
(compiled Jul 11 2012,15:38:31)
;
_computing_structure_refinement  'SHELXL-2014 (Sheldrick, 2014)'
_computing_structure_solution    'SHELXS-97 (Sheldrick, 1997)'
_diffrn_ambient_temperature      130(2)
_diffrn_measured_fraction_theta_full 0.997
_diffrn_measured_fraction_theta_max 0.994
_diffrn_measurement_device_type  'SuperNova, Dual, Cu at zero, Atlas'
_diffrn_measurement_method       '\w scans'
_diffrn_radiation_type           CuK\a
_diffrn_radiation_wavelength     1.54184
_diffrn_reflns_av_R_equivalents  0.0704
_diffrn_reflns_av_unetI/netI     0.0465
_diffrn_reflns_Laue_measured_fraction_full 0.997
_diffrn_reflns_Laue_measured_fraction_max 0.994
_diffrn_reflns_limit_h_max       3
_diffrn_reflns_limit_h_min       -6
_diffrn_reflns_limit_k_max       16
_diffrn_reflns_limit_k_min       -14
_diffrn_reflns_limit_l_max       13
_diffrn_reflns_limit_l_min       -11
_diffrn_reflns_number            3080
_diffrn_reflns_point_group_measured_fraction_full 0.997
_diffrn_reflns_point_group_measured_fraction_max 0.994
_diffrn_reflns_theta_full        67.684
_diffrn_reflns_theta_max         69.943
_diffrn_reflns_theta_min         5.184
_diffrn_source                   'SuperNova (Cu) X-ray Source'
_exptl_absorpt_coefficient_mu    0.807
_exptl_absorpt_correction_T_max  1.00000
_exptl_absorpt_correction_T_min  0.91388
_exptl_absorpt_correction_type   multi-scan
_exptl_absorpt_process_details
;
CrysAlisPro, Agilent Technologies,
Version 1.171.36.20 (release 27-06-2012 CrysAlis171 .NET)
(compiled Jul 11 2012,15:38:31)
Empirical absorption correction using spherical harmonics,
 implemented in SCALE3 ABSPACK scaling algorithm.
;
_exptl_crystal_colour            colourless
_exptl_crystal_density_diffrn    1.377
_exptl_crystal_description       needle
_exptl_crystal_F_000             348
_exptl_crystal_size_max          0.3329
_exptl_crystal_size_mid          0.0406
_exptl_crystal_size_min          0.0387
_refine_diff_density_max         0.304
_refine_diff_density_min         -0.367
_refine_diff_density_rms         0.075
_refine_ls_extinction_method     none
_refine_ls_goodness_of_fit_ref   1.063
_refine_ls_hydrogen_treatment    constr
_refine_ls_matrix_type           full
_refine_ls_number_parameters     118
_refine_ls_number_reflns         1540
_refine_ls_number_restraints     0
_refine_ls_restrained_S_all      1.063
_refine_ls_R_factor_all          0.0718
_refine_ls_R_factor_gt           0.0601
_refine_ls_shift/su_max          0.000
_refine_ls_shift/su_mean         0.000
_refine_ls_structure_factor_coef Fsqd
_refine_ls_weighting_details
'w=1/[\s^2^(Fo^2^)+(0.1318P)^2^] where P=(Fo^2^+2Fc^2^)/3'
_refine_ls_weighting_scheme      calc
_refine_ls_wR_factor_gt          0.1737
_refine_ls_wR_factor_ref         0.1825
_reflns_Friedel_coverage         0.000
_reflns_number_gt                1235
_reflns_number_total             1540
_reflns_threshold_expression     'I > 2\s(I)'
_cod_data_source_file            ic403134c_si_002.cif
_cod_data_source_block           Li_inic_pyridine
_cod_depositor_comments
'Adding full bibliography for 4338378--4338389.cif.'
_cod_database_code               4338382
#BEGIN Tags that were not found in dictionaries:
_shelx_space_group_comment
;
The symmetry employed for this shelxl refinement is uniquely defined
by the following loop, which should always be used as a source of
symmetry information in preference to the above space-group names.
They are only intended as comments.
;
_shelxl_version_number           2014-1
_shelx_res_file
;
TITL ddLiInicPyridine_twin1_hklf4 in P2(1)/n
CELL  1.54184   5.4241  13.8293  11.1181   90.000  102.790   90.000
ZERR     2.00   0.0004   0.0009   0.0009    0.000    0.009    0.000
LATT   1
SYMM  1/2 - X, 1/2 + Y, 1/2 - Z
SFAC  C    H    LI   N    O
UNIT  34   26   4    6    8
MERG   2
OMIT     0.00 140.00
EADP  N3S C3S
EXYZ  N3S C3S
FMAP   2
PLAN   20
ACTA
BOND
L.S.  24
TEMP  -143.00
WGHT    0.131800
FVAR       9.78120
MOLE    1
O2    5    0.823904    0.046774    0.408844    11.00000    0.02073    0.02129 =
         0.02342    0.00257    0.00280    0.00150
N1    4    0.676958    0.317692    0.098959    11.00000    0.02626    0.02228 =
         0.02998    0.00615    0.00406   -0.00081
O1    5    0.419542    0.086355    0.389616    11.00000    0.02495    0.03949 =
         0.03788    0.01685    0.01359    0.00611
C6    1    0.630607    0.096466    0.365764    11.00000    0.02213    0.02092 =
         0.02038    0.00041    0.00483   -0.00014
C3    1    0.653211    0.175124    0.273953    11.00000    0.02014    0.02030 =
         0.02198    0.00019    0.00140    0.00006
C2    1    0.839158    0.172836    0.205645    11.00000    0.02358    0.02311 =
         0.02873    0.00547    0.00701    0.00214
AFIX  43
H2    2    0.963394    0.123229    0.218585    11.00000   -1.20000
AFIX   0
C5    1    0.501767    0.320243    0.167415    11.00000    0.02834    0.02218 =
         0.03498    0.00524    0.00720    0.00483
AFIX  43
H5    2    0.384869    0.372394    0.155331    11.00000   -1.20000
AFIX   0
C1    1    0.839739    0.244125    0.118564    11.00000    0.02449    0.02910 =
         0.02717    0.00324    0.00702   -0.00182
AFIX  43
H1    2    0.963096    0.240487    0.069949    11.00000   -1.20000
AFIX   0
C4    1    0.482679    0.251375    0.254043    11.00000    0.02292    0.02644 =
         0.02784    0.00280    0.00669    0.00204
AFIX  43
H4    2    0.354369    0.255920    0.299706    11.00000   -1.20000
AFIX   0
LI2   3    1.182861    0.065569    0.484952    11.00000    0.02170    0.01848 =
         0.02488   -0.00031    0.00690    0.00038
MOLE    2
PART    1
N3S   4    0.338118   -0.005588    1.076433    10.50000    0.04631    0.07759 =
         0.05244   -0.00790    0.00658   -0.00845
PART    2
C3S   1    0.338118   -0.005588    1.076433    10.50000    0.04631    0.07759 =
         0.05244   -0.00790    0.00658   -0.00845
AFIX  43
H3S   2    0.226621   -0.010748    1.131070    10.50000   -1.20000
AFIX   0
C2S   1    0.467792    0.070874    0.915564    11.00000    0.04705    0.05446 =
         0.04864    0.00962   -0.01037   -0.00885
AFIX  43
H2S   2    0.447933    0.120643    0.855284    11.00000   -1.20000
AFIX   0
C1S   1    0.304584    0.066085    0.991204    11.00000    0.03657    0.04732 =
         0.05757   -0.00088   -0.00017    0.00019
AFIX  43
H1S   2    0.170774    0.111438    0.984872    11.00000   -1.20000
AFIX   0
HKLF    4

REM  ddLiInicPyridine_twin1_hklf4 in P2(1)/n
REM R1 =  0.0601 for    1235 Fo > 4sig(Fo)  and  0.0718 for all    1540 data
REM    118 parameters refined using      0 restraints

END

WGHT      0.1333      0.0000

REM Highest difference peak  0.304,  deepest hole -0.367,  1-sigma level  0.075
Q1    1   0.6590  0.1365  0.3211  11.00000  0.05    0.30
Q2    1   0.7447  0.1534  0.2450  11.00000  0.05    0.29
Q3    1   0.7079  0.3724  0.0665  11.00000  0.05    0.29
Q4    1   0.3647  0.0769  0.9680  11.00000  0.05    0.25
Q5    1   0.8763 -0.0010  0.3655  11.00000  0.05    0.23
Q6    1   0.5818  0.3680  0.1257  11.00000  0.05    0.22
Q7    1   0.3878  0.0477  0.4353  11.00000  0.05    0.22
Q8    1   0.5558  0.2527  0.0006  11.00000  0.05    0.21
Q9    1   0.2761  0.1001  1.0276  11.00000  0.05    0.21
Q10   1   0.8438 -0.0165  0.3319  11.00000  0.05    0.21
Q11   1   0.9264  0.1010  0.3783  11.00000  0.05    0.20
Q12   1   0.3766  0.1483  0.4554  11.00000  0.05    0.20
Q13   1   0.6403  0.3288  0.1173  11.00000  0.05    0.20
Q14   1   0.5351  0.2606  0.1040  11.00000  0.05    0.19
Q15   1   0.9096  0.0942  0.1794  11.00000  0.05    0.19
Q16   1   0.8257  0.2295  0.2795  11.00000  0.05    0.18
Q17   1   0.8701  0.2359  0.0855  11.00000  0.05    0.18
Q18   1   0.8815  0.1127  0.1643  11.00000  0.05    0.18
Q19   1   0.2773  0.0567  1.2379  11.00000  0.05    0.18
Q20   1   0.9896  0.3410  0.0068  11.00000  0.05    0.18
;
_shelx_res_checksum              23144
_shelx_hkl_file
;
  -1   6  -7 19100.2 1122.33   0
  -1   6  -6 31294.7 1238.46   0
   0   6  -6 286.615 476.682   0
  -1   7  -6 574.278 692.330   0
   0   7  -6 2036.21 577.705   0
  -1   8  -6 48413.8 1597.47   0
   0   5  -5 19440.2 772.682   0
  -2   6  -5 14405.9 951.412   0
  -1   6  -5 81484.4 1797.74   0
   0   6  -5 7574.38 577.118   0
  -2   7  -5 7440.02 835.363   0
  -1   7  -5 798.816 500.240   0
   0   7  -5 22545.7 884.514   0
  -1   8  -5 42100.2 1425.47   0
   0   8  -5 35033.3 1139.92   0
  -1   9  -5 46480.7 1495.02   0
   1   3  -4 22123.4 480.870   0
   1   4  -4 69817.1 872.860   0
   0   5  -4 25213.4 794.811   0
  -2   6  -4-57.0688 450.178   0
  -1   6  -4 1763.46 426.970   0
   0   6  -4 13751.0 662.307   0
  -2   7  -4-94.3525 529.273   0
  -1   7  -4 25025.3 1025.53   0
   0   7  -4 25216.7 884.581   0
  -2   8  -4 121812. 2439.95   0
  -1   8  -4 27571.7 1110.24   0
  -1   9  -4 28563.5 1137.45   0
   1   2  -3 405.692 134.663   0
   1   3  -3 23345.8 413.151   0
  -3   5  -3 6402.01 721.278   0
   0   5  -3 8824.80 499.192   0
  -3   6  -3 1643.39 557.352   0
  -2   6  -3 11563.0 760.711   0
  -1   6  -3 266.200 328.835   0
   0   6  -3 462.755 319.148   0
  -3   7  -3 3911.56 666.646   0
  -2   7  -3 974.473 459.022   0
  -1   7  -3 1484.15 434.092   0
   0   7  -3 16969.3 696.334   0
  -2   8  -3 333.897 451.854   0
  -1   8  -3 6105.10 591.154   0
  -2   9  -3 8832.92 809.942   0
   0   4  -2 1276.15 303.509   0
  -3   5  -2 3983.28 577.650   0
  -1   5  -2 31884.6 868.073   0
   0   5  -2 225202. 1870.78   0
  -3   6  -2 3067.01 591.822   0
  -2   6  -2 18342.2 840.414   0
  -1   6  -2 3461.50 458.968   0
   0   6  -2 68750.8 1142.98   0
  -3   7  -2-357.665 577.385   0
  -2   7  -2 10836.8 710.440   0
  -1   7  -2 475.084 373.664   0
  -2   8  -2 46824.6 1366.14   0
  -1   8  -2 21019.2 858.670   0
   0   3  -1 124782. 1050.55   0
  -3   4  -1 3266.87 472.902   0
  -1   4  -1 32115.3 751.739   0
   0   4  -1 32327.9 651.292   0
  -3   5  -1 49690.8 1330.52   0
  -2   5  -1 13898.9 672.747   0
  -1   5  -1 45033.8 965.209   0
  -3   6  -1 11763.0 740.779   0
  -2   6  -1 11662.2 663.378   0
  -1   6  -1 2894.46 394.090   0
  -3   7  -1 787.056 486.370   0
  -2   7  -1 6212.86 558.539   0
  -1   7  -1 10146.1 587.819   0
  -2   8  -1 929.426 388.157   0
   0   1   0-51.1878 70.8407   0
  -3   3   0 29.2692 281.025   0
  -1   3   0 80706.5 963.274   0
  -3   4   0 14050.8 677.480   0
  -2   4   0 5241.83 423.669   0
  -1   4   0 18074.2 566.839   0
  -3   5   0 328.628 318.587   0
  -2   5   0 145090. 1806.90   0
  -1   5   0 191606. 1780.46   0
  -3   6   0 187.848 368.016   0
  -2   6   0 33090.2 950.217   0
  -2   7   0 12013.4 660.000   0
  -1   1   1 33180.4 419.416   0
  -3   2   1 78826.5 1167.91   0
  -2   2   1 314.366 221.011   0
  -1   2   1 2081.57 202.167   0
  -3   3   1 48281.7 998.682   0
  -2   3   1 1639.58 295.361   0
  -1   3   1 75307.7 885.901   0
  -3   4   1 11286.8 567.583   0
  -2   4   1 8888.06 469.743   0
  -3   5   1 7275.76 502.810   0
  -2   5   1 10205.7 522.817   0
  -2   0   2 61518.7 488.861   0
  -2   1   2 9923.38 301.208   0
   2   2  -9 10782.8 971.125   1
   2   3  -8 3186.12 572.443   1
   3   3  -8 1714.12 816.261   1
   2   4  -8 8938.79 811.482   1
   1   5  -8 2701.68 645.342   1
   2   5  -8 9181.32 914.287   1
   0   6  -8 69426.0 1850.92   1
   1   6  -8 3337.00 806.987   1
   3   2  -7 4589.39 582.526   1
   2   3  -7 4820.64 535.439   1
   3   3  -7 10617.9 767.715   1
   2   4  -7 149020. 2445.34   1
   3   4  -7 6124.77 714.785   1
   1   5  -7 14124.1 846.595   1
   2   5  -7-191.927 484.348   1
   3   5  -7 56437.6 1619.64   1
   0   6  -7 463.094 522.043   1
   1   6  -7 9813.68 776.635   1
   2   6  -7 320.011 575.550   1
   0   7  -7-37.0366 638.253   1
   1   7  -7 5130.58 724.930   1
   2   7  -7-697.762 682.150   1
   1   8  -7 1003.91 711.158   1
   3   1  -6 56453.0 1292.22   1
   2   2  -6 4669.85 493.829   1
   3   2  -6 9455.90 624.895   1
   2   3  -6 16297.1 788.917   1
   3   3  -6 1794.49 452.516   1
   2   4  -6 6723.82 599.744   1
   3   4  -6 47027.2 1323.47   1
   1   5  -6-249.232 392.684   1
   2   5  -6 27305.4 1065.04   1
   3   5  -6 185.170 492.128   1
  -1   6  -6 25276.0 921.662   1
   0   6  -6 161.087 361.122   1
   1   6  -6 15602.8 837.091   1
   2   6  -6 10249.8 752.153   1
   3   6  -6 1034.40 626.194   1
   0   7  -6 1483.21 457.829   1
   1   7  -6 733.562 430.912   1
   2   7  -6 6908.74 702.097   1
   0   8  -6 659.812 547.835   1
   1   8  -6 2788.86 570.792   1
   2   8  -6 10866.6 885.260   1
   1   9  -6 1912.95 617.520   1
   3   1  -5-131.151 345.248   1
   2   2  -5 55365.5 1156.25   1
   3   2  -5 1674.27 379.620   1
   2   3  -5 395.997 334.817   1
   3   3  -5 24698.0 889.484   1
   2   4  -5 6876.45 555.308   1
   3   4  -5 721.760 368.994   1
   1   5  -5 193.926 330.420   1
   2   5  -5 3821.50 485.010   1
   3   5  -5 29556.2 1077.49   1
  -1   6  -5 66384.7 1277.94   1
   0   6  -5 5262.49 486.636   1
   1   6  -5 16534.4 796.944   1
   2   6  -5 8904.37 675.732   1
   3   6  -5 139213. 2330.74   1
   0   7  -5 19997.1 836.643   1
   1   7  -5 24532.6 951.615   1
   2   7  -5-257.036 384.181   1
   3   7  -5 18675.2 997.325   1
   0   8  -5 30626.9 1030.81   1
   1   8  -5 4004.64 550.496   1
   2   8  -5 8142.76 727.548   1
   0   9  -5 8769.96 594.521   1
   1   9  -5 8223.82 668.564   1
   2   9  -5 5136.80 704.505   1
   1  10  -5 1592.34 666.620   1
   2   1  -4 43688.4 877.517   1
   3   1  -4 1001.57 276.624   1
   2   2  -4 54102.8 1041.80   1
   3   2  -4 59222.1 1152.91   1
   2   3  -4 2274.65 388.296   1
   3   3  -4-32.9480 304.212   1
   1   4  -4 59362.5 1114.35   1
   2   4  -4 3732.71 440.594   1
   3   4  -4 83954.0 1579.19   1
   1   5  -4 8811.31 543.875   1
   2   5  -4 4200.20 464.210   1
   3   5  -4 17511.2 837.615   1
  -1   6  -4 1481.19 288.152   1
   0   6  -4 11268.1 568.353   1
   1   6  -4 11574.1 640.106   1
   2   6  -4 1646.69 381.704   1
   3   6  -4 9600.98 685.374   1
   0   7  -4 24824.0 831.367   1
   1   7  -4-171.297 349.356   1
   2   7  -4 278.466 350.610   1
   3   7  -4 130.825 478.841   1
   0   8  -4 394.307 324.935   1
   1   8  -4 4621.43 484.063   1
   2   8  -4 392.186 382.051   1
   3   8  -4-250.334 584.306   1
   0   9  -4 1761.87 401.924   1
   1   9  -4 1418.34 403.593   1
   2   9  -4 2329.41 537.260   1
   1  10  -4 4228.82 565.667   1
   2  -2  -3-27.8144 150.007   1
   2  -1  -3 111657. 1014.80   1
   2   0  -3-32.4349 236.072   1
   2   1  -3 103814. 1205.99   1
   3   1  -3 10298.1 500.870   1
   2   2  -3 475.880 292.590   1
   3   2  -3 13.8381 271.365   1
   1   3  -3 18611.4 569.216   1
   2   3  -3 21565.2 695.627   1
   3   3  -3 7239.84 506.729   1
   1   4  -3 8391.37 483.368   1
   2   4  -3 442.165 302.524   1
   3   4  -3 9876.98 603.804   1
   0   5  -3 9218.37 455.672   1
   1   5  -3 69808.0 1195.02   1
   2   5  -3 10126.2 553.255   1
   3   5  -3 22929.3 877.609   1
  -1   6  -3-104.439 223.995   1
   0   6  -3 358.120 293.095   1
   1   6  -3 179677. 1994.73   1
   2   6  -3-158.927 303.712   1
   3   6  -3 162.598 346.812   1
   0   7  -3 16017.0 630.875   1
   1   7  -3 47.1230 279.266   1
   2   7  -3 1253.78 394.636   1
   3   7  -3 5024.35 579.622   1
   0   8  -3 27368.8 799.641   1
   1   8  -3 538.219 315.492   1
   2   8  -3 3287.01 459.322   1
   3   8  -3 27702.7 1058.09   1
   0   9  -3 1994.57 352.323   1
   1   9  -3 36218.1 1105.50   1
   2   9  -3 578.776 418.302   1
   1  10  -3 13888.1 728.562   1
   2  10  -3 4090.73 605.026   1
   1  11  -3 2361.20 552.188   1
   2  -1  -2 9845.20 274.230   1
   2   0  -2 66689.2 769.779   1
   2   1  -2 9122.39 389.526   1
   3   1  -2 57423.1 929.556   1
   1   2  -2 42102.3 673.635   1
   2   2  -2 32347.7 686.748   1
   3   2  -2 4933.85 394.747   1
   1   3  -2 15171.5 500.115   1
   2   3  -2 13884.4 533.719   1
   3   3  -2 10164.2 526.813   1
   0   4  -2 1232.00 253.442   1
   1   4  -2 7260.48 420.454   1
   2   4  -2 53381.7 1039.24   1
   3   4  -2 54472.0 1158.84   1
  -1   5  -2 32433.4 598.485   1
   0   5  -2 219853. 1704.64   1
   1   5  -2 54057.0 975.066   1
   2   5  -2 3560.27 402.619   1
   3   5  -2 3056.84 407.511   1
  -1   6  -2 3683.86 287.226   1
   0   6  -2 70509.7 1063.50   1
   1   6  -2 4482.88 399.795   1
   2   6  -2 5457.15 496.016   1
   3   6  -2 11542.8 640.013   1
   0   7  -2 17892.5 592.309   1
   1   7  -2 2469.63 372.260   1
   2   7  -2 23029.4 861.865   1
   3   7  -2 20944.4 872.561   1
   0   8  -2 15026.7 603.024   1
   1   8  -2 21763.9 800.855   1
   2   8  -2 56396.6 1328.71   1
   3   8  -2 5737.60 617.130   1
   0   9  -2 6769.03 483.047   1
   1   9  -2 4348.94 470.390   1
   2   9  -2 1791.26 441.273   1
   0  10  -2-246.097 384.670   1
   1  10  -2 71.4949 351.473   1
   2  10  -2 1748.58 443.498   1
   1  11  -2-695.995 506.372   1
   1  -1  -1 45869.4 322.823   1
   2  -1  -1 26008.3 366.646   1
   1   0  -1 683070. 1683.22   1
   2   0  -1-77.5875 183.878   1
   1   1  -1 47788.3 572.498   1
   2   1  -1 24414.6 549.767   1
   3   1  -1 7081.22 383.805   1
   1   2  -1 3204.39 291.501   1
   2   2  -1 419.988 274.701   1
   3   2  -1 78647.8 1204.79   1
   0   3  -1 118770. 919.055   1
   1   3  -1 86145.0 948.009   1
   2   3  -1 2522.83 356.596   1
   3   3  -1 44786.4 997.050   1
  -1   4  -1 32019.3 458.186   1
   0   4  -1 31522.6 567.935   1
   1   4  -1 7.68754 262.697   1
   2   4  -1 9720.82 514.845   1
   3   4  -1 11026.5 575.105   1
  -1   5  -1 45159.8 576.955   1
   0   5  -1 4581.21 304.637   1
   1   5  -1 12014.5 516.602   1
   2   5  -1 9516.22 528.117   1
   3   5  -1 6298.83 515.005   1
  -1   6  -1 3044.85 228.330   1
   0   6  -1 25.4993 236.653   1
   1   6  -1 105800. 1426.10   1
   2   6  -1 10159.8 578.211   1
   3   6  -1-6.22644 319.111   1
   0   7  -1 18945.8 600.372   1
   1   7  -1 1093.84 339.023   1
   2   7  -1 348.456 288.649   1
   3   7  -1 289.807 354.380   1
   0   8  -1 906.771 261.890   1
   1   8  -1 121416. 1685.11   1
   2   8  -1 16924.2 741.774   1
   3   8  -1 11087.6 703.199   1
   0   9  -1 15499.2 589.791   1
   1   9  -1 3887.48 420.689   1
   2   9  -1 511.682 341.520   1
   0  10  -1 1920.96 348.996   1
   1  10  -1 12997.7 667.254   1
   2  10  -1 1891.34 429.045   1
   1  11  -1-608.763 457.045   1
   1  -1   0 109164. 443.103   1
   2  -1   0 27680.5 368.728   1
   1   0   0-34.8459 160.232   1
   2   0   0 12621.6 392.120   1
   1   1   0 109382. 862.148   1
   2   1   0 30108.8 618.273   1
   3   1   0 4572.10 342.067   1
   0   2   0 482.211 132.883   1
   1   2   0 2297.64 285.788   1
   2   2   0 39153.8 767.210   1
   3   2   0 1149.63 314.886   1
  -1   3   0 83608.8 415.878   1
   0   3   0 89.5664 229.929   1
   1   3   0 80402.4 971.867   1
   2   3   0 17042.6 588.867   1
   3   3   0 140.867 284.944   1
  -1   4   0 18850.3 291.449   1
   0   4   0 4931.79 305.650   1
   1   4   0 17453.4 544.398   1
   2   4   0 5363.03 419.896   1
   3   4   0 13879.1 652.185   1
  -1   5   0 198013. 1051.51   1
   0   5   0-60.5008 230.778   1
   1   5   0 174129. 1631.36   1
   2   5   0 130894. 1649.16   1
   3   5   0-195.044 307.953   1
  -1   6   0 2565.88 211.063   1
   0   6   0 63583.1 920.188   1
   1   6   0 2435.06 346.790   1
   2   6   0 29375.5 864.511   1
   3   6   0 214.679 327.204   1
   0   7   0-76.6468 229.435   1
   1   7   0 11902.5 543.349   1
   2   7   0 10087.6 575.081   1
   3   7   0 12563.5 709.859   1
   0   8   0 121919. 1442.58   1
   1   8   0 24287.7 781.348   1
   2   8   0 13039.2 669.949   1
   3   8   0 573.493 439.256   1
   0   9   0 383.375 234.282   1
   1   9   0 14615.9 646.750   1
   2   9   0 10811.1 658.665   1
   0  10   0 7072.47 431.877   1
   1  10   0 10530.5 595.270   1
   2  10   0 2363.83 441.565   1
   1  11   0 7553.84 530.580   1
   1   0   1 133374. 934.415   1
   2   0   1 49.7282 199.841   1
   0   1   1 27642.7 347.621   1
   1   1   1 308604. 1641.16   1
   2   1   1 25663.6 643.688   1
   3   1   1 19885.7 610.571   1
   0   2   1 133654. 892.572   1
   1   2   1 234798. 1536.54   1
   2   2   1 70970.2 1084.89   1
   3   2   1 47343.4 985.056   1
   0   3   1 118492. 955.892   1
   1   3   1 223253. 1628.99   1
   2   3   1 3164.86 382.244   1
   3   3   1 6721.74 492.595   1
  -1   4   1 26.6687 113.861   1
   0   4   1 30838.1 579.462   1
   1   4   1 28513.2 678.110   1
   2   4   1 57925.9 1089.08   1
   3   4   1 2722.80 410.889   1
  -1   5   1 13866.3 330.979   1
   0   5   1 5037.69 338.410   1
   1   5   1 39859.6 831.187   1
   2   5   1 12508.5 599.279   1
   3   5   1 47517.4 1212.76   1
  -1   6   1 119357. 988.140   1
   0   6   1-173.709 239.723   1
   1   6   1 2573.46 347.112   1
   2   6   1 9535.37 547.829   1
   3   6   1 9430.84 629.430   1
   0   7   1 17409.1 549.531   1
   1   7   1 8494.21 482.019   1
   2   7   1 5161.94 475.679   1
   3   7   1-217.454 412.145   1
   0   8   1 803.252 247.072   1
   1   8   1-162.244 286.517   1
   2   8   1 469.675 339.218   1
   3   8   1 10714.4 746.805   1
   0   9   1 15828.2 598.758   1
   1   9   1 14680.0 666.685   1
   2   9   1 17159.1 793.022   1
   0  10   1 1906.17 336.380   1
   1  10   1-312.908 320.451   1
   2  10   1 21392.5 921.798   1
   1  11   1 3264.04 477.846   1
   2   0   2 117505. 1330.98   1
   0   1   2 25845.6 497.102   1
   1   1   2 199874. 1477.56   1
   2   1   2 7905.39 401.819   1
   3   1   2 3794.60 388.457   1
   0   2   2 489140. 1978.39   1
   1   2   2 989131. 3535.69   1
   2   2   2 28747.2 755.315   1
   3   2   2-139.593 306.170   1
   0   3   2 890715. 2951.55   1
   1   3   2 7879.72 447.021   1
   2   3   2 26095.5 777.202   1
   3   3   2 7562.58 526.364   1
  -1   4   2 8368.30 294.524   1
   0   4   2 1603.45 274.133   1
   1   4   2 11172.6 518.928   1
   2   4   2 2794.64 402.904   1
   3   4   2 28411.6 920.541   1
  -1   5   2 61516.7 723.147   1
   0   5   2 223979. 1751.99   1
   1   5   2 29829.2 793.811   1
   2   5   2 5107.58 467.551   1
   3   5   2 3387.83 446.929   1
  -1   6   2 4830.04 252.464   1
   0   6   2 68407.4 1057.36   1
   1   6   2 3817.04 405.151   1
   2   6   2 17389.5 752.990   1
   3   6   2 2291.67 431.284   1
   0   7   2 18097.5 614.428   1
   1   7   2 557.136 308.594   1
   2   7   2 8730.56 586.380   1
   3   7   2 252.729 417.524   1
   0   8   2 14109.3 568.670   1
   1   8   2 17016.1 706.905   1
   2   8   2 38812.6 1114.42   1
   0   9   2 6958.17 435.397   1
   1   9   2 1482.81 352.048   1
   2   9   2 6872.05 560.412   1
   0  10   2-374.026 329.399   1
   1  10   2 118820. 1818.96   1
   1  11   2 2515.76 488.140   1
   1   1   3 96909.6 1275.11   1
   2   1   3 79303.0 1322.14   1
   0   2   3 10077.5 455.008   1
   1   2   3 26021.1 705.298   1
   2   2   3 10973.1 582.850   1
   3   2   3 7786.27 573.300   1
   0   3   3 13611.4 501.039   1
   1   3   3 57225.6 1023.29   1
   2   3   3 3884.76 380.943   1
   3   3   3 8039.66 624.077   1
   0   4   3 303732. 2037.24   1
   1   4   3 14835.6 603.642   1
   2   4   3 172752. 2041.24   1
   3   4   3 617.184 399.601   1
   0   5   3 8195.28 439.048   1
   1   5   3 113178. 1509.60   1
   2   5   3 41219.1 1065.50   1
   3   5   3 4327.56 498.148   1
  -1   6   3 202386. 1613.55   1
   0   6   3 245.172 271.142   1
   1   6   3 191.246 319.907   1
   2   6   3 10040.3 604.812   1
   3   6   3 1658.61 408.174   1
   0   7   3 13474.7 559.145   1
   1   7   3 952.715 346.927   1
   2   7   3 687.195 326.653   1
   3   7   3 2735.05 462.080   1
   0   8   3 24136.4 739.987   1
   1   8   3 3255.56 418.472   1
   2   8   3-167.032 387.291   1
   0   9   3 1610.71 309.953   1
   1   9   3 25858.7 867.248   1
   2   9   3 5006.95 573.606   1
   1  10   3 8253.80 566.798   1
   1   3   4 1435.73 392.122   1
   2   3   4 2226.44 457.468   1
   0   4   4 3174.67 402.982   1
   1   4   4 298258. 2686.37   1
   2   4   4 113607. 1892.88   1
   0   5   4 21827.5 740.535   1
   1   5   4 178981. 2034.50   1
   2   5   4 44852.3 1209.87   1
   0   6   4 11699.3 585.994   1
   1   6   4 979.850 326.412   1
   2   6   4 175.392 310.015   1
   0   7   4 21463.0 772.822   1
   1   7   4 15395.9 677.351   1
   2   7   4 185.722 395.684   1
   0   8   4-69.6056 311.666   1
   1   8   4 17556.4 721.114   1
   2   8   4 98311.6 1826.44   1
   0   9   4 1438.90 383.091   1
   1   9   4 19418.5 796.682   1
   1  10   4 15609.2 788.366   1
   1   5   5 6614.22 596.551   1
   2   5   5 6725.37 602.534   1
   1   6   5 68090.4 1509.70   1
   2   6   5 11462.1 758.669   1
   1   7   5 593.786 406.968   1
   2   7   5 7931.20 754.530   1
   1   8   5 31580.5 1096.19   1
   1   9   5 35538.5 1176.99   1
  -1  -2  -8 217.883 826.649   2
  -1  -1  -8 4501.88 803.710   2
   0  -1  -8 1764.74 650.232   2
  -1   0  -8-678.738 762.682   2
   0   0  -8 55478.8 1508.20   2
  -1   1  -8 3593.49 836.812   2
   0   1  -8 112.627 700.241   2
  -2  -3  -7 39.3257 904.866   2
  -2  -2  -7 3726.93 886.289   2
  -2  -1  -7 46003.5 1733.59   2
  -1  -1  -7 11652.2 872.102   2
  -2   0  -7-129.715 733.534   2
  -1   0  -7 23150.8 1110.45   2
   0   0  -7-19.5158 429.897   2
  -2   1  -7 43228.3 1618.77   2
  -1   1  -7 9075.15 724.177   2
   0   1  -7 8828.39 626.459   2
  -1   2  -7 43932.2 1394.20   2
   0   2  -7 21788.0 903.997   2
  -2  -1  -6 5446.05 691.156   2
  -2   0  -6 16874.7 1024.64   2
  -1   0  -6-231.561 459.180   2
  -2   1  -6 5273.66 720.189   2
  -1   1  -6 41172.7 1275.21   2
   0   1  -6 2026.00 440.343   2
  -2   2  -6 289.906 549.795   2
  -1   2  -6-331.183 523.837   2
   0   2  -6 724.214 394.810   2
  -1   3  -6 8766.91 678.415   2
  -3  -4  -5-275.009 796.895   2
  -3  -3  -5 1193.78 816.154   2
  -3  -2  -5 2876.77 687.054   2
  -3  -1  -5 967.872 655.428   2
  -2  -1  -5 4350.29 637.757   2
  -3   0  -5 28345.1 1325.48   2
  -2   0  -5 58.5906 523.877   2
  -3   1  -5 772.590 647.968   2
  -2   1  -5 4472.73 590.666   2
  -1   1  -5 22972.3 909.502   2
   0   1  -5 96029.0 1404.22   2
   1   1  -5 18372.9 459.921   2
  -2   2  -5 32213.9 1217.38   2
  -1   2  -5-180.980 404.230   2
   0   2  -5 1146.93 357.786   2
  -1   3  -5 19997.4 859.320   2
  -3  -3  -4 2044.96 620.175   2
  -3  -2  -4-196.941 569.759   2
  -3  -1  -4 19549.6 1030.51   2
  -3   0  -4-795.843 519.756   2
  -2   0  -4 94922.8 1791.20   2
  -3   1  -4 21412.5 1024.85   2
  -2   1  -4 1194.42 414.060   2
  -1   1  -4 375.732 435.940   2
   0   1  -4 17093.7 587.198   2
   1   1  -4 121897. 844.498   2
  -2   2  -4 14753.7 837.765   2
  -1   2  -4 2916.52 428.894   2
   0   2  -4 44265.8 844.933   2
  -1   3  -4 1742.81 434.171   2
  -3  -2  -3 8493.04 681.618   2
  -3  -1  -3 4025.88 553.137   2
  -3   0  -3 63883.9 1527.51   2
  -2   0  -3 147.292 431.933   2
  -3   1  -3 3727.84 554.125   2
  -2   1  -3 67078.3 1331.86   2
  -1   1  -3 90608.0 1294.90   2
  -2   2  -3 12247.6 686.847   2
  -1   2  -3 23847.5 678.688   2
   0   2  -3 12636.9 474.842   2
  -1   3  -3 59095.9 1096.20   2
  -3  -2  -2-151.052 401.251   2
  -3  -1  -2 3295.96 465.860   2
  -3   0  -2-415.752 384.445   2
  -2   0  -2 109125. 1519.88   2
  -3   1  -2 2700.54 465.799   2
  -2   1  -2 7703.09 495.429   2
  -1   1  -2 202562. 1621.29   2
   0   1  -2 29304.3 482.812   2
  -2   2  -2 29854.2 842.600   2
  -1   2  -2 976882. 3684.50   2
  -3  -2  -1 48866.0 1093.75   2
  -3  -1  -1 18722.3 693.791   2
  -3   0  -1 17859.5 692.110   2
  -2   0  -1 187.880 292.054   2
  -2   1  -1 23349.3 693.440   2
  -1   1  -1 291828. 1624.56   2
   0   1  -1 23567.8 302.803   2
  -3  -2   0 351.727 303.309   2
  -3  -1   0 3955.70 376.125   2
  -2   0   0 9666.72 384.866   2
  -2   1   0 28893.7 619.172   2
  -1   1   0 104707. 802.692   2
  -2  -1   1 20697.5 400.313   2
   1  -2   1 219175. 603.393   3
   0  -1   1 20006.7 266.591   3
   1  -1   1 309161. 1008.66   3
   0   0   1 86.9224 92.4325   3
  -1   1   1 44244.7 415.194   3
  -1   2   1 3090.29 174.308   3
  -1   3   1 95494.8 639.071   3
  -1   4   1 107.579 144.042   3
   0  -2   2 564959. 1884.05   3
   1  -2   2 999999. 2301.72   3
   0  -1   2 27020.3 468.880   3
   1  -1   2 195884. 1098.94   3
   2  -1   2 10441.9 347.998   3
  -1   0   2 66.1236 210.369   3
   0   0   2 2996.19 261.136   3
  -1   1   2 29314.4 512.061   3
   0   1   2 27327.6 498.859   3
  -1   3   2 11458.0 340.695   3
  -1   4   2 7231.91 331.802   3
  -1   5   2 61139.5 830.643   3
  -1   6   2 4965.48 325.801   3
  -1   7   2 2255.69 270.933   3
   0  -3   3 15231.4 524.894   3
   1  -3   3 58517.6 692.911   3
   0  -2   3 10123.8 408.920   3
   1  -2   3 30245.0 580.478   3
  -1  -1   3 183.243 234.839   3
   0  -1   3 167112. 1371.22   3
   1  -1   3 97561.0 1043.23   3
   2  -1   3 76347.1 949.768   3
  -1   0   3 183670. 1523.86   3
   0   0   3 542.674 296.725   3
   1   0   3 2217.12 316.438   3
   2   0   3 89.0926 228.941   3
  -2   1   3 122730. 1374.90   3
   0   1   3 161553. 1378.38   3
  -2   2   3 174.823 281.545   3
   0   2   3 10332.7 472.947   3
  -2   3   3 21907.3 531.593   3
  -2   4   3 568.020 210.267   3
  -1   4   3 5356.28 319.775   3
  -1   5   3 68285.8 1021.23   3
  -1   6   3 199843. 1822.05   3
  -1   7   3 249.670 244.761   3
  -1   8   3 619.769 305.400   3
   0  -3   4 179873. 1814.82   3
   1  -3   4 1518.90 239.884   3
  -1  -2   4 9723.23 571.317   3
   0  -2   4 41894.3 850.082   3
   1  -2   4 2943.38 335.546   3
  -1  -1   4 111908. 1329.80   3
   0  -1   4 18282.3 634.042   3
   1  -1   4 488.555 299.035   3
  -2   0   4 102838. 1508.12   3
  -1   0   4-219.878 306.794   3
   0   0   4 203939. 1813.26   3
   1   0   4-259.064 291.740   3
   2   0   4 101322. 1374.64   3
  -2   1   4 50468.2 1075.54   3
  -1   1   4 66012.3 1075.95   3
   0   1   4 16908.6 606.193   3
   1   1   4 278.784 341.812   3
   2   1   4 2039.60 347.278   3
  -2   2   4 53405.9 953.540   3
   0   2   4 40377.8 881.156   3
   1   2   4 2913.02 389.946   3
   2   2   4 15851.9 672.244   3
  -2   3   4 2966.30 363.459   3
   0   3   4 165697. 1800.22   3
   0   4   4 4165.44 418.732   3
  -2   5   4 4117.10 347.437   3
  -1   5   4 6831.60 445.528   3
  -1   6   4 11385.5 533.848   3
  -1   7   4 351.915 284.831   3
  -1   8   4 4892.45 406.398   3
   0   9   4 1024.75 346.277   3
   0  10   4 13178.6 720.054   3
   0  -3   5 10549.6 530.122   3
   1  -3   5 16882.3 587.065   3
  -1  -2   5 576.441 397.193   3
   0  -2   5 1324.67 391.041   3
   1  -2   5 52.9059 306.637   3
  -1  -1   5 16442.7 680.314   3
   0  -1   5 95570.0 1462.85   3
   1  -1   5 25446.7 809.628   3
  -2   0   5-244.499 395.963   3
  -1   0   5 3685.58 486.186   3
   0   0   5 150.958 383.263   3
   1   0   5 3949.38 447.526   3
   2   0   5 186.293 370.407   3
  -2   1   5 43638.7 1013.06   3
  -1   1   5 10815.2 569.944   3
   0   1   5 94142.5 1477.89   3
   1   1   5 22656.6 793.916   3
   2   1   5 4868.93 506.243   3
  -2   2   5 53995.9 1125.24   3
   0   2   5 796.150 374.024   3
   1   2   5-180.827 352.647   3
   2   2   5 35812.0 1047.08   3
  -2   3   5 386.159 423.755   3
   0   3   5 11003.3 607.812   3
   1   3   5 17667.4 769.761   3
   2   3   5 11456.4 690.045   3
  -1   4   5 14082.6 637.796   3
   0   4   5 69676.1 1363.42   3
   1   4   5 305.303 355.341   3
   2   4   5 57646.9 1402.55   3
  -1   5   5 309.752 325.554   3
   0   5   5 16813.3 759.271   3
   1   5   5 6314.91 535.069   3
   2   5   5 5805.92 535.267   3
  -1   6   5 15424.0 710.185   3
   0   6   5 5375.41 540.731   3
   1   6   5 60837.4 1398.14   3
   2   6   5 11721.3 725.315   3
  -1   7   5 23982.8 868.277   3
   0   7   5 19683.3 851.264   3
   1   7   5 472.490 355.335   3
   2   7   5 6786.81 670.562   3
  -1   8   5 4257.79 480.568   3
   0   8   5 27838.6 997.312   3
   1   8   5 30955.9 1078.26   3
   0   9   5 8418.99 639.072   3
   1   9   5 36993.9 1223.01   3
   0  10   5 1114.32 599.214   3
   0  -3   6 96096.2 1660.71   3
   1  -3   6 7991.68 496.309   3
  -1  -2   6 24591.1 926.929   3
   0  -2   6 347.195 356.749   3
   1  -2   6 685.088 371.660   3
  -2  -1   6 14361.0 819.801   3
  -1  -1   6 100.201 308.140   3
   0  -1   6 2534.47 492.272   3
   1  -1   6 43817.3 1182.41   3
  -2   0   6 45417.6 1337.47   3
  -1   0   6-251.604 372.882   3
   0   0   6 179047. 2316.21   3
   1   0   6 229.320 342.464   3
  -2   1   6 9336.70 593.928   3
  -1   1   6 55.2309 277.787   3
   0   1   6 2392.68 462.735   3
   1   1   6 41181.2 1184.87   3
   2   1   6 6415.15 565.176   3
  -2   2   6 4787.44 497.767   3
   0   2   6 379.153 388.327   3
   1   2   6-229.997 373.926   3
   2   2   6-222.863 529.628   3
  -2   3   6 16636.3 783.474   3
   0   3   6 96502.2 1756.86   3
   1   3   6 8105.56 625.472   3
   2   3   6 23450.4 953.261   3
  -1   4   6 74597.7 1542.57   3
   0   4   6 40673.0 1175.13   3
   1   4   6 1683.41 440.088   3
   2   4   6 4476.33 560.283   3
  -1   5   6 431.534 458.438   3
   0   5   6 362.523 379.568   3
   1   5   6 270.240 355.347   3
   2   5   6 35750.5 1221.70   3
  -2   6   6 8781.71 603.362   3
  -1   6   6 13259.3 726.624   3
   0   6   6 715.303 334.598   3
   1   6   6 24270.2 984.755   3
  -1   7   6 431.933 415.864   3
   0   7   6 912.388 388.899   3
   1   7   6 714.666 454.436   3
  -1   8   6 1981.70 571.015   3
   0   8   6 811.910 454.096   3
   1   8   6 41348.5 1293.72   3
   0   9   6 5705.90 595.636   3
   0  -3   7-101.330 457.346   3
  -1  -2   7 12186.7 883.554   3
   0  -2   7 21614.6 904.361   3
   1  -2   7 42558.8 1207.94   3
  -1  -1   7 3859.71 519.551   3
   0  -1   7 10610.6 763.056   3
   1  -1   7 12224.8 784.697   3
  -2   0   7 301.730 502.562   3
  -1   0   7 55524.5 1483.40   3
   0   0   7 617.286 387.273   3
   1   0   7 23884.5 1027.82   3
  -2   1   7 4091.00 536.359   3
  -1   1   7 4176.20 590.118   3
   0   1   7 9225.23 750.104   3
   1   1   7 9507.28 734.723   3
  -2   2   7 8282.90 652.412   3
  -1   2   7 17532.1 970.610   3
   0   2   7 22631.6 1019.46   3
   1   2   7 42260.3 1344.15   3
  -2   3   7 4175.61 549.245   3
   0   3   7-48.5764 442.869   3
   1   3   7 1908.32 452.512   3
   2   3   7 383.103 803.457   3
  -1   4   7 7441.50 641.010   3
   0   4   7 19374.3 969.683   3
   1   4   7 747.631 490.648   3
  -1   5   7 11134.9 750.765   3
   0   5   7 3254.47 563.821   3
   1   5   7 5323.29 625.960   3
  -1   6   7 10010.3 758.763   3
   0   6   7-217.321 432.858   3
   1   6   7 12291.2 846.721   3
  -1   7   7 4125.53 580.028   3
   0   7   7-37.3203 575.353   3
  -1   8   7 533.475 743.974   3
   0  -3   8 15957.1 1014.03   3
  -1  -2   8 28402.2 1324.65   3
   0  -2   8 2886.69 526.755   3
  -1  -1   8 53007.0 1505.21   3
   0  -1   8 77.4125 518.701   3
   1  -1   8 4175.82 779.685   3
  -2   0   8 19764.8 1146.00   3
  -1   0   8-115.860 394.463   3
   0   0   8 60064.7 1745.83   3
   1   0   8-150.143 785.986   3
  -2   1   8 14287.4 917.660   3
  -1   1   8 47159.3 1547.55   3
   0   1   8 1141.51 492.615   3
   1   1   8 4759.65 751.381   3
  -2   2   8 16061.7 915.145   3
  -1   2   8 19532.8 1065.95   3
   0   2   8 3836.60 597.156   3
   1   2   8 593.484 733.389   3
  -2   3   8 698.687 284.747   3
   0   3   8 13161.3 935.578   3
   1   3   8 11576.6 860.520   3
  -1   4   8 975.287 437.790   3
   0   4   8-150.138 529.662   3
   1   4   8 1696.99 668.680   3
  -1   5   8 3278.83 627.906   3
   0   5   8 11385.6 937.074   3
  -1   6   8 3136.54 660.258   3
   0  -2   9 2911.60 1072.96   3
  -1  -1   9-523.231 853.435   3
   0  -1   9 13133.2 927.936   3
  -1   0   9 60010.4 1746.17   3
   0   0   9-287.357 815.094   3
  -2   1   9 68512.9 2166.61   3
  -1   1   9 191.456 587.671   3
   0   1   9 15944.0 1096.40   3
  -2   2   9 10130.7 955.789   3
  -1   2   9 3074.18 764.661   3
   0   2   9 740.606 809.764   3
  -1   3   9 8862.41 914.300   3
  -3  -2  -2-203.387 190.323   4
  -3  -1  -2 3059.30 217.102   4
  -2  -1  -2 10682.6 252.330   4
  -3   0  -2 90.9934 166.561   4
  -2   0  -2 111762. 595.681   4
  -3   1  -2 3226.81 211.468   4
  -2   1  -2 9056.37 216.049   4
  -4  -5  -1 40734.7 631.545   4
  -4  -4  -1-347.005 313.961   4
  -4  -3  -1 350.183 272.730   4
  -4  -2  -1 4035.39 282.733   4
  -4  -1  -1 2242.98 265.601   4
  -3  -1  -1 20864.1 402.393   4
  -4   0  -1-42.5247 226.212   4
  -3   0  -1 17947.2 358.886   4
  -2   0  -1-87.1740 171.586   4
  -4   1  -1 2096.27 234.207   4
  -3   1  -1 20243.7 382.810   4
  -2   1  -1 23148.9 307.235   4
  -3   2  -1 43347.2 494.126   4
  -2   2  -1 67647.7 494.809   4
  -5  -3   0 6082.66 328.218   4
  -4  -3   0 2600.45 318.862   4
  -5  -2   0 24281.2 481.908   4
  -4  -2   0 3098.03 310.328   4
  -5  -1   0 13691.8 395.699   4
  -4  -1   0 6002.24 327.139   4
  -3  -1   0 4639.53 268.631   4
  -5   0   0-113.370 215.087   4
  -4   0   0 23149.3 487.585   4
  -3   0   0-292.891 204.337   4
  -4   1   0 7175.99 321.871   4
  -3   1   0 3864.25 230.243   4
  -2   1   0 30833.1 362.225   4
  -4   2   0 2728.91 250.898   4
  -3   2   0 588.314 183.441   4
  -2   2   0 38029.4 394.306   4
  -1   2   0 2078.37 143.308   4
  -2   3   0 15974.5 279.200   4
  -5  -5   1 2689.85 300.993   4
  -5  -4   1 446.676 260.331   4
  -5  -3   1 43859.4 638.897   4
  -4  -3   1 137.214 287.504   4
  -5  -2   1 39684.0 641.141   4
  -4  -2   1 101120. 979.765   4
  -5  -1   1 3999.96 312.724   4
  -4  -1   1 18707.7 469.276   4
  -5   0   1 296.015 244.927   4
  -4   0   1-355.830 230.820   4
  -3   0   1 47551.3 561.582   4
  -5   1   1 3515.53 275.704   4
  -4   1   1 17776.8 446.212   4
  -3   1   1 5860.40 253.936   4
  -2   1   1 24978.0 344.790   4
  -4   2   1 87013.5 838.862   4
  -3   2   1 67494.2 633.629   4
  -2   2   1 443.204 164.809   4
  -1   2   1 2907.04 146.231   4
  -3   3   1 37492.4 482.127   4
  -2   3   1 1217.21 174.974   4
  -5  -5   2 1126.76 290.751   4
  -5  -4   2 78079.6 890.600   4
  -5  -3   2 9.24370 263.969   4
  -5  -2   2 1311.20 297.878   4
  -4  -2   2 263.390 286.906   4
  -5  -1   2 25822.7 547.180   4
  -4  -1   2 1407.28 286.366   4
  -5   0   2 181.971 250.950   4
  -4   0   2 4399.88 289.189   4
  -3   0   2 28.9329 202.881   4
  -5   1   2 22196.5 473.281   4
  -4   1   2 1305.26 262.120   4
  -3   1   2 47666.5 545.027   4
  -2   1   2 9471.76 249.319   4
  -4   2   2 483.704 246.659   4
  -3   2   2 3863.39 234.253   4
  -2   2   2 31107.4 352.676   4
  -4   3   2 13557.9 370.883   4
  -3   3   2 8410.26 272.733   4
  -2   3   2 11619.1 242.073   4
  -5  -5   3 23399.9 568.845   4
  -5  -4   3 2632.77 322.481   4
  -5  -3   3 153.344 274.084   4
  -5  -2   3 59.6421 247.591   4
  -4  -2   3-280.932 274.620   4
  -5  -1   3 6870.39 358.345   4
  -4  -1   3 3984.81 314.794   4
  -5   0   3 2017.07 275.628   4
  -4   0   3-63.4625 238.018   4
  -3   0   3 225375. 1146.44   4
  -5   1   3 6174.35 326.826   4
  -4   1   3 3494.97 285.199   4
  -3   1   3 7867.88 277.036   4
  -2   1   3 96026.5 595.760   4
  -4   2   3-93.3740 222.329   4
  -3   2   3 25.8446 171.971   4
  -2   2   3-41.3727 149.777   4
  -4   3   3 529.896 219.023   4
  -3   3   3 5323.13 232.698   4
  -2   3   3 21085.2 292.360   4
  -5  -5   4-121.795 290.653   4
  -5  -4   4 27503.1 572.831   4
  -5  -3   4 309.278 263.188   4
  -5  -2   4-414.382 245.026   4
  -4  -2   4 5397.69 356.253   4
  -5  -1   4 39333.7 641.092   4
  -4  -1   4 3636.55 322.495   4
  -5   0   4 102.859 231.945   4
  -4   0   4 3441.84 277.902   4
  -3   0   4-15.4265 185.547   4
  -5   1   4 35703.4 566.755   4
  -4   1   4 3307.72 289.717   4
  -3   1   4 360.938 170.793   4
  -2   1   4 39683.3 380.688   4
  -1   1   4 82684.2 352.146   4
  -4   2   4 4202.44 289.042   4
  -3   2   4 47709.9 520.529   4
  -2   2   4 43923.8 389.927   4
  -3   3   4 123.582 155.156   4
  -2   3   4 1941.27 129.564   4
  -5  -4   5 292.327 256.486   4
  -5  -3   5 6902.57 335.581   4
  -4  -3   5 9455.28 412.045   4
  -5  -2   5 422.364 252.758   4
  -4  -2   5 202.418 323.089   4
  -5  -1   5 119.752 244.978   4
  -4  -1   5 1614.68 302.098   4
  -3  -1   5 75.7913 184.705   4
  -5   0   5 5260.84 301.711   4
  -4   0   5-332.109 229.690   4
  -3   0   5 32549.7 453.039   4
  -2   0   5-191.499 141.069   4
  -5   1   5 88.0766 201.589   4
  -4   1   5 1299.12 260.705   4
  -3   1   5 82.3337 144.681   4
  -2   1   5 34178.8 327.383   4
  -4   2   5 232.037 247.683   4
  -3   2   5 1441.05 169.788   4
  -2   2   5 40568.9 355.995   4
  -3   3   5 17422.2 303.720   4
  -4  -4   6 738.181 282.257   4
  -5  -3   6 1530.18 234.041   4
  -4  -3   6 5499.71 339.299   4
  -5  -2   6 11516.0 370.603   4
  -4  -2   6-230.822 244.829   4
  -5  -1   6 1049.32 231.641   4
  -4  -1   6 7400.00 317.156   4
  -3  -1   6 38841.0 500.436   4
  -2  -1   6 8041.63 210.342   4
  -5   0   6 324.478 200.619   4
  -4   0   6 5708.71 300.128   4
  -3   0   6-61.6107 152.756   4
  -2   0   6 27751.0 305.180   4
  -4   1   6 6880.36 292.534   4
  -3   1   6 33820.0 425.943   4
  -2   1   6 7591.28 177.474   4
  -4   2   6-16.5411 175.930   4
  -3   2   6 5570.39 199.546   4
  -4  -6   7 2879.77 292.667   4
  -4  -5   7 14596.0 421.880   4
  -4  -4   7 8795.57 356.843   4
  -4  -3   7-290.695 214.396   4
  -3  -3   7 7767.13 270.561   4
  -4  -2   7 120.301 214.341   4
  -3  -2   7 3763.26 216.930   4
  -4  -1   7-44.6610 204.991   4
  -3  -1   7 1540.38 159.346   4
  -4   0   7-55.9617 190.834   4
  -4   1   7-29.6178 180.950   4
  -4  -6  -8 171.478 88.3842   5
  -4  -8  -6-20.7315 112.002   5
  -5  -5  -6 1521.13 108.300   5
  -5  -4  -6 127.464 104.945   5
  -5  -3  -6 17.7711 114.154   5
  -5  -2  -6 117.418 117.543   5
  -5  -1  -6 3596.78 155.616   5
  -5   0  -6 91.0917 95.5618   5
  -4  -9  -5 491.546 126.841   5
  -4  -8  -5 1597.20 174.517   5
  -5  -6  -5 1725.28 136.568   5
  -5  -5  -5 149.667 130.814   5
  -5  -4  -5 87.4542 140.260   5
  -5  -3  -5 8291.98 251.478   5
  -5  -2  -5 4287.61 208.447   5
  -5  -1  -5 1519.59 161.705   5
  -5   0  -5 7503.04 229.258   5
  -5   1  -5 1369.15 143.759   5
  -4  -9  -4 4643.20 199.141   5
  -5  -8  -4 809.664 97.5261   5
  -4  -8  -4-50.7320 169.533   5
  -5  -7  -4 1758.00 150.069   5
  -5  -6  -4 399.195 151.443   5
  -5  -5  -4 1518.42 177.965   5
  -5  -4  -4 18875.3 379.564   5
  -5  -3  -4 1855.38 205.958   5
  -5  -2  -4 4272.50 236.704   5
  -5  -1  -4 163.357 169.157   5
  -5   0  -4 79.0746 153.927   5
  -5   1  -4 92.2179 148.612   5
  -4  -9  -3 118.989 152.219   5
  -5  -8  -3 76.1250 119.791   5
  -4  -8  -3 5189.13 270.993   5
  -5  -7  -3 4588.38 211.960   5
  -5  -6  -3 10887.1 308.457   5
  -5  -5  -3 16944.6 383.969   5
  -5  -4  -3 511.687 196.374   5
  -6  -3  -3 600.824 99.9649   5
  -5  -3  -3 20035.1 430.701   5
  -6  -2  -3 11102.9 193.714   5
  -5  -2  -3 1679.85 213.905   5
  -5  -1  -3 2245.75 222.619   5
  -5   0  -3 304.858 183.351   5
  -5   1  -3 2289.51 198.164   5
  -5  -9  -2 25.4614 99.5101   5
  -4  -9  -2 29.9296 190.322   5
  -5  -8  -2-96.9592 138.092   5
  -4  -8  -2 19746.0 430.641   5
  -5  -7  -2 2538.68 207.472   5
  -5  -6  -2 12.0345 179.418   5
  -6  -5  -2 2054.93 123.583   5
  -5  -5  -2 1933.79 233.810   5
  -6  -4  -2 1727.82 135.714   5
  -5  -4  -2 2347.71 243.586   5
  -6  -3  -2 8242.93 215.328   5
  -5  -3  -2 1477.52 235.413   5
  -6  -2  -2 6885.31 205.952   5
  -5  -2  -2 5524.72 298.662   5
  -6  -1  -2 11025.1 232.776   5
  -5  -1  -2 16709.9 408.769   5
  -6   0  -2 17719.1 259.414   5
  -5   0  -2-91.6763 176.261   5
  -5   1  -2 17162.1 383.484   5
  -5   2  -2 6011.84 250.288   5
  -5  -9  -1-20.7297 114.297   5
  -4  -9  -1 163.075 174.067   5
  -5  -8  -1 25150.9 399.578   5
  -4  -8  -1 3751.93 267.851   5
  -5  -7  -1-49.5403 185.449   5
  -4  -7  -1 7140.80 326.450   5
  -6  -6  -1 145.708 97.5086   5
  -5  -6  -1 2462.87 245.035   5
  -4  -6  -1 1990.72 252.525   5
  -6  -5  -1 2113.70 152.325   5
  -5  -5  -1 1127.85 227.802   5
  -6  -4  -1 834.374 149.247   5
  -5  -4  -1 1245.61 240.385   5
  -6  -3  -1 69.6185 144.526   5
  -5  -3  -1 1504.40 237.775   5
  -6  -2  -1-85.3580 142.359   5
  -5  -2  -1-160.409 195.470   5
  -6  -1  -1 372.719 135.840   5
  -5  -1  -1 118.787 197.466   5
  -6   0  -1-19.6212 126.236   5
  -5   0  -1 164155. 1142.30   5
  -6   1  -1 180.040 114.759   5
  -5   1  -1 51.8677 170.177   5
  -4   1  -1 2126.78 200.520   5
  -5   2  -1-44.8679 160.521   5
  -4   2  -1 3025.36 206.334   5
  -5  -9   0 2269.65 159.375   5
  -5  -8   0-146.462 158.251   5
  -4  -8   0 286.076 211.492   5
  -5  -7   0 3832.23 248.302   5
  -4  -7   0 3100.06 272.477   5
  -6  -6   0 5697.41 179.730   5
  -5  -6   0 1092.65 231.570   5
  -4  -6   0 126.990 217.164   5
  -6  -5   0 2644.01 170.226   5
  -5  -5   0 316.729 226.067   5
  -4  -5   0 6517.37 316.198   5
  -6  -4   0 5602.79 222.256   5
  -5  -4   0 1474.45 239.585   5
  -4  -4   0 3530.26 259.420   5
  -6  -3   0 4915.48 223.262   5
  -5  -3   0 6865.04 324.128   5
  -4  -3   0 2321.88 217.600   5
  -6  -2   0 5972.84 238.932   5
  -5  -2   0 25345.0 510.225   5
  -4  -2   0 2559.94 216.191   5
  -6  -1   0 2767.91 189.914   5
  -5  -1   0 14134.6 401.030   5
  -4  -1   0 6254.47 266.509   5
  -6   0   0 66145.7 575.848   5
  -5   0   0-43.5494 184.873   5
  -4   0   0 22437.4 409.091   5
  -6   1   0 2555.01 153.830   5
  -5   1   0 13712.1 361.514   5
  -4   1   0 6750.83 261.073   5
  -5   2   0 23618.1 417.795   5
  -4   2   0 2319.11 179.593   5
  -5  -9   1 820.770 139.218   5
  -5  -8   1 5838.81 252.553   5
  -4  -8   1 7700.89 311.796   5
  -6  -7   1 74.8818 88.4448   5
  -5  -7   1 1543.98 212.445   5
  -4  -7   1 5440.98 297.414   5
  -6  -6   1 1476.54 143.740   5
  -5  -6   1 2148.23 244.241   5
  -4  -6   1 1819.29 243.620   5
  -6  -5   1 601.746 150.919   5
  -5  -5   1 2825.19 268.830   5
  -4  -5   1 36.9533 220.162   5
  -6  -4   1 48.0421 153.127   5
  -5  -4   1 288.766 212.358   5
  -4  -4   1 5483.29 297.288   5
  -6  -3   1 2589.97 198.308   5
  -5  -3   1 47164.5 682.277   5
  -4  -3   1 207.545 175.558   5
  -6  -2   1 396.379 166.512   5
  -5  -2   1 39528.0 618.374   5
  -4  -2   1 93930.0 830.593   5
  -6  -1   1 1372.85 176.376   5
  -5  -1   1 3530.51 271.436   5
  -4  -1   1 18593.4 386.543   5
  -6   0   1-220.234 137.223   5
  -5   0   1 355.904 189.535   5
  -4   0   1-106.199 155.916   5
  -6   1   1 1229.76 143.044   5
  -5   1   1 3737.19 239.090   5
  -4   1   1 16947.3 353.141   5
  -6   2   1 322.389 110.899   5
  -5   2   1 35132.3 499.357   5
  -4   2   1 82649.9 686.723   5
  -5   3   1 41902.7 504.024   5
  -5  -8   2 8031.61 262.308   5
  -4  -8   2-200.388 201.710   5
  -6  -7   2 129.752 98.4803   5
  -5  -7   2 1065.51 211.242   5
  -4  -7   2 305.007 213.003   5
  -6  -6   2 4971.44 183.020   5
  -5  -6   2 886.391 229.907   5
  -4  -6   2 2492.63 261.892   5
  -6  -5   2 1072.73 154.950   5
  -5  -5   2 833.033 235.838   5
  -4  -5   2 5690.26 312.861   5
  -6  -4   2-209.090 148.701   5
  -5  -4   2 73950.2 832.153   5
  -4  -4   2 15281.1 401.320   5
  -6  -3   2 28.8290 151.958   5
  -5  -3   2 197.476 204.579   5
  -4  -3   2 15672.0 381.730   5
  -6  -2   2 14480.9 325.253   5
  -5  -2   2 1323.49 219.436   5
  -4  -2   2 298.379 177.491   5
  -6  -1   2 4828.14 218.367   5
  -5  -1   2 23802.3 482.877   5
  -4  -1   2 1397.44 181.391   5
  -6   0   2 4116.01 199.507   5
  -5   0   2 145.095 187.310   5
  -4   0   2 4077.99 223.206   5
  -6   1   2 3911.83 180.021   5
  -5   1   2 22520.6 441.262   5
  -4   1   2 1071.01 170.075   5
  -6   2   2 12932.6 244.003   5
  -5   2   2 1365.07 179.751   5
  -4   2   2 64.6448 134.555   5
  -5   3   2 38.1683 142.142   5
  -5  -8   3 1.43227 147.825   5
  -4  -8   3 7251.19 286.007   5
  -6  -7   3 395.217 110.138   5
  -5  -7   3 2327.13 219.623   5
  -4  -7   3 894.457 219.946   5
  -6  -6   3 559.928 129.874   5
  -5  -6   3 4295.89 266.398   5
  -4  -6   3 531.922 225.826   5
  -6  -5   3 2330.82 167.343   5
  -5  -5   3 20853.3 462.949   5
  -4  -5   3 64325.5 748.609   5
  -6  -4   3 13097.5 294.168   5
  -5  -4   3 2824.43 250.880   5
  -4  -4   3 82950.3 819.653   5
  -6  -3   3 353.590 152.514   5
  -5  -3   3-72.5008 190.835   5
  -4  -3   3 314.195 179.755   5
  -6  -2   3 346.406 149.924   5
  -5  -2   3-149.840 198.644   5
  -4  -2   3-50.4805 158.041   5
  -6  -1   3 123.240 143.529   5
  -5  -1   3 6423.34 288.801   5
  -4  -1   3 3700.19 227.252   5
  -6   0   3-48.3725 129.768   5
  -5   0   3 1631.49 210.101   5
  -4   0   3-67.6478 150.223   5
  -6   1   3 245.728 130.747   5
  -5   1   3 5684.43 250.559   5
  -4   1   3 3084.68 199.840   5
  -6   2   3 212.771 126.358   5
  -5   2   3-143.318 157.411   5
  -4   2   3-44.3293 132.747   5
  -5   3   3 8.95539 127.327   5
  -4   3   3 337.835 131.458   5
  -5  -8   4 13565.9 289.065   5
  -6  -7   4 2526.30 127.010   5
  -5  -7   4 3362.53 211.076   5
  -4  -7   4 523.566 204.434   5
  -6  -6   4 2887.41 162.829   5
  -5  -6   4 1112.22 196.707   5
  -4  -6   4 81544.8 809.945   5
  -6  -5   4 147.382 129.090   5
  -5  -5   4 34.3661 196.700   5
  -4  -5   4 14245.2 386.801   5
  -6  -4   4 1160.34 160.201   5
  -5  -4   4 24375.9 481.858   5
  -4  -4   4 3228.26 265.190   5
  -6  -3   4 10919.9 280.355   5
  -5  -3   4 254.515 189.706   5
  -4  -3   4 9451.33 314.830   5
  -6  -2   4 1045.75 160.845   5
  -5  -2   4 48.4541 181.763   5
  -4  -2   4 4584.90 239.013   5
  -6  -1   4 22.0951 138.499   5
  -5  -1   4 32654.5 518.702   5
  -4  -1   4 3305.43 212.141   5
  -6   0   4 466.350 138.772   5
  -5   0   4-95.0235 164.707   5
  -4   0   4 3132.54 201.644   5
  -6   1   4-8.04723 136.324   5
  -5   1   4 29850.5 454.677   5
  -4   1   4 3123.12 186.977   5
  -6   2   4 903.991 140.958   5
  -5   2   4-39.8794 145.359   5
  -4   2   4 3720.56 190.590   5
  -5   3   4 177.027 138.849   5
  -4   3   4 6122.47 205.661   5
  -5  -8   5 4299.90 201.979   5
  -5  -7   5 8466.30 271.293   5
  -4  -7   5 2620.72 219.841   5
  -6  -6   5 878.378 133.214   5
  -5  -6   5 4342.94 240.427   5
  -4  -6   5 12067.0 345.047   5
  -6  -5   5-59.2668 125.049   5
  -5  -5   5 3074.06 230.053   5
  -4  -5   5 658.594 189.470   5
  -6  -4   5 1718.30 168.190   5
  -5  -4   5 364.243 185.902   5
  -4  -4   5 5537.22 267.728   5
  -6  -3   5-23.1214 142.798   5
  -5  -3   5 5589.25 259.132   5
  -4  -3   5 8140.54 301.056   5
  -6  -2   5 4260.90 206.262   5
  -5  -2   5 429.796 170.216   5
  -4  -2   5-8.64197 157.076   5
  -6  -1   5 452.073 149.281   5
  -5  -1   5 256.145 156.486   5
  -4  -1   5 988.347 164.600   5
  -6   0   5-125.205 141.416   5
  -5   0   5 4361.79 228.328   5
  -4   0   5-152.969 137.142   5
  -6   1   5 373.531 126.956   5
  -5   1   5-85.9925 154.317   5
  -4   1   5 849.809 147.602   5
  -6   2   5 3917.98 175.677   5
  -5   2   5 315.001 159.840   5
  -4   2   5 62.4746 126.702   5
  -6   3   5-50.7905 108.267   5
  -5   3   5 4952.00 221.709   5
  -4   3   5 6051.15 217.535   5
  -5   4   5 169.691 129.405   5
  -4   4   5 4181.19 193.995   5
  -5  -7   6 66.9452 146.434   5
  -4  -7   6 2707.22 225.596   5
  -6  -6   6 787.753 117.781   5
  -5  -6   6 1300.33 185.006   5
  -4  -6   6 81029.2 785.318   5
  -3  -6   6 1637.65 201.116   5
  -6  -5   6 6374.20 199.263   5
  -5  -5   6 867.675 203.080   5
  -4  -5   6 3652.09 243.746   5
  -3  -5   6 342.016 174.020   5
  -6  -4   6 4367.24 195.355   5
  -5  -4   6 14134.9 362.480   5
  -4  -4   6 756.316 190.985   5
  -3  -4   6 30275.1 436.896   5
  -6  -3   6 269.667 142.675   5
  -5  -3   6 1741.28 202.664   5
  -4  -3   6 3983.25 238.641   5
  -3  -3   6 1849.23 172.199   5
  -6  -2   6 104.058 139.752   5
  -5  -2   6 9215.67 306.696   5
  -4  -2   6 84.5670 154.968   5
  -6  -1   6 6198.02 216.768   5
  -5  -1   6 1426.62 194.709   5
  -4  -1   6 5948.00 245.478   5
  -6   0   6 8517.58 243.625   5
  -5   0   6 25.9056 158.913   5
  -4   0   6 4763.58 219.021   5
  -6   1   6 5928.91 201.630   5
  -5   1   6 989.554 177.713   5
  -4   1   6 6453.92 248.434   5
  -6   2   6 81.2416 118.721   5
  -5   2   6 9051.28 276.029   5
  -4   2   6-71.3826 150.396   5
  -6   3   6 198.907 109.974   5
  -5   3   6 1648.28 169.197   5
  -4   3   6 4124.59 205.564   5
  -5   4   6 11935.8 274.432   5
  -4   4   6 611.818 157.665   5
  -3   4   6 26032.8 378.367   5
  -5  -7   7 544.969 163.870   5
  -4  -7   7 1007.36 204.909   5
  -5  -6   7 8576.73 274.156   5
  -4  -6   7 2740.42 242.454   5
  -3  -6   7 9529.91 313.964   5
  -6  -5   7 73.6767 112.818   5
  -5  -5   7 2265.37 204.540   5
  -4  -5   7 13806.1 372.361   5
  -3  -5   7 40329.2 552.222   5
  -6  -4   7-63.4413 124.887   5
  -5  -4   7 4.65934 179.419   5
  -4  -4   7 7881.32 304.946   5
  -3  -4   7 4781.76 241.899   5
  -6  -3   7 144.826 135.070   5
  -5  -3   7 1717.38 215.647   5
  -4  -3   7 25.2982 185.195   5
  -3  -3   7 6686.29 265.782   5
  -6  -2   7 715.997 144.829   5
  -5  -2   7 1770.69 205.168   5
  -4  -2   7 58.5330 166.777   5
  -3  -2   7 3263.87 210.062   5
  -6  -1   7 1069.01 148.721   5
  -5  -1   7-32.7060 172.327   5
  -4  -1   7-150.725 163.868   5
  -3  -1   7 1794.37 177.875   5
  -6   0   7-31.2820 133.585   5
  -5   0   7 29492.2 469.999   5
  -4   0   7 73.1404 152.722   5
  -3   0   7 16896.4 342.737   5
  -6   1   7 814.501 137.465   5
  -5   1   7 240.099 159.289   5
  -4   1   7-62.8267 155.964   5
  -3   1   7 1760.48 167.143   5
  -6   2   7 554.293 125.335   5
  -5   2   7 1462.46 180.647   5
  -4   2   7 156.579 164.503   5
  -3   2   7 2643.15 188.157   5
  -6   3   7 11.6516 101.450   5
  -5   3   7 1464.12 167.599   5
  -4   3   7-90.4396 153.791   5
  -3   3   7 6474.82 243.218   5
  -5   4   7 182.972 137.561   5
  -4   4   7 6733.93 256.688   5
  -3   4   7 4104.11 215.956   5
  -4   5   7 12256.0 303.683   5
  -3   5   7 37865.6 505.874   5
  -5  -6   8 1765.09 180.194   5
  -4  -6   8 2091.28 234.231   5
  -5  -5   8 595.326 188.802   5
  -4  -5   8 1193.61 220.285   5
  -3  -5   8 17599.6 414.870   5
  -6  -4   8 1251.27 122.737   5
  -5  -4   8 379.130 182.894   5
  -4  -4   8 9365.13 336.837   5
  -3  -4   8 61220.8 703.354   5
  -2  -4   8 6118.62 281.035   5
  -6  -3   8 193.010 117.070   5
  -5  -3   8 700.344 182.580   5
  -4  -3   8 879.954 218.726   5
  -3  -3   8 1318.02 206.362   5
  -2  -3   8 1807.39 212.403   5
  -6  -2   8 2646.63 160.198   5
  -5  -2   8 20.1817 170.628   5
  -4  -2   8 322.743 182.783   5
  -3  -2   8 4454.90 256.547   5
  -2  -2   8 14098.6 356.915   5
  -6  -1   8 483.698 133.375   5
  -5  -1   8 13005.9 341.637   5
  -4  -1   8 6037.34 280.206   5
  -3  -1   8 10245.6 309.335   5
  -2  -1   8 5207.19 224.900   5
  -6   0   8 2040.92 147.509   5
  -5   0   8 50.4374 170.697   5
  -4   0   8 2805.92 228.893   5
  -3   0   8 67.5057 159.711   5
  -2   0   8 1146.16 102.000   5
  -6   1   8 355.785 127.798   5
  -5   1   8 12239.9 323.067   5
  -4   1   8 6107.31 268.391   5
  -3   1   8 8704.98 288.649   5
  -2   1   8 4601.74 208.569   5
  -1   1   8 36861.9 559.273   5
  -6   2   8 2632.78 145.047   5
  -5   2   8 69.9193 153.856   5
  -4   2   8 285.590 173.631   5
  -3   2   8 4563.68 235.782   5
  -1   2   8 18045.2 429.555   5
  -5   3   8 595.456 152.009   5
  -4   3   8 1026.52 194.431   5
  -3   3   8 824.069 176.383   5
  -1   3   8 1873.90 232.629   5
  -5   4   8 424.055 145.521   5
  -4   4   8 8270.96 285.822   5
  -3   4   8 59704.4 683.548   5
  -1   4   8 1284.88 239.535   5
  -4   5   8 1014.46 182.377   5
  -3   5   8 16529.7 385.783   5
  -2   5   8 474.658 81.1815   5
  -3   6   8 459.283 136.558   5
  -2   6   8 7803.72 286.986   5
  -5  -6   9 10.3221 147.302   5
  -4  -6   9 84.3882 184.103   5
  -5  -5   9 2098.76 192.946   5
  -4  -5   9 585.227 213.388   5
  -3  -5   9 58.7214 227.806   5
  -5  -4   9 3423.57 212.137   5
  -4  -4   9 97.0004 199.748   5
  -3  -4   9-92.5015 220.258   5
  -2  -4   9 5167.22 330.156   5
  -5  -3   9 8210.39 278.839   5
  -4  -3   9 2785.42 250.624   5
  -3  -3   9 27082.5 524.740   5
  -2  -3   9 5986.33 346.125   5
  -1  -3   9 10796.2 418.474   5
  -5  -2   9 5972.70 252.389   5
  -4  -2   9 16210.2 412.275   5
  -3  -2   9 737.275 210.346   5
  -2  -2   9 7361.92 344.416   5
  -1  -2   9 4799.27 349.200   5
  -6  -1   9-37.8173 116.004   5
  -5  -1   9 383.526 171.209   5
  -4  -1   9 2316.06 237.120   5
  -3  -1   9 50.3094 196.176   5
  -2  -1   9 29559.2 556.203   5
  -1  -1   9 137.532 226.751   5
  -6   0   9-16.7023 109.736   5
  -5   0   9 903.245 177.641   5
  -4   0   9 71.3958 192.984   5
  -3   0   9 168.086 187.370   5
  -2   0   9 96.5776 175.679   5
  -1   0   9 53538.2 766.226   5
  -5   1   9 276.219 163.285   5
  -4   1   9 2317.43 225.519   5
  -3   1   9 89.3435 179.943   5
  -1   1   9 448.870 247.392   5
  -5   2   9 5899.01 239.076   5
  -4   2   9 13847.4 368.654   5
  -3   2   9 277.702 116.969   5
  -1   2   9 4361.96 313.917   5
  -5   3   9 8445.40 267.878   5
  -4   3   9 2602.34 227.775   5
  -3   3   9 13188.7 361.239   5
  -5   4   9 3186.81 184.343   5
  -4   4   9-8.77594 176.807   5
  -3   4   9 193.676 286.702   5
  -2   4   9 3633.05 244.036   5
  -4   5   9 580.138 166.242   5
  -2   5   9 6083.09 277.491   5
  -5  -5  10 1263.98 140.185   5
  -4  -5  10 5180.49 269.269   5
  -3  -5  10 3908.45 295.729   5
  -5  -4  10 508.429 161.612   5
  -4  -4  10 1812.40 249.287   5
  -3  -4  10 217.165 249.177   5
  -2  -4  10 2097.65 291.228   5
  -5  -3  10 2404.11 204.017   5
  -4  -3  10 11773.9 385.684   5
  -3  -3  10 4186.58 308.480   5
  -2  -3  10 20913.7 507.161   5
  -5  -2  10 5400.47 243.676   5
  -4  -2  10 1385.20 230.685   5
  -3  -2  10 22857.9 522.652   5
  -2  -2  10 15042.4 438.828   5
  -5  -1  10 1995.05 196.733   5
  -4  -1  10 494.733 221.237   5
  -3  -1  10 7966.31 341.099   5
  -2  -1  10 124.521 239.057   5
  -5   0  10 125.929 168.855   5
  -4   0  10 434.757 218.718   5
  -3   0  10-33.9515 218.838   5
  -2   0  10 25062.8 517.516   5
  -5   1  10 1907.58 192.447   5
  -4   1  10 543.636 222.071   5
  -3   1  10 10199.2 359.651   5
  -2   1  10-10.8937 235.963   5
  -5   2  10 5378.78 216.345   5
  -4   2  10 899.952 214.843   5
  -2   2  10 15676.7 435.066   5
  -5   3  10 1846.01 164.544   5
  -4   3  10 9932.94 315.981   5
  -2   3  10 7946.53 313.651   5
  -5   4  10 442.309 128.515   5
  -4   4  10 1372.43 191.011   5
  -2   4  10 1088.94 195.141   5
  -4   5  10 3633.33 210.218   5
  -4  -5  11 4193.55 221.250   5
  -3  -5  11 457.409 209.364   5
  -4  -4  11-165.500 196.433   5
  -3  -4  11 1230.07 251.007   5
  -4  -3  11 122.914 187.264   5
  -3  -3  11 7.89684 119.895   5
  -5  -2  11 386.750 141.168   5
  -4  -2  11 78.8902 188.152   5
  -3  -2  11 4514.85 301.283   5
  -2  -2  11 570.556 242.833   5
  -5  -1  11 865.495 149.596   5
  -4  -1  11 6210.82 277.539   5
  -3  -1  11 335.505 242.848   5
  -2  -1  11-171.331 257.181   5
  -5   0  11 23.8530 141.197   5
  -4   0  11-50.8165 190.614   5
  -3   0  11 12402.1 361.440   5
  -2   0  11-115.468 246.155   5
  -5   1  11 712.944 138.765   5
  -4   1  11 5715.27 260.400   5
  -3   1  11 114.391 149.802   5
  -2   1  11 36.1581 244.483   5
  -5   2  11 193.364 122.419   5
  -4   2  11 216.524 183.396   5
  -4   3  11 39.3931 135.241   5
  -4  -2  12 3564.10 217.938   5
  -4  -1  12 126.618 164.624   5
  -4   0  12 9126.58 278.220   5
   0  11 -10 207.987 185.593   6
  -1   9  -9-76.5340 252.015   6
  -1  10  -9 8578.36 351.400   6
  -1  11  -9 5027.09 262.935   6
  -2   9  -8 16123.3 408.546   6
  -2  10  -8-274.849 198.178   6
  -2  11  -8 91.0729 164.155   6
  -1  11  -8 5538.57 369.362   6
  -1  12  -8 2850.26 293.750   6
  -1  13  -8 2859.04 213.321   6
   0  14  -8 942.928 189.228   6
  -2   7  -7 24655.1 609.363   6
  -2   8  -7 3714.25 374.187   6
  -2   9  -7 5118.25 388.256   6
  -2  10  -7-122.930 282.657   6
  -2  11  -7 636.722 265.943   6
  -2  12  -7 869.632 220.187   6
  -1  12  -7-212.347 325.289   6
  -2  13  -7 134.524 140.827   6
  -1  13  -7 10646.3 391.905   6
  -1  14  -7 9948.55 292.002   6
   0  14  -7 1171.73 273.735   6
  -2   6  -6 147459. 1343.35   6
  -3   7  -6 5348.57 328.713   6
  -2   7  -6 10721.9 514.533   6
  -3   8  -6 1210.94 273.659   6
  -2   8  -6 48418.8 891.136   6
  -3   9  -6 2465.15 272.680   6
  -2   9  -6 86.1648 350.962   6
  -3  10  -6 3668.53 259.477   6
  -2  10  -6 1497.63 371.337   6
  -3  11  -6 408.984 191.415   6
  -2  11  -6 2782.76 361.030   6
  -3  12  -6-176.751 134.085   6
  -2  12  -6 300.968 282.369   6
  -2  13  -6 277.589 217.401   6
  -1  13  -6 99.2845 285.572   6
  -2  14  -6 3278.97 181.315   6
  -1  14  -6 3889.71 306.055   6
  -1  15  -6 416.873 155.017   6
   0  15  -6 4286.98 251.327   6
   1  15  -6 283.327 186.724   6
  -3   6  -5 71477.0 913.353   6
  -3   7  -5 5142.82 375.023   6
  -4   8  -5 1601.38 188.074   6
  -3   8  -5 4092.93 370.927   6
  -2   8  -5 6368.23 456.235   6
  -4   9  -5 557.091 157.776   6
  -3   9  -5 1252.01 314.918   6
  -2   9  -5 47859.7 916.754   6
  -4  10  -5 1040.52 137.078   6
  -3  10  -5 552.161 268.214   6
  -2  10  -5 5872.80 478.596   6
  -3  11  -5 193.306 234.191   6
  -2  11  -5 529.715 372.394   6
  -3  12  -5 228.044 194.089   6
  -2  12  -5 3895.58 371.664   6
  -3  13  -5 500.815 155.266   6
  -2  13  -5 339.710 277.869   6
  -1  13  -5 3137.82 370.016   6
  -2  14  -5-86.3711 203.978   6
  -1  14  -5 290.191 268.202   6
  -1  15  -5 783.335 210.859   6
   0  15  -5 2550.06 259.070   6
  -3   5  -4 1065.13 299.913   6
  -4   6  -4 4790.28 305.159   6
  -3   6  -4 247.336 311.027   6
  -4   7  -4 120.577 228.050   6
  -3   7  -4 8032.64 456.185   6
  -4   8  -4 51.1561 217.678   6
  -3   8  -4 2683.08 377.419   6
  -4   9  -4 4791.64 283.414   6
  -3   9  -4 7805.53 458.952   6
  -2   9  -4 22274.7 679.864   6
  -4  10  -4 3967.63 240.244   6
  -3  10  -4 1132.45 311.764   6
  -2  10  -4 2407.18 382.950   6
  -4  11  -4 1061.58 158.598   6
  -3  11  -4 478.888 293.221   6
  -2  11  -4 5751.85 442.703   6
  -3  12  -4 145.428 227.564   6
  -2  12  -4 1076.10 370.473   6
  -3  13  -4 16.8925 185.499   6
  -2  13  -4 7114.29 393.660   6
  -1  13  -4 13537.2 545.843   6
  -2  14  -4-44.4974 226.490   6
  -1  14  -4 157.169 279.149   6
  -2  15  -4 59.4690 140.337   6
  -1  15  -4 172.412 214.855   6
   0  15  -4 116.915 219.701   6
   1  15  -4-76.9982 186.561   6
  -4   4  -3 1455.04 256.630   6
  -4   5  -3 1448.76 285.522   6
  -3   5  -3 7262.27 403.864   6
  -4   6  -3 1010.84 275.331   6
  -3   6  -3 2564.84 391.857   6
  -4   7  -3 160.127 268.293   6
  -3   7  -3 4116.67 400.548   6
  -4   8  -3 5861.64 358.097   6
  -3   8  -3 2162.66 412.954   6
  -4   9  -3-0.49471 241.189   6
  -3   9  -3 8110.46 493.145   6
  -2   9  -3 8847.09 488.814   6
  -4  10  -3-150.608 230.990   6
  -3  10  -3 1935.90 368.509   6
  -2  10  -3 5648.36 450.676   6
  -4  11  -3 89.3993 187.979   6
  -3  11  -3 1358.75 328.112   6
  -2  11  -3 5159.48 414.399   6
  -4  12  -3 123.362 146.235   6
  -3  12  -3 10720.5 400.825   6
  -2  12  -3 31361.3 746.039   6
  -3  13  -3 2953.43 264.848   6
  -2  13  -3 570.193 285.759   6
  -1  13  -3 262.301 307.538   6
  -3  14  -3 1675.95 179.719   6
  -2  14  -3 8802.11 350.438   6
  -1  14  -3 5587.31 355.233   6
  -2  15  -3 1112.89 179.802   6
  -1  15  -3 5437.82 275.908   6
   0  15  -3 545.173 214.413   6
  -4   3  -2 9031.66 374.018   6
  -4   4  -2 3065.30 312.817   6
  -5   5  -2 2229.33 229.391   6
  -4   5  -2 1815.22 320.882   6
  -5   6  -2 96.9593 185.552   6
  -4   6  -2 22083.2 574.967   6
  -3   6  -2 4226.05 363.559   6
  -5   7  -2 2187.94 219.074   6
  -4   7  -2 23.1603 314.661   6
  -3   7  -2 264.509 372.782   6
  -5   8  -2 254.304 168.983   6
  -4   8  -2 21071.0 578.061   6
  -3   8  -2 2235.69 338.773   6
  -2   8  -2 57811.7 886.485   6
  -5   9  -2 76.0949 142.553   6
  -4   9  -2 386.476 271.803   6
  -3   9  -2 2614.26 352.849   6
  -2   9  -2 10101.9 470.585   6
  -4  10  -2-102.134 253.338   6
  -3  10  -2 291.831 323.814   6
  -2  10  -2 13843.4 560.693   6
  -4  11  -2 451.716 211.324   6
  -3  11  -2-214.203 286.519   6
  -2  11  -2 2116.35 380.603   6
  -4  12  -2 11065.8 296.018   6
  -3  12  -2 1647.60 295.306   6
  -2  12  -2 4039.00 400.864   6
  -4  13  -2 584.478 123.731   6
  -3  13  -2 2421.62 270.869   6
  -2  13  -2 923.438 294.764   6
  -1  13  -2 4990.58 376.076   6
  -3  14  -2 4092.45 224.570   6
  -2  14  -2-219.818 231.919   6
  -1  14  -2 7309.18 366.076   6
   0  14  -2 12753.9 412.078   6
  -2  15  -2 974.039 178.103   6
  -1  15  -2 381.712 193.674   6
  -4   2  -1 3858.42 283.325   6
  -4   3  -1-225.552 258.730   6
  -5   4  -1 1355.71 245.562   6
  -4   4  -1-145.623 303.724   6
  -5   5  -1 1246.75 252.906   6
  -4   5  -1 40638.3 734.151   6
  -5   6  -1 1673.12 240.611   6
  -4   6  -1 1811.72 351.515   6
  -3   6  -1 14517.7 501.409   6
  -5   7  -1-45.5708 203.882   6
  -4   7  -1 6629.55 400.643   6
  -3   7  -1-276.346 300.139   6
  -5   8  -1 21018.5 424.026   6
  -4   8  -1 3610.55 336.601   6
  -3   8  -1 14519.7 544.680   6
  -5   9  -1 146.477 178.205   6
  -4   9  -1 270.175 304.538   6
  -3   9  -1 17858.5 590.330   6
  -2   9  -1 25571.8 645.948   6
  -5  10  -1 379.792 151.094   6
  -4  10  -1-111.370 240.670   6
  -3  10  -1 748.737 327.931   6
  -2  10  -1 30536.2 710.084   6
  -4  11  -1 1413.10 266.075   6
  -3  11  -1 8063.33 439.057   6
  -2  11  -1 8360.43 472.200   6
  -4  12  -1 661.854 187.906   6
  -3  12  -1 6126.66 363.933   6
  -2  12  -1-165.383 306.846   6
  -1  12  -1 12010.3 462.939   6
  -4  13  -1 303.274 129.457   6
  -3  13  -1 823.140 226.091   6
  -2  13  -1 1048.28 296.378   6
  -1  13  -1 37606.7 681.506   6
  -3  14  -1 355.201 173.780   6
  -2  14  -1 71.9993 203.703   6
  -1  14  -1 15115.2 422.705   6
  -2  15  -1 74.2745 150.146   6
  -4   1   0 7277.15 317.679   6
  -4   2   0 2924.23 271.390   6
  -4   3   0 2508.12 286.343   6
  -5   4   0 1589.45 278.324   6
  -4   4   0 3808.22 328.447   6
  -5   5   0 100.745 251.004   6
  -4   5   0 6547.09 418.208   6
  -5   6   0 1013.55 252.054   6
  -4   6   0 729.752 326.636   6
  -5   7   0 3684.63 290.310   6
  -4   7   0 3070.13 372.419   6
  -3   7   0 15399.7 503.726   6
  -5   8   0-58.1858 212.972   6
  -4   8   0 372.737 307.754   6
  -3   8   0 1076.75 319.076   6
  -5   9   0 2619.60 234.476   6
  -4   9   0 18743.2 553.739   6
  -3   9   0 18242.4 567.580   6
  -2   9   0 18004.5 537.125   6
  -5  10   0 2136.44 185.778   6
  -4  10   0 2818.40 313.860   6
  -3  10   0 597.986 291.603   6
  -2  10   0 3342.65 381.290   6
  -4  11   0-103.441 213.186   6
  -3  11   0 14845.4 499.627   6
  -2  11   0 15815.2 525.010   6
  -1  11   0 9941.88 397.720   6
  -4  12   0 1506.95 210.071   6
  -3  12   0 567.016 273.247   6
  -2  12   0 3458.67 318.607   6
  -1  12   0 2566.63 290.791   6
  -4  13   0 3267.69 181.104   6
  -3  13   0 455.524 222.687   6
  -2  13   0 1994.97 269.163   6
  -1  13   0 7064.45 338.319   6
  -3  14   0-33.0337 156.197   6
  -2  14   0 46.2161 184.727   6
  -4   1   1 18299.7 454.394   6
  -4   2   1 97051.5 956.771   6
  -4   3   1 294.721 267.196   6
  -4   4   1 6069.58 395.334   6
  -5   5   1 2670.84 319.534   6
  -4   5   1 131.519 287.362   6
  -5   6   1 2045.93 298.662   6
  -4   6   1 1808.30 287.087   6
  -5   7   1 1120.92 251.691   6
  -4   7   1 4491.62 366.238   6
  -3   7   1-60.0394 255.675   6
  -5   8   1 4891.23 288.848   6
  -4   8   1 7014.94 402.149   6
  -3   8   1 13805.1 484.880   6
  -5   9   1 740.305 199.367   6
  -4   9   1 3742.43 322.972   6
  -3   9   1 18294.3 536.120   6
  -2   9   1 1405.44 299.284   6
  -4  10   1 35578.0 645.995   6
  -3  10   1 3557.94 338.961   6
  -2  10   1 2065.18 319.042   6
  -4  11   1 150.846 207.336   6
  -3  11   1 2862.64 304.043   6
  -2  11   1 2190.73 301.737   6
  -4  12   1 2952.98 216.671   6
  -3  12   1 4106.78 303.515   6
  -2  12   1 63.5557 226.384   6
  -4  13   1 576.579 137.769   6
  -3  13   1 305.555 187.031   6
  -2  13   1 1176.03 215.631   6
  -3  14   1 950.111 148.136   6
  -4   2   2 161.426 267.564   6
  -4   3   2 16586.9 459.848   6
  -4   4   2 14917.1 462.654   6
  -4   5   2 6013.05 352.358   6
  -5   6   2 1067.05 291.971   6
  -4   6   2 2355.09 324.128   6
  -5   7   2 1388.15 269.236   6
  -4   7   2 312.108 248.693   6
  -3   7   2 26184.6 579.109   6
  -5   8   2 7422.76 338.524   6
  -4   8   2 136.900 250.016   6
  -3   8   2 6762.18 383.069   6
  -4   9   2 17031.7 493.325   6
  -3   9   2 10755.9 427.424   6
  -2   9   2 1951.37 241.661   6
  -4  10   2 4598.19 309.338   6
  -3  10   2 833.545 262.397   6
  -2  10   2 1560.29 247.516   6
  -4  11   2 2185.58 220.430   6
  -3  11   2 355.737 231.836   6
  -2  11   2 859.632 223.571   6
  -4  12   2 11375.2 288.345   6
  -3  12   2 8570.00 314.483   6
  -3  13   2 65.8831 149.071   6
  -4   3   3 308.266 275.437   6
  -4   4   3 85602.2 978.724   6
  -4   5   3 61462.7 835.588   6
  -4   6   3 875.673 256.513   6
  -4   7   3 691.108 270.025   6
  -3   7   3 4887.71 319.076   6
  -4   8   3 5639.01 343.237   6
  -3   8   3 29030.2 576.670   6
  -4   9   3 13525.7 419.433   6
  -3   9   3 8530.66 370.015   6
  -4  10   3 1803.29 230.480   6
  -3  10   3 786.767 224.555   6
  -4  11   3 973.320 188.472   6
  -3  11   3 221.873 192.258   6
  -3  12   3 8421.40 263.509   6
  -4   5   4 15228.0 462.999   6
  -4   6   4 78791.3 937.008   6
  -3   6   4 8856.25 332.649   6
  -4   7   4 1051.62 260.851   6
  -3   7   4-56.2225 197.892   6
  -4   8   4 38639.8 641.553   6
  -3   8   4 514.427 224.298   6
  -4   9   4 29458.4 536.574   6
  -3   9   4 7268.78 304.759   6
  -4  10   4 1389.13 207.737   6
  -3  10   4 6477.48 270.739   6
  -3   6   5 123484. 978.786   6
  -3   7   5 14571.7 379.377   6
   1   3   7 1607.83 302.902   7
   1   4   7 1054.11 333.573   7
  -1   5   7 8318.53 348.364   7
   0   5   7 3236.99 325.680   7
   1   5   7 5768.89 397.638   7
  -2   6   7 576.816 208.355   7
  -1   6   7 7235.59 372.479   7
   0   6   7 635.535 282.711   7
   1  -1   8 2722.45 292.951   7
   0   0   8 42848.7 633.294   7
   1   0   8 16.7891 265.295   7
  -3   1   8 13707.0 385.131   7
   0   1   8 208.859 240.714   7
   1   1   8 3323.46 332.966   7
  -2   2   8 14184.0 399.151   7
  -1   2   8 19071.9 445.633   7
   0   2   8 3129.35 310.138   7
   1   2   8-41.9981 299.954   7
  -2   3   8 1896.86 239.772   7
  -1   3   8 2050.07 255.898   7
   0   3   8 12422.6 437.907   7
   1   3   8 11103.2 473.711   7
  -2   4   8 3994.75 273.101   7
   0   4   8-29.6422 286.889   7
   1   4   8 2591.92 363.284   7
  -1   5   8 3635.54 320.791   7
   0   5   8 9894.97 453.021   7
  -1   6   8 1851.97 290.283   7
   0   6   8 63135.4 930.060   7
   0  -1   9 11557.2 412.328   7
   1  -1   9 20214.1 513.719   7
  -3   0   9-14.7112 228.279   7
   0   0   9 92.6657 254.470   7
   1   0   9 7530.68 403.403   7
  -3   1   9 245.828 239.619   7
  -2   1   9 43488.7 666.841   7
  -1   1   9 598.284 241.350   7
   0   1   9 12658.4 466.069   7
   1   1   9 20465.7 534.833   7
  -3   2   9 1082.95 265.033   7
  -2   2   9 8290.94 381.733   7
  -1   2   9 4377.51 312.055   7
   0   2   9 2170.84 343.619   7
   1   2   9 5027.14 381.140   7
  -2   3   9 5300.03 344.798   7
  -1   3   9 8818.66 396.148   7
   0   3   9 325.749 319.244   7
   1   3   9-295.308 293.817   7
  -2   4   9 4974.23 335.572   7
  -1   4   9 678.435 290.402   7
   0   4   9-20.5203 282.590   7
   1   4   9 668.954 309.130   7
  -1   5   9 3827.64 312.764   7
   0   5   9 1090.93 318.081   7
  -1   6   9 861.307 293.604   7
   0  -4  10 1030.17 277.660   7
  -4  -3  10 12482.7 346.703   7
   0  -3  10 3214.13 298.876   7
   0  -2  10 6201.32 359.379   7
  -3  -1  10 11020.3 394.257   7
   0  -1  10 4324.53 331.763   7
   1  -1  10 4284.43 320.864   7
  -3   0  10 190.845 228.980   7
  -2   0  10 63957.7 812.050   7
  -1   0  10 311.707 263.791   7
   0   0  10 32647.3 650.269   7
   1   0  10 191.504 262.753   7
  -3   1  10 11534.0 408.167   7
  -2   1  10-127.991 258.112   7
  -1   1  10 3826.07 312.514   7
   0   1  10 4322.71 365.566   7
   1   1  10 4076.56 334.214   7
  -3   2  10 27536.1 561.806   7
  -2   2  10 17735.2 496.877   7
  -1   2  10 70.1670 283.270   7
   0   2  10 5341.03 380.610   7
   1   2  10 4625.36 351.390   7
  -3   3  10 3872.19 302.140   7
  -2   3  10 20991.5 551.792   7
  -1   3  10 10035.4 421.597   7
   0   3  10 3390.36 337.423   7
  -3   4  10 309.147 225.873   7
  -2   4  10 1928.46 293.619   7
  -1   4  10 697.740 292.484   7
   0   4  10 500.077 289.888   7
  -2   5  10 1268.66 275.939   7
  -1   5  10 671.453 293.578   7
   0   5  10 4068.26 347.477   7
  -1   6  10 93.1074 302.439   7
  -4  -6  11 1140.93 170.174   7
   0  -6  11 742.386 226.247   7
  -4  -5  11 4589.65 229.165   7
   0  -5  11 2950.05 274.917   7
  -4  -4  11 294.945 177.469   7
   0  -4  11-82.8923 243.277   7
  -4  -3  11-68.6258 183.474   7
  -3  -3  11 383.352 234.277   7
  -1  -3  11 11666.1 426.630   7
   0  -3  11 12.9445 257.263   7
  -3  -2  11 4281.23 294.382   7
  -2  -2  11 881.490 263.112   7
  -1  -2  11 3367.01 302.592   7
   0  -2  11 10072.6 395.731   7
  -3  -1  11 452.951 247.299   7
  -2  -1  11 335.271 273.963   7
  -1  -1  11 13276.1 450.579   7
   0  -1  11 63.3305 259.642   7
  -3   0  11 36649.6 610.440   7
  -2   0  11-204.544 273.407   7
  -1   0  11 63631.4 852.972   7
   0   0  11-210.190 268.871   7
   1   0  11 6086.11 311.305   7
  -3   1  11-20.0872 246.160   7
  -2   1  11 306.822 295.658   7
  -1   1  11 14528.0 474.339   7
   0   1  11 39.7001 264.797   7
   1   1  11 241.711 231.019   7
  -3   2  11 4596.86 303.548   7
  -2   2  11 583.574 282.982   7
  -1   2  11 3447.61 351.261   7
   0   2  11 10282.0 416.440   7
  -3   3  11-19.3805 211.854   7
  -2   3  11 12819.4 443.227   7
  -1   3  11 11630.5 434.247   7
   0   3  11-333.862 280.337   7
  -3   4  11 1055.25 218.602   7
  -2   4  11 1693.22 266.085   7
  -1   4  11 1997.49 299.423   7
   0   4  11-118.311 254.425   7
  -2   5  11 383.478 288.719   7
  -1   5  11 5965.55 352.507   7
  -2  -8  12 1455.17 178.878   7
  -1  -8  12 152.172 148.870   7
  -3  -7  12 7123.47 239.670   7
  -2  -7  12 553.673 195.196   7
  -1  -7  12 302.316 185.480   7
  -3  -6  12 852.028 193.288   7
  -2  -6  12 577.184 208.321   7
  -1  -6  12 144.955 202.593   7
  -3  -5  12 9531.26 307.441   7
  -2  -5  12 5161.43 292.179   7
  -1  -5  12 912.740 226.548   7
   0  -5  12 7340.38 259.802   7
  -3  -4  12 4067.94 257.491   7
  -2  -4  12 757.139 225.507   7
  -1  -4  12 2502.38 261.216   7
   0  -4  12 3902.10 255.252   7
  -3  -3  12 726.301 211.411   7
  -2  -3  12 6674.83 319.620   7
  -1  -3  12 22.4484 248.285   7
   0  -3  12 8361.37 322.260   7
  -3  -2  12 799.940 225.616   7
  -2  -2  12 5869.46 335.859   7
  -1  -2  12 2127.57 272.158   7
   0  -2  12 2450.59 264.918   7
  -3  -1  12 5515.57 291.017   7
  -2  -1  12 3338.17 305.660   7
  -1  -1  12 14.9977 263.035   7
   0  -1  12 5230.29 292.709   7
  -3   0  12-111.398 209.186   7
  -2   0  12 29560.8 557.714   7
  -1   0  12-69.1332 241.641   7
   0   0  12 2671.09 266.412   7
  -3   1  12 5588.42 282.240   7
  -2   1  12 3353.35 289.382   7
  -1   1  12 235.336 265.418   7
   0   1  12 5079.50 299.556   7
  -3   2  12 826.982 198.768   7
  -2   2  12 5968.23 330.711   7
  -1   2  12 2065.42 278.258   7
   0   2  12 2263.76 258.753   7
  -3   3  12 386.295 180.882   7
  -2   3  12 6595.75 325.162   7
  -1   3  12-152.643 222.271   7
  -2   4  12 754.094 221.464   7
  -1   4  12 2928.31 266.681   7
  -2  -6  13 679.914 157.851   7
  -2  -5  13 346.062 173.743   7
  -1  -5  13 234.287 161.793   7
  -3  -4  13 2192.89 176.852   7
  -2  -4  13 970.708 195.495   7
  -1  -4  13 1507.37 197.822   7
  -3  -3  13 7345.26 240.705   7
  -2  -3  13-119.986 202.873   7
  -1  -3  13 7198.33 274.500   7
  -3  -2  13 157.583 167.721   7
  -2  -2  13 554.562 220.611   7
  -1  -2  13 3199.50 244.635   7
   0  -2  13 4573.62 197.183   7
  -3  -1  13 3055.60 202.443   7
  -2  -1  13 581.610 209.776   7
  -1  -1  13 17335.9 382.880   7
   0  -1  13 216.030 157.693   7
  -3   0  13 11198.7 272.659   7
  -2   0  13 77.4708 200.713   7
  -1   0  13 1566.95 233.632   7
  -3   1  13 2754.84 185.740   7
  -2   1  13 737.780 205.249   7
  -1   1  13 16515.8 373.089   7
  -2   2  13 301.240 198.234   7
  -1   2  13 2831.39 229.568   7
   0   8  -5 28507.9 511.661   8
   0   9  -5 8897.20 358.110   8
  -1   8  -4 22639.5 455.092   8
  -1   9  -4 23757.4 502.422   8
   0   9  -4 1534.67 212.838   8
  -1  10  -4 19467.8 491.068   8
   0  10  -4 14414.3 410.964   8
   1  10  -4 4474.23 263.279   8
  -1  11  -4 2910.39 294.010   8
   0  11  -4 2570.40 281.414   8
   1  11  -4 2260.86 249.737   8
  -1  12  -4 19951.5 537.209   8
   0  12  -4 76.4950 247.346   8
   1  12  -4 6022.68 321.091   8
   0  13  -4 328.751 253.575   8
  -2   8  -3-160.742 176.890   8
  -2   9  -3 7887.12 338.221   8
  -1   9  -3 33901.8 542.619   8
  -2  10  -3 4795.38 312.623   8
  -1  10  -3 11881.8 378.618   8
   0  10  -3 26304.5 498.607   8
   1  10  -3 14629.2 364.106   8
  -2  11  -3 4712.75 328.133   8
  -1  11  -3 31787.5 605.808   8
   0  11  -3 19795.5 475.596   8
   1  11  -3 2471.86 243.647   8
  -1  12  -3 22200.3 537.182   8
   0  12  -3 9493.26 375.658   8
   1  12  -3 665.745 229.023   8
  -1  13  -3-68.1119 251.458   8
   0  13  -3 1308.28 260.896   8
   1  13  -3 3294.34 274.611   8
  -1  14  -3 7966.56 363.417   8
   0  14  -3 78.4003 233.983   8
   1  14  -3 1618.77 230.621   8
  -2   8  -2 43101.3 570.868   8
  -2   9  -2 7863.87 310.834   8
  -2  10  -2 11471.0 380.152   8
  -1  10  -2 138073. 1096.50   8
   0  10  -2 169.755 184.245   8
  -2  11  -2 1926.26 255.769   8
  -1  11  -2 4163.58 282.231   8
   0  11  -2 638.110 233.519   8
   1  11  -2 242.619 192.460   8
  -2  12  -2 3789.19 296.057   8
  -1  12  -2 12016.1 404.717   8
   0  12  -2 14069.8 430.358   8
   1  12  -2 8034.57 332.335   8
  -2  13  -2 808.834 248.047   8
  -1  13  -2 6033.96 340.566   8
   0  13  -2 7620.45 358.183   8
   1  13  -2 18802.7 443.702   8
  -1  14  -2 10522.3 399.871   8
   0  14  -2 27854.1 564.218   8
   1  14  -2 5125.94 275.234   8
  -1  15  -2 578.890 225.032   8
   0  15  -2 12980.8 387.207   8
   1  15  -2 209.363 179.005   8
  -3   8  -1 12544.7 344.726   8
  -3   9  -1 15744.4 399.933   8
  -2   9  -1 19501.8 413.302   8
  -3  10  -1 385.005 203.737   8
  -2  10  -1 24754.4 497.818   8
  -1  10  -1 172.862 171.588   8
   0  10  -1 2654.92 248.285   8
  -3  11  -1 8494.94 338.611   8
  -2  11  -1 7158.78 334.520   8
  -1  11  -1 3443.37 261.787   8
   0  11  -1 6045.33 314.566   8
   1  11  -1-209.913 203.733   8
  -2  12  -1-8.95287 209.573   8
  -1  12  -1 12789.3 424.748   8
   0  12  -1-126.804 234.693   8
   1  12  -1 185.802 199.388   8
  -2  13  -1 1089.99 238.427   8
  -1  13  -1 49080.9 740.564   8
   0  13  -1 14224.0 443.668   8
   1  13  -1 2468.10 244.286   8
  -2  14  -1 419.907 210.507   8
  -1  14  -1 25332.5 544.141   8
   0  14  -1 5363.58 318.418   8
   1  14  -1 14610.1 391.211   8
  -1  15  -1 1358.00 232.623   8
   0  15  -1 3127.79 258.644   8
   1  15  -1 1055.94 186.125   8
  -1  16  -1 2285.21 213.221   8
   0  16  -1 4659.35 240.129   8
  -3   9   0 16561.3 382.121   8
  -2   9   0 14070.0 360.884   8
  -3  10   0 328.066 181.353   8
  -2  10   0 2899.64 249.049   8
  -1  10   0 14841.1 398.211   8
  -3  11   0 15456.0 397.543   8
  -2  11   0 13696.1 412.866   8
  -1  11   0 10370.4 371.801   8
   0  11   0-158.444 212.086   8
   1  11   0 10268.6 368.625   8
  -3  12   0 309.206 197.343   8
  -2  12   0 3505.67 274.572   8
  -1  12   0 2262.66 256.083   8
   0  12   0 98346.9 1026.62   8
   1  12   0 2627.93 267.321   8
  -3  13   0 985.875 198.446   8
  -2  13   0 2336.61 250.660   8
  -1  13   0 9758.96 380.540   8
   0  13   0-277.353 233.739   8
   1  13   0 8843.35 355.041   8
  -2  14   0 183.043 195.136   8
  -1  14   0 2282.65 262.359   8
   0  14   0 46765.5 704.969   8
   1  14   0 2012.08 231.188   8
  -2  15   0 421.925 181.328   8
  -1  15   0 402.343 193.733   8
   0  15   0-207.088 194.155   8
   1  15   0 294.753 161.623   8
  -1  16   0 13777.0 333.487   8
   0  16   0 16242.1 352.192   8
   1  16   0 12944.2 259.159   8
   0  17   0 2.24440 118.084   8
  -2   9   1 652.995 184.236   8
  -3  10   1 3371.37 228.376   8
  -2  10   1 1443.44 217.922   8
  -1  10   1 16856.9 439.873   8
   0  10   1 3176.45 284.316   8
  -3  11   1 3508.82 241.803   8
  -2  11   1 2414.71 256.869   8
  -1  11   1-8.94538 203.075   8
   0  11   1 7483.63 374.710   8
   1  11   1 4351.08 321.970   8
  -3  12   1 4774.29 257.942   8
  -2  12   1 235.270 219.734   8
  -1  12   1-3.96951 210.165   8
   0  12   1-124.620 241.113   8
   1  12   1 13284.5 426.867   8
  -3  13   1 446.603 182.511   8
  -2  13   1 1796.65 240.056   8
  -1  13   1 2411.81 261.566   8
   0  13   1 13630.5 443.005   8
   1  13   1 48281.0 695.701   8
  -2  14   1 595.219 203.349   8
  -1  14   1 13564.9 419.286   8
   0  14   1 4794.51 303.494   8
   1  14   1 24674.4 475.452   8
  -2  15   1 170.509 170.812   8
  -1  15   1 1122.03 210.729   8
   0  15   1 2884.34 238.180   8
   1  15   1 1614.32 190.693   8
  -2  16   1 1966.36 164.387   8
  -1  16   1 6775.70 252.062   8
   0  16   1 4088.30 217.271   8
   1  16   1 1952.58 146.692   8
  -1  17   1 1729.58 133.133   8
   0  17   1 69.4138 103.444   8
  -2   9   2 1547.34 215.504   8
  -3  10   2 737.758 168.644   8
  -2  10   2 1884.90 236.268   8
  -1  10   2 425.198 211.803   8
  -3  11   2 486.451 180.146   8
  -2  11   2 1780.44 242.132   8
  -1  11   2 55.9147 228.262   8
  -3  12   2 9284.22 302.469   8
  -2  12   2 8479.79 353.760   8
  -1  12   2 7811.31 373.378   8
   0  12   2 13837.9 474.777   8
   1  12   2 12421.4 434.444   8
  -3  13   2-34.1369 159.826   8
  -2  13   2 1833.96 239.837   8
  -1  13   2 16239.6 465.896   8
   0  13   2 6872.07 366.411   8
   1  13   2 5747.26 318.593   8
  -3  14   2 9234.33 248.381   8
  -2  14   2 1786.54 215.451   8
  -1  14   2 4985.28 306.326   8
   0  14   2 23480.3 516.329   8
   1  14   2 9180.86 324.135   8
  -2  15   2 1315.75 182.985   8
  -1  15   2 431.998 190.608   8
   0  15   2 10565.8 335.457   8
   1  15   2 571.026 158.239   8
  -2  16   2 2936.19 163.243   8
  -1  16   2 62.6916 145.524   8
   0  16   2 81.9719 139.594   8
   1  16   2 985.440 120.853   8
  -1  17   2 63.4405 98.4858   8
  -2   9   3 1031.94 214.179   8
  -2  10   3 3678.73 291.469   8
  -3  11   3 78.8825 161.653   8
  -2  11   3 1636.40 244.344   8
  -1  11   3 2369.34 277.101   8
  -3  12   3 10408.9 304.474   8
  -2  12   3-38.6584 211.216   8
  -1  12   3 369.349 238.139   8
   0  12   3 9194.37 413.732   8
   1  12   3 21960.1 537.512   8
  -3  13   3 4905.22 224.605   8
  -2  13   3 1113.21 218.324   8
  -1  13   3 2551.41 272.291   8
   0  13   3 1427.72 274.809   8
   1  13   3 47.2011 224.867   8
  -3  14   3 2572.91 162.856   8
  -2  14   3 111.891 173.927   8
  -1  14   3 1851.45 239.135   8
   0  14   3 528.544 226.306   8
   1  14   3 6326.65 283.644   8
  -2  15   3 179.954 143.325   8
  -1  15   3 2799.64 220.899   8
   0  15   3 814.097 182.176   8
   1  15   3 6414.77 227.531   8
  -2  16   3 3091.21 142.531   8
  -1  16   3 50.1622 130.832   8
   0  16   3 131.639 134.812   8
  -2  10   4 8427.86 360.674   8
  -3  11   4 7053.49 264.356   8
  -2  11   4 5666.70 323.521   8
  -3  12   4 6272.55 252.098   8
  -2  12   4-2.51618 205.670   8
  -1  12   4 4607.20 324.222   8
  -3  13   4 862.554 146.874   8
  -2  13   4 160.996 187.286   8
  -1  13   4 107.056 234.210   8
   0  13   4 294.465 250.702   8
   1  13   4 13901.5 410.481   8
  -2  14   4 21891.0 409.837   8
  -1  14   4 1959.95 228.362   8
   0  14   4 2155.48 241.175   8
   1  14   4 17.1135 163.429   8
  -2  15   4 428.782 134.062   8
  -1  15   4-2.59149 156.186   8
   0  15   4 181.167 158.219   8
   1  15   4 27.5404 113.279   8
  -1  16   4 2481.52 149.839   8
   0  16   4 2250.47 143.503   8
  -2  11   5 140.783 218.126   8
  -2  12   5 173.375 206.553   8
  -2  13   5 6735.67 280.094   8
  -1  13   5 8391.59 362.318   8
   0  13   5 5442.36 323.995   8
   1  13   5 3002.18 246.547   8
  -2  14   5 45.9186 146.848   8
  -1  14   5 255.069 180.507   8
   0  14   5 2571.99 231.791   8
   1  14   5 341.115 150.330   8
  -2  15   5 456.285 119.626   8
  -1  15   5 1239.92 160.287   8
   0  15   5 2516.75 174.234   8
   1  15   5 882.361 110.895   8
  -1  16   5 211.650 92.6004   8
   0  16   5 3111.27 123.259   8
  -2  11   6-28.8514 209.110   8
  -2  12   6 5109.47 278.234   8
  -2  13   6 1606.15 181.424   8
  -1  13   6 4139.65 273.891   8
   1  13   6 153.083 169.546   8
  -2  14   6 1940.77 151.502   8
  -1  14   6 146.831 161.983   8
   0  14   6 5455.76 242.656   8
   1  14   6 3021.91 162.001   8
  -1  15   6 215.079 116.436   8
   0  15   6 4382.27 162.600   8
  -2  11   7 36.9985 187.523   8
  -2  12   7 8442.30 291.321   8
  -2  13   7 351.976 144.711   8
  -1  13   7 41.2677 168.749   8
   0  13   7 4075.95 232.010   8
   1  13   7 8114.10 234.416   8
  -2  14   7 548.877 101.440   8
  -1  14   7 959.938 143.430   8
   0  14   7 1143.49 143.628   8
  -2  11   8 4245.91 235.740   8
  -2  12   8 2870.28 182.884   8
  -2  13   8 706.643 108.031   8
  -1  13   8 2312.93 169.916   8
   0  13   8-9.76158 130.635   8
   1  13   8 2145.67 116.539   8
  -1  14   8-35.3312 82.5561   8
  -2  11   9 4499.55 195.081   8
  -2  12   9 117.010 94.5389   8
  -1  12   9 2035.86 163.500   8
  -1  13   9-95.1261 85.9773   8
   2   9   2 7905.19 378.134   9
  -1  10   2-237.428 226.033   9
   0  10   2 110.233 249.258   9
   1  10   2 142051. 1287.44   9
   2   8   3 10.5838 256.557   9
   1   9   3 41876.7 715.364   9
   2   9   3 8231.71 399.066   9
  -1  10   3 14010.3 450.898   9
   0  10   3 28359.0 620.928   9
   1  10   3 12403.8 481.893   9
  -1  11   3 2235.35 311.016   9
   0  11   3 19305.5 550.020   9
   1  11   3 30027.9 664.649   9
   2   7   4 293.182 239.052   9
   1   8   4 26655.4 569.938   9
   2   8   4 113673. 1083.93   9
  -1   9   4 1475.76 268.900   9
   0   9   4 1401.66 288.263   9
   1   9   4 26946.5 606.034   9
   2   9   4 20382.2 538.853   9
  -1  10   4 4532.38 339.923   9
   0  10   4 15779.4 503.514   9
   1  10   4 21184.4 593.240   9
   2  10   4 2199.49 315.091   9
  -1  11   4 2166.38 299.424   9
   0  11   4 1962.42 334.693   9
   1  11   4 3048.64 331.727   9
   0  12   4-322.186 285.956   9
   1   7   5 817.694 294.832   9
   2   7   5 7695.66 370.283   9
  -1   8   5 4762.79 313.497   9
   0   8   5 36651.9 681.512   9
   1   8   5 40637.4 731.136   9
   2   8   5 5168.52 336.788   9
  -1   9   5 8383.37 387.875   9
   0   9   5 10261.5 431.859   9
   1   9   5 43360.4 767.011   9
   2   9   5 46319.1 741.296   9
  -1  10   5 1122.63 292.853   9
   0  10   5 2471.53 304.410   9
   1  10   5 6810.40 401.122   9
   2  10   5 4823.41 332.305   9
  -1  11   5 1863.93 316.840   9
   0  11   5 1169.03 286.365   9
   1  11   5 522.902 285.913   9
  -1  12   5 413.939 268.804   9
   0  12   5 512.786 275.916   9
   1  12   5 3778.76 331.007   9
   1   6   6 29032.9 630.606   9
   2   6   6 157641. 1247.79   9
  -1   7   6 937.017 276.251   9
   0   7   6 1447.09 285.952   9
   1   7   6 1029.94 318.778   9
   2   7   6 10745.6 402.407   9
  -2   8   6 11011.0 388.975   9
  -1   8   6 2731.66 316.478   9
   0   8   6 658.606 294.412   9
   1   8   6 45609.5 780.280   9
   2   8   6 50660.8 738.511   9
  -2   9   6 5366.53 317.377   9
  -1   9   6 2267.06 317.767   9
   0   9   6 7113.81 377.939   9
   1   9   6 7186.20 400.498   9
   2   9   6 172.195 236.515   9
  -2  10   6 2054.12 252.250   9
  -1  10   6-96.5029 243.676   9
   0  10   6 2806.48 314.978   9
   1  10   6 131.157 272.607   9
   2  10   6 1580.32 255.225   9
  -2  11   6-115.542 211.916   9
  -1  11   6 5404.26 361.685   9
   0  11   6 3110.76 324.529   9
   1  11   6 12916.6 464.876   9
  -1  12   6 6448.61 359.247   9
   0  12   6 983.100 264.515   9
   1  12   6 4902.77 324.476   9
   1   5   7 6060.35 412.495   9
  -1   6   7 10018.9 415.183   9
   0   6   7 961.636 304.528   9
   1   6   7 14907.6 525.656   9
   2   6   7 262.943 254.337   9
  -2   7   7 185.535 189.951   9
  -1   7   7 5651.25 366.262   9
   0   7   7-14.7968 277.743   9
   1   7   7 18247.2 562.146   9
   2   7   7 23583.2 515.457   9
  -2   8   7 2057.14 275.788   9
  -1   8   7 2207.96 330.806   9
   0   8   7 2652.54 304.372   9
   1   8   7 7291.75 402.987   9
   2   8   7 3679.09 285.023   9
  -2   9   7 1886.59 257.561   9
  -1   9   7 41.6283 239.754   9
   0   9   7 4023.89 353.253   9
   1   9   7 8622.67 409.629   9
   2   9   7 5517.45 298.852   9
  -2  10   7 22859.5 491.579   9
  -1  10   7 1695.53 281.062   9
   0  10   7 234.713 257.708   9
   1  10   7 4553.04 337.167   9
   2  10   7 14.8176 189.156   9
  -2  11   7 331.306 201.500   9
  -1  11   7 5187.61 332.794   9
   0  11   7 8291.46 382.807   9
   1  11   7 323.206 239.858   9
  -1  12   7 530.543 225.468   9
   0  12   7 57.6927 217.846   9
   1  12   7-172.434 205.852   9
   1   5   8 21334.7 585.196   9
  -1   6   8 3824.32 382.853   9
   0   6   8 65040.7 956.262   9
   1   6   8 3152.65 339.724   9
   2   6   8 14597.7 409.613   9
  -2   7   8 3648.16 297.332   9
  -1   7   8 4382.82 341.176   9
   0   7   8 3734.95 360.115   9
   1   7   8-39.8112 280.686   9
   2   7   8 3223.45 256.733   9
  -2   8   8 15249.8 444.910   9
  -1   8   8 147.681 284.191   9
   0   8   8 478.677 253.473   9
   1   8   8 2980.17 319.394   9
   2   8   8 658.352 198.358   9
  -2   9   8 461.567 217.735   9
  -1   9   8 19799.5 530.418   9
   0   9   8 504.681 246.672   9
   1   9   8 4688.53 321.636   9
   2   9   8 14537.1 342.955   9
  -2  10   8 0.61345 116.705   9
  -1  10   8 13020.5 417.891   9
   0  10   8 1223.02 273.078   9
   1  10   8 173.764 206.493   9
  -2  11   8 4222.57 238.828   9
  -1  11   8 2000.99 245.797   9
   0  11   8 30.9754 208.531   9
   1  11   8 4434.51 267.523   9
  -1  12   8 400.098 198.335   9
   0  12   8 6388.22 281.432   9
  -2   5   9 9421.95 396.735   9
   1   5   9 6275.86 378.815   9
  -1   6   9 923.879 272.445   9
   0   6   9 462.705 313.555   9
   1   6   9 1683.77 312.592   9
  -2   7   9 162.103 250.488   9
  -1   7   9 988.555 295.993   9
   0   7   9 737.740 288.189   9
   1   7   9 2732.38 285.380   9
  -2   8   9 3956.46 262.658   9
  -1   8   9 15031.5 472.286   9
   0   8   9 6185.77 364.540   9
   1   8   9 9456.78 349.524   9
  -2   9   9 7990.48 310.874   9
  -1   9   9 897.698 248.992   9
   0   9   9 553.143 222.856   9
   1   9   9-122.648 193.486   9
  -2  10   9 4261.92 238.756   9
  -1  10   9 1751.03 237.242   9
   0  10   9 2385.86 252.789   9
   1  10   9 8102.60 280.195   9
  -2  11   9 4408.80 204.629   9
  -1  11   9 224.386 179.059   9
   0  11   9 2515.83 227.202   9
   1  11   9 3726.84 191.392   9
  -1  12   9 2282.46 175.701   9
   0  12   9 672.622 156.101   9
   1   4  10 387.906 258.223   9
  -2   5  10 1338.15 250.912   9
   0   5  10 3564.25 339.778   9
   1   5  10 2439.10 280.207   9
  -2   6  10 178.186 192.315   9
  -1   6  10 180.388 183.681   9
   0   6  10 158.904 207.829   9
   1   6  10 1110.24 246.923   9
  -1   7  10 1781.70 253.504   9
   0   7  10 80.9900 208.592   9
   1   7  10 174.990 190.682   9
  -2   8  10 4283.02 247.535   9
  -1   8  10 2200.22 257.947   9
   0   8  10 14913.9 408.048   9
   1   8  10 5687.99 251.330   9
  -2   9  10 1018.18 173.878   9
  -1   9  10 24.5749 101.025   9
   0   9  10 10540.7 320.414   9
   1   9  10 1191.45 164.333   9
  -2  10  10 5497.27 202.669   9
  -1  10  10 1317.58 192.063   9
   0  10  10 942.988 169.763   9
   1  10  10 2682.13 153.023   9
  -1  11  10 676.406 147.243   9
   0  11  10 128.155 128.196   9
   1   2  11 3935.00 291.956   9
   1   3  11 4516.26 285.894   9
  -2   4  11 1719.21 266.250   9
   0   4  11 72.2296 244.999   9
   1   4  11 1095.19 218.715   9
  -2   5  11-114.042 228.608   9
  -1   5  11 6296.51 359.921   9
   0   5  11 2732.83 279.218   9
   1   5  11 9045.10 297.175   9
  -2   6  11-187.696 200.022   9
  -1   6  11 1867.06 239.035   9
   0   6  11 472.945 227.399   9
   1   6  11 2393.58 196.808   9
  -1   7  11 122.881 556.192   9
   0   7  11 37.5259 202.728   9
   1   7  11 193.218 134.905   9
  -1   8  11 1358.44 192.271   9
   0   8  11 480.109 165.403   9
   1   8  11 4512.87 166.606   9
  -2   9  11 94.4101 138.231   9
  -1   9  11 214.652 142.237   9
   0   9  11 1428.03 157.128   9
  -1  10  11 649.694 124.570   9
   0  10  11 1439.62 120.172   9
   1  -1  12 3322.98 214.581   9
   1   0  12-107.089 177.368   9
   1   1  12 3000.05 209.038   9
   1   2  12 1148.87 178.355   9
  -2   3  12 6971.88 323.202   9
   0   3  12 6865.53 309.321   9
   1   3  12 880.225 152.032   9
  -2   4  12 655.612 224.675   9
  -1   4  12 2632.30 256.940   9
   0   4  12 3045.82 236.328   9
   1   4  12 2184.25 153.900   9
  -2   5  12 3487.05 226.017   9
  -1   5  12 727.683 200.627   9
   0   5  12 5246.70 246.772   9
   1   5  12 844.866 117.639   9
  -2   6  12 350.657 148.352   9
  -1   6  12 43.3185 146.563   9
   0   6  12-76.0913 145.175   9
  -2   7  12 337.557 121.695   9
  -1   7  12-167.762 149.463   9
   0   7  12 121.450 123.588   9
  -1   8  12 41.4019 59.9871   9
   0   8  12 896.242 107.981   9
   0   0  13-152.781 174.067   9
   0   1  13 321.996 173.479   9
  -2   2  13 585.726 182.935   9
  -1   2  13 3106.55 229.759   9
   0   2  13 4963.20 221.913   9
  -2   3  13 128.102 157.792   9
  -1   3  13 6047.40 257.842   9
   0   3  13 2573.33 172.294   9
  -2   4  13 352.596 149.697   9
  -1   4  13 1202.11 171.429   9
   0   4  13 6896.41 195.454   9
  -1   5  13 313.026 134.315   9
  -1   6  13 285.605 99.6871   9
  -2  -3 -11 280.980 125.623  10
  -2  -2 -11 6130.93 216.350  10
  -2  -1 -11 1433.17 175.881  10
  -2   0 -11-296.021 168.600  10
  -3  -4 -10 2747.41 140.095  10
  -2  -4 -10 4141.00 223.469  10
  -3  -3 -10 2745.41 174.815  10
  -2  -3 -10 1344.42 207.697  10
  -3  -2 -10 4376.00 210.586  10
  -2  -2 -10 115.429 200.095  10
  -3  -1 -10 11166.2 283.093  10
  -3   0 -10-14.7411 176.408  10
  -3   1 -10 11633.4 303.000  10
  -3   2 -10 4470.51 236.580  10
  -3   3 -10 3045.19 210.657  10
  -3   4 -10 3291.49 194.535  10
  -3  -6  -9 93.3934 126.419  10
  -2  -6  -9 122.010 173.544  10
  -3  -5  -9 5464.63 226.539  10
  -2  -5  -9 3342.01 248.383  10
  -3  -4  -9 1084.03 203.865  10
  -2  -4  -9 25600.7 485.994  10
  -3  -3  -9 1549.49 223.706  10
  -2  -3  -9 411.358 238.179  10
  -4  -2  -9 3596.49 154.561  10
  -3  -2  -9 2865.07 265.013  10
  -4  -1  -9 20460.3 287.563  10
  -3  -1  -9 1189.14 251.092  10
  -4   0  -9 37.8367 128.014  10
  -3   0  -9 571.599 222.694  10
  -4   1  -9 21369.4 293.651  10
  -3  -7  -8 233.845 154.609  10
  -2  -7  -8 2641.00 229.520  10
  -3  -6  -8 262.176 194.162  10
  -2  -6  -8 14386.7 390.923  10
  -4  -5  -8 267.070 130.236  10
  -3  -5  -8 308.477 213.570  10
  -2  -5  -8 9349.63 363.197  10
  -4  -4  -8 533.873 165.994  10
  -3  -4  -8 46423.5 656.139  10
  -2  -4  -8-152.953 254.411  10
  -4  -3  -8 930.848 190.384  10
  -3  -3  -8 867.706 277.141  10
  -4  -2  -8 997.274 207.962  10
  -3  -2  -8 817.772 255.732  10
  -4  -1  -8 180.681 188.122  10
  -4   0  -8 785.410 214.576  10
  -4   1  -8 52.6381 192.121  10
  -4   2  -8 1267.03 212.470  10
  -4   3  -8 1152.14 202.434  10
  -4   4  -8 877.374 175.864  10
  -2  -8  -7 3536.29 246.397  10
  -3  -7  -7 19218.4 408.220  10
  -2  -7  -7 22208.8 475.771  10
  -4  -6  -7 1081.09 169.715  10
  -3  -6  -7 123.951 251.711  10
  -2  -6  -7 117.085 251.887  10
  -4  -5  -7 188.475 196.322  10
  -3  -5  -7 20965.2 503.528  10
  -2  -5  -7 156.582 255.902  10
  -4  -4  -7 43086.3 576.501  10
  -3  -4  -7 6196.63 377.584  10
  -2  -4  -7 10194.9 414.120  10
  -4  -3  -7 2124.60 261.935  10
  -3  -3  -7 3217.20 332.252  10
  -4  -2  -7 1614.22 274.869  10
  -4  -1  -7 4565.96 300.978  10
  -4   0  -7 131.535 239.379  10
  -4   1  -7 4782.33 320.147  10
  -4   2  -7 1611.94 255.303  10
  -4   3  -7 2654.37 267.197  10
  -4   4  -7 46680.8 575.790  10
  -4   5  -7 8.20631 187.609  10
  -3  -8  -6 1246.63 238.345  10
  -2  -8  -6 46993.4 637.870  10
  -3  -7  -6 5005.27 326.832  10
  -2  -7  -6 10330.2 394.010  10
  -4  -6  -6 248.392 199.475  10
  -3  -6  -6 2025.65 323.205  10
  -2  -6  -6 150939. 1199.05  10
  -4  -5  -6 3140.08 283.301  10
  -3  -5  -6-46.2087 271.792  10
  -2  -5  -6 33843.6 624.847  10
  -4  -4  -6-17.9366 242.388  10
  -3  -4  -6 2571.96 344.433  10
  -5  -3  -6 98.2180 140.489  10
  -4  -3  -6 8631.21 402.445  10
  -3  -3  -6 1230.41 321.986  10
  -5  -2  -6 211.094 153.923  10
  -4  -2  -6 579.252 286.979  10
  -5  -1  -6 4835.02 208.281  10
  -4  -1  -6 5325.57 370.023  10
  -5   0  -6 76.0180 156.403  10
  -4   0  -6-365.752 289.741  10
  -5   1  -6 4874.62 198.887  10
  -4   1  -6 5021.47 345.221  10
  -4   2  -6 919.108 274.827  10
  -4   3  -6 8534.60 373.916  10
  -3  -8  -5 3906.53 302.246  10
  -2  -8  -5 4792.48 328.870  10
  -4  -7  -5 1457.24 252.268  10
  -3  -7  -5 4460.55 341.376  10
  -2  -7  -5 7472.47 378.747  10
  -4  -6  -5 3878.92 307.614  10
  -3  -6  -5 68494.2 901.650  10
  -2  -6  -5 13317.9 430.499  10
  -4  -5  -5 1725.07 314.114  10
  -3  -5  -5 6454.74 378.357  10
  -2  -5  -5 7513.53 360.433  10
  -5  -4  -5 391.892 180.163  10
  -4  -4  -5 12139.4 468.953  10
  -3  -4  -5 192.877 282.233  10
  -5  -3  -5 9310.77 293.501  10
  -4  -3  -5 129.922 319.609  10
  -3  -3  -5 1641.97 329.044  10
  -5  -2  -5 5038.83 264.698  10
  -4  -2  -5 8749.51 432.451  10
  -5  -1  -5 1744.13 218.237  10
  -4  -1  -5 11302.2 449.750  10
  -5   0  -5 9310.08 299.350  10
  -4   0  -5 62.9437 281.417  10
  -5   1  -5 1557.50 207.812  10
  -4   1  -5 10518.1 445.582  10
  -4   2  -5 8340.56 399.435  10
  -3  -8  -4 1576.37 310.307  10
  -2  -8  -4 115120. 1027.25  10
  -4  -7  -4 10.2012 241.095  10
  -3  -7  -4 6915.44 396.262  10
  -2  -7  -4 118.885 255.217  10
  -4  -6  -4 5246.11 345.718  10
  -3  -6  -4-83.6558 295.364  10
  -4  -5  -4 1233.34 297.148  10
  -3  -5  -4 1021.46 316.600  10
  -5  -4  -4 19400.8 410.343  10
  -4  -4  -4 992.343 325.647  10
  -3  -4  -4 622.510 283.993  10
  -5  -3  -4 1551.19 252.437  10
  -4  -3  -4 9159.68 456.944  10
  -3  -3  -4 1436.09 265.013  10
  -5  -2  -4 5033.64 294.871  10
  -4  -2  -4 3318.31 380.461  10
  -5  -1  -4 319.038 220.988  10
  -4  -1  -4 2608.24 336.520  10
  -5   0  -4-75.1264 220.965  10
  -4   0  -4 31564.9 650.189  10
  -5   1  -4 149.064 211.430  10
  -4   1  -4 2075.07 324.432  10
  -3  -8  -3 1144.92 318.924  10
  -2  -8  -3 279.811 258.294  10
  -4  -7  -3 125.265 265.055  10
  -3  -7  -3 4041.28 361.072  10
  -4  -6  -3 1009.92 276.913  10
  -3  -6  -3 2423.89 305.270  10
  -4  -5  -3 1200.38 307.490  10
  -3  -5  -3 7777.61 417.145  10
  -5  -4  -3 344.930 234.336  10
  -4  -4  -3 1595.08 349.443  10
  -3  -4  -3 953.522 268.779  10
  -5  -3  -3 22266.5 478.414  10
  -4  -3  -3 3052.24 385.062  10
  -5  -2  -3 2185.59 274.059  10
  -4  -2  -3 2528.26 365.138  10
  -5  -1  -3 2652.08 277.440  10
  -4  -1  -3 18078.0 525.318  10
  -5   0  -3 210.949 232.713  10
  -4   0  -3-67.3374 271.180  10
  -4   1  -3 17763.0 500.630  10
  -2  -8  -2 46766.9 660.710  10
  -3  -7  -2 403.495 289.171  10
  -4  -6  -2 22391.5 561.145  10
  -3  -6  -2 3458.25 340.162  10
  -4  -5  -2 1495.68 339.714  10
  -3  -5  -2 5690.79 363.766  10
  -5  -4  -2 2764.96 282.936  10
  -4  -4  -2 3328.97 353.159  10
  -5  -3  -2 1242.53 260.366  10
  -4  -3  -2 11412.9 451.461  10
  -5  -2  -2 6797.21 331.065  10
  -4  -2  -2 343.651 305.698  10
  -5  -1  -2 18411.7 437.642  10
  -4  -1  -2 1783.29 327.096  10
  -4   0  -2 9981.47 407.899  10
  -4   1  -2 1836.57 286.198  10
  -3  -7  -1-327.382 236.619  10
  -4  -6  -1 1963.89 300.757  10
  -3  -6  -1 13556.1 437.228  10
  -4  -5  -1 42233.1 734.856  10
  -4  -4  -1 47.9671 321.445  10
  -5  -3  -1 1540.81 256.572  10
  -4  -3  -1-329.324 291.000  10
  -5  -2  -1-235.403 217.603  10
  -4  -2  -1 4299.07 334.351  10
  -4  -1  -1 2498.59 287.596  10
  -4  -5   0 6944.44 370.554  10
  -4  -4   0 4237.12 331.030  10
  -4  -3   0 3154.77 288.335  10
  -4  -2   0 3136.52 281.672  10
  -4  -3   1-109.084 219.838  10
  -1   1 -11-76.7399 181.360  11
  -2   2 -11 6545.91 238.831  11
  -1   2 -11 3282.59 233.342  11
  -2   3 -11 557.364 172.444  11
  -1   3 -11 4465.34 247.842  11
  -2   4 -11 505.203 170.831  11
  -1   4 -11 1074.99 205.097  11
  -2   5 -11-228.502 156.729  11
  -1   5 -11 10165.4 300.355  11
   0   5 -11 2464.50 223.186  11
  -2   6 -11 30.4357 136.812  11
  -1   6 -11 2903.17 223.086  11
  -1   7 -11 114.383 172.045  11
  -1   8 -11 6505.87 221.257  11
   0   9 -11 1741.59 178.163  11
  -1  -1 -10 2871.91 233.013  11
  -2   0 -10 98.1602 211.418  11
  -1   0 -10-229.596 205.562  11
  -2   1 -10 5112.91 287.661  11
  -1   1 -10 3209.20 252.589  11
  -2   2 -10 12.5638 210.750  11
  -1   2 -10 4400.00 273.122  11
  -2   3 -10 1353.54 234.603  11
  -1   3 -10 3376.47 266.479  11
  -3   4 -10 2983.28 192.310  11
  -2   4 -10 4909.29 281.797  11
  -1   4 -10 1173.75 235.855  11
  -3   5 -10 775.661 147.188  11
  -2   5 -10 1920.95 230.513  11
  -2   6 -10 1344.94 218.033  11
  -2   7 -10 88.6492 182.463  11
  -2   8 -10 367.157 171.149  11
  -2   9 -10 595.836 145.886  11
  -1  10 -10 4597.28 220.938  11
  -2  -2  -9 722.066 239.514  11
  -1  -2  -9 3406.28 266.133  11
  -2  -1  -9 12276.3 400.280  11
  -1  -1  -9 15726.4 397.690  11
  -2   0  -9-332.815 236.652  11
  -1   0  -9 5918.22 301.600  11
  -3   1  -9 1043.54 232.813  11
  -2   1  -9 12688.0 406.932  11
  -1   1  -9 16015.7 408.196  11
  -3   2  -9 3354.58 273.834  11
  -2   2  -9 725.277 248.486  11
  -1   2  -9 3674.29 285.803  11
  -3   3  -9 1757.24 239.319  11
  -2   3  -9 835.222 247.123  11
  -3   4  -9 1212.12 224.982  11
  -2   4  -9 26179.3 534.030  11
  -3   5  -9 6446.40 281.410  11
  -2   5  -9 3528.65 312.707  11
  -3   6  -9-94.9311 193.296  11
  -2   6  -9 122.937 242.907  11
  -3   7  -9 7417.25 252.005  11
  -2   7  -9 1163.55 259.221  11
  -3   8  -9 2228.40 163.186  11
  -2   8  -9 93.5228 212.558  11
  -2   9  -9 206.252 197.162  11
  -2  10  -9 2105.06 198.098  11
  -1  -3  -8 8555.42 323.049  11
  -2  -2  -8 4818.48 319.175  11
  -1  -2  -8 149.360 207.376  11
  -3  -1  -8 1388.93 284.908  11
  -2  -1  -8 10528.2 401.702  11
  -1  -1  -8 2819.42 256.344  11
  -3   0  -8-504.866 266.057  11
  -2   0  -8 1788.37 291.394  11
  -1   0  -8 536.364 214.439  11
  -3   1  -8 1535.55 276.958  11
  -2   1  -8 11236.9 401.385  11
  -3   2  -8 840.203 280.130  11
  -2   2  -8 5163.40 335.480  11
  -3   3  -8 965.693 264.853  11
  -2   3  -8 3650.61 292.456  11
  -3   4  -8 49409.2 685.938  11
  -3   5  -8 439.683 258.905  11
  -3   6  -8 640.583 252.669  11
  -3   7  -8 372.738 229.354  11
  -3   8  -8 1326.57 216.719  11
  -3   9  -8 199.570 168.036  11
  -2  -3  -7 423.523 244.746  11
  -2  -2  -7 2638.66 286.625  11
  -3  -1  -7 974.532 284.263  11
  -2  -1  -7 34472.9 609.382  11
  -3   0  -7 800.349 277.592  11
  -2   0  -7 26.4877 262.264  11
  -3   1  -7 1400.02 305.104  11
  -2   1  -7 33591.3 587.815  11
  -4   2  -7 1318.34 259.079  11
  -3   2  -7 697.681 268.864  11
  -2   2  -7 3112.72 291.615  11
  -4   3  -7 2408.02 262.078  11
  -3   3  -7 3012.82 316.696  11
  -4   4  -7 46363.3 583.614  11
  -3   4  -7 6269.21 356.323  11
  -4   5  -7-90.0865 199.160  11
  -3   5  -7 21335.3 516.943  11
  -4   6  -7 1496.76 201.524  11
  -3   6  -7 116.427 253.952  11
  -4   7  -7 210.076 145.111  11
  -3   7  -7 23423.6 504.608  11
  -3   8  -7 10467.0 360.297  11
  -3   9  -7 30309.9 474.646  11
  -3  10  -7 714.731 179.387  11
  -2  -3  -6 20761.8 486.208  11
  -3  -2  -6 8348.07 396.366  11
  -2  -2  -6-70.3286 243.391  11
  -3  -1  -6 3691.06 335.847  11
  -2  -1  -6 4694.37 311.761  11
  -3   0  -6-277.024 272.717  11
  -2   0  -6 14814.8 392.643  11
  -4   1  -6 4638.37 332.058  11
  -3   1  -6 4659.96 336.774  11
  -2   1  -6 4925.23 285.740  11
  -4   2  -6 415.083 260.514  11
  -3   2  -6 8775.09 400.372  11
  -4   3  -6 8866.51 375.144  11
  -3   3  -6 1201.56 305.897  11
  -4   4  -6-226.489 242.788  11
  -3   4  -6 2230.06 308.990  11
  -4   5  -6 2949.91 271.787  11
  -3   5  -6 353.703 272.435  11
  -4   6  -6 306.086 219.676  11
  -4   7  -6 10.5737 186.684  11
  -3   9  -6 3222.16 276.663  11
  -3  10  -6 3909.44 246.652  11
  -3  11  -6-158.025 158.658  11
  -3  -2  -5 3283.71 299.561  11
  -3  -1  -5 310.488 251.379  11
  -3   0  -5 24939.4 548.107  11
  -4   1  -5 11119.7 441.895  11
  -3   1  -5 871.726 259.982  11
  -4   2  -5 8577.12 405.268  11
  -3   2  -5 3354.35 301.177  11
  -4   3  -5 176.631 271.030  11
  -3   3  -5 1888.42 309.591  11
  -4   4  -5 12487.0 423.203  11
  -4   5  -5 1651.88 276.395  11
  -4   6  -5 4596.24 290.193  11
  -4   7  -5 2068.06 233.485  11
  -3  -2  -4-154.732 273.235  11
  -3  -1  -4 22032.4 511.920  11
  -4   0  -4 30560.8 620.309  11
  -3   0  -4-70.0198 240.315  11
  -4   1  -4 2367.64 331.448  11
  -3   1  -4 22161.7 506.016  11
  -4   2  -4 2741.75 328.103  11
  -3   2  -4-334.271 232.451  11
  -4   3  -4 9165.26 395.002  11
  -3   3  -4 1202.64 271.244  11
  -4   4  -4 1274.02 284.008  11
  -4   5  -4 2089.05 274.493  11
  -4   0  -3-284.120 285.749  11
  -4   1  -3 18814.5 501.878  11
  -4   2  -3 2718.13 319.836  11
  -4   3  -3 3861.66 314.281  11
  -5 -11   0 2704.34 155.116  12
  -3 -14   1 2026.80 219.106  12
  -4 -13   1 704.540 179.769  12
  -5 -11   1 2461.52 171.743  12
  -5 -10   1 1028.45 182.645  12
  -3 -14   2 11300.2 326.931  12
  -2 -14   2 2255.60 236.620  12
  -4 -13   2 2190.65 212.231  12
  -4 -12   2 16965.2 426.979  12
  -5 -11   2 7055.33 242.135  12
  -5 -10   2 15185.9 353.084  12
  -5  -9   2-22.1145 199.838  12
  -3 -14   3 3391.88 253.447  12
  -2 -14   3 40.0658 211.519  12
  -4 -13   3 4612.66 258.613  12
  -3 -13   3 6447.34 325.154  12
  -2 -13   3 1641.95 264.792  12
  -4 -12   3 11485.5 375.587  12
  -3 -12   3 14810.4 472.302  12
  -2 -12   3-132.096 241.260  12
  -5 -11   3 6438.19 239.584  12
  -4 -11   3 2122.53 285.365  12
  -5 -10   3 4097.61 253.778  12
  -5  -9   3 5615.70 287.768  12
  -5  -8   3 187.183 210.810  12
  -5  -7   3 2919.27 257.871  12
  -5  -6   3 5156.84 283.560  12
  -5  -5   3 22840.9 455.721  12
  -3 -14   4 230.478 184.280  12
  -4 -13   4 2555.50 214.776  12
  -3 -13   4 989.719 254.112  12
  -2 -13   4 507.874 237.035  12
  -4 -12   4 4931.41 296.560  12
  -3 -12   4 9468.60 408.568  12
  -2 -12   4-49.5625 252.083  12
  -5 -11   4 6329.56 233.872  12
  -4 -11   4 780.794 249.480  12
  -3 -11   4 11125.8 445.119  12
  -2 -11   4 7864.00 383.375  12
  -5 -10   4 5557.70 263.966  12
  -4 -10   4 2097.98 304.347  12
  -3 -10   4 10014.0 425.439  12
  -2 -10   4 9341.37 389.928  12
  -1 -10   4 4692.51 295.852  12
  -5  -9   4 5124.38 287.052  12
  -4  -9   4 43581.4 757.353  12
  -5  -8   4 18143.6 435.378  12
  -4  -8   4 52671.5 803.668  12
  -5  -7   4 4540.83 280.857  12
  -5  -6   4 1360.63 222.214  12
  -5  -5   4 180.704 176.283  12
  -4  -4   4 3749.59 262.913  12
  -3 -14   5 9142.67 275.539  12
  -4 -13   5 485.380 170.258  12
  -3 -13   5 330.342 228.376  12
  -2 -13   5 11184.9 388.465  12
  -4 -12   5 15098.0 402.852  12
  -3 -12   5 78.7341 254.964  12
  -2 -12   5-251.698 243.683  12
  -5 -11   5 56.4478 141.192  12
  -4 -11   5 2553.87 284.277  12
  -3 -11   5 107.517 278.425  12
  -2 -11   5 197.535 256.140  12
  -5 -10   5 397.254 183.187  12
  -4 -10   5 312.947 260.712  12
  -3 -10   5 748.200 281.180  12
  -2 -10   5 5740.27 355.724  12
  -1 -10   5 973.759 253.907  12
  -5  -9   5 130.521 199.829  12
  -4  -9   5 5702.31 367.492  12
  -3  -9   5 1092.80 267.419  12
  -2  -9   5 4619.94 327.783  12
  -1  -9   5 8805.57 349.356  12
  -5  -8   5 6000.48 300.867  12
  -4  -8   5 30783.0 636.129  12
  -3  -8   5 40320.1 712.125  12
  -2  -8   5 8373.18 360.367  12
  -5  -7   5 10812.5 370.952  12
  -4  -7   5 2505.68 292.514  12
  -3  -7   5 18851.5 488.954  12
  -2  -7   5-125.515 193.236  12
  -5  -6   5 6284.53 308.866  12
  -4  -6   5 16116.0 461.478  12
  -3  -6   5 130545. 1107.76  12
  -5  -5   5 4811.64 284.966  12
  -4  -5   5 1162.57 230.938  12
  -3  -5   5 27193.3 504.678  12
  -4  -4   5 6844.04 315.058  12
  -4  -3   5 10129.9 341.033  12
  -3 -13   6 2979.73 253.598  12
  -2 -13   6 3323.04 268.549  12
  -4 -12   6-83.2180 201.325  12
  -3 -12   6 560.279 260.621  12
  -2 -12   6 8523.30 386.694  12
  -4 -11   6 277.631 232.230  12
  -3 -11   6-112.578 272.520  12
  -2 -11   6-31.7293 254.855  12
  -5 -10   6 1179.32 183.927  12
  -4 -10   6 694.785 270.396  12
  -3 -10   6 225.478 271.332  12
  -2 -10   6 2126.13 313.163  12
  -1 -10   6-35.0130 244.651  12
  -5  -9   6 319.189 196.821  12
  -4  -9   6 22039.9 557.944  12
  -3  -9   6 22617.6 590.840  12
  -2  -9   6 5452.75 359.551  12
  -1  -9   6 3047.99 295.728  12
  -5  -8   6 306.512 198.723  12
  -4  -8   6 37149.7 698.606  12
  -3  -8   6 32300.4 678.707  12
  -2  -8   6 12895.8 447.776  12
  -1  -8   6 2600.24 268.937  12
  -5  -7   6 75.3049 195.699  12
  -4  -7   6 3075.15 313.076  12
  -3  -7   6 31552.7 642.614  12
  -2  -7   6 5483.71 325.277  12
  -1  -7   6 644.703 209.929  12
  -5  -6   6 1436.47 231.543  12
  -4  -6   6 102863. 1074.14  12
  -3  -6   6 1669.83 264.851  12
  -2  -6   6 8135.15 338.561  12
  -5  -5   6 1564.07 233.960  12
  -4  -5   6 4554.82 307.931  12
  -3  -5   6 270.398 208.735  12
  -4  -4   6 1150.52 233.199  12
  -3  -4   6 40685.2 616.907  12
  -4  -3   6 6692.99 326.089  12
  -3  -3   6 2299.82 223.720  12
  -3 -13   7 3425.35 228.234  12
  -4 -12   7 3391.25 212.808  12
  -3 -12   7-118.985 224.028  12
  -2 -12   7 14286.3 416.297  12
  -4 -11   7 10649.4 358.363  12
  -3 -11   7 2287.32 302.262  12
  -2 -11   7 381.959 282.634  12
  -4 -10   7-112.612 245.126  12
  -3 -10   7 2348.45 315.741  12
  -2 -10   7 34265.6 693.966  12
  -1 -10   7 2357.21 287.633  12
  -5  -9   7 256.002 170.743  12
  -4  -9   7 15007.2 464.085  12
  -3  -9   7 39634.3 744.121  12
  -2  -9   7 1939.09 302.954  12
  -1  -9   7 123.177 249.059  12
  -5  -8   7 1312.95 214.406  12
  -4  -8   7 586.232 272.291  12
  -3  -8   7 9415.18 423.706  12
  -2  -8   7 2620.93 308.070  12
  -1  -8   7 1905.02 268.239  12
  -5  -7   7 430.628 210.214  12
  -4  -7   7 1444.53 276.172  12
  -3  -7   7 20009.6 556.160  12
  -2  -7   7 920.415 267.716  12
  -1  -7   7 4672.55 313.401  12
  -5  -6   7 11099.8 347.869  12
  -4  -6   7 3328.07 313.061  12
  -3  -6   7 11767.7 439.091  12
  -2  -6   7 1386.67 243.385  12
  -1  -6   7 9819.63 368.028  12
   0  -6   7 1374.55 234.317  12
  -5  -5   7 2680.76 239.767  12
  -4  -5   7 18718.0 493.384  12
  -3  -5   7 51789.5 763.429  12
  -2  -5   7 457.080 196.455  12
  -4  -4   7 10738.6 392.761  12
  -3  -4   7 6775.18 326.846  12
  -2  -4   7 125861. 1049.10  12
  -4  -3   7 111.821 209.983  12
  -3  -3   7 9453.21 353.485  12
  -4  -2   7 73.9565 192.740  12
  -3  -2   7 4363.31 273.070  12
  -3  -1   7 2176.20 216.068  12
  -3 -12   8 12152.9 340.351  12
  -2 -12   8 5459.77 298.477  12
  -4 -11   8 3604.11 231.562  12
  -3 -11   8 3532.16 291.367  12
  -2 -11   8 7197.86 357.052  12
  -4 -10   8 11457.3 364.529  12
  -3 -10   8 15771.8 480.917  12
  -2 -10   8 245.890 263.152  12
  -1 -10   8 17454.8 479.505  12
  -4  -9   8 7732.80 352.854  12
  -3  -9   8 635.022 301.104  12
  -2  -9   8 728.569 286.667  12
  -1  -9   8 24506.6 570.117  12
  -5  -8   8 5353.45 233.816  12
  -4  -8   8-59.9160 247.786  12
  -3  -8   8 2578.31 334.513  12
  -2  -8   8 20961.4 566.130  12
  -1  -8   8-72.4662 264.525  12
  -5  -7   8 3922.46 232.894  12
  -4  -7   8 1662.63 297.929  12
  -3  -7   8 10131.0 438.862  12
  -2  -7   8 5330.90 364.403  12
  -1  -7   8 5271.06 348.306  12
   0  -7   8 3372.86 309.220  12
  -5  -6   8 1543.55 209.562  12
  -4  -6   8 2693.94 313.105  12
  -3  -6   8 551.299 268.052  12
  -2  -6   8 13034.4 452.072  12
  -1  -6   8 3073.96 306.721  12
   0  -6   8 64139.4 860.684  12
  -5  -5   8 680.583 198.009  12
  -4  -5   8 1615.87 272.043  12
  -3  -5   8 20935.8 545.506  12
  -2  -5   8 6786.29 339.584  12
  -1  -5   8 3425.19 299.412  12
   0  -5   8 8440.58 391.894  12
  -4  -4   8 11122.6 396.374  12
  -3  -4   8 76339.2 920.491  12
  -2  -4   8 6655.02 336.631  12
  -1  -4   8 1460.98 247.899  12
   0  -4   8 218.335 230.169  12
  -4  -3   8 1067.91 221.400  12
  -3  -3   8 1720.50 257.490  12
  -2  -3   8 2800.83 245.911  12
  -1  -3   8 1832.42 237.950  12
   0  -3   8 10512.4 400.261  12
  -4  -2   8 586.522 226.117  12
  -3  -2   8 5924.31 322.353  12
  -2  -2   8 16675.4 427.234  12
  -1  -2   8 19154.9 462.825  12
  -3  -1   8 13180.9 398.205  12
  -2  -1   8 12583.0 384.172  12
  -1  -1   8 44732.4 671.640  12
  -3   0   8-73.7556 193.677  12
  -2   0   8 12257.4 381.182  12
  -2   1   8 11054.2 368.414  12
  -3 -11   9 1448.03 232.015  12
  -2 -11   9 8800.70 347.620  12
  -4 -10   9 11918.2 318.452  12
  -3 -10   9 2202.59 272.723  12
  -2 -10   9 6955.93 364.053  12
  -1 -10   9 2715.29 285.220  12
  -4  -9   9 2759.38 253.017  12
  -3  -9   9 1629.66 285.864  12
  -2  -9   9 13109.2 458.615  12
  -1  -9   9 1000.47 275.032  12
  -4  -8   9 7412.20 329.744  12
  -3  -8   9 8433.64 398.343  12
  -2  -8   9 6249.17 390.903  12
  -1  -8   9 19389.3 545.628  12
  -5  -7   9-110.447 149.719  12
  -4  -7   9 594.376 239.914  12
  -3  -7   9 1310.86 290.254  12
  -2  -7   9-139.071 264.393  12
  -1  -7   9 1173.11 307.451  12
  -5  -6   9-372.618 158.517  12
  -4  -6   9-22.3697 234.530  12
  -3  -6   9-16.0764 255.801  12
  -2  -6   9 5227.93 353.344  12
  -1  -6   9 1363.85 301.554  12
  -5  -5   9 2274.99 201.904  12
  -4  -5   9 786.128 252.796  12
  -3  -5   9 312.714 250.175  12
  -2  -5   9 12744.9 453.263  12
  -1  -5   9 6601.28 391.752  12
  -4  -4   9 223.665 222.633  12
  -3  -4   9-94.3461 255.183  12
  -2  -4   9 5052.82 339.312  12
  -1  -4   9 858.646 286.424  12
  -4  -3   9 3425.71 275.143  12
  -3  -3   9 30736.5 611.148  12
  -2  -3   9 6110.72 343.837  12
  -1  -3   9 9504.39 402.302  12
  -4  -2   9 19976.0 462.746  12
  -3  -2   9 1511.73 259.672  12
  -2  -2   9 7677.00 360.039  12
  -1  -2   9 3918.63 305.013  12
  -3  -1   9-79.4631 221.924  12
  -2  -1   9 43486.4 710.105  12
  -1  -1   9 318.183 236.478  12
  -3   0   9 50.9729 223.708  12
  -2   0   9 149.629 238.633  12
  -3 -10  10 8040.72 307.175  12
  -2 -10  10 9368.79 346.090  12
  -4  -9  10 26246.4 403.638  12
  -3  -9  10 9701.38 369.127  12
  -2  -9  10 1921.94 288.170  12
  -4  -8  10 2729.86 243.961  12
  -3  -8  10 725.323 263.761  12
  -2  -8  10 6895.22 392.468  12
  -1  -8  10 2268.64 308.221  12
  -4  -7  10 1624.93 240.123  12
  -3  -7  10 1862.96 291.156  12
  -2  -7  10 450.582 288.536  12
  -1  -7  10 2325.29 304.712  12
  -4  -6  10 3727.56 281.290  12
  -3  -6  10 285.138 262.579  12
  -2  -6  10 41.5589 273.539  12
  -1  -6  10 264.031 278.894  12
  -4  -5  10 4713.68 297.462  12
  -3  -5  10 3944.70 334.759  12
  -2  -5  10 2123.19 313.565  12
  -1  -5  10 289.798 277.512  12
  -4  -4  10 1677.23 256.600  12
  -3  -4  10 97.2153 259.406  12
  -2  -4  10 1715.63 296.759  12
  -1  -4  10 254.466 283.722  12
  -4  -3  10 12503.3 379.402  12
  -3  -3  10 3787.97 315.806  12
  -2  -3  10 20362.7 549.582  12
  -4  -2  10 1208.61 218.475  12
  -3  -2  10 24294.3 555.138  12
  -2  -2  10 15790.4 486.897  12
  -3  -1  10 10220.0 395.577  12
  -2  -1  10 139.165 238.972  12
  -3  -8  11 12392.7 363.040  12
  -3  -7  11 303.069 228.391  12
  -2  -7  11 309.236 246.876  12
  -4  -6  11 1142.56 206.104  12
  -3  -6  11 307.806 234.629  12
  -2  -6  11-135.116 261.980  12
  -4  -5  11 4261.16 244.734  12
  -3  -5  11 1069.03 246.669  12
  -2  -5  11-109.004 255.143  12
  -3  -4  11 984.791 256.429  12
  -2  -4  11 1598.26 289.140  12
  -3  -3  11 260.187 242.546  12
;
_shelx_hkl_checksum              50735
#END Tags that were not found in dictionaries
loop_
_space_group_symop_operation_xyz
'x, y, z'
'-x+1/2, y+1/2, -z+1/2'
'-x, -y, -z'
'x-1/2, -y-1/2, z-1/2'
loop_
_atom_site_label
_atom_site_type_symbol
_atom_site_fract_x
_atom_site_fract_y
_atom_site_fract_z
_atom_site_U_iso_or_equiv
_atom_site_adp_type
_atom_site_occupancy
_atom_site_site_symmetry_order
_atom_site_calc_flag
_atom_site_refinement_flags_posn
_atom_site_refinement_flags_adp
_atom_site_refinement_flags_occupancy
_atom_site_disorder_assembly
_atom_site_disorder_group
O2 O 0.8239(2) 0.04677(10) 0.40884(12) 0.0221(4) Uani 1 1 d . . . . .
N1 N 0.6770(3) 0.31769(12) 0.09896(16) 0.0265(5) Uani 1 1 d . . . . .
O1 O 0.4195(3) 0.08635(12) 0.38962(16) 0.0331(5) Uani 1 1 d . . . . .
C6 C 0.6306(3) 0.09647(14) 0.36576(17) 0.0211(4) Uani 1 1 d . . . . .
C3 C 0.6532(3) 0.17512(14) 0.27395(17) 0.0213(5) Uani 1 1 d . . . . .
C2 C 0.8392(4) 0.17284(15) 0.20564(19) 0.0250(5) Uani 1 1 d . . . . .
H2 H 0.9634 0.1232 0.2186 0.030 Uiso 1 1 calc R U . . .
C5 C 0.5018(4) 0.32024(14) 0.1674(2) 0.0285(5) Uani 1 1 d . . . . .
H5 H 0.3849 0.3724 0.1553 0.034 Uiso 1 1 calc R U . . .
C1 C 0.8397(4) 0.24413(15) 0.11856(19) 0.0267(5) Uani 1 1 d . . . . .
H1 H 0.9631 0.2405 0.0699 0.032 Uiso 1 1 calc R U . . .
C4 C 0.4827(4) 0.25137(15) 0.25404(19) 0.0256(5) Uani 1 1 d . . . . .
H4 H 0.3544 0.2559 0.2997 0.031 Uiso 1 1 calc R U . . .
Li2 Li 1.1829(6) 0.0656(2) 0.4850(3) 0.0214(7) Uani 1 1 d . . . . .
N3S_a N 0.3381(5) -0.0056(3) 1.0764(3) 0.0595(8) Uani 0.5 1 d . . P A 1
C3S_b C 0.3381(5) -0.0056(3) 1.0764(3) 0.0595(8) Uani 0.5 1 d . . P B 2
H3S_b H 0.2266 -0.0107 1.1311 0.071 Uiso 0.5 1 calc R U P B 2
C2S_b C 0.4678(6) 0.0709(2) 0.9156(3) 0.0533(8) Uani 1 1 d . . . B 2
H2S_b H 0.4479 0.1206 0.8553 0.064 Uiso 1 1 calc R U . B 2
C1S_b C 0.3046(5) 0.0661(2) 0.9912(3) 0.0488(7) Uani 1 1 d . . . B 2
H1S_b H 0.1708 0.1114 0.9849 0.059 Uiso 1 1 calc R U . B 2
loop_
_atom_site_aniso_label
_atom_site_aniso_U_11
_atom_site_aniso_U_22
_atom_site_aniso_U_33
_atom_site_aniso_U_23
_atom_site_aniso_U_13
_atom_site_aniso_U_12
O2 0.0207(7) 0.0213(7) 0.0234(7) 0.0026(5) 0.0028(5) 0.0015(5)
N1 0.0263(8) 0.0223(9) 0.0300(9) 0.0062(7) 0.0041(7) -0.0008(6)
O1 0.0249(7) 0.0395(9) 0.0379(9) 0.0168(7) 0.0136(6) 0.0061(6)
C6 0.0221(9) 0.0209(9) 0.0204(9) 0.0004(7) 0.0048(7) -0.0001(7)
C3 0.0201(9) 0.0203(9) 0.0220(9) 0.0002(7) 0.0014(7) 0.0001(7)
C2 0.0236(9) 0.0231(10) 0.0287(10) 0.0055(8) 0.0070(8) 0.0021(7)
C5 0.0283(10) 0.0222(10) 0.0350(11) 0.0052(9) 0.0072(9) 0.0048(8)
C1 0.0245(9) 0.0291(10) 0.0272(10) 0.0032(8) 0.0070(8) -0.0018(8)
C4 0.0229(9) 0.0264(10) 0.0278(10) 0.0028(8) 0.0067(7) 0.0020(7)
Li2 0.0217(14) 0.0185(15) 0.0249(16) -0.0003(12) 0.0069(12) 0.0004(12)
N3S_a 0.0463(14) 0.078(2) 0.0524(16) -0.0079(15) 0.0066(11) -0.0084(14)
C3S_b 0.0463(14) 0.078(2) 0.0524(16) -0.0079(15) 0.0066(11) -0.0084(14)
C2S_b 0.0471(15) 0.0545(18) 0.0486(16) 0.0096(13) -0.0104(13) -0.0088(12)
C1S_b 0.0366(13) 0.0473(16) 0.0576(17) -0.0009(13) -0.0002(12) 0.0002(11)
loop_
_atom_type_symbol
_atom_type_description
_atom_type_scat_dispersion_real
_atom_type_scat_dispersion_imag
_atom_type_scat_source
C C 0.0181 0.0091 'International Tables Vol C Tables 4.2.6.8 and 6.1.1.4'
H H 0.0000 0.0000 'International Tables Vol C Tables 4.2.6.8 and 6.1.1.4'
Li Li 0.0008 0.0003 'International Tables Vol C Tables 4.2.6.8 and 6.1.1.4'
N N 0.0311 0.0180 'International Tables Vol C Tables 4.2.6.8 and 6.1.1.4'
O O 0.0492 0.0322 'International Tables Vol C Tables 4.2.6.8 and 6.1.1.4'
loop_
_geom_angle_atom_site_label_1
_geom_angle_atom_site_label_2
_geom_angle_atom_site_label_3
_geom_angle
_geom_angle_site_symmetry_1
_geom_angle_site_symmetry_3
C6 O2 Li2 122.60(15) . 3_756
C6 O2 Li2 139.21(16) . .
Li2 O2 Li2 89.67(14) 3_756 .
C1 N1 C5 116.97(17) . .
C1 N1 Li2 126.84(16) . 4_565
C5 N1 Li2 115.98(16) . 4_565
C6 O1 Li2 157.95(19) . 1_455
O1 C6 O2 126.11(18) . .
O1 C6 C3 116.21(17) . .
O2 C6 C3 117.67(16) . .
C4 C3 C2 117.94(17) . .
C4 C3 C6 120.17(16) . .
C2 C3 C6 121.88(17) . .
C1 C2 C3 118.73(18) . .
N1 C5 C4 123.46(18) . .
N1 C1 C2 123.69(18) . .
C5 C4 C3 119.16(18) . .
O1 Li2 O2 125.05(17) 1_655 3_756
O1 Li2 O2 121.30(19) 1_655 .
O2 Li2 O2 90.33(14) 3_756 .
O1 Li2 N1 109.69(17) 1_655 4_666
O2 Li2 N1 104.26(16) 3_756 4_666
O2 Li2 N1 102.74(15) . 4_666
O1 Li2 Li2 140.9(2) 1_655 3_756
O2 Li2 Li2 45.22(10) 3_756 3_756
O2 Li2 Li2 45.10(10) . 3_756
N1 Li2 Li2 109.33(18) 4_666 3_756
C1S_b C2S_b C3S_b 121.7(3) . 3_657
loop_
_geom_bond_atom_site_label_1
_geom_bond_atom_site_label_2
_geom_bond_distance
_geom_bond_site_symmetry_2
O2 C6 1.256(2) .
O2 Li2 1.957(3) 3_756
O2 Li2 1.961(3) .
N1 C1 1.333(3) .
N1 C5 1.343(3) .
N1 Li2 2.057(4) 4_565
O1 C6 1.239(2) .
O1 Li2 1.859(3) 1_455
C6 C3 1.515(3) .
C3 C4 1.388(3) .
C3 C2 1.391(3) .
C2 C1 1.382(3) .
C5 C4 1.375(3) .
Li2 O1 1.859(3) 1_655
Li2 O2 1.957(3) 3_756
Li2 N1 2.057(4) 4_666
Li2 Li2 2.762(6) 3_756
C2S_b C1S_b 1.351(5) .
C2S_b C3S_b 1.375(4) 3_657
