#------------------------------------------------------------------------------
#$Date: 2016-03-23 22:36:42 +0200 (Wed, 23 Mar 2016) $
#$Revision: 179486 $
#$URL: svn://www.crystallography.net/cod/cif/4/33/83/4338389.cif $
#------------------------------------------------------------------------------
#
# This file is available in the Crystallography Open Database (COD),
# http://www.crystallography.net/
#
# All data on this site have been placed in the public domain by the
# contributors.
#
data_4338389
loop_
_publ_author_name
'Abrahams, Brendan F.'
'Dharma, A. David'
'Grannas, Martin J.'
'Hudson, Timothy A.'
'Maynard-Casely, Helen E'
'Oliver, Graham R.'
'Robson, Richard'
'White, Keith F.'
_publ_section_title
;
 Isomeric Ionic Lithium Isonicotinate Three-Dimensional Networks and
 Single-Crystal-to-Single-Crystal Rearrangements Generating Microporous
 Materials.
;
_journal_issue                   10
_journal_name_full               'Inorganic chemistry'
_journal_page_first              4956
_journal_page_last               4969
_journal_paper_doi               10.1021/ic403134c
_journal_volume                  53
_journal_year                    2014
_chemical_formula_sum            'C6 H8 Li N O4'
_chemical_formula_weight         165.07
_chemical_name_systematic
;
 ?
;
_space_group_crystal_system      monoclinic
_space_group_IT_number           9
_space_group_name_Hall           'C -2yc'
_space_group_name_H-M_alt        'C 1 c 1'
_symmetry_space_group_name_Hall  'C -2yc'
_symmetry_space_group_name_H-M   'C 1 c 1'
_atom_sites_solution_hydrogens   mixed
_audit_creation_method           SHELXL-2014
_cell_angle_alpha                90
_cell_angle_beta                 115.463(13)
_cell_angle_gamma                90
_cell_formula_units_Z            4
_cell_length_a                   7.1563(8)
_cell_length_b                   18.8826(12)
_cell_length_c                   6.2227(6)
_cell_measurement_reflns_used    3136
_cell_measurement_temperature    130(2)
_cell_measurement_theta_max      74.30
_cell_measurement_theta_min      4.67
_cell_volume                     759.19(15)
_computing_cell_refinement
;CrysAlisPro, Agilent Technologies,
Version 1.171.36.28 (release 01-02-2013 CrysAlis171 .NET)
(compiled Feb  1 2013,16:14:44)
;
_computing_data_collection
;CrysAlisPro, Agilent Technologies,
Version 1.171.36.28 (release 01-02-2013 CrysAlis171 .NET)
(compiled Feb  1 2013,16:14:44)
;
_computing_data_reduction
;
CrysAlisPro, Agilent Technologies,
Version 1.171.36.28 (release 01-02-2013 CrysAlis171 .NET)
(compiled Feb  1 2013,16:14:44)
;
_computing_structure_refinement  'SHELXL-2014 (Sheldrick, 2014)'
_computing_structure_solution    'SHELXS-1997 (Sheldrick, 1997)'
_diffrn_ambient_temperature      130(2)
_diffrn_detector_area_resol_mean 10.2273
_diffrn_measured_fraction_theta_full 1.000
_diffrn_measured_fraction_theta_max 0.991
_diffrn_measurement_device_type  'SuperNova, Dual, Cu at zero, Atlas'
_diffrn_measurement_method       '\w scans'
_diffrn_radiation_type           CuK\a
_diffrn_radiation_wavelength     1.54184
_diffrn_reflns_av_R_equivalents  0.0446
_diffrn_reflns_av_unetI/netI     0.0305
_diffrn_reflns_Laue_measured_fraction_full 1.000
_diffrn_reflns_Laue_measured_fraction_max 0.991
_diffrn_reflns_limit_h_max       8
_diffrn_reflns_limit_h_min       -8
_diffrn_reflns_limit_k_max       23
_diffrn_reflns_limit_k_min       -23
_diffrn_reflns_limit_l_max       7
_diffrn_reflns_limit_l_min       -7
_diffrn_reflns_number            5499
_diffrn_reflns_point_group_measured_fraction_full 0.960
_diffrn_reflns_point_group_measured_fraction_max 0.938
_diffrn_reflns_theta_full        67.684
_diffrn_reflns_theta_max         74.536
_diffrn_reflns_theta_min         4.684
_diffrn_source                   'SuperNova (Cu) X-ray Source'
_exptl_absorpt_coefficient_mu    1.022
_exptl_absorpt_correction_T_max  1.000
_exptl_absorpt_correction_T_min  0.743
_exptl_absorpt_correction_type   multi-scan
_exptl_absorpt_process_details
;
CrysAlisPro, Agilent Technologies,
Version 1.171.36.28 (release 01-02-2013 CrysAlis171 .NET)
(compiled Feb  1 2013,16:14:44)
Empirical absorption correction using spherical harmonics,
 implemented in SCALE3 ABSPACK scaling algorithm.
;
_exptl_crystal_colour            colourless
_exptl_crystal_density_diffrn    1.444
_exptl_crystal_description       plate
_exptl_crystal_F_000             344
_exptl_crystal_size_max          0.22
_exptl_crystal_size_mid          0.09
_exptl_crystal_size_min          0.06
_refine_diff_density_max         0.172
_refine_diff_density_min         -0.179
_refine_diff_density_rms         0.042
_refine_ls_abs_structure_details
;
 Flack x determined using 629 quotients [(I+)-(I-)]/[(I+)+(I-)]
 (Parsons, Flack and Wagner, Acta Cryst. B69 (2013) 249-259).
;
_refine_ls_abs_structure_Flack   0.0(2)
_refine_ls_extinction_method     none
_refine_ls_goodness_of_fit_ref   1.126
_refine_ls_hydrogen_treatment    mixed
_refine_ls_matrix_type           full
_refine_ls_number_parameters     125
_refine_ls_number_reflns         1459
_refine_ls_number_restraints     2
_refine_ls_restrained_S_all      1.125
_refine_ls_R_factor_all          0.0374
_refine_ls_R_factor_gt           0.0343
_refine_ls_shift/su_max          0.000
_refine_ls_shift/su_mean         0.000
_refine_ls_structure_factor_coef Fsqd
_refine_ls_weighting_details
'w=1/[\s^2^(Fo^2^)+(0.0627P)^2^+0.3411P] where P=(Fo^2^+2Fc^2^)/3'
_refine_ls_weighting_scheme      calc
_refine_ls_wR_factor_gt          0.0904
_refine_ls_wR_factor_ref         0.1057
_reflns_Friedel_coverage         0.880
_reflns_Friedel_fraction_full    0.918
_reflns_Friedel_fraction_max     0.885
_reflns_number_gt                1390
_reflns_number_total             1459
_reflns_threshold_expression     'I > 2\s(I)'
_cod_data_source_file            ic403134c_si_002.cif
_cod_data_source_block           Li_inic_hydrate
_cod_depositor_comments
;
The following automatic conversions were performed:

'_exptl_absorpt_correction_type' value 'Multi-scan' changed to
'multi-scan' according to
/usr/data/users/saulius/crontab/automatic-downloads/rss-feeds/ACS/lib/dictionaries/cif_core.dic
dictionary named 'cif_core.dic' version 2.4.2 from 2011-04-26.

Automatic conversion script
Id: cif_fix_values 2281 2013-09-26 08:29:07Z andrius 

 Adding full bibliography for 4338378--4338389.cif.
;
_cod_original_cell_volume        759.19(14)
_cod_database_code               4338389
#BEGIN Tags that were not found in dictionaries:
_shelx_space_group_comment
;
The symmetry employed for this shelxl refinement is uniquely defined
by the following loop, which should always be used as a source of
symmetry information in preference to the above space-group names.
They are only intended as comments.
;
_shelxl_version_number           2014-1
_shelx_res_file
;
TITL kw_liinich2ob in Cc
CELL  1.54184   7.1563  18.8826   6.2227   90.000  115.463   90.000
ZERR     4.00   0.0008   0.0012   0.0006    0.000    0.013    0.000
LATT  -7
SYMM    X, - Y, 1/2 + Z
SFAC  C    H    LI   N    O
UNIT  24   32   4    4    16
MERG   2
OMIT     0.00 150.00
FMAP   2
PLAN   20
ACTA
BOND
L.S.   8
TEMP  -143.00
WGHT    0.062700    0.341100
FVAR       7.63625
H5    2    0.674422    0.932393    0.519943    11.00000    0.03965
H8    2    0.580044    0.556502    0.642291    11.00000    0.04644
H6    2    0.760631    0.998828    0.584958    11.00000    0.06058
H7    2    0.566621    0.555202    0.886757    11.00000    0.08202
MOLE    1
O2    5    0.327911    0.906270    0.711395    11.00000    0.03738    0.02260 =
         0.03229    0.00008    0.02246   -0.00590
N1    4    0.223461    0.666616    0.986046    11.00000    0.02430    0.01919 =
         0.02883    0.00069    0.01312   -0.00007
O1    5    0.291031    0.931498    1.042239    11.00000    0.02870    0.02122 =
         0.03119   -0.00340    0.01742   -0.00349
O3    5    0.647447    0.974567    0.525988    11.00000    0.02571    0.01797 =
         0.02952   -0.00023    0.01580    0.00058
C4    1    0.267066    0.761934    0.756004    11.00000    0.02638    0.02162 =
         0.02229    0.00018    0.01382   -0.00064
AFIX  43
H4    2    0.285281    0.776611    0.620214    11.00000   -1.20000
AFIX   0
C5    1    0.257173    0.811595    0.915496    11.00000    0.02243    0.01966 =
         0.02361    0.00004    0.01251   -0.00180
C3    1    0.225644    0.787541    1.107747    11.00000    0.03033    0.01942 =
         0.02793    0.00037    0.01722   -0.00073
AFIX  43
H3    2    0.214926    0.820065    1.218392    11.00000   -1.20000
AFIX   0
C6    1    0.293586    0.889564    0.885824    11.00000    0.02117    0.01967 =
         0.02509    0.00046    0.01215   -0.00120
C2    1    0.249963    0.690581    0.797869    11.00000    0.02829    0.02164 =
         0.02804   -0.00316    0.01468   -0.00250
AFIX  43
H2    2    0.257369    0.657042    0.687997    11.00000   -1.20000
AFIX   0
C1    1    0.209933    0.715060    1.136241    11.00000    0.02702    0.02250 =
         0.02737    0.00218    0.01529   -0.00087
AFIX  43
H1    2    0.188551    0.699083    1.268721    11.00000   -1.20000
AFIX   0
LI1   3    0.472259    0.990633    0.696832    11.00000    0.02755    0.01911 =
         0.02915   -0.00040    0.01584    0.00050
MOLE    2
O4    5    0.495621    0.554963    0.718406    11.00000    0.02603    0.03394 =
         0.03521   -0.00041    0.01637   -0.00159
HKLF    4

REM  kw_liinich2ob in Cc
REM R1 =  0.0343 for    1390 Fo > 4sig(Fo)  and  0.0374 for all    1459 data
REM    125 parameters refined using      2 restraints

END

WGHT      0.0627      0.3412

REM Highest difference peak  0.172,  deepest hole -0.179,  1-sigma level  0.042
Q1    1   0.0662  0.7058  1.2212  11.00000  0.05    0.17
Q2    1   0.2480  0.7877  0.8310  11.00000  0.05    0.16
Q3    1   0.1977  0.7546  1.1032  11.00000  0.05    0.16
Q4    1   0.2385  0.8035  0.9951  11.00000  0.05    0.16
Q5    1   0.4510  0.9379  0.8254  11.00000  0.05    0.14
Q6    1   0.3155  0.5882  0.7010  11.00000  0.05    0.14
Q7    1   0.1456  0.9610  0.9770  11.00000  0.05    0.13
Q8    1   0.4237  0.7594  0.6412  11.00000  0.05    0.13
Q9    1   0.2015  0.6953  1.0390  11.00000  0.05    0.12
Q10   1   0.4531  0.8930  0.8170  11.00000  0.05    0.12
Q11   1   0.2712  0.7333  0.7948  11.00000  0.05    0.12
Q12   1   0.3370  0.6438  0.7244  11.00000  0.05    0.12
Q13   1   0.3521  0.6170  1.3777  11.00000  0.05    0.12
Q14   1   0.6379  0.5089  0.5255  11.00000  0.05    0.12
Q15   1   0.1861  0.8685  1.1511  11.00000  0.05    0.12
Q16   1   0.1777  0.8987  1.0039  11.00000  0.05    0.11
Q17   1   0.8452  0.9881  0.8657  11.00000  0.05    0.11
Q18   1   0.0353  0.7913  1.2575  11.00000  0.05    0.11
Q19   1   0.5527  0.6286  0.5294  11.00000  0.05    0.11
Q20   1   0.0790  0.8123  1.1597  11.00000  0.05    0.10
;
_shelx_res_checksum              92043
_shelx_hkl_file
;
  -8   0   1-40.2142 72.7043  30
  -8   0   2 16574.0 668.296  30
  -8   0   3-42.4972 69.5271  30
  -8   0   4 20966.2 791.222  30
  -8   0   4 23212.4 958.371  41
  -8   0   5-144.742 83.8832  35
  -8   0   5 2212.22 274.864  41
  -8   0   6 1459.95 169.719  35
  -8  -2   1 74.8553 69.8777  30
  -8   2   1 239.460 98.5414  32
  -8  -2   2 6361.85 421.548  30
  -8   2   3 15099.6 804.962  41
  -8  -2   3 7969.36 502.151  30
  -8   2   4 6470.74 509.764  41
  -8  -2   4 4727.33 380.063  30
  -8   2   5 576.013 132.105  35
  -8  -2   5 518.569 133.681  35
  -8  -4   1 1787.48 201.295  30
  -8   4   1 1835.59 213.153  32
  -8   4   2 992.762 179.863  32
  -8  -4   2 1098.52 177.742  30
  -8  -4   3 894.574 175.134  30
  -8   4   3 7102.77 536.540  41
  -8  -4   4 14962.2 680.114  30
  -8   4   4 15472.9 771.562  41
  -8   4   5 24180.9 855.358  41
  -8  -4   5 14727.2 608.328  35
  -8  -6   1 2047.26 198.512  30
  -8   6   1 2162.94 212.011  32
  -8  -6   2 2885.10 268.616  30
  -8   6   2 2621.24 255.951  32
  -8   6   3 8396.49 546.330  41
  -8  -6   3 2680.91 276.104  30
  -8   6   4 1902.09 275.211  41
  -8  -6   4 1384.77 197.182  30
  -8   6   5 9042.57 503.768  41
  -8  -8   1 350.062 82.2801  30
  -8   8   2 3022.73 229.931  32
  -8  -8   2 3582.68 274.810  30
  -8  -8   3 1455.47 200.615  30
  -8   8   3 7480.22 488.347  41
  -8   8   4 2352.32 271.357  41
  -8   8   5 3133.89 263.202  41
  -8 -10   3 22862.9 667.414  30
  -7  -1  -1 9210.30 450.944  30
  -7   1  -1 9105.82 442.572  32
  -7  -1   0 4669.03 393.712  30
  -7   1   0 4511.08 370.128  30
  -7  -1   0 4903.05 422.507  32
  -7   1   0 4690.67 414.812  32
  -7   1   1 409.538 166.141  32
  -7   1   1 541.289 155.032  30
  -7  -1   1 525.653 172.077  30
  -7  -1   1 533.829 172.984  32
  -7   1   2 526.970 191.150  32
  -7   1   2 448.767 165.427  30
  -7  -1   2 392.325 173.609  32
  -7  -1   2 423.000 165.017  30
  -7   1   3 6247.93 541.514  32
  -7  -1   3 6862.57 539.986  30
  -7  -1   3 6043.84 594.549  41
  -7   1   3 5145.13 557.910  41
  -7   1   3 6018.16 498.244  30
  -7  -1   4 2570.63 374.528  41
  -7  -1   4 3294.20 386.579  30
  -7  -1   4 3586.99 424.261  35
  -7   1   4 3731.01 387.391  30
  -7   1   4 3729.85 421.958  35
  -7   1   4 2640.95 391.993  41
  -7   1   5 11634.4 740.653  41
  -7   1   5 12714.3 783.408  35
  -7  -1   5 13159.4 800.548  35
  -7   1   6 82.2358 102.206  35
  -7  -1   6-49.8453 90.9436  35
  -7   3  -1 28782.2 857.469  32
  -7  -3  -1 27493.9 848.165  30
  -7   3   0 4343.93 400.053  32
  -7  -3   0 4368.49 384.893  30
  -7  -3   1 5114.40 452.636  30
  -7   3   1 4745.47 454.727  32
  -7   3   2 4896.61 478.416  32
  -7  -3   2 5018.42 472.315  30
  -7   3   2 5553.46 581.624  41
  -7   3   3 2944.69 366.048  32
  -7  -3   3 3330.91 392.111  30
  -7   3   3 2323.15 388.305  41
  -7   3   4 9503.49 669.694  35
  -7  -3   4 8121.71 639.020  35
  -7   3   4 9203.44 721.919  41
  -7  -3   4 9657.23 652.963  30
  -7   3   5 18708.6 940.399  35
  -7   3   5 18083.9 944.965  41
  -7  -3   5 17764.2 942.054  35
  -7  -3   6 3126.76 346.776  35
  -7   3   6 3345.37 350.116  35
  -7   5  -1 4190.02 297.936  32
  -7  -5  -1 4125.04 291.614  30
  -7  -5   0 4534.68 377.904  30
  -7   5   0 4362.69 382.713  32
  -7   5   1 3446.85 375.240  32
  -7  -5   1 3486.66 367.956  30
  -7   5   2 3671.44 495.432  41
  -7   5   2 3104.87 375.668  32
  -7  -5   2 3224.82 374.302  30
  -7  -5   3 6148.48 517.262  30
  -7   5   3 5088.88 551.663  41
  -7   5   3 5891.29 481.848  32
  -7   5   4 10777.2 768.682  41
  -7  -5   4 9160.41 659.565  35
  -7  -5   4 11698.8 710.071  30
  -7   5   4 10860.1 696.338  35
  -7  -5   5 19799.4 980.225  35
  -7   5   5 22466.7 1051.04  41
  -7   5   5 22169.0 995.467  35
  -7  -5   6 16381.9 764.632  35
  -7   5   6 17204.7 770.959  41
  -7   7  -1 997.691 137.758  32
  -7  -7  -1 969.971 138.110  30
  -7   7   0 5804.23 415.804  32
  -7  -7   0 6333.83 425.147  30
  -7  -7   1 12636.4 683.708  30
  -7   7   1 13146.8 700.495  32
  -7  -7   2 3009.60 349.957  30
  -7   7   2 3927.51 477.792  41
  -7   7   2 3608.75 373.010  32
  -7   7   3 2764.71 408.960  39
  -7  -7   3 2912.52 353.433  30
  -7   7   3 2463.90 386.322  41
  -7   7   3 2501.73 286.627  32
  -7  -7   4 7364.62 547.690  30
  -7   7   4 7126.93 607.879  41
  -7  -7   4 6252.59 525.612  35
  -7   7   5 2788.32 359.188  41
  -7  -7   5 2144.13 308.701  35
  -7  -7   6 1806.25 235.732  35
  -7   7   6 2237.79 271.217  41
  -7  -9   0 2303.13 228.521  30
  -7   9   0 2450.08 243.149  32
  -7   9   1 1399.52 214.180  32
  -7  -9   1 1341.20 217.256  30
  -7   9   2 3089.36 398.175  39
  -7  -9   2 3243.07 341.799  30
  -7   9   2 3190.53 316.687  32
  -7   9   3 8136.76 629.395  41
  -7  -9   3 9676.94 599.586  30
  -7   9   3 9267.20 679.806  39
  -7  -9   4 25588.3 973.606  30
  -7   9   4 25212.6 1083.89  39
  -7   9   4 24904.1 1081.66  41
  -7   9   5 1671.86 257.535  41
  -7  -9   5 1269.22 216.265  35
  -7   9   6 2257.77 235.265  41
  -7  -9   6 2123.79 215.494  35
  -7  11   0 3894.69 259.469  32
  -7  11   1 1802.26 208.665  32
  -7 -11   1 1779.93 208.831  30
  -7 -11   2 17099.1 705.379  30
  -7  11   2 18285.6 868.776  39
  -7  11   3 11873.3 668.844  41
  -7  11   3 13742.9 760.427  39
  -7 -11   3 13422.8 635.565  30
  -7 -11   4 558.812 138.941  35
  -7  11   4 566.651 169.970  41
  -7  11   4 1046.75 197.765  39
  -7 -11   5 461.201 116.740  35
  -7  11   5 257.653 118.167  41
  -7  13   3 1708.26 234.617  39
  -6   0  -2 8042.72 472.955  30
  -6   0  -1-88.3387 114.948  30
  -6   0  -1 200.403 105.063  32
  -6   0   0 9030.87 629.353  30
  -6   0   0 9105.01 654.959  32
  -6   0   1 79.9557 94.3327  32
  -6   0   1-28.3395 115.794  30
  -6   0   2 7964.27 951.759   3
  -6   0   2 9363.85 758.575  41
  -6   0   2 13110.1 750.066  30
  -6   0   2 11478.8 749.414  32
  -6   0   3 119.059 143.736  35
  -6   0   3-66.8618 111.366  32
  -6   0   3 5.32562 100.850  30
  -6   0   4 3900.09 499.941  35
  -6   0   4 3779.81 459.830  41
  -6   0   4 3372.23 398.635  30
  -6   0   5 279.360 119.651  41
  -6   0   5-4.15664 154.318  35
  -6   0   6 36737.8 1431.50  35
  -6   0   7-62.0558 88.3385  35
  -6  -2  -2 2944.81 286.686  30
  -6   2  -2 2189.74 225.377  30
  -6  -2  -1 10313.1 604.961  32
  -6   2  -1 10670.4 651.090  32
  -6  -2  -1 10612.2 657.130  30
  -6   2  -1 9748.61 586.696  30
  -6   2   0 70310.5 2014.61  32
  -6  -2   0 68107.4 1979.24  32
  -6  -2   0 74365.6 2019.98  30
  -6   2   0 71989.4 1906.28  30
  -6  -2   1 5441.82 499.654  30
  -6   2   1 5068.66 448.273  30
  -6   2   1 5164.43 599.390  41
  -6   2   1 4593.83 471.261  32
  -6  -2   1 4846.38 488.662  32
  -6  -2   2 36773.4 1537.21  41
  -6  -2   2 31809.2 1979.58   3
  -6   2   2 38475.7 1586.16  41
  -6  -2   2 44377.6 1470.93  30
  -6   2   2 43213.2 1495.96  32
  -6   2   2 41900.0 1359.77  30
  -6  -2   2 39704.6 1461.89  32
  -6  -2   3 4108.77 437.927  30
  -6   2   3 4108.46 407.464  30
  -6  -2   3 4473.72 500.868  35
  -6   2   3 4316.87 529.043  39
  -6   2   3 4280.42 509.975  41
  -6   2   3 4213.91 447.328  32
  -6  -2   3 3301.46 442.126  41
  -6   2   3 4241.37 467.784  35
  -6  -2   4 4910.50 526.236  41
  -6  -2   4 6986.40 585.115  30
  -6  -2   4 7143.40 671.985  35
  -6   2   4 7339.47 661.426  35
  -6   2   4 6337.24 625.487  41
  -6   2   4 6584.46 541.705  30
  -6   2   5 534.969 196.275  41
  -6  -2   5 641.463 240.691  35
  -6   2   5 525.489 220.663  35
  -6   2   6 11662.5 767.990  35
  -6   2   6 10821.6 686.634  41
  -6  -2   6 11014.8 751.952  35
  -6   2   7 561.750 150.626  35
  -6  -2   7 463.697 144.953  35
  -6   4  -2 2548.54 246.357  32
  -6  -4  -2 2864.81 280.454  30
  -6  -4  -1 950.708 220.314  30
  -6   4  -1 904.784 204.888  32
  -6  -4   0 430.313 166.855  30
  -6  -4   0 117.108 93.6829  32
  -6   4   0 105.583 110.096  32
  -6  -4   1 800.920 228.408  32
  -6  -4   1 1052.97 237.020  30
  -6  -4   1 1054.12 193.682  27
  -6   4   1 1086.15 314.943  41
  -6   4   1 1216.05 256.716  32
  -6   4   1 1240.80 284.389  39
  -6  -4   2 6684.56 551.350  30
  -6   4   2 5144.05 584.170  41
  -6   4   2 6407.97 552.756  32
  -6   4   2 6368.25 639.588  39
  -6  -4   3 11393.7 803.815  35
  -6   4   3 11527.3 769.317  35
  -6  -4   3 8420.39 661.737  41
  -6  -4   3 11558.0 732.105  30
  -6   4   3 10457.8 684.911  32
  -6   4   3 11037.7 844.828  39
  -6   4   3 11282.5 832.761  41
  -6  -4   4 24274.0 1259.32  35
  -6  -4   4 22885.2 1082.04  30
  -6   4   4 24397.2 1202.79  35
  -6   4   4 22781.0 1210.36  39
  -6   4   4 23667.4 1220.25  41
  -6  -4   5 42458.2 1683.74  35
  -6   4   5 42855.3 1616.10  35
  -6   4   5 40365.0 1598.75  41
  -6   4   6 4398.43 462.653  35
  -6   4   6 4056.03 434.701  41
  -6  -4   6 3700.16 437.967  35
  -6  -4   7 1477.48 208.605  35
  -6  -6  -2 1910.70 221.170  30
  -6   6  -2 1716.07 196.169  32
  -6  -6  -1 2594.02 321.257  30
  -6   6  -1 2815.20 326.618  32
  -6   6   0 9976.87 671.300  32
  -6  -6   0 9602.90 659.002  30
  -6  -6   0 8025.74 510.257  27
  -6   6   1 5642.37 626.133  41
  -6  -6   1 6639.73 555.666  30
  -6   6   1 6637.82 564.308  32
  -6   6   1 6251.62 624.175  39
  -6  -6   1 6061.05 475.357  27
  -6  -6   2 34.1787 122.972  27
  -6   6   2 214.886 166.114  39
  -6   6   2 87.9874 151.279  32
  -6  -6   2 20.1897 116.856  30
  -6  -6   3 15903.1 873.599  30
  -6  -6   3 14459.9 917.755  35
  -6   6   3 14939.5 989.197  39
  -6   6   3 14945.6 881.149  35
  -6   6   3 14513.6 955.351  41
  -6  -6   3 13574.5 752.179  31
  -6   6   4 112.233 147.967  35
  -6   6   4 196.756 158.061  39
  -6  -6   4 68.6223 102.786  30
  -6   6   4 77.8865 128.841  41
  -6  -6   4 203.462 191.181  35
  -6   6   5 18271.0 1028.18  41
  -6  -6   5 17708.2 1047.93  35
  -6   6   5 19127.4 1024.29  35
  -6   6   6 976.491 230.889  41
  -6   6   6 852.764 217.888  35
  -6  -6   6 807.859 238.088  35
  -6   8  -2 1127.77 150.112  32
  -6  -8  -2 1276.13 162.417  30
  -6  -8  -1 2690.63 241.720  27
  -6   8  -1 3602.84 352.096  32
  -6  -8  -1 3267.15 329.059  30
  -6  -8   0 3658.20 392.603  30
  -6   8   0 3857.51 408.301  32
  -6  -8   0 3397.79 331.354  27
  -6   8   1-39.1304 121.359  39
  -6  -8   1-11.7447 85.0377  30
  -6   8   1 25.5497 112.142  32
  -6   8   1 383.203 263.732  41
  -6  -8   1 28.4266 106.082  27
  -6  -8   2 18996.1 944.956  30
  -6  -8   2 15717.4 780.915  31
  -6   8   2 16366.8 1021.03  41
  -6   8   2 18336.0 905.443  32
  -6   8   2 18161.8 1077.44  39
  -6  -8   2 16916.9 826.347  27
  -6   8   3 1646.43 333.173  39
  -6  -8   3 1333.25 297.792  35
  -6   8   3 1616.92 334.141  41
  -6  -8   3 1659.34 289.900  30
  -6  -8   3 1235.73 257.190  31
  -6  -8   4-148.329 159.862  35
  -6   8   4 268.601 174.914  41
  -6   8   4-8.30747 108.162  39
  -6  -8   4 311.055 152.545  30
  -6   8   4 27.2990 166.759  35
  -6   8   5 2026.29 333.273  35
  -6  -8   5 1406.75 306.425  35
  -6   8   5 1442.48 304.624  41
  -6  -8   6 3034.92 364.872  35
  -6   8   6 3397.67 372.683  41
  -6 -10  -1 8429.35 472.686  30
  -6  10  -1 9314.46 518.393  32
  -6 -10   0 912.578 176.466  27
  -6 -10   0 990.178 210.458  30
  -6  10   0 1185.33 219.231  32
  -6 -10   1 6240.86 502.883  30
  -6  10   1 6051.61 582.909  39
  -6  10   1 6617.39 527.555  32
  -6  10   1 6398.94 576.951  41
  -6 -10   1 5663.37 455.200  27
  -6 -10   2 5558.09 464.978  27
  -6 -10   2 6751.80 532.994  30
  -6  10   2 5319.39 557.187  41
  -6  10   2 6645.28 502.898  32
  -6 -10   2 5760.96 474.545  31
  -6  10   2 6700.78 633.887  39
  -6 -10   3 35537.5 1263.40  31
  -6  10   3 39061.0 1576.50  39
  -6  10   3 36327.3 1493.08  41
  -6 -10   3 38340.2 1347.24  30
  -6 -10   4 10789.6 672.945  30
  -6 -10   4 9280.21 738.041  35
  -6  10   4 10965.7 780.499  41
  -6  10   4 10653.9 753.844  39
  -6  10   5 4057.08 441.196  41
  -6 -10   5 3655.26 433.405  35
  -6  10   6 3202.85 326.122  41
  -6 -10   6 2336.00 285.231  35
  -6  12  -1 7110.13 390.122  32
  -6 -12  -1 6395.75 321.378  27
  -6  12   0 1562.59 229.269  32
  -6 -12   0 1298.24 190.873  27
  -6 -12   0 1153.73 181.776  30
  -6 -12   1 16853.1 742.496  27
  -6  12   1 17361.4 921.303  39
  -6  12   1 17835.3 795.507  32
  -6 -12   1 17936.3 768.975  30
  -6 -12   2 12799.2 666.555  31
  -6 -12   2 14134.2 707.871  30
  -6  12   2 14179.8 872.972  39
  -6 -12   3 7774.07 610.340  35
  -6 -12   3 9482.19 596.467  31
  -6 -12   3 9383.05 580.286  30
  -6  12   3 10647.5 753.360  39
  -6  12   3 8328.28 636.703  41
  -6  12   4 6519.29 546.132  39
  -6  12   4 6055.44 528.920  41
  -6 -12   4 5432.55 516.435  35
  -6 -12   5 14176.9 761.677  35
  -6  12   5 17093.9 806.564  41
  -6 -12   6 797.229 146.312  35
  -6  12   6 1040.44 151.128  41
  -6 -14   0 2004.33 198.417  27
  -6  14   0 2064.62 214.356  32
  -6  14   1 2978.16 266.242  32
  -6  14   1 3186.95 342.404  39
  -6 -14   1 2222.00 215.446  31
  -6 -14   1 2940.01 274.864  27
  -6  14   2 1964.15 302.500  39
  -6 -14   2 1785.62 235.207  31
  -6 -14   3 899.711 190.980  35
  -6 -14   3 1317.16 216.189  31
  -6  14   3 1469.49 258.250  39
  -6  14   4 3846.82 350.987  41
  -6 -14   4 3763.12 375.580  35
  -6  14   5 2680.69 249.351  41
  -6 -14   5 2862.79 280.323  35
  -6  16   1 9656.74 457.467  39
  -6  16   2 3490.09 327.581  39
  -6 -16   2 2490.53 223.620  31
  -6 -16   3 2967.89 258.186  31
  -6  16   3 4181.11 354.455  39
  -6 -16   4 1155.49 155.501  35
  -5   1  -3 1853.62 240.097  30
  -5  -1  -3 1944.91 250.715  30
  -5   1  -2 9902.39 602.569  32
  -5   1  -2 10404.6 583.455  43
  -5  -1  -2 10307.5 607.086  43
  -5  -1  -2 10527.7 648.493  46
  -5   1  -2 9925.66 629.981  46
  -5   1  -1 69760.1 1889.87  30
  -5  -1  -1 68862.3 1912.92  30
  -5   1  -1 62261.9 1823.67  32
  -5  -1  -1 58735.1 1753.26  32
  -5   1  -1 62665.5 1776.23  46
  -5  -1  -1 59580.2 1727.86  46
  -5  -1   0 17236.4 864.009  30
  -5  -1   0 7989.67 935.390   3
  -5   1   0 16799.6 857.308  32
  -5   1   0 14881.5 941.811  41
  -5   1   0 17025.8 803.548  46
  -5   1   0 17208.8 832.873  30
  -5   1   0 7733.29 917.501   3
  -5  -1   0 15768.9 826.773  32
  -5   1   1 430.143 170.613  41
  -5  -1   1 755.617 180.519  32
  -5   1   1 692.432 177.332  32
  -5  -1   1 6.84163 126.604  41
  -5  -1   1 822.645 311.746   3
  -5   1   1 825.980 287.826   3
  -5   1   2 18418.2 1272.89   3
  -5   1   2 22778.3 1433.59   7
  -5  -1   2 20908.6 1397.32   3
  -5   1   3 2944.46 392.319  41
  -5  -1   3 3691.82 443.300  35
  -5  -1   3 3129.60 526.975   7
  -5   1   3 3670.90 604.199   7
  -5   1   3 3554.90 436.860  35
  -5  -1   3 3110.22 365.333  32
  -5   1   3 3073.26 409.698  39
  -5  -1   3 3150.87 359.307  30
  -5   1   4 5051.52 533.757  41
  -5  -1   4 4123.28 659.691   7
  -5  -1   4 5242.65 489.967  30
  -5  -1   4 4086.98 454.839  41
  -5   1   4 5161.03 747.473   7
  -5  -1   4 5693.92 586.982  35
  -5   1   4 4997.43 470.159  30
  -5   1   4 5698.86 575.429  35
  -5   1   5 4674.92 558.239  35
  -5  -1   5 3371.59 357.453  29
  -5   1   5 4355.62 488.040  41
  -5  -1   5 5100.42 583.392  35
  -5   1   6 5131.89 549.251  35
  -5  -1   6 4875.43 536.408  35
  -5   1   6 4016.57 393.699  29
  -5   1   6 3688.88 418.266  41
  -5  -1   6 4020.84 396.486  29
  -5   1   7 1574.82 228.667  35
  -5   1   7 2409.36 253.141  29
  -5  -1   7 2383.88 255.103  29
  -5  -1   7 1377.71 214.035  35
  -5   3  -3 3333.07 304.917  46
  -5  -3  -3 3408.47 321.194  30
  -5  -3  -2 621.402 190.676  30
  -5   3  -2 517.301 142.217  32
  -5   3  -2 535.483 161.408  30
  -5   3  -2 487.190 163.396  46
  -5   3  -1 21502.3 1019.00  32
  -5  -3  -1 22796.7 1039.27  30
  -5   3  -1 22320.1 975.092  46
  -5   3  -1 21977.2 962.035  30
  -5  -3  -1 19513.0 909.695  32
  -5  -3   0 18036.9 888.450  32
  -5   3   0 15594.1 1007.72  41
  -5   3   0 17038.3 805.468  30
  -5  -3   0 20333.8 945.380  30
  -5   3   0 18321.2 911.218  32
  -5   3   0 15579.0 926.498  39
  -5  -3   0 17021.5 1408.99   3
  -5   3   0 18798.7 850.157  46
  -5   3   1 11247.8 673.731  32
  -5  -3   1 11975.3 695.386  30
  -5   3   1 9391.21 721.655  41
  -5   3   1 10197.2 743.128  39
  -5  -3   1 9613.26 713.348  41
  -5  -3   1 10181.4 643.734  32
  -5  -3   2 6748.62 527.456  32
  -5   3   2 7143.29 846.583   7
  -5  -3   2 8267.26 903.070   3
  -5  -3   2 7521.97 539.281  30
  -5   3   2 7012.04 600.451  39
  -5   3   2 6685.53 583.323  41
  -5   3   3 42994.0 1583.46  41
  -5   3   3 43959.3 2160.91   7
  -5  -3   3 44316.7 1429.67  30
  -5   3   3 41821.1 1580.69  39
  -5  -3   3 48275.3 1697.11  35
  -5   3   3 46481.8 1591.42  35
  -5  -3   4 45484.8 1548.05  30
  -5   3   4 47195.5 1759.24  41
  -5   3   4 40004.3 1556.43  39
  -5  -3   4 54411.6 1896.49  35
  -5   3   4 53107.3 1798.09  35
  -5   3   4 48049.0 2409.32   7
  -5   3   4 39455.6 1370.26  30
  -5  -3   5 42803.8 1738.19  35
  -5   3   5 39822.3 1625.66  41
  -5   3   5 43494.6 1686.62  35
  -5  -3   6 12296.1 705.297  29
  -5   3   6 13465.0 843.821  41
  -5   3   6 12253.2 678.014  29
  -5   3   6 14880.5 912.423  35
  -5  -3   6 14901.1 930.346  35
  -5   3   7 6187.95 388.548  29
  -5  -3   7 5708.46 388.293  29
  -5  -5  -3 18787.4 747.857  30
  -5   5  -3 19502.7 718.268  46
  -5   5  -2 426.978 145.537  46
  -5  -5  -2 346.926 147.381  30
  -5   5  -2 479.535 149.203  32
  -5  -5  -1 769.414 214.101  30
  -5   5  -1 788.810 196.884  32
  -5   5  -1 898.770 200.384  46
  -5  -5  -1 577.234 169.894  27
  -5   5   0 12457.9 750.633  32
  -5   5   0 11091.1 630.335  46
  -5  -5   0 10193.1 598.559  27
  -5  -5   0 10022.7 1104.93   3
  -5   5   0 9938.76 793.243  41
  -5  -5   0 12709.9 758.607  30
  -5  -5   0 11101.9 692.703  32
  -5   5   0 10329.6 745.246  39
  -5  -5   1 29602.7 1837.86   3
  -5  -5   1 33565.2 1260.74  32
  -5   5   1 34533.6 1433.70  39
  -5  -5   1 37841.7 1320.18  30
  -5   5   1 30793.5 1380.55  41
  -5  -5   1 30937.4 1094.67  27
  -5   5   1 37244.7 1310.36  32
  -5   5   2 8883.69 694.743  41
  -5   5   2 9234.50 700.772  39
  -5   5   2 8483.34 583.028  32
  -5  -5   2 9597.72 625.016  30
  -5  -5   2 8419.09 546.472  27
  -5  -5   2 9505.50 984.656   3
  -5   5   2 9085.14 974.379   7
  -5   5   3 9893.85 752.500  39
  -5   5   3 10018.2 749.516  41
  -5  -5   3 8827.41 606.206  31
  -5  -5   3 11003.9 814.333  35
  -5   5   3 10799.7 743.133  35
  -5  -5   3 9889.46 656.779  30
  -5   5   3 10622.3 1091.98   7
  -5  -5   3 7922.63 873.057   3
  -5   5   4 12831.4 857.250  35
  -5   5   4 11904.6 1224.78   7
  -5   5   4 12417.3 874.224  41
  -5   5   4 11150.1 798.929  39
  -5  -5   4 12764.5 918.874  35
  -5  -5   4 12311.7 778.379  30
  -5   5   5 7654.28 700.306  41
  -5   5   5 8142.31 700.236  35
  -5  -5   5 7550.91 718.038  35
  -5   5   6 16799.3 770.936  29
  -5   5   6 20793.6 1038.82  35
  -5  -5   6 18016.6 1016.99  35
  -5   5   6 19534.3 1029.49  41
  -5   5   7 531.169 143.372  41
  -5  -5   7 807.755 151.018  29
  -5  -7  -3 999.780 165.875  30
  -5   7  -3 872.451 148.804  46
  -5  -7  -2 500.636 129.803  27
  -5   7  -2 767.062 178.521  46
  -5  -7  -2 424.659 145.864  30
  -5   7  -2 737.733 183.624  32
  -5   7  -1 9896.08 603.786  46
  -5  -7  -1 9310.38 579.462  27
  -5   7  -1 10099.6 687.592  32
  -5  -7  -1 10293.7 689.312  30
  -5  -7   0 764.312 195.885  30
  -5   7   0 838.249 205.996  39
  -5   7   0 1293.68 371.492  41
  -5  -7   0 1068.62 225.825  27
  -5   7   0 907.556 221.058  32
  -5  -7   0 451.020 257.931   3
  -5  -7   1 1725.51 280.461  30
  -5   7   1 1884.00 340.088  39
  -5   7   1 1664.85 284.583  32
  -5  -7   1 1324.56 245.439  27
  -5  -7   1 1336.03 407.831   3
  -5   7   1 887.063 249.636  41
  -5  -7   2 13337.7 732.311  31
  -5  -7   2 13516.5 856.270  35
  -5  -7   2 15345.0 775.263  27
  -5   7   2 15743.3 955.730  39
  -5  -7   2 15463.5 1310.05   3
  -5   7   2 16118.5 976.484  41
  -5  -7   2 16963.6 865.308  30
  -5   7   2 14203.7 810.314  35
  -5   7   2 14867.2 780.380  32
  -5   7   3 4275.91 489.096  35
  -5   7   3 3928.82 500.660  39
  -5   7   3 3487.10 660.702   7
  -5  -7   3 3582.03 410.298  31
  -5  -7   3 3736.16 416.644  30
  -5   7   3 3864.08 482.783  41
  -5  -7   3 3935.42 515.785  35
  -5  -7   3 3549.52 608.450   3
  -5  -7   4 1362.34 337.162  35
  -5   7   4 1443.22 301.708  39
  -5  -7   4 1479.21 288.021  31
  -5   7   4 1326.75 294.919  35
  -5  -7   4 1457.24 291.967  30
  -5   7   4 1069.92 276.956  41
  -5   7   5 4760.06 539.593  35
  -5  -7   5 3900.81 464.123  50
  -5   7   5 4676.26 545.649  41
  -5  -7   5 4424.31 548.009  35
  -5   7   6 3947.20 445.104  35
  -5  -7   6 2977.50 407.828  35
  -5   7   6 3834.43 441.307  41
  -5  -7   7 2068.40 207.395  29
  -5   7   7 1895.25 236.121  41
  -5  -9  -3 132.293 70.0915  30
  -5   9  -2 10685.1 623.624  32
  -5   9  -2 10232.2 517.306  46
  -5  -9  -2 10693.7 601.688  30
  -5  -9  -2 10102.5 514.245  27
  -5  -9  -1 16740.1 784.038  27
  -5   9  -1 18100.1 919.262  32
  -5  -9  -1 17693.0 876.693  30
  -5  -9   0 9410.78 657.523  30
  -5  -9   0 8029.17 564.471  27
  -5   9   0 8302.03 657.438  39
  -5   9   0 8823.67 650.677  32
  -5   9   1 14771.2 963.598  39
  -5  -9   1 15941.6 847.169  30
  -5   9   1 12317.4 848.149  41
  -5  -9   1 14617.8 769.197  27
  -5  -9   1 12718.3 707.086  31
  -5   9   1 15671.3 864.184  32
  -5  -9   2 31722.4 1171.64  27
  -5  -9   2 32123.2 1212.20  31
  -5  -9   2 35988.7 1307.15  30
  -5   9   2 30235.7 1159.01  32
  -5   9   2 34492.0 1533.49  44
  -5  -9   2 29091.2 1347.20  35
  -5   9   2 33427.3 1473.76  39
  -5   9   2 32997.1 1439.42  41
  -5  -9   3 6278.75 543.906  30
  -5   9   3 5501.34 584.976  44
  -5   9   3 6355.06 635.337  39
  -5  -9   3 6251.05 663.288  35
  -5   9   3 5834.54 611.557  41
  -5   9   3 6568.63 615.623  35
  -5  -9   3 5534.95 514.192  31
  -5  -9   4 8697.36 645.448  31
  -5   9   4 9390.56 743.627  35
  -5  -9   4 9372.62 684.165  30
  -5   9   4 9833.52 769.758  39
  -5  -9   4 9297.26 811.472  35
  -5   9   4 9930.92 796.055  41
  -5  -9   5 11997.3 884.017  35
  -5   9   5 12248.7 847.360  41
  -5   9   5 13514.2 864.602  35
  -5  -9   6 2717.02 373.820  35
  -5   9   6 3025.81 378.579  41
  -5 -11  -2 1857.48 209.285  27
  -5  11  -2 1974.24 248.719  32
  -5 -11  -2 1744.61 206.381  30
  -5 -11  -1 85.0416 87.6994  27
  -5 -11  -1-46.9402 80.2443  30
  -5  11  -1 75.6268 122.453  32
  -5 -11   0 11884.3 691.309  30
  -5  11   0 11082.9 758.496  39
  -5  11   0 11418.2 736.444  32
  -5 -11   0 10191.6 631.973  27
  -5 -11   1 7858.36 570.994  31
  -5  11   1 7986.14 710.045  39
  -5 -11   1 8235.65 582.151  30
  -5  11   1 8463.62 619.147  32
  -5 -11   1 8008.59 566.747  27
  -5 -11   2 3598.79 469.319  35
  -5 -11   2 3811.17 434.103  31
  -5 -11   2 4083.12 415.887  30
  -5  11   2 4197.76 519.685  39
  -5  11   2 4009.67 524.992  44
  -5  11   2 3724.09 466.997  41
  -5 -11   2 3704.52 392.880  27
  -5 -11   3 73518.0 2429.39  35
  -5 -11   3 77812.5 2073.94  30
  -5 -11   3 75782.0 2085.23  31
  -5  11   3 80085.4 2445.14  39
  -5  11   3 77272.3 2354.64  41
  -5  11   3 79933.6 2442.62  44
  -5 -11   4 29507.3 1201.76  31
  -5 -11   4 29941.0 1465.71  35
  -5  11   4 32131.4 1388.83  39
  -5  11   4 31633.8 1430.01  41
  -5 -11   5 5029.27 545.280  35
  -5  11   5 5741.91 555.422  41
  -5 -11   6 2712.41 329.965  35
  -5  11   6 3622.00 367.642  41
  -5 -13  -2 14181.7 512.303  27
  -5  13  -2 14804.1 586.861  32
  -5 -13  -1 2814.36 286.288  27
  -5  13  -1 2843.39 317.972  32
  -5  13   0 3042.94 359.036  32
  -5  13   0 2846.73 360.839  39
  -5 -13   0 2934.88 302.834  31
  -5 -13   0 2893.72 328.596  27
  -5  13   1 1951.65 293.426  32
  -5  13   1 1682.36 316.491  39
  -5 -13   1 2003.73 294.762  31
  -5 -13   1 1646.10 264.396  27
  -5 -13   2 1050.07 221.387  27
  -5 -13   2 641.376 214.583  35
  -5  13   2 1293.39 284.263  39
  -5 -13   2 1027.11 249.598  31
  -5  13   2 836.653 245.353  44
  -5 -13   3 155.842 171.993  31
  -5 -13   3 140.159 177.466  35
  -5  13   3 80.3829 136.045  39
  -5  13   3 143.406 137.116  41
  -5  13   3 125.056 119.663  44
  -5 -13   4 2753.86 422.198  35
  -5 -13   4 2443.03 324.881  31
  -5  13   4 2518.13 370.417  41
  -5  13   4 2474.91 351.749  44
  -5  13   4 2910.35 382.730  39
  -5  13   5 1653.81 279.251  41
  -5 -13   5 1376.75 274.645  35
  -5  13   6 2532.96 251.018  41
  -5 -13   6 1540.32 199.504  35
  -5 -15  -1 1965.41 209.208  27
  -5  15  -1 2075.37 230.414  32
  -5  15   0 1670.68 237.083  32
  -5 -15   0 1354.45 215.249  27
  -5 -15   0 1287.71 187.416  31
  -5  15   1 17867.8 946.269  39
  -5  15   1 15726.9 697.103  32
  -5 -15   1 16685.7 756.223  27
  -5 -15   1 16874.0 771.233  31
  -5 -15   2 3772.05 390.380  31
  -5 -15   2 3302.95 395.357  35
  -5  15   2 4224.40 494.165  44
  -5  15   2 4503.18 494.088  39
  -5 -15   3 3254.09 416.148  35
  -5 -15   3 4119.95 401.039  31
  -5  15   3 4367.14 475.486  39
  -5  15   3 4236.32 475.301  44
  -5 -15   4 4408.14 469.535  35
  -5  15   4 3841.12 371.882  41
  -5  15   4 4676.27 428.589  39
  -5 -15   4 4519.15 402.223  31
  -5 -15   5 2564.29 299.662  35
  -5  15   5 2432.60 257.368  41
  -5 -17   0 475.543 105.334  31
  -5  17   0 451.555 98.3839  32
  -5 -17   0 534.777 113.856  27
  -5 -17   1 20829.8 734.778  27
  -5 -17   1 19133.8 736.772  31
  -5  17   2 21042.6 936.619  39
  -5 -17   2 17841.2 734.205  31
  -5 -17   3 967.740 185.479  31
  -5  17   3 1106.64 219.592  39
  -5 -17   3 826.622 197.216  35
  -5 -17   4 2560.03 290.206  35
  -5  17   4 3110.44 275.373  39
  -5 -19   1 105.523 53.7622  31
  -5 -19   2 3754.09 261.309  31
  -5  19   2 4774.21 344.513  39
  -5  19   3 2805.70 241.309  39
  -4   0  -4 695.144 148.520  46
  -4   0  -4 606.710 143.491  43
  -4   0  -3 45.5180 91.0254  43
  -4   0  -3 20.0544 125.138  46
  -4   0  -2 4176.76 403.446  43
  -4   0  -2 4337.41 430.634  46
  -4   0  -1 52.3505 157.182   3
  -4   0  -1-146.517 85.7950  46
  -4   0   0 169824. 4282.26   3
  -4   0   1-0.54328 82.1240   3
  -4   0   2 69754.8 2252.68   3
  -4   0   2 72537.0 2300.17   7
  -4   0   3 25.2392 176.502   7
  -4   0   4 8282.30 663.676  35
  -4   0   4 6612.53 781.034   7
  -4   0   5-484.241 205.574  35
  -4   0   5-448.664 328.757   7
  -4   0   6 2514.84 376.438  35
  -4   0   6 2394.47 341.105  29
  -4   0   7 22.4855 87.9094  29
  -4   2  -4 5388.59 338.329  43
  -4  -2  -4 5778.87 381.531  43
  -4   2  -4 5678.62 391.285  46
  -4  -2  -3 983.651 223.979  46
  -4  -2  -3 949.847 210.010  43
  -4   2  -3 1014.30 220.026  46
  -4   2  -3 1238.64 207.277  43
  -4   2  -2 11233.7 633.299  43
  -4  -2  -2 12129.1 696.135  43
  -4   2  -2 11077.3 675.220  46
  -4  -2  -2 11528.4 694.732  46
  -4   2  -2 10227.9 642.163  32
  -4  -2  -1 60805.6 1612.20  43
  -4   2  -1 61265.1 1641.78  46
  -4   2  -1 63882.8 2278.16  19
  -4  -2  -1 59436.2 1631.20  46
  -4  -2   0 46639.7 2018.03   3
  -4   2   0 41484.7 1864.64   3
  -4  -2   1 1290.74 313.159   3
  -4   2   1 1430.95 333.084   3
  -4   2   2 207.740 170.612   7
  -4  -2   2 58.4291 139.264   7
  -4  -2   2-79.7367 134.275   3
  -4   2   2 173.246 143.296   3
  -4  -2   3 56641.2 2019.74   7
  -4   2   3 56287.6 2195.01   7
  -4  -2   4-112.730 183.022   7
  -4   2   4 171.348 195.707   7
  -4  -2   4 195.666 102.438  50
  -4  -2   4 307.910 148.389  35
  -4   2   4-89.2683 91.0312  35
  -4  -2   4 174.304 132.620  30
  -4   2   5 14090.9 1314.20   7
  -4   2   5 14504.9 808.360  29
  -4   2   5 15018.0 955.596  41
  -4   2   5 17564.4 1044.30  35
  -4  -2   5 17975.9 1038.14  50
  -4  -2   5 17884.8 1079.15  35
  -4  -2   6 9298.89 719.881  35
  -4   2   6 9985.25 732.660  35
  -4   2   6 8979.45 637.592  29
  -4   2   6 7781.01 649.615  41
  -4  -2   6 9215.02 654.868  29
  -4  -2   7-10.3313 89.8718  29
  -4   2   7 91.9451 108.732  29
  -4  -4  -4 567.157 143.958  43
  -4   4  -4 623.259 133.389  46
  -4  -4  -3 4869.24 422.647  43
  -4   4  -3 4530.81 425.502  46
  -4   4  -2 13448.2 750.218  46
  -4   4  -2 12745.8 760.385  32
  -4  -4  -2 13153.9 728.619  43
  -4  -4  -2 12940.7 728.735  46
  -4  -4  -2 10506.5 592.690  27
  -4   4  -2 13245.0 1087.78  19
  -4   4  -1 29702.3 1537.43  19
  -4   4  -1 28428.7 1060.03  46
  -4   4  -1 27641.3 1107.26  32
  -4  -4  -1 29935.4 1069.50  43
  -4  -4  -1 26971.5 1034.64  46
  -4  -4   0 24314.3 1451.78   3
  -4  -4   1 13645.4 1019.22   3
  -4  -4   2 90695.7 2430.40   7
  -4  -4   2 99904.3 2927.80   3
  -4   4   2 100304. 2995.78   7
  -4  -4   3 28494.7 1393.41   3
  -4   4   3 33205.5 1709.10   7
  -4  -4   4 12060.8 842.572  35
  -4  -4   4 10476.1 727.801  50
  -4  -4   4 9542.47 654.551  30
  -4   4   4 10460.4 1053.62   7
  -4   4   4 10046.3 763.130  41
  -4   4   4 11878.9 786.417  35
  -4   4   5 101901. 2858.54  41
  -4  -4   5 103453. 2816.27  50
  -4   4   5 113714. 2894.97  35
  -4  -4   5 109601. 2985.88  35
  -4  -4   6 17864.7 1017.18  35
  -4   4   6 19021.1 924.930  29
  -4  -4   6 20122.1 1103.55  50
  -4   4   6 18983.3 1062.05  41
  -4   4   6 21116.5 1050.05  35
  -4  -4   7 1307.87 218.305  29
  -4   4   7 1492.07 221.930  29
  -4   6  -4 7592.93 416.575  46
  -4  -6  -4 7021.56 419.563  30
  -4   6  -3 558.767 281.640  19
  -4  -6  -3 617.470 144.738  27
  -4   6  -3 743.726 171.463  32
  -4   6  -3 698.981 177.301  46
  -4  -6  -3 649.148 187.298  43
  -4   6  -2 5920.06 761.440  19
  -4   6  -2 5510.89 511.632  32
  -4  -6  -2 5604.85 482.025  43
  -4  -6  -2 5280.33 441.267  27
  -4   6  -2 5283.13 465.302  46
  -4  -6  -1 12196.0 666.186  27
  -4   6  -1 14103.4 1079.06  19
  -4   6  -1 14381.4 837.061  51
  -4   6  -1 12454.2 684.336  46
  -4  -6  -1 13988.2 730.138  43
  -4   6  -1 13527.9 783.106  32
  -4   6   0 59708.2 2042.93  19
  -4  -6   0 39670.5 2031.32   3
  -4  -6   1 43689.7 1986.20   3
  -4   6   1 42116.7 1192.13  11
  -4  -6   2 4899.02 643.317   3
  -4   6   2 4824.11 656.141   7
  -4  -6   3 26624.0 1460.55   3
  -4   6   3 27695.6 1644.41   7
  -4   6   4 1239.89 262.240  35
  -4  -6   4 1069.35 238.399  50
  -4  -6   4 1238.58 298.502  35
  -4   6   4 1384.74 307.194  41
  -4   6   4 737.717 340.869   7
  -4  -6   4 1319.10 257.837  30
  -4  -6   4 997.060 214.435  31
  -4   6   5 805.511 226.970  35
  -4  -6   5 1035.11 267.600  50
  -4   6   5 891.258 229.749  29
  -4  -6   5 608.946 212.153  35
  -4   6   5 1152.56 285.833  41
  -4   6   6 5705.65 577.950  41
  -4   6   6 5648.94 483.371  29
  -4  -6   6 5028.64 518.055  35
  -4  -6   6 6193.38 592.805  50
  -4   6   6 6323.35 554.094  35
  -4   6   7 418.568 137.352  41
  -4  -6   7 594.609 143.633  29
  -4  -8  -4 349.788 97.7237  30
  -4   8  -4 275.626 88.3537  46
  -4   8  -3 1319.31 222.494  32
  -4   8  -3 1201.32 220.783  46
  -4  -8  -3 1505.17 209.648  27
  -4  -8  -3 1528.98 229.612  30
  -4   8  -2 620.019 166.979  46
  -4   8  -2 696.654 192.779  32
  -4  -8  -2 688.180 197.409  27
  -4  -8  -2 649.666 212.841  43
  -4   8  -2 691.351 305.838  19
  -4  -8  -1 13005.1 756.722  30
  -4  -8  -1 11977.6 681.806  27
  -4   8  -1 11794.2 794.341  51
  -4   8  -1 10256.6 602.544  46
  -4   8  -1 11556.1 978.261  19
  -4   8   0 36557.8 1592.13  19
  -4  -8   0 34217.3 1235.04  30
  -4  -8   0 33877.8 1162.26  27
  -4   8   0 34681.9 1395.68  42
  -4   8   0 36620.1 1371.63  51
  -4   8   0 36614.8 1208.44  11
  -4   8   0 29778.8 1276.54  39
  -4  -8   0 34357.3 1948.32   3
  -4  -8   1 5379.54 716.556   3
  -4   8   1 6280.37 455.697  11
  -4   8   2 15764.6 1238.18   7
  -4  -8   2 16821.2 1294.56   3
  -4   8   3 1252.77 274.586  35
  -4  -8   3 1030.53 230.860  31
  -4   8   3 1101.34 247.502  41
  -4  -8   3 849.679 203.126  30
  -4   8   3 931.623 225.662  44
  -4   8   3 1082.15 361.887   7
  -4  -8   3 708.274 264.131   3
  -4  -8   4 8070.15 616.148  31
  -4  -8   4 9110.19 804.930  35
  -4   8   4 7081.17 513.715  29
  -4  -8   4 8055.05 634.986  30
  -4   8   4 9388.04 1065.55   7
  -4   8   4 9808.77 750.210  35
  -4  -8   4 7841.85 649.223  50
  -4   8   4 9507.50 767.558  41
  -4   8   5 6266.57 516.543  29
  -4   8   5 7519.71 669.286  35
  -4   8   5 6960.36 679.879  41
  -4  -8   5 6209.01 676.350  35
  -4  -8   5 6726.11 640.569  50
  -4  -8   6 2037.29 346.170  50
  -4   8   6 2227.42 359.600  41
  -4  -8   6 1161.95 273.348  35
  -4  -8   7 2543.50 239.584  29
  -4   8   7 2281.94 260.296  41
  -4 -10  -3 2970.45 275.392  27
  -4  10  -3 2895.14 303.030  32
  -4 -10  -3 2744.64 278.562  30
  -4  10  -3 3030.48 285.002  46
  -4  10  -2 8233.00 840.161  19
  -4  10  -2 8759.76 539.883  46
  -4 -10  -2 9125.05 602.001  30
  -4 -10  -2 8954.05 572.990  27
  -4  10  -2 9691.09 694.223  51
  -4  10  -2 8506.81 631.047  32
  -4 -10  -1 8621.48 604.012  30
  -4  10  -1 8489.51 835.578  19
  -4  10  -1 9503.22 716.279  51
  -4 -10  -1 8119.88 576.763  27
  -4  10  -1 6875.53 550.081  11
  -4 -10   0 462.851 148.433  30
  -4  10   0 248.632 128.402  51
  -4  10   0 367.412 204.031  44
  -4 -10   0 354.216 158.218  27
  -4 -10   0 723.868 293.766   3
  -4 -10   0 275.144 146.573  31
  -4  10   0 340.844 138.693  11
  -4  10   0 323.737 146.923  42
  -4 -10   1 8521.03 585.649  31
  -4 -10   1 9319.40 585.326  27
  -4  10   1 9238.72 619.596  32
  -4 -10   1 7762.65 920.693   3
  -4  10   1 10139.5 746.646  42
  -4  10   1 10803.0 660.855  11
  -4  10   1 9916.06 772.485  44
  -4 -10   1 8461.70 566.520  30
  -4 -10   2 946.549 217.732  31
  -4 -10   2 1092.42 217.665  25
  -4  10   2 1089.76 372.034   7
  -4  10   2 1132.08 276.257  44
  -4  10   2 1021.93 253.196  41
  -4 -10   2 738.934 177.817  30
  -4 -10   2 1097.27 220.915  27
  -4  10   2 1407.03 261.401  42
  -4 -10   2 1492.71 421.054   3
  -4 -10   3 36171.3 1313.04  31
  -4  10   3 39271.0 1568.27  41
  -4  10   3 37184.3 1550.89  44
  -4  10   3 38222.6 2160.92   7
  -4 -10   3 34182.6 1266.14  30
  -4 -10   4 45550.3 1551.06  31
  -4  10   4 49149.1 1863.59  41
  -4 -10   4 47724.3 1932.42  35
  -4  10   5 1371.40 299.323  41
  -4 -10   5 798.419 263.543  35
  -4 -10   5 858.778 233.411  50
  -4 -10   6 5475.44 487.262  35
  -4 -10   6 6009.71 526.164  50
  -4  10   6 6662.84 556.763  41
  -4 -10   7 3621.38 243.653  29
  -4  12  -3 7488.26 443.170  32
  -4 -12  -3 7413.98 396.157  27
  -4 -12  -2 3570.02 347.408  27
  -4  12  -2 3775.92 395.232  32
  -4  12  -1 6451.30 575.037  51
  -4 -12  -1 5954.26 483.509  27
  -4 -12  -1 5680.11 448.917  31
  -4  12  -1 4772.46 456.580  11
  -4  12   0 5268.78 598.616  44
  -4  12   0 5364.68 506.287  11
  -4  12   0 5473.65 571.249  42
  -4 -12   0 5176.79 458.434  27
  -4  12   0 5336.61 522.152  51
  -4 -12   0 5085.19 462.783  31
  -4 -12   1 187.776 115.757  27
  -4  12   1 163.589 124.571  32
  -4 -12   1 64.5654 141.067  31
  -4  12   1 218.187 144.428  42
  -4  12   1 188.311 200.209  44
  -4  12   2 31716.1 1476.07  44
  -4 -12   2 27034.4 1140.87  25
  -4 -12   2 30069.9 1181.55  31
  -4  12   2 29498.0 1292.87  42
  -4 -12   2 29557.3 1129.15  27
  -4 -12   3 7142.14 585.133  31
  -4 -12   3 6674.52 592.383  25
  -4  12   3 6926.94 676.853  44
  -4  12   3 7169.97 656.328  41
  -4  12   4 14848.5 906.741  44
  -4 -12   4 14257.2 822.008  31
  -4  12   4 15240.4 976.555  41
  -4 -12   4 14279.9 1019.88  35
  -4 -12   5 5095.01 493.529  50
  -4  12   5 5389.16 552.322  41
  -4 -12   5 5375.65 579.166  35
  -4 -12   6 1910.07 255.539  35
  -4 -12   6 2480.95 299.517  50
  -4  12   6 2422.77 312.937  41
  -4  14  -3 11523.3 464.541  32
  -4 -14  -3 11997.3 429.501  27
  -4 -14  -2 28512.2 923.211  27
  -4  14  -2 28309.0 1018.85  32
  -4 -14  -1 2161.26 278.542  31
  -4 -14  -1 2715.91 314.113  27
  -4  14  -1 2756.31 361.555  51
  -4  14   0 3016.08 376.820  11
  -4  14   0 3437.75 450.623  42
  -4  14   0 3675.39 495.652  44
  -4 -14   0 3203.15 373.962  31
  -4 -14   0 3240.30 358.462  27
  -4  14   0 3833.14 411.223  51
  -4  14   1 16930.1 1073.37  44
  -4 -14   1 15301.7 800.399  27
  -4 -14   1 15997.5 847.905  31
  -4  14   1 17649.2 1034.81  42
  -4  14   2 3804.72 506.593  44
  -4 -14   2 3376.60 381.834  27
  -4 -14   2 3489.86 422.076  31
  -4 -14   2 3171.67 389.566  25
  -4  14   2 3215.52 420.698  42
  -4 -14   3 8017.28 611.568  31
  -4  14   3 8582.10 745.699  44
  -4  14   3 7144.52 623.199  41
  -4  14   4 7509.56 629.108  41
  -4  14   4 7694.19 631.844  44
  -4 -14   4 7352.31 564.830  31
  -4 -14   4 7533.82 702.054  35
  -4 -14   5 202.561 141.349  50
  -4 -14   5 262.622 162.968  35
  -4  14   5 274.194 146.376  41
  -4  14   6 2613.33 256.605  41
  -4 -16  -2 2361.05 216.401  27
  -4  16  -2 2559.32 244.715  32
  -4  16  -1 158.461 81.1649  32
  -4 -16  -1 209.601 114.585  27
  -4  16   0 19870.9 975.536  39
  -4 -16   0 19346.7 849.702  31
  -4  16   0 18392.6 840.011  32
  -4 -16   0 18866.8 808.900  27
  -4  16   0 20125.4 1027.78  42
  -4 -16   1 10270.8 607.495  27
  -4 -16   1 10561.1 658.007  31
  -4  16   1 11172.3 769.583  42
  -4  16   1 10980.6 832.774  44
  -4 -16   2 20749.0 942.322  31
  -4  16   2 21233.3 1009.59  42
  -4  16   2 22811.8 1191.38  44
  -4 -16   3 15770.7 800.102  31
  -4  16   3 17686.0 1006.37  44
  -4 -16   4 24644.2 923.822  31
  -4  16   4 23604.8 997.128  39
  -4  16   4 23267.4 1015.65  44
  -4 -16   4 21578.8 1095.59  35
  -4 -16   5 249.059 119.103  35
  -4  16   5 232.488 80.8399  41
  -4  18  -1-4.72944 44.2711  32
  -4 -18  -1 9.76928 65.4609  31
  -4 -18  -1 17.4145 60.5405  27
  -4 -18   0 6669.94 432.027  31
  -4  18   0 5574.34 351.011  32
  -4  18   0 6211.12 454.750  39
  -4 -18   0 6619.00 399.966  27
  -4  18   1 13412.1 808.517  44
  -4 -18   1 12354.6 637.312  31
  -4 -18   1 11974.4 564.700  27
  -4  18   1 13175.1 742.337  42
  -4  18   2 1918.54 321.216  44
  -4 -18   2 1559.21 251.134  31
  -4  18   3 4743.70 458.734  44
  -4 -18   3 4140.35 445.063  35
  -4 -18   3 5032.34 399.818  31
  -4  18   4 3856.52 320.122  44
  -4 -18   4 4723.12 416.847  35
  -4  18   4 3686.28 291.137  39
  -4 -20   0 1909.27 185.215  31
  -4 -20   1 1907.39 203.511  31
  -4  20   1 2221.19 254.928  39
  -4 -20   2 105.601 73.8048  35
  -4 -20   2 113.012 97.0393  31
  -4  20   2 175.881 96.8538  39
  -4  20   2 31.1109 69.9611  44
  -4  20   3 6471.73 384.473  39
  -4 -20   3 5656.81 389.034  35
  -3   1  -5 5477.44 339.610  46
  -3  -1  -5 6102.54 361.452  43
  -3   1  -5 5689.73 340.087  43
  -3  -1  -4 8111.00 544.345  43
  -3   1  -4 7978.83 527.126  43
  -3   1  -4 8026.04 558.487  46
  -3  -1  -4 8339.80 554.703  46
  -3   1  -3 3809.50 408.336  46
  -3   1  -3 3260.54 562.747  19
  -3  -1  -3 3872.51 415.031  46
  -3  -1  -3 3954.28 404.839  43
  -3  -1  -2 1221.48 305.636  19
  -3   1  -2 1263.40 306.461  19
  -3  -1  -1 187711. 4340.18   3
  -3   1  -1 194536. 4079.13  19
  -3   1  -1 181540. 4202.31   3
  -3  -1  -1 192474. 4047.01  19
  -3   1   0 280145. 4929.31  19
  -3  -1   0 263294. 5140.87   3
  -3   1   0 264431. 5162.12   3
  -3   1   1 39688.9 1431.00   7
  -3  -1   1 39904.2 1416.87   3
  -3   1   1 41609.8 1458.21   3
  -3  -1   1 39781.6 1374.09   7
  -3  -1   2 64476.4 1869.82   7
  -3   1   2 64390.6 1938.82   7
  -3   1   2 69961.4 1857.10   3
  -3  -1   2 69979.9 1864.18   3
  -3  -1   3 10276.7 775.964   7
  -3   1   3 10675.1 819.124   7
  -3   1   4 17627.6 1233.03   7
  -3  -1   4 16352.0 1164.69   7
  -3  -1   5 3843.11 462.579  35
  -3   1   5 3878.32 461.569  35
  -3  -1   5 4825.76 539.794  50
  -3   1   5 3810.55 465.146  47
  -3   1   5 4350.75 718.800   7
  -3   1   5 3793.90 416.559  29
  -3  -1   5 3887.82 661.349   7
  -3  -1   6 15006.4 853.583  29
  -3   1   6 15681.5 876.365  29
  -3   1   6 13442.2 905.725  47
  -3  -1   7 2489.50 307.920  29
  -3   1   7 2450.73 297.488  29
  -3   3  -5 1155.00 160.284  46
  -3  -3  -5 1121.48 164.272  43
  -3   3  -5 1077.42 146.883  43
  -3   3  -4 8567.70 582.118  46
  -3  -3  -4 8524.93 534.206  46
  -3   3  -4 8835.48 528.975  43
  -3  -3  -4 9584.22 586.623  43
  -3   3  -4 7987.65 823.146  19
  -3  -3  -3 13241.1 728.950  43
  -3  -3  -3 12761.6 718.649  46
  -3  -3  -3 11152.7 616.230  27
  -3   3  -3 12371.0 728.224  46
  -3   3  -3 12923.4 1093.89  19
  -3   3  -2 3918.53 559.935  19
  -3  -3  -2 4187.89 377.005  43
  -3  -3  -1 20144.5 1203.65   3
  -3   3  -1 16685.2 1008.38  19
  -3   3   0 5972.46 524.067  19
  -3  -3   0 7680.75 663.387   3
  -3   3   0 8155.03 671.511   3
  -3   3   1 9151.60 681.169   7
  -3  -3   1 8278.03 641.903   3
  -3   3   1 7431.97 368.270   4
  -3   3   1 9082.64 369.826  11
  -3   3   1 7135.22 577.716   3
  -3   3   2 23357.2 1137.94   7
  -3  -3   2 24806.5 1088.28   3
  -3  -3   2 22077.7 958.332   7
  -3  -3   3 22291.9 1085.80   7
  -3   3   3 22636.2 1243.20   7
  -3  -3   3 20915.9 954.256   3
  -3   3   4 64158.9 2531.73   7
  -3  -3   4 62071.6 2267.88   7
  -3   3   5 48584.5 1827.38  47
  -3  -3   5 47401.1 1734.95  50
  -3   3   5 40779.6 1450.43  29
  -3   3   5 41187.9 2275.62   7
  -3  -3   5 41870.0 1639.18  35
  -3   3   5 42187.9 1594.68  35
  -3   3   6 19988.7 1088.14  41
  -3   3   6 22383.5 1043.21  29
  -3  -3   6 23990.5 1230.54  50
  -3   3   6 20737.3 1177.81  47
  -3  -3   7 115.798 119.080  29
  -3   3   7 19.9425 92.6849  29
  -3  -5  -5 876.013 137.358  43
  -3   5  -5 748.321 133.194  46
  -3   5  -4 2684.32 473.909  19
  -3   5  -4 2962.62 343.084  46
  -3  -5  -4 2818.29 280.023  27
  -3  -5  -4 3509.85 357.642  43
  -3   5  -4 2867.49 280.421  43
  -3  -5  -3 7651.40 557.765  43
  -3   5  -3 7386.37 845.081  19
  -3   5  -3 6322.72 524.267  32
  -3   5  -3 6877.64 542.310  46
  -3  -5  -3 6706.71 503.494  46
  -3   5  -3 7546.74 623.063  51
  -3  -5  -3 7243.00 514.877  27
  -3   5  -2 16473.6 1163.56  19
  -3  -5  -2 15187.4 747.579  43
  -3  -5  -2 14204.6 708.017  27
  -3  -5  -2 12651.7 672.692  46
  -3   5  -2 14744.3 844.346  51
  -3  -5  -1 8071.50 797.661   3
  -3   5  -1 9231.63 778.954  19
  -3  -5   0 15235.6 1006.40   3
  -3   5   0 19483.2 788.177   4
  -3  -5   1 4031.25 491.333   3
  -3   5   1 2988.61 420.901   7
  -3   5   1 3604.60 330.655   4
  -3   5   1 3411.10 266.517  11
  -3   5   2 25611.7 1089.12   4
  -3  -5   2 26069.9 1240.47   3
  -3   5   2 29089.5 1355.12   7
  -3  -5   2 25459.2 935.290   7
  -3  -5   3 45378.7 1650.58   3
  -3   5   3 47318.7 1944.54   7
  -3   5   4 5169.78 731.522   7
  -3  -5   5 5452.15 602.561  35
  -3   5   5 6282.28 659.196  47
  -3   5   5 5941.01 566.797  35
  -3  -5   5 5742.21 595.554  50
  -3   5   5 5333.75 849.788   7
  -3   5   5 5684.80 515.098  29
  -3   5   6 29954.3 1373.28  41
  -3  -5   6 32490.8 1426.72  50
  -3   5   6 31111.8 1228.78  29
  -3  -5   7 5038.80 394.773  29
  -3   5   7 5556.93 407.292  29
  -3  -7  -5 516.989 102.891  30
  -3   7  -5 776.769 113.694  46
  -3  -7  -4 4723.10 357.686  27
  -3   7  -4 4702.27 401.452  46
  -3  -7  -4 5340.17 409.889  43
  -3  -7  -3 23393.3 988.490  43
  -3   7  -3 22677.4 1478.53  19
  -3  -7  -3 21210.3 918.908  27
  -3   7  -3 21942.6 1122.13  51
  -3  -7  -2 4397.50 413.723  27
  -3   7  -2 4933.60 675.666  19
  -3   7  -2 4600.59 514.124  51
  -3  -7  -2 4548.40 430.617  43
  -3   7  -1 14115.0 1003.12  19
  -3  -7  -1 13870.8 1073.47   3
  -3   7   0 71170.6 1953.20   4
  -3  -7   0 66043.3 2412.13   3
  -3   7   1 104490. 2997.27   7
  -3  -7   1 107140. 3081.52   3
  -3   7   1 111245. 2213.61  11
  -3   7   1 108986. 2539.08   4
  -3   7   2 107031. 2836.91   4
  -3  -7   2 109904. 3105.10   3
  -3   7   2 116528. 3211.00   7
  -3   7   3 18537.4 1214.12   4
  -3   7   3 20550.3 1330.35   7
  -3  -7   3 21115.6 1224.05   3
  -3  -7   4 3667.27 445.652  50
  -3   7   4 3766.63 456.484  35
  -3   7   4 3612.98 632.077   7
  -3  -7   4 3406.63 388.664  31
  -3   7   4 3380.31 465.125  23
  -3   7   4 3405.88 368.877  29
  -3  -7   4 4195.93 525.975  35
  -3   7   5 6472.50 550.841  29
  -3  -7   5 6861.50 662.463  50
  -3   7   5 6615.04 602.943  35
  -3   7   5 5282.54 574.669  23
  -3  -7   5 5719.60 623.890  35
  -3   7   6 2958.23 425.135  41
  -3   7   6 3338.82 384.949  29
  -3  -7   6 3187.54 440.429  50
  -3  -7   7 4792.63 356.170  29
  -3   7   7 4007.49 354.097  41
  -3  -9  -4 2398.06 253.011  27
  -3   9  -4 2606.43 281.843  46
  -3  -9  -4 2473.91 262.597  43
  -3   9  -3 12912.5 1097.77  19
  -3   9  -3 13173.8 839.643  51
  -3  -9  -3 12166.3 682.847  27
  -3   9  -3 11800.4 686.143  46
  -3  -9  -3 12344.1 691.901  43
  -3   9  -2 6952.82 815.167  19
  -3  -9  -2 6492.25 515.050  27
  -3   9  -2 6417.53 617.003  51
  -3   9  -2 6590.05 611.065  42
  -3  -9  -2 7355.48 538.120  43
  -3   9  -1 46302.9 1656.74  42
  -3   9  -1 51015.9 1669.98  51
  -3  -9  -1 45617.1 1377.44  27
  -3   9  -1 49319.8 2001.58  19
  -3  -9  -1 47261.7 2217.17   3
  -3  -9  -1 44193.5 1350.77  43
  -3  -9   0 6305.59 758.682   3
  -3   9   0 11347.2 783.831  19
  -3   9   0 11637.7 641.837  11
  -3   9   0 8030.16 678.207   4
  -3   9   1 18343.8 1208.38   7
  -3  -9   1 16501.2 1199.64   3
  -3   9   1 19162.2 821.910  11
  -3   9   1 17982.3 1026.04   4
  -3   9   2 4620.56 623.274   7
  -3  -9   2 4182.98 612.650   3
  -3   9   2 4332.09 557.794   4
  -3   9   3 34818.0 1362.54  35
  -3   9   3 32944.9 1776.16   4
  -3   9   3 31783.6 1391.17  23
  -3   9   3 35941.8 1907.84   7
  -3  -9   3 37083.0 1823.99   3
  -3  -9   3 29487.1 1189.98  25
  -3   9   4 11222.1 816.317  35
  -3  -9   4 11227.4 875.828  35
  -3  -9   4 10813.3 798.810  50
  -3  -9   4 10009.8 679.247  31
  -3   9   4 11229.8 1136.52   7
  -3   9   4 11224.4 846.865  23
  -3   9   4 9402.39 644.789  29
  -3  -9   5 3501.57 489.207  35
  -3   9   5 3938.00 427.391  29
  -3  -9   5 4192.54 520.961  50
  -3   9   5 3869.03 512.041  23
  -3  -9   6 1476.43 299.241  50
  -3   9   6 1532.97 309.861  41
  -3  -9   7 1202.19 164.880  29
  -3   9   7 1077.78 169.173  41
  -3 -11  -4 6190.42 364.132  27
  -3  11  -4 5999.33 359.216  46
  -3  11  -3 4412.27 617.270  19
  -3 -11  -3 5027.10 422.364  27
  -3  11  -3 4937.09 401.373  46
  -3  11  -3 5568.89 531.847  51
  -3  11  -2 4521.19 512.176  42
  -3  11  -2 4262.96 631.421  19
  -3  11  -2 4748.04 517.184  51
  -3 -11  -2 4179.38 412.031  27
  -3 -11  -1 11512.5 677.645  27
  -3  11  -1 13875.8 867.615  51
  -3  11  -1 10917.3 807.085  44
  -3  11  -1 12497.5 982.816  19
  -3  11  -1 12443.8 862.901  42
  -3 -11   0 3788.73 372.110  27
  -3  11   0 4227.35 436.581  51
  -3  11   0 4051.04 500.174  44
  -3 -11   0 6252.90 860.783   3
  -3 -11   0 3673.49 396.176  31
  -3  11   0 4238.18 426.920  11
  -3  11   0 5636.36 614.841   4
  -3  11   0 4298.18 480.124  42
  -3  11   1 38352.6 1726.01   4
  -3 -11   1 35017.4 1951.91   3
  -3  11   1 38846.8 1540.85  44
  -3 -11   1 36778.6 1254.80  31
  -3  11   2 3499.91 593.505   7
  -3 -11   2 3006.20 344.514  31
  -3 -11   2 2800.52 304.733  27
  -3  11   2 3205.47 431.654  44
  -3  11   2 3565.27 547.965   4
  -3 -11   2 2903.36 356.276  25
  -3 -11   2 4044.59 665.103   3
  -3  11   3 80004.4 3055.71   7
  -3  11   3 81288.7 3089.82   4
  -3 -11   3 79917.9 3051.83   3
  -3 -11   3 83549.2 2226.52  25
  -3  11   3 85487.1 2400.41  41
  -3  11   3 83955.7 2475.19  44
  -3 -11   3 79519.4 2098.29  31
  -3 -11   4 13624.5 801.478  31
  -3 -11   4 12789.6 881.135  50
  -3  11   4 14418.8 993.662  23
  -3  11   4 14361.3 976.884  41
  -3 -11   5 21228.7 1139.09  50
  -3 -11   5 19918.2 1137.07  35
  -3  11   5 21421.3 1175.13  41
  -3  11   5 20585.9 1145.49  23
  -3 -11   6 1557.36 285.869  50
  -3  11   6 1741.53 293.300  41
  -3 -13  -4 8061.18 357.626  27
  -3 -13  -3 11121.4 572.406  27
  -3  13  -3 11793.4 696.731  51
  -3 -13  -2 12465.1 684.817  27
  -3 -13  -2 13014.9 689.610  31
  -3  13  -2 13124.2 853.259  42
  -3  13  -2 10619.4 936.299  19
  -3  13  -2 13709.2 857.939  51
  -3  13  -1 29907.2 1301.82  51
  -3  13  -1 24341.9 1248.17  44
  -3 -13  -1 26920.3 1071.68  27
  -3  13  -1 27832.6 1343.46  42
  -3 -13  -1 27718.1 1120.77  31
  -3  13  -1 26126.4 1173.16  11
  -3  13   0 437.373 194.384  44
  -3 -13   0 403.416 173.807  31
  -3  13   0 403.374 184.066  42
  -3 -13   0 198.071 110.393  27
  -3  13   0 400.961 155.016  11
  -3  13   0 225.595 114.905  51
  -3  13   1 17264.3 1248.36   4
  -3 -13   1 17010.9 873.749  25
  -3  13   1 21897.3 1031.64  11
  -3  13   1 21130.6 1180.11  44
  -3 -13   1 19229.1 869.403  27
  -3  13   1 21651.4 1139.97  42
  -3 -13   1 17423.7 1477.26   3
  -3 -13   1 19757.0 924.157  31
  -3 -13   2 3479.48 677.518   3
  -3 -13   2 3904.30 415.656  31
  -3  13   2 3621.22 491.976  44
  -3  13   2 3245.12 414.617  42
  -3  13   2 3472.47 614.791   4
  -3 -13   2 3057.00 338.900  27
  -3 -13   2 3700.20 430.380  25
  -3  13   3 9579.96 802.998  44
  -3 -13   3 8630.52 642.186  31
  -3 -13   3 8616.73 669.212  25
  -3  13   3 8387.72 694.727  41
  -3 -13   4 16338.1 855.249  31
  -3  13   4 16189.7 977.001  44
  -3  13   4 15605.4 1004.84  41
  -3 -13   4 15104.5 937.747  50
  -3 -13   5 11590.8 805.712  35
  -3 -13   5 12525.6 810.739  50
  -3  13   5 12108.7 823.222  41
  -3 -13   6 1875.11 261.479  50
  -3  13   6 1912.51 259.706  41
  -3  15  -3 5421.49 393.194  32
  -3  15  -3 6084.32 435.558  51
  -3 -15  -3 6133.49 372.772  27
  -3 -15  -2 10236.5 578.755  27
  -3  15  -2 10321.5 719.275  42
  -3 -15  -2 9899.44 574.049  31
  -3  15  -2 10821.4 705.444  51
  -3  15  -1 1457.65 317.120  42
  -3 -15  -1 1453.25 275.441  31
  -3  15  -1 1406.18 266.772  11
  -3  15  -1 1537.58 300.398  51
  -3 -15  -1 1462.23 248.882  27
  -3 -15   0 6689.53 516.550  27
  -3  15   0 6428.85 635.427  42
  -3 -15   0 6410.79 542.679  31
  -3  15   0 6535.76 657.584  44
  -3  15   0 6486.68 545.063  51
  -3  15   0 6849.40 590.659  11
  -3 -15   1 48272.6 1469.80  27
  -3 -15   1 47627.8 1580.05  25
  -3 -15   1 48355.2 1578.08  31
  -3  15   1 54188.5 1908.21  42
  -3  15   1 53072.7 1974.43  44
  -3 -15   2 14846.7 737.992  27
  -3  15   2 17324.9 974.756  42
  -3  15   2 18105.4 1123.11  44
  -3 -15   2 17239.6 907.244  31
  -3 -15   2 16256.1 920.606  25
  -3  15   3 542.882 231.848  44
  -3 -15   3 1044.95 259.112  25
  -3 -15   3 717.424 225.686  31
  -3 -15   4 1475.07 254.345  31
  -3 -15   4 1632.63 295.944  50
  -3  15   4 1851.22 331.337  44
  -3  15   4 1430.14 276.268  41
  -3 -15   5 1485.52 271.900  35
  -3 -15   5 1510.76 254.664  50
  -3  15   5 1497.87 261.330  41
  -3 -17  -3 883.213 115.063  27
  -3  17  -3 723.038 118.213  32
  -3 -17  -2 1254.16 187.881  31
  -3 -17  -2 1322.28 195.074  27
  -3  17  -2 1221.94 219.530  51
  -3 -17  -1 2906.99 309.284  27
  -3 -17  -1 2991.02 326.980  31
  -3  17  -1 3001.10 395.635  42
  -3  17  -1 2918.03 351.180  51
  -3 -17   0 388.540 164.345  31
  -3  17   0 360.499 180.682  42
  -3 -17   0 379.707 146.789  27
  -3  17   0 312.298 186.392  44
  -3 -17   1 11016.7 685.412  25
  -3 -17   1 10857.6 598.485  27
  -3 -17   1 12678.3 732.636  31
  -3  17   1 12836.4 854.383  42
  -3  17   1 12567.3 910.025  44
  -3 -17   2 7243.45 561.725  31
  -3  17   2 6920.60 569.859  42
  -3  17   2 7664.00 698.950  44
  -3 -17   2 6841.32 562.677  25
  -3 -17   3 558.782 190.464  31
  -3  17   3 382.981 195.621  44
  -3 -17   3 470.332 189.569  25
  -3 -17   4-1.65192 98.6645  50
  -3  17   4 351.704 155.433  44
  -3 -17   4 140.338 141.181  35
  -3 -17   5 26.8349 72.8057  50
  -3  19  -2 2053.29 189.050  32
  -3 -19  -2 2080.85 171.888  31
  -3 -19  -1 4298.68 333.855  31
  -3 -19  -1 3360.62 256.855  27
  -3  19  -1 3136.89 277.557  32
  -3  19  -1 4269.18 397.232  42
  -3  19   0 2556.72 344.095  44
  -3  19   0 2869.15 364.920  42
  -3 -19   0 2774.52 302.686  31
  -3 -19   1 14423.9 709.154  31
  -3  19   1 14844.1 878.655  44
  -3  19   1 14227.9 798.252  42
  -3 -19   2 5064.52 414.576  31
  -3 -19   2 4942.16 425.575  25
  -3  19   2 5788.30 544.561  44
  -3  19   3 1581.98 280.519  44
  -3 -19   3 1214.25 189.148  31
  -3 -19   4 16084.0 731.675  35
  -3  19   4 13675.9 584.922  44
  -3 -21  -1 1043.06 121.241  31
  -3  21   0 840.221 136.520  39
  -3 -21   0 1241.89 167.159  31
  -3  21   0 1014.29 179.987  42
  -3  21   1 3553.68 308.701  42
  -3 -21   1 3854.16 293.717  31
  -3  21   1 3823.68 355.263  44
  -3 -21   2 5680.81 332.364  31
  -3  21   2 6271.31 450.299  44
  -3 -21   3 1961.87 229.114  35
  -3  21   3 2121.06 232.273  44
  -2   0  -6 9985.33 379.600  43
  -2   0  -5 123.171 101.308  46
  -2   0  -4 5677.04 457.619  38
  -2   0  -4 5686.41 489.486  46
  -2   0  -4 5560.81 695.891  19
  -2   0  -3 57.7177 116.885  19
  -2   0  -2 90839.3 2609.10  19
  -2   0  -2 117513. 2819.24   3
  -2   0  -1 32.4055 82.9316  19
  -2   0  -1 48.5058 118.201   3
  -2   0   0 975615. 14151.5   3
  -2   0   1-5.55162 96.3096   3
  -2   0   1 35.1021 85.9628   7
  -2   0   2 124498. 2598.31   7
  -2   0   2 121140. 2225.43   3
  -2   0   3 226.978 147.456   7
  -2   0   3-47.5277 123.271  22
  -2   0   4 27927.2 1561.63   7
  -2   0   4 29827.5 1578.69  22
  -2   0   5 156.474 119.798  47
  -2   0   5 31.1074 226.676   7
  -2   0   5-85.4093 166.383  50
  -2   0   5 253.529 280.685  22
  -2   0   6 857.096 233.694  47
  -2   0   6 778.211 228.699  29
  -2   0   7 76.6907 112.047  47
  -2   0   7-72.2718 107.249  29
  -2  -2  -6 4724.21 255.356  43
  -2  -2  -5 18802.1 786.855  43
  -2   2  -5 17851.8 775.202  46
  -2  -2  -4 1920.64 265.189  27
  -2   2  -4 1647.84 405.934  19
  -2  -2  -4 2170.82 305.272  38
  -2  -2  -4 1983.32 298.915  46
  -2   2  -3 10466.7 906.100  19
  -2  -2  -3 9776.44 813.948  19
  -2   2  -3 9631.16 628.143  45
  -2  -2  -3 8563.92 545.623  38
  -2   2  -2 46185.9 1752.59  19
  -2  -2  -2 45836.9 1682.19   3
  -2  -2  -2 46824.0 1648.98  19
  -2  -2  -1 29038.2 1098.89  19
  -2   2  -1 28675.4 1152.88  19
  -2  -2  -1 34959.4 1275.01   3
  -2   2  -1 33636.5 1303.31   3
  -2  -2   0 350495. 5599.60   3
  -2   2   0 342811. 5566.41   3
  -2  -2   1 164570. 2893.66   7
  -2   2   1 161639. 2672.06   4
  -2   2   1 162558. 2982.98   3
  -2  -2   1 164807. 3075.61   3
  -2   2   2 179499. 3547.33   7
  -2  -2   2 179462. 3367.57   7
  -2  -2   3 24133.4 1132.21   7
  -2   2   3 23891.3 1208.45   7
  -2  -2   3 24305.7 862.390   2
  -2  -2   3 24540.4 1172.97  22
  -2  -2   4 38880.9 1822.85  22
  -2  -2   4 34690.4 1722.09   7
  -2   2   4 35710.1 1821.65   7
  -2   2   4 38093.4 1808.41  22
  -2   2   5 29945.9 1209.20  29
  -2  -2   5 25905.5 1733.20   7
  -2  -2   5 33600.3 1452.15  50
  -2   2   5 35299.8 1548.97  47
  -2   2   5 29994.2 1919.13   7
  -2  -2   5 26292.8 1238.13  36
  -2  -2   5 32756.6 1926.85  22
  -2  -2   6 9313.99 722.875  47
  -2  -2   6 12293.8 857.487  50
  -2   2   6 11350.0 869.750  47
  -2   2   6 12659.7 779.599  29
  -2  -2   6 12086.1 763.177  29
  -2   2   7 1141.29 246.853  47
  -2   2   7 1921.63 255.145  29
  -2  -2   7 1821.45 246.744  29
  -2  -4  -5 122.098 83.5089  27
  -2   4  -5 102.182 96.7579  46
  -2  -4  -5-45.3254 100.437  43
  -2   4  -4 4915.79 682.907  19
  -2  -4  -4 4966.45 454.822  38
  -2  -4  -4 5150.42 438.361  27
  -2   4  -3 44860.6 1991.11  19
  -2  -4  -3 39780.5 1269.27  27
  -2   4  -3 43010.1 1416.21  45
  -2  -4  -3 43279.0 1348.20  38
  -2  -4  -2 1152.95 262.915   3
  -2   4  -2 2390.93 411.090  19
  -2   4  -1 32923.8 1313.63  19
  -2  -4  -1 33661.0 1330.86   3
  -2   4   0 76770.5 1864.96  19
  -2  -4   0 81440.0 2103.21   3
  -2  -4   1 145133. 2541.42   7
  -2   4   1 147228. 3051.86   7
  -2  -4   1 141489. 3018.92   3
  -2   4   1 147956. 2717.28   4
  -2   4   2 39083.8 1329.39   4
  -2  -4   2 39249.0 1284.90   3
  -2  -4   2 40420.2 1149.75   7
  -2   4   2 42205.1 1451.64   7
  -2   4   3 90004.0 2599.51   7
  -2  -4   3 86659.2 2295.29   7
  -2  -4   3 90911.2 2445.17  22
  -2  -4   4 20851.0 1275.48   7
  -2  -4   4 20746.6 1322.98  22
  -2   4   4 21103.6 1403.36   7
  -2   4   5 13663.0 1309.01   7
  -2  -4   5 16161.3 1011.13  50
  -2   4   5 14461.9 829.743  29
  -2   4   5 17720.0 1102.60  47
  -2  -4   5 15341.5 1324.71  22
  -2   4   6 16608.9 1068.50  47
  -2  -4   6 18113.2 1045.08  50
  -2   4   6 19032.5 951.217  29
  -2  -4   7 9024.88 516.338  29
  -2   4   7 10244.7 550.720  29
  -2  -6  -5 4588.91 365.555  43
  -2   6  -5 4008.22 302.152  43
  -2  -6  -5 4083.87 311.400  27
  -2   6  -5 4189.47 361.952  46
  -2   6  -4 8044.14 617.077  45
  -2  -6  -4 7813.49 551.774  27
  -2   6  -4 7491.13 834.180  19
  -2   6  -4 7724.30 605.782  51
  -2  -6  -4 7985.41 572.920  43
  -2  -6  -3 11870.1 686.252  27
  -2   6  -3 12497.1 1070.11  19
  -2  -6  -3 12717.8 711.376  38
  -2   6  -3 12401.7 740.312  45
  -2   6  -3 11364.9 805.399  51
  -2   6  -2 36300.4 1651.67  19
  -2  -6  -2 37037.7 1232.66  15
  -2   6  -1 9568.22 726.281  19
  -2  -6  -1 9911.06 513.163  15
  -2  -6  -1 8668.86 721.216   3
  -2   6   0 85674.1 2116.49  19
  -2  -6   0 89814.8 2404.92   3
  -2   6   1 62355.9 1854.19   7
  -2  -6   1 67389.1 1959.93   3
  -2   6   1 65403.8 1692.45   4
  -2   6   1 60785.0 1365.59  11
  -2  -6   2 19630.6 990.148   3
  -2   6   2 17606.0 929.481   4
  -2   6   3 27621.7 1442.33   4
  -2  -6   3 33046.5 1321.37   3
  -2   6   3 33323.4 1574.10   7
  -2  -6   3 26880.4 1243.38  22
  -2   6   4 6115.99 492.696  29
  -2   6   4 7140.44 632.981  47
  -2  -6   4 6854.74 600.959  50
  -2   6   4 6810.21 809.442   7
  -2  -6   4 6090.89 717.625  22
  -2   6   5 9389.12 664.430  29
  -2  -6   5 10043.4 811.527  50
  -2   6   5 7992.04 704.800  23
  -2  -6   5 8314.11 963.583  22
  -2   6   5 11085.7 879.361  47
  -2  -6   6 5202.84 563.370  50
  -2   6   6 5766.11 515.323  29
  -2   6   6 5294.02 596.134  47
  -2  -6   6 3585.62 659.141  22
  -2  -6   7-32.4145 82.8391  29
  -2   6   7 65.1884 48.3594  41
  -2  -8  -5 1766.93 204.556  27
  -2   8  -5 1649.15 215.344  46
  -2  -8  -5 2023.90 215.727  43
  -2  -8  -4 5616.93 462.193  27
  -2   8  -4 5364.21 516.537  51
  -2   8  -4 4724.80 685.858  19
  -2   8  -4 5566.64 495.800  45
  -2  -8  -4 4643.94 383.220  37
  -2  -8  -4 5635.54 460.824  43
  -2   8  -3 6781.80 553.637  45
  -2   8  -3 6455.46 790.293  19
  -2  -8  -3 5930.34 493.296  27
  -2   8  -3 6433.06 610.401  51
  -2  -8  -3 5803.18 470.043  37
  -2  -8  -3 6756.13 518.000  43
  -2   8  -2 17507.6 1195.38  19
  -2  -8  -2 17095.7 846.616  15
  -2   8  -1 99905.1 2755.14  19
  -2  -8  -1 95104.5 2019.87  15
  -2   8   0 21177.6 981.418  19
  -2  -8   0 29570.4 1391.10   3
  -2  -8   1 2615.70 411.388   3
  -2   8   1 2619.21 385.426   7
  -2   8   1 3031.46 282.818  11
  -2   8   1 2607.09 351.416   4
  -2  -8   2 75248.7 2374.07   3
  -2   8   2 73804.5 2310.33   7
  -2   8   2 71889.3 2251.59   4
  -2   8   3 38413.9 1850.11   4
  -2  -8   3 42395.8 1748.03   3
  -2   8   3 41318.9 1888.75   7
  -2   8   4 2494.74 527.610   7
  -2  -8   4 2339.13 457.404  22
  -2   8   4 2467.81 337.304  29
  -2   8   4 2590.77 350.070  35
  -2  -8   4 2379.70 371.050  35
  -2  -8   4 2865.63 397.331  50
  -2   8   4 2930.44 445.922  47
  -2   8   4 2608.93 417.140  23
  -2  -8   5 18698.8 1108.63  50
  -2   8   5 18861.6 1162.87  47
  -2   8   5 18428.4 940.838  29
  -2   8   5 17709.6 1082.07  23
  -2  -8   6 5255.43 526.451  50
  -2   8   6 5025.03 559.919  47
  -2  -8   7 146.185 68.6588  29
  -2   8   7 194.497 78.0678  41
  -2  10  -5 1033.41 160.338  46
  -2 -10  -5 1185.40 150.245  27
  -2  10  -4 1636.36 427.700  19
  -2 -10  -4 1699.15 259.004  27
  -2 -10  -4 1242.12 208.227  43
  -2  10  -4 1598.62 302.969  51
  -2 -10  -3 2978.48 351.778  37
  -2  10  -3 2675.97 563.659  19
  -2  10  -3 3006.52 372.295  45
  -2  10  -3 3018.16 436.506  51
  -2 -10  -3 3038.83 367.232  27
  -2 -10  -3 3194.61 347.252  43
  -2 -10  -2 5981.04 448.190  43
  -2 -10  -2 6267.21 494.484  37
  -2  10  -2 6817.37 785.518  19
  -2  10  -2 6749.25 600.283  51
  -2  10  -2 5296.57 551.704  42
  -2  10  -2 5928.05 470.764  45
  -2 -10  -2 6514.44 491.484  27
  -2 -10  -1 1020.45 304.363   3
  -2  10  -1 1245.82 283.218  19
  -2  10   0 55436.5 1982.88   4
  -2  10   0 58730.1 1552.33  11
  -2  10   1 13508.7 920.776   7
  -2  10   1 14941.3 963.096   4
  -2  10   1 13307.8 669.082  11
  -2  10   2 26616.4 1438.69   4
  -2 -10   2 25824.7 1495.44   3
  -2  10   2 29112.6 1454.40   7
  -2  10   3 6133.09 786.034   4
  -2 -10   3 6570.53 534.607  25
  -2 -10   3 5936.24 723.399   3
  -2  10   3 7483.49 813.984   7
  -2  10   3 7562.65 655.146  23
  -2  10   4 33539.7 1534.26  47
  -2 -10   4 31783.7 1435.56  50
  -2  10   4 31770.4 1510.36  23
  -2 -10   5 9114.50 761.832  50
  -2  10   5 8289.80 746.476  23
  -2 -10   6 136.838 118.399  50
  -2  10   6 110.680 93.0793  23
  -2  12  -5 3752.14 221.716  46
  -2 -12  -5 4846.31 249.222  27
  -2 -12  -4 14103.6 647.020  27
  -2  12  -4 13715.7 745.985  51
  -2  12  -3 17453.3 1302.89  19
  -2  12  -3 19554.0 1044.67  51
  -2 -12  -3 17599.6 838.647  27
  -2  12  -3 19382.9 894.224  45
  -2  12  -2 8550.58 881.614  19
  -2  12  -2 8879.33 706.963  51
  -2 -12  -2 7690.76 557.785  27
  -2  12  -2 8211.90 705.760  42
  -2  12  -1 14835.6 1037.14  19
  -2 -12  -1 14459.2 732.149  27
  -2  12  -1 15764.7 921.052  51
  -2 -12  -1 15724.6 1270.26   3
  -2  12  -1 15906.1 961.329  42
  -2 -12   0 14750.2 1206.56   3
  -2  12   0 16173.4 814.922  11
  -2  12   0 14856.8 1090.46   4
  -2 -12   1 8366.80 906.141   3
  -2  12   1 7099.20 529.147  11
  -2  12   1 8762.96 833.138   4
  -2 -12   2 8525.46 948.078   3
  -2 -12   2 8421.47 567.341  31
  -2 -12   2 9126.57 636.594  25
  -2  12   2 8977.83 717.059  23
  -2  12   2 9916.37 773.188  44
  -2  12   2 9522.50 933.367   4
  -2  12   3 74659.3 3083.15   4
  -2 -12   3 72516.9 1963.80  31
  -2 -12   3 71339.5 2918.99   3
  -2  12   3 82626.3 2502.41  44
  -2 -12   3 82788.1 2235.39  25
  -2 -12   3 80547.1 2333.60  50
  -2  12   3 86990.7 2522.28  23
  -2 -12   4 31551.3 1455.34  50
  -2  12   4 31995.4 1519.48  23
  -2  12   5 3079.53 454.701  23
  -2 -12   5 2926.54 424.362  50
  -2  12   6 2896.94 342.421  41
  -2 -12   6 2607.39 321.366  50
  -2 -14  -4 16597.0 623.470  27
  -2  14  -4 15655.7 716.177  51
  -2 -14  -3 28612.5 1022.91  27
  -2  14  -3 28290.6 1202.81  51
  -2  14  -2 39495.3 1887.07  19
  -2 -14  -2 46332.7 1437.54  27
  -2  14  -2 48469.2 1724.59  51
  -2  14  -2 38245.7 1479.57  11
  -2  14  -2 47627.4 1773.04  42
  -2 -14  -1 2359.34 545.524   3
  -2  14  -1 2105.45 466.208   4
  -2 -14  -1 2824.12 333.145  27
  -2  14  -1 2993.77 412.430  51
  -2  14  -1 2172.10 391.275  44
  -2  14  -1 2842.31 446.410  42
  -2  14  -1 2582.93 362.651  11
  -2 -14  -1 2403.29 321.379  40
  -2 -14   0 1790.01 293.312  25
  -2  14   0 1079.71 330.438   4
  -2  14   0 1952.98 385.662  44
  -2 -14   0 2036.31 300.008  31
  -2 -14   0 1686.98 235.084  27
  -2  14   0 2172.86 357.325  42
  -2  14   0 1866.85 294.855  11
  -2 -14   0 769.656 348.134   3
  -2  14   1 29862.3 1712.68   4
  -2  14   1 29740.1 1373.96  42
  -2 -14   1 27867.5 1131.31  31
  -2  14   1 29266.1 1406.94  44
  -2 -14   1 27811.5 1170.53  25
  -2 -14   1 29821.5 1889.39   3
  -2 -14   2 14614.6 796.787  31
  -2 -14   2 12350.1 1259.94   3
  -2  14   2 12403.9 1172.91   4
  -2  14   2 16336.8 1060.97  44
  -2 -14   2 14320.3 848.442  25
  -2 -14   3 1498.92 258.668  31
  -2 -14   3 1631.84 328.763  50
  -2 -14   3 1674.66 316.477  25
  -2  14   3 2213.55 396.062  44
  -2  14   3 1888.24 391.062  23
  -2  14   3 1563.20 291.695  41
  -2  14   4 398.819 152.861  44
  -2 -14   4 218.700 146.357  50
  -2  14   4 13.0619 103.986  41
  -2  14   4 240.254 182.001  23
  -2 -14   5 1505.79 302.320  50
  -2  14   5 1238.41 270.456  23
  -2  14   5 1320.38 275.362  41
  -2 -14   6 4925.20 351.638  50
  -2  14   6 4221.53 329.208  41
  -2  16  -4 2474.46 210.698  32
  -2 -16  -4 2887.93 204.263  27
  -2 -16  -3-80.6150 88.3826  31
  -2  16  -3 22.8457 107.417  51
  -2 -16  -3 24.5247 99.8464  27
  -2 -16  -2 1300.58 219.147  27
  -2  16  -2 1306.69 298.401  42
  -2  16  -2 1441.03 282.472  51
  -2  16  -1 17493.0 1056.99  42
  -2 -16  -1 17082.8 880.056  31
  -2 -16  -1 16269.0 775.848  27
  -2  16  -1 17008.9 953.756  51
  -2  16  -1 15138.5 951.038  44
  -2  16  -1 16263.0 917.061  11
  -2 -16   0 6141.64 527.224  31
  -2 -16   0 6446.92 542.086  25
  -2  16   0 6185.60 649.672  44
  -2  16   0 6900.73 663.992  42
  -2  16   0 6179.90 564.567  11
  -2 -16   1 18304.0 927.662  31
  -2  16   1 18903.8 1102.94  42
  -2 -16   1 17556.2 943.308  25
  -2  16   1 17613.3 1117.96  44
  -2 -16   2 65189.1 1844.99  31
  -2 -16   2 62970.9 1967.66  25
  -2  16   2 60274.4 1966.43  42
  -2 -16   3 8976.81 583.387  31
  -2 -16   3 8326.44 672.796  50
  -2 -16   3 10233.7 734.554  25
  -2  16   3 10300.4 832.302  44
  -2 -16   4 9077.46 676.715  50
  -2  16   4 9066.69 671.632  44
  -2  16   4 7212.64 565.581  41
  -2 -16   5 4350.62 397.848  50
  -2  16   5 3227.77 319.225  41
  -2 -18  -3 32.1337 50.8474  31
  -2 -18  -3-168.456 80.8203  27
  -2  18  -3 61.9513 92.4743  51
  -2 -18  -2 12965.4 644.580  31
  -2 -18  -2 12083.8 556.711  27
  -2  18  -2 12385.5 739.900  42
  -2  18  -2 12764.5 702.050  51
  -2 -18  -1 3835.47 392.496  31
  -2  18  -1 3301.94 381.519  51
  -2 -18  -1 3051.88 301.414  27
  -2  18  -1 3761.16 470.081  42
  -2  18   0 1496.87 306.434  42
  -2 -18   0 1663.09 280.857  31
  -2 -18   0 1290.19 236.586  25
  -2  18   0 1659.38 349.582  44
  -2 -18   1 6505.27 549.251  25
  -2 -18   1 6684.54 530.415  31
  -2  18   1 6574.27 622.307  42
  -2  18   1 6689.21 660.238  44
  -2 -18   2 9007.01 585.119  31
  -2  18   2 9311.06 762.623  44
  -2 -18   2 8665.24 638.343  25
  -2 -18   3 534.424 173.857  50
  -2  18   3 777.270 243.386  44
  -2 -18   3 686.193 200.495  25
  -2 -18   4 913.146 212.235  35
  -2  18   4 662.379 167.289  44
  -2 -18   4 694.854 183.239  50
  -2 -20  -2 2559.69 226.774  31
  -2  20  -2 1891.57 205.786  51
  -2  20  -2 2464.43 262.454  42
  -2 -20  -1 3066.41 303.637  31
  -2  20  -1 2749.32 337.315  42
  -2 -20   0 6710.40 456.286  25
  -2 -20   0 7627.55 499.390  31
  -2  20   0 6838.89 558.956  44
  -2  20   0 7624.55 589.302  42
  -2  20   1 906.311 231.816  44
  -2 -20   1 842.584 192.450  31
  -2 -20   1 911.371 193.793  25
  -2  20   1 1091.06 237.247  42
  -2 -20   2 2596.54 269.328  31
  -2 -20   2 2981.95 328.150  25
  -2  20   2 3319.60 407.802  44
  -2  20   3 6217.13 489.212  44
  -2 -22  -1 7860.03 349.549  31
  -2  22  -1 7412.16 400.252  42
  -2 -22   0 4135.59 281.691  31
  -2  22   0 4142.35 335.099  42
  -2 -22   1 112.333 73.2131  31
  -2  22   1 229.857 109.208  44
  -2 -22   1 325.781 111.449  25
  -2  22   1 402.008 121.030  42
  -2  22   2 1634.75 217.855  44
  -2 -22   2 1484.03 184.707  25
  -1   1  -6 10885.3 469.428  38
  -1   1  -6 11008.3 473.596  46
  -1  -1  -5 11827.2 677.444  38
  -1  -1  -5 11857.7 628.268  27
  -1   1  -5 12219.4 669.726  38
  -1  -1  -5 11116.5 625.964  46
  -1  -1  -4 8755.49 791.256  19
  -1  -1  -4 9150.70 608.821  49
  -1   1  -4 8730.28 837.601  19
  -1  -1  -4 7458.60 515.121  27
  -1   1  -4 8495.35 618.870  45
  -1  -1  -4 8520.73 576.386  38
  -1   1  -4 9210.22 608.469  49
  -1   1  -4 7636.84 533.393  38
  -1  -1  -3 31331.3 1373.11  19
  -1   1  -3 29165.7 1410.55  19
  -1   1  -3 30160.2 981.791  16
  -1  -1  -3 30215.3 1142.26  15
  -1  -1  -2 45601.1 1426.08  19
  -1   1  -2 44585.6 1474.84  19
  -1   1  -2 43564.0 1029.34  16
  -1  -1  -2 44145.7 1169.05  15
  -1  -1  -1 760350. 10607.7   3
  -1   1  -1 743586. 10659.2   3
  -1  -1   0 66952.6 1371.89   3
  -1   1   0 71392.1 1417.95   3
  -1   1   1 231672. 3692.42   4
  -1  -1   1 239504. 3559.51   2
  -1  -1   1 250453. 3630.76   3
  -1   1   1 247692. 3562.69   3
  -1  -1   1 233100. 3677.96   7
  -1   1   2 53071.1 1432.93  18
  -1  -1   2 62257.8 1390.42   2
  -1  -1   2 50196.4 970.507   3
  -1   1   2 59677.8 1233.51   2
  -1   1   3 17422.8 821.582   2
  -1   1   3 19571.4 1013.17  18
  -1  -1   3 18349.7 926.435  18
  -1  -1   3 18532.8 1039.73  22
  -1  -1   3 17437.3 874.920   2
  -1   1   3 18637.7 1028.87  22
  -1  -1   4 10061.6 831.828  18
  -1   1   4 10185.8 888.114  18
  -1  -1   4 10651.6 966.201  22
  -1   1   4 10679.0 963.859  22
  -1  -1   5 5335.53 596.645  36
  -1   1   5 4608.39 481.383  29
  -1   1   5 5808.21 628.212  47
  -1   1   5 4058.76 750.683   7
  -1  -1   5 3765.98 714.117   7
  -1   1   5 4173.02 468.258  50
  -1   1   5 5350.94 592.031  36
  -1   1   5 5176.15 792.534  22
  -1  -1   5 5139.95 785.974  22
  -1  -1   5 4537.48 513.313  50
  -1   1   6 3260.98 390.628  29
  -1  -1   6 2827.04 420.531  47
  -1  -1   6 3349.74 398.355  29
  -1  -1   6 2700.54 587.870  22
  -1   1   6 3777.55 500.439  47
  -1  -1   7 551.220 123.718  29
  -1   1   7 596.484 176.527  47
  -1   1   7 603.924 134.445  29
  -1  -1   7 537.367 148.635  47
  -1   3  -6 5052.09 334.677  46
  -1  -3  -6 5404.16 360.468  43
  -1  -3  -5 2175.20 303.608  38
  -1   3  -5 2642.80 507.394  19
  -1   3  -5 2137.64 270.243  38
  -1  -3  -5 2187.79 291.054  27
  -1   3  -4 2949.80 349.835  49
  -1   3  -4 2887.81 504.970  19
  -1  -3  -4 2804.10 340.850  38
  -1  -3  -4 2763.65 338.294  27
  -1   3  -4 2689.17 377.288  45
  -1   3  -4 2211.78 268.345  38
  -1  -3  -3 15708.0 806.311  15
  -1  -3  -3 13866.9 846.000  19
  -1   3  -3 14367.5 1019.69  19
  -1   3  -3 16636.9 751.976  16
  -1  -3  -2 19895.4 868.334  19
  -1   3  -2 21269.9 1055.81  19
  -1  -3  -2 24525.0 955.657   3
  -1   3  -2 23714.8 781.798  16
  -1  -3  -2 22579.0 826.084  15
  -1   3  -1 115677. 2512.64  19
  -1  -3  -1 119782. 2121.17  15
  -1   3   0 4858.38 334.087   7
  -1  -3   0 5012.79 339.154   3
  -1  -3   1 28336.1 843.139   3
  -1  -3   1 27846.3 832.582   2
  -1   3   1 29109.6 837.367   4
  -1   3   1 29444.7 883.191   7
  -1  -3   1 29191.3 669.287   7
  -1   3   2 17971.6 612.190   2
  -1   3   2 17604.1 826.039   4
  -1  -3   2 17659.1 657.095   3
  -1   3   2 16809.9 837.614   7
  -1   3   2 15864.9 785.925  22
  -1   3   3 178030. 3950.43  18
  -1  -3   3 171934. 3743.51   2
  -1   3   3 181868. 3973.63  22
  -1   3   4 16229.7 1265.07   7
  -1  -3   4 19205.9 1332.70  22
  -1   3   4 19489.3 1326.87  22
  -1   3   5 52731.2 2714.39   7
  -1  -3   5 60447.8 2023.70  36
  -1  -3   5 45260.4 2418.55   7
  -1  -3   5 58059.5 2005.03  50
  -1   3   5 67486.7 2292.18  47
  -1   3   5 65738.4 1913.02  29
  -1   3   5 61650.4 2783.17  22
  -1  -3   5 63133.0 2823.90  22
  -1  -3   6 15335.5 923.606  47
  -1  -3   6 18022.9 960.732  50
  -1   3   6 22107.1 998.750  29
  -1   3   6 19772.3 1142.99  47
  -1  -3   6 19164.2 934.742  29
  -1  -3   6 17919.5 1461.29  22
  -1   3   7 662.707 180.511  47
  -1  -5  -6 4531.22 277.023  27
  -1   5  -6 4656.76 318.303  46
  -1  -5  -6 5304.10 333.949  43
  -1   5  -5 1027.54 310.622  19
  -1   5  -5 1069.86 251.381  45
  -1  -5  -5 1160.83 219.869  27
  -1  -5  -5 778.353 189.382  38
  -1  -5  -4 4696.24 438.365  27
  -1   5  -4 5178.16 722.222  19
  -1   5  -4 5126.96 438.073  49
  -1  -5  -4 5090.63 549.329  15
  -1  -5  -4 4987.19 456.280  38
  -1   5  -4 5075.61 493.229  45
  -1  -5  -3 82674.0 2139.37  15
  -1   5  -3 79552.0 2688.19  19
  -1   5  -2 820.570 233.035  19
  -1  -5  -2 891.475 186.350  15
  -1   5  -1 103123. 2411.97  19
  -1  -5  -1 99645.3 1883.37  15
  -1  -5  -1 104526. 2336.47   3
  -1  -5   0 245801. 4326.20   3
  -1   5   0 254316. 4236.95   7
  -1   5   0 250590. 4314.29   5
  -1  -5   1 43796.8 1297.99   3
  -1   5   1 43475.3 1244.49   7
  -1   5   1 45569.0 1253.56   4
  -1   5   1 46977.3 1129.23   5
  -1   5   1 43507.9 979.072  11
  -1   5   2 11356.0 719.826   7
  -1   5   2 12079.6 727.212   4
  -1  -5   2 12890.0 754.129   2
  -1  -5   2 12086.4 674.637   3
  -1   5   3 63967.6 2203.63   7
  -1  -5   3 53231.7 1939.24   2
  -1  -5   4 14953.1 1125.20   2
  -1   5   4 16600.6 1306.01   7
  -1  -5   5 6536.54 612.048  36
  -1   5   5 7520.59 612.527  29
  -1  -5   5 7569.06 697.352  50
  -1   5   5 7548.55 727.996  47
  -1  -5   5 7118.50 934.177  22
  -1  -5   6 11844.4 766.047  50
  -1   5   6 12718.3 895.099  47
  -1  -5   6 11103.4 728.531  36
  -1   5   6 14357.9 783.174  29
  -1  -5   6 10866.9 1115.98  22
  -1  -5   6 11697.7 702.238  29
  -1  -7  -6 1616.94 159.576  27
  -1   7  -6 1570.48 176.567  46
  -1  -7  -6 1635.68 161.220  43
  -1  -7  -5 12011.9 604.892  37
  -1   7  -5 11510.2 1022.32  19
  -1   7  -5 13307.9 750.188  45
  -1  -7  -5 13933.9 692.561  27
  -1  -7  -5 13416.0 674.464  43
  -1  -7  -4 1538.89 258.719  37
  -1  -7  -4 1350.32 246.902  38
  -1   7  -4 1461.74 433.703  19
  -1  -7  -4 1468.16 316.272  15
  -1   7  -4 897.811 245.228  51
  -1   7  -4 1569.45 245.549  49
  -1   7  -4 1512.74 279.428  45
  -1  -7  -4 1472.55 260.140  27
  -1   7  -3 8255.38 575.865  45
  -1  -7  -3 8051.46 532.505  38
  -1   7  -3 8217.84 831.767  19
  -1  -7  -3 7995.43 531.102  27
  -1  -7  -3 8844.28 649.206  15
  -1   7  -2 55076.6 2030.83  19
  -1  -7  -2 58208.1 1524.50  15
  -1  -7  -1 104327. 2008.07  15
  -1   7  -1 108817. 2663.50  19
  -1  -7  -1 107766. 2633.50   3
  -1   7  -1 107029. 2792.35   5
  -1   7   0 191480. 3478.90   7
  -1   7   0 182535. 3671.59   5
  -1   7   1 158150. 3046.80   5
  -1  -7   1 156051. 3326.56   3
  -1   7   1 153744. 3063.73   7
  -1   7   1 161191. 3182.48   4
  -1   7   1 148018. 2654.95  11
  -1   7   2 33431.6 1376.32   4
  -1  -7   2 33346.8 1341.33   3
  -1  -7   2 34693.2 1421.62   2
  -1   7   2 31784.4 1306.93   7
  -1   7   3 14065.5 1066.37   4
  -1  -7   3 17083.8 981.142   3
  -1   7   3 14454.5 1057.24   7
  -1   7   4 28884.6 1148.76  29
  -1  -7   4 30176.8 1348.70  50
  -1   7   4 32612.1 1448.21  47
  -1  -7   5 13325.2 937.936  50
  -1   7   5 14233.4 847.566  29
  -1  -7   5 10559.9 1136.25  22
  -1   7   5 13299.4 984.250  47
  -1  -7   6 7882.97 613.021  50
  -1   7   6 8120.68 688.966  47
  -1  -9  -6 2159.75 160.031  27
  -1   9  -6 2247.20 178.569  46
  -1  -9  -5 6052.31 410.752  37
  -1  -9  -5 6508.63 415.649  43
  -1  -9  -5 6892.48 459.802  27
  -1   9  -5 7029.62 516.014  45
  -1   9  -4 9812.03 1009.67  19
  -1  -9  -4 10631.0 619.787  43
  -1  -9  -4 9512.95 579.736  33
  -1  -9  -4 10007.2 765.676  15
  -1   9  -4 10626.6 711.061  45
  -1  -9  -4 10475.6 649.135  27
  -1  -9  -4 10124.1 642.937  37
  -1   9  -4 10529.0 760.206  51
  -1  -9  -3 10129.1 632.377  38
  -1  -9  -3 10071.6 633.166  37
  -1   9  -3 10482.5 1009.10  19
  -1  -9  -3 8644.16 571.718  33
  -1   9  -3 10794.9 772.692  51
  -1  -9  -3 9953.35 710.082  15
  -1  -9  -3 10138.3 622.000  27
  -1   9  -3 10123.0 666.710  45
  -1   9  -2 65900.2 2354.10  19
  -1  -9  -2 67930.7 1740.09  15
  -1  -9  -1 12067.8 544.508  15
  -1   9  -1 12532.9 840.490  19
  -1  -9  -1 11373.8 850.857   3
  -1   9  -1 11840.3 922.494   5
  -1  -9   0 83542.7 2409.38   3
  -1   9   0 82838.9 2373.99   5
  -1   9   0 83183.0 1774.40  11
  -1  -9   1 36124.4 1493.09   3
  -1   9   1 33158.8 1300.99   5
  -1   9   1 33969.3 1247.79   7
  -1   9   1 32957.6 1344.74   4
  -1   9   1 30739.6 986.268  11
  -1  -9   2 11610.7 882.970   3
  -1   9   2 12378.8 833.353   7
  -1  -9   2 9985.80 828.819   2
  -1   9   2 10712.4 836.977   4
  -1   9   3 2294.82 463.921   4
  -1  -9   3 2007.61 420.605   2
  -1   9   3 2749.25 478.606   7
  -1  -9   3 2459.05 429.219   3
  -1   9   4 7656.61 903.983   7
  -1   9   4 9937.98 680.745  29
  -1  -9   4 8976.63 754.087  50
  -1   9   4 11070.2 864.257  47
  -1  -9   5 2994.73 451.269  50
  -1   9   5 2532.44 449.443  47
  -1   9   5 2744.80 450.010  23
  -1  -9   5 1861.33 482.374  22
  -1   9   6 755.062 227.016  47
  -1  -9   6 783.406 199.412  50
  -1   9   6 791.017 186.174  23
  -1  11  -5 3275.62 311.067  51
  -1 -11  -5 4510.54 343.837  27
  -1  11  -4 3869.33 642.155  19
  -1 -11  -4 4034.98 379.330  33
  -1  11  -4 4443.99 495.510  51
  -1 -11  -4 4375.00 412.784  27
  -1 -11  -4 3944.44 391.943  37
  -1  11  -4 4418.97 448.976  45
  -1 -11  -3 5615.36 482.993  37
  -1  11  -3 5557.59 776.579  19
  -1 -11  -3 5265.77 465.265  33
  -1  11  -3 5283.48 562.352  51
  -1 -11  -3 4899.53 510.121  15
  -1  11  -3 5540.62 499.266  45
  -1 -11  -3 5368.97 466.908  27
  -1 -11  -2 6880.92 493.401  27
  -1 -11  -2 6883.51 510.439  37
  -1  11  -2 6815.26 762.087  19
  -1 -11  -2 6723.67 506.226  33
  -1  11  -2 8105.95 650.213  51
  -1 -11  -2 7067.57 526.223  15
  -1  11  -1 8837.72 898.237   5
  -1  11  -1 8594.25 749.567  19
  -1 -11  -1 10980.6 947.224   3
  -1 -11   0 25755.9 1427.26   3
  -1  11   0 25527.0 1394.91   5
  -1  11   0 26189.6 1345.87   4
  -1  11   0 25515.3 954.333  11
  -1 -11   1 7918.84 778.531   3
  -1  11   1 7830.10 727.911   4
  -1  11   1 7854.67 710.781   5
  -1  11   1 8892.99 549.640  11
  -1  11   2 23192.7 1382.86   4
  -1 -11   2 21850.6 1377.05   3
  -1  11   3 36182.5 2050.47   4
  -1  11   3 45191.3 1672.45  34
  -1 -11   3 37044.8 1905.75   3
  -1  11   3 42691.3 1637.95  47
  -1  11   3 44400.7 1751.04  44
  -1 -11   3 45089.3 1646.53  50
  -1 -11   3 41757.2 1484.60  25
  -1  11   3 47498.4 1767.81  23
  -1 -11   4 42003.9 1703.24  50
  -1  11   4 40194.7 1722.18  47
  -1  11   4 40475.4 1752.50  23
  -1 -11   5 9088.97 744.419  50
  -1  11   5 7448.14 699.791  47
  -1  11   5 8594.76 742.232  23
  -1 -11   6 6241.44 471.928  50
  -1  11   6 5230.78 423.631  23
  -1  13  -5 1666.30 196.328  51
  -1 -13  -5 2471.90 226.688  27
  -1  13  -4 27529.1 1186.83  51
  -1 -13  -4 29225.4 1028.57  27
  -1  13  -4 30032.6 1083.08  45
  -1  13  -3 19021.9 1017.65  42
  -1  13  -3 20012.7 1429.49  19
  -1 -13  -3 19756.8 885.902  40
  -1 -13  -3 21151.7 958.262  33
  -1 -13  -3 20800.3 959.381  37
  -1  13  -3 22089.9 978.322  45
  -1  13  -3 22669.3 1159.16  51
  -1 -13  -3 21077.7 937.742  27
  -1 -13  -2 11403.2 686.010  37
  -1  13  -2 11322.2 1023.54  19
  -1 -13  -2 12093.0 715.819  33
  -1 -13  -2 11321.3 692.242  40
  -1  13  -2 12268.9 863.569  42
  -1  13  -2 12976.5 872.444  51
  -1 -13  -2 11257.9 656.684  27
  -1  13  -1 55308.9 1912.62  42
  -1  13  -1 51980.4 2009.30  19
  -1  13  -1 56027.8 1839.18  51
  -1 -13  -1 54520.9 2403.17   3
  -1  13  -1 54833.2 2481.98   5
  -1 -13  -1 48266.9 1509.30  25
  -1  13  -1 54705.9 1665.51  11
  -1 -13  -1 51622.6 1566.55  40
  -1 -13   0 4772.73 671.253   3
  -1  13   0 5062.72 699.860   5
  -1  13   0 5341.11 662.425   4
  -1  13   0 5972.78 487.484  11
  -1 -13   1 25002.6 1578.73   3
  -1  13   1 24184.5 1446.98   4
  -1 -13   2 21283.8 1509.24   3
  -1  13   2 19531.6 1396.57   4
  -1 -13   2 19197.3 1013.24  50
  -1  13   2 22979.2 1253.74  44
  -1 -13   2 19601.4 975.745  25
  -1  13   2 20554.4 1120.73  23
  -1  13   3 10489.7 1113.48   4
  -1 -13   3 10713.7 756.082  25
  -1 -13   3 10475.5 799.806  50
  -1  13   3 11253.8 896.559  44
  -1  13   3 10858.0 857.244  23
  -1 -13   4 20338.0 1137.01  50
  -1  13   4 18011.8 1055.68  44
  -1  13   4 19434.5 1167.44  23
  -1 -13   5 852.585 246.477  50
  -1  13   5 238.830 179.433  23
  -1 -13   6 107.664 78.6475  50
  -1  13   6 74.5376 80.7625  41
  -1 -15  -4 107.782 93.7887  27
  -1  15  -4 7.98865 85.8398  51
  -1  15  -3 15173.7 899.142  51
  -1 -15  -3 14588.0 725.839  27
  -1  15  -3 13690.3 822.443  42
  -1 -15  -3 14013.4 701.810  40
  -1  15  -2 44063.7 2027.91  19
  -1  15  -2 56516.8 1912.49  51
  -1 -15  -2 52509.5 1505.53  27
  -1  15  -2 51940.8 1916.84  42
  -1  15  -2 46276.6 1655.23  11
  -1 -15  -2 51628.6 1599.31  40
  -1  15  -1 4925.93 533.433  51
  -1  15  -1 4460.22 664.911   4
  -1  15  -1 4547.72 550.380  42
  -1  15  -1 3306.27 446.574  44
  -1 -15  -1 4660.52 452.809  25
  -1  15  -1 5034.77 494.518  11
  -1 -15  -1 4333.02 704.312   3
  -1 -15  -1 4535.87 462.911  40
  -1 -15   0 7539.89 950.334   3
  -1  15   0 8122.24 726.959  42
  -1  15   0 7704.27 719.225  44
  -1 -15   0 7728.20 601.960  25
  -1  15   0 6676.31 884.713   5
  -1  15   0 6913.93 818.860   4
  -1  15   0 7552.52 606.680  11
  -1 -15   0 6933.29 563.360  40
  -1  15   1 28833.4 1716.52   4
  -1 -15   1 28291.1 1194.02  25
  -1 -15   1 29403.5 1900.88   3
  -1 -15   1 26846.5 1089.65  31
  -1  15   1 29688.4 1392.78  42
  -1  15   1 28515.7 1433.51  44
  -1 -15   2 55810.0 1890.94  50
  -1 -15   2 56820.7 1837.62  25
  -1  15   2 58219.6 2045.16  23
  -1  15   2 61269.5 2200.08  44
  -1 -15   3 15158.8 964.424  50
  -1 -15   3 15715.6 933.748  25
  -1  15   3 15635.9 1064.15  44
  -1  15   3 14984.2 1030.35  23
  -1 -15   4 5611.46 567.668  50
  -1  15   4 5265.91 543.810  44
  -1  15   4 5402.30 575.143  23
  -1 -15   5 190.476 121.366  50
  -1  15   5 149.647 126.689  23
  -1  15   5 105.416 83.9264  41
  -1 -17  -4-30.5877 56.6918  31
  -1  17  -4 36.9721 64.2515  51
  -1 -17  -4 130.264 78.6886  27
  -1 -17  -3 61.7929 87.4566  27
  -1  17  -3 84.1426 135.207  51
  -1  17  -3 207.434 103.700  42
  -1 -17  -3-34.6761 69.3847  40
  -1 -17  -2 2980.60 301.970  27
  -1 -17  -2 3155.01 352.517  40
  -1 -17  -2 2818.89 311.005  25
  -1  17  -2 3217.09 466.195  42
  -1  17  -2 3178.00 415.829  51
  -1  17  -2 2806.93 369.459  11
  -1 -17  -1 654.277 201.700  40
  -1  17  -1 713.712 206.346  11
  -1  17  -1 721.899 202.739  51
  -1 -17  -1 735.355 203.625  25
  -1  17  -1 677.808 227.464  44
  -1  17  -1 758.740 270.018  42
  -1  17   0 9756.75 806.671  42
  -1 -17   0 9547.86 685.121  25
  -1 -17   0 9779.38 666.424  31
  -1  17   0 8640.82 795.585  44
  -1 -17   1 3734.35 394.818  31
  -1 -17   1 3923.71 449.896  25
  -1  17   1 3856.65 544.694  44
  -1  17   1 3847.06 495.706  42
  -1 -17   2 2640.44 377.161  50
  -1 -17   2 2745.29 373.400  25
  -1  17   2 2977.14 455.835  44
  -1 -17   3 412.975 182.721  25
  -1 -17   3 453.709 181.057  50
  -1  17   3 345.213 180.234  44
  -1  17   3 541.865 216.012  23
  -1 -17   4 5883.16 522.297  50
  -1  17   4 5440.60 481.703  44
  -1  17   4 5109.58 503.584  23
  -1 -17   5 3091.48 281.289  50
  -1 -19  -3 587.208 137.710  31
  -1  19  -3 562.210 147.006  51
  -1  19  -3 432.924 104.976  42
  -1  19  -2 899.907 202.024  51
  -1 -19  -2 943.610 200.831  31
  -1  19  -2 688.232 200.386  42
  -1  19  -1 14734.6 786.706  51
  -1 -19  -1 16439.7 804.221  31
  -1  19  -1 16761.6 970.123  42
  -1 -19  -1 15770.0 776.216  25
  -1  19   0 2326.11 392.654  44
  -1 -19   0 2259.57 327.159  25
  -1 -19   0 2518.47 330.505  31
  -1  19   0 2371.85 383.910  42
  -1  19   1 14037.8 946.341  44
  -1 -19   1 14225.9 712.984  31
  -1  19   1 13400.0 858.317  42
  -1 -19   1 14409.4 814.496  25
  -1  19   2 202.451 167.270  44
  -1 -19   2 72.0135 116.825  25
  -1 -19   2 96.9016 119.438  50
  -1 -19   3 802.527 211.789  50
  -1  19   3 1276.48 273.161  44
  -1 -19   3 1016.06 217.775  25
  -1  19   4 7057.21 415.904  44
  -1 -19   4 9072.04 504.786  50
  -1 -21  -2 1346.87 179.557  31
  -1  21  -2 856.274 142.209  51
  -1  21  -2 1353.66 208.264  42
  -1 -21  -1 4962.86 368.651  31
  -1  21  -1 4330.31 415.172  42
  -1 -21  -1 3902.27 318.415  25
  -1 -21   0 8369.50 481.239  31
  -1  21   0 7784.64 569.172  44
  -1 -21   0 7810.78 505.465  25
  -1  21   0 7670.52 579.002  42
  -1  21   1 354.239 140.279  44
  -1 -21   1 322.451 127.477  25
  -1  21   1 267.738 144.186  42
  -1  21   2 1814.17 280.690  44
  -1 -21   2 2031.96 254.889  25
  -1 -21   3 364.643 107.564  35
  -1  21   3 839.681 177.643  44
  -1  23  -1 4422.03 289.264  42
  -1 -23   0 2329.89 199.108  25
  -1  23   0 2443.27 238.378  42
  -1  23   1 14706.2 610.602  44
  -1 -23   1 15833.9 562.528  25
   0   0  -7-23.7277 42.0456  43
   0   0  -6 6589.00 462.875  38
   0   0  -6 6241.61 404.006  27
   0   0  -5-134.143 122.835  38
   0   0  -5-3.93284 157.067  49
   0   0  -5-63.0309 134.945  45
   0   0  -5-46.2272 105.162  27
   0   0  -4 27680.6 1379.30  19
   0   0  -4 24169.5 974.861  49
   0   0  -4 27434.2 1037.06  16
   0   0  -4 27928.8 1171.28  15
   0   0  -3 156.615 109.896  19
   0   0  -3-30.4186 81.4799  16
   0   0  -3-2.67112 104.717  15
   0   0  -2 79294.4 1709.50   9
   0   0  -2 76460.9 1576.50  15
   0   0  -2 75610.1 1463.47  16
   0   0  -1 23.4179 50.1743   9
   0   0   1 0.98064 61.2364   2
   0   0   2 87086.2 2003.36  18
   0   0   2 65985.5 1852.36   2
   0   0   3 115.769 139.060  18
   0   0   3-10.2902 116.236   2
   0   0   4 28773.0 1686.59  22
   0   0   4 26422.4 1552.12  18
   0   0   5-71.0781 147.984  36
   0   0   5-161.782 187.184  18
   0   0   5-46.0468 196.332  22
   0   0   5-249.388 144.856  29
   0   0   6 5836.34 599.829  47
   0   0   6 6194.00 467.545  29
   0  -2  -6 39185.1 1217.93  38
   0   2  -6 37746.7 1155.43  38
   0  -2  -6 39104.6 1136.57  27
   0  -2  -5 23248.1 981.578  27
   0   2  -5 21304.6 1364.01  19
   0   2  -5 19374.9 989.869  16
   0  -2  -5 22728.9 1000.09  38
   0  -2  -5 23238.3 1031.64  49
   0   2  -5 22994.8 1038.42  45
   0   2  -5 23267.7 1018.92  49
   0   2  -4 21242.5 1294.44  19
   0   2  -4 19131.3 862.559  49
   0  -2  -4 20084.5 848.320  16
   0   2  -4 21577.4 945.592  16
   0  -2  -4 19297.1 870.013  49
   0  -2  -4 22191.1 1050.91  15
   0  -2  -3 1761.37 262.856  19
   0   2  -3 1952.16 342.614  19
   0  -2  -3 2000.90 225.008  16
   0   2  -3 2135.84 262.533  16
   0  -2  -3 2242.24 283.762  15
   0   2  -3 2272.38 279.620  15
   0  -2  -2 32506.4 899.949  15
   0   2  -2 33629.8 919.137   9
   0   2  -2 33349.5 858.859  16
   0   2  -2 35943.1 903.937  15
   0  -2  -1 13111.7 396.740   3
   0   2  -1 10274.8 489.450   5
   0  -2   0 3022.38 178.683   2
   0   2   0 3209.44 126.046   7
   0   2   1 12238.9 510.118   4
   0  -2   1 16209.3 631.084   2
   0   2   2 41503.1 1337.77   2
   0  -2   2 40990.2 1400.98   2
   0   2   3 2087.22 390.542  18
   0  -2   3 2095.89 364.302  18
   0   2   3 2147.83 368.150   2
   0  -2   3 2135.13 382.460   2
   0   2   3 2298.81 383.526  22
   0   2   4 20227.7 1060.86  36
   0  -2   4 20219.1 1046.54  36
   0   2   4 21873.2 1455.52  18
   0  -2   4 19563.3 1277.87  18
   0  -2   4 19907.4 1390.12   2
   0   2   4 22981.4 1489.80  22
   0  -2   5 20992.4 998.235  29
   0   2   5 21276.2 1213.10  36
   0  -2   5 22538.4 1226.34  36
   0   2   5 25273.5 1099.37  29
   0   2   5 22195.3 1654.01  22
   0  -2   5 22566.7 1693.14  22
   0  -2   6 34654.1 1415.97  36
   0  -2   6 33307.0 1409.06  47
   0   2   6 36334.3 1519.68  47
   0   2   6 39232.1 1224.87  29
   0  -2   6 31054.7 1856.67  22
   0  -4  -6 1965.20 259.004  38
   0   4  -6 1726.47 218.231  38
   0  -4  -6 1823.56 208.856  37
   0  -4  -6 2196.35 262.571  27
   0  -4  -5 9789.43 643.780  38
   0   4  -5 9237.10 631.265  49
   0   4  -5 9017.07 933.766  19
   0   4  -5 8948.33 668.291  45
   0  -4  -5 8681.26 729.532  15
   0  -4  -5 9221.39 615.591  27
   0   4  -4 6403.94 756.139  19
   0   4  -4 7153.54 571.122  16
   0  -4  -4 6681.02 586.252  15
   0   4  -4 5982.24 475.837  49
   0  -4  -4 6278.38 493.813  49
   0  -4  -4 6406.90 493.523  27
   0   4  -4 5988.19 523.171  45
   0  -4  -4 6017.55 464.028  38
   0   4  -3 4138.84 534.652  19
   0  -4  -3 3854.19 305.749  16
   0   4  -3 4353.88 384.765  16
   0  -4  -3 4375.13 394.345  15
   0   4  -2 56220.7 1712.37   5
   0   4  -2 53374.3 1268.41  16
   0  -4  -2 51987.3 1268.30  15
   0  -4  -2 55276.0 1266.80   3
   0  -4  -1 18825.9 590.050  10
   0   4  -1 20022.9 583.140  16
   0  -4   0 63535.1 1340.37   2
   0   4   0 51767.0 995.721   7
   0   4   1 21497.3 771.376   4
   0   4   1 21578.4 663.961   6
   0   4   2 53197.0 1689.89   4
   0   4   2 54488.2 1718.55  18
   0   4   2 52195.9 1621.71  22
   0  -4   3 5325.63 635.152   2
   0   4   3 4678.08 595.722  18
   0  -4   3 3919.38 465.113  18
   0   4   3 5390.20 597.253   2
   0   4   3 4352.37 553.184  22
   0   4   4 6952.33 618.071  36
   0  -4   4 7602.98 632.337  36
   0   4   4 7355.37 895.913  18
   0   4   4 6182.06 508.766  29
   0  -4   4 6441.03 562.155  48
   0   4   4 6532.43 788.730  22
   0  -4   5 9187.61 768.387  36
   0  -4   5 7778.04 662.400  50
   0   4   5 9882.78 683.035  29
   0   4   5 9034.38 817.152  47
   0  -4   5 8608.50 1053.51  22
   0  -4   6 1326.82 283.376  47
   0  -4   6 1456.47 286.811  36
   0   4   6 2002.19 368.212  47
   0  -6  -6 8521.17 502.070  38
   0  -6  -6 7783.09 435.633  37
   0  -6  -6 8945.93 496.710  27
   0   6  -6 8137.17 519.402  45
   0  -6  -6 8687.61 476.124  43
   0   6  -5 220.060 126.834  49
   0  -6  -5 200.230 123.166  38
   0   6  -5 84.3061 147.466  45
   0   6  -5-53.1585 138.487  19
   0  -6  -5 218.135 154.897  27
   0  -6  -5 65.0534 125.597  15
   0  -6  -4-90.9566 94.0341  38
   0   6  -4 382.929 223.639  19
   0   6  -4-27.7338 128.387  16
   0  -6  -4 70.9557 144.294  15
   0   6  -4-3.16347 67.5672  49
   0   6  -4 71.6907 119.164  45
   0  -6  -4 2.70790 110.855  27
   0   6  -3 4976.03 616.958  19
   0  -6  -3 5828.72 480.685  15
   0   6  -3 5698.53 471.473  16
   0  -6  -2 87622.2 2039.47   3
   0   6  -2 85529.0 1644.99  14
   0   6  -2 90293.3 2544.87   5
   0  -6  -1 47369.9 1182.68  10
   0  -6  -1 45078.9 1048.79  15
   0   6  -1 47395.7 994.712  14
   0   6  -1 49457.7 1539.18   5
   0  -6   0 22287.7 690.875  10
   0  -6   0 21778.4 692.835   8
   0   6   0 21984.4 609.562   7
   0   6   1 49956.4 1314.92   7
   0  -6   1 46458.2 1109.65  10
   0   6   1 51039.1 1326.15   6
   0  -6   1 56631.7 1656.21   2
   0   6   1 52942.9 1473.67   4
   0   6   2 89698.1 2481.78   4
   0   6   2 97988.7 2580.16  18
   0  -6   2 86126.2 2564.83   2
   0   6   2 99346.6 2064.30   6
   0   6   3 3377.16 490.642   2
   0  -6   3 4043.21 584.714   2
   0  -6   4 220.029 199.682  50
   0  -6   4-80.0847 121.956  36
   0   6   4-59.5182 154.306  47
   0   6   4 21.6416 58.7911  29
   0  -6   4 1.54168 130.869  28
   0   6   4 166.157 170.344   7
   0  -6   5 301.259 180.240  36
   0   6   5 344.056 151.210  29
   0  -6   5 205.669 159.055  50
   0   6   5 331.879 234.470  47
   0  -6   5-204.418 264.155  22
   0  -6   6 7031.47 537.524  36
   0   6   6 6657.63 593.001  47
   0  -8  -6 316.355 94.6753  37
   0  -8  -6 469.403 127.280  27
   0   8  -6 310.364 129.901  45
   0  -8  -6 384.315 92.3151  43
   0  -8  -5 975.783 212.588  38
   0  -8  -5 914.605 205.257  37
   0   8  -5 944.367 255.549  45
   0   8  -5 1175.67 360.584  19
   0   8  -5 950.179 190.122  49
   0  -8  -5 943.169 195.813  33
   0  -8  -5 975.684 259.312  15
   0  -8  -5 1056.41 227.056  27
   0  -8  -4 2488.11 327.549  38
   0   8  -4 2355.63 518.788  19
   0   8  -4 2315.94 374.874  51
   0   8  -4 2245.46 340.557  45
   0  -8  -4 2304.02 390.551  15
   0  -8  -4 2511.17 327.324  27
   0   8  -4 1749.39 259.828  49
   0  -8  -3 70389.0 1931.87  15
   0   8  -3 66469.1 2453.25  19
   0  -8  -2 5199.28 395.196  15
   0   8  -2 4904.25 319.276  14
   0  -8  -1 147896. 2863.81  10
   0  -8  -1 146347. 2592.07  15
   0   8  -1 150968. 3460.71   5
   0   8  -1 150472. 2565.33  14
   0  -8   0 150213. 2754.16  10
   0  -8   0 144378. 2701.71   8
   0   8   0 147794. 2587.34  11
   0  -8   1 147909. 2730.22  10
   0  -8   1 162242. 3455.94   2
   0   8   1 139482. 2832.30   7
   0   8   1 155637. 3249.05   4
   0  -8   1 139202. 3141.43  21
   0   8   2 7041.89 685.272   4
   0   8   2 5324.93 540.570   7
   0  -8   3 59089.5 2513.60   2
   0   8   3 63671.8 2432.45   7
   0  -8   4 2109.89 338.627  36
   0  -8   4 1022.11 374.915   2
   0   8   4 2118.27 414.634  47
   0   8   4 2888.42 375.870  29
   0  -8   4 2458.93 367.188  28
   0   8   4 757.840 326.122   7
   0  -8   4 2749.46 426.385  50
   0  -8   5 670.906 221.956  36
   0  -8   5 1112.41 288.818  50
   0   8   5 851.874 292.474  47
   0  -8   5 374.790 290.341  22
   0   8   6 363.954 162.296  47
   0   8   6 117.880 62.9502  23
   0 -10  -6 406.136 103.082  27
   0 -10  -5 3872.10 376.537  37
   0  10  -5 3252.07 576.542  19
   0 -10  -5 3547.86 334.349  33
   0  10  -5 2482.76 323.923  51
   0 -10  -5 3854.14 368.826  27
   0  10  -5 3721.19 395.919  45
   0 -10  -4 20680.9 960.271  37
   0  10  -4 19483.4 1446.03  19
   0 -10  -4 21381.6 957.664  33
   0  10  -4 21104.0 1129.16  51
   0 -10  -4 20342.1 1123.14  15
   0  10  -4 21005.1 1015.56  45
   0 -10  -4 20646.9 940.908  27
   0 -10  -4 22044.9 980.431  38
   0 -10  -3 5166.40 437.555  38
   0 -10  -3 6271.91 545.501  15
   0 -10  -3 5742.43 475.852  37
   0  10  -3 6751.91 613.897  51
   0  10  -3 5922.81 746.979  19
   0 -10  -3 5656.97 459.328  27
   0  10  -3 5123.45 466.352  45
   0 -10  -3 5793.24 473.528  33
   0 -10  -2 5967.11 595.262   3
   0 -10  -2 4702.73 399.168  15
   0  10  -2 4606.22 642.939   5
   0  10  -1 55517.5 2090.54   5
   0 -10  -1 51668.0 1889.82   3
   0 -10  -1 57259.2 1355.30  15
   0 -10   0 28242.6 1043.17  10
   0  10   0 27762.9 1281.02   4
   0  10   0 27651.2 918.816  11
   0  10   1 55475.0 1917.37   4
   0 -10   1 59330.6 1550.15  10
   0 -10   1 53658.5 1810.94  21
   0 -10   2 6329.75 726.203   2
   0  10   2 5122.57 642.637   4
   0  10   3 4465.83 511.962  47
   0 -10   3 6467.12 837.832   2
   0  10   3 5493.51 753.334   4
   0  10   3 5485.40 566.848  34
   0 -10   3 5490.46 561.930  50
   0 -10   3 5459.35 479.383  28
   0  10   3 5268.72 589.352  44
   0  10   4 18434.2 1075.50  34
   0 -10   4 21351.1 1027.25  28
   0 -10   4 20122.8 1163.55  50
   0  10   4 17629.0 1111.74  47
   0  10   5 2795.84 450.587  47
   0  10   5 3803.40 495.167  23
   0 -10   5 2133.60 493.707  22
   0 -10   5 3053.05 429.480  50
   0  10   6 239.104 77.8820  23
   0 -12  -6 1253.17 135.535  27
   0  12  -6 1132.20 127.476  46
   0 -12  -5 34585.1 1075.76  27
   0 -12  -5 31401.6 1000.02  33
   0 -12  -5 32505.4 1070.59  37
   0  12  -5 33728.4 1139.12  45
   0 -12  -4 18331.9 1037.36  15
   0 -12  -4 21480.4 961.001  37
   0  12  -4 18794.3 1401.66  19
   0 -12  -4 20822.0 943.473  33
   0  12  -4 21630.4 1138.97  51
   0  12  -4 20108.3 984.120  45
   0 -12  -4 21302.2 936.824  27
   0  12  -3 14233.0 1219.15  19
   0 -12  -3 14802.5 795.338  33
   0 -12  -3 14383.3 783.614  37
   0 -12  -3 15633.1 898.699  15
   0  12  -3 15452.9 977.644  51
   0  12  -3 14439.7 807.190  45
   0 -12  -3 14869.3 773.880  27
   0 -12  -2 954.978 191.173  37
   0 -12  -2 721.664 164.993  33
   0 -12  -2 894.510 199.405  15
   0  12  -2 919.927 223.551  51
   0  12  -2 738.219 288.417   5
   0 -12  -1 36859.3 1769.31   3
   0  12  -1 38835.3 1922.08   5
   0 -12   0 490.846 170.701  10
   0  12   0 128.957 138.087   4
   0  12   0 97.1627 148.263   5
   0 -12   0 417.296 215.183   3
   0  12   0 423.753 136.801  11
   0 -12   1 43897.5 1451.19  10
   0  12   1 38357.2 1783.14   4
   0  12   2 896.281 317.189   4
   0  12   2 662.927 222.639  34
   0 -12   2 1661.22 411.329   2
   0  12   2 1022.48 268.926  44
   0 -12   2 869.884 206.753  50
   0 -12   3 14472.7 938.481  50
   0  12   3 11437.9 1198.11   4
   0  12   3 16038.9 1030.55  34
   0 -12   3 13330.6 1272.29   2
   0 -12   3 13900.9 788.935  25
   0 -12   3 13899.6 794.307  28
   0  12   3 15473.2 1070.71  44
   0  12   4 20708.8 1143.12  34
   0 -12   4 21102.7 981.944  28
   0 -12   4 21443.8 1192.47  50
   0 -12   5 30569.4 1259.25  50
   0  12   5 28015.9 1265.03  23
   0  14  -5 4529.86 371.580  51
   0 -14  -5 5263.24 347.242  27
   0  14  -5 5120.58 368.115  45
   0 -14  -4 5247.43 450.218  37
   0  14  -4 4395.16 690.835  19
   0 -14  -4 4981.08 434.641  33
   0  14  -4 4545.09 505.655  51
   0 -14  -4 5065.65 419.823  27
   0  14  -4 4933.33 432.485  45
   0 -14  -4 4864.12 414.786  40
   0 -14  -3 22431.4 1002.45  37
   0  14  -3 20137.8 1449.07  19
   0  14  -3 23725.5 1216.68  51
   0 -14  -3 22894.6 1014.31  33
   0  14  -3 19216.3 1054.85  42
   0  14  -3 21532.1 975.872  45
   0 -14  -3 21078.6 933.511  25
   0 -14  -3 22517.4 937.680  27
   0 -14  -3 22537.4 1014.92  40
   0 -14  -2 39934.5 1380.48  37
   0  14  -2 36263.3 1874.86  19
   0 -14  -2 40311.0 1379.06  33
   0  14  -2 41652.0 1667.26  51
   0  14  -2 39209.5 2249.62   5
   0 -14  -2 39916.5 1394.53  25
   0  14  -2 42906.6 1707.12  42
   0 -14  -2 41792.2 1431.69  40
   0 -14  -1 90512.9 3251.32   3
   0  14  -1 90242.5 2523.59  51
   0 -14  -1 91642.9 2290.75  25
   0  14  -1 87975.3 3304.37   5
   0  14  -1 96536.7 2693.17  42
   0  14  -1 91075.1 2301.95  11
   0 -14  -1 90376.1 2252.29  40
   0  14   0 299.936 200.288  44
   0  14   0 1186.17 323.911   4
   0 -14   0 427.139 154.936  25
   0  14   0 685.080 225.597  42
   0  14   0 770.264 327.163   5
   0  14   0 486.838 168.700  11
   0 -14   0 439.171 135.918  40
   0  14   1 93530.3 3213.01   4
   0 -14   1 90639.3 3309.91   3
   0 -14   1 90219.1 2416.48  50
   0  14   1 96071.1 2813.64  44
   0 -14   1 90891.9 2344.95  25
   0  14   1 90258.4 2622.99  42
   0  14   2 38413.0 2154.42   4
   0  14   2 42724.7 1698.13  34
   0 -14   2 40227.4 2218.93   3
   0 -14   2 41280.9 1598.59  50
   0  14   2 37446.4 1535.86  26
   0  14   2 42498.2 1838.45  44
   0 -14   2 40491.2 1499.22  25
   0  14   2 38188.5 1641.52  23
   0 -14   3 21026.7 977.770  28
   0 -14   3 22717.9 1194.66  50
   0  14   3 22423.2 1316.27  44
   0 -14   3 22036.8 1046.38  25
   0  14   3 21370.1 1248.57  23
   0 -14   4 4635.07 405.547  28
   0 -14   4 5286.16 569.429  50
   0  14   4 4359.54 499.071  44
   0  14   4 4692.93 549.107  23
   0 -14   5 4780.35 431.223  50
   0  14   5 4361.70 424.830  23
   0  16  -5 110.834 56.6051  51
   0  16  -4 675.310 167.479  45
   0 -16  -4 723.311 139.072  40
   0  16  -4 708.774 180.315  51
   0 -16  -4 814.334 165.703  27
   0  16  -3 5189.90 706.135  19
   0  16  -3 7608.95 653.026  51
   0 -16  -3 7235.81 470.919  27
   0 -16  -3 6896.97 497.110  25
   0  16  -3 6931.19 610.947  42
   0  16  -3 5559.86 522.284  11
   0 -16  -3 6968.46 530.676  40
   0  16  -2 16321.7 1007.74  51
   0  16  -2 15796.7 1026.92  42
   0 -16  -2 15355.4 840.100  25
   0  16  -2 14968.1 876.947  11
   0 -16  -2 14973.3 838.466  40
   0  16  -1 654.388 198.945  51
   0 -16  -1 250.298 149.328  25
   0  16  -1 425.090 217.273  42
   0  16  -1 381.135 153.069  11
   0 -16  -1 231.280 143.559  40
   0  16   0-299.250 180.327   4
   0 -16   0-162.314 133.766  31
   0 -16   0 38.5200 80.5674  50
   0 -16   0-19.6256 120.894  25
   0  16   0-203.726 180.162  44
   0  16   0-43.0954 129.040  42
   0 -16   0 55.4686 121.561   3
   0 -16   0-75.7169 106.707  40
   0 -16   1 378.641 190.494  25
   0 -16   1 478.719 178.131  50
   0  16   1 129.775 186.472  44
   0  16   1 411.819 194.065  42
   0 -16   2 15423.3 959.434  50
   0  16   2 15683.6 1086.07  44
   0  16   2 14339.7 958.202  23
   0 -16   2 15529.5 904.402  25
   0 -16   3 7807.81 670.801  50
   0  16   3 7445.88 722.013  44
   0 -16   3 7569.16 577.171  25
   0  16   3 6749.07 664.069  23
   0 -16   4 627.955 202.297  50
   0  16   4 633.786 191.547  44
   0  16   4 558.709 202.594  23
   0 -16   5 4.78537 65.2151  50
   0  16   5 186.388 88.6616  23
   0  18  -4 4202.83 343.511  51
   0 -18  -4 3596.19 239.931  40
   0 -18  -3 115.320 92.4717  40
   0  18  -3 89.5037 129.299  51
   0 -18  -3 117.364 71.9792  25
   0  18  -3 56.8962 97.6108  42
   0  18  -2 1205.99 265.768  51
   0 -18  -2 1225.96 245.454  25
   0  18  -2 1385.80 305.388  42
   0 -18  -2 1209.24 242.979  40
   0  18  -1 1461.58 277.433  51
   0  18  -1 1901.46 380.211  42
   0 -18  -1 1768.19 307.110  25
   0 -18  -1 1519.82 275.278  40
   0  18  -1 1495.72 264.263  11
   0 -18   0 1697.38 305.207  25
   0 -18   0 1744.99 274.810  31
   0 -18   0 1559.09 271.139  50
   0  18   0 1604.08 360.279  44
   0  18   0 1482.43 338.024  42
   0 -18   1 1544.17 299.845  25
   0  18   1 1476.88 310.806  42
   0 -18   1 1599.26 296.879  50
   0  18   1 1559.49 376.407  44
   0 -18   2 1226.33 275.691  50
   0  18   2 1297.62 313.763  44
   0 -18   2 1416.68 267.451  25
   0  18   2 1028.79 252.950  23
   0 -18   3 1.80349 127.610  50
   0  18   3 185.061 163.193  44
   0 -18   3 202.765 119.223  25
   0  18   3 246.528 152.960  23
   0 -18   4 4435.23 379.994  50
   0  18   4 3599.76 317.542  44
   0  18   4 4097.68 376.614  23
   0 -20  -3 1978.49 220.265  31
   0  20  -3 1532.74 216.948  51
   0  20  -3 1384.57 186.458  42
   0  20  -2 16232.2 793.043  51
   0 -20  -2 18426.8 758.412  25
   0  20  -2 18001.3 904.395  42
   0 -20  -1 1555.46 240.825  31
   0  20  -1 1608.20 307.896  42
   0 -20  -1 1586.81 251.305  25
   0  20   0 125.102 146.260  42
   0  20   0 13.9677 117.316  44
   0 -20   0 107.735 114.268  25
   0 -20   1 1136.36 229.114  50
   0  20   1 1440.70 307.707  44
   0 -20   1 1660.20 282.490  25
   0  20   1 1429.28 283.177  42
   0 -20   2 17760.9 853.120  50
   0 -20   2 18878.6 842.665  25
   0  20   2 19164.8 981.856  44
   0 -20   3 1872.81 251.392  50
   0  20   3 1648.61 250.848  44
   0 -22  -2 13243.3 472.975  31
   0  22  -2 12359.7 563.503  42
   0 -22  -1 3407.12 254.945  31
   0 -22  -1 4180.17 320.851  25
   0  22  -1 3509.26 346.517  42
   0  22   0 3072.66 311.990  44
   0  22   0 3205.95 346.409  42
   0 -22   0 3661.23 327.590  25
   0 -22   1 3768.77 324.242  25
   0  22   1 3838.21 372.247  44
   0  22   1 2996.10 291.664  42
   0  22   2 12907.9 615.515  44
   0 -22   2 11424.9 491.393  25
   1   1  -7 777.812 131.893  38
   1  -1  -7 737.229 108.432  27
   1  -1  -7 653.682 124.752  38
   1  -1  -6 3424.93 370.721  38
   1   1  -6 3617.73 378.668  38
   1  -1  -6 3598.59 404.763  49
   1   1  -6 3610.05 405.383  49
   1  -1  -6 3465.27 359.068  27
   1   1  -6 3471.52 345.393  27
   1   1  -5 4198.95 435.695  49
   1  -1  -5 4401.83 450.865  49
   1  -1  -5 4999.40 488.761  16
   1   1  -5 4930.36 507.034  16
   1  -1  -5 4545.47 519.936  15
   1   1  -5 4300.32 439.564  45
   1   1  -4 10741.7 833.836  19
   1   1  -4 10256.8 762.262   9
   1  -1  -4 9433.81 594.349  16
   1   1  -4 10221.8 624.872  16
   1  -1  -4 9927.21 661.327  15
   1   1  -4 10434.0 651.918  15
   1  -1  -3 14864.9 761.355  19
   1  -1  -3 16949.0 865.095   9
   1   1  -3 18715.2 718.035  15
   1   1  -3 17010.4 836.503   9
   1  -1  -3 17320.6 680.861  16
   1   1  -3 17248.4 689.123  16
   1  -1  -3 17577.5 723.415  15
   1  -1  -2 53360.1 1364.88   9
   1   1  -2 49854.5 1115.93  16
   1  -1  -2 51873.8 1139.87  15
   1   1  -2 51318.1 1085.42  15
   1  -1  -1 227448. 3176.38   6
   1   1  -1 229187. 3445.34   6
   1   1   0 66218.0 1032.18   4
   1   1   0 64841.0 1264.91   8
   1   1   1 690493. 9916.96  12
   1  -1   1 695679. 9954.64  13
   1   1   2 35983.5 1533.15   2
   1  -1   2 34994.5 1533.82   2
   1  -1   2 45774.3 1178.72  13
   1   1   2 44485.9 1105.42  13
   1   1   3 30507.1 1571.70  18
   1  -1   3 28046.6 1499.98  18
   1   1   3 21562.7 1430.31   2
   1  -1   3 24656.1 1541.25   2
   1   1   4 8537.20 709.986  36
   1  -1   4 9086.66 736.668  36
   1   1   4 3962.51 718.595   2
   1   1   4 9915.67 1065.93  18
   1  -1   4 8696.47 981.137  18
   1  -1   4 10440.8 786.798  48
   1   1   4 3238.29 521.391  24
   1  -1   4 4127.45 730.079   2
   1   1   4 7990.62 924.667  22
   1   1   5 10592.0 832.144  36
   1  -1   5 11282.0 856.242  36
   1   1   5 8802.74 1023.51  18
   1  -1   5 7153.35 905.095  18
   1   1   5 9321.58 1070.83  22
   1  -1   5 8669.28 1036.75  22
   1   1   6 11374.2 739.174  47
   1  -1   6 10724.0 709.104  47
   1  -3  -7 916.155 141.443  38
   1   3  -7 871.636 120.656  38
   1  -3  -7 922.779 131.290  27
   1  -3  -6 20566.4 903.447  38
   1   3  -6 21429.9 936.578  49
   1  -3  -6 21187.4 893.803  27
   1   3  -6 18323.6 756.228  27
   1   3  -6 20774.6 910.321  45
   1   3  -5 59330.9 2393.52  19
   1  -3  -5 56343.6 1751.72  16
   1   3  -5 63524.5 1950.56  16
   1  -3  -5 61262.1 2035.59  15
   1  -3  -5 62898.9 1788.71  49
   1   3  -5 59104.4 1745.11  49
   1   3  -5 60931.4 1824.35  45
   1   3  -4 16428.8 1129.65  19
   1   3  -4 16308.3 937.891   9
   1  -3  -4 16991.0 802.669  16
   1   3  -4 17959.2 866.148  16
   1  -3  -4 18411.0 910.374  15
   1   3  -3 170287. 3013.45  15
   1   3  -3 168482. 3097.22  16
   1  -3  -3 170975. 3157.91  15
   1   3  -2 16496.8 805.809  20
   1  -3  -2 13729.7 469.868  10
   1  -3  -2 15643.8 716.123   9
   1  -3  -2 12508.0 339.106   3
   1   3  -2 14772.0 541.012  16
   1  -3  -2 14575.0 544.406  15
   1   3  -2 17493.1 762.987   5
   1  -3  -1 30731.0 853.927   9
   1   3  -1 27484.7 860.007   6
   1  -3   0 6050.20 377.385   2
   1   3   0 4950.11 271.456   4
   1   3   1 123897. 2405.05   4
   1   3   1 121741. 2135.47  12
   1  -3   1 118852. 2177.30  13
   1   3   2 25846.2 1291.07   2
   1   3   2 21937.7 1123.81  18
   1  -3   2 24252.8 1146.48  17
   1  -3   2 24872.7 1281.94   2
   1   3   2 20894.8 696.838  13
   1   3   3 15228.9 1136.01  18
   1   3   3 14082.2 1130.45   2
   1  -3   3 15934.7 1240.36   2
   1   3   3 13760.7 1019.96  22
   1  -3   4 2795.01 424.531  36
   1   3   4 2540.30 410.955  36
   1   3   4 2981.34 621.627  18
   1  -3   4 2474.53 530.385  18
   1   3   4 867.508 462.389  24
   1  -3   4 3311.08 642.110   2
   1  -3   4 3056.47 426.961  48
   1   3   4 1836.81 463.524  22
   1   3   5 1632.93 346.559  36
   1  -3   5 2342.27 408.699  36
   1   3   5 1201.90 494.476  18
   1   3   5 1234.26 377.630  22
   1  -3   5 1492.60 449.851  22
   1   3   6 4177.55 438.413  47
   1  -3   6 4718.49 447.021  36
   1  -3   6 3990.99 413.852  47
   1  -5  -7 863.631 122.562  27
   1  -5  -6 13413.0 706.799  38
   1   5  -6 13733.9 721.110  49
   1  -5  -6 14183.7 713.363  27
   1   5  -6 12710.9 711.666  45
   1  -5  -5 6825.70 544.970  38
   1   5  -5 7168.88 849.575  19
   1   5  -5 7265.77 557.049  49
   1   5  -5 7465.53 646.410  16
   1  -5  -5 6558.09 634.670  15
   1  -5  -5 7557.74 567.110  49
   1  -5  -5 7376.06 554.310  27
   1   5  -5 7397.01 633.467  45
   1  -5  -4 17454.5 919.435  15
   1   5  -4 16842.6 1196.79  19
   1  -5  -4 15743.5 779.077  16
   1   5  -4 18174.9 908.588  16
   1   5  -3 62474.6 1598.07  16
   1  -5  -3 63033.1 1617.90  15
   1   5  -3 61151.9 2056.19   5
   1   5  -2 10773.0 718.396  20
   1  -5  -2 11160.1 504.519  10
   1  -5  -2 11389.6 498.645   3
   1   5  -2 11487.0 514.977  16
   1  -5  -2 10825.1 496.565  15
   1  -5  -1 43511.7 1038.91  10
   1   5  -1 41914.8 948.402  16
   1   5  -1 42604.7 940.488  14
   1   5   0 254211. 4151.73   1
   1  -5   0 252829. 4309.66   8
   1   5   0 247830. 4246.22   6
   1   5   0 251311. 3815.62  14
   1   5   0 239917. 4100.03   4
   1  -5   0 252716. 4356.41   2
   1  -5   0 258493. 3948.74  10
   1  -5   1 106031. 2589.92  21
   1   5   1 107726. 2322.04   4
   1   5   1 104471. 2459.51  18
   1  -5   1 109149. 2674.73   2
   1   5   1 113502. 2425.99   6
   1   5   1 102230. 1951.63  12
   1   5   2 834.162 243.109  18
   1  -5   2 839.588 240.995  17
   1   5   2 956.766 221.409   6
   1   5   2 631.986 169.342  22
   1   5   3 62148.9 2618.32   2
   1  -5   3 63356.7 2675.30   2
   1   5   3 64650.5 2331.45  22
   1  -5   4 3409.13 680.745   2
   1   5   4 4110.40 523.453  36
   1  -5   4 5496.65 577.265  36
   1   5   4 5083.65 807.053  18
   1  -5   4 5578.06 562.451  48
   1  -5   4 4984.77 513.757  28
   1   5   4 5150.89 685.316  24
   1   5   4 3258.47 568.697  22
   1  -5   5 729.955 238.886  36
   1  -5   5 752.498 304.003  22
   1   5   5 937.306 303.071  47
   1  -5   6 4305.29 391.198  36
   1   5   6 3513.87 383.246  47
   1  -5   6 3306.80 332.818  47
   1  -7  -7 2345.08 173.836  27
   1  -7  -6 8941.26 551.364  38
   1  -7  -6 8692.64 534.572  37
   1  -7  -6 7513.36 448.652  33
   1   7  -6 8465.39 527.333  49
   1  -7  -6 9157.90 544.240  27
   1   7  -6 8255.48 560.756  45
   1  -7  -5 13020.0 750.248  38
   1   7  -5 13091.6 1160.27  19
   1   7  -5 11925.1 787.892  45
   1  -7  -5 13132.4 741.506  27
   1   7  -5 13893.7 892.864  16
   1  -7  -5 12248.9 886.247  15
   1   7  -5 12244.9 724.311  49
   1  -7  -4 26121.8 1041.20  38
   1   7  -4 27604.8 1626.13  19
   1  -7  -4 26273.7 1025.38  16
   1   7  -4 25530.2 1114.37  45
   1   7  -4 30977.4 1252.59  16
   1  -7  -4 27487.2 1211.15  15
   1  -7  -4 26868.3 1042.54  27
   1   7  -3 13882.7 732.945  16
   1  -7  -3 13969.1 724.401  15
   1   7  -3 13809.0 612.360  14
   1   7  -3 15068.3 1083.99   5
   1   7  -2 31634.2 1389.64  20
   1  -7  -2 31496.9 1033.55  10
   1  -7  -2 31989.8 1117.89   3
   1   7  -2 33266.0 1017.98  16
   1  -7  -2 31547.6 985.133  15
   1   7  -2 30215.9 890.801  14
   1   7  -2 32318.4 1409.07   5
   1   7  -1 142414. 2510.64  14
   1  -7  -1 142112. 2687.15  10
   1  -7   0 177906. 3064.56  10
   1  -7   0 173579. 3532.18   2
   1  -7   0 184765. 3488.37   8
   1   7   0 175009. 3466.54   6
   1   7   0 179409. 3400.47   4
   1  -7   1 114837. 2869.45  21
   1  -7   1 108816. 2178.88  10
   1   7   1 110845. 2582.46   4
   1   7   1 107336. 2635.20  18
   1   7   1 111055. 2086.56  12
   1   7   1 107679. 2548.05   6
   1   7   1 105020. 2085.62   1
   1  -7   1 109830. 2885.34   2
   1  -7   2 54683.4 1399.44  10
   1   7   2 49624.3 1928.40   4
   1   7   2 58623.3 2135.70  18
   1  -7   2 59746.6 1947.79  17
   1   7   2 60546.6 1861.70   6
   1  -7   2 50453.3 2116.35   2
   1   7   3 10680.0 1070.35   2
   1   7   3 9321.07 958.718  18
   1  -7   3 7428.14 586.017  28
   1   7   3 9364.77 924.288  24
   1  -7   4 1269.89 312.628  36
   1   7   4 1261.56 383.681  18
   1   7   4 1289.02 302.481  34
   1  -7   4 1450.91 312.419  28
   1  -7   4 1659.87 319.962  50
   1  -7   4 1095.48 249.140  48
   1   7   4 1489.14 364.594  47
   1  -7   5 11800.8 802.282  36
   1   7   5 10438.6 820.251  47
   1  -7   5 10114.4 1082.16  22
   1   7   6 1088.44 213.172  47
   1  -7   6 1313.74 187.659  36
   1  -9  -6 991.579 180.170  37
   1  -9  -6 1014.33 158.806  33
   1   9  -6 899.313 178.547  49
   1  -9  -6 1066.51 189.288  27
   1   9  -6 864.721 200.240  45
   1  -9  -5 2909.08 350.606  38
   1  -9  -5 3030.56 360.614  37
   1   9  -5 2565.06 574.223  19
   1  -9  -5 3241.98 372.663  27
   1   9  -5 2752.29 398.590  45
   1  -9  -5 2895.60 435.912  15
   1   9  -5 2711.56 330.898  49
   1  -9  -4 9628.12 616.328  38
   1   9  -4 9413.06 982.410  19
   1   9  -4 8348.38 709.463  51
   1  -9  -4 9648.89 739.878  15
   1  -9  -4 10035.9 633.921  27
   1   9  -4 9421.45 670.357  45
   1   9  -3 2988.77 362.683  16
   1  -9  -3 2665.70 342.654  15
   1   9  -3 2880.86 291.054  14
   1   9  -3 2305.19 475.407   5
   1   9  -2 11575.8 898.563  20
   1  -9  -2 11723.3 673.814  10
   1  -9  -2 10596.4 724.305   3
   1  -9  -2 11731.1 608.406  15
   1   9  -2 11642.5 567.238  14
   1   9  -2 10592.5 895.190   5
   1   9  -1 30435.0 1330.42  20
   1  -9  -1 29970.5 1057.65  10
   1   9  -1 30551.1 936.826  14
   1  -9   0 83063.4 1919.91  10
   1  -9   0 84636.9 2232.85   8
   1  -9   0 76634.6 2287.98   2
   1   9   0 79157.1 1564.06  12
   1   9   0 82045.2 2243.55   4
   1   9   0 78812.8 1649.08  11
   1  -9   1 13593.8 961.094  21
   1   9   1 12143.8 829.004   4
   1  -9   1 13309.3 674.995  10
   1  -9   1 10838.0 882.962   2
   1   9   1 13628.5 590.426  12
   1   9   1 11916.8 810.570   6
   1  -9   2 67631.3 1715.23  10
   1   9   2 60488.8 2334.61   4
   1   9   2 65181.9 2398.64  18
   1   9   2 66499.0 2125.04   6
   1  -9   2 61386.3 2513.33   2
   1  -9   3 6192.12 872.425   2
   1   9   3 7020.65 652.614  47
   1  -9   3 10004.6 720.514  36
   1   9   3 9798.19 802.142  34
   1   9   3 4611.72 753.583   2
   1  -9   3 9501.73 686.478  28
   1  -9   3 9406.66 731.903  50
   1   9   3 8893.12 781.567  44
   1  -9   4 11027.9 807.192  36
   1   9   4 9885.05 799.885  34
   1  -9   4 10276.3 741.581  28
   1  -9   4 8818.44 737.892  50
   1   9   4 8779.05 788.928  47
   1  -9   5 5947.65 523.978  36
   1   9   5 4569.58 500.227  47
   1  -9   5 4927.37 722.842  22
   1 -11  -6 6949.51 405.681  37
   1 -11  -6 6139.95 346.382  33
   1 -11  -6 7028.98 400.896  27
   1  11  -6 6545.24 422.526  45
   1 -11  -5 8867.64 590.481  37
   1  11  -5 7049.16 848.332  19
   1 -11  -5 9051.91 588.949  33
   1  11  -5 7715.80 616.316  51
   1 -11  -5 9087.41 577.780  27
   1  11  -5 8786.87 626.338  45
   1 -11  -4 39653.0 1320.60  38
   1 -11  -4 40088.6 1393.95  37
   1  11  -4 38274.1 2076.05  19
   1 -11  -4 41042.5 1402.59  33
   1  11  -4 42926.5 1695.63  51
   1 -11  -4 43479.7 1651.34  15
   1 -11  -4 41860.1 1380.62  27
   1  11  -4 39551.9 1461.55  45
   1 -11  -3 44638.5 1416.16  37
   1 -11  -3 46331.7 1559.34  15
   1 -11  -3 37595.3 1237.19  27
   1  11  -3 44592.9 1309.90  14
   1  11  -3 37886.3 2145.26   5
   1  11  -3 46183.7 1737.22  51
   1 -11  -2 21188.7 1200.77   3
   1 -11  -2 23154.5 942.039  15
   1  11  -2 23313.5 881.459  14
   1  11  -2 20643.2 1400.89   5
   1  11  -1 8588.56 764.818  20
   1 -11  -1 9048.55 622.248  10
   1  11  -1 9046.92 524.029  11
   1 -11   0 26059.3 1067.19  10
   1 -11   0 25502.9 1215.28   8
   1  11   0 25507.0 1322.70   4
   1  11   0 26021.4 889.662  11
   1 -11   1 9113.51 860.094  21
   1  11   1 10334.6 852.255   4
   1 -11   1 9333.66 625.699  10
   1  11   2 6834.87 814.440   4
   1 -11   2 6952.78 859.772   2
   1  11   2 7997.89 687.218  34
   1 -11   2 7187.79 621.433  50
   1  11   2 7357.85 723.201  44
   1 -11   3 4896.91 515.984  36
   1  11   3 5202.90 604.763  34
   1 -11   3 4966.09 802.750   2
   1 -11   3 5093.10 517.471  28
   1 -11   3 4984.12 567.711  50
   1  11   3 4824.11 604.452  44
   1 -11   4 4621.73 484.864  28
   1 -11   4 4137.99 464.770  36
   1  11   4 3561.93 488.940  34
   1 -11   4 3577.52 474.116  50
   1  11   4 2656.42 411.386  47
   1 -11   5 3002.31 305.678  36
   1 -11   5 2635.99 303.331  50
   1  11   5 1936.94 288.203  47
   1  11   5 3716.73 423.283  23
   1 -13  -6 7.51655 59.3612  27
   1  13  -6 14.4901 88.6249  45
   1 -13  -5 667.296 161.290  37
   1  13  -5 739.378 215.470  45
   1 -13  -5 770.748 171.269  33
   1  13  -5 692.093 181.942  51
   1 -13  -5 663.756 165.748  27
   1 -13  -4 20257.0 947.428  37
   1  13  -4 17851.8 1394.45  19
   1 -13  -4 20631.7 945.833  33
   1  13  -4 18698.6 1095.11  51
   1 -13  -4 18982.4 1057.70  15
   1 -13  -4 20695.1 892.419  27
   1  13  -4 18962.7 960.962  45
   1 -13  -3 11164.2 694.216  37
   1  13  -3 10264.7 825.310  51
   1  13  -3 9437.66 656.792  45
   1 -13  -3 10652.4 679.351  33
   1 -13  -3 10951.3 751.457  15
   1  13  -3 9325.35 1087.55   5
   1  13  -3 7702.10 684.365  42
   1 -13  -2 17741.5 840.977  37
   1 -13  -2 19707.9 904.680  33
   1 -13  -2 20738.2 941.340  15
   1  13  -2 21623.3 1151.94  51
   1  13  -2 17250.8 1410.30   5
   1  13  -2 19871.2 1125.84  42
   1 -13  -1 25067.0 1169.70  10
   1 -13  -1 22552.0 1456.77   3
   1 -13  -1 24071.5 935.786  15
   1  13  -1 25296.0 982.530  11
   1 -13   0 5343.93 634.568  21
   1 -13   0 5642.39 542.522  10
   1  13   0 5396.19 657.990   4
   1  13   1 55471.4 2349.96   4
   1 -13   1 59577.7 1854.55  10
   1  13   1 56232.5 1928.56  34
   1 -13   1 58407.1 1838.37  50
   1  13   1 51643.9 1907.82  42
   1  13   1 57388.5 1932.34  26
   1  13   1 55439.4 2077.91  44
   1 -13   1 51486.3 1633.89  25
   1 -13   1 56970.0 2341.45  21
   1  13   2 9076.27 1010.92   4
   1  13   2 11944.4 885.465  34
   1 -13   2 10504.9 1087.77   2
   1 -13   2 12165.4 842.780  50
   1  13   2 11414.1 830.103  26
   1  13   2 12248.2 976.613  44
   1 -13   2 10495.0 674.408  25
   1  13   3 20608.9 1210.11  34
   1 -13   3 21877.0 1060.57  28
   1  13   3 21339.2 1302.49  44
   1 -13   3 20823.7 1156.37  50
   1  13   4 27826.8 1258.42  34
   1 -13   4 29560.5 1145.98  28
   1 -13   4 26166.1 1223.93  50
   1  13   4 26869.9 1234.84  44
   1 -13   5 1638.25 208.128  50
   1  13   5 1996.74 269.906  23
   1  15  -5 86.5247 86.5630  51
   1 -15  -5 183.534 92.9726  27
   1  15  -5 84.1220 103.383  45
   1 -15  -5 143.758 74.8181  40
   1 -15  -4 5616.00 458.686  37
   1  15  -4 4326.72 662.582  19
   1 -15  -4 5438.95 459.178  33
   1  15  -4 5096.18 532.627  51
   1 -15  -4 5086.56 387.511  27
   1  15  -4 5275.31 451.404  45
   1 -15  -4 5825.71 443.239  25
   1 -15  -4 5450.00 462.470  40
   1 -15  -3 15800.2 828.915  37
   1  15  -3 15439.4 991.666  51
   1  15  -3 12609.5 1144.17  19
   1 -15  -3 16524.3 854.636  33
   1  15  -3 14526.9 787.913  45
   1 -15  -3 15990.5 863.188  25
   1  15  -3 13880.2 929.266  42
   1 -15  -2 58029.4 1719.14  33
   1  15  -2 60674.9 2079.12  51
   1 -15  -2 57217.9 1780.29  25
   1  15  -2 56196.5 2065.43  42
   1  15  -2 52956.9 1686.54  11
   1 -15  -2 54930.2 1731.48  40
   1 -15  -1 24636.7 1641.08   3
   1  15  -1 26885.2 1311.05  51
   1 -15  -1 27893.2 1157.33  25
   1  15  -1 25793.8 1769.85   5
   1  15  -1 26787.5 1390.71  42
   1  15  -1 27046.3 1702.85   4
   1  15  -1 27273.8 1104.46  11
   1 -15  -1 26372.1 1132.77  40
   1 -15   0 7809.58 693.295  10
   1 -15   0 6687.98 871.041   3
   1  15   0 7339.86 709.397  42
   1  15   0 7338.01 678.807  26
   1  15   0 7200.73 728.708  44
   1 -15   0 7531.16 599.818  25
   1 -15   0 6968.86 563.784  40
   1  15   0 6440.42 791.467   4
   1 -15   1 5227.65 564.200  10
   1  15   1 4368.76 692.637   4
   1  15   1 4627.41 564.089  34
   1 -15   1 5097.96 534.244  50
   1  15   1 4714.65 559.002  26
   1  15   1 4343.96 591.248  44
   1 -15   1 5101.88 502.002  25
   1  15   1 4816.16 567.452  42
   1  15   2 51990.2 1947.59  34
   1  15   2 51731.2 1883.64  26
   1  15   2 52637.0 2123.21  44
   1 -15   2 51594.3 1657.38  25
   1 -15   2 54367.7 1890.38  50
   1  15   2 45572.0 1822.43  23
   1  15   3 14504.1 963.360  34
   1 -15   3 15323.1 825.318  28
   1 -15   3 15248.0 951.591  50
   1  15   3 15646.3 1052.53  44
   1  15   3 13741.6 953.666  23
   1 -15   4 55.8397 106.588  50
   1  15   4 208.603 162.840  23
   1 -15   4 99.3256 92.2020  28
   1  17  -5 2698.10 239.374  51
   1  17  -4 5907.94 494.681  51
   1  17  -4 5117.98 369.590  45
   1 -17  -4 5314.42 363.945  25
   1 -17  -4 5949.72 423.493  40
   1 -17  -3 541.702 168.964  25
   1  17  -3 518.769 203.824  51
   1  17  -3 394.829 181.684  42
   1 -17  -3 430.726 168.155  40
   1  17  -2 2542.88 408.230  51
   1 -17  -2 2659.55 362.063  25
   1  17  -2 2592.08 431.851  42
   1 -17  -2 2928.86 368.433  40
   1  17  -1 3792.85 532.689  42
   1  17  -1 3628.06 452.397  51
   1 -17  -1 3869.08 446.094  25
   1 -17  -1 3917.05 432.239  40
   1 -17   0 10728.9 763.432  50
   1  17   0 9290.38 832.568  44
   1 -17   0 9553.38 695.149  25
   1  17   0 8987.86 805.258  42
   1 -17   1 946.107 247.748  50
   1  17   1 508.658 236.998  44
   1 -17   1 832.217 215.508  25
   1  17   1 552.457 205.236  42
   1 -17   2 3131.81 372.461  25
   1 -17   2 3317.39 440.618  50
   1  17   2 3240.80 491.499  44
   1  17   2 2778.29 387.161  23
   1 -17   3 340.768 118.836  28
   1 -17   3-54.7350 117.786  50
   1  17   3 90.2866 147.689  44
   1  17   3 203.518 142.348  23
   1 -17   4-36.1090 82.7169  50
   1  17   4-34.5251 72.3549  23
   1  19  -4 8436.98 480.724  51
   1 -19  -4 9378.40 425.971  40
   1  19  -3 1135.06 237.794  51
   1 -19  -3 1012.85 186.550  25
   1  19  -3 1060.11 207.330  42
   1 -19  -3 1106.28 191.890  40
   1  19  -2 176.607 163.232  51
   1 -19  -2 172.340 121.290  25
   1  19  -2-167.743 139.125  42
   1 -19  -2 138.422 95.2447  40
   1 -19  -1 12940.3 653.738  31
   1  19  -1 11457.1 734.693  51
   1 -19  -1 13910.7 755.787  50
   1 -19  -1 13663.6 777.127  25
   1  19  -1 13577.4 916.955  42
   1 -19  -1 13148.9 750.068  40
   1 -19   0 2159.63 309.928  50
   1  19   0 2151.94 379.459  44
   1 -19   0 2289.95 333.646  25
   1  19   0 2418.87 402.360  42
   1 -19   1 16856.8 907.987  50
   1  19   1 15875.3 1008.31  44
   1 -19   1 15718.9 831.292  25
   1  19   1 15214.4 916.118  42
   1  19   2 663.142 226.722  44
   1 -19   2 977.094 171.630  28
   1 -19   2 1098.24 254.133  50
   1 -19   2 876.128 179.038  25
   1 -19   3 553.772 167.207  50
   1  19   3 368.697 144.471  44
   1  21  -3 634.520 139.389  51
   1 -21  -3 781.908 132.074  31
   1 -21  -3 663.600 110.636  25
   1 -21  -2 1651.59 196.053  31
   1  21  -2 1397.48 213.583  51
   1 -21  -2 1799.57 230.715  25
   1  21  -2 1932.29 275.980  42
   1 -21  -1 222.805 114.543  25
   1  21  -1 313.873 143.300  42
   1 -21   0 7745.09 505.201  50
   1  21   0 7659.97 570.284  44
   1 -21   0 8455.69 543.232  25
   1  21   0 7377.83 579.254  42
   1 -21   1 4303.41 382.919  50
   1  21   1 4141.92 428.051  44
   1 -21   1 4683.19 381.547  25
   1  21   1 3738.62 368.888  42
   1 -21   2 1404.26 211.197  50
   1  21   2 1265.72 211.702  44
   1 -23  -1 17053.7 580.545  25
   1  23  -1 15465.8 628.901  42
   1 -23   0 2989.16 239.999  25
   1  23   0 2477.01 241.410  42
   2   0  -7-8.79441 55.2154  38
   2   0  -7 99.7191 78.8283  27
   2   0  -6 867.379 217.809  16
   2   0  -6 893.782 233.185  49
   2   0  -5-32.0517 131.924  16
   2   0  -5 210.964 121.296  15
   2   0  -4 26974.0 1341.29   9
   2   0  -4 28211.5 1072.68  16
   2   0  -4 28617.1 1069.09  15
   2   0  -3 261.502 130.728  20
   2   0  -3-16.5280 87.7046  15
   2   0  -2 125211. 2711.11   1
   2   0   0 950028. 14068.7   8
   2   0   0 968039. 13403.8  12
   2   0   1 136.810 124.573  17
   2   0   1 114.437 163.554   2
   2   0   1 234.222 112.784  12
   2   0   2 117728. 3373.42   2
   2   0   2 95911.8 2220.97  13
   2   0   3 66.2088 90.7352  36
   2   0   3-283.903 172.145  48
   2   0   3-24.8599 215.223  18
   2   0   3 160.595 143.669   2
   2   0   4 5203.63 580.718  36
   2   0   4 4825.37 798.806  18
   2   0   4 5824.81 619.136  48
   2   0   4 3707.74 664.621  22
   2   0   5-213.567 163.586  36
   2   0   5 50.9655 195.023  22
   2   0   6 6781.28 436.749  47
   2  -2  -7 1879.30 225.077  38
   2   2  -7 1715.75 219.241  38
   2   2  -7 1888.71 239.066  49
   2  -2  -7 1674.63 208.460  27
   2   2  -7 1445.18 174.934  27
   2  -2  -6 9501.46 699.285  16
   2   2  -6 11641.6 801.417  16
   2  -2  -6 9152.89 707.769  15
   2  -2  -6 12375.7 727.595  49
   2   2  -6 11303.8 709.921  49
   2   2  -5 25441.3 1438.28   9
   2  -2  -5 31928.0 1292.21  16
   2   2  -5 32196.0 1323.51  16
   2  -2  -5 31487.9 1351.23  15
   2  -2  -5 29652.8 1162.78  49
   2   2  -5 26014.8 1111.94  45
   2  -2  -4 33955.9 1561.21   9
   2   2  -4 32931.3 1480.96   9
   2  -2  -4 35862.9 1229.69  16
   2   2  -4 35680.2 1239.14  16
   2  -2  -4 36847.4 1277.83  15
   2   2  -4 34147.4 1154.09  15
   2   2  -3 23458.1 1138.86  20
   2  -2  -3 21759.8 1035.87   9
   2   2  -3 22729.0 825.404  16
   2  -2  -3 22788.2 821.769  15
   2   2  -3 20774.8 706.102  15
   2   2  -3 21407.0 876.573   5
   2  -2  -2 200258. 3404.85   1
   2   2  -2 194231. 3742.91   1
   2  -2  -1 168224. 2846.91   2
   2   2  -1 181810. 3204.80   6
   2   2   0 302790. 5239.89  17
   2  -2   0 310422. 4642.63  12
   2   2   1 29176.9 1256.03  17
   2  -2   1 29497.2 1260.73  17
   2  -2   1 31159.0 979.468  13
   2   2   1 30169.0 914.375  12
   2  -2   1 29727.3 1302.20  21
   2   2   2 47301.6 2132.44   2
   2  -2   2 49666.4 2001.10  17
   2  -2   2 48663.9 2134.78   2
   2   2   2 49643.0 1391.86  13
   2  -2   2 49540.4 1470.99  13
   2   2   3 8787.28 688.820  36
   2  -2   3 9501.40 706.707  36
   2   2   3 10002.0 1019.38  18
   2  -2   3 4332.23 750.889   2
   2  -2   3 8728.81 611.221  28
   2  -2   3 9683.15 717.884  48
   2   2   3 3946.82 683.816   2
   2   2   3 8164.31 673.681  48
   2   2   3 12276.8 1031.82  24
   2   2   4 2375.02 414.011  36
   2  -2   4 2089.12 363.668  36
   2   2   4 1836.67 523.932  18
   2  -2   4 1617.86 488.735  18
   2  -2   4 2762.72 425.110  48
   2   2   4 2214.42 473.905  24
   2   2   4 1592.09 419.233  22
   2   2   5 14442.5 903.554  36
   2  -2   5 14932.3 911.294  36
   2   2   6 3136.99 286.147  47
   2  -2   6 3110.00 282.819  47
   2  -4  -7 9622.15 493.757  38
   2   4  -7 8839.17 457.253  38
   2  -4  -7 9995.37 487.126  27
   2   4  -7 9481.69 497.031  49
   2  -4  -6 17083.0 848.586  38
   2   4  -6 16309.8 955.882  16
   2  -4  -6 17666.5 835.731  49
   2   4  -6 16516.0 841.584  49
   2  -4  -6 17244.3 831.472  27
   2   4  -6 17427.4 870.525  45
   2   4  -5 14731.1 1170.47  19
   2  -4  -5 14623.6 869.040  16
   2   4  -5 16471.4 947.949  16
   2  -4  -5 16550.0 985.915  15
   2  -4  -5 14084.7 763.636  49
   2   4  -5 14451.1 855.186  45
   2   4  -4 20241.8 932.174  16
   2  -4  -4 20398.6 955.871  15
   2   4  -3 88848.0 2587.26  20
   2  -4  -3 83811.4 2339.34   9
   2   4  -3 86215.8 1939.58  16
   2  -4  -3 86904.8 1954.06  15
   2   4  -3 83397.1 2279.80   5
   2  -4  -2 42212.9 1056.63  10
   2  -4  -2 41810.9 1350.18   9
   2   4  -2 41814.5 1046.28  16
   2  -4  -1 155106. 2773.98   9
   2   4  -1 146708. 2489.03  14
   2   4  -1 150799. 3012.72   6
   2  -4  -1 149029. 2451.30  13
   2  -4  -1 151179. 2671.95   2
   2   4  -1 150567. 3118.65   1
   2   4   0 81287.0 1587.16   4
   2  -4   0 78184.2 2104.50   8
   2   4   0 78463.8 1533.59  14
   2   4   0 83723.4 2067.91   6
   2  -4   0 78348.1 1649.65  13
   2  -4   1 32998.8 1446.86  21
   2  -4   1 34204.3 1517.75   2
   2  -4   1 33392.6 1052.78  13
   2   4   1 32897.2 990.246  12
   2   4   2 2677.75 458.678  18
   2  -4   2 2844.15 470.280  17
   2   4   2 1089.78 327.226   2
   2   4   2 2792.46 296.625  13
   2  -4   2 862.806 293.749   2
   2   4   3 38603.0 1512.77  36
   2  -4   3 44512.2 1600.30  36
   2   4   3 45049.1 2232.32  18
   2   4   3 27395.4 1913.11   2
   2  -4   3 39870.5 1440.26  28
   2   4   3 38234.4 1527.99  48
   2  -4   3 43735.8 1629.18  48
   2  -4   3 28546.4 1990.26   2
   2   4   3 61024.0 2164.73  24
   2   4   4 4180.69 527.990  36
   2  -4   4 4703.82 558.388  36
   2   4   4 4766.27 818.047  18
   2  -4   4 3137.49 636.676  18
   2  -4   4 5023.75 568.434  48
   2   4   4 3196.52 591.575  24
   2  -4   5 92.7009 133.538  36
   2   4   5 142.766 164.587  47
   2  -6  -7 98.8618 72.9841  38
   2   6  -7 20.7148 58.7684  38
   2  -6  -7 12.3308 52.3037  37
   2   6  -7 33.5942 92.5423  49
   2   6  -7 99.7176 52.5419  45
   2  -6  -7 25.2678 69.9844  27
   2  -6  -6 5381.72 455.567  38
   2   6  -6 4925.90 441.753  49
   2  -6  -6 5121.57 450.820  27
   2   6  -6 5111.54 480.702  45
   2  -6  -5 8951.44 618.359  38
   2   6  -5 9153.55 959.571  19
   2  -6  -5 9096.58 677.819  16
   2   6  -5 9955.14 747.258  16
   2  -6  -5 9278.69 757.083  15
   2   6  -5 8841.85 688.429  45
   2   6  -4 6618.38 555.310  16
   2  -6  -4 6534.95 563.608  15
   2   6  -3 31762.6 1545.65  20
   2  -6  -3 28850.7 986.916  10
   2   6  -3 32467.0 1110.62  16
   2  -6  -3 30876.8 1085.64  15
   2   6  -3 29574.7 1425.90   5
   2  -6  -2 15748.7 679.460  10
   2   6  -2 15147.5 918.211  20
   2   6  -2 16335.6 643.915  16
   2   6  -2 14956.1 613.275  14
   2  -6  -1 74226.7 1675.67   2
   2   6  -1 52820.8 1170.64  16
   2   6  -1 60844.9 1798.78   6
   2   6  -1 57566.3 1337.45  14
   2   6  -1 76258.9 2060.05   1
   2  -6  -1 60296.7 1469.19  10
   2  -6   0 90501.2 2463.30   8
   2   6   0 95852.8 2298.20   1
   2   6   0 89666.6 2328.49   6
   2   6   0 91261.8 1800.17  14
   2  -6   0 87978.8 1870.66  13
   2  -6   0 97549.5 2469.96   2
   2   6   0 90904.4 1984.73   4
   2  -6   1 9976.02 831.586  21
   2   6   1 8902.83 621.949   4
   2   6   1 9932.14 776.377  18
   2  -6   1 9328.93 828.301   2
   2   6   1 10706.1 789.671   6
   2   6   1 10223.6 547.817  12
   2   6   2 34845.8 1610.84   6
   2   6   2 35037.3 1745.97  18
   2  -6   2 36857.7 1737.48  17
   2   6   3 9489.87 730.734  36
   2  -6   3 12722.0 855.228  36
   2   6   3 11618.0 1152.10  18
   2   6   3 11007.6 1250.24   2
   2  -6   3 11630.3 750.261  28
   2  -6   3 13277.9 1324.88   2
   2   6   3 12573.7 1001.60  24
   2   6   4 6197.85 628.951  36
   2  -6   4 7296.63 682.449  36
   2   6   4 6626.76 654.152  34
   2   6   4 5936.99 851.846  18
   2  -6   4 7947.61 696.190  48
   2  -6   5 4038.26 445.224  36
   2   6   5 2931.80 407.064  47
   2  -8  -7 110.246 61.5237  37
   2   8  -7 247.804 74.0085  45
   2  -8  -7 179.649 78.4826  27
   2  -8  -6 5019.58 411.391  38
   2   8  -6 4757.60 416.713  49
   2  -8  -6 5313.59 433.015  27
   2   8  -6 4822.45 456.084  45
   2  -8  -5 17549.1 851.509  38
   2   8  -5 14620.4 1289.98  19
   2  -8  -5 15316.9 860.956  16
   2   8  -5 17419.2 1017.80  16
   2  -8  -5 17673.5 1045.86  15
   2  -8  -5 17491.8 871.553  27
   2   8  -5 16226.5 927.748  45
   2   8  -4 2601.59 373.796  16
   2  -8  -4 2778.63 388.280  15
   2   8  -4 2291.58 381.583  51
   2   8  -4 2554.98 317.743  14
   2   8  -3 40105.1 1883.57  20
   2  -8  -3 40501.7 1342.43  10
   2   8  -3 43530.3 1386.82  16
   2  -8  -3 42312.8 1367.20  15
   2   8  -3 42383.2 1258.27  14
   2   8  -3 36895.7 1814.84   5
   2   8  -2 72825.0 2374.12  20
   2  -8  -2 74262.7 1873.66  10
   2   8  -2 76924.6 1779.52  16
   2   8  -2 73456.7 1703.02  14
   2  -8  -1 3028.51 318.914  10
   2  -8  -1 3096.91 356.063   2
   2   8  -1 2217.93 367.772   6
   2   8  -1 2428.47 270.734  14
   2  -8   0 23931.7 951.235  10
   2  -8   0 23395.2 1247.78   8
   2   8   0 24221.4 1207.54   6
   2   8   0 36994.3 1377.14   1
   2   8   0 22943.9 809.816  12
   2   8   0 25811.0 1077.47   4
   2  -8   0 35757.0 1473.78   2
   2  -8   1 103380. 3157.51  21
   2   8   1 94689.0 2602.51   4
   2   8   1 99767.5 2810.91  18
   2   8   1 102050. 2845.10   6
   2   8   1 104061. 2233.19  12
   2  -8   1 91126.2 3020.64   2
   2  -8   1 103477. 2364.84  10
   2  -8   2 18049.8 871.396  10
   2   8   2 16605.4 1241.26  18
   2  -8   2 19192.0 1268.33  17
   2   8   2 17642.9 1167.39   6
   2  -8   2 16370.2 1339.45   2
   2  -8   3 3087.04 663.822   2
   2  -8   3 6497.01 635.146  36
   2   8   3 5539.42 825.937  18
   2   8   3 6294.99 684.609  34
   2  -8   3 6447.96 581.156  28
   2   8   3 2767.85 625.402   2
   2  -8   3 4786.59 513.477  50
   2   8   3 6650.84 702.845  44
   2   8   3 2594.58 537.533  24
   2  -8   4 5027.51 562.671  36
   2  -8   4 5522.93 537.170  28
   2   8   4 4779.62 561.308  34
   2  -8   4 4817.26 517.721  48
   2   8   4 4259.41 534.782  47
   2  -8   5 1519.14 259.772  36
   2   8   5 916.260 200.118  47
   2 -10  -6 38.3835 79.5705  37
   2 -10  -6-1.36091 73.4649  33
   2  10  -6-75.6715 92.0029  45
   2  10  -6 107.207 124.511  49
   2 -10  -6 139.742 124.324  27
   2 -10  -5 8323.31 548.117  38
   2  10  -5 6712.33 867.284  19
   2  10  -5 7083.91 619.707  51
   2 -10  -5 8592.13 729.714  15
   2 -10  -5 8820.16 595.314  27
   2  10  -5 8138.50 639.586  45
   2 -10  -4 28810.0 1094.68  27
   2  10  -4 32710.0 1378.99  16
   2 -10  -4 30829.3 1362.43  15
   2  10  -4 30142.1 1418.60  51
   2  10  -4 30829.6 1153.62  14
   2  10  -3 6740.26 805.710  20
   2  10  -3 7911.85 593.579  16
   2 -10  -3 7276.62 579.696  15
   2  10  -3 7981.20 543.465  14
   2  10  -3 6274.20 814.768   5
   2  10  -2 27477.6 1496.95  20
   2 -10  -2 27074.0 1139.09  10
   2  10  -2 27914.7 1018.24  14
   2 -10  -1 12136.0 716.659  10
   2  10  -1 11530.2 885.752  20
   2 -10  -1 12230.5 909.935   8
   2  10  -1 12339.2 628.077  14
   2 -10   0 60415.6 1715.22  10
   2 -10   0 58427.7 2193.30   8
   2  10   0 54548.1 2087.00   6
   2  10   0 58858.3 1463.26  12
   2  10   0 53608.2 1870.77   4
   2 -10   1 1597.82 415.501  21
   2 -10   1 231.475 176.498   2
   2 -10   1 1140.93 234.935  10
   2  10   1 1005.69 285.140  18
   2  10   1 800.723 235.556   4
   2  10   1 1124.86 326.798   6
   2  10   1 1122.48 222.765  12
   2 -10   2 3286.37 657.978   2
   2  10   2 6462.20 788.736  18
   2  10   2 7390.32 687.799  34
   2 -10   2 7025.85 620.862  50
   2  10   2 7282.44 748.051  44
   2  10   2 3356.45 539.628  24
   2 -10   3 2969.15 440.569  36
   2  10   3 2907.28 497.157  34
   2 -10   3 2656.33 396.037  28
   2 -10   3 2739.81 421.002  50
   2  10   3 2747.00 449.999  44
   2 -10   4 1581.69 307.513  36
   2  10   4 1451.45 305.587  34
   2 -10   4 1554.84 304.175  28
   2 -10   4 1458.05 279.929  48
   2 -10   5 933.281 167.977  36
   2 -12  -6 2964.56 274.002  37
   2 -12  -6 3013.74 262.141  27
   2 -12  -6 2818.00 262.815  33
   2  12  -6 2680.83 286.994  45
   2 -12  -5 3122.37 353.805  37
   2  12  -5 2881.98 539.976  19
   2 -12  -5 3466.88 374.137  33
   2  12  -5 2960.39 401.103  51
   2 -12  -5 2888.12 316.110  27
   2  12  -5 3075.07 378.994  45
   2 -12  -4 30096.2 1187.96  37
   2 -12  -4 30566.3 1377.27  15
   2  12  -4 29189.8 1424.33  51
   2 -12  -4 28244.4 1055.34  27
   2 -12  -3 76584.8 2007.32  37
   2 -12  -3 85463.9 2311.56  15
   2  12  -3 85468.0 2126.40  14
   2  12  -3 78753.9 2487.24  51
   2  12  -3 75015.7 3182.52   5
   2  12  -2 9173.21 921.141  20
   2 -12  -2 9414.65 717.150  10
   2 -12  -2 9729.28 647.248  15
   2  12  -2 10647.0 652.755  14
   2  12  -2 8462.68 744.666  42
   2  12  -1 7546.90 768.617  20
   2 -12  -1 7258.87 608.666  10
   2 -12  -1 7135.75 755.250   8
   2  12  -1 7977.95 779.374   4
   2 -12   0 17164.8 1252.67  21
   2 -12   0 17020.2 942.002  10
   2 -12   0 13224.6 1075.63   2
   2  12   0 16333.0 734.192  12
   2  12   0 15035.6 1058.74   4
   2 -12   1 17320.7 963.729  10
   2 -12   1 14465.8 1248.83   2
   2  12   1 14228.8 944.943  34
   2 -12   1 16243.5 937.803  50
   2  12   1 14390.8 1050.36  44
   2 -12   1 15810.0 1294.35  21
   2  12   2 7673.59 718.349  34
   2 -12   2 7532.44 674.556  50
   2  12   2 8248.54 804.223  44
   2 -12   3 18763.8 1034.12  36
   2  12   3 18432.9 1126.59  34
   2 -12   3 19273.5 1002.31  28
   2 -12   3 16344.7 992.228  50
   2  12   3 17738.7 1182.01  44
   2 -12   4 13085.9 750.744  36
   2  12   4 13021.3 800.647  34
   2 -12   4 14566.7 767.023  28
   2  12   5 3409.29 289.706  23
   2  14  -6 5161.88 312.271  45
   2 -14  -6 3879.04 236.727  40
   2 -14  -5 1330.57 225.408  37
   2 -14  -5 1560.20 235.861  33
   2  14  -5 1045.87 229.001  51
   2 -14  -5 1115.22 178.702  27
   2  14  -5 1298.72 244.811  45
   2 -14  -4 451.555 146.275  37
   2  14  -4-320.519 254.692  19
   2 -14  -4 209.347 157.331  33
   2 -14  -4-283.723 154.581  15
   2  14  -4 231.702 141.902  45
   2  14  -4 52.5453 157.080  51
   2 -14  -3 1906.53 287.925  37
   2 -14  -3 1799.84 306.894  33
   2  14  -3 1999.62 388.140  51
   2 -14  -3 1604.97 307.608  15
   2  14  -3 1916.63 361.624  42
   2 -14  -2 14662.0 973.071  10
   2 -14  -2 13118.1 729.843  33
   2 -14  -2 15615.8 856.906  15
   2  14  -2 14462.7 1020.09  42
   2  14  -1 26577.7 1531.80  20
   2 -14  -1 28969.7 1333.60  10
   2  14  -1 28657.7 1362.31  26
   2 -14  -1 28878.4 1186.89  25
   2  14  -1 27847.7 1421.91  42
   2  14  -1 26303.7 1575.47   4
   2 -14  -1 26421.6 1105.25  40
   2 -14   0 2103.82 483.330  21
   2 -14   0 2148.36 364.899  10
   2  14   0 1698.51 390.208   4
   2  14   0 2061.55 359.315  34
   2  14   0 2351.32 389.098  26
   2  14   0 2219.03 440.261  44
   2 -14   0 2140.46 311.440  25
   2  14   0 1714.49 364.685  42
   2 -14   0 1460.60 240.228  40
   2 -14   1 2601.79 558.082  21
   2 -14   1 2938.11 425.440  10
   2  14   1 2297.23 399.367  34
   2 -14   1 1920.58 475.234   2
   2 -14   1 2719.01 414.975  50
   2  14   1 2685.15 442.079  26
   2  14   1 2552.23 494.086  44
   2  14   1 2463.66 423.095  42
   2  14   2 45434.2 1828.00  34
   2 -14   2 46182.7 1753.71  50
   2  14   2 44793.7 1768.55  26
   2  14   2 46892.5 2006.34  44
   2 -14   3 29438.5 1184.03  36
   2  14   3 26992.6 1310.73  34
   2 -14   3 28813.1 1171.55  28
   2 -14   3 26168.3 1231.51  50
   2  14   3 28876.0 1418.38  44
   2 -14   4 11912.7 571.017  36
   2 -14   4 11725.9 617.862  50
   2  14   4 13581.6 762.157  23
   2 -16  -5 4263.53 323.637  33
   2  16  -5 3867.82 353.920  51
   2  16  -5 4225.55 327.978  45
   2 -16  -5 3495.33 255.952  25
   2 -16  -5 4172.19 323.047  40
   2 -16  -4 9746.28 599.071  33
   2  16  -4 9043.42 691.523  51
   2  16  -4 9593.48 600.283  45
   2 -16  -4 9857.24 603.073  25
   2 -16  -4 9736.26 611.519  40
   2 -16  -3 10041.0 648.790  33
   2  16  -3 10369.4 806.807  51
   2  16  -3 9808.15 620.746  45
   2 -16  -3 10606.4 703.202  25
   2  16  -3 9215.63 751.698  42
   2 -16  -3 10092.6 679.765  40
   2 -16  -2 62803.8 1755.42  33
   2  16  -2 63342.9 2180.43  51
   2 -16  -2 66051.3 1926.78  25
   2  16  -2 63633.3 2261.54  42
   2 -16  -2 63299.8 1888.97  40
   2 -16  -1 18974.9 1129.16  10
   2  16  -1 16545.9 1029.09  51
   2  16  -1 14636.3 986.042  44
   2 -16  -1 17968.1 952.988  25
   2  16  -1 16877.9 1119.49  42
   2 -16  -1 17243.4 902.519  40
   2 -16   0 6421.74 660.373  10
   2  16   0 5927.84 641.240  26
   2  16   0 5959.46 688.191  44
   2 -16   0 6863.27 582.050  25
   2  16   0 6201.91 674.345  42
   2 -16   1 16214.3 1003.56  10
   2  16   1 17001.8 1068.17  34
   2 -16   1 17260.7 1004.37  50
   2  16   1 17019.5 1071.00  26
   2  16   1 16316.9 1152.42  44
   2 -16   1 15857.4 851.100  25
   2  16   1 15920.7 1047.28  42
   2  16   2 1403.20 331.024  34
   2 -16   2 1439.48 315.260  50
   2  16   2 1376.20 298.677  26
   2  16   2 1536.69 356.844  44
   2  16   2 1008.95 249.675  23
   2 -16   3-9.48746 75.2768  28
   2 -16   3 103.778 123.921  50
   2  16   3 8.56163 129.987  44
   2  16   3 133.859 138.210  23
   2  16   4 2086.25 240.207  23
   2  18  -4 682.045 174.513  51
   2 -18  -4 767.345 150.816  25
   2 -18  -4 902.355 169.148  40
   2 -18  -3 810.976 182.949  25
   2  18  -3 557.786 215.545  51
   2  18  -3 535.580 165.753  42
   2 -18  -3 528.392 159.779  40
   2  18  -2 7794.15 663.360  51
   2 -18  -2 8895.39 621.935  25
   2  18  -2 7768.92 712.978  42
   2 -18  -2 8699.77 605.486  40
   2  18  -1 5826.02 562.984  51
   2 -18  -1 6551.40 556.501  25
   2  18  -1 6195.00 646.488  42
   2 -18  -1 5993.53 509.840  40
   2 -18   0 2003.84 333.150  50
   2  18   0 1654.34 376.048  44
   2 -18   0 1728.86 287.800  25
   2  18   0 1630.51 341.787  42
   2 -18   1 3854.05 443.881  50
   2  18   1 3527.83 500.155  44
   2 -18   1 3282.95 355.326  25
   2  18   1 3020.10 427.058  42
   2 -18   2 13202.7 679.448  28
   2 -18   2 13502.6 779.525  50
   2  18   2 13548.2 865.607  44
   2 -18   3 142.211 75.5887  28
   2 -18   3 16.9574 83.3173  50
   2  18   3-129.704 110.977  44
   2  18   3 56.2270 64.6199  23
   2  20  -4 2525.38 232.693  51
   2 -20  -4 2935.80 211.851  40
   2  20  -3 5698.62 439.980  51
   2 -20  -3 6473.71 413.043  25
   2  20  -3 5482.49 409.675  42
   2 -20  -3 6276.78 407.928  40
   2  20  -2 2513.23 326.897  51
   2 -20  -2 2953.19 301.420  50
   2 -20  -2 3228.89 334.576  25
   2  20  -2 3145.28 380.081  42
   2 -20  -2 2799.29 300.518  40
   2 -20  -1 995.553 219.031  50
   2 -20  -1 986.508 207.617  25
   2  20  -1 880.768 237.329  42
   2 -20   0 8259.97 585.299  50
   2  20   0 6810.94 579.576  44
   2 -20   0 7652.02 523.273  25
   2  20   0 6978.38 598.258  42
   2 -20   1 2985.10 350.503  50
   2  20   1 2517.88 343.944  44
   2 -20   1 2154.74 246.791  25
   2  20   1 2399.02 318.106  42
   2 -20   2 2293.37 202.600  28
   2 -20   2 2690.47 283.290  50
   2  20   2 2678.82 304.621  44
   2 -22  -2 1529.82 183.033  25
   2  22  -2 1363.40 193.993  42
   2 -22  -1 377.869 107.510  50
   2 -22  -1 298.603 104.288  25
   2  22  -1 199.993 117.291  42
   2 -22   0 4110.14 313.928  50
   2 -22   0 3720.83 276.041  25
   2  22   0 3541.09 321.997  42
   2 -22   1 7963.33 404.610  50
   3  -1  -7 2577.64 284.965  38
   3   1  -7 2374.52 271.856  38
   3  -1  -7 2567.81 276.434  49
   3   1  -7 2439.30 278.064  49
   3  -1  -7 2651.14 282.944  27
   3  -1  -6 16108.6 962.327  16
   3   1  -6 16845.2 994.689  16
   3  -1  -6 14991.9 825.683  49
   3  -1  -5 3794.92 611.242   9
   3   1  -5 3538.57 560.280   9
   3  -1  -5 4380.96 484.458  16
   3   1  -5 4088.38 474.024  16
   3  -1  -5 4137.34 458.743  15
   3  -1  -4 15909.9 1076.38   9
   3   1  -4 17160.0 848.336  16
   3  -1  -4 17525.5 826.397  15
   3   1  -3 9937.54 742.128  20
   3   1  -3 11271.7 897.194   1
   3  -1  -3 10484.7 550.043  15
   3   1  -3 9901.63 487.919  15
   3  -1  -3 10474.8 804.231   1
   3   1  -2 65449.6 1731.91   6
   3  -1  -2 68596.8 1657.30   6
   3  -1  -1 40246.6 1340.56   2
   3   1  -1 41010.8 1376.56   8
   3  -1   0 258703. 5112.41  21
   3   1   0 278442. 5521.71   2
   3  -1   0 266301. 5331.64   8
   3  -1   0 277349. 5452.49   2
   3   1   0 271810. 5247.89  17
   3   1   0 274815. 4439.82  12
   3  -1   0 289379. 4408.41  12
   3   1   1 187601. 4824.72   2
   3   1   1 185271. 4493.73  17
   3  -1   1 193817. 4533.56  17
   3  -1   1 183848. 4679.23   2
   3  -1   1 207881. 3779.06  13
   3   1   1 207495. 3672.57  12
   3  -1   2 3472.56 661.518   2
   3   1   2 3624.34 651.832   2
   3   1   2 1262.50 252.540  13
   3  -1   2 1460.65 275.639  13
   3   1   3 3636.08 473.214  36
   3  -1   3 3463.81 461.560  36
   3   1   3 3599.99 702.979  18
   3   1   3 3860.94 508.023  48
   3  -1   3 3489.27 484.815  48
   3   1   3 1508.31 481.470   2
   3  -1   3 864.925 364.028   2
   3   1   4 6574.58 635.680  36
   3  -1   4 6327.64 627.063  36
   3   1   4 5946.48 870.387  18
   3  -1   4 5384.10 807.162  18
   3  -1   4 7462.91 680.954  48
   3   1   4 1491.53 441.308  24
   3  -1   4 3480.56 608.386  24
   3  -1   4 2524.71 540.463  22
   3   1   5 3978.00 390.864  36
   3  -1   5 4294.66 413.240  36
   3  -3  -7 149.941 107.510  38
   3   3  -7 52.3355 91.8610  49
   3  -3  -7 89.7555 83.5208  27
   3  -3  -6 22285.6 1136.55  16
   3   3  -6 24260.1 1189.25  16
   3  -3  -6 21573.3 949.275  49
   3   3  -6 21076.3 961.040  45
   3  -3  -5 44103.2 1617.44  16
   3   3  -5 44884.1 1625.54  16
   3  -3  -5 44306.9 1633.40  15
   3   3  -4 63813.8 2403.51  20
   3  -3  -4 59710.5 2228.78   9
   3   3  -4 64002.2 1811.40  16
   3  -3  -4 64229.7 1804.21  15
   3   3  -3 21262.0 1191.62  20
   3  -3  -3 20085.3 1084.53   9
   3   3  -3 21225.1 842.040  16
   3  -3  -3 21943.8 1091.82   1
   3  -3  -2 21721.2 987.724   9
   3   3  -2 21029.8 718.333  16
   3   3  -2 23096.7 1015.82   6
   3   3  -1 9851.48 578.145   8
   3   3  -1 8668.12 556.026  17
   3   3  -1 10374.7 466.502  14
   3   3  -1 9954.62 703.311   6
   3  -3   0 5344.10 590.108   8
   3   3   0 5325.08 540.062  17
   3   3   0 5352.71 313.486  14
   3  -3   0 6129.77 435.824  13
   3   3   0 5818.38 389.958  12
   3  -3   0 5335.74 318.575  12
   3   3   1 21355.5 1419.68   2
   3  -3   1 16665.8 1138.45  17
   3  -3   1 22137.6 1422.08   2
   3  -3   1 17294.7 842.435  13
   3   3   1 17669.7 805.297  12
   3  -3   1 15210.5 1123.23  21
   3  -3   2 4488.41 703.863  17
   3   3   2 2816.38 629.380   2
   3   3   2 4897.30 470.214  13
   3  -3   2 4805.34 501.402  13
   3  -3   2 2870.39 590.983   2
   3   3   3 11098.4 818.406  36
   3  -3   3 12098.5 870.139  36
   3   3   3 10890.3 1164.56  18
   3   3   3 11107.6 1341.77   2
   3  -3   3 12901.4 820.415  28
   3  -3   3 11318.4 1317.29   2
   3   3   3 11482.8 861.566  48
   3  -3   3 13153.9 909.510  48
   3   3   3 8629.86 947.358  24
   3   3   4 7128.38 636.250  36
   3  -3   4 7310.08 663.432  36
   3   3   4 5862.95 852.310  18
   3  -3   4 4325.97 740.784  18
   3  -3   4 9886.51 771.590  48
   3   3   4 1994.04 501.448  24
   3  -3   5 742.447 194.883  36
   3   3   5 851.053 199.026  47
   3  -5  -7 5250.42 362.998  38
   3   5  -7 5557.72 393.205  49
   3  -5  -7 5612.18 384.617  27
   3  -5  -6 29436.6 1117.29  38
   3  -5  -6 25749.0 1198.08  16
   3   5  -6 29291.6 1302.55  16
   3  -5  -6 24987.9 1259.56  15
   3   5  -6 29650.7 1188.86  45
   3   5  -5 4308.23 628.692   9
   3  -5  -5 5573.79 557.910  16
   3   5  -5 5949.83 582.767  16
   3  -5  -5 6276.85 609.942  15
   3   5  -4 4622.67 690.292  20
   3   5  -4 5169.22 487.881  16
   3  -5  -4 5196.85 494.997  15
   3  -5  -3 42294.8 1255.21  10
   3   5  -3 46681.1 1924.91  20
   3  -5  -3 45973.9 1764.13   9
   3   5  -3 46290.9 1351.51  16
   3  -5  -2 27732.2 1169.30   9
   3   5  -2 26911.4 839.941  16
   3   5  -2 28072.5 1258.56   6
   3  -5  -2 30571.6 1042.44  10
   3  -5  -1 3172.39 309.299   9
   3   5  -1 4092.22 508.444   1
   3   5  -1 3233.56 289.131  14
   3   5  -1 3220.39 436.690   6
   3  -5  -1 3019.33 286.854  13
   3  -5  -1 3643.48 386.744   2
   3  -5   0 23699.7 1315.30   8
   3   5   0 24872.5 1259.89   6
   3  -5   0 26240.7 957.923  13
   3   5   0 25128.5 873.003  12
   3  -5   1 9372.59 873.068  17
   3  -5   1 8464.33 908.789   2
   3   5   1 9701.20 874.589   6
   3  -5   1 9432.45 637.929  13
   3   5   1 9347.83 593.469  12
   3  -5   1 8791.86 888.502  21
   3   5   2 9360.93 1154.80   2
   3   5   2 14278.5 1220.72  18
   3  -5   2 16376.0 1318.15  17
   3  -5   2 13221.9 791.293  28
   3  -5   2 11182.1 1188.07   2
   3   5   2 16256.8 856.546  13
   3   5   2 16042.5 1236.04   6
   3   5   3 5042.53 534.772  36
   3  -5   3 6668.68 645.647  36
   3   5   3 6322.12 890.343  18
   3  -5   3 6919.33 613.801  28
   3  -5   3 8088.63 710.490  48
   3   5   4 2246.29 356.141  36
   3  -5   4 2850.02 408.953  36
   3   5   4 2789.09 394.641  34
   3  -5   4 3776.67 465.578  48
   3  -5   5 673.687 171.097  36
   3   5   5 482.661 141.042  47
   3  -7  -7 4435.24 286.151  38
   3  -7  -7 4646.38 323.975  37
   3  -7  -7 4509.35 300.209  33
   3   7  -7 4796.30 337.411  49
   3  -7  -7 4805.44 325.400  27
   3   7  -7 4082.44 295.709  45
   3  -7  -6 2586.86 300.888  38
   3  -7  -6 2837.09 335.801  27
   3   7  -6 2777.05 384.171  45
   3  -7  -5 5143.87 439.049  38
   3   7  -5 5702.23 569.903  16
   3  -7  -5 6323.42 626.440  15
   3   7  -5 6270.45 542.617  14
   3   7  -4 3604.65 620.016  20
   3   7  -4 3391.00 419.460  16
   3  -7  -4 3833.89 440.392  15
   3   7  -4 3741.01 399.547  14
   3   7  -3 19582.0 1306.01  20
   3  -7  -3 19292.9 879.434  10
   3   7  -3 19848.8 877.110  16
   3   7  -3 19660.0 842.626  14
   3  -7  -2 117280. 2549.80  10
   3   7  -2 115901. 2361.77  14
   3  -7  -1 105472. 2606.18   2
   3   7  -1 104226. 3026.77   1
   3  -7  -1 106824. 3073.24   8
   3   7  -1 108483. 2966.88   6
   3   7  -1 108405. 2242.66  14
   3  -7  -1 101560. 2178.32  13
   3  -7   0 75950.3 2671.89   8
   3   7   0 64195.0 2243.12   1
   3   7   0 77706.7 2499.86   6
   3  -7   0 77194.7 1933.27  13
   3   7   0 77207.5 1816.54  12
   3  -7   0 67519.1 2400.53   2
   3  -7   1 14615.6 1200.40  21
   3   7   1 12840.8 1023.45  18
   3  -7   1 14159.7 1120.52  17
   3   7   1 15022.1 1149.44   6
   3  -7   1 15556.0 1269.90   2
   3   7   1 14560.2 780.567  12
   3   7   2 3892.55 663.986  18
   3  -7   2 5050.71 771.024  17
   3   7   2 1629.50 512.775   2
   3  -7   2 4534.78 457.809  28
   3   7   2 4100.73 673.436   6
   3   7   2 1290.87 356.829  24
   3  -7   2 1764.83 478.046   2
   3  -7   2 4821.07 493.862  10
   3  -7   3 20444.5 1125.62  36
   3   7   3 18019.3 1522.61  18
   3  -7   3 20794.9 1059.67  28
   3  -7   3 23195.2 1205.68  48
   3   7   3 20325.2 1249.78  44
   3  -7   4 3849.03 460.245  36
   3   7   4 4414.56 485.581  34
   3  -7   4 5280.59 529.568  48
   3  -7   5 737.735 146.610  36
   3  -9  -7 1587.21 169.208  37
   3  -9  -7 1325.75 142.863  33
   3   9  -7 1432.44 161.871  49
   3  -9  -7 1663.10 166.434  27
   3   9  -7 1546.79 170.133  45
   3   9  -6 1505.53 270.462  45
   3  -9  -6 1623.31 246.775  27
   3   9  -5 3794.24 471.711  16
   3  -9  -5 4066.46 502.068  15
   3   9  -5 3309.51 393.975  14
   3  -9  -5 3666.10 384.898  27
   3   9  -4 10471.8 742.055  16
   3  -9  -4 10173.1 755.609  15
   3   9  -4 10502.4 823.662  51
   3   9  -4 10494.2 693.319  14
   3   9  -3 32397.7 1785.93  20
   3  -9  -3 34153.9 1309.94  10
   3   9  -3 32598.6 1212.78  16
   3  -9  -3 33959.3 1297.61  15
   3   9  -3 33533.4 1222.78  14
   3  -9  -2 4951.53 477.480  10
   3   9  -2 5719.82 685.536  20
   3   9  -2 4455.19 405.826  14
   3  -9  -1 19215.2 941.240  10
   3  -9  -1 18131.7 1239.45   8
   3   9  -1 18023.3 1202.43   6
   3   9  -1 19312.4 842.856  14
   3  -9   0 12589.0 1065.74  21
   3  -9   0 11629.4 1054.44   8
   3   9   0 10099.2 922.834   6
   3   9   0 3211.42 514.227   1
   3   9   0 12149.9 661.029  12
   3  -9   0 3437.59 546.384   2
   3  -9   0 11886.2 748.042  10
   3  -9   1 51148.7 2285.72  17
   3   9   1 52221.7 2257.75   6
   3   9   1 51446.7 1647.98  12
   3  -9   1 52631.9 2512.82   2
   3  -9   1 52170.3 1757.43  10
   3  -9   1 52177.5 2438.36  21
   3   9   2 6764.10 865.373  18
   3   9   2 5860.69 661.612  34
   3  -9   2 7447.83 925.905  17
   3   9   2 4417.22 873.781   2
   3   9   2 6449.19 791.834   6
   3  -9   2 7009.42 986.529   2
   3  -9   3 12586.0 872.593  36
   3   9   3 10988.3 878.397  34
   3  -9   3 11681.5 778.760  28
   3  -9   3 13227.4 871.785  48
   3   9   3 10783.2 905.144  44
   3  -9   4 2440.88 337.523  36
   3   9   4 2257.68 340.058  34
   3  -9   4 2227.23 318.638  48
   3 -11  -6 1719.85 238.461  37
   3 -11  -6 1599.47 225.443  33
   3  11  -6 1357.12 214.148  49
   3 -11  -6 1645.39 218.311  27
   3  11  -6 1465.14 240.127  45
   3 -11  -5 21375.9 955.939  37
   3 -11  -5 21208.4 1133.02  15
   3  11  -5 18077.7 1030.35  51
   3 -11  -5 21040.2 872.096  27
   3  11  -5 19691.0 988.484  45
   3 -11  -4 13683.8 897.217  15
   3  11  -4 14846.5 1016.92  51
   3  11  -4 14013.3 821.978  14
   3  11  -3 82600.4 3189.93  20
   3 -11  -3 86742.4 2447.71  10
   3 -11  -3 88814.2 2389.38  15
   3  11  -3 87291.4 2258.16  14
   3 -11  -2 3416.79 433.928  10
   3  11  -2 2831.55 547.201  20
   3  11  -2 3339.36 382.245  14
   3 -11  -1 42607.1 1569.80  10
   3 -11  -1 40728.6 2024.94   8
   3 -11   0 4723.17 683.322  21
   3 -11   0 4071.30 477.328  10
   3  11   0 3198.61 420.625  34
   3  11   0 4900.00 704.874   6
   3  11   0 3681.81 535.351  44
   3  11   0 3862.95 402.340  12
   3 -11   1 12986.3 867.745  10
   3 -11   1 3734.29 675.011   2
   3  11   1 11739.1 889.950  34
   3 -11   1 14494.0 1206.85  17
   3 -11   1 13768.1 879.069  50
   3  11   1 10249.5 1046.20   6
   3  11   1 11920.2 980.670  44
   3  11   1 13456.0 813.368  12
   3 -11   1 13864.8 1293.47  21
   3  11   2 3984.51 533.854  34
   3 -11   2 3862.55 483.243  50
   3  11   2 4130.16 594.497  44
   3 -11   3 5322.61 544.359  36
   3  11   3 4195.37 539.673  34
   3 -11   3 4706.75 485.112  28
   3 -11   3 5051.11 500.686  48
   3  11   3 4265.94 457.938  26
   3  11   3 5095.89 583.483  44
   3 -11   4 5779.80 457.863  36
   3  11   4 5495.52 459.971  34
   3 -13  -6 2105.79 218.192  37
   3 -13  -6 1948.84 213.967  33
   3  13  -6 2030.36 242.410  45
   3 -13  -5 12664.7 675.214  37
   3 -13  -5 12866.0 704.817  33
   3  13  -5 12876.3 809.810  51
   3  13  -5 13095.8 751.907  45
   3 -13  -4 16016.6 802.021  37
   3 -13  -4 16561.8 867.089  33
   3 -13  -4 18086.4 1038.74  15
   3  13  -4 16124.9 1061.32  51
   3  13  -4 16496.8 880.764  14
   3  13  -3 8124.38 986.251  20
   3 -13  -3 8258.49 727.740  10
   3 -13  -3 8384.54 590.674  33
   3 -13  -3 9479.67 725.504  15
   3  13  -3 9603.38 680.012  14
   3  13  -3 7968.71 733.927  42
   3  13  -2 3221.70 609.810  20
   3 -13  -2 3799.09 491.695  10
   3 -13  -2 2747.09 535.847   8
   3  13  -2 3456.05 471.163  26
   3  13  -2 3398.95 531.141  42
   3  13  -1 20367.0 1394.94  20
   3 -13  -1 21227.5 1145.88  10
   3 -13  -1 18767.7 1419.38   8
   3  13  -1 20042.1 1154.65  26
   3  13  -1 16115.7 1069.09  44
   3  13  -1 20638.5 920.064  12
   3 -13  -1 19957.2 970.629  25
   3 -13   0 420.109 301.013  21
   3 -13   0 268.067 144.199  10
   3  13   0 435.030 170.189  34
   3  13   0 265.076 167.550  26
   3  13   0 204.687 209.290  44
   3  13   0 325.847 143.922  12
   3 -13   1 29431.6 1383.45  10
   3  13   1 24778.4 1342.18  34
   3 -13   1 28261.5 1322.93  50
   3  13   1 25651.6 1490.22  44
   3 -13   1 28863.4 1929.50  21
   3  13   2 12559.8 927.946  34
   3 -13   2 12228.4 833.975  50
   3  13   2 12775.2 900.261  26
   3  13   2 13365.0 1036.62  44
   3 -13   3 11760.7 726.681  36
   3  13   3 11156.5 778.063  34
   3 -13   3 11157.1 680.698  28
   3  13   3 11094.5 817.446  44
   3 -13   4 6482.42 381.063  36
   3  13   4 6094.68 433.362  23
   3 -15  -5 1548.88 202.653  37
   3 -15  -5 1433.02 212.291  33
   3  15  -5 1634.14 259.467  51
   3  15  -5 1497.07 243.491  45
   3 -15  -4 1787.08 248.291  37
   3 -15  -4 2120.25 289.261  33
   3  15  -4 1695.49 340.360  51
   3 -15  -3 803.855 190.445  33
   3  15  -3 685.665 255.733  51
   3 -15  -3 962.007 237.861  15
   3  15  -3 677.631 272.733  42
   3 -15  -2 17899.0 1114.59  10
   3 -15  -2 18428.3 994.037  15
   3  15  -2 17188.0 1141.94  42
   3 -15  -2 17167.9 891.002  40
   3 -15  -1 55506.2 2522.72  21
   3 -15  -1 53341.1 1956.00  10
   3  15  -1 48274.0 1916.84  26
   3  15  -1 42987.4 1835.04  44
   3 -15  -1 54293.6 1713.83  25
   3  15  -1 47511.3 1981.42  42
   3 -15   0 6992.81 933.962  21
   3 -15   0 7260.95 699.182  10
   3  15   0 6138.07 626.163  34
   3  15   0 6695.90 680.944  26
   3  15   0 6078.43 711.363  44
   3  15   0 6578.62 702.058  42
   3 -15   1 1503.30 301.400  10
   3  15   1 1677.66 346.852  34
   3 -15   1 1587.95 330.673  50
   3  15   1 1567.65 336.621  26
   3  15   1 1549.29 400.454  44
   3  15   1 1371.24 308.225  42
   3  15   2 9388.14 743.303  34
   3 -15   2 10488.6 679.763  28
   3 -15   2 9441.00 692.245  50
   3  15   2 10309.4 743.908  26
   3  15   2 10764.6 867.412  44
   3 -15   3 6055.36 427.011  36
   3  15   3 5875.21 498.197  34
   3 -15   3 6245.49 439.646  28
   3  15   3 5426.30 487.743  44
   3  15   3 5213.97 456.980  23
   3  17  -5-3.91082 56.1581  51
   3  17  -5 47.2194 78.0462  45
   3 -17  -5 138.592 66.5882  25
   3 -17  -5 47.1052 57.1857  40
   3 -17  -4 262.491 113.155  33
   3  17  -4 111.554 125.431  45
   3 -17  -4 233.685 124.844  25
   3  17  -4 151.406 113.752  51
   3 -17  -4 195.066 109.808  40
   3 -17  -3 701.229 180.223  25
   3  17  -3 578.361 220.593  51
   3  17  -3 419.938 180.376  42
   3 -17  -3 467.566 163.111  40
   3  17  -2 7060.03 659.017  51
   3 -17  -2 7366.74 576.262  25
   3  17  -2 6848.44 695.810  42
   3 -17  -2 6660.16 523.165  40
   3 -17  -1 12800.8 916.288  10
   3  17  -1 11171.8 810.169  51
   3  17  -1 11769.8 876.435  26
   3  17  -1 10342.9 798.439  44
   3 -17  -1 13036.9 775.732  25
   3  17  -1 11820.1 908.179  42
   3 -17   0-27.5117 171.294  21
   3 -17   0 301.624 191.981  50
   3  17   0 508.332 206.549  26
   3  17   0 155.739 194.089  44
   3 -17   0 285.772 106.521  25
   3  17   0 338.517 193.676  42
   3 -17   1 3108.35 393.032  50
   3  17   1 2798.28 403.208  26
   3  17   1 2761.37 430.131  44
   3  17   1 2621.62 391.953  42
   3 -17   2 1203.55 198.640  36
   3 -17   2 1399.38 224.780  28
   3 -17   2 1634.34 260.724  50
   3  17   2 1244.58 227.214  26
   3  17   2 1521.52 302.683  44
   3 -17   3 1130.17 143.301  28
   3 -19  -4 19564.4 673.628  25
   3 -19  -4 18416.6 652.468  40
   3  19  -3 1213.41 240.684  51
   3 -19  -3 1475.86 227.160  25
   3  19  -3 1368.36 239.702  42
   3 -19  -3 1521.15 219.913  40
   3  19  -2 4457.60 453.072  51
   3 -19  -2 5053.81 430.719  25
   3  19  -2 4814.27 508.160  42
   3 -19  -2 4999.32 394.548  40
   3 -19  -1 14978.2 804.045  50
   3 -19  -1 13593.2 706.757  25
   3  19  -1 12546.1 831.821  42
   3 -19   0 3173.32 368.576  50
   3  19   0 2674.38 376.826  44
   3 -19   0 2287.79 266.383  25
   3  19   0 2264.84 359.855  42
   3 -19   1 4033.14 389.523  50
   3  19   1 4099.81 437.459  44
   3  19   1 3354.86 348.996  42
   3 -19   2 2675.96 225.371  28
   3 -19   2 2202.12 238.975  50
   3  19   2 2637.33 284.548  44
   3  21  -3 1707.37 189.852  51
   3 -21  -3 2321.36 200.974  25
   3 -21  -2 6540.10 379.166  50
   3 -21  -2 6309.47 381.411  25
   3  21  -2 5848.86 432.450  42
   3 -21  -1 4006.94 335.286  50
   3 -21  -1 3970.83 299.807  25
   3  21  -1 3596.41 359.056  42
   3 -21   0 1271.57 196.253  50
   3  21   0 971.837 165.029  44
   3  21   0 1016.37 182.975  42
   3 -21   1 1367.73 167.769  50
   4   0  -7 31.3242 80.9750  49
   4   0  -6 2288.68 373.813  16
   4   0  -5-197.066 210.905   9
   4   0  -5 27.7907 127.071  16
   4   0  -4 5705.39 685.787   9
   4   0  -4 6717.94 565.695  16
   4   0  -3 52.7042 117.300   1
   4   0  -2 85055.5 2380.64   6
   4   0  -1-208.403 133.235   8
   4   0  -1 51.7140 102.582   2
   4   0   0 158621. 4667.65   2
   4   0   0 211661. 4848.95  17
   4   0   0 216956. 3693.56  12
   4   0   0 180927. 4295.57  21
   4   0   1 25.9080 189.786  17
   4   0   1-357.235 238.632   2
   4   0   1-16.7271 96.3496  13
   4   0   2 3421.17 433.105  36
   4   0   2 4156.39 510.934  48
   4   0   2 4351.87 524.722  13
   4   0   3 231.637 169.077  36
   4   0   3-272.929 291.120  18
   4   0   3 104.374 172.487  48
   4   0   4 448.119 182.621  36
   4   0   4 215.369 152.387  24
   4  -2  -7 83.2535 79.6950  38
   4  -2  -7-285.399 113.005  49
   4   2  -7-107.157 105.497  49
   4  -2  -6 9613.93 754.857  16
   4   2  -6 9727.30 750.162  16
   4  -2  -6 8582.79 589.826  49
   4  -2  -5 14865.3 1226.70   9
   4   2  -5 13907.6 1182.64   9
   4  -2  -5 15930.0 957.767  16
   4   2  -5 15774.0 957.932  16
   4   2  -4 60.1035 74.4685  20
   4  -2  -4 129.942 137.999   9
   4   2  -4 105.897 137.387  16
   4  -2  -4 19.1002 72.5931  15
   4  -2  -3 47494.9 2031.78   1
   4   2  -3 47133.8 2186.75   1
   4   2  -2 132.694 130.074   6
   4   2  -1 2537.51 377.734   8
   4  -2  -1 2506.02 442.598   8
   4   2  -1 2460.75 391.847  17
   4   2  -1 2615.90 258.981  14
   4  -2  -1 1182.35 280.878   2
   4   2  -1 2307.04 431.726   6
   4  -2  -1 2691.90 254.398  12
   4  -2   0 55956.0 2196.26  21
   4   2   0 46139.2 2252.45   2
   4   2   0 57130.0 2229.88  17
   4  -2   0 57440.5 2283.34  17
   4  -2   0 43754.1 2135.06   2
   4  -2   0 59530.7 1745.85  13
   4   2   0 60092.4 1624.20  12
   4  -2   0 59507.1 1488.30  12
   4   2   1 52823.0 2735.06   2
   4  -2   1 64538.9 2706.65  17
   4  -2   1 56982.2 2796.03   2
   4   2   1 69071.7 2042.68  13
   4  -2   1 67779.7 2057.48  13
   4   2   1 68868.2 1948.86  12
   4  -2   2 10249.1 788.308  36
   4   2   2 8091.13 1106.35   2
   4  -2   2 9128.69 1198.00   2
   4  -2   2 9695.83 664.852  28
   4   2   2 10004.9 786.346  48
   4   2   2 13129.2 886.533  13
   4  -2   2 12394.8 895.604  13
   4   2   3 683.058 227.298  36
   4  -2   3 645.890 214.063  36
   4   2   3 788.438 406.257  18
   4  -2   3 790.617 410.365  18
   4   2   3 925.483 273.968  48
   4  -2   3 1199.11 308.811  48
   4   2   3 230.166 317.256  24
   4   2   4 3473.48 365.725  36
   4  -2   4 4322.41 440.411  36
   4   2   4 4011.71 395.834  34
   4   2   4 398.209 259.771  24
   4  -4  -7 1280.64 182.966  38
   4   4  -7 1342.18 212.017  49
   4  -4  -7 1359.62 213.306  27
   4  -4  -6 20013.4 1086.58  16
   4   4  -6 18735.6 1054.47  16
   4   4  -6 18021.7 890.136  45
   4  -4  -5 102659. 2713.43  16
   4   4  -5 99649.2 2697.17  16
   4  -4  -5 102961. 2710.20  15
   4   4  -4 9647.96 982.291  20
   4  -4  -4 9877.19 937.193   9
   4   4  -4 10404.1 704.739  16
   4  -4  -4 10790.5 723.972  15
   4  -4  -3 31728.2 1146.33  10
   4  -4  -3 32531.9 1543.27   9
   4   4  -3 34030.6 1137.29  16
   4   4  -3 28864.5 1751.69   1
   4  -4  -2 95611.6 2575.60   9
   4   4  -2 99079.4 2179.64  14
   4   4  -2 107293. 2947.02   6
   4   4  -2 103339. 3207.28   1
   4  -4  -1 9892.31 906.224   8
   4   4  -1 11055.1 560.317  14
   4  -4  -1 10219.0 632.305  13
   4  -4   0 34886.0 1791.35  21
   4  -4   0 36352.1 1339.08  13
   4   4   0 34454.5 1762.61   6
   4   4   0 35228.0 1225.86  12
   4   4   1 20938.6 1728.98   2
   4  -4   1 30629.5 1841.47  17
   4  -4   1 23622.2 1745.75   2
   4   4   1 32460.1 1849.55   6
   4  -4   1 30352.3 1321.20  13
   4   4   1 31235.1 1276.02  12
   4  -4   2 11641.4 854.361  36
   4   4   2 9458.00 1092.47  18
   4   4   2 9431.82 1244.13   2
   4  -4   2 10828.5 733.765  28
   4  -4   2 11424.5 1331.92   2
   4   4   2 9072.34 719.398  48
   4   4   2 12487.6 841.287  13
   4  -4   3 3993.74 501.659  36
   4   4   3 3716.69 684.757  18
   4  -4   3 4387.56 529.365  48
   4  -4   4 520.588 177.668  36
   4   4   4 576.901 153.775  34
   4   4   4 248.133 127.430  47
   4   6  -7 480.228 129.043  49
   4  -6  -7 677.952 156.833  27
   4   6  -6 5252.28 505.965  45
   4   6  -5 638.846 219.631  16
   4  -6  -5 848.900 246.414  15
   4   6  -5 818.914 228.225  14
   4   6  -4 971.051 384.993  20
   4   6  -4 1366.23 274.496  16
   4  -6  -4 1473.38 301.569  15
   4  -6  -3 28047.1 1134.56  10
   4  -6  -3 27920.1 1459.32   9
   4   6  -3 28009.1 1102.22  14
   4   6  -2 5225.63 724.857   1
   4   6  -2 5275.17 647.227   6
   4   6  -2 5250.30 453.926  14
   4  -6  -2 5589.99 511.224  10
   4  -6  -1 42425.6 2046.95   8
   4   6  -1 46205.3 1350.35  14
   4   6  -1 49628.8 2087.83   6
   4  -6  -1 43814.4 1418.32  13
   4   6  -1 44013.0 2039.91   1
   4  -6   0 59427.9 2503.60  21
   4   6   0 58836.6 2423.32   6
   4  -6   0 60930.3 1838.95  13
   4   6   0 58958.2 1704.14  12
   4   6   1 9843.82 1218.69   2
   4   6   1 10981.6 1034.13  18
   4  -6   1 14282.9 1290.48  17
   4  -6   1 10699.2 1195.20   2
   4   6   1 14077.3 1273.72   6
   4   6   1 14428.4 864.629  12
   4  -6   1 12925.6 1237.30  21
   4   6   2 4545.79 751.689  18
   4  -6   2 5069.44 512.615  28
   4  -6   3 616.294 219.397  36
   4   6   3 597.842 307.101  18
   4  -6   3 875.558 245.404  48
   4   6   3-61.1855 207.541  24
   4  -6   4 6345.99 490.968  36
   4   6   4 6311.20 465.005  34
   4  -8  -7 2632.94 237.217  37
   4  -8  -7 2917.81 244.296  33
   4   8  -7 2763.61 250.231  49
   4  -8  -7 2790.26 228.262  27
   4   8  -7 2460.85 217.618  45
   4  -8  -6 1948.25 263.699  27
   4   8  -6 1968.44 299.187  45
   4  -8  -5 6936.46 662.345  15
   4   8  -5 6833.47 601.711  14
   4   8  -4 8944.72 1039.74  20
   4   8  -4 8256.76 635.880  16
   4  -8  -4 9250.51 728.814  15
   4   8  -4 9733.47 687.276  14
   4   8  -3 1181.72 367.884  20
   4  -8  -3 1053.03 238.830  10
   4   8  -3 999.344 228.058  14
   4  -8  -2 17122.7 959.481  10
   4   8  -2 16534.9 1365.57   1
   4   8  -2 16900.7 1260.91   6
   4   8  -2 17493.7 858.639  14
   4   8  -1 5208.00 736.033   1
   4  -8  -1 6067.07 806.696   8
   4   8  -1 6016.12 758.339   6
   4   8  -1 6256.33 496.051  14
   4  -8  -1 6445.59 593.395  10
   4  -8   0 37586.3 2054.16  21
   4   8   0 37697.9 1993.65   6
   4   8   0 31705.4 1759.52   1
   4   8   0 37256.1 1368.02  12
   4  -8   0 32132.6 1832.60   2
   4   8   1 3954.87 817.314   2
   4   8   1 8077.86 909.905  18
   4  -8   1 12120.2 1229.44  17
   4   8   1 11631.3 1154.81   6
   4   8   1 12811.0 829.361  12
   4  -8   1 12535.7 899.631  10
   4  -8   1 10326.9 1142.72  21
   4  -8   1 3829.72 735.717   2
   4   8   2 335.038 263.847  18
   4  -8   2 482.050 180.761  28
   4   8   2 181.540 266.339  24
   4  -8   3 1256.61 283.157  36
   4   8   3 1170.69 287.773  34
   4  -8   3 1472.84 271.139  28
   4  -8   3 1375.12 291.667  48
   4   8   3 1441.72 311.953  44
   4  -8   4 264.498 113.942  36
   4   8   4 435.269 112.708  34
   4 -10  -7 4224.98 249.027  33
   4 -10  -6 6549.59 455.100  37
   4 -10  -6 6161.58 396.784  27
   4  10  -6 6634.96 508.695  45
   4  10  -5 821.238 243.556  51
   4 -10  -5 957.137 237.988  15
   4  10  -5 1208.61 270.048  14
   4  10  -4 48572.0 2507.79  20
   4 -10  -4 49564.7 1803.38  15
   4  10  -4 49806.2 1685.93  14
   4  10  -3 39770.2 2171.24  20
   4 -10  -3 40237.1 1600.24  10
   4  10  -3 40740.4 1458.50  14
   4 -10  -2 1212.24 282.902  10
   4 -10  -2 978.427 357.738   8
   4  10  -2 1593.29 284.743  14
   4 -10  -1 10570.2 788.851  10
   4 -10  -1 9700.58 1083.86   8
   4  10  -1 9811.88 1034.43   6
   4  10  -1 10090.7 676.285  12
   4 -10   0 509.898 280.329  21
   4 -10   0 230.874 143.026  10
   4  10   0 294.449 152.613  34
   4  10   0 298.925 330.338   6
   4  10   0 283.272 150.455  12
   4 -10   1 8826.38 758.152  10
   4  10   1 7883.04 756.863  34
   4 -10   1 8500.62 1023.63  17
   4 -10   1 8233.44 1046.12  21
   4  10   2 8773.71 776.956  34
   4 -10   2 8418.74 652.834  28
   4  10   2 8736.96 846.173  44
   4 -10   3 3211.67 383.299  36
   4  10   3 2785.50 394.331  34
   4 -10   3 2848.48 340.667  28
   4 -10   3 3112.66 383.218  48
   4  10   3 2323.45 303.640  26
   4  10   3 2742.22 404.822  44
   4 -10   4 1737.27 193.362  36
   4 -12  -6 2702.44 248.388  37
   4 -12  -6 2851.55 280.170  33
   4  12  -6 2708.01 293.538  45
   4 -12  -5 6148.85 442.115  37
   4  12  -5 5803.74 555.272  51
   4 -12  -4 16769.0 1015.93  15
   4  12  -4 14352.0 1019.46  51
   4  12  -4 15771.5 908.006  14
   4  12  -3 7002.50 924.735  20
   4 -12  -3 7411.13 684.607  10
   4 -12  -3 8279.87 692.182  15
   4  12  -3 7488.49 613.441  14
   4  12  -3 6132.37 668.854  42
   4  12  -2 31325.5 1903.73  20
   4 -12  -2 34406.7 1539.27  10
   4 -12  -2 28450.0 1876.31   8
   4  12  -2 25999.3 1324.23  26
   4 -12  -1-54.2363 126.626  10
   4 -12  -1-64.7316 176.728   8
   4  12  -1-26.0277 177.627  44
   4  12  -1-7.72712 111.063  12
   4 -12   0 5269.73 836.840  21
   4 -12   0 5322.10 596.474  10
   4  12   0 3908.93 512.379  34
   4  12   0 4698.00 648.438  44
   4  12   0 5580.35 544.351  12
   4 -12   1 6172.63 631.522  10
   4  12   1 6147.14 662.650  34
   4 -12   1 5853.22 866.266  17
   4 -12   1 6130.96 571.291  50
   4  12   1 5213.24 689.605  44
   4  12   2 3220.31 442.945  34
   4 -12   2 3113.14 390.454  28
   4  12   2 2766.16 466.600  44
   4 -12   3 7866.95 531.559  36
   4  12   3 7288.28 553.825  34
   4 -12   3 7413.80 484.166  28
   4 -12   3 6410.28 445.721  48
   4  12   3 6713.80 536.496  44
   4 -14  -6 2814.86 224.181  33
   4  14  -6 2883.61 249.969  45
   4 -14  -6 2647.76 211.322  25
   4 -14  -6 2757.41 231.181  40
   4 -14  -5 241.352 122.734  33
   4  14  -5 223.818 133.278  51
   4  14  -5 248.975 141.754  45
   4 -14  -4 7936.13 529.962  33
   4  14  -4 8172.64 726.825  51
   4  14  -3 6877.40 921.676  20
   4 -14  -3 7472.33 705.298  10
   4 -14  -3 9080.54 719.011  15
   4  14  -3 7173.97 711.840  42
   4  14  -2 2338.15 554.711  20
   4 -14  -2 3843.57 522.015  10
   4  14  -2 3163.80 457.320  26
   4  14  -2 3287.98 532.536  42
   4  14  -2 2537.99 339.126  12
   4 -14  -1 16879.5 1445.35  21
   4  14  -1 13229.4 1180.73  20
   4 -14  -1 17076.9 1077.06  10
   4  14  -1 15486.5 1042.76  26
   4  14  -1 14289.4 1045.43  44
   4  14  -1 14457.4 827.919  12
   4 -14   0 3380.77 692.968  21
   4 -14   0 3786.28 503.506  10
   4  14   0 2781.20 426.240  34
   4 -14   0 3562.23 460.828  50
   4  14   0 3191.71 475.610  26
   4  14   0 3002.97 523.134  44
   4  14   0 2649.41 363.576  12
   4  14   1 2381.87 411.545  34
   4 -14   1 2407.53 367.967  50
   4  14   1 2644.83 423.678  26
   4  14   1 2376.45 454.522  44
   4  14   1 2649.54 405.307  42
   4 -14   2 31948.9 1194.57  36
   4  14   2 28017.5 1224.68  34
   4 -14   2 28385.3 1078.49  28
   4 -14   2 27977.6 1038.12  48
   4  14   2 27934.4 1159.46  26
   4  14   2 28158.0 1308.03  44
   4 -14   3 11348.0 513.890  36
   4  14   3 11539.9 570.832  34
   4 -16  -5 613.938 116.929  33
   4  16  -5 293.319 114.214  51
   4  16  -5 455.594 134.999  45
   4 -16  -5 442.439 117.955  25
   4 -16  -5 387.767 109.181  40
   4  16  -4 22803.1 1090.64  51
   4 -16  -4 23654.0 915.506  40
   4  16  -3 15270.6 957.978  51
   4 -16  -3 16289.0 829.754  25
   4  16  -3 15344.5 947.700  42
   4 -16  -3 15874.3 768.442  40
   4 -16  -2 20975.6 1494.75  21
   4 -16  -2 21243.7 964.550  25
   4  16  -2 20697.1 1195.68  42
   4 -16  -1 10049.8 1066.24  21
   4  16  -1 10525.5 811.068  26
   4  16  -1 9644.76 778.084  44
   4  16  -1 10453.4 860.200  42
   4  16   0 16928.8 951.335  34
   4 -16   0 20486.5 1013.02  50
   4  16   0 18625.3 1060.30  26
   4  16   0 18958.6 1137.30  44
   4  16   0 18202.5 1101.17  42
   4 -16   0 19221.4 1447.06  21
   4  16   1 239.699 154.819  34
   4 -16   1 18.7670 78.4716  50
   4  16   1 235.530 146.137  26
   4  16   1 209.418 142.600  44
   4  16   1 147.813 170.078  42
   4 -16   2 2395.61 260.717  36
   4  16   2 2411.81 301.074  34
   4 -16   2 2502.58 269.492  28
   4  16   2 2572.83 280.434  26
   4  16   2 2591.84 337.332  44
   4  18  -4 4927.31 402.688  51
   4 -18  -4 5621.00 370.008  25
   4 -18  -4 4896.74 323.026  40
   4  18  -3 4759.19 459.996  51
   4 -18  -3 5084.69 405.730  25
   4  18  -3 4604.02 438.105  42
   4 -18  -3 3903.45 310.212  40
   4  18  -2 1495.33 282.642  51
   4 -18  -2 1738.76 250.638  25
   4  18  -2 1213.32 274.732  42
   4 -18  -1 14055.0 767.798  50
   4  18  -1 12385.4 813.414  42
   4 -18   0 7837.44 537.046  50
   4  18   0 6399.79 543.338  26
   4  18   0 6639.48 568.275  44
   4  18   0 5782.12 526.790  42
   4 -18   1 20.2446 71.6228  28
   4 -18   1 161.089 87.9161  50
   4  18   1-108.745 106.110  44
   4  18   1 237.191 116.347  42
   4  20  -3 5494.94 361.477  51
   4 -20  -3 6013.48 338.462  50
   4  20  -2-138.776 93.7499  51
   4 -20  -2 88.0875 91.7423  50
   4 -20  -2 1.63549 62.0058  25
   4  20  -2 112.406 96.2264  42
   4 -20  -1 2292.53 253.432  50
   4  20  -1 1958.16 265.137  42
   4 -20   0 2556.44 244.870  50
   4  20   0 1825.11 225.204  42
   5  -1  -7 2438.37 252.901  38
   5   1  -7 2639.45 267.401  49
   5  -1  -5 3975.62 663.895   9
   5   1  -5 3817.45 639.019   9
   5  -1  -5 4418.84 532.763  16
   5   1  -5 4963.66 547.721  16
   5  -1  -4 4612.06 692.456   9
   5   1  -4 5182.90 515.551  16
   5   1  -3 4255.80 718.946   1
   5  -1  -3 4711.32 740.734   1
   5   1  -2 24085.2 1450.48   8
   5  -1  -2 25410.4 1580.97   8
   5   1  -2 28073.4 1549.50   6
   5   1  -1 803.264 326.170  17
   5  -1  -1 699.392 278.746  17
   5   1  -1 915.645 315.781   2
   5   1  -1 367.311 189.079   6
   5   1  -1 831.375 192.334  12
   5  -1  -1 699.652 171.441  12
   5   1   0 15528.4 1313.23  17
   5  -1   0 17095.4 1400.02  17
   5   1   0 7306.96 991.552   2
   5  -1   0 5902.50 926.778   2
   5  -1   0 17741.7 1027.59  13
   5   1   0 17165.9 903.879  12
   5  -1   0 17443.0 856.914  12
   5   1   1 35094.2 2483.39   2
   5  -1   1 32764.6 2404.91   2
   5   1   1 65455.9 2161.85  13
   5  -1   1 64157.9 2135.25  13
   5  -1   2 8595.46 681.532  36
   5   1   2 7603.46 965.798  18
   5   1   2 8658.95 725.366  48
   5  -1   2 9229.54 763.234  48
   5   1   2 9693.83 785.607  13
   5  -1   3 1583.16 265.657  36
   5  -1   3 1665.56 289.098  48
   5   1   3 288.408 240.753  24
   5  -1   3 70.0621 231.561  24
   5   3  -7 7043.94 440.114  49
   5  -3  -5 34056.5 1979.31   9
   5   3  -5 34015.1 1961.75   9
   5   3  -5 37572.9 1527.01  16
   5   3  -4 48926.9 2341.22  20
   5  -3  -4 45875.0 2205.50   9
   5   3  -4 47684.3 1625.15  16
   5  -3  -4 52579.9 1736.98  15
   5   3  -3 30698.9 1993.63   1
   5  -3  -3 28580.2 1778.35   1
   5   3  -2 8807.00 982.255   1
   5  -3  -2 7596.38 894.704   8
   5   3  -2 7824.21 522.681  14
   5   3  -2 8756.48 884.784   6
   5  -3  -1 12392.3 1064.09  21
   5  -3  -1 10615.4 1106.63   8
   5   3  -1 12331.8 1146.14   6
   5  -3  -1 11400.2 778.235  13
   5   3  -1 11640.8 717.369  12
   5   3   0 14816.7 1491.47   2
   5  -3   0 19732.0 1538.89  17
   5  -3   0 16070.0 1423.10   2
   5   3   0 22926.6 1654.97   6
   5  -3   0 19978.1 1112.97  13
   5   3   0 20338.0 1028.70  12
   5  -3   0 18495.0 1401.96  21
   5  -3   1 20227.3 1084.91  36
   5  -3   1 23634.5 1751.24  17
   5   3   1 22958.1 1255.51  13
   5  -3   1 22185.6 1221.12  13
   5  -3   2 484.003 200.893  36
   5   3   2 668.051 350.835  18
   5   3   2 336.744 162.594  48
   5  -3   2 816.191 252.488  48
   5  -3   3 2579.71 341.878  36
   5  -3   3 3171.66 387.307  48
   5   3   3-97.6454 191.173  24
   5  -3   3 311.799 186.469  24
   5   5  -7 1020.66 176.698  49
   5  -5  -7 1032.56 168.243  27
   5   5  -6 19817.6 909.938  45
   5   5  -5 5435.70 546.805  16
   5  -5  -5 6232.60 607.202  15
   5   5  -5 7422.64 624.962  14
   5   5  -4 10923.2 1167.37  20
   5  -5  -4 10759.9 1053.71   9
   5  -5  -4 13844.7 885.333  15
   5   5  -4 12213.8 796.976  14
   5  -5  -3 9023.02 848.673   9
   5   5  -3 10717.2 711.264  14
   5   5  -3 10330.0 1187.18   1
   5  -5  -3 10329.3 741.236  10
   5  -5  -2 9929.82 1073.77   8
   5   5  -2 9315.01 1070.69   1
   5   5  -2 10881.5 663.358  14
   5   5  -2 10854.9 1033.56   6
   5  -5  -2 8731.89 618.808  13
   5  -5  -1 39044.4 2078.84  21
   5  -5  -1 34497.4 2131.38   8
   5   5  -1 40229.0 2142.68   6
   5  -5  -1 36717.5 1458.01  13
   5   5  -1 38322.5 1408.40  12
   5  -5   0 13583.8 1276.96  17
   5   5   0 13360.1 1281.33   6
   5  -5   0 13345.1 911.592  13
   5   5   0 12787.9 828.919  12
   5  -5   0 12612.3 1220.72  21
   5   5   1 247.564 290.928  18
   5  -5   1 815.752 400.530  17
   5   5   1 606.719 224.953  13
   5  -5   2 154.790 137.966  36
   5   5   2 200.081 200.990  18
   5   5   2-61.4740 236.136  24
   5  -5   3 14925.3 770.727  36
   5   5   3 17279.5 882.466  34
   5  -5   3 18197.7 859.035  48
   5   5   3 11876.2 695.395  44
   5  -7  -7 2432.37 216.167  37
   5   7  -7 2761.15 248.007  49
   5  -7  -7 2041.69 184.307  27
   5   7  -6 3595.69 390.386  45
   5  -7  -5 4856.83 541.803  15
   5   7  -5 4564.98 497.037  14
   5   7  -4 1112.82 413.078  20
   5  -7  -4 1545.61 321.155  15
   5   7  -4 1369.65 295.959  14
   5  -7  -3 3669.82 461.320  10
   5   7  -3 3542.31 430.520  14
   5  -7  -2 15559.0 1402.54   8
   5   7  -2 17257.4 1391.15   6
   5   7  -2 17700.7 895.192  14
   5   7  -2 13406.7 1349.38   1
   5  -7  -2 17294.0 1069.16  10
   5  -7  -1 1780.57 487.601  21
   5   7  -1 1348.03 460.376   1
   5  -7  -1 581.240 308.696   8
   5   7  -1 1426.61 413.372   6
   5  -7  -1 1463.18 277.867  13
   5   7  -1 1308.38 271.709  12
   5  -7   0 960.044 422.839  21
   5  -7   0 1229.61 423.623  17
   5   7   0 709.321 348.472   2
   5   7   0 986.114 386.174   1
   5   7   0 761.573 221.965  12
   5  -7   1 10165.1 1180.32  17
   5  -7   1 9134.43 650.899  28
   5   7   1 7921.74 686.211  13
   5  -7   2 544.523 195.588  36
   5  -7   2 665.427 198.918  28
   5  -7   3 923.886 202.983  36
   5   7   3 927.065 220.184  34
   5  -7   3 967.836 217.121  48
   5   7   3 701.207 179.589  44
   5  -9  -7 756.696 115.967  33
   5   9  -7 885.108 130.534  49
   5  -9  -6 2824.44 273.142  37
   5   9  -6 3163.19 352.109  45
   5   9  -5 10304.3 763.143  51
   5   9  -4 8515.78 1046.91  20
   5  -9  -4 10285.0 802.794  15
   5   9  -4 9280.84 708.998  14
   5  -9  -3 6320.36 628.811  10
   5   9  -3 6361.54 900.160  20
   5  -9  -3 6552.44 924.549   8
   5   9  -3 6022.16 566.995  14
   5  -9  -2 36638.3 1595.68  10
   5  -9  -2 34306.3 2160.99   8
   5   9  -2 36943.7 1386.91  14
   5  -9  -1 15729.3 1043.53  10
   5  -9  -1 16534.0 1453.60  21
   5   9  -1 13652.6 1351.91   1
   5   9  -1 15637.6 912.450  12
   5  -9   0 8980.80 1078.64  17
   5   9   0 8301.41 687.934  12
   5  -9   0 9355.08 816.173  10
   5  -9   0 9092.27 1120.97  21
   5  -9   1 15848.9 1020.10  10
   5   9   1 16634.0 1065.70  34
   5  -9   1 17928.2 1500.89  17
   5  -9   1 16873.8 890.206  28
   5  -9   2 10681.4 719.771  36
   5   9   2 10211.4 761.194  34
   5  -9   2 9747.37 614.727  28
   5   9   2 9030.99 772.394  44
   5  -9   3 154.828 103.964  36
   5   9   3 179.817 106.169  34
   5  -9   3 15.8875 83.2879  48
   5 -11  -6 3508.20 301.591  33
   5  11  -6 3330.26 328.525  45
   5  11  -5 4647.25 499.666  51
   5  11  -4 29330.4 1945.47  20
   5 -11  -4 33738.1 1472.60  15
   5  11  -4 31709.6 1318.45  14
   5  11  -3 76226.6 3229.67  20
   5 -11  -3 75503.5 2426.25  10
   5  11  -3 82580.8 2303.24  14
   5 -11  -2 4707.05 577.663  10
   5  11  -2 3701.69 500.234  26
   5  11  -2 4747.83 498.028  12
   5 -11  -1 8693.83 1064.48  21
   5 -11  -1 8189.58 750.731  10
   5  11  -1 8603.28 684.122  12
   5 -11   0 11410.4 885.571  10
   5  11   0 10171.2 823.876  34
   5 -11   0 11231.7 1228.63  17
   5  11   0 11603.0 817.159  12
   5 -11   0 10563.9 1175.72  21
   5  11   1 292.079 167.876  34
   5 -11   1 94.3758 125.934  28
   5  11   1 160.220 212.318  44
   5 -11   2 2033.89 299.377  36
   5  11   2 1754.82 317.226  34
   5 -11   2 1636.12 247.468  28
   5 -11   2 2266.56 310.319  48
   5  11   2 1749.06 333.389  44
   5 -13  -6 2129.01 184.644  33
   5  13  -6 2229.92 225.947  45
   5 -13  -6 2669.44 222.529  40
   5 -13  -5 1305.81 197.251  33
   5  13  -5 1519.90 273.028  51
   5  13  -3 206.456 233.142  20
   5 -13  -3 458.949 185.173  15
   5  13  -3 252.660 122.194  12
   5  13  -3 196.844 185.475  42
   5  13  -2 876.874 392.344  20
   5 -13  -2 1097.99 282.358  10
   5  13  -2 909.473 263.586  26
   5  13  -2 831.260 224.566  12
   5 -13  -1 1249.75 486.209  21
   5  13  -1 1571.69 446.942  20
   5 -13  -1 2081.69 368.202  10
   5  13  -1 1661.37 362.290  26
   5  13  -1 1625.30 363.938  44
   5  13  -1 1407.59 277.001  12
   5 -13   0 3499.94 669.416  21
   5  13   0 2458.48 377.797  34
   5 -13   0 3354.82 390.189  50
   5  13   0 3045.33 504.912  44
   5  13   1 2577.06 383.937  34
   5 -13   1 2562.17 325.036  28
   5  13   1 2575.43 372.217  26
   5  13   1 2356.76 389.464  44
   5 -13   2 15498.8 683.848  36
   5  13   2 13649.9 705.030  34
   5 -13   2 13806.2 602.226  28
   5 -13   2 13536.0 607.613  48
   5  13   2 13722.1 648.904  26
   5  13   2 13714.6 749.605  44
   5  15  -5 2746.59 293.490  51
   5  15  -5 3096.67 289.774  45
   5 -15  -5 3074.29 280.729  25
   5 -15  -5 2458.74 222.939  40
   5  15  -4 4874.84 500.925  51
   5 -15  -3 4203.81 400.890  25
   5  15  -3 3731.83 460.818  42
   5 -15  -2 3521.26 640.593  21
   5  15  -2 3477.65 430.868  26
   5  15  -2 3744.10 507.130  42
   5 -15  -1 17949.4 1404.24  21
   5  15  -1 16228.8 980.474  26
   5  15  -1 15729.0 957.382  44
   5  15  -1 15375.2 991.963  42
   5  15   0 1194.04 240.717  34
   5 -15   0 1449.17 241.909  50
   5  15   0 1777.22 332.218  26
   5  15   0 1332.95 302.322  44
   5  15   0 1231.58 302.202  42
   5  15   1 1762.66 270.668  34
   5 -15   1 2225.61 265.867  28
   5  15   1 2003.33 284.043  26
   5  15   1 1608.49 286.535  44
   5  15   1 1377.73 233.649  42
   5  17  -4 3033.91 314.480  51
   5  17  -4 2478.92 233.262  45
   5  17  -3 971.622 231.960  51
   5 -17  -3 993.038 175.212  25
   5  17  -3 1172.73 206.417  42
   5  17  -2 16388.7 860.468  51
   5  17  -2 19153.9 973.790  42
   5 -17  -1 22645.1 911.545  50
   5  17  -1 21083.6 964.364  26
   5  17  -1 20258.1 984.556  42
   5 -17   0 341.685 106.273  50
   5  17   0 611.835 180.745  26
   5  17   0 423.328 140.364  44
   5  17   0 525.128 172.590  42
   5  19  -3 2080.49 219.998  51
   5 -19  -3 2847.86 233.956  50
   5 -19  -2 5005.98 337.084  50
   5  19  -2 4664.10 367.743  42
   5 -19  -1 34.8827 34.9145  50
   5  19  -1 138.838 110.440  42
   6   0  -5 132.697 102.084  16
   6   0  -4 2857.89 567.246   9
   6   0  -3-518.883 313.436   1
   6   0  -2 12562.5 751.935  12
   6   0  -1-405.353 258.334  17
   6   0  -1 89.4823 123.686  13
   6   0   0 7787.37 732.110  13
   6   0   1-111.102 124.401  48
   6   0   2 5756.07 468.146  48
   6   0   2 665.475 283.915  24
   6   2  -7 531.483 105.716  49
   6  -2  -5 820.615 222.495  16
   6  -2  -4 5502.00 744.326   9
   6   2  -4 7099.19 603.041  14
   6   2  -3 2563.01 629.923   1
   6  -2  -3 3856.30 698.994   8
   6  -2  -3 2432.75 570.669   1
   6   2  -2 37731.8 2404.57   1
   6  -2  -2 39477.5 2315.56   8
   6  -2  -2 45565.0 2347.68  17
   6  -2  -2 42666.1 1674.70  13
   6   2  -2 47167.5 1605.26  12
   6  -2  -1 5570.06 882.558  17
   6  -2  -1 5187.24 600.914  13
   6   2  -1 4897.15 502.075  12
   6  -2   0 74523.7 3281.46  17
   6   2   0 71800.8 2398.24  13
   6  -2   0 69533.8 2344.42  13
   6  -2   2 2297.06 314.372  48
   6   2   2-90.8498 254.244  24
   6   2   3 153.072 105.377  24
   6   4  -7 2218.47 216.725  49
   6  -4  -7 1909.55 186.470  27
   6  -4  -5 38270.3 1584.60  16
   6   4  -5 42031.9 1575.76  14
   6   4  -4 23700.3 1724.28  20
   6   4  -4 25449.5 1198.15  14
   6  -4  -3 10294.4 1228.19   8
   6   4  -3 11172.2 720.160  14
   6  -4  -3 11355.8 851.693  10
   6  -4  -2 5359.90 885.137   8
   6  -4  -2 5590.83 571.977  13
   6   4  -2 7121.70 618.038  12
   6  -4  -1 1262.70 447.098  21
   6  -4  -1 2226.24 569.587  17
   6  -4  -1 1325.62 292.719  13
   6   4  -1 981.432 256.272  12
   6  -4   0 746.709 340.763  17
   6   4   0 481.861 197.287  13
   6  -4   0 280.875 159.890  13
   6   4   0 299.642 144.075  12
   6  -4   1 556.190 186.459  36
   6  -4   2 1648.32 250.631  36
   6  -4   2 2533.05 327.102  48
   6   6  -7 3296.58 245.543  49
   6   6  -4-46.7115 233.094  20
   6  -6  -4-17.6465 55.4305  15
   6   6  -4-170.987 113.825  14
   6  -6  -3 14336.7 969.268  10
   6   6  -3 15201.0 872.346  14
   6   6  -2 285.483 161.164  12
   6  -6  -2 255.620 159.688  10
   6  -6  -1 6425.20 902.202  21
   6  -6  -1 6973.16 986.254  17
   6  -6  -1 6044.61 599.952  13
   6   6  -1 6905.30 634.217  12
   6  -6   0 9925.62 1152.63  17
   6   6   0 10552.5 790.739  12
   6  -6   1 2759.20 375.605  36
   6   6   1-54.7121 272.215  24
   6  -6   2 1721.18 242.828  36
   6   6   2 1830.95 292.741  34
   6  -6   2 2074.37 284.164  48
   6   6   2 1793.87 304.084  44
   6  -8  -4 357.985 186.573  15
   6   8  -4 206.584 117.733  14
   6  -8  -3 1182.83 290.722  10
   6   8  -3 1754.28 303.511  14
   6  -8  -2 20051.4 1224.29  10
   6  -8  -2 19595.6 1616.64  21
   6   8  -2 20188.1 1076.09  12
   6  -8  -1 164.289 218.547  21
   6  -8  -1 73.6254 72.5123  10
   6  -8  -1 475.049 315.470  17
   6   8  -1 160.209 147.264  12
   6  -8   0 3694.46 701.766  17
   6  -8   1 3019.17 383.778  36
   6   8   1 2710.48 403.347  34
   6  -8   2 900.208 170.738  36
   6   8   2 906.123 200.289  34
   6  -8   2 981.349 177.553  48
   6   8   2 774.153 198.393  44
   6 -10  -6 2795.29 232.033  33
   6  10  -6 2779.35 276.585  45
   6  10  -5 2640.75 352.311  51
   6  10  -4 11099.6 1157.22  20
   6  10  -3 36361.6 2174.77  20
   6  10  -3 39790.3 1504.50  12
   6 -10  -2 6860.34 935.906  21
   6 -10  -2 6002.45 655.626  10
   6  10  -2 6486.92 592.472  12
   6 -10  -1 5632.65 870.540  21
   6 -10  -1 7212.14 990.991  17
   6  10   0 942.088 249.046  34
   6 -10   1 9591.53 613.281  36
   6  10   1 7910.91 610.224  34
   6  10   1 7724.59 652.978  44
   6  10   2 1315.45 193.469  34
   6 -10   2 1604.55 191.554  48
   6  12  -5 14517.2 744.183  51
   6  12  -3 8411.68 713.961  42
   6 -12  -2 14207.6 1296.17  21
   6  12  -2 12726.8 1188.62  20
   6  12  -2 12587.6 829.334  26
   6  12  -1 16396.8 986.749  26
   6  12  -1 15051.6 989.062  44
   6 -12  -1 16902.2 1388.88  21
   6  12   0 897.900 214.322  34
   6 -12   0 1005.45 190.621  28
   6  12   0 1280.05 283.555  44
   6 -12   1 7541.14 471.054  36
   6  12   1 6284.96 458.250  34
   6  12   1 6677.86 474.163  26
   6  12   1 6210.92 506.185  44
   6  14  -5 2475.24 247.024  51
   6 -14  -5 3359.91 255.602  25
   6  14  -4 4485.18 449.950  51
   6 -14  -4 4485.31 337.535  25
   6  14  -3 1378.59 258.494  42
   6  14  -2 1351.15 264.926  26
   6  14  -2 1098.26 265.084  42
   6 -14  -1 2706.97 283.179  50
   6  14  -1 3258.14 399.140  26
   6  14  -1 2236.87 325.859  44
   6  14  -1 2773.05 383.711  42
   6 -14   0 990.562 160.653  28
   6  14   0 1981.68 287.598  26
   6  14   0 1715.58 277.948  44
   6  14   0 1565.89 262.730  42
   6  16  -4 1623.26 211.139  51
   6  16  -3 3703.48 367.809  51
   6  16  -3 3199.96 304.464  42
   6 -16  -2 3625.12 313.580  50
   6  16  -2 3273.02 360.203  42
   6 -16  -1 9368.31 424.962  28
   6  16  -1 10549.7 567.740  26
   6  16  -1 10711.8 606.976  42
   7   1  -2 478.876 199.323  13
   7  -1  -2 264.928 132.689  13
   7   1   1 31.3719 229.373  24
   7  -3   1 20759.3 768.818  48
   7   3   1 126.418 300.420  24
   7  -5  -2 2640.96 567.714  17
   7   5   0 335.099 258.492  24
   7   5   1 3671.99 366.664  34
   7  -5   1 3961.63 341.357  48
   7   7  -3 3477.40 665.419  20
   7   7   0 4963.78 471.371  34
   7   7   1 918.280 175.617  34
   7  -7   1 920.596 157.579  48
   7   7   1 843.487 201.034  44
   7   9  -1 1319.93 295.746  44
   7  -9   0 1816.28 227.699  36
   7   9   0 1584.05 224.731  34
   7   9   0 2013.73 324.669  44
   7  11  -3 12623.7 766.640  42
   7  11  -1 1957.19 290.001  26
   7  11  -1 1200.15 230.813  44
   7  11   0 3278.92 312.179  26
   7  11   0 2900.78 314.313  44
   7  13  -4 2493.94 284.916  51
   7  13  -3 1157.52 195.777  42
   7  13  -2 1409.87 243.197  42
   7  13  -1 378.728 143.552  42
   8   0   0 190.492 168.036  24
   0   0   0    0.00    0.00   0
TITL kw_liinich2ob in Cc
REM Cc (#9 in standard setting)
CELL 1.54184   7.156298  18.882631   6.222683  90.0000 115.4628  90.0000
ZERR    2.00   0.000783   0.001214   0.000607   0.0000   0.0129   0.0000
LATT -7
SYMM  x,-y, z+1/2
SFAC C H Li N O
UNIT 20.00 20.00 4.00 4.00 8.00
TREF
HKLF 4
END
;
_shelx_hkl_checksum              77863
#END Tags that were not found in dictionaries
loop_
_space_group_symop_operation_xyz
'x, y, z'
'x, -y, z+1/2'
'x+1/2, y+1/2, z'
'x+1/2, -y+1/2, z+1/2'
loop_
_atom_site_label
_atom_site_type_symbol
_atom_site_fract_x
_atom_site_fract_y
_atom_site_fract_z
_atom_site_U_iso_or_equiv
_atom_site_adp_type
_atom_site_occupancy
_atom_site_site_symmetry_order
_atom_site_calc_flag
_atom_site_refinement_flags_posn
_atom_site_refinement_flags_adp
H5 H 0.674(8) 0.932(3) 0.520(9) 0.040(12) Uiso 1 1 d . .
H8 H 0.580(9) 0.557(3) 0.642(10) 0.046(14) Uiso 1 1 d . .
H6 H 0.761(11) 0.999(3) 0.585(11) 0.061(16) Uiso 1 1 d . .
H7 H 0.567(12) 0.555(4) 0.887(15) 0.08(2) Uiso 1 1 d . .
O2 O 0.3279(4) 0.90627(11) 0.7114(4) 0.0281(5) Uani 1 1 d . .
N1 N 0.2235(4) 0.66662(13) 0.9860(4) 0.0235(6) Uani 1 1 d . .
O1 O 0.2910(4) 0.93150(11) 1.0422(4) 0.0254(5) Uani 1 1 d . .
O3 O 0.6474(3) 0.97457(11) 0.5260(4) 0.0230(5) Uani 1 1 d . .
C4 C 0.2671(5) 0.76193(16) 0.7560(5) 0.0223(6) Uani 1 1 d . .
H4 H 0.2853 0.7766 0.6202 0.027 Uiso 1 1 calc R U
C5 C 0.2572(5) 0.81159(16) 0.9155(5) 0.0210(6) Uani 1 1 d . .
C3 C 0.2256(5) 0.78754(15) 1.1077(5) 0.0242(7) Uani 1 1 d . .
H3 H 0.2149 0.8201 1.2184 0.029 Uiso 1 1 calc R U
C6 C 0.2936(5) 0.88956(15) 0.8858(5) 0.0212(6) Uani 1 1 d . .
C2 C 0.2500(5) 0.69058(16) 0.7979(6) 0.0251(7) Uani 1 1 d . .
H2 H 0.2574 0.6570 0.6880 0.030 Uiso 1 1 calc R U
C1 C 0.2099(5) 0.71506(16) 1.1362(5) 0.0244(6) Uani 1 1 d . .
H1 H 0.1886 0.6991 1.2687 0.029 Uiso 1 1 calc R U
Li1 Li 0.4723(9) 0.9906(3) 0.6968(10) 0.0240(10) Uani 1 1 d . .
O4 O 0.4956(4) 0.55496(13) 0.7184(5) 0.0306(6) Uani 1 1 d . .
loop_
_atom_site_aniso_label
_atom_site_aniso_U_11
_atom_site_aniso_U_22
_atom_site_aniso_U_33
_atom_site_aniso_U_23
_atom_site_aniso_U_13
_atom_site_aniso_U_12
O2 0.0374(13) 0.0226(10) 0.0323(11) 0.0001(9) 0.0225(10) -0.0059(10)
N1 0.0243(13) 0.0192(12) 0.0288(13) 0.0007(9) 0.0131(10) -0.0001(10)
O1 0.0287(11) 0.0212(10) 0.0312(11) -0.0034(8) 0.0174(9) -0.0035(9)
O3 0.0257(13) 0.0180(10) 0.0295(11) -0.0002(8) 0.0158(9) 0.0006(8)
C4 0.0264(16) 0.0216(15) 0.0223(13) 0.0002(10) 0.0138(12) -0.0006(11)
C5 0.0224(14) 0.0197(13) 0.0236(13) 0.0000(10) 0.0125(11) -0.0018(10)
C3 0.0303(17) 0.0194(13) 0.0279(15) 0.0004(11) 0.0172(13) -0.0007(12)
C6 0.0212(15) 0.0197(13) 0.0251(13) 0.0005(11) 0.0121(12) -0.0012(11)
C2 0.0283(17) 0.0216(14) 0.0280(14) -0.0032(12) 0.0147(13) -0.0025(12)
C1 0.0270(16) 0.0225(13) 0.0274(14) 0.0022(11) 0.0153(12) -0.0009(12)
Li1 0.028(3) 0.019(2) 0.029(2) -0.0004(19) 0.016(2) 0.0005(19)
O4 0.0260(12) 0.0339(13) 0.0352(12) -0.0004(10) 0.0164(10) -0.0016(9)
loop_
_atom_type_symbol
_atom_type_description
_atom_type_scat_dispersion_real
_atom_type_scat_dispersion_imag
_atom_type_scat_source
C C 0.0181 0.0091 'International Tables Vol C Tables 4.2.6.8 and 6.1.1.4'
H H 0.0000 0.0000 'International Tables Vol C Tables 4.2.6.8 and 6.1.1.4'
Li Li 0.0008 0.0003 'International Tables Vol C Tables 4.2.6.8 and 6.1.1.4'
N N 0.0311 0.0180 'International Tables Vol C Tables 4.2.6.8 and 6.1.1.4'
O O 0.0492 0.0322 'International Tables Vol C Tables 4.2.6.8 and 6.1.1.4'
loop_
_geom_angle_atom_site_label_1
_geom_angle_atom_site_label_2
_geom_angle_atom_site_label_3
_geom_angle
_geom_angle_site_symmetry_1
_geom_angle_site_symmetry_3
C6 O2 Li1 124.0(3) . .
C1 N1 C2 117.2(3) . .
C6 O1 Li1 129.5(3) . 2_575
Li1 O3 Li1 103.7(2) . 2_574
C2 C4 C5 119.1(3) . .
C3 C5 C4 118.2(3) . .
C3 C5 C6 121.5(3) . .
C4 C5 C6 120.2(3) . .
C5 C3 C1 119.0(3) . .
O2 C6 O1 125.8(3) . .
O2 C6 C5 117.2(3) . .
O1 C6 C5 117.0(3) . .
N1 C2 C4 123.2(3) . .
N1 C1 C3 123.3(3) . .
O2 Li1 O1 113.4(3) . 2_574
O2 Li1 O3 112.0(2) . .
O1 Li1 O3 107.1(3) 2_574 .
O2 Li1 O3 109.7(3) . 2_575
O1 Li1 O3 104.6(2) 2_574 2_575
O3 Li1 O3 109.7(3) . 2_575
O2 Li1 Li1 79.5(2) . 2_575
O1 Li1 Li1 97.0(2) 2_574 2_575
O3 Li1 Li1 145.01(17) . 2_575
O3 Li1 Li1 38.02(16) 2_575 2_575
O2 Li1 Li1 111.7(2) . 2_574
O1 Li1 Li1 72.8(2) 2_574 2_574
O3 Li1 Li1 38.31(16) . 2_574
O3 Li1 Li1 135.5(2) 2_575 2_574
Li1 Li1 Li1 167.0(4) 2_575 2_574
loop_
_geom_bond_atom_site_label_1
_geom_bond_atom_site_label_2
_geom_bond_distance
_geom_bond_site_symmetry_2
O2 C6 1.252(4) .
O2 Li1 1.922(6) .
N1 C1 1.341(4) .
N1 C2 1.343(4) .
O1 C6 1.261(4) .
O1 Li1 1.923(6) 2_575
O3 Li1 1.985(6) .
O3 Li1 1.998(6) 2_574
C4 C2 1.388(4) .
C4 C5 1.389(4) .
C5 C3 1.386(4) .
C5 C6 1.520(4) .
C3 C1 1.391(4) .
Li1 O1 1.923(6) 2_574
Li1 O3 1.998(6) 2_575
Li1 Li1 3.1314(12) 2_575
Li1 Li1 3.1314(12) 2_574
