#------------------------------------------------------------------------------
#$Date: 2016-03-23 22:36:42 +0200 (Wed, 23 Mar 2016) $
#$Revision: 179486 $
#$URL: svn://www.crystallography.net/cod/cif/4/33/83/4338387.cif $
#------------------------------------------------------------------------------
#
# This file is available in the Crystallography Open Database (COD),
# http://www.crystallography.net/
#
# All data on this site have been placed in the public domain by the
# contributors.
#
data_4338387
loop_
_publ_author_name
'Abrahams, Brendan F.'
'Dharma, A. David'
'Grannas, Martin J.'
'Hudson, Timothy A.'
'Maynard-Casely, Helen E'
'Oliver, Graham R.'
'Robson, Richard'
'White, Keith F.'
_publ_section_title
;
 Isomeric Ionic Lithium Isonicotinate Three-Dimensional Networks and
 Single-Crystal-to-Single-Crystal Rearrangements Generating Microporous
 Materials.
;
_journal_issue                   10
_journal_name_full               'Inorganic chemistry'
_journal_page_first              4956
_journal_page_last               4969
_journal_paper_doi               10.1021/ic403134c
_journal_volume                  53
_journal_year                    2014
_chemical_formula_sum            'C25 H16 Li4 N4 O8 S2'
_chemical_formula_weight         592.30
_chemical_name_systematic
;
 ?
;
_space_group_crystal_system      monoclinic
_space_group_IT_number           14
_space_group_name_Hall           '-P 2ybc'
_space_group_name_H-M_alt        'P 1 21/c 1'
_symmetry_space_group_name_Hall  '-P 2ybc'
_symmetry_space_group_name_H-M   'P 1 21/c 1'
_atom_sites_solution_hydrogens   geom
_audit_creation_method           SHELXL-2014
_cell_angle_alpha                90
_cell_angle_beta                 96.14(4)
_cell_angle_gamma                90
_cell_formula_units_Z            1
_cell_length_a                   5.2038(14)
_cell_length_b                   14.516(7)
_cell_length_c                   10.295(5)
_cell_measurement_reflns_used    4.32
_cell_measurement_temperature    130(2)
_cell_measurement_theta_max      76.00
_cell_volume                     773.2(6)
_computing_cell_refinement
;
CrysAlisPro, Agilent Technologies,
Version 1.171.36.20 (release 27-06-2012 CrysAlis171 .NET)
(compiled Jul 11 2012,15:38:31)
;
_computing_data_collection
;
CrysAlisPro, Agilent Technologies,
Version 1.171.36.20 (release 27-06-2012 CrysAlis171 .NET)
(compiled Jul 11 2012,15:38:31)
;
_computing_data_reduction
;
CrysAlisPro, Agilent Technologies,
Version 1.171.36.20 (release 27-06-2012 CrysAlis171 .NET)
(compiled Jul 11 2012,15:38:31)
;
_computing_structure_refinement  'SHELXL-2014 (Sheldrick, 2014)'
_computing_structure_solution    'SHELXS-2009 (Sheldrick, 2009)'
_diffrn_ambient_temperature      130(2)
_diffrn_measured_fraction_theta_full 0.970
_diffrn_measured_fraction_theta_max 0.969
_diffrn_measurement_device_type  'SuperNova, Dual, Cu at zero, Atlas'
_diffrn_measurement_method       '\w scans'
_diffrn_radiation_type           CuK\a
_diffrn_radiation_wavelength     1.541
_diffrn_reflns_av_R_equivalents  0.1004
_diffrn_reflns_av_unetI/netI     0.1001
_diffrn_reflns_Laue_measured_fraction_full 0.970
_diffrn_reflns_Laue_measured_fraction_max 0.969
_diffrn_reflns_limit_h_max       4
_diffrn_reflns_limit_h_min       -6
_diffrn_reflns_limit_k_max       17
_diffrn_reflns_limit_k_min       -16
_diffrn_reflns_limit_l_max       11
_diffrn_reflns_limit_l_min       -12
_diffrn_reflns_number            2366
_diffrn_reflns_point_group_measured_fraction_full 0.970
_diffrn_reflns_point_group_measured_fraction_max 0.969
_diffrn_reflns_theta_full        67.608
_diffrn_reflns_theta_max         67.989
_diffrn_reflns_theta_min         5.285
_diffrn_source                   'SuperNova (Cu) X-ray Source'
_exptl_absorpt_coefficient_mu    1.984
_exptl_absorpt_correction_T_max  0.785
_exptl_absorpt_correction_T_min  0.465
_exptl_absorpt_correction_type   analytical
_exptl_absorpt_process_details
;
CrysAlisPro, Agilent Technologies,
Version 1.171.36.20 (release 27-06-2012 CrysAlis171 .NET)
(compiled Jul 11 2012,15:38:31)
Analytical numeric absorption correction using a multifaceted crystal
            model based on expressions derived by R.C. Clark & J.S. Reid.
(Clark, R. C. & Reid, J. S. (1995). Acta Cryst. A51, 887-897)
;
_exptl_crystal_colour            colourless
_exptl_crystal_density_diffrn    1.272
_exptl_crystal_description       needle
_exptl_crystal_F_000             302
_exptl_crystal_size_max          0.7253
_exptl_crystal_size_mid          0.2144
_exptl_crystal_size_min          0.1340
_refine_diff_density_max         1.391
_refine_diff_density_min         -0.605
_refine_diff_density_rms         0.203
_refine_ls_extinction_method     none
_refine_ls_goodness_of_fit_ref   1.743
_refine_ls_hydrogen_treatment    constr
_refine_ls_matrix_type           full
_refine_ls_number_parameters     101
_refine_ls_number_reflns         1373
_refine_ls_number_restraints     0
_refine_ls_restrained_S_all      1.743
_refine_ls_R_factor_all          0.3314
_refine_ls_R_factor_gt           0.2788
_refine_ls_shift/su_max          0.001
_refine_ls_shift/su_mean         0.000
_refine_ls_structure_factor_coef Fsqd
_refine_ls_weighting_details
'w=1/[\s^2^(Fo^2^)+(0.2000P)^2^] where P=(Fo^2^+2Fc^2^)/3'
_refine_ls_weighting_scheme      calc
_refine_ls_wR_factor_gt          0.5817
_refine_ls_wR_factor_ref         0.6205
_reflns_Friedel_coverage         0.000
_reflns_number_gt                615
_reflns_number_total             1373
_reflns_threshold_expression     'I > 2\s(I)'
_cod_data_source_file            ic403134c_si_002.cif
_cod_data_source_block           Li_inic_CS2
_cod_depositor_comments
'Adding full bibliography for 4338378--4338389.cif.'
_cod_original_cell_volume        773.3(6)
_cod_database_code               4338387
#BEGIN Tags that were not found in dictionaries:
_shelx_space_group_comment
;
The symmetry employed for this shelxl refinement is uniquely defined
by the following loop, which should always be used as a source of
symmetry information in preference to the above space-group names.
They are only intended as comments.
;
_shelxl_version_number           2014-1
_shelx_res_file
;
TITL ddLiInicDMFtoCS2
CELL  1.54100   5.2038  14.5165  10.2954   90.000   96.143   90.000
ZERR     1.00   0.0014   0.0073   0.0047    0.000    0.038    0.000
LATT   1
SYMM  - X, 1/2 + Y, 1/2 - Z
SFAC  C    H    LI   N    O    S
UNIT  25   16   4    4    8    2
MERG   2
OMIT     0.00 136.00
FMAP   2
PLAN   20
ACTA
BOND
L.S.  14
TEMP  -143.00
WGHT    0.200000
FVAR      11.95161
MOLE    1
S1    6    0.186278    0.979046    0.897070    10.50000    0.12785    0.07462 =
         0.09609    0.02281   -0.02406   -0.02204
C1S   1    0.000000    1.000000    1.000000    10.25000    0.09107
MOLE    2
O2    5    0.386707    1.046311    0.594148    11.00000    0.12284    0.07530 =
         0.12859   -0.01055   -0.00988    0.00035
O1    5    0.003917    1.115316    0.583941    11.00000    0.10186    0.07976 =
         0.14101   -0.00942   -0.01016    0.00844
N1    4    0.563523    1.327988    0.870850    11.00000    0.12763    0.07957 =
         0.12786   -0.00269   -0.01403   -0.00353
C1    1    0.679051    1.247622    0.869548    11.00000    0.14009    0.07409 =
         0.11009    0.00115   -0.00267    0.00061
AFIX  43
H1    2    0.833653    1.237675    0.925673    11.00000   -1.20000
AFIX   0
C3    1    0.340686    1.188045    0.708594    11.00000    0.14704    0.07563 =
         0.10156    0.00845    0.00005   -0.00693
C6    1    0.225371    1.111319    0.624423    11.00000    0.13046    0.07214 =
         0.12998    0.00379    0.01824   -0.00671
C4    1    0.230663    1.270105    0.710100    11.00000    0.11836    0.07540 =
         0.14311   -0.00340   -0.01477   -0.01553
AFIX  43
H4    2    0.079897    1.281442    0.651762    11.00000   -1.20000
AFIX   0
C2    1    0.579170    1.175640    0.786798    11.00000    0.13037    0.06884 =
         0.11697   -0.00411    0.00036   -0.00386
AFIX  43
H2    2    0.671189    1.119308    0.783582    11.00000   -1.20000
AFIX   0
C5    1    0.327212    1.341490    0.794440    11.00000    0.13281    0.08896 =
         0.13130   -0.01201   -0.01850    0.01316
AFIX  43
H5    2    0.234174    1.397467    0.799351    11.00000   -1.20000
AFIX   0
LI1   3    0.684890    1.434316    0.997926    11.00000    0.14832    0.08264 =
         0.07866    0.01418   -0.00118    0.00239
HKLF    4

REM  ddLiInicDMFtoCS2
REM R1 =  0.2788 for     615 Fo > 4sig(Fo)  and  0.3314 for all    1373 data
REM    101 parameters refined using      0 restraints

END

WGHT      0.2000      0.0000

REM Highest difference peak  1.391,  deepest hole -0.605,  1-sigma level  0.203
Q1    1   0.6075  0.9781  0.8979  11.00000  0.05    0.73
Q2    1  -0.2378  0.9740  0.9036  11.00000  0.05    0.71
Q3    1   1.0064  1.1773  0.7827  11.00000  0.05    0.61
Q4    1   0.6378  1.3837  1.0980  11.00000  0.05    0.55
Q5    1   0.0263  1.3355  0.8804  11.00000  0.05    0.49
Q6    1  -0.1844  0.9125  0.9587  11.00000  0.05    0.45
Q7    1   0.2197  1.3742  0.5176  11.00000  0.05    0.44
Q8    1   0.9596  1.1180  0.9070  11.00000  0.05    0.42
Q9    1   0.1951  1.2515  0.8739  11.00000  0.05    0.38
Q10   1  -0.0410  1.1069  0.6049  11.00000  0.05    0.26
Q11   1  -0.1396  1.2695  0.7375  11.00000  0.05    0.26
Q12   1  -0.0436  1.0648  0.6111  11.00000  0.05    0.24
Q13   1  -0.0159  1.4027  0.7098  11.00000  0.05    0.23
Q14   1   0.0813  0.8766  0.8685  11.00000  0.05    0.22
Q15   1   0.9566  1.5066  1.0524  11.00000  0.05    0.20
Q16   1   0.5517  1.2145  1.0096  11.00000  0.05    0.19
Q17   1   0.6394  1.2573  1.0332  11.00000  0.05    0.15
Q18   1   0.2912  1.2196  0.6376  11.00000  0.05    0.14
Q19   1   0.6772  1.4105  0.9063  11.00000  0.05    0.14
Q20   1   0.3329  1.1165  0.5983  11.00000  0.05    0.12
;
_shelx_res_checksum              56581
_shelx_hkl_file
;
   0   0  -1 770.592 533.569   1
   0   0  -2 33792.3 2264.83   1
   0   0   4 400786. 7731.52   5
   0   0   6 84944.6 4457.50   5
   0   0  -7-991.521 858.297   4
   0   0   7-732.535 611.085   5
   0   0  -8 10187.6 1579.10  10
   0   0  -9 220.859 221.437  10
   0   0 -10 18714.1 2318.37  10
   0   0 -11 206.957 226.815  10
   0   0 -12 689.599 347.000  10
   0  -1  -1 43579.1 1975.42   1
   0  -1  -2 313.870 563.641   1
   0  -1  -3 4155.21 916.297   1
   0  -1   3 6901.27 488.734   5
   0  -1   4 30185.1 1966.71   5
   0  -1  -4 30954.6 3544.45   1
   0   1  -5 144.331 577.864   4
   0   1   5-874.361 765.263   5
   0  -1   6 7798.27 1603.12   5
   0   1  -6 12366.9 2745.97   4
   0   1   6 11261.2 2581.37   5
   0   1   7-125.475 335.881   5
   0   1  -7 239.892 275.579   4
   0   1  -8 5280.55 1157.41  10
   0  -1  -8 5124.56 1141.18  10
   0  -1  -9 286.897 313.603  10
   0  -1  -9 620.558 556.152   4
   0   1  -9 423.845 313.837  10
   0  -1 -10 2238.06 989.856  10
   0   1 -10 1706.04 833.929  10
   0  -1 -11 388.607 321.893  10
   0   1 -11-20.2697 54.0982  10
   0   1 -12 491.735 282.621  10
   0  -1 -12 0.78409 50.3387  12
   0  -2   0 7424.57 585.253   2
   0  -2  -1 61205.5 2929.78   1
   0  -2  -2 999999. 15433.1   1
   0  -2  -3 42830.4 3642.59   1
   0   2  -3 42566.4 2253.30   4
   0  -2  -4 77784.6 5030.90   1
   0   2  -4 80039.7 3721.12   4
   0   2  -5 23974.0 2369.99   4
   0  -2  -5 19829.8 3214.73   1
   0   2  -6 36707.8 3241.63   4
   0   2   6 37034.9 3042.15   5
   0   2   7 4228.67 1079.62   5
   0   2  -8 1851.35 661.710  10
   0  -2  -8 2197.22 721.556  10
   0  -2  -9 3096.30 1159.03   4
   0  -2  -9 1294.29 629.254  10
   0   2  -9 2042.16 721.339  10
   0   2 -10 2046.32 738.274  10
   0  -2 -10 1904.71 1053.94   4
   0  -2 -10 1897.09 731.554  10
   0  -2 -11 13.2468 83.8830  10
   0   2 -11 217.662 208.798  10
   0   2 -12 1466.75 475.165  10
   0  -3   0-92.8537 315.344   2
   0  -3   1 547761. 8859.49   2
   0  -3  -1 547094. 10549.3   1
   0  -3  -2 676420. 12846.6   1
   0  -3  -3 120774. 7596.98   1
   0  -3  -4 172449. 8005.32   1
   0  -3  -5 49767.7 4977.44   1
   0  -3  -6 88625.0 7656.99   1
   0   3   7-1218.50 811.785   5
   0   3  -8 1551.81 634.725  10
   0  -3  -8 1793.09 669.475  10
   0   3   8 1566.55 702.219   5
   0  -3  -9 3186.59 972.799  10
   0  -3  -9 4455.31 1515.21   4
   0   3  -9 3242.83 957.589  10
   0   3 -10 78.4612 138.313  10
   0  -3 -10 605.285 410.529  10
   0   3 -11 57.9925 96.6507  10
   0   3 -12 397.597 238.953  10
   0  -4   0 71926.9 3443.75   2
   0  -4   1-218.527 1633.05   2
   0  -4  -2 13324.0 720.704   1
   0  -4  -3 139846. 8078.52   1
   0  -4  -4 11811.8 2321.45   1
   0  -4  -5 5302.82 1707.75   1
   0  -4  -6-989.399 1349.03   1
   0   4   8 3332.67 1157.78   5
   0  -4  -8 1895.98 644.893  13
   0  -4  -8 1628.46 677.743  10
   0  -4  -9-289.565 260.206  13
   0   4  -9 44.9897 87.6109  10
   0  -4  -9 326.300 371.654  10
   0   4 -10 103.906 141.163  10
   0   4 -11 99.1850 141.155  10
   0   4 -12-206.185 164.988  10
   0  -5   0-807.783 1036.40   2
   0  -5   1 268440. 6885.85   2
   0  -5  -2 201344. 8610.97   1
   0  -5   2 196942. 7276.47   2
   0  -5  -4 2047.93 1089.42   1
   0  -5  -5 44043.2 4968.81   1
   0  -5  -6 71.1080 297.477   1
   0  -5  -7 328.161 285.189  10
   0  -5  -7 1063.89 500.467  13
   0  -5  -7 496.583 256.354   1
   0  -5  -8 9721.25 1562.66  13
   0   5   8 7746.55 1735.12   5
   0  -5  -8 8056.49 1545.41  10
   0   5  -9 2905.76 872.065  10
   0  -5  -9 2813.83 794.554  13
   0   5 -10 776.418 438.126  10
   0  -5 -10 544.097 361.512  13
   0   5 -11 198.660 212.362  10
   0   5 -12 230.205 159.286  10
   0   5 -12 195.614 139.113  12
   0  -6   0 115181. 5760.69   2
   0  -6   1 16188.3 1641.00   2
   0  -6  -2 23695.7 2959.80   1
   0  -6   2 19622.8 2176.36   2
   0  -6  -3 88371.0 6730.46   1
   0  -6   3 81790.0 5512.86   2
   0  -6  -4-468.127 1122.80   1
   0  -6   4-365.918 762.642   2
   0  -6  -5 3835.58 1602.99   1
   0  -6  -6 896.422 566.992   1
   0  -6  -7 4698.70 1047.81  13
   0  -6  -7 3282.28 1652.64   1
   0   6   8 407.507 422.529   5
   0  -6  -8 606.595 371.653  13
   0   6  -9 412.960 343.819  10
   0  -6  -9 171.434 114.605  13
   0  -6 -10 679.202 338.456  13
   0   6 -10 1057.11 514.435  10
   0   6 -11-117.841 183.046  10
   0   6 -12 98.9762 135.838  12
   0   6 -12 8.84949 62.1020  10
   0  -7  -1 26250.3 3444.25   1
   0  -7   1 23441.2 2432.13   2
   0  -7  -2 1517.35 535.761   1
   0  -7   2 1858.03 753.488   2
   0  -7   3 17993.5 2406.19   2
   0  -7  -3 20244.5 3214.28   1
   0  -7  -4 16575.7 3559.56   1
   0  -7   4 12749.7 2384.12   2
   0  -7  -5 10000.7 3015.15   1
   0  -7   5 8064.21 2046.42   2
   0  -7  -6 6695.28 1235.39  13
   0  -7   6 6481.37 2015.16   2
   0  -7  -6 4902.32 1778.41   1
   0  -7  -7-21.9875 224.283  13
   0  -7  -8-25.9185 210.354  13
   0   7   8 0.10859 624.297   5
   0  -7  -9 1607.07 645.542  13
   0   7  -9 717.812 460.865  10
   0  -7 -10 97.9837 147.316  13
   0   7 -10-66.6187 94.1739  10
   0   7 -11 490.801 255.884  10
   0  -8   1 29329.5 3723.92   2
   0  -8  -1 21724.3 3452.47   1
   0  -8   2 20818.0 2616.06   2
   0  -8  -2 24987.6 3851.30   1
   0  -8   3 55515.6 4306.51   2
   0  -8  -3 71586.5 6790.16   1
   0  -8   4 23745.1 3055.66   2
   0  -8  -4 31905.9 4932.96   1
   0  -8  -5 12649.4 3503.85   1
   0  -8  -6 5206.23 1145.76  13
   0  -8  -6 3200.47 1550.94   1
   0  -8  -7 7107.55 1397.61  13
   0  -8  -8 551.819 359.257  13
   0  -8  -9 810.828 463.411  13
   0   8  -9 719.195 391.989  10
   0  -8 -10 138.741 44.6826  13
   0   8 -10-41.7519 135.711  10
   0   8 -11 398.207 219.717  10
   0   8 -11 72.4083 116.211  12
   0  -9  -1 26713.0 4247.82   1
   0  -9  -2 22431.8 3864.53   1
   0  -9  -3 2703.08 1517.05   1
   0  -9  -4 20108.5 4232.39   1
   0  -9  -5 2043.87 1318.08   1
   0  -9  -5 2474.08 758.839  13
   0  -9  -6 5910.76 1283.86  13
   0  -9  -7-109.449 177.851  13
   0  -9  -8 3449.80 993.935  13
   0   9  -9 703.318 412.497  10
   0  -9  -9 1466.96 538.058  13
   0   9 -10 38.5173 114.234  12
   0   9 -10-91.0565 112.178  10
   0  -9 -10 179.176 121.168  13
   0   9 -11 93.0042 99.5412  10
   0 -10  -1 5321.68 2141.42   1
   0 -10  -2 918.045 642.137   1
   0 -10  -3 10827.7 2756.85   1
   0 -10  -4 1476.12 577.511  13
   0  10  -4 585.904 405.137   8
   0 -10  -4 910.334 828.181   1
   0 -10  -5 1780.90 667.090  13
   0 -10  -6 937.577 492.225  13
   0 -10  -7-170.025 255.562  13
   0 -10  -8 896.235 516.125  13
   0  10  -9 72.9323 145.539  10
   0 -10  -9 565.802 351.343  13
   0  10 -10 58.5917 95.3464  10
   0 -10 -10 66.6503 87.1079  13
   0 -11   0-558.396 984.388   1
   0  11  -1 1409.21 600.178   8
   0 -11  -1 1454.36 1094.58   1
   0  11   1-289.539 609.303   8
   0 -11  -2 89383.8 4505.57  13
   0  11  -2 88760.2 5063.24   8
   0 -11  -2 97171.9 8798.05   1
   0  11  -3 6052.31 1299.79   8
   0 -11  -3 5874.20 2444.54   1
   0 -11  -3 6584.19 1243.10  13
   0  11  -4 1616.92 754.679   8
   0 -11  -4 1253.06 595.413  13
   0 -11  -5 3258.94 951.892  13
   0 -11  -6 7261.06 1455.30  13
   0 -11  -7 918.971 462.838  13
   0 -11  -8 5501.17 1147.58  13
   0 -11  -9-78.4690 129.835  13
   0  11  -9 73.6243 102.233  10
   0  11 -10 324.840 169.042  10
   0 -11 -10 116.271 151.777  13
   0 -12   0 80.1643 892.836   1
   0  12   0 2414.40 880.331   8
   0  12   1 5614.61 1295.37   8
   0  12  -1 5705.07 1329.10   8
   0  12  -2 3248.58 989.446   8
   0 -12  -2 2600.38 809.878  13
   0  12   2 3396.05 993.339   8
   0 -12  -3 17251.8 2127.31  13
   0  12  -3 14644.1 2121.42   8
   0  12  -4 2064.15 809.947   8
   0 -12  -4 2653.00 877.546  13
   0 -12  -5 1981.67 746.994  13
   0 -12  -6 5574.71 1242.88  13
   0 -12  -7 1967.42 743.815  13
   0 -12  -8 432.841 274.447  13
   0  12  -9 197.972 155.079  10
   0 -12  -9 214.462 173.691  13
   0  13   0 559.241 479.764   8
   0  13   1 7230.10 1456.89   8
   0  13  -1 7372.65 1531.75   8
   0 -13  -2 926.516 480.749  13
   0  13   2 1596.90 712.532   8
   0  13  -2 968.359 500.345   8
   0 -13  -3 1052.37 480.773  13
   0  13  -3 629.771 377.405   8
   0  13   3 593.043 342.607   8
   0  13   4 2787.16 876.880   8
   0 -13  -4 2667.90 858.718  13
   0 -13  -5 3514.39 940.038  13
   0 -13  -6 246.528 174.272  13
   0 -13  -7 3139.54 804.404  13
   0  13   7 3537.66 796.708   8
   0  13   8 235.136 193.463   8
   0 -13  -8 184.523 158.778  13
   0 -13  -9 61.3377 148.083  13
   0  13  -9 217.615 119.176  10
   0  14   0 24557.1 2852.25   8
   0  14   1 20075.1 2507.79   8
   0  14  -1 19055.0 2491.45   8
   0  14  -2 1163.57 513.761   8
   0  14   2 908.576 505.428   8
   0 -14  -2 708.802 380.888  13
   0  14   3 3617.52 972.694   8
   0 -14  -3 3319.72 919.452  13
   0  14  -3 3430.77 979.737   8
   0 -14  -4 16787.3 2070.65  13
   0  14   4 14672.9 1910.27   8
   0  14   5 310.365 159.642   8
   0 -14  -5 357.367 381.015  13
   0  14   6 2689.03 715.859   8
   0 -14  -6 2442.84 689.310  13
   0 -14  -7 1727.06 546.588  13
   0  14   7 2275.25 524.967   8
   0 -14  -8 402.227 237.534  13
   0  14  -8 623.007 234.827  10
   0  15   0-395.366 353.938   8
   0  15  -1-300.699 327.952   8
   0  15   1 258.670 252.003   8
   0  15   2 334.143 300.668   8
   0  15  -2 204.442 255.803   8
   0  15   3 61.0395 159.044   8
   0 -15  -3 87.9470 92.4472  13
   0 -15  -4 486.166 335.942  13
   0  15   4 120.014 74.8662   8
   0 -15  -5 2031.74 605.529  13
   0  15   5 2138.77 606.893   8
   0  15   6 634.450 311.118   8
   0 -15  -6 239.883 234.134  13
   0 -15  -7 148.058 123.290  13
   0  16   0 624.275 450.850   8
   0  16   1 1764.57 633.591   8
   0  16  -1 1117.26 566.878   8
   0  16   2 619.856 374.640   8
   0  16   3 5491.44 1013.28   8
   0 -16  -4 76.4877 175.244  13
   0  16   4 901.237 364.872   8
   0 -16  -5 95.0991 116.956  13
   0  16   5 307.730 178.149   8
   0  17   0 334.846 302.973   8
   0  17   1 1969.91 560.258   8
   0  17   2 333.148 232.661   8
   0  17   3 465.337 224.670   8
   1   0 -11-34.3794 37.5607  10
   1   0 -10 606.276 368.439  10
   1   0  -9 451.338 348.454  10
  -1   0   9-105.845 571.028   9
   1   0  -8 680.795 398.120  10
  -1   0   8 335.695 200.868   9
  -1   0   7 2090.34 1454.06   5
   1   0  -7 2555.78 1743.33   4
  -1   0   6 2253.80 816.562   5
  -1   0   5 467.765 166.776   5
  -1   0   4 27780.1 2642.80   5
  -1   0   3 6484.50 1213.23   5
  -1   0   2 334482. 6148.41   5
  -1   0   0 76921.0 2507.45   2
  -1   0   0 74416.8 2477.19   1
  -1   0  -2 14865.1 1254.92   1
  -1   0  -2 12468.5 445.329   3
  -1   0  -3-749.523 145.385   1
  -1   0  -4 18330.9 2847.12   1
  -1   0  -6 7809.48 1634.96   4
  -1   0  -7 4913.70 1900.51   4
  -1   0  -8 3371.27 1311.45   4
  -1   0  -8 321.604 288.430  10
  -1   0  -9 525.464 398.662  10
  -1   0 -10 1472.62 663.711  10
  -1   0 -11 93.9932 109.687  12
  -1   0 -11 258.746 243.116  10
  -1   0 -12 539.057 181.863  12
   1   1 -12 62.2906 107.187  10
   1   1 -11 471.712 327.782  10
   1  -1 -11-116.419 169.361  10
   1   1 -10-301.923 295.299  10
   1  -1 -10 244.295 229.824  10
  -1   1  10-17.5017 414.508   9
   1   1  -9 1383.57 569.157  10
  -1   1   9 926.897 1107.01   9
   1  -1  -9 708.186 587.829   4
   1  -1  -9 1333.26 548.973  10
  -1  -1   9 519.376 917.977   9
  -1   1   8 1783.29 1052.90   5
  -1   1   8 509.789 769.865   9
   1   1  -8 332.438 265.427  10
   1  -1  -8 2079.18 920.251   4
  -1   1   7 26620.3 3067.84   5
   1   1  -7 22366.3 2876.86   4
  -1   1   6-1398.51 797.333   5
   1   1  -6-723.306 490.687   4
   1   1  -5 3417.85 1106.69   4
  -1   1   5 5714.35 1434.69   5
  -1  -1   5 4986.96 1572.09   5
  -1   1   4 20942.5 2087.48   5
  -1  -1   4 15236.1 1752.49   5
   1   1  -4 16809.6 1557.27   4
   1   1  -3 214760. 4611.99   4
  -1  -1   3 217887. 5600.46   5
  -1  -1   2 343484. 6471.23   5
  -1   1   0 65443.9 1813.58   2
  -1  -1   0 66539.7 3290.57   1
  -1  -1   0 65657.5 2987.42   2
  -1  -1  -1 378052. 8485.11   1
  -1   1  -2 4924.67 577.118   4
  -1   1  -2 3147.33 488.843   3
  -1  -1  -2 5790.34 1247.67   1
  -1  -1  -3 154477. 3935.69   3
  -1  -1  -3 160260. 6983.39   1
  -1   1  -3 159440. 4443.51   4
  -1   1  -4 13018.7 1617.89   4
  -1  -1  -4 13918.0 2843.47   1
  -1  -1  -5 7399.79 1839.84   1
  -1   1  -5 7532.40 1269.11   4
  -1   1  -6 2885.10 889.814   4
  -1  -1  -7 13669.8 2265.15   4
  -1   1  -7 15145.0 2370.63   4
  -1  -1  -8 2888.50 904.933  10
  -1  -1  -8 4473.74 1362.14   4
  -1   1  -8 3006.75 894.782  10
  -1   1  -9 569.374 411.216  10
  -1  -1  -9 1150.38 592.070  10
  -1   1 -10 1323.56 605.678  10
  -1  -1 -10 1490.58 631.023  10
  -1  -1 -11 417.944 232.708  12
  -1   1 -11 907.627 435.037  10
  -1   1 -11 653.114 304.098  12
  -1  -1 -11 723.946 398.351  10
  -1   1 -12 24.6230 98.1720  12
   1   2 -12 51.4213 86.3396  10
   1   2 -11-206.808 212.882  10
   1  -2 -10 7.77096 152.727  13
   1   2 -10 101.445 145.290  10
  -1   2  10-233.905 436.808   9
   1  -2 -10-47.1565 73.1992  10
  -1   2   9-0.12381 482.734   5
   1  -2  -9 51.7359 122.474  10
  -1   2   9-77.7304 532.476   9
  -1  -2   9-68.7850 449.191   9
   1   2  -9 162.467 198.082  10
   1  -2  -9 1112.99 771.122   4
  -1   2   8 2793.15 1569.48   9
  -1   2   8 3162.80 1238.37   5
   1   2  -8 3480.76 862.734  10
  -1   2   7 5589.92 2035.20   5
  -1   2   6-994.334 922.592   5
  -1   2   5 1158.60 529.072   5
   1  -2  -2 147398. 3842.20   1
  -1  -2   1 17457.8 851.296   2
  -1   2   1 22107.0 1058.44   3
  -1  -2   0 173232. 5291.18   2
  -1  -2  -1 72805.1 4215.22   1
  -1  -2  -1 81083.4 3926.33   2
  -1  -2  -2 148953. 7326.49   1
  -1  -2  -3-670.469 1022.93   1
  -1  -2  -4 4549.58 1302.56   1
  -1  -2  -5 3820.12 1659.47   1
  -1  -2  -6-1158.14 1129.83   1
  -1  -2  -8 904.559 531.935  10
  -1   2  -8 673.026 430.609  10
  -1   2  -9 1031.29 529.312  10
  -1  -2  -9 1060.47 563.703  10
  -1  -2  -9 1542.32 877.146   4
  -1  -2 -10 1235.15 581.749  10
  -1   2 -10 1621.05 640.576  10
  -1   2 -11 516.845 345.480  10
  -1   2 -11-551.149 334.473  12
  -1   2 -12 6.06408 43.1624  12
  -1   2 -12 411.784 216.045  10
   1   3 -12-31.0173 55.1637  10
   1   3 -11 260.332 216.148  10
   1  -3 -10 79.0071 128.627  13
   1  -3 -10 599.094 478.434   4
   1   3 -10 365.562 309.664  10
   1  -3  -9 1431.27 893.924   4
   1  -3  -9 2363.26 760.248  10
   1   3  -9 2438.01 766.158  10
  -1   3   9 1455.39 771.410   5
  -1   3   9 1574.41 1201.85   9
   1   3  -8 440.334 339.922  10
  -1   3   8 1476.99 951.882   5
  -1   3   8 272.432 668.371   9
   1  -3  -8 127.879 194.271  10
  -1   3   7 975.112 533.791   5
  -1   3   6 2291.15 763.915   5
   1  -3  -4 44607.7 3767.55   1
  -1  -3   2 19237.4 3180.98   2
   1  -3  -2 7877.86 1442.79   1
  -1  -3   1-790.713 1169.22   2
  -1  -3  -1 291872. 8032.14   2
  -1  -3  -1 286444. 9564.51   1
  -1  -3  -2 15746.4 2951.59   1
  -1  -3  -3 81213.8 6329.25   1
  -1  -3  -4 16975.2 3099.18   1
  -1  -3  -5 3890.03 2142.88   1
  -1  -3  -6-21.4710 595.687   1
  -1   3  -7 7239.88 1248.49  10
  -1  -3  -7 7378.67 1364.77  10
  -1  -3  -8 545.484 400.396  10
  -1   3  -8 107.467 249.596  10
  -1  -3  -9-31.7403 194.239   4
  -1   3  -9 433.374 345.405  10
  -1  -3  -9 337.559 361.529  10
  -1  -3 -10 426.642 378.368  10
  -1   3 -10 888.526 482.310  10
  -1   3 -11 1437.99 551.843  10
  -1   3 -11 1785.58 512.292  12
  -1   3 -12 257.454 196.091  10
  -1   3 -12-122.773 145.852  12
   1   4 -12 44.8364 34.9732  10
   1   4 -11-62.5892 80.0274  10
   1  -4 -11-62.0911 15.0944  13
   1  -4 -10-54.4389 139.016  13
   1   4 -10 138.289 162.389  10
   1   4  -9 746.990 427.189  10
  -1   4   9 0.10408 257.092   5
   1  -4  -9 836.554 442.462  13
  -1   4   8-745.119 604.038   5
   1  -4  -8 816.370 426.420  10
  -1   4   8 487.987 937.619   9
  -1   4   7 364.973 231.287   5
   1  -4  -5 60495.4 4941.64   1
   1  -4  -4 476.147 476.070   1
  -1  -4   3 22289.0 2709.38   2
   1  -4  -3 18422.0 2287.65   1
   1  -4  -2 30257.2 2356.54   1
  -1  -4   2 35159.2 2996.40   2
  -1  -4   1 30577.8 2391.30   2
  -1  -4   0 8911.25 1908.24   2
  -1  -4  -1 26855.4 2801.06   2
  -1  -4  -1 27290.4 3414.86   1
  -1  -4  -2 4873.59 1781.19   1
  -1  -4  -3 124084. 8374.82   1
  -1  -4  -4 80644.1 7746.63   1
  -1  -4  -5 33220.5 4524.76   1
  -1  -4  -6 1413.69 818.905   1
  -1  -4  -7 3951.40 1055.15  10
  -1  -4  -7 4762.54 2170.10   1
  -1   4  -8-406.446 368.118  10
  -1  -4  -8-349.990 344.284  10
  -1  -4  -9-92.3863 125.711  10
  -1   4  -9-218.003 318.381  10
  -1  -4  -9-556.494 629.980   4
  -1   4 -10 68.8851 98.6312  10
  -1   4 -11-47.1931 67.2670  10
  -1   4 -11-106.172 82.0739  12
  -1   4 -12 22.8500 87.5087  10
  -1   4 -12-54.1095 61.0743  12
   1   5 -12-198.291 137.094  10
   1   5 -11 3.54324 96.9670  10
   1  -5 -11 197.280 150.888  13
   1   5 -10-16.3215 124.406  10
   1  -5 -10 81.1565 202.618  13
  -1   5   9 0.11188 423.024   5
   1  -5  -9 1594.05 678.248  13
   1   5  -9 886.217 444.734  10
  -1   5   8 2506.85 1462.60   5
   1  -5  -8 5496.36 1225.29  13
  -1   5   7 336.334 730.244   9
  -1   5   7 342.160 495.489   5
   1  -5  -5 9111.85 2109.04   1
  -1  -5   5 16011.2 3169.39   2
   1  -5  -4 5779.49 1025.27   1
  -1  -5   4 12393.3 2373.99   2
   1  -5  -3 36013.4 3672.29   1
  -1  -5   3 34828.3 3624.37   2
   1  -5  -2 14310.2 1682.47   1
  -1  -5   2 18413.0 2012.21   2
  -1  -5   1 73076.2 4491.44   2
  -1  -5   0 41939.8 3663.12   2
   1  -5   1 108614. 3164.98   2
  -1  -5  -1 131541. 7798.60   1
   1  -5   2 46693.8 2478.72   2
  -1  -5  -2 63564.3 5399.92   1
  -1  -5  -3 5806.74 1942.40   1
  -1  -5  -4 2799.22 1722.40   1
  -1  -5  -5 10548.2 2689.48   1
  -1  -5  -6 1375.65 1071.87   1
  -1  -5  -7 2838.29 1829.37   1
  -1  -5  -7 1767.35 705.198  10
  -1   5  -8-258.370 274.317  10
  -1  -5  -9-979.341 637.128   4
  -1   5  -9 25.0658 155.026  10
  -1   5 -10 132.352 217.778  10
  -1   5 -11 138.396 172.928  12
  -1   5 -11 23.9750 98.8884  10
  -1   5 -12 50.8941 53.0577  12
  -1   5 -12-69.4768 63.2576  10
   1  -6 -11 37.8109 107.482  13
   1   6 -11 43.4038 66.8460  10
   1   6 -10 46.5249 115.852  10
   1  -6 -10-309.461 288.288  13
   1  -6  -9 131.310 195.299  13
  -1   6   9 0.11207 238.469   5
   1   6  -9 174.965 248.063  10
  -1   6   8 437.792 752.472   5
   1  -6  -8 2298.31 807.363  13
   1  -6  -7 5020.76 1144.60  13
  -1  -6   7 3541.82 1739.97   2
  -1  -6   6 3805.67 1761.09   2
  -1  -6   5 4267.49 1535.37   2
  -1  -6   4 3961.02 1480.50   2
   1  -6  -4 1727.11 692.319   1
  -1  -6   3 20675.4 2857.64   2
   1  -6  -3 17138.9 2641.99   1
  -1  -6   1 127107. 6679.33   2
  -1  -6   0 34604.1 4119.70   2
  -1  -6  -1 13968.0 3039.33   1
  -1  -6  -1 34181.1 4598.30   2
  -1  -6  -2 187078. 10094.8   1
  -1  -6  -3 49778.6 5697.57   1
  -1  -6  -4 2977.05 1345.54   1
  -1  -6  -5 46179.7 6838.39   1
  -1  -6  -6 1997.42 1292.34   1
  -1  -6  -7 163.507 125.044  13
  -1   6  -8 292.817 297.215  10
  -1  -6  -8-101.643 194.366  13
  -1   6  -9 1734.65 648.466  10
  -1   6 -10-109.800 169.442  10
  -1   6 -10-205.573 219.203  12
  -1   6 -11 152.114 139.411  10
  -1   6 -11 185.755 149.299  12
   1  -7 -11-5.14061 84.4717  13
   1   7 -11 48.6188 61.4645  10
   1   7 -10 356.955 252.916  10
   1  -7 -10 878.037 419.599  13
  -1   7   9 0.11516 362.710   5
   1  -7  -9 157.248 167.648  13
   1  -7  -8 4459.17 1117.53  13
  -1   7   8 0.11914 242.355   5
   1  -7  -7 2510.83 817.145  13
  -1  -7   6 866.882 886.076   2
   1  -7  -6-77.2209 198.402  13
  -1  -7   5-532.178 661.878   2
  -1  -7   4 31197.0 4013.17   2
  -1  -7   3 6862.53 1725.20   2
   1  -7  -3 4755.12 1341.59   1
  -1  -7   1 3615.73 1310.19   2
   1  -7  -1 2443.86 902.230   1
  -1  -7   0 23510.6 3830.04   2
  -1  -7  -1 8037.62 2347.05   1
  -1  -7  -2 3986.42 952.926   1
  -1  -7  -3 7045.03 2346.07   1
  -1  -7  -4 2583.39 1711.88   1
  -1  -7  -5 308.398 1055.36   1
  -1  -7  -6 421.037 281.211  13
  -1  -7  -6-2.29868 546.002   1
  -1  -7  -7-95.7680 134.728  13
  -1  -7  -8-111.077 222.196  13
  -1   7  -9-26.6543 42.1617  10
  -1  -7  -9 298.893 243.517  13
  -1   7 -10 65.0342 111.238  12
  -1   7 -10 419.694 282.566  10
  -1   7 -11 102.743 71.6539  12
  -1   7 -11 101.317 129.567  10
   1  -8 -11 142.785 162.123  13
   1   8 -11-87.9405 76.8798  10
   1  -8 -10 2041.90 636.781  13
   1   8 -10 809.274 354.974  10
   1  -8  -9 662.713 447.340  13
   1  -8  -8 2043.29 765.791  13
  -1   8   8-1187.01 774.812   5
   1  -8  -7 7359.54 1435.29  13
  -1  -8   6 6368.84 2014.89   2
   1  -8  -6 7291.33 1356.08  13
  -1  -8   5 286.257 223.981   2
  -1  -8   4 5794.82 1782.39   2
   1  -8  -2-1086.27 932.236   1
  -1  -8   1 45582.6 5300.11   2
   1  -8  -1 30595.1 4738.43   1
  -1  -8   0 198430. 10082.7   2
  -1  -8  -1 10138.3 2771.76   1
  -1  -8  -2 3441.42 1433.34   1
  -1  -8  -3 30996.0 4799.10   1
  -1  -8  -4 189.164 385.678   1
  -1  -8  -5 2412.33 1779.82   1
  -1  -8  -5 1831.48 648.162  13
  -1  -8  -6 101.887 118.787  13
  -1  -8  -7-155.671 292.780  13
  -1  -8  -8 1517.39 578.459  13
  -1  -8  -9 2356.24 688.709  13
  -1   8  -9 2198.54 701.251  10
  -1   8  -9 3025.76 690.481  12
  -1   8 -10 674.054 341.430  10
  -1   8 -10 316.860 199.764  12
  -1   8 -11 102.946 94.1920  10
   1   9 -11-1.23740 30.1646  10
   1  -9 -11-205.810 128.037  13
   1   9 -10 35.3743 42.6182  10
   1  -9 -10-65.8994 117.474  13
   1  -9  -9-286.828 237.537  13
   1  -9  -8 1041.38 562.542  13
  -1   9   8 0.11686 325.370   5
   1  -9  -7-205.688 299.915  13
   1  -9  -6 527.628 462.688  13
  -1  -9   5 5618.69 1713.16   2
   1  -9  -5 7641.22 1346.09  13
  -1  -9   4 8010.34 2044.88   2
  -1  -9   1 26035.2 4488.03   2
  -1  -9   0 22468.7 3542.75   2
  -1  -9   0 16357.0 3878.57   1
  -1  -9  -1 13029.0 3199.82   1
  -1  -9  -2 411.955 348.661   1
  -1  -9  -3 5172.37 2005.61   1
  -1  -9  -4 7786.04 1343.19  13
  -1   9  -4 6999.04 1315.34   8
  -1  -9  -5 4850.75 1090.18  13
  -1  -9  -5 4990.64 2135.65   1
  -1  -9  -6 1031.43 537.196  13
  -1  -9  -7 138.537 226.089  13
  -1  -9  -8 633.565 342.529  13
  -1   9  -8 478.487 235.629  12
  -1   9  -9 60.1847 27.9431  12
  -1  -9  -9-20.7461 92.5219  13
  -1   9  -9-36.3185 144.545  10
  -1   9 -10 55.6737 77.9913  10
  -1   9 -10 4.01705 82.5921  12
   1 -10 -10 580.563 307.010  13
   1  10 -10-3.51965 68.6555  10
   1 -10  -9 2007.49 671.674  13
   1 -10  -8 78.2414 145.821  13
   1 -10  -7 1775.86 663.822  13
   1 -10  -6 472.993 423.864  13
   1 -10  -5 38013.2 3172.66  13
   1 -10  -4 12581.6 1690.64  13
  -1 -10   4 9346.89 2264.74   2
  -1 -10   3 1630.65 767.814   2
  -1 -10   1 21508.6 3719.80   2
  -1 -10   0 30473.9 5845.30   1
  -1 -10  -1 9046.61 2828.71   1
  -1 -10  -2 8044.28 2547.36   1
  -1  10  -3 677.661 428.405   8
  -1 -10  -3 176.213 82.3440  13
  -1 -10  -3 538.582 771.426   1
  -1  10  -4 639.957 439.617   8
  -1 -10  -4-161.573 260.945  13
  -1 -10  -5 6129.47 1320.86  13
  -1 -10  -6 5016.37 1179.37  13
  -1 -10  -7 8941.21 1535.48  13
  -1 -10  -8 337.528 320.775  13
  -1 -10  -9-122.969 213.255  13
  -1  10  -9-44.6568 78.7931  10
  -1  10 -10 151.265 125.707  10
   1  11 -10-26.0614 81.8603  10
   1 -11 -10-174.808 178.319  13
   1  11  -9 58.1124 103.024  10
   1 -11  -9 174.272 214.713  13
   1 -11  -8 1536.28 624.227  13
   1 -11  -7 13.4954 105.369  13
   1 -11  -6 2933.08 861.079  13
   1 -11  -5 279.040 181.008  13
   1 -11  -4 3185.17 847.737  13
   1  11  -3 1798.25 730.193   8
   1 -11  -3 1062.16 466.918  13
   1  11  -2 1384.81 591.472   8
  -1 -11   1 1068.08 1310.99   1
   1  11  -1 611.812 340.504   8
  -1  11   1 845.028 547.012   8
  -1 -11   0 248.712 250.132  13
  -1 -11   0-135.095 760.434   1
  -1  11   0 81.5004 142.615   8
  -1  11  -1 2026.09 751.874   8
  -1 -11  -1 1648.65 793.007   1
  -1 -11  -1 1767.95 676.258  13
  -1  11  -2 444.524 302.946   8
  -1 -11  -2 364.065 328.717   1
  -1 -11  -2 457.930 183.824  13
  -1 -11  -3 347.109 198.484  13
  -1  11  -3-107.124 303.501   8
  -1  11  -4 6446.91 1397.65   8
  -1 -11  -4 5702.88 1267.34  13
  -1 -11  -5 498.516 383.896  13
  -1 -11  -6 681.835 433.575  13
  -1 -11  -7 799.122 415.015  13
  -1 -11  -8-42.1595 146.181  13
  -1  11  -9-89.1173 103.225  10
  -1 -11  -9 172.429 155.174  13
   1  12  -9 386.499 224.933  10
   1 -12  -9 420.397 235.524  13
   1 -12  -8 294.511 219.623  13
   1 -12  -7-115.978 174.408  13
   1 -12  -6 413.779 332.649  13
   1 -12  -5 52.2792 102.969  13
   1 -12  -4-64.7776 166.753  13
   1 -12  -3 4344.70 974.267  13
   1  12  -3 5100.15 1199.04   8
   1  12  -2-301.788 312.118   8
  -1  12   2 507.791 426.659   8
  -1 -12   1 4315.44 1038.84  13
   1  12  -1 7328.87 1425.64   8
  -1  12   1 7834.25 1616.58   8
  -1 -12   0 3387.08 960.115  13
  -1  12   0 5043.05 1345.18   8
   1  12   0 4872.42 1195.22   8
   1  12   1 4551.96 1136.39   8
  -1 -12  -1 2538.90 893.221  13
  -1  12  -1 5571.87 1393.31   8
  -1 -12  -2 829.927 471.635  13
  -1  12  -2 888.098 488.110   8
  -1  12  -3-709.969 533.959   8
  -1 -12  -3-458.655 424.023  13
  -1 -12  -4 861.229 538.607  13
  -1 -12  -5 14.5806 80.8570  13
  -1 -12  -6 587.686 426.239  13
  -1 -12  -7 452.809 299.726  13
  -1 -12  -8 735.672 332.138  13
  -1  12  -8 354.996 222.945  10
  -1 -12  -9 777.462 258.238  13
  -1  12  -9 603.424 223.240  10
   1 -13  -9-16.5877 43.4553  13
   1 -13  -8 156.179 120.257  13
   1 -13  -7 928.761 410.039  13
   1 -13  -6 2383.93 700.208  13
   1 -13  -5-461.909 377.440  13
   1 -13  -4 2137.77 678.024  13
  -1  13   3-121.425 210.428   8
   1  13  -2 4949.22 1162.31   8
  -1  13   2 5408.87 1324.22   8
   1  13  -1 11205.2 1781.76   8
  -1  13   1 11150.0 1933.78   8
  -1 -13   0 4401.91 1111.27  13
   1  13   0 7969.59 1590.23   8
  -1  13   0 8239.74 1706.10   8
   1  13   1 3077.28 969.211   8
  -1 -13  -1 2405.39 818.998  13
  -1  13  -2 4194.79 1164.13   8
  -1 -13  -2 2757.64 880.865  13
  -1 -13  -3-36.1379 187.467  13
  -1  13  -3-796.072 613.190   8
  -1 -13  -4 4465.95 1157.14  13
  -1 -13  -5 301.088 316.834  13
  -1 -13  -6 154.345 165.072  13
  -1 -13  -7 342.032 236.292  13
  -1  13  -8 778.464 267.232  10
  -1 -13  -8 421.716 255.334  13
   1 -14  -8 40.2899 131.140  13
  -1  14   8 413.985 196.666   8
  -1  14   7 128.569 157.112   8
   1 -14  -7-54.7486 37.9149  13
  -1  14   6 661.289 387.843   8
   1 -14  -6 584.008 331.897  13
  -1  14   5 471.685 355.973   8
   1 -14  -5 244.495 223.868  13
   1 -14  -4-115.654 163.282  13
  -1  14   4 336.277 256.831   8
  -1  14   3 242.639 327.771   8
   1  14  -2 3723.03 966.384   8
  -1  14   2 3875.62 1075.20   8
  -1  14   1 58.7014 160.790   8
   1  14  -1 385.867 398.723   8
   1  14   0 2012.56 726.839   8
  -1 -14   0 1237.05 528.048  13
  -1  14   0 2116.92 812.676   8
   1  14   1 368.415 289.998   8
  -1 -14  -1 86.5085 64.5858  13
  -1  14  -1 545.394 377.197   8
  -1  14  -2 1624.96 753.005   8
  -1 -14  -2 156.675 167.872  13
  -1 -14  -3-338.624 371.211  13
  -1  14  -3 101.557 77.9118   8
  -1 -14  -4 400.133 245.719  13
  -1 -14  -5 847.807 461.520  13
  -1 -14  -6 77.5900 150.308  13
  -1 -14  -7 203.890 175.444  13
  -1  14  -7 205.693 138.799  10
  -1  15   7 913.901 297.848   8
  -1  15   6 299.118 170.235   8
   1 -15  -6 177.304 184.860  13
   1 -15  -5-395.442 232.510  13
  -1  15   5-35.0141 119.277   8
  -1  15   4 670.594 395.921   8
  -1  15   3 2913.43 887.053   8
  -1  15   2 404.273 333.554   8
  -1  15   1 466.373 411.979   8
   1  15  -1 295.920 290.050   8
  -1 -15   0 482.497 340.853  13
   1  15   0 589.543 365.999   8
  -1  15   0 1169.83 611.465   8
  -1  15  -1 364.373 308.784   8
  -1 -15  -1 172.107 169.804  13
   1  15   1 442.370 242.448   8
  -1 -15  -2-48.5541 147.184  13
  -1  15  -2 426.829 347.749   8
  -1 -15  -3-90.6612 187.523  13
  -1 -15  -4 190.468 163.124  13
  -1 -15  -5 1746.61 564.422  13
  -1 -15  -6 565.887 282.307  13
  -1  16   5-14.0784 35.3729   8
  -1  16   4 312.218 213.786   8
  -1  16   3 860.826 410.177   8
  -1  16   2 1360.47 529.011   8
  -1  16   1 287.699 299.521   8
  -1  16   0 78.4955 181.890   8
  -1  16  -1 464.084 362.619   8
  -1 -16  -2-186.467 217.030  13
  -1 -16  -3 143.687 72.2135  13
  -1 -16  -4 162.525 148.151  13
  -1 -16  -5 162.763 179.630  13
  -1  17   4 219.050 148.261   8
  -1  17   3 350.031 214.545   8
  -1  17   2 451.041 280.700   8
  -1  17   1 1235.81 512.894   8
  -1  17   0 2424.05 654.768   8
  -2   0  11-267.659 478.659   9
  -2   0  10 207.203 765.720   9
  -2   0   9-1101.28 1217.60   9
  -2   0   8 506.723 432.644  11
  -2   0   7 3344.91 879.920   5
  -2   0   6 13054.5 3521.77   5
   2   0  -6 3835.55 1693.53   4
  -2   0   5 13260.3 2368.72   5
   2   0  -5 3261.22 1036.75   4
  -2   0   4 1545.43 953.035   5
  -2   0   3 204321. 7047.15   5
  -2   0   2 98386.5 5081.77   2
  -2   0   2 92415.1 4540.09   5
  -2   0   1 21808.5 1531.68   1
  -2   0   1 25613.5 2164.32   2
  -2   0   0 50044.2 2883.89   1
  -2   0   0 64351.7 3973.94   2
  -2   0  -1 36503.9 2716.09   1
  -2   0  -2 331571. 8596.78   3
  -2   0  -2 324997. 10005.4   1
  -2   0  -3 1175.92 742.358   3
  -2   0  -3 1390.77 946.784   1
  -2   0  -3 696.439 496.825   4
  -2   0  -4 11271.7 1440.48   4
  -2   0  -5 14668.4 2448.34   4
  -2   0  -7-105.276 206.312  10
  -2   0  -8 7841.39 1470.64  10
  -2   0  -8 7540.27 1240.01  12
  -2   0  -9-202.760 217.322  12
  -2   0  -9 430.922 319.150  10
  -2   0 -10-77.0434 134.003  12
  -2   0 -10 462.814 368.788  10
  -2   0 -11 43.4736 121.634  12
   2  -1 -11 14.4340 93.3591  13
  -2   1  11-72.8044 321.463   9
  -2  -1  11 43.4656 232.361   9
  -2   1  10-22.9331 144.241   9
  -2  -1  10 105.212 662.518   9
  -2  -1   9-23.7475 179.388   9
  -2   1   9-247.279 488.514   9
  -2  -1   8 818.266 601.626  11
   2  -1  -8 1949.97 992.476   4
  -2   1   8-132.843 404.366   9
  -2   1   8 1842.02 1195.24   5
  -2   1   7 447.312 599.605   5
  -2   1   6 29898.1 3197.44   5
   2  -1  -6 7001.19 1704.34   4
  -2   1   5 26853.4 3323.51   5
  -2   1   4 21063.4 2116.97   3
  -2   1   4 18212.6 2681.51   5
  -2  -1   3 6996.80 1554.39   2
  -2   1   3 3177.86 755.887   5
  -2   1   2 9255.22 1634.68   2
  -2  -1   2 9892.56 2028.83   2
  -2   1   2 8102.66 1172.05   5
  -2  -1   1 47608.5 3136.32   2
  -2  -1   1 50450.5 3009.19   1
  -2   1   1 43596.8 2329.27   2
  -2   1   1 43847.5 2410.66   5
  -2   1   0 37819.3 3177.41   3
  -2  -1   0 41178.0 3167.44   1
  -2  -1   0 43480.1 3416.28   2
  -2   1  -1 13763.3 1738.94   3
  -2  -1  -1 19352.2 2877.60   1
  -2   1  -2 4558.60 1365.41   3
  -2  -1  -2 7932.47 2505.27   1
  -2  -1  -3 6584.90 1484.90   3
  -2  -1  -3 8736.85 1847.83   1
  -2  -1  -4 7122.57 2398.98   1
  -2  -1  -4 3551.76 1220.72   3
  -2  -1  -5 43314.6 5307.13   1
  -2  -1  -5 37304.9 3062.60   4
  -2  -1  -6 2034.07 926.953   4
  -2   1  -7-116.968 185.686  10
  -2  -1  -7-30.5486 245.821  12
  -2  -1  -8 1832.19 549.340  12
  -2  -1  -8 3379.79 1065.56  10
  -2   1  -8 2903.89 887.222  10
  -2   1  -8 2728.69 726.677  12
  -2  -1  -9 232.673 255.568  12
  -2   1  -9-252.149 214.630  12
  -2  -1  -9 240.642 283.259  10
  -2   1  -9 519.949 386.991  10
  -2  -1 -10 1167.17 408.731  12
  -2   1 -10 1719.04 517.364  12
  -2  -1 -10 1355.51 561.367  10
  -2   1 -10 1742.73 637.346  10
  -2   1 -11-98.9007 118.965  12
  -2  -2  11 42.9878 181.992   9
   2  -2 -11-249.126 228.400  13
  -2   2  10-71.5898 324.718   9
  -2  -2  10 168.047 369.942   9
  -2   2   9-272.739 1075.10   9
   2  -2  -8-115.988 192.150   4
  -2   2   8-935.212 983.600   9
  -2   2   8 799.918 506.291   5
  -2   2   7 4667.28 1986.55   9
  -2   2   7 6431.76 1794.64   5
  -2   2   7 4292.46 1275.15  11
  -2   2   6 719.088 625.925   5
  -2   2   5 93491.1 5575.43   5
  -2  -2   4 12764.4 2606.54   2
  -2   2   4 12960.6 1958.73   5
  -2   2   3 3248.38 658.237   3
  -2  -2   3 8411.13 1825.59   2
  -2   2   3 8347.99 1473.94   5
  -2   2   2 50646.3 3113.46   3
  -2   2   2 42314.3 2837.09   2
  -2  -2   2 51804.1 3985.23   2
  -2   2   2 43110.3 2982.74   5
  -2   2   1 14467.3 1721.59   3
  -2  -2   1 13951.0 1901.96   2
  -2   2   1 11138.4 991.682   2
  -2   2   0 14344.2 1774.10   3
  -2  -2   0 11741.2 1997.95   1
  -2  -2   0 15367.3 2237.76   2
  -2   2  -1 31614.1 2613.75   3
  -2  -2  -1 36931.2 3699.60   1
  -2   2  -2 8810.42 1434.58   3
  -2  -2  -2 11333.8 2780.32   1
  -2  -2  -3 20486.5 3338.14   1
  -2  -2  -4 70576.2 4030.72   3
  -2  -2  -4 92597.1 6815.15   1
  -2  -2  -5 16.1466 648.735   1
  -2  -2  -6-131.176 426.808   4
  -2  -2  -7 5029.74 1170.36  10
  -2   2  -7 4406.89 998.841  10
  -2  -2  -7 5701.45 1460.88   4
  -2  -2  -7 3226.52 771.070  12
  -2  -2  -8 2654.87 660.957  12
  -2  -2  -8 4087.86 1089.30  10
  -2   2  -8 4028.14 1018.84  10
  -2   2  -8 5776.76 1151.68  12
  -2  -2  -9 1292.00 440.623  12
  -2  -2  -9 2388.15 835.387  10
  -2   2  -9 2864.70 864.910  10
  -2   2  -9 3853.84 916.531  12
  -2   2 -10 156.010 74.3343  12
  -2   2 -10 793.229 410.470  10
  -2   2 -11 5.77221 37.9530  10
  -2   2 -11 60.6953 79.2108  12
   2  -3 -11-271.384 217.151  13
  -2  -3  11-32.3520 273.832   9
  -2   3  10-96.5715 605.292   9
  -2  -3  10-51.2484 224.382   9
  -2  -3   9 187.368 277.956  11
  -2   3   9 0.13790 237.647   5
  -2   3   9 4.21921 498.375   9
  -2  -3   8-39.4178 274.262  11
   2  -3  -8-856.800 534.100   4
  -2   3   8 554.985 631.796   9
  -2   3   8 1153.81 799.044   5
  -2  -3   7 11117.0 2968.50   2
  -2   3   7-733.122 1562.56   9
  -2  -3   6 47.8047 581.457   2
  -2   3   6 3000.45 1231.09   5
  -2  -3   5 10678.0 2224.92   2
  -2   3   5 15045.3 2138.01   5
  -2  -3   4 48629.7 5279.42   2
  -2   3   4 45921.6 3797.65   5
  -2   3   3 742.201 375.126   5
  -2  -3   3 1524.06 805.936   2
  -2   3   2-440.940 621.364   3
  -2  -3   2-989.793 1019.01   2
  -2   3   1 31114.1 2423.39   3
  -2  -3   1 31446.6 3176.96   2
  -2  -3   0 41834.5 4032.52   1
  -2  -3   0 50376.9 4065.79   2
  -2   3   0 44709.0 3011.38   3
  -2  -3  -1-642.159 784.371   1
  -2  -3  -2 2305.77 1226.08   1
  -2  -3  -3 79652.7 7391.82   1
  -2  -3  -4 16893.9 3201.29   1
  -2  -3  -5 1292.21 1346.01   1
  -2  -3  -6 22850.7 4445.45   1
  -2  -3  -7-181.566 207.332  10
  -2   3  -7-331.213 312.961  10
  -2  -3  -7-769.546 603.787   4
  -2   3  -8 1258.43 487.033  12
  -2  -3  -8 1181.26 605.708  10
  -2   3  -8 1072.46 501.226  10
  -2  -3  -8 563.070 521.989   4
  -2   3  -9-321.010 357.125  12
  -2   3  -9 8.34029 76.0822  10
  -2   3 -10 427.824 286.426  10
  -2   3 -10 690.169 357.135  12
  -2   3 -11 32.2425 53.4856  12
  -2   3 -11-31.9369 87.6313  10
  -2  -4  11-190.306 395.858   9
   2  -4 -11-88.5736 42.0371  13
   2  -4 -10 415.813 273.650  13
  -2  -4  10-56.7130 334.426   9
  -2   4   9 7.95003 416.264   9
  -2   4   9-0.12567 549.943   5
  -2   4   8 722.117 418.700   5
  -2   4   8-189.345 985.489   9
  -2  -4   7-223.298 353.448  11
  -2  -4   7 105.096 1029.05   2
  -2   4   7-71.9536 380.172   9
  -2  -4   6 17279.0 3708.32   2
  -2   4   6 22321.0 3294.85   5
  -2  -4   5 40633.8 5155.48   2
  -2   4   5 46421.9 4246.18   5
  -2  -4   4 10466.6 2533.71   2
  -2  -4   3 75134.6 5950.98   2
  -2  -4   2 41075.5 3977.37   2
  -2  -4   1 52313.8 4420.21   2
  -2  -4   0 62532.5 5458.96   1
  -2  -4   0 81352.3 5683.57   2
  -2  -4  -1 26060.2 3647.35   2
  -2  -4  -1 26353.5 3661.46   1
  -2  -4  -2 76070.8 6704.25   1
  -2  -4  -3 16201.7 3578.90   1
  -2  -4  -4 51460.9 6058.11   1
  -2  -4  -5 12607.8 2892.57   1
  -2  -4  -6 527.766 325.996  10
  -2   4  -6 487.506 339.946  10
  -2  -4  -6 1300.76 1118.96   1
  -2   4  -7 4871.15 1047.64  10
  -2   4  -8 804.456 396.270  12
  -2  -4  -8 587.031 670.435   4
  -2   4  -9 1018.04 471.418  12
  -2   4  -9 585.622 371.866  10
  -2   4 -10 25.0679 41.4583  12
  -2   4 -10-275.319 269.062  10
  -2   4 -11 17.2362 67.9190  10
  -2   4 -11-264.257 165.611  12
   2  -5 -11 68.6186 43.3371  13
   2  -5 -10 784.505 468.375  13
  -2   5   9-827.981 604.587   5
  -2   5   8 47.1103 453.396   9
  -2   5   8-1342.34 838.347   5
  -2  -5   7-386.521 396.549  11
  -2   5   7-48.8910 475.112   9
  -2  -5   7-1665.68 1477.25   2
  -2  -5   6 8507.59 2422.83   2
  -2   5   6 9875.12 2106.77   5
  -2  -5   5 4428.09 1635.58   2
  -2  -5   4 26959.0 3821.00   2
  -2  -5   3 3689.87 941.315   2
  -2  -5   2 4990.16 1160.69   2
  -2  -5   1 12122.1 2192.91   2
  -2  -5   0 14953.6 2884.54   1
  -2  -5   0 25535.1 4065.25   2
  -2  -5  -1 6804.02 2084.22   1
  -2  -5  -1 10782.0 2402.02   2
  -2  -5  -2 7336.87 1736.05   1
  -2  -5  -3 43615.3 6155.69   1
  -2  -5  -4 10122.7 3027.95   1
  -2  -5  -5 6677.35 2115.11   1
  -2  -5  -6 1664.79 1058.75   1
  -2   5  -6 964.278 445.731  10
  -2   5  -6 1105.26 437.013  12
  -2   5  -7 2530.63 744.305  10
  -2   5  -7 3028.24 797.619  12
  -2   5  -8 437.450 340.616  10
  -2  -5  -8 0.17676 169.075   4
  -2   5  -8 604.823 340.607  12
  -2   5  -9 1253.36 452.851  12
  -2   5  -9 1069.03 459.897  10
  -2   5 -10 196.781 149.905  12
  -2   5 -10-184.921 163.966  10
  -2   5 -11-45.7297 69.9529  10
  -2   5 -11 139.787 135.892  12
   2  -6 -11 52.7531 71.2558  13
   2  -6 -10-1.95748 147.340  13
   2  -6  -9 389.010 324.190  13
  -2   6   9 0.10321 218.711   5
  -2   6   8 1256.77 826.995   5
  -2   6   7 1127.65 1366.12   9
  -2   6   6 244.807 728.120   9
  -2   6   6 1414.17 778.637   5
  -2  -6   6 2400.54 1148.64   2
  -2  -6   5 2670.27 1367.50   2
  -2  -6   4 1691.41 933.197   2
  -2  -6   3 5220.36 1541.87   2
  -2  -6   2 20189.0 3174.04   2
  -2  -6   1 16263.1 2588.94   2
  -2  -6   0 14110.2 2831.55   1
  -2  -6   0 27136.5 4455.19   2
  -2  -6  -1 14510.7 3068.97   1
  -2  -6  -2 8765.08 2568.36   1
  -2  -6  -3 5465.68 2381.15   1
  -2  -6  -4 3842.53 2244.34   1
  -2   6  -5 743.719 342.071  12
  -2  -6  -5 2372.47 1312.36   1
  -2   6  -6 1676.67 557.933  12
  -2   6  -7 28.3788 160.857  12
  -2   6  -7-26.4329 22.7074  10
  -2   6  -8 103.100 182.048  10
  -2   6  -8 447.848 247.353  12
  -2   6  -9-96.6381 196.584  12
  -2   6  -9 131.706 175.054  10
  -2   6 -10 91.1743 75.5415  12
  -2   6 -10 127.629 131.315  10
  -2   6 -11 26.2064 77.8618  12
   2  -7 -11 79.0574 82.5953  13
   2  -7 -10 344.111 260.784  13
   2  -7  -9 1436.12 609.971  13
   2   7  -9-10.5335 108.591  10
  -2   7   8-1133.58 777.340   5
   2  -7  -8 670.143 391.234  13
  -2   7   7 3174.70 1570.09   5
  -2   7   6 3596.34 1257.62   5
  -2  -7   6-925.496 1334.60   2
  -2  -7   5-153.291 173.911   7
  -2  -7   5 1103.90 1011.20   2
  -2  -7   4 10952.6 2666.46   2
  -2  -7   3 11346.0 2516.34   2
  -2  -7   2 29613.1 3997.97   2
  -2  -7   1 61832.0 5840.65   2
  -2  -7   0 57406.1 6559.64   1
  -2  -7   0 78404.3 7466.45   2
  -2  -7  -1 21933.3 4110.45   1
  -2  -7  -2 27992.1 4583.69   1
  -2  -7  -3 3182.03 1719.81   1
  -2  -7  -4 796.706 750.364   1
  -2  -7  -5 6957.90 2419.95   1
  -2  -7  -5 4632.90 1028.53  13
  -2   7  -5 4081.99 806.579  12
  -2  -7  -6 4460.23 1001.27  13
  -2   7  -6 4992.50 977.669  12
  -2   7  -7 750.861 404.224  12
  -2   7  -7 347.047 256.045  10
  -2   7  -8-62.0277 218.611  12
  -2   7  -8 259.387 190.163  10
  -2   7  -9 617.254 318.782  12
  -2   7  -9 581.584 313.656  10
  -2   7 -10 367.569 182.204  10
  -2   7 -10 469.550 196.121  12
   2  -8 -11 127.830 141.102  13
   2  -8 -10 115.086 158.347  13
   2   8  -9-88.9313 111.995  10
   2  -8  -9-10.2592 163.108  13
  -2   8   8 0.12190 52.2281   5
   2  -8  -8 3243.77 941.446  13
  -2   8   7 1005.82 728.146   5
   2  -8  -7 3099.97 949.531  13
   2  -8  -6 634.469 409.794  13
  -2  -8   5-172.521 585.142   2
  -2  -8   4 48.1325 208.238   7
  -2  -8   4 879.967 570.527   2
  -2  -8   3 2926.59 1354.16   2
  -2  -8   2 7952.60 2091.82   2
  -2  -8   1 2917.56 1523.26   2
  -2  -8   1 675.486 321.929   1
  -2  -8   0 2758.84 1329.22   2
  -2  -8   0 1260.09 844.102   1
  -2  -8  -1 6572.48 2450.51   1
  -2  -8  -2 3348.92 1900.29   1
  -2  -8  -3 1760.51 1371.64   1
  -2  -8  -4 8995.92 1495.33  13
  -2  -8  -4 16594.2 4728.77   1
  -2  -8  -5 3730.30 1011.09  13
  -2   8  -5 2924.18 719.198  12
  -2   8  -6 450.577 257.522  12
  -2  -8  -6 585.578 359.082  13
  -2   8  -7-90.9961 122.319  12
  -2   8  -7-227.502 223.555  10
  -2  -8  -7-78.1676 207.807  13
  -2   8  -8-245.361 234.180  12
  -2   8  -8-220.166 207.672  10
  -2   8  -9-166.724 146.883  10
  -2   8  -9 12.2315 61.0696  12
  -2   8 -10 4.04063 28.5752  12
   2  -9 -10 559.246 278.676  13
   2   9  -9 186.728 148.230  10
   2  -9  -9 310.349 288.281  13
   2  -9  -8 407.903 335.158  13
  -2   9   7 2905.75 1215.56   5
   2  -9  -7 11691.0 1766.22  13
   2  -9  -6-762.628 447.599  13
  -2  -9   5-211.362 307.636   7
   2  -9  -5 925.931 485.211  13
  -2  -9   4 3208.25 1317.59   2
   2  -9  -4 1669.43 629.456  13
  -2  -9   3 15266.2 3160.33   2
  -2  -9   3 13518.1 1991.81   7
  -2  -9   2 1338.67 906.826   2
  -2  -9   1 5932.82 2099.24   2
  -2  -9   1 4289.45 2008.35   1
  -2  -9   0 6378.50 2163.03   2
  -2  -9   0 4555.80 2116.04   1
  -2  -9  -1 831.813 943.435   1
  -2  -9  -2 9947.23 3099.60   1
  -2  -9  -2 5810.38 1292.62  13
  -2   9  -3 13192.4 1796.01   8
  -2  -9  -3 17202.2 4297.63   1
  -2  -9  -3 11551.8 1797.87  13
  -2  -9  -4-94.9269 58.1104  13
  -2  -9  -5 2810.50 877.958  13
  -2   9  -6 873.718 365.593  12
  -2  -9  -6 1932.01 740.497  13
  -2   9  -7 58.5611 137.461  12
  -2   9  -7 146.094 118.657  10
  -2  -9  -7 169.024 211.055  13
  -2   9  -8-88.4795 157.181  10
  -2  -9  -8-301.518 224.286  13
  -2   9  -8-160.844 128.928  12
  -2   9  -9-160.972 134.846  10
  -2   9  -9-42.4744 128.054  12
   2 -10 -10 47.4264 68.5810  13
   2 -10  -9 856.932 416.188  13
   2  10  -9 148.801 146.448  10
   2 -10  -6 1701.80 625.177  13
  -2 -10   5-219.071 256.515   7
   2 -10  -5 533.554 347.610  13
   2 -10  -4 734.737 382.419  13
  -2 -10   4 1435.44 701.683   7
  -2 -10   3 8481.83 1568.23   7
  -2 -10   2 2974.49 1792.00   1
  -2 -10   2 1149.91 570.720  13
  -2 -10   1 2091.17 1187.62   2
  -2 -10   1 2009.56 1439.59   1
  -2 -10   1 1622.82 693.254  13
  -2  10   1 2063.22 764.535   8
  -2  10   0 1549.94 638.748   8
  -2 -10   0 1651.29 1314.86   1
  -2 -10   0 1283.10 610.641  13
  -2 -10  -1 4400.86 1183.67  13
  -2 -10  -1 4872.79 2181.52   1
  -2  10  -1 5259.69 1172.96   8
  -2 -10  -2 3001.58 986.289  13
  -2  10  -2 2134.68 787.539   8
  -2 -10  -2 3188.14 1840.55   1
  -2  10  -3 2844.39 861.724   8
  -2 -10  -3 1831.11 753.194  13
  -2 -10  -4 8.04713 92.2592  13
  -2 -10  -5-218.815 338.949  13
  -2 -10  -6 3801.34 1027.26  13
  -2  10  -7 3261.79 729.761  10
  -2 -10  -7 5532.11 1119.04  13
  -2 -10  -8 21.7278 96.4454  13
  -2  10  -8 178.446 143.295  10
   2  11  -9 112.877 99.2767  10
   2 -11  -9 453.699 265.263  13
   2 -11  -8 170.572 141.883  13
   2 -11  -7-673.351 399.252  13
  -2  11   6 1231.92 752.359   5
   2 -11  -6-35.1886 164.005  13
  -2 -11   5-115.572 211.268   7
   2 -11  -5-403.416 302.019  13
  -2 -11   4 683.546 488.263   7
  -2 -11   3 3511.86 1055.69   7
  -2 -11   1 1398.38 662.696  13
  -2  11   1 2387.86 838.406   8
  -2  11   0 3380.76 990.918   8
  -2 -11   0 3122.50 1010.72  13
  -2  11  -1 2705.01 883.384   8
  -2 -11  -1 2089.17 830.203  13
  -2  11  -2 3759.15 1022.50   8
  -2 -11  -2 3465.75 1094.91  13
  -2  11  -3 367.186 256.459   8
  -2 -11  -3 670.093 499.847  13
  -2 -11  -4 2477.17 911.864  13
  -2 -11  -5 2706.42 896.684  13
  -2 -11  -6 1286.66 505.800  13
  -2  11  -7 1268.21 418.522  10
  -2 -11  -7 2130.43 651.789  13
  -2 -11  -8 135.152 162.017  13
   2 -12  -9-245.172 147.382  13
   2 -12  -8-360.834 244.642  13
   2 -12  -7 398.070 301.318  13
   2 -12  -6-40.7079 69.8392  13
   2 -12  -5 1509.32 561.887  13
  -2 -12   4 209.165 313.744   7
  -2 -12   3 2367.26 834.668   7
  -2 -12   2 845.824 482.896   7
  -2  12   2 1112.24 596.232   8
  -2  12   1 1911.82 779.447   8
  -2 -12   1 827.783 538.553  13
  -2  12   0 1259.52 660.960   8
  -2 -12   0 435.311 436.253  13
  -2 -12  -1 1012.20 589.469  13
  -2  12  -1 890.699 469.975   8
  -2  12  -2 1338.05 647.764   8
  -2 -12  -2 1612.33 755.191  13
  -2  12  -3 257.526 239.438   8
  -2 -12  -3 606.267 418.480  13
  -2 -12  -4 378.765 314.516  13
  -2 -12  -5 4002.72 1067.17  13
  -2 -12  -6-131.663 204.736  13
  -2 -12  -7 628.964 329.391  13
  -2  13   8 89.7152 106.690   8
   2 -13  -8-139.760 111.136  13
   2 -13  -7-88.4631 17.5465  13
   2 -13  -6 316.177 237.686  13
  -2  13   4 678.510 453.556   8
  -2 -13   4 38.2382 86.3498   7
  -2  13   3 1920.25 734.264   8
  -2 -13   3 1375.66 652.578   7
  -2 -13   2 1462.61 611.990   7
  -2  13   2 2276.87 840.750   8
  -2  13   1 27.8234 145.065   8
  -2  13   0-19.4557 186.461   8
  -2 -13   0 198.927 237.229  13
  -2 -13  -1 2788.72 933.283  13
  -2  13  -1 2610.89 849.245   8
  -2  13  -2 1665.77 626.013   8
  -2 -13  -2 2445.87 920.673  13
  -2 -13  -3 1025.51 557.720  13
  -2 -13  -4 1543.92 646.434  13
  -2 -13  -5 619.036 428.670  13
  -2 -13  -6 525.893 319.560  13
  -2 -13  -7-249.057 173.891  13
  -2  14   7 94.3834 155.297   8
  -2  14   6 561.116 355.552   8
  -2  14   5 723.613 336.479   8
  -2  14   4 1849.29 682.823   8
  -2 -14   4 1709.47 604.336   7
  -2 -14   3 1250.89 539.705   7
  -2  14   3 908.943 485.164   8
  -2  14   2 2799.08 880.586   8
  -2 -14   2 1794.41 627.844   7
  -2  14   1-209.185 243.328   8
  -2 -14   1-147.096 220.180   7
  -2 -14   0-287.245 259.818  13
  -2  14   0-80.6300 203.251   8
  -2  14  -1 3185.85 905.003   8
  -2 -14  -1 3347.38 1003.51  13
  -2 -14  -2 1571.43 654.775  13
  -2  14  -2 1157.73 511.112   8
  -2 -14  -3 1806.85 746.390  13
  -2 -14  -4 394.488 295.105  13
  -2 -14  -5 1898.34 599.230  13
  -2 -14  -6 88.9273 123.710  13
  -2  15   6 220.586 163.759   8
  -2  15   5 72.6304 116.897   8
  -2  15   4 757.614 399.837   8
  -2  15   3 459.029 284.280   8
  -2 -15   3 271.908 197.578   7
  -2  15   2 184.532 78.3562   8
  -2 -15   2 355.529 244.954   7
  -2  15   1 901.962 459.277   8
  -2 -15   1 339.767 276.076   7
  -2  15   0 667.975 381.651   8
  -2 -15   0 157.881 164.773   7
  -2  15  -1 575.186 367.472   8
  -2 -15  -1 52.1282 101.359  13
  -2 -15  -2 404.526 279.436  13
  -2 -15  -3 751.176 421.912  13
  -2 -15  -4 169.669 128.873  13
  -2 -15  -5 52.6618 60.0840  13
  -2  16   5 236.490 177.350   8
  -2  16   4 463.484 263.151   8
  -2  16   3 886.160 383.109   8
  -2  16   2 456.291 283.962   8
  -2 -16   2 484.804 245.016   7
  -2  16   1 716.503 330.568   8
  -2 -16   1 165.932 75.8420   7
  -2  16   0 537.317 287.885   8
  -2 -16   0-188.266 244.544   7
  -2 -16  -1 77.7579 38.6797   7
  -2  16  -1 99.9682 135.799   8
  -2  17   3 406.564 205.617   8
  -2  17   2 68.8544 26.5606   8
  -2  17   1 70.2726 94.0306   8
  -3   0  11-177.188 380.293   9
  -3   0  10 127.508 480.499   9
  -3   0   9-121.387 728.021   9
  -3   0   8 1335.16 759.191  11
  -3   0   8 604.841 1184.87   9
  -3   0   7 145.900 372.264  11
  -3   0   6-239.564 308.191  11
  -3   0   6-1426.54 973.027   2
  -3   0   5-320.720 395.126   2
  -3   0   4 2899.27 1029.10   2
  -3   0   2 13359.9 1849.83   2
  -3   0   0 40631.6 4379.69   3
  -3   0  -1 27846.2 3708.38   3
  -3   0  -2 28246.2 3121.90   3
  -3   0  -3-367.639 524.107   3
  -3   0  -5 192.604 126.331  12
  -3   0  -6 1640.91 556.447  12
  -3   0  -7-276.862 179.452  12
  -3   0  -8-91.8179 113.549  12
  -3   0  -9-46.9833 94.1994  12
  -3   0 -10 4.06469 52.4789  12
  -3   1  11 80.7612 309.102   9
  -3  -1  11 69.7147 256.041   9
  -3   1  10 78.7835 420.738   9
  -3  -1  10 72.6521 357.297   9
  -3   1   9 288.834 643.303   9
  -3  -1   9 231.761 622.280   9
  -3   1   8-358.878 363.224  11
  -3  -1   8-107.090 240.824  11
  -3   1   8 78.0231 263.086   9
  -3   1   7 484.473 445.708  11
  -3  -1   7 1281.46 753.998  11
  -3  -1   6-709.068 494.112  11
  -3  -1   6-218.171 622.192   2
  -3  -1   5 1815.31 971.669   2
  -3   1   4 3247.38 1177.81   3
  -3  -1   4 907.697 696.668   2
  -3   1   3 769.896 753.345   3
  -3   1   2 30943.3 3605.57   3
  -3  -1   2 19345.6 2752.18   2
  -3   1   1 66740.5 4792.72   3
  -3  -1   1 60213.6 4672.21   2
  -3   1   0 57993.7 4591.68   3
  -3   1  -1 66214.7 4715.55   3
  -3   1  -2 12524.1 2095.99   3
  -3  -1  -2 15393.6 2633.63   3
  -3  -1  -3 2937.24 1172.45   3
  -3  -1  -4 1662.47 914.795   3
  -3  -1  -5 5156.78 959.428  12
  -3   1  -5 6193.22 1065.08  12
  -3   1  -6-376.612 303.424  12
  -3  -1  -6-204.972 274.889  12
  -3  -1  -7 2075.19 597.862  12
  -3   1  -7 1992.51 642.682  12
  -3  -1  -8 47.2548 68.4351  12
  -3   1  -8 145.177 153.086  12
  -3  -1  -9 623.477 269.432  12
  -3   1  -9 977.656 382.353  12
  -3   1 -10 165.206 154.152  12
   3  -2 -11-187.455 114.212  13
  -3  -2  11-58.8347 245.326   9
  -3   2  10-92.2942 227.577   9
  -3  -2  10 98.4430 552.965   9
  -3  -2   9 115.421 237.161  11
  -3   2   9-100.827 214.795   9
  -3  -2   8-282.842 336.292  11
  -3   2   8-76.6511 499.876   9
  -3   2   7 421.076 401.346  11
  -3  -2   7 79.8445 274.263  11
  -3   2   7 266.589 555.056   9
  -3  -2   6-683.671 583.807  11
  -3   2   6-157.425 276.890   9
  -3  -2   6-878.791 1051.14   2
  -3   2   6-789.791 1017.22   5
  -3   2   5 1491.16 1000.49   5
  -3  -2   5 255.998 141.564   2
  -3  -2   4 6476.92 1804.45   2
  -3   2   4 2448.98 1537.03   5
  -3   2   3 6162.08 1446.61   3
  -3  -2   3 5718.45 1587.51   2
  -3   2   3 2139.30 1119.42   5
  -3   2   2 15556.4 2242.17   3
  -3  -2   2 16374.1 2567.63   2
  -3   2   1 29741.8 2981.63   3
  -3  -2   1 29621.3 3641.65   2
  -3   2   0 29449.1 3052.26   3
  -3   2  -1 5994.17 1261.86   3
  -3  -2  -3 21570.0 2771.98   3
  -3  -2  -3 15927.4 2792.41   1
  -3  -2  -4 2622.26 1420.40   1
  -3  -2  -5 2376.24 649.744  12
  -3   2  -5 3117.83 734.739  12
  -3   2  -6 952.033 379.307  12
  -3  -2  -6 661.978 318.753  12
  -3  -2  -7 3226.20 743.153  12
  -3   2  -7 5645.25 1104.07  12
  -3  -2  -8-15.9368 123.667  12
  -3   2  -8 428.546 291.361  12
  -3   2  -9 274.703 199.314  12
  -3   2 -10-0.02215 104.626  12
  -3  -3  11 104.575 45.1556   9
   3  -3 -11 160.765 127.119  13
  -3   3  10 103.258 560.088   9
  -3  -3  10 204.412 512.431   9
  -3  -3   9-213.328 260.430  11
  -3   3   9-168.385 489.139   9
  -3  -3   8 570.760 468.904  11
  -3   3   8 84.8021 306.058   9
  -3  -3   7 720.001 504.101  11
  -3   3   7 40.4719 334.755   9
  -3   3   7 0.13558 561.041   5
  -3   3   6-1277.37 1058.30   9
  -3  -3   6-496.432 899.470   2
  -3   3   6 491.677 730.606   5
  -3   3   5 2650.05 1005.36   5
  -3  -3   5 3754.84 1504.43   2
  -3   3   4-345.742 642.591   5
  -3  -3   4 157.495 267.951   2
  -3   3   3-824.874 632.537   5
  -3  -3   3-257.840 416.850   2
  -3   3   2 4527.93 1071.67   3
  -3  -3   2 3867.85 1221.19   2
  -3   3   1 10210.8 1631.29   3
  -3  -3   1 11414.2 2408.06   2
  -3   3   0 10720.0 1786.50   3
  -3  -3   0 10289.0 2265.68   2
  -3  -3  -1 10182.9 2702.12   1
  -3  -3  -2 4421.31 1636.46   1
  -3  -3  -3-670.707 680.527   1
  -3   3  -4 891.817 392.513  12
  -3  -3  -4 1765.86 1045.05   1
  -3  -3  -5 14152.5 3409.15   1
  -3   3  -5 17430.7 1862.89  12
  -3   3  -6 424.892 220.132  12
  -3   3  -7 266.351 262.117  12
  -3   3  -8 184.969 199.248  12
  -3   3  -9 306.106 257.673  12
  -3   3 -10-118.145 86.5982  12
  -3  -4  11-91.2483 241.528   9
   3  -4 -11 197.166 191.691  13
  -3  -4  10 246.378 507.495   9
  -3  -4   9-40.7916 216.640  11
  -3   4   9-279.558 611.988   9
  -3  -4   8-58.8534 330.602  11
  -3   4   8-36.1479 501.709   9
  -3   4   8-0.13891 308.103   5
  -3  -4   7 743.041 463.829  11
  -3   4   7-66.4941 278.771   9
  -3   4   7 428.393 871.168   5
  -3  -4   6 159.704 346.459  11
  -3   4   6 475.111 1004.67   9
  -3   4   6 15.6660 767.829   5
  -3  -4   6-917.778 1086.66   2
  -3   4   5 1288.86 1107.39   9
  -3   4   5 442.649 202.409   5
  -3  -4   5 1613.10 726.984   2
  -3   4   5 0.07824 162.868   6
  -3   4   4 76.9246 547.497   5
  -3  -4   4 670.795 718.963   2
  -3   4   3 825.187 409.090   5
  -3  -4   3 378.342 465.327   2
  -3  -4   2 1341.26 639.869   2
  -3  -4   1 13348.0 2859.27   2
  -3  -4   0 11913.8 2437.61   1
  -3  -4   0 17712.1 2992.95   2
  -3  -4  -1 3036.30 1312.44   1
  -3  -4  -2 3797.68 1790.43   1
  -3  -4  -3 8459.77 2201.56   1
  -3   4  -4-65.4518 169.641  12
  -3  -4  -4 310.000 740.118   1
  -3   4  -5 1223.45 489.349  12
  -3   4  -6 13520.1 1737.74  12
  -3   4  -7-208.571 261.788  12
  -3   4  -8 718.155 359.986  12
  -3   4  -9 402.513 197.153  12
  -3   4 -10 184.099 101.457  12
  -3  -5  11 169.483 170.213   9
   3  -5 -11-58.3069 102.061  13
  -3  -5  10-7.47360 145.182   9
   3  -5 -10 1084.07 476.333  13
  -3  -5   9 173.088 199.062  11
  -3  -5   8 195.324 321.691  11
  -3   5   8-66.9602 544.733   9
  -3   5   8 0.13657 103.068   5
  -3  -5   7 349.105 310.354  11
  -3   5   7 262.628 961.152   9
  -3  -5   6 1823.84 841.827  11
  -3   5   6 660.707 1149.96   9
  -3   5   6 434.341 628.120   5
  -3   5   5-965.204 1077.08   9
  -3   5   5-429.668 589.260   5
  -3  -5   5-775.294 991.927   2
  -3   5   4 446.158 761.526   5
  -3  -5   4 2884.00 1146.91   2
  -3   5   3-115.568 300.177   5
  -3  -5   3 1542.46 1011.23   2
  -3  -5   2 11845.6 2536.70   2
  -3  -5   1 8598.09 2840.34   1
  -3  -5   1 23962.5 5099.93   2
  -3  -5   0 18586.8 3351.13   1
  -3  -5   0 29011.9 4174.98   2
  -3  -5  -1 3127.74 1469.81   1
  -3  -5  -2 1814.72 1022.33   1
  -3  -5  -3 7396.65 2591.09   1
  -3   5  -3 4072.77 833.851  12
  -3  -5  -4 5231.01 1946.93   1
  -3   5  -4 6601.18 1100.33  12
  -3   5  -5-230.941 194.801  12
  -3   5  -6-357.931 341.749  12
  -3   5  -7 324.184 269.080  12
  -3   5  -8 1310.90 520.511  12
  -3   5  -9 12.7677 94.4391  12
  -3   5 -10 128.695 143.331  12
   3  -6 -11 252.503 181.289  13
  -3  -6  10 206.218 503.739   9
   3  -6 -10 76.4697 129.527  13
  -3  -6   9 87.2432 18.3258  11
   3  -6  -9 212.065 284.249  13
  -3  -6   8 1200.41 618.163  11
  -3   6   8 0.12082 616.783   5
  -3  -6   7-88.1779 57.7676  11
  -3   6   7-776.279 599.932   5
  -3  -6   6 299.000 270.756  11
  -3   6   6-90.3694 371.982   9
  -3   6   6 0.11099 244.039   5
  -3  -6   5-1230.08 1208.50   2
  -3   6   5-574.258 509.332   5
  -3  -6   4 2756.96 967.225   7
  -3   6   4 34.5182 237.586   5
  -3  -6   4 2624.99 1228.93   2
  -3  -6   3-152.203 774.824   2
  -3  -6   2 2444.37 1639.98   1
  -3  -6   2 4835.37 1935.61   2
  -3  -6   1 2503.82 1630.02   1
  -3  -6   1 6657.34 2864.34   2
  -3  -6   0 5724.29 2100.90   1
  -3  -6   0 8462.65 2341.35   2
  -3  -6  -1 8565.86 2517.63   1
  -3  -6  -2 20442.0 4351.14   1
  -3  -6  -3-557.700 967.077   1
  -3   6  -3 44.7810 69.4392  12
  -3   6  -4 13662.6 1624.41  12
  -3   6  -5-314.580 313.785  12
  -3   6  -6 1074.05 477.883  12
  -3   6  -7 1417.33 555.663  12
  -3   6  -8-68.0021 130.263  12
  -3   6  -9 134.872 145.284  12
  -3  -7  10-168.021 179.305   9
   3  -7 -10 33.0123 29.9894  13
   3  -7  -9 169.479 279.807  13
  -3  -7   8-373.678 378.978  11
   3  -7  -8-52.1987 194.877  13
  -3  -7   7-172.946 295.003  11
  -3   7   7-0.10714 82.1988   5
  -3  -7   6 523.490 416.405  11
  -3   7   6 815.060 618.694   5
  -3   7   5-926.887 649.561   5
  -3  -7   5 8393.07 1643.02   7
  -3  -7   4 1030.17 519.298   7
  -3  -7   4-464.113 717.491   2
  -3  -7   3-158.834 344.719   2
  -3  -7   3 865.524 446.572   7
  -3  -7   2 401.808 529.237   1
  -3  -7   2 1038.62 548.717   7
  -3  -7   1 115.794 331.538   1
  -3  -7   1 1239.88 589.117  13
  -3  -7   0 2179.79 791.637  13
  -3  -7   0 2303.09 1146.99   1
  -3  -7  -1 885.529 739.445   1
  -3  -7  -1 1508.00 626.728  13
  -3  -7  -2-28.7492 642.783   1
  -3  -7  -2-56.9800 156.740  13
  -3   7  -2-54.6962 91.9567  12
  -3  -7  -3 819.372 1077.75   1
  -3  -7  -3 563.562 356.598  13
  -3   7  -3 626.031 257.503  12
  -3  -7  -4 4759.17 1106.40  13
  -3   7  -4 4904.08 942.057  12
  -3   7  -5 658.491 361.809  12
  -3   7  -6 544.132 216.550  12
  -3   7  -7 529.825 286.872  12
  -3   7  -8 331.502 245.796  12
  -3   7  -9 150.064 183.805  12
  -3  -8  10 142.051 322.924   9
   3  -8 -10 590.619 278.432  13
   3  -8  -9-221.300 238.526  13
  -3  -8   8-34.0346 49.2991  11
   3  -8  -8 411.682 346.569  13
  -3  -8   7 499.567 431.773  11
   3  -8  -7 468.623 329.138  13
  -3  -8   6 211.338 252.275  11
  -3   8   6 0.11435 332.594   5
   3  -8  -6 218.693 223.860  13
  -3  -8   5 1640.22 772.365   7
   3  -8  -5 171.769 179.824  13
  -3   8   4-688.821 531.365   5
  -3  -8   4 2320.22 827.535   7
  -3  -8   3 4981.63 1233.82   7
  -3  -8   2 925.583 493.033   1
  -3  -8   2 6029.76 2907.72   2
  -3  -8   2 4186.56 1093.51   7
  -3  -8   1 1058.00 627.103   2
  -3  -8   1 743.314 416.923  13
  -3  -8   1 342.205 1109.63   1
  -3  -8   0 908.909 579.280  13
  -3  -8   0 544.536 1262.08   1
  -3  -8  -1 280.781 575.258   1
  -3  -8  -1-202.076 300.852  13
  -3  -8  -2 7222.38 1469.50  13
  -3  -8  -3 4450.22 1119.60  13
  -3   8  -3 2120.01 574.511  12
  -3  -8  -4 648.116 392.904  13
  -3   8  -4 621.356 301.576  12
  -3  -8  -5-172.950 281.595  13
  -3   8  -5 357.244 219.187  12
  -3   8  -6-173.795 173.780  12
  -3  -8  -7-65.7062 123.301   6
  -3   8  -7 1037.26 384.444  12
  -3   8  -8 232.609 152.537  12
  -3   8  -9 9.56315 23.4692  12
   3  -9 -10 57.0380 107.597  13
   3  -9  -9 191.682 138.049  13
   3  -9  -8-79.2311 147.684  13
  -3  -9   7-128.778 226.455  11
   3  -9  -7 161.505 176.863  13
  -3  -9   6 323.407 286.623  11
  -3   9   6 0.10985 573.736   5
  -3   9   5-0.10757 287.883   5
  -3  -9   5 358.390 393.861   7
  -3  -9   4 5275.10 1326.23   7
  -3  -9   3 5373.71 1316.51   7
  -3  -9   2 3814.52 1107.23   7
  -3  -9   0 1490.85 696.684  13
  -3  -9  -1 1465.68 710.310  13
  -3  -9  -2 2545.37 887.879  13
  -3  -9  -3 3187.87 982.495  13
  -3  -9  -4-210.450 221.570  13
  -3  -9  -5 5539.18 1181.36  13
  -3   9  -5 3267.85 675.377  12
  -3  -9  -6-40.7385 141.845  13
  -3   9  -6 256.660 185.472  12
  -3  -9  -7-8.29292 76.5620   6
  -3   9  -7 771.422 304.103  12
  -3   9  -8 272.744 138.346  12
   3 -10  -9-127.304 161.904  13
   3 -10  -8 2.27847 122.440  13
  -3 -10   7 588.088 344.836  11
   3 -10  -7 580.370 333.418  13
  -3 -10   6 574.929 392.296  11
   3 -10  -6 817.974 434.243  13
  -3 -10   5 2057.75 773.518   7
  -3 -10   4 821.025 471.978   7
  -3 -10   3 1358.22 614.368   7
  -3 -10   2 2299.24 834.549   7
  -3 -10   0 1926.68 830.758  13
  -3 -10  -1 1105.67 676.009  13
  -3 -10  -2 1670.73 753.375  13
  -3 -10  -3 1768.04 765.649  13
  -3 -10  -4 2856.00 887.409  13
  -3 -10  -5 175.672 205.170  13
  -3 -10  -6 277.546 199.421  13
  -3 -10  -7-176.556 178.506   6
   3 -11  -8 95.6538 156.686  13
   3 -11  -7-27.3536 46.7881  13
  -3 -11   6 918.430 472.373  11
  -3 -11   5 424.702 368.436   7
  -3 -11   4 351.878 414.977   7
  -3  11   3-138.856 183.940   8
  -3 -11   3 66.5327 150.284   7
  -3  11   2 268.162 320.052   8
  -3 -11   2 142.588 246.147   7
  -3 -11   0 274.980 331.437  13
  -3 -11  -1 173.302 208.278  13
  -3 -11  -2-445.005 393.574  13
  -3 -11  -3 444.159 342.946  13
  -3 -11  -4 355.402 356.821  13
  -3 -11  -5 736.934 424.523  13
  -3 -11  -6 327.870 282.644  13
  -3 -11  -7 2.16600 129.461   6
  -3  12   8-36.8900 66.8336   8
  -3  12   7-167.244 158.785   8
  -3  12   6 777.303 358.640   8
  -3 -12   5 839.956 425.042  11
  -3  12   5 349.591 265.097   8
  -3  12   4-485.974 384.793   8
  -3 -12   4 300.393 324.576   7
  -3  12   3-452.575 394.891   8
  -3 -12   3-127.342 129.921   7
  -3  12   2 512.937 401.342   8
  -3 -12   2 483.627 333.932   7
  -3 -12   1 436.458 472.695   6
  -3  12   1 2498.89 813.847   8
  -3 -12   1 2292.96 791.936   7
  -3 -12  -1 503.728 396.267  13
  -3 -12  -2 455.615 431.820  13
  -3 -12  -3 1445.87 636.733  13
  -3 -12  -4 1718.28 651.839  13
  -3 -12  -5 473.732 275.581  13
  -3 -12  -6 113.008 212.450   6
  -3  13   7-166.529 132.700   8
  -3  13   6-267.795 210.728   8
  -3 -13   5-64.6298 95.7182  11
  -3  13   5 53.9777 69.5730   8
  -3  13   4-210.517 269.990   8
  -3 -13   4 310.840 268.179   7
  -3  13   3-444.339 306.996   8
  -3 -13   3 295.152 312.216   7
  -3  13   2 813.118 370.658   8
  -3 -13   2 639.938 378.584   7
  -3  13   1-161.460 134.473   8
  -3 -13   1-483.533 359.925   7
  -3 -13   0 34.6452 97.8505   6
  -3  13   0 685.782 340.102   8
  -3 -13   0 419.825 369.647   7
  -3 -13  -2 1280.72 633.799  13
  -3 -13  -3-328.404 290.116  13
  -3 -13  -4 112.968 91.4912  13
  -3 -13  -6 2.37457 63.2766   6
  -3  14   6 36.2487 77.4972   8
  -3  14   5 655.054 299.927   8
  -3 -14   4-94.8738 119.416  11
  -3  14   4-22.3886 142.226   8
  -3  14   3 118.384 159.172   8
  -3 -14   3 268.249 226.548   7
  -3  14   2-145.766 174.260   8
  -3 -14   2 194.695 182.609   7
  -3  14   1 161.547 151.633   8
  -3 -14   1 109.027 198.793   7
  -3 -14   0-231.903 213.375   6
  -3  14   0-262.743 222.214   8
  -3 -14   0 79.8179 37.6516   7
  -3 -14  -1-80.9878 123.707   7
  -3 -14  -1-39.0366 116.602   6
  -3 -14  -4 174.894 184.915   6
  -3 -14  -5 13.3578 37.5479   6
  -3  15   4-65.2302 39.5052   8
  -3  15   3 151.247 143.683   8
  -3 -15   3 330.386 193.708   7
  -3  15   2 258.931 154.403   8
  -3 -15   2 263.715 215.723   7
  -3  15   1 185.672 144.455   8
  -3 -15   1-18.5832 90.6760   7
  -3 -15   0-213.909 223.488   7
  -3 -15  -1 0.03312 75.8678   6
  -3 -15  -1 296.371 206.390   7
  -3 -15  -2 92.5898 215.177   6
  -3 -15  -2 49.1251 36.8005   7
  -3 -15  -3 49.8870 110.103   6
  -3 -15  -3 71.5156 75.2873   7
  -3 -16   1 166.571 139.245   7
  -3 -16   0 306.372 173.203   7
  -3 -16  -1-17.2704 18.5326   7
  -4   0  10 56.9421 344.451   9
  -4   0   9-36.8369 294.325   9
  -4   0   8 89.4243 185.693  11
  -4   0   8-107.804 441.157   9
  -4   0   7-18.0577 77.1799  11
  -4   0   7 51.8913 253.635   9
  -4   0   6 319.850 312.158   6
  -4   0   6 298.155 355.265  11
  -4   0   5 32.7698 144.301   6
  -4   0   5-128.854 288.352  11
  -4   0   4 428.794 346.726  11
  -4   0   4 82.7292 152.259   6
  -4   0   3 410.711 392.901  11
  -4   0   3-6.71184 49.7571   6
  -4   0   2 4589.69 1946.28   3
  -4   0   2 1404.07 619.590   6
  -4   0   1 1559.59 1235.81   3
  -4   0   1 586.570 464.207   6
  -4   0   0 1838.94 1198.03   3
  -4   0   0 839.850 559.314   6
  -4   0   0 1002.03 406.694  12
  -4   0  -1 575.536 491.634   6
  -4   0  -1 365.190 203.138  12
  -4   0  -2 31.2957 155.595   3
  -4   0  -2 182.180 195.951   6
  -4   0  -2 1.45114 123.263  12
  -4   0  -3 70.6058 282.916   6
  -4   0  -3 101.221 215.442  12
  -4   0  -4 1876.17 635.144  12
  -4   0  -5 23.7071 199.320  12
  -4   0  -6 842.955 354.255  12
  -4   0  -7 118.251 140.340  12
  -4   0  -8-104.787 89.2526  12
  -4   1  10 86.8512 348.625   9
  -4  -1  10-3.52257 163.687   9
  -4   1   9-29.3614 186.676   9
  -4  -1   9-66.7566 361.605   9
  -4  -1   8 27.5802 47.3453  11
  -4   1   8-141.528 730.074   9
  -4  -1   8-82.1701 689.085   9
  -4   1   7 515.627 417.569  11
  -4  -1   7 825.737 568.666  11
  -4   1   7 209.048 653.878   9
  -4   1   6 225.779 260.119  11
  -4  -1   6-156.141 321.413  11
  -4   1   6 289.749 524.325   9
  -4   1   6-39.2427 229.800   6
  -4   1   5-869.614 550.237   6
  -4   1   5-324.244 437.590  11
  -4  -1   5-496.852 398.644   6
  -4  -1   5-99.1658 255.896  11
  -4   1   5-578.273 865.172   9
  -4   1   4 29.9052 98.8673  11
  -4   1   4-106.789 268.440   6
  -4  -1   4-241.380 301.270  11
  -4  -1   4-14.9182 190.843   6
  -4  -1   3 4508.16 1285.58  11
  -4   1   3 5358.15 1472.15   3
  -4   1   3 1915.49 882.533   6
  -4  -1   3 2945.64 1186.26   3
  -4  -1   3 1623.19 844.718   6
  -4   1   2 5107.80 1615.64   3
  -4  -1   2 4416.67 1808.02   3
  -4   1   2 3803.82 1146.50   6
  -4  -1   2 2414.65 949.026   6
  -4   1   1 3395.73 1333.76   3
  -4  -1   1 2701.00 1205.34   3
  -4  -1   1 1877.77 808.444   6
  -4   1   1 2035.88 862.220   6
  -4   1   0 1107.09 523.708   3
  -4   1   0 1343.04 666.083   6
  -4  -1   0 932.918 498.236   6
  -4   1   0 2400.20 739.029  12
  -4   1  -1 2187.63 836.599   3
  -4   1  -1 1810.78 784.740   6
  -4  -1  -1 2474.08 706.858  12
  -4   1  -1 2800.57 739.384  12
  -4  -1  -1 2059.24 896.192   6
  -4  -1  -2-5.89567 73.5380   3
  -4   1  -2-86.4290 165.532   6
  -4  -1  -2 96.2070 154.947   6
  -4  -1  -2-449.317 321.603  12
  -4   1  -2-350.950 380.173  12
  -4  -1  -3 3368.27 801.101  12
  -4   1  -3 4003.36 900.564  12
  -4  -1  -3 3040.57 1076.38   6
  -4  -1  -4 240.758 273.302  12
  -4   1  -4 324.627 223.164  12
  -4  -1  -5 436.855 283.243  12
  -4   1  -5 590.557 331.202  12
  -4  -1  -6 18.2786 134.428  12
  -4   1  -6-11.5646 63.8908  12
  -4  -1  -7 835.488 336.019  12
  -4   1  -7 956.206 403.887  12
  -4  -1  -8 17.2581 83.5934  12
  -4   1  -8 154.075 165.195  12
  -4   1  -9 0.47533 83.3189  12
  -4  -2  10 99.7583 244.316   9
  -4   2   9-78.1559 320.701   9
  -4  -2   9 5.82874 124.231   9
  -4  -2   8 255.413 327.880  11
  -4   2   8 64.6709 61.9576   9
  -4  -2   8-296.967 508.188   9
  -4  -2   7 96.4119 246.291  11
  -4   2   7 29.8165 221.442   9
  -4   2   6 144.417 243.702  11
  -4  -2   6 34.9594 179.231  11
  -4   2   6 140.082 487.998   9
  -4   2   6-240.027 302.805   6
  -4   2   5-246.610 292.526   6
  -4   2   5 112.473 173.173  11
  -4  -2   5 0.07530 56.3486   6
  -4  -2   5 90.9988 214.349  11
  -4   2   5 169.352 379.027   9
  -4   2   4-203.693 273.792   6
  -4   2   4 164.755 275.348  11
  -4  -2   4 335.276 313.919  11
  -4  -2   4 113.239 262.666   6
  -4   2   3 3465.08 1147.74   3
  -4  -2   3 2780.84 985.442  11
  -4   2   3 1500.69 783.023   6
  -4  -2   3 847.785 618.768   6
  -4   2   2 1735.35 1089.61   3
  -4   2   2 1601.47 761.253   6
  -4  -2   2 864.456 638.699   6
  -4   2   1-964.866 639.078   3
  -4   2   1-132.894 270.328   6
  -4  -2   1-745.213 517.442   6
  -4   2   0-1061.72 837.653   3
  -4   2   0 133.170 286.478   6
  -4  -2   0-691.170 461.977   3
  -4  -2   0 201.154 406.980   6
  -4   2   0 373.354 336.304  12
  -4   2  -1 177.391 265.736   6
  -4  -2  -1-1.30736 138.847   6
  -4  -2  -1-195.109 209.739  12
  -4   2  -1 376.027 355.953  12
  -4   2  -2 930.939 540.907   6
  -4  -2  -2 1268.20 650.372   6
  -4  -2  -2 1590.14 532.373  12
  -4   2  -2 2036.92 616.905  12
  -4  -2  -3 108.141 187.782   6
  -4  -2  -3 9.60788 76.4317  12
  -4   2  -3 28.1930 159.900  12
  -4  -2  -4-37.2867 148.629   6
  -4  -2  -4 263.156 201.546  12
  -4   2  -4 305.554 308.621  12
  -4  -2  -5-86.9555 171.209  12
  -4  -2  -6 244.359 124.550  12
  -4   2  -6 341.921 222.744  12
  -4  -2  -7-1.57838 80.1970  12
  -4   2  -7 82.9154 74.6678  12
  -4   2  -8 806.083 337.109  12
  -4   2  -9-269.426 130.610  12
  -4  -3  10-135.526 423.584   9
  -4  -3   9 251.540 233.125  11
  -4   3   9 8.98312 352.308   9
  -4  -3   9 212.108 373.119   9
  -4  -3   8 60.4992 164.138  11
  -4   3   8 219.946 587.383   9
  -4  -3   7-34.2932 229.143  11
  -4   3   7 109.078 519.851   9
  -4  -3   6 555.108 513.002  11
  -4   3   6-5.00450 296.079   9
  -4   3   5 320.425 344.805   6
  -4   3   5 304.454 356.264  11
  -4  -3   5 655.715 508.012  11
  -4   3   5-4.55457 277.641   9
  -4   3   4 273.544 455.514   6
  -4   3   4 923.759 539.712  11
  -4  -3   4 1030.28 631.810  11
  -4  -3   4 35.7836 400.803   6
  -4   3   3 175.131 185.804   6
  -4  -3   3-358.369 352.757   6
  -4   3   2 1262.81 715.426   6
  -4  -3   2 211.329 327.911   6
  -4   3   1 4156.40 1193.55   6
  -4  -3   1 2463.15 923.954   6
  -4   3   0-84.9629 316.447   6
  -4  -3   0-135.536 136.463   6
  -4   3   0 210.330 234.256  12
  -4   3  -1-134.903 206.865   6
  -4  -3  -1 397.214 489.169   3
  -4  -3  -1-94.8288 258.991   6
  -4   3  -1 323.802 158.672  12
  -4   3  -2-195.737 239.077   6
  -4  -3  -2-32.5465 89.7318   6
  -4  -3  -2 127.670 211.800  12
  -4   3  -2-214.213 221.280  12
  -4  -3  -3-69.2792 179.876   6
  -4  -3  -3-84.4962 214.114  12
  -4   3  -3 255.037 191.782  12
  -4  -3  -4-5.22914 105.390   6
  -4  -3  -4 99.1834 169.787  12
  -4   3  -4 24.2447 100.323  12
  -4   3  -5 3438.93 856.456  12
  -4   3  -6 193.991 189.158  12
  -4   3  -7 827.135 369.552  12
  -4   3  -8-262.708 161.008  12
  -4   3  -9 43.5078 94.1567  12
  -4  -4  10 62.3366 220.370   9
   4  -4 -10 42.4451 68.5259  13
  -4  -4   9 147.273 161.171  11
  -4  -4   9 53.0422 456.771   9
  -4  -4   8 20.8151 22.6481  11
  -4   4   8 36.5454 311.740   9
  -4  -4   7 319.544 302.109  11
  -4   4   7 234.573 337.824   9
  -4  -4   6-78.4010 274.632  11
  -4   4   6-985.473 1015.64   9
  -4  -4   5 100.783 241.840  11
  -4   4   5-253.265 836.415   9
  -4   4   5 180.519 168.236   6
  -4   4   4 1270.61 628.970   6
  -4  -4   4 2089.91 942.538  11
  -4  -4   4 661.592 456.763   6
  -4   4   3 2141.54 888.120   6
  -4  -4   3 740.303 642.757   6
  -4   4   2 1052.39 641.975   6
  -4  -4   2 666.963 508.377   6
  -4   4   1 4721.59 1291.37   6
  -4  -4   1 2823.77 1072.19   6
  -4   4   0 1569.11 673.365   6
  -4  -4   0 1229.50 671.456   6
  -4   4   0 1925.69 648.537  12
  -4   4  -1 715.019 532.556   6
  -4  -4  -1 891.681 575.819   6
  -4   4  -1 1527.92 573.123  12
  -4   4  -2 11760.7 1556.55  12
  -4  -4  -2 10650.5 2125.27   6
  -4  -4  -3-504.145 485.282   6
  -4   4  -3-216.996 244.013  12
  -4  -4  -4 1415.07 691.446   6
  -4   4  -4 3293.76 863.398  12
  -4  -4  -5 99.5970 242.745   6
  -4   4  -5 895.884 474.478  12
  -4   4  -6 5230.26 1080.12  12
  -4   4  -7-99.1000 115.092  12
  -4   4  -8 78.1561 78.9302  12
  -4  -5  10 90.6959 237.178   9
   4  -5 -10-57.7338 42.4340  13
  -4  -5   9 677.741 394.871  11
  -4  -5   9 227.964 474.444   9
   4  -5  -9 101.646 135.729  13
  -4  -5   8 226.560 250.928  11
  -4  -5   7 671.136 462.725  11
  -4  -5   6-102.219 242.045  11
  -4  -5   5-263.919 348.485  11
  -4  -5   4-312.925 309.113   6
  -4  -5   4-219.166 265.230   7
  -4   5   4 620.890 618.279   6
  -4   5   3 1776.00 889.933   6
  -4  -5   3 67.6864 233.326   6
  -4  -5   3 1746.07 709.544   7
  -4   5   2 2460.10 931.304   6
  -4  -5   2 1011.59 634.021   6
  -4  -5   1 1722.32 824.604   6
  -4   5   1 3022.35 1044.93   6
  -4   5   0 4009.23 923.148  12
  -4   5   0 2786.59 970.266   6
  -4  -5   0 3257.28 1205.17   6
  -4   5  -1 697.162 448.961   6
  -4  -5  -1 1460.85 760.082   6
  -4   5  -1 874.012 413.187  12
  -4  -5  -2 104.151 298.177   6
  -4   5  -2 43.5346 152.709  12
  -4   5  -3 4771.63 1019.43  12
  -4  -5  -3 3541.32 1192.04   6
  -4  -5  -4 849.652 548.006   6
  -4   5  -4 1329.52 508.983  12
  -4  -5  -5-63.5618 47.4360   6
  -4   5  -5 25.5229 190.787  12
  -4   5  -6 164.469 125.232  12
  -4   5  -7 178.225 176.605  12
  -4   5  -8 0.02186 87.4015  12
  -4  -6  10 122.765 281.681   9
  -4  -6   9 259.212 198.278  11
   4  -6  -9 501.537 266.571  13
  -4  -6   8 158.962 154.063  11
   4  -6  -8-70.1558 91.3068  13
  -4  -6   7 316.050 389.317  11
  -4  -6   6 111.705 151.894  11
  -4  -6   5 301.501 341.618  11
  -4  -6   4 348.392 413.225   7
  -4  -6   3 4124.27 1118.36   7
  -4   6   3 2156.24 1005.45   6
  -4  -6   2 168.080 268.578   6
  -4   6   2 128.817 272.024   6
  -4   6   1 2172.36 880.581   6
  -4  -6   1 1025.25 619.601   6
  -4   6   0 1475.36 729.769   6
  -4  -6   0 1300.64 729.834   6
  -4   6  -1 5753.75 1068.82  12
  -4   6  -1 3896.62 1236.78   6
  -4  -6  -1 7082.63 1726.35   6
  -4  -6  -2 753.195 563.385   6
  -4   6  -2 643.735 281.885  12
  -4  -6  -3 1214.89 723.945   6
  -4   6  -3 1632.33 582.845  12
  -4  -6  -4 717.120 519.733   6
  -4   6  -4 1283.91 526.744  12
  -4  -6  -5-71.5479 170.379   6
  -4   6  -5 5.55064 43.3476  12
  -4  -6  -6-107.477 152.971   6
  -4   6  -6 191.958 153.003  12
  -4   6  -7 580.704 305.107  12
  -4   6  -8 80.1150 72.8845  12
   4  -7  -9 77.9412 88.2006  13
  -4  -7   8-80.6400 127.705  11
   4  -7  -8-270.532 235.789  13
  -4  -7   7 124.715 239.695  11
   4  -7  -7 67.3685 102.674  13
  -4  -7   6 265.960 345.629  11
   4  -7  -6-51.2849 93.4337  13
  -4  -7   5 465.320 443.104  11
  -4  -7   4-167.516 287.588   7
  -4  -7   3 32.0770 209.084   6
  -4  -7   3 1610.44 703.326   7
  -4  -7   2 381.239 327.775   6
  -4  -7   2 5766.06 1344.64   7
  -4  -7   1 570.803 417.769   6
  -4  -7   1 459.556 360.056   7
  -4  -7   0 9376.03 1658.66   7
  -4  -7   0 8477.31 1997.67   6
  -4  -7  -1 1962.76 901.534   6
  -4   7  -1 1676.86 523.113  12
  -4   7  -2 5064.50 959.846  12
  -4  -7  -2 6396.10 1663.70   6
  -4  -7  -3 61.2678 142.193   6
  -4   7  -3-91.1843 94.2546  12
  -4   7  -4 2456.34 669.626  12
  -4  -7  -4 1837.15 866.298   6
  -4  -7  -5 22.9017 76.0163   6
  -4   7  -5 302.988 229.963  12
  -4  -7  -6 42.6439 211.037   6
  -4   7  -6-164.632 165.543  12
  -4   7  -7 565.526 227.724  12
  -4  -8   9-136.317 274.229   9
  -4  -8   8-133.743 130.265  11
   4  -8  -8-100.755 178.414  13
  -4  -8   7-19.3425 56.0868  11
   4  -8  -7-438.546 242.476  13
  -4  -8   6 628.168 468.740  11
  -4  -8   5 168.584 317.018  11
  -4  -8   4 348.485 395.422   7
  -4  -8   3 145.602 208.214   6
  -4  -8   3 3031.71 961.936   7
  -4  -8   2 172.288 237.658   6
  -4  -8   2 3328.38 1020.49   7
  -4  -8   1 177.842 265.112   6
  -4  -8   1 357.580 344.957   7
  -4  -8   0 1758.35 847.503   6
  -4  -8   0 2384.23 811.662   7
  -4  -8  -1 358.480 334.861   6
  -4  -8  -2 887.690 604.076   6
  -4   8  -2 772.950 338.263  12
  -4  -8  -3 1079.79 627.949   6
  -4   8  -3 588.353 258.292  12
  -4  -8  -4 16.4930 201.947   6
  -4   8  -4-324.379 262.747  12
  -4  -8  -5-68.2848 162.579   6
  -4   8  -5 77.0361 82.2537  12
  -4  -8  -6 73.2440 197.715   6
  -4   8  -6-110.046 115.829  12
  -4   8  -7 534.478 188.949  12
  -4  -9   8-169.288 134.719  11
  -4  -9   7-15.9551 49.2839  11
  -4  -9   6 338.244 319.213  11
  -4  -9   5 1471.87 731.833  11
  -4  -9   4 137.863 222.556   7
  -4  -9   3 1482.87 691.412   7
  -4  -9   2 31.9448 194.564   6
  -4  -9   2-154.190 218.861   7
  -4  -9   1 550.925 451.271   6
  -4  -9   1 2836.99 919.457   7
  -4  -9   0-315.827 437.006   6
  -4  -9   0 51.9961 291.252   7
  -4  -9  -1 1636.48 866.703   6
  -4  -9  -2 668.566 560.352   6
  -4  -9  -3 120.256 265.740   6
  -4  -9  -4 165.020 224.060   6
  -4   9  -4 174.031 181.741  12
  -4  -9  -5-91.7508 94.0625   6
  -4   9  -5 588.416 298.422  12
  -4  -9  -6-32.6368 71.3103   6
  -4   9  -6-0.01631 48.0027  12
  -4 -10   7 4.01540 98.8592  11
  -4 -10   6 156.922 210.562  11
  -4 -10   5 510.071 374.926  11
  -4 -10   4 240.183 299.791   7
  -4 -10   3 145.325 60.2298   7
  -4 -10   2 110.159 261.875   6
  -4 -10   2 793.707 451.628   7
  -4 -10   1 219.691 287.596   6
  -4 -10   1 1091.87 548.340   7
  -4 -10   0 257.184 328.801   6
  -4 -10   0 802.013 476.901   7
  -4 -10  -1-138.099 316.044   6
  -4 -10  -1 66.1250 178.487   7
  -4 -10  -2-65.5594 148.473   6
  -4 -10  -3 524.390 400.165   6
  -4 -10  -4 105.754 192.753   6
  -4 -10  -5-200.668 211.183   6
  -4 -10  -6-0.02803 130.223   6
  -4 -11   6-53.3342 86.6624  11
  -4 -11   5 211.861 208.965  11
  -4 -11   4 966.449 475.525   7
  -4 -11   3 527.706 352.063   7
  -4 -11   2 139.232 222.609   7
  -4 -11   1 153.223 190.672   6
  -4 -11   1 989.404 502.560   7
  -4 -11   0-106.853 161.985   6
  -4 -11   0 7.52892 124.418   7
  -4 -11  -1 369.586 321.577   6
  -4 -11  -1-86.9370 165.165   7
  -4 -11  -2 320.443 325.073   6
  -4 -11  -2 608.041 324.149   7
  -4 -11  -3-238.098 328.733   6
  -4 -11  -3 245.854 209.291   7
  -4 -11  -4-217.235 196.304   6
  -4 -11  -5 28.2778 45.7256   6
  -4 -12   5 134.649 174.473  11
  -4 -12   4 157.584 178.992  11
  -4 -12   3-141.861 186.640   7
  -4 -12   2-44.0292 24.1428   7
  -4 -12   1 36.2872 239.942   6
  -4 -12   1 270.093 289.805   7
  -4 -12   0 77.7116 123.983   6
  -4 -12   0 31.3944 39.1566   7
  -4 -12  -1 0.05599 102.065   6
  -4 -12  -1 211.508 190.651   7
  -4 -12  -2-162.268 196.081   6
  -4 -12  -2 247.335 233.394   7
  -4 -12  -3 333.768 274.380   6
  -4 -12  -3 880.079 336.535   7
  -4 -12  -4 100.045 124.413   6
  -4 -13   4 124.360 141.510  11
  -4 -13   3-15.2422 105.320   7
  -4 -13   2 679.606 336.440   7
  -4 -13   1-360.678 252.811   7
  -4 -13   0 11.5115 22.7997   6
  -4 -13   0 486.868 280.840   7
  -4 -13  -1 118.130 191.026   6
  -4 -13  -1 13.3235 108.556   7
  -4 -13  -2 196.337 267.056   6
  -4 -13  -2-3.26794 87.2680   7
  -4 -13  -3 19.9981 108.224   6
  -4 -14   2-14.8186 25.5277   7
  -4 -14   1 106.676 88.3012   7
  -4 -14   0 27.4513 96.9833   7
  -4 -14  -1 106.735 117.573   7
  -5   0   8-81.4674 284.405   9
  -5   0   7 17.9540 342.128   9
  -5   0   6 1611.03 685.684  11
  -5   0   5 294.750 487.588   6
  -5   0   5 26.0312 95.8896  11
  -5   0   4 1161.30 688.342   6
  -5   0   4 1539.15 663.328  11
  -5   0   3-47.8018 155.788   6
  -5   0   2 8770.07 1980.78   6
  -5   0   1 426.359 390.312   6
  -5   0   0 10159.7 2085.57   6
  -5   0  -1-63.0807 229.319   6
  -5   0  -2 1072.93 606.261   6
  -5   0  -3 151.926 201.010   6
  -5  -1   8-65.7032 250.153   9
  -5  -1   7-20.0711 98.7434  11
  -5   1   7-158.498 451.348   9
  -5  -1   7 167.286 196.019   9
  -5  -1   6-53.1773 11.2099  11
  -5  -1   6 63.5925 160.662   6
  -5   1   5 638.327 443.194   6
  -5  -1   5 430.569 411.359   6
  -5   1   5 395.853 288.449  11
  -5  -1   5 749.042 516.844  11
  -5   1   4 1708.49 821.550   6
  -5   1   4 1741.35 686.022  11
  -5  -1   4 1940.52 876.460   6
  -5  -1   4 1730.47 708.257  11
  -5   1   3-220.970 408.502   6
  -5  -1   3-185.307 253.040  11
  -5  -1   3-491.088 420.893   6
  -5   1   2 1490.79 811.700   6
  -5  -1   2 1498.40 869.769   6
  -5   1   1 363.952 374.029   6
  -5  -1   1 540.356 456.735   6
  -5   1   0 1487.68 749.979   6
  -5  -1   0 1404.84 821.968   6
  -5   1  -1-260.559 388.028   6
  -5  -1  -1-363.960 387.701   6
  -5   1  -2 1546.00 676.539   6
  -5  -1  -2 2097.25 888.629   6
  -5   1  -3 275.600 361.530   6
  -5  -1  -3 272.726 257.032   6
  -5   1  -3 448.545 298.531  12
  -5   1  -4-29.4770 111.842  12
  -5   1  -5 91.1375 60.3668  12
  -5  -2   8-4.22716 138.939   9
  -5  -2   7 344.209 311.210  11
  -5  -2   7 128.760 370.393   9
  -5  -2   6 1725.15 719.304  11
  -5  -2   6 623.330 728.309   9
  -5  -2   5 376.788 331.150   6
  -5  -2   5 320.634 282.740  11
  -5   2   5 427.280 376.703   6
  -5   2   4 1523.29 727.790   6
  -5  -2   4 1313.67 634.439  11
  -5  -2   4 1054.79 645.786   6
  -5   2   3-174.132 266.770   6
  -5  -2   3 11.8886 85.7546  11
  -5  -2   3-277.679 267.354   6
  -5   2   2 2264.29 942.012   6
  -5  -2   2 1577.43 755.711   6
  -5   2   1 2098.62 858.256   6
  -5  -2   1 1914.43 896.475   6
  -5   2   0 1934.25 875.081   6
  -5  -2   0 2672.23 1024.03   6
  -5   2  -1 678.411 562.589   6
  -5  -2  -1-96.6504 322.217   6
  -5   2  -2 629.263 398.329   6
  -5  -2  -2 741.442 467.287   6
  -5  -2  -3 556.542 431.213   6
  -5   2  -3 1195.48 505.996  12
  -5  -2  -4 773.298 518.947   6
  -5   2  -4 3131.58 761.898  12
  -5   2  -5 105.925 147.530  12
  -5   2  -6 118.848 157.404  12
  -5  -3   8-21.3108 90.5923   9
  -5  -3   7 167.963 199.317  11
  -5  -3   7 137.106 404.263   9
  -5  -3   6 409.850 351.109  11
  -5  -3   6 286.062 475.884   9
  -5  -3   5 435.340 410.610   6
  -5  -3   5 1189.22 613.404  11
  -5   3   4 842.079 581.720   6
  -5  -3   4 867.738 520.206  11
  -5  -3   4 772.226 508.714   6
  -5   3   3 1831.34 913.482   6
  -5  -3   3 1697.02 699.977  11
  -5  -3   3 1412.07 682.059   6
  -5   3   2 480.319 431.886   6
  -5  -3   2 94.9745 130.338  11
  -5  -3   2 719.677 494.660   6
  -5   3   1 2211.76 939.780   6
  -5  -3   1 1885.45 882.852   6
  -5   3   0 404.295 342.846   6
  -5  -3   0-106.021 234.081   6
  -5   3  -1 984.257 567.276   6
  -5  -3  -1 1263.57 739.753   6
  -5   3  -2 674.411 449.003   6
  -5  -3  -2 1105.47 631.036   6
  -5  -3  -3 1004.63 535.945   6
  -5   3  -3 1569.65 577.179  12
  -5  -3  -4-64.6655 176.556   6
  -5   3  -4 640.367 307.674  12
  -5   3  -5 136.740 132.433  12
  -5   3  -6 88.6757 107.325  12
  -5  -4   8 51.4759 89.2003  11
  -5  -4   8 168.018 317.114   9
   5  -4  -8 145.408 106.320  13
  -5  -4   7 333.132 312.337  11
  -5  -4   7 1.98321 209.698   9
  -5  -4   6-361.231 360.231  11
  -5  -4   5-223.251 223.679   6
  -5  -4   5-59.6496 191.610  11
  -5  -4   4 341.443 338.530  11
  -5  -4   4-36.4674 76.0017   6
  -5   4   4-4.25547 223.080   6
  -5   4   3 2148.11 1058.14   6
  -5  -4   3 1278.37 623.306  11
  -5  -4   3 1114.62 637.223   6
  -5   4   2-284.136 441.838   6
  -5  -4   2 369.357 342.632  11
  -5  -4   2 241.144 306.189   6
  -5   4   1 1056.63 570.965   6
  -5  -4   1 138.414 265.792   6
  -5   4   0 575.982 463.038   6
  -5  -4   0-183.298 407.759   6
  -5   4  -1 244.183 148.248   6
  -5  -4  -1 1006.72 654.794   6
  -5  -4  -2-3.39776 126.366   6
  -5  -4  -3-83.4688 208.673   6
  -5   4  -3 38.3164 64.4939  12
  -5  -4  -4 47.9904 228.447   6
  -5   4  -4 193.950 166.564  12
  -5   4  -5 329.053 230.693  12
  -5  -5   8 147.669 169.133  11
  -5  -5   8-15.4955 173.308   9
  -5  -5   7 333.856 261.654  11
  -5  -5   7-11.5004 162.834   9
  -5  -5   6 286.362 309.812  11
  -5  -5   5 66.1536 189.454  11
  -5  -5   4-64.1758 38.7302  11
  -5  -5   4-49.1110 182.250   6
  -5  -5   3-112.751 289.967  11
  -5  -5   3 222.905 225.574   6
  -5  -5   2 3697.07 1062.80  11
  -5  -5   2 2993.96 1011.90   6
  -5   5   2 3834.89 1228.79   6
  -5  -5   1 5296.82 1468.54   6
  -5   5   1 4658.49 1253.63   6
  -5  -5   0 2898.90 1069.38   6
  -5   5   0 3715.93 1125.15   6
  -5  -5  -1-134.705 117.276   6
  -5   5  -1-153.725 267.599   6
  -5  -5  -2-55.4056 159.067   6
  -5  -5  -3 284.933 356.950   6
  -5  -5  -4-135.147 184.531   6
  -5  -6   7 42.9255 100.877  11
  -5  -6   7 39.5866 254.256   9
  -5  -6   6 141.610 157.543  11
  -5  -6   5 276.067 273.683  11
  -5  -6   4-77.1232 130.429   6
  -5  -6   4 168.299 225.272  11
  -5  -6   3 1025.71 572.716  11
  -5  -6   3 883.897 486.293   6
  -5  -6   2 1183.38 619.232  11
  -5  -6   2 1304.42 658.783   6
  -5  -6   1-197.282 268.375   6
  -5  -6   0 1103.03 633.762   6
  -5  -6  -1 1480.00 755.551   6
  -5  -6  -2 295.554 180.170   6
  -5  -6  -3 64.8032 134.794   6
  -5  -6  -4-183.225 172.247   6
  -5  -6  -5-0.02871 102.808   6
  -5  -7   7-131.374 145.807  11
  -5  -7   7 81.8405 224.504   9
  -5  -7   6 330.656 283.482  11
  -5  -7   5 612.365 399.855  11
  -5  -7   4 330.876 299.892  11
  -5  -7   3 75.5832 124.915  11
  -5  -7   3-64.8905 224.954   6
  -5  -7   2 1744.98 712.410   6
  -5  -7   1 278.986 287.959   6
  -5  -7   0 3769.70 1162.85   6
  -5  -7  -1-111.776 140.837   6
  -5  -7  -2 312.617 303.159   6
  -5  -7  -3 446.251 332.435   6
  -5  -7  -4 244.633 289.431   6
  -5  -8   7 411.148 212.311  11
  -5  -8   6-249.700 198.336  11
  -5  -8   5 113.709 167.301  11
  -5  -8   4-116.732 190.341  11
  -5  -8   3 706.299 459.576  11
  -5  -8   3 45.4442 249.256   6
  -5  -8   2 396.474 286.919   6
  -5  -8   1 191.395 139.620   6
  -5  -8   0 195.945 232.221   6
  -5  -8  -1 373.421 365.828   6
  -5  -8  -2 73.6417 39.2487   6
  -5  -8  -3 60.0528 125.059   6
  -5  -8  -4-113.713 162.142   6
  -5  -9   6 165.272 158.566  11
  -5  -9   5 245.054 219.875  11
  -5  -9   4 475.006 310.643  11
  -5  -9   3 332.324 273.792  11
  -5  -9   2 1174.23 536.596  11
  -5  -9   2 288.123 349.771   6
  -5  -9   1-247.704 240.544   6
  -5  -9   1-263.981 214.144   7
  -5  -9   0 446.450 349.001   6
  -5  -9  -1 82.9011 121.856   6
  -5  -9  -2 305.514 282.603   6
  -5  -9  -3 237.332 244.174   6
  -5  -9  -4-83.3265 98.0117   6
  -5 -10   5 55.8081 91.3786  11
  -5 -10   4 226.863 178.878  11
  -5 -10   3 356.732 232.147  11
  -5 -10   2 387.813 269.512  11
  -5 -10   2 0.03000 79.3385   6
  -5 -10   1 162.359 250.594   6
  -5 -10   0 161.619 189.502   6
  -5 -10  -1 4.47054 29.0059   6
  -5 -10  -2 30.1577 71.3168   6
  -5 -10  -3 97.5085 164.633   6
  -5 -11   3-98.7971 121.149  11
  -5 -11   2 505.158 269.434  11
  -5 -11   1 64.1227 100.168  11
  -5 -11   0 298.369 186.316  11
  -5 -11   0 0.34353 94.5779   6
  -5 -11  -1-75.9489 96.6831   6
  -5 -11  -2 5.29854 95.6012   6
  -6   0   4-155.533 174.103   6
  -6   0   3 87.5491 190.474   6
  -6   0   2-241.044 280.252   6
  -6   0   1-18.2043 112.168   6
  -6   0   0 246.278 236.161   6
  -6   0  -1-127.960 215.607   6
  -6   0  -2-0.03217 139.886   6
  -6  -1   4-213.054 198.250   6
  -6   1   3 235.987 158.514   6
  -6  -1   3 157.914 180.212   6
  -6   1   2 625.958 434.423   6
  -6  -1   2 188.699 195.980   6
  -6   1   1 183.793 273.658   6
  -6  -1   1-220.220 262.310   6
  -6   1   0 385.695 238.737   6
  -6  -1   0 367.274 272.082   6
  -6   1  -1 148.085 272.420   6
  -6  -1  -1-226.833 228.351   6
  -6  -1  -2-74.7154 103.095   6
  -6   1  -2-0.02807 92.9209   6
  -6  -2   4-53.2679 94.3405   6
  -6  -2   3 270.633 309.781   6
  -6   2   3 190.189 204.492   6
  -6  -2   2 154.268 226.049   6
  -6   2   2-198.466 258.012   6
  -6   2   1 452.422 403.296   6
  -6  -2   1 594.683 351.440   6
  -6   2   0 530.017 370.615   6
  -6  -2   0 509.635 322.119   6
  -6  -2  -1-118.851 152.520   6
  -6   2  -1 4.47672 26.6289   6
  -6  -2  -2 33.3824 106.942   6
  -6  -3   4 52.5602 86.3565   6
  -6  -3   3 337.494 273.858   6
  -6  -3   2-220.393 226.288   6
  -6  -3   1-72.2959 135.921   6
  -6   3   1 145.255 175.225   6
  -6  -3   0-42.7543 119.290   6
  -6   3   0-187.055 140.589   6
  -6  -3  -1 370.256 319.090   6
  -6  -3  -2 54.4768 161.040   6
  -6  -4   4 0.05339 238.962   6
  -6  -4   3 20.0977 57.1424   6
  -6  -4   2-96.1218 136.032   6
  -6  -4   1 188.593 171.435   6
  -6  -4   0-128.710 182.493   6
  -6  -4  -1-140.485 173.129   6
  -6  -4  -2 56.9073 163.394   6
  -6  -5   3-71.6293 95.2751   6
  -6  -5   2 44.5716 100.416   6
  -6  -5   1 131.297 192.126   6
  -6  -5   0-58.7697 101.439   6
  -6  -5  -1 64.0142 99.2847   6
  -6  -5  -2 1.13340 20.7887   6
  -6  -6   2-98.8509 110.815   6
  -6  -6   1 37.4372 127.030   6
  -6  -6   0 17.0924 110.046   6
  -6  -6  -1 25.6018 63.9213   6
  -6  -7   1 0.02456 93.2520   6
  -6  -7   0-150.327 125.728   6
   0   0   0    0.00    0.00   0
TITL ddLiInicDMFtoCS2 in P2(1)/m
REM P2(1)/m (#11 in standard setting)
CELL 1.54184   5.203773  14.516493  10.295430  90.0000  96.1430  90.0000
ZERR    4.00   0.001446   0.007300   0.004743   0.0000   0.0375   0.0000
LATT  1
SYMM -x, y+1/2,-z
SFAC C H Li N O
UNIT 24.00 16.00 4.00 4.00 8.00
TREF
HKLF 4
END
;
_shelx_hkl_checksum              83274
#END Tags that were not found in dictionaries
loop_
_space_group_symop_operation_xyz
'x, y, z'
'-x, y+1/2, -z+1/2'
'-x, -y, -z'
'x, -y-1/2, z-1/2'
loop_
_atom_site_label
_atom_site_type_symbol
_atom_site_fract_x
_atom_site_fract_y
_atom_site_fract_z
_atom_site_U_iso_or_equiv
_atom_site_adp_type
_atom_site_occupancy
_atom_site_site_symmetry_order
_atom_site_calc_flag
_atom_site_refinement_flags_posn
_atom_site_refinement_flags_adp
_atom_site_refinement_flags_occupancy
S1 S 0.1863(16) 0.9790(5) 0.8971(7) 0.102(2) Uani 0.5 1 d . . P
C1S C 0.0000 1.0000 1.0000 0.091(9) Uiso 0.5 2 d S . P
O2 O 0.387(2) 1.0463(7) 0.5941(11) 0.111(4) Uani 1 1 d . . .
O1 O 0.004(2) 1.1153(7) 0.5839(12) 0.109(3) Uani 1 1 d . . .
N1 N 0.564(3) 1.3280(9) 0.8709(15) 0.114(4) Uani 1 1 d . . .
C1 C 0.679(4) 1.2476(10) 0.8695(15) 0.109(5) Uani 1 1 d . . .
H1 H 0.8337 1.2377 0.9257 0.131 Uiso 1 1 calc R U .
C3 C 0.341(4) 1.1880(10) 0.7086(16) 0.109(5) Uani 1 1 d . . .
C6 C 0.225(4) 1.1113(10) 0.6244(18) 0.111(5) Uani 1 1 d . . .
C4 C 0.231(3) 1.2701(10) 0.7101(19) 0.114(5) Uani 1 1 d . . .
H4 H 0.0799 1.2814 0.6518 0.137 Uiso 1 1 calc R U .
C2 C 0.579(3) 1.1756(10) 0.7868(16) 0.106(4) Uani 1 1 d . . .
H2 H 0.6712 1.1193 0.7836 0.128 Uiso 1 1 calc R U .
C5 C 0.327(4) 1.3415(12) 0.7944(19) 0.120(5) Uani 1 1 d . . .
H5 H 0.2342 1.3975 0.7994 0.144 Uiso 1 1 calc R U .
Li1 Li 0.685(6) 1.4343(17) 0.998(2) 0.104(7) Uani 1 1 d . . .
loop_
_atom_site_aniso_label
_atom_site_aniso_U_11
_atom_site_aniso_U_22
_atom_site_aniso_U_33
_atom_site_aniso_U_23
_atom_site_aniso_U_13
_atom_site_aniso_U_12
S1 0.128(5) 0.075(3) 0.096(4) 0.023(3) -0.024(3) -0.022(3)
O2 0.123(8) 0.075(5) 0.129(7) -0.011(5) -0.010(6) 0.000(5)
O1 0.102(7) 0.080(6) 0.141(8) -0.009(5) -0.010(6) 0.008(5)
N1 0.128(9) 0.080(7) 0.128(10) -0.003(7) -0.014(7) -0.004(7)
C1 0.140(12) 0.074(8) 0.110(10) 0.001(7) -0.003(9) 0.001(8)
C3 0.147(13) 0.076(8) 0.102(9) 0.008(7) 0.000(8) -0.007(8)
C6 0.130(13) 0.072(8) 0.130(12) 0.004(7) 0.018(10) -0.007(8)
C4 0.118(11) 0.075(8) 0.143(13) -0.003(8) -0.015(9) -0.016(7)
C2 0.130(11) 0.069(7) 0.117(10) -0.004(7) 0.000(8) -0.004(7)
C5 0.133(12) 0.089(9) 0.131(12) -0.012(9) -0.018(10) 0.013(9)
Li1 0.15(2) 0.083(12) 0.079(11) 0.014(10) -0.001(11) 0.002(13)
loop_
_atom_type_symbol
_atom_type_description
_atom_type_scat_dispersion_real
_atom_type_scat_dispersion_imag
_atom_type_scat_source
C C 0.0181 0.0091 'International Tables Vol C Tables 4.2.6.8 and 6.1.1.4'
H H 0.0000 0.0000 'International Tables Vol C Tables 4.2.6.8 and 6.1.1.4'
Li Li 0.0008 0.0003 'International Tables Vol C Tables 4.2.6.8 and 6.1.1.4'
N N 0.0311 0.0180 'International Tables Vol C Tables 4.2.6.8 and 6.1.1.4'
O O 0.0492 0.0322 'International Tables Vol C Tables 4.2.6.8 and 6.1.1.4'
S S 0.3331 0.5567 'International Tables Vol C Tables 4.2.6.8 and 6.1.1.4'
loop_
_geom_angle_atom_site_label_1
_geom_angle_atom_site_label_2
_geom_angle_atom_site_label_3
_geom_angle
_geom_angle_site_symmetry_1
_geom_angle_site_symmetry_3
S1 C1S S1 180.0 3_577 .
C6 O2 Li1 129.3(14) . 2_646
C6 O2 Li1 125.2(13) . 4_585
Li1 O2 Li1 89.7(13) 2_646 4_585
C6 O1 Li1 153.9(14) . 4_485
C1 N1 C5 119.6(14) . .
C1 N1 Li1 123.9(13) . .
C5 N1 Li1 116.0(13) . .
N1 C1 C2 121.6(15) . .
C4 C3 C2 117.5(15) . .
C4 C3 C6 122.0(16) . .
C2 C3 C6 120.5(15) . .
O1 C6 O2 124.8(16) . .
O1 C6 C3 118.8(16) . .
O2 C6 C3 116.2(16) . .
C3 C4 C5 122.9(15) . .
C1 C2 C3 119.5(15) . .
C4 C5 N1 118.5(15) . .
O2 Li1 O1 131.3(16) 2_656 4_686
O2 Li1 O2 90.3(13) 2_656 4_586
O1 Li1 O2 120.8(12) 4_686 4_586
O2 Li1 N1 107.0(11) 2_656 .
O1 Li1 N1 101.5(13) 4_686 .
O2 Li1 N1 102.9(14) 4_586 .
O2 Li1 Li1 45.9(8) 2_656 3_687
O1 Li1 Li1 146.1(17) 4_686 3_687
O2 Li1 Li1 44.4(10) 4_586 3_687
N1 Li1 Li1 111.3(16) . 3_687
loop_
_geom_bond_atom_site_label_1
_geom_bond_atom_site_label_2
_geom_bond_distance
_geom_bond_site_symmetry_2
S1 C1S 1.541(10) .
C1S S1 1.541(10) 3_577
O2 C6 1.32(2) .
O2 Li1 1.90(2) 2_646
O2 Li1 1.95(3) 4_585
O1 C6 1.18(2) .
O1 Li1 1.94(3) 4_485
N1 C1 1.31(2) .
N1 C5 1.40(2) .
N1 Li1 2.08(3) .
C1 C2 1.41(2) .
C3 C4 1.32(2) .
C3 C2 1.42(2) .
C3 C6 1.50(2) .
C4 C5 1.41(2) .
Li1 O2 1.90(2) 2_656
Li1 O1 1.94(3) 4_686
Li1 O2 1.95(3) 4_586
Li1 Li1 2.71(6) 3_687
