#------------------------------------------------------------------------------
#$Date: 2016-03-23 22:30:31 +0200 (Wed, 23 Mar 2016) $
#$Revision: 179483 $
#$URL: svn://www.crystallography.net/cod/cif/4/33/80/4338029.cif $
#------------------------------------------------------------------------------
#
# This file is available in the Crystallography Open Database (COD),
# http://www.crystallography.net/
#
# All data on this site have been placed in the public domain by the
# contributors.
#
data_4338029
loop_
_publ_author_name
'Pedersen, Kasper S.'
'Sigrist, Marc'
'Weihe, H\/ogni'
'Bond, Andrew D.'
'Thuesen, Christian Aa'
'Simonsen, Kim P.'
'Birk, Torben'
'Mutka, Hannu'
'Barra, Anne-Laure'
'Bendix, Jesper'
_publ_section_title
;
 Magnetic Interactions through Fluoride: Magnetic and Spectroscopic
 Characterization of Discrete, Linearly Bridged
 [Mn(III)2(\m-F)F4(Me3tacn)2](PF6).
;
_journal_issue                   10
_journal_name_full               'Inorganic chemistry'
_journal_page_first              5013
_journal_page_last               5019
_journal_paper_doi               10.1021/ic500049w
_journal_volume                  53
_journal_year                    2014
_chemical_formula_moiety         'C18 H42 F5 Mn2 N6 +, F6 P -'
_chemical_formula_sum            'C18 H42 F11 Mn2 N6 P'
_chemical_formula_weight         692.42
_chemical_name_systematic
;
mu-fluorido-bis(difluorido-1,4,7-trimethyltriazacyclononane-manganese(III))
hexafluorophosphate
;
_space_group_crystal_system      triclinic
_space_group_IT_number           2
_space_group_name_Hall           '-P 1'
_space_group_name_H-M_alt        'P -1'
_symmetry_space_group_name_Hall  '-P 1'
_symmetry_space_group_name_H-M   'P -1'
_atom_sites_solution_hydrogens   geom
_atom_sites_solution_primary     direct
_atom_sites_solution_secondary   difmap
_audit_creation_method           SHELXL-2013
_cell_angle_alpha                75.658(3)
_cell_angle_beta                 81.412(3)
_cell_angle_gamma                72.302(3)
_cell_formula_units_Z            1
_cell_length_a                   7.3362(5)
_cell_length_b                   7.4467(6)
_cell_length_c                   13.8751(10)
_cell_measurement_reflns_used    5794
_cell_measurement_temperature    120(2)
_cell_measurement_theta_max      25.06
_cell_measurement_theta_min      2.94
_cell_volume                     697.37(9)
_computing_cell_refinement       'SAINT (Bruker, 2010)'
_computing_data_collection       'APEX2 (Bruker, 2010)'
_computing_data_reduction        SAINT
_computing_molecular_graphics    'SHELXTL (Bruker, 2010)'
_computing_publication_material  SHELXL-2013
_computing_structure_refinement  SHELXL-2013
_computing_structure_solution    'SHELXS-2013 (Sheldrick, 2013)'
_diffrn_ambient_temperature      120(2)
_diffrn_measured_fraction_theta_full 0.970
_diffrn_measured_fraction_theta_max 0.990
_diffrn_measurement_device_type  'Bruker Nonius X8APEX-II CCD'
_diffrn_measurement_method       '\w and \f scans'
_diffrn_radiation_source         'fine-focus sealed tube'
_diffrn_radiation_type           MoK\a
_diffrn_radiation_wavelength     0.71073
_diffrn_reflns_av_R_equivalents  0.0232
_diffrn_reflns_av_unetI/netI     0.0212
_diffrn_reflns_Laue_measured_fraction_full 0.970
_diffrn_reflns_Laue_measured_fraction_max 0.990
_diffrn_reflns_limit_h_max       8
_diffrn_reflns_limit_h_min       -8
_diffrn_reflns_limit_k_max       8
_diffrn_reflns_limit_k_min       -8
_diffrn_reflns_limit_l_max       16
_diffrn_reflns_limit_l_min       -16
_diffrn_reflns_number            9969
_diffrn_reflns_point_group_measured_fraction_full 0.970
_diffrn_reflns_point_group_measured_fraction_max 0.990
_diffrn_reflns_theta_full        25.242
_diffrn_reflns_theta_max         25.070
_diffrn_reflns_theta_min         3.522
_exptl_absorpt_coefficient_mu    1.056
_exptl_absorpt_correction_T_max  0.7452
_exptl_absorpt_correction_T_min  0.7009
_exptl_absorpt_correction_type   multi-scan
_exptl_absorpt_process_details   'SADABS (Sheldrick, 2008)'
_exptl_crystal_colour            red
_exptl_crystal_density_diffrn    1.649
_exptl_crystal_description       prism
_exptl_crystal_F_000             356
_exptl_crystal_size_max          0.200
_exptl_crystal_size_mid          0.100
_exptl_crystal_size_min          0.050
_refine_diff_density_max         0.928
_refine_diff_density_min         -0.761
_refine_diff_density_rms         0.098
_refine_ls_extinction_method     none
_refine_ls_goodness_of_fit_ref   1.048
_refine_ls_hydrogen_treatment    constr
_refine_ls_matrix_type           full
_refine_ls_number_parameters     206
_refine_ls_number_reflns         2447
_refine_ls_number_restraints     12
_refine_ls_restrained_S_all      1.048
_refine_ls_R_factor_all          0.0548
_refine_ls_R_factor_gt           0.0503
_refine_ls_shift/su_max          0.000
_refine_ls_shift/su_mean         0.000
_refine_ls_structure_factor_coef Fsqd
_refine_ls_weighting_details
'w=1/[\s^2^(Fo^2^)+(0.0330P)^2^+3.5400P] where P=(Fo^2^+2Fc^2^)/3'
_refine_ls_weighting_scheme      calc
_refine_ls_wR_factor_gt          0.1111
_refine_ls_wR_factor_ref         0.1144
_reflns_Friedel_coverage         0.000
_reflns_number_gt                2257
_reflns_number_total             2447
_reflns_threshold_expression     'I > 2\s(I)'
_cod_data_source_file            ic500049w_si_002.cif
_cod_data_source_block           ab1021
_cod_depositor_comments          'Adding full bibliography for 4338029.cif.'
_cod_database_code               4338029
#BEGIN Tags that were not found in dictionaries:
_shelx_space_group_comment
;
The symmetry employed for this shelxl refinement is uniquely defined
by the following loop, which should always be used as a source of
symmetry information in preference to the above space-group names.
They are only intended as comments.
;
_shelx_estimated_absorpt_t_min   0.817
_shelx_estimated_absorpt_t_max   0.949
_shelxl_version_number           2013-4
_shelx_res_file
;
TITL ab1021 in P-1
CELL 0.71073   7.3362   7.4467  13.8751  75.658  81.412  72.302
ZERR    1.00   0.0005   0.0006   0.0010   0.003   0.003   0.003
LATT  1
SFAC C H N F P MN
UNIT 18 42 6 11 1 2
SIZE 0.20 0.10 0.05
TEMP -153
L.S. 20
ACTA
BOND $H
CONF
LIST 4
DFIX 21.000 0.01 P1 F10  P1 F11  P1 F12  P1 F10A  P1 F11A  P1 F12A
DFIX 21.414 0.01 F10 F11  F10 F12  F11 F12
DFIX 21.414 0.01 F10A F11A  F10A F12A  F11A F12A
FMAP 2
PLAN -10
SHEL 5.8 0
WGHT    0.033000    3.540000
FVAR       0.29224   1.57943
MN1   6    0.531298    0.491453    0.351854    11.00000    0.01190    0.01139 =
         0.01135   -0.00224    0.00020   -0.00521
F1    4    0.500000    0.500000    0.500000    10.50000    0.01785    0.01855 =
         0.01137   -0.00317    0.00185   -0.00531
F2    4    0.589910    0.228815    0.378167    11.00000    0.03159    0.01448 =
         0.02084   -0.00434    0.00168   -0.01046
F3    4    0.275369    0.532575    0.344233    11.00000    0.01592    0.03136 =
         0.02279   -0.00266   -0.00128   -0.01270
N1    3    0.821356    0.478654    0.342834    11.00000    0.01347    0.01832 =
         0.01880    0.00050    0.00075   -0.00482
N2    3    0.600644    0.508466    0.185606    11.00000    0.02883    0.01887 =
         0.01394   -0.00364   -0.00038   -0.01232
N3    3    0.498390    0.788798    0.304561    11.00000    0.01570    0.01326 =
         0.02030   -0.00399    0.00164   -0.00409
C9    1    0.923138    0.326762    0.423159    11.00000    0.01475    0.02349 =
         0.02250    0.00072   -0.00461   -0.00159
AFIX 137
H9A   2    1.058188    0.326075    0.416771    11.00000   -1.50000
H9B   2    0.914960    0.200771    0.417697    11.00000   -1.50000
H9C   2    0.863674    0.352843    0.488209    11.00000   -1.50000
AFIX   0
C12   1    0.498878    0.398530    0.150119    11.00000    0.05490    0.03369 =
         0.01774   -0.00585   -0.00616   -0.02681
AFIX 137
H12A  2    0.547647    0.387823    0.081460    11.00000   -1.50000
H12B  2    0.361229    0.465121    0.152029    11.00000   -1.50000
H12C  2    0.519761    0.269190    0.193156    11.00000   -1.50000
AFIX   0
C13   1    0.339310    0.903072    0.362544    11.00000    0.02239    0.01418 =
         0.02436   -0.00334    0.00441    0.00106
AFIX 137
H13A  2    0.327762    1.040800    0.337109    11.00000   -1.50000
H13B  2    0.365681    0.867039    0.433013    11.00000   -1.50000
H13C  2    0.219100    0.877080    0.355923    11.00000   -1.50000
AFIX   0
C14   1    0.449702    0.841529    0.198300    11.00000    0.08787    0.02201 =
         0.01852    0.00283   -0.00391    0.00930
AFIX  23
H14A  2    0.310907    0.856590    0.198254    11.00000   -1.20000
H14B  2    0.471305    0.969139    0.167676    11.00000   -1.20000
AFIX   0
C16   1    0.916638    0.450937    0.243985    11.00000    0.01867    0.10672 =
         0.01964   -0.00887    0.00746    0.00358
AFIX  23
H16A  2    0.955269    0.568763    0.209787    11.00000   -1.20000
H16B  2    1.035520    0.343159    0.254318    11.00000   -1.20000
AFIX   0
C17   1    0.819303    0.669504    0.360735    11.00000    0.03888    0.02225 =
         0.10957    0.00151   -0.04097   -0.01540
AFIX  23
H17A  2    0.797064    0.664270    0.433406    11.00000   -1.20000
H17B  2    0.947518    0.690099    0.338764    11.00000   -1.20000
AFIX   0
C18   1    0.551359    0.711560    0.136100    11.00000    0.12955    0.02281 =
         0.02249    0.00430   -0.02872   -0.02331
AFIX  23
H18A  2    0.671236    0.745484    0.106770    11.00000   -1.20000
H18B  2    0.472598    0.730227    0.080474    11.00000   -1.20000
AFIX   0
C19   1    0.808518    0.411707    0.179605    11.00000    0.03115    0.11093 =
         0.05044   -0.06082    0.01708   -0.01743
AFIX  23
H19A  2    0.826759    0.270615    0.194132    11.00000   -1.20000
H19B  2    0.861528    0.449442    0.110114    11.00000   -1.20000
AFIX   0
C20   1    0.680795    0.828359    0.312147    11.00000    0.02101    0.03124 =
         0.12772   -0.04248   -0.00408   -0.00821
AFIX  23
H20A  2    0.735206    0.874263    0.244011    11.00000   -1.20000
H20B  2    0.652967    0.933999    0.348337    11.00000   -1.20000
AFIX   0
P1    5    0.000000    0.000000    0.000000    10.50000    0.01849    0.01844 =
         0.01576    0.00062    0.00221   -0.00403
PART   1
F10   4   -0.090691    0.226869   -0.032482    10.50000    0.07906    0.02559 =
         0.03163   -0.00256    0.00926    0.00809
F11   4    0.201571    0.032965    0.001023    10.50000    0.05942    0.11681 =
         0.06486    0.05108   -0.03771   -0.06735
F12   4   -0.044991    0.009352    0.113382    10.50000    0.07982    0.03817 =
         0.01339   -0.00149    0.00243   -0.00985
PART   2
F10A  4   -0.029803    0.220972   -0.045805    10.50000    0.04855    0.01882 =
         0.09880    0.01127    0.05235   -0.00087
F11A  4    0.214642   -0.049539   -0.043194    10.50000    0.02040    0.02780 =
         0.09752   -0.00542    0.02735   -0.00325
F12A  4    0.059007    0.022231    0.099362    10.50000    0.08976    0.12559 =
         0.10666   -0.08958   -0.07297    0.06104
PART   0

HKLF 4

REM  ab1021 in P-1
REM R1 =  0.0503 for    2257 Fo > 4sig(Fo)  and  0.0548 for all    2447 data
REM    206 parameters refined using     12 restraints

END

WGHT      0.0330      3.5497

REM Highest difference peak  0.928,  deepest hole -0.761,  1-sigma level  0.098
Q1    1   0.8666  0.6506  0.2973  11.00000  0.05    0.93
Q2    1   0.6625  0.7875  0.3783  11.00000  0.05    0.90
Q3    1   0.7979  0.5218  0.1421  11.00000  0.05    0.87
Q4    1   0.4294  0.7103  0.1559  11.00000  0.05    0.86
Q5    1   0.8955  0.3319  0.2515  11.00000  0.05    0.79
Q6    1   0.5599  0.8594  0.1995  11.00000  0.05    0.76
Q7    1   0.3992  0.9765  0.1761  11.00000  0.05    0.51
Q8    1   0.6581  0.9524  0.3188  11.00000  0.05    0.50
Q9    1   0.6862  0.8946  0.3046  11.00000  0.05    0.49
Q10   1   0.8690  0.3776  0.1118  11.00000  0.05    0.48
;
_shelx_res_checksum              55205
_shelx_hkl_file
;
  -1   0   0  265.49    5.22
  -1   0   0  222.74    5.30
  -1   0   0  265.38    5.41
  -2   0   0  487.31   10.05
  -2   0   0  458.76   10.20
  -2   0   0  494.67    9.94
   2   0   0  479.53    9.54
   2   0   0  483.61    9.76
   2   0   0  470.80    9.89
   2   0   0  483.65   10.05
  -3   0   0  140.13    3.15
  -3   0   0  153.91    3.16
  -3   0   0  154.69    3.27
   3   0   0  145.60    3.24
   3   0   0  148.03    3.34
   3   0   0  146.49    3.24
   3   0   0  146.98    3.11
  -4   0   0  130.82    3.00
   4   0   0  126.48    2.92
   4   0   0  133.03    2.99
   4   0   0  131.25    3.15
   4   0   0  127.36    2.82
  -5   0   0    8.22    0.54
   5   0   0    7.71    0.63
   5   0   0    8.66    0.42
   5   0   0    8.79    0.43
   5   0   0    8.44    0.41
   5   0   0    8.33    0.54
   6   0   0   19.86    1.06
   6   0   0   19.11    0.71
   6   0   0   17.42    0.70
   6   0   0   18.89    0.93
   7   0   0    3.58    0.38
   7   0   0    4.01    0.40
   8   0   0    0.55    0.25
   8   0   0    0.39    0.24
   7  -1   0    5.14    0.52
   7  -1   0    6.03    0.56
  -7   1   0    6.36    0.67
   6  -1   0    0.08    0.22
   6  -1   0    0.29    0.22
  -6   1   0    0.13    0.24
   5  -1   0   19.71    0.77
   5  -1   0   18.66    0.76
   5  -1   0   19.33    1.00
   5  -1   0   19.16    0.76
  -5   1   0   20.82    0.92
  -5   1   0   20.90    0.60
  -5   1   0   18.74    0.59
   4  -1   0   13.84    0.59
   4  -1   0   14.57    0.70
   4  -1   0   14.48    0.61
   4  -1   0   14.33    0.80
   4  -1   0   13.09    0.58
  -4   1   0   14.73    0.71
  -4   1   0   14.68    0.53
  -4   1   0   14.51    0.54
   3  -1   0  103.93    2.43
   3  -1   0  106.36    2.43
   3  -1   0  105.01    2.52
   3  -1   0  105.95    2.52
   3  -1   0  106.81    2.61
  -3   1   0  107.53    2.53
  -3   1   0  107.03    2.60
  -3   1   0  106.89    2.48
  -3   1   0  105.01    2.47
   2  -1   0   55.22    1.44
   2  -1   0   55.69    1.39
   2  -1   0   56.09    1.38
   2  -1   0   58.31    1.46
   2  -1   0   58.51    1.51
  -2   1   0   58.43    1.51
  -2   1   0   55.42    1.31
  -2   1   0   57.32    1.43
  -2   1   0   56.97    1.46
   1  -1   0  157.49    3.41
   1  -1   0  157.72    3.43
   1  -1   0  159.80    3.54
   1  -1   0  163.34    3.43
  -1   1   0  159.85    3.54
  -1   1   0  166.34    3.42
  -1   1   0  160.33    3.54
  -1   1   0  157.52    3.41
  -1   1   0  161.66    3.41
  -1   1   0  159.50    3.36
   0  -1   0  320.09    7.50
   0  -1   0  380.56    7.96
   0  -1   0  361.40    7.68
   0   1   0  380.31    7.64
   0   1   0  382.82    7.96
  -1  -1   0  689.60   14.24
  -1  -1   0  706.35   14.26
  -1  -1   0  658.06   14.63
  -1  -1   0  630.27   15.05
   1   1   0  668.34   14.69
   1   1   0  739.23   14.48
   1   1   0  668.63   14.13
  -2  -1   0   50.19    1.41
  -2  -1   0   51.57    1.21
  -2  -1   0   52.96    1.22
   2   1   0   52.39    1.23
   2   1   0   53.25    1.18
   2   1   0   50.12    1.16
  -3  -1   0  684.99   14.60
  -3  -1   0  689.45   14.95
  -3  -1   0  728.32   14.65
   3   1   0  692.66   14.10
   3   1   0  720.83   14.50
   3   1   0  696.90   14.75
   3   1   0  685.01   14.25
   4   1   0   26.99    0.76
   4   1   0   27.35    0.71
   4   1   0   27.07    0.87
   4   1   0   27.50    0.72
   5   1   0  125.73    2.78
   5   1   0  125.01    2.95
   5   1   0  129.73    2.79
   5   1   0  124.99    3.20
   6   1   0    0.13    0.16
   6   1   0    0.21    0.21
   6   1   0    0.64    0.32
   7   1   0    0.57    0.20
   8   1   0    0.90    0.25
   8   1   0    0.41    0.22
   7  -2   0    0.11    0.27
   7  -2   0   -0.23    0.25
  -7   2   0    0.32    0.31
   6  -2   0    5.02    0.54
   6  -2   0    5.08    0.56
  -6   2   0    5.30    0.36
  -6   2   0    6.11    0.67
   5  -2   0    0.58    0.28
   5  -2   0   -0.06    0.23
   5  -2   0    0.57    0.32
  -5   2   0    0.57    0.29
  -5   2   0    0.56    0.29
  -5   2   0    0.26    0.19
   4  -2   0  122.49    3.00
   4  -2   0  120.91    2.99
   4  -2   0  120.26    3.07
   4  -2   0  123.09    3.20
  -4   2   0  121.35    3.00
  -4   2   0  127.83    3.22
  -4   2   0  121.35    3.08
   3  -2   0   47.08    1.43
   3  -2   0   45.52    1.37
   3  -2   0   47.12    1.38
   3  -2   0   47.18    1.44
  -3   2   0   44.70    1.37
  -3   2   0   47.76    1.47
  -3   2   0   47.12    1.51
  -3   2   0   46.48    1.37
   2  -2   0   40.88    1.27
   2  -2   0   42.62    1.23
   2  -2   0   42.57    1.24
   2  -2   0   42.00    1.27
  -2   2   0   40.14    1.26
  -2   2   0   41.87    1.26
  -2   2   0   40.11    1.24
  -2   2   0   41.57    1.30
  -2   2   0   42.38    1.17
   1  -2   0    9.24    0.51
   1  -2   0    8.69    0.51
   1  -2   0   10.25    0.52
   1  -2   0    9.24    0.52
  -1   2   0    8.87    0.52
  -1   2   0    9.23    0.49
  -1   2   0    8.95    0.52
  -1   2   0    9.28    0.49
   0  -2   0  380.13    8.02
   0  -2   0  388.15    8.16
   0  -2   0  381.42    8.41
   0  -2   0  384.98    8.16
   0   2   0  386.41    8.03
   0   2   0  397.39    8.16
   0   2   0  396.48    8.42
  -1  -2   0   22.73    0.73
  -1  -2   0   22.69    0.74
  -1  -2   0   21.90    0.77
   1   2   0   22.65    0.75
   1   2   0   21.93    0.78
   1   2   0   22.03    0.75
  -2  -2   0    1.98    0.23
  -2  -2   0    2.28    0.28
  -2  -2   0    1.94    0.35
  -2  -2   0    2.85    0.27
  -2  -2   0    2.09    0.25
   2   2   0    1.77    0.24
   2   2   0    1.88    0.25
   2   2   0    1.84    0.26
  -3  -2   0   19.94    0.87
  -3  -2   0   21.11    0.69
   3   2   0   20.43    0.71
   3   2   0   22.01    0.70
   3   2   0   20.69    0.68
  -4  -2   0   79.07    1.85
  -4  -2   0   78.12    1.83
  -4  -2   0   76.76    2.28
   4   2   0   77.91    1.85
   4   2   0   79.01    1.88
   4   2   0   78.29    1.92
   5   2   0    2.41    0.33
   5   2   0    3.12    0.30
   5   2   0    3.53    0.32
   5   2   0    3.60    0.32
   6   2   0   46.50    1.28
   6   2   0   44.42    1.37
   6   2   0   45.38    1.25
   7   2   0    0.81    0.22
   8   2   0    5.66    0.46
   6  -3   0    0.30    0.33
   6  -3   0    0.71    0.36
  -6   3   0    0.88    0.39
  -6   3   0    0.82    0.27
   5  -3   0   35.87    1.39
   5  -3   0   37.21    1.42
  -5   3   0   34.83    1.47
  -5   3   0   36.03    1.31
  -5   3   0   37.25    1.60
   4  -3   0    8.70    0.68
   4  -3   0    8.55    0.67
   4  -3   0    8.74    0.67
  -4   3   0    8.42    0.63
  -4   3   0    6.90    0.73
  -4   3   0    8.43    0.71
   3  -3   0  139.45    3.42
   3  -3   0  137.83    3.42
   3  -3   0  139.44    3.54
  -3   3   0  134.65    3.47
  -3   3   0  134.92    3.48
  -3   3   0  136.84    3.50
  -3   3   0  141.29    3.48
   2  -3   0   31.62    1.13
   2  -3   0   28.64    1.13
   2  -3   0   29.45    1.10
  -2   3   0   28.59    1.14
  -2   3   0   28.47    1.13
  -2   3   0   29.93    1.03
  -2   3   0   28.33    1.12
   1  -3   0  317.78    6.88
   1  -3   0  313.26    6.97
   1  -3   0  318.94    6.97
   1  -3   0  322.09    7.20
  -1   3   0  324.88    6.91
  -1   3   0  311.43    6.93
  -1   3   0  320.13    7.19
  -1   3   0  319.97    6.93
   0  -3   0  230.53    5.35
   0  -3   0  225.71    5.16
   0  -3   0  227.56    5.09
   0  -3   0  230.52    5.17
   0   3   0  240.10    5.14
   0   3   0  228.78    5.34
   0   3   0  236.91    5.17
  -1  -3   0  809.42   16.72
  -1  -3   0  803.37   17.24
   1   3   0  811.45   16.73
   1   3   0  827.58   16.44
   1   3   0  820.96   16.73
   1   3   0  765.95   17.21
  -2  -3   0   35.90    1.20
  -2  -3   0   35.59    1.12
  -2  -3   0   37.45    1.14
   2   3   0   38.03    1.18
   2   3   0   37.60    1.22
   2   3   0   37.01    1.17
  -3  -3   0   10.00    0.71
  -3  -3   0   11.23    0.56
  -3  -3   0   10.87    0.58
   3   3   0   10.35    0.57
   3   3   0   10.00    0.58
   3   3   0   10.27    0.57
  -4  -3   0   25.83    1.16
  -4  -3   0   25.43    0.88
   4   3   0   25.12    0.89
   4   3   0   23.76    0.91
   4   3   0   24.59    0.90
  -5  -3   0   71.98    1.81
  -5  -3   0   74.71    2.35
  -5  -3   0   72.28    1.82
   5   3   0   72.34    1.93
   5   3   0   68.92    1.86
   5   3   0   69.92    1.90
  -6  -3   0   10.23    0.87
   6   3   0   10.62    0.60
   6   3   0   10.73    0.60
   6   3   0   10.09    0.62
   7   3   0    8.05    0.55
   7   3   0    7.87    0.55
   8   3   0    2.01    0.34
   8   3   0    1.58    0.33
   6  -4   0    0.85    0.41
  -6   4   0    0.57    0.41
  -6   4   0    0.63    0.30
   5  -4   0    2.40    0.53
   5  -4   0    2.60    0.51
  -5   4   0    2.81    0.50
  -5   4   0    2.01    0.49
   4  -4   0   12.22    0.90
   4  -4   0   13.67    0.92
   4  -4   0   13.16    0.91
  -4   4   0   13.85    0.96
  -4   4   0   13.37    0.87
  -4   4   0   13.31    0.98
   3  -4   0    4.24    0.58
   3  -4   0    4.78    0.65
   3  -4   0    5.03    0.62
  -3   4   0    4.08    0.60
  -3   4   0    3.41    0.53
  -3   4   0    4.36    0.60
  -3   4   0    4.74    0.62
   2  -4   0  156.17    4.00
   2  -4   0  152.45    3.86
   2  -4   0  151.31    3.85
  -2   4   0  155.32    3.87
  -2   4   0  151.43    3.98
  -2   4   0  152.82    3.85
   1  -4   0   10.25    0.70
   1  -4   0    9.04    0.68
   1  -4   0    9.14    0.71
  -1   4   0    9.50    0.65
  -1   4   0    9.52    0.73
  -1   4   0    9.03    0.66
   0  -4   0  435.94    9.86
   0  -4   0  453.23   10.20
   0  -4   0  452.39    9.88
   0   4   0  475.18   10.23
   0   4   0  460.41    9.86
   0   4   0  459.69    9.77
  -1  -4   0  161.44    4.07
  -1  -4   0  163.70    3.93
   1   4   0  161.98    3.90
   1   4   0  164.62    4.09
   1   4   0  166.98    3.97
   1   4   0  160.12    3.92
  -2  -4   0  149.36    3.83
  -2  -4   0  155.05    3.68
   2   4   0  157.63    3.73
   2   4   0  155.98    3.86
   2   4   0  153.76    3.68
   2   4   0  150.38    3.72
  -3  -4   0   54.70    1.73
  -3  -4   0   56.55    1.89
   3   4   0   57.79    1.78
   3   4   0   54.46    1.68
   3   4   0   54.97    1.70
  -4  -4   0  189.56    4.79
  -4  -4   0  186.18    4.47
   4   4   0  184.11    4.52
   4   4   0  191.50    4.43
   4   4   0  184.17    4.38
  -5  -4   0    8.73    0.89
  -5  -4   0    7.66    0.54
   5   4   0    7.54    0.59
   5   4   0    7.28    0.60
   5   4   0    7.48    0.60
  -6  -4   0   13.35    1.01
  -6  -4   0   12.75    0.61
   6   4   0   14.35    0.77
   6   4   0   13.10    0.75
  -7  -4   0    0.14    0.36
   7   4   0   -0.02    0.23
   7   4   0   -0.08    0.24
   8   4   0    0.31    0.27
   8   4   0    0.85    0.29
   5  -5   0    5.30    0.75
  -5   5   0    3.85    0.71
  -5   5   0    4.32    0.68
   4  -5   0    0.19    0.34
  -4   5   0    0.09    0.33
  -4   5   0    0.00    0.31
   3  -5   0   39.74    1.64
   3  -5   0   38.42    1.70
  -3   5   0   37.22    1.63
  -3   5   0   39.14    1.71
  -3   5   0   36.49    1.61
  -3   5   0   39.77    1.69
   2  -5   0    0.73    0.37
   2  -5   0    1.01    0.39
   2  -5   0    0.86    0.42
  -2   5   0    0.51    0.39
  -2   5   0    0.28    0.30
  -2   5   0    0.44    0.35
   1  -5   0   22.09    1.13
   1  -5   0   23.09    1.24
   1  -5   0   23.46    1.16
  -1   5   0   26.01    1.26
  -1   5   0   24.28    1.21
  -1   5   0   23.15    1.10
   0  -5   0   25.81    1.20
   0  -5   0   25.07    1.25
   0  -5   0   26.82    1.20
   0   5   0   26.48    1.19
   0   5   0   27.84    1.25
   0   5   0   25.28    1.27
  -1  -5   0  250.36    6.08
  -1  -5   0  252.51    5.86
   1   5   0  234.38    5.77
   1   5   0  255.96    6.10
   1   5   0  252.89    5.87
   1   5   0  252.45    5.90
  -2  -5   0    1.59    0.36
  -2  -5   0    1.28    0.37
   2   5   0    1.75    0.42
   2   5   0    1.50    0.37
   2   5   0    0.87    0.32
   2   5   0    1.10    0.39
  -3  -5   0   63.51    2.05
   3   5   0   62.42    1.99
   3   5   0   60.87    1.97
   3   5   0   63.65    2.09
   3   5   0   62.64    1.97
  -4  -5   0    7.47    0.67
  -4  -5   0    7.79    0.87
   4   5   0    5.22    0.57
   4   5   0    6.88    0.66
   4   5   0    8.34    0.75
   4   5   0    8.91    0.81
  -5  -5   0   43.63    1.88
  -5  -5   0   47.18    1.62
   5   5   0   47.11    1.65
   5   5   0   44.35    1.62
   5   5   0   46.25    1.67
  -6  -5   0    1.81    0.37
  -6  -5   0    2.27    0.63
   6   5   0    2.14    0.44
   6   5   0    2.25    0.44
  -7  -5   0   11.79    1.21
  -7  -5   0   13.51    0.66
   7   5   0   13.50    0.88
   7   5   0   12.53    0.87
  -8  -5   0    3.74    0.78
   8   5   0    2.76    0.50
   8   5   0    3.83    0.55
   4  -6   0   21.56    1.36
  -4   6   0   19.71    1.30
  -4   6   0   20.22    1.36
   3  -6   0   17.26    1.18
   3  -6   0   17.36    1.28
  -3   6   0   17.21    1.22
  -3   6   0   15.08    1.16
  -3   6   0   17.41    1.21
   2  -6   0   32.67    1.55
   2  -6   0   32.45    1.66
  -2   6   0   32.07    1.58
  -2   6   0   31.46    1.59
   1  -6   0    6.93    0.92
   1  -6   0    5.38    0.72
  -1   6   0    6.21    0.81
  -1   6   0    6.64    0.87
   0  -6   0  104.11    3.09
   0  -6   0  105.80    3.28
   0   6   0  108.28    3.29
   0   6   0  104.39    3.13
  -1  -6   0   18.74    1.18
  -1  -6   0   16.31    1.01
   1   6   0   18.57    1.07
   1   6   0   21.05    1.25
   1   6   0   18.66    1.13
  -2  -6   0   51.96    1.99
   2   6   0   52.14    2.05
   2   6   0   51.36    1.99
   2   6   0   52.72    1.90
   2   6   0   50.42    1.89
  -3  -6   0    3.87    0.64
   3   6   0    4.48    0.61
   3   6   0    3.97    0.65
   3   6   0    3.71    0.60
   3   6   0    4.02    0.62
  -4  -6   0   27.01    1.50
  -4  -6   0   25.48    1.29
   4   6   0   26.93    1.30
   4   6   0   25.25    1.24
   4   6   0   26.54    1.29
   4   6   0   27.88    1.38
  -5  -6   0    5.28    0.85
  -5  -6   0    7.37    0.76
   5   6   0    6.53    0.75
   5   6   0    5.87    0.70
   5   6   0    6.24    0.73
   5   6   0    5.70    0.68
  -6  -6   0   34.70    1.79
  -6  -6   0   35.45    1.47
   6   6   0   34.11    1.50
   6   6   0   31.80    1.42
   6   6   0   34.61    1.50
  -7  -6   0    3.73    0.54
  -7  -6   0    3.23    0.77
   7   6   0    3.64    0.62
   7   6   0    5.50    0.71
   7   6   0    4.28    0.63
   2  -7   0   15.20    1.32
  -2   7   0   15.99    1.31
  -2   7   0   14.49    1.19
   1  -7   0   38.18    1.92
  -1   7   0   35.60    1.79
  -1   7   0   39.93    1.94
   0  -7   0   51.67    2.25
   0   7   0   57.20    2.29
   0   7   0   51.79    2.14
  -1  -7   0   48.79    2.11
   1   7   0   51.33    2.04
   1   7   0   48.79    2.13
  -2  -7   0    6.62    0.82
   2   7   0    7.74    0.96
   2   7   0    8.57    0.96
  -3  -7   0   41.79    1.90
   3   7   0   41.59    1.80
   3   7   0   44.61    1.95
  -4  -7   0    3.63    0.73
  -4  -7   0    4.26    0.74
   4   7   0    3.11    0.61
   4   7   0    4.27    0.69
   4   7   0    4.69    0.77
  -5  -7   0   46.49    1.93
  -5  -7   0   48.13    2.19
   5   7   0   43.49    1.88
   5   7   0   44.60    1.85
  -6  -7   0   12.90    1.01
  -6  -7   0   12.48    1.30
   6   7   0   13.07    1.02
   6   7   0   12.58    1.02
   0  -8   0   40.96    2.12
   0   8   0   38.82    2.08
   0   8   0   38.40    1.96
  -1  -8   0   36.75    1.99
   1   8   0   33.53    1.80
   1   8   0   37.41    1.97
  -2  -8   0   61.25    2.55
   2   8   0   63.31    2.59
   2   8   0   56.00    2.34
  -3  -8   0   25.80    1.60
   3   8   0   22.66    1.57
   3   8   0   22.38    1.45
  -4  -8   0   14.04    1.23
   4   8   0    9.42    1.01
   4   8   0   12.50    1.31
  -5  -8   0    5.62    0.98
  -5  -8   0    7.67    1.03
   5   8   0    6.56    0.90
   4   8  -1    5.52    0.83
   4   8  -1    3.50    0.76
  -4  -8   1    5.34    0.90
   3   8  -1   10.23    1.25
   3   8  -1    6.91    0.93
  -3  -8   1    9.67    1.15
   2   8  -1    8.61    1.08
   2   8  -1    8.33    1.02
  -2  -8   1    8.86    1.05
   1   8  -1   42.55    2.15
   1   8  -1   42.93    2.03
  -1  -8   1   41.56    2.13
   0   8  -1    3.69    0.82
   0   8  -1    4.68    0.86
   0  -8   1    3.55    0.82
   6   7  -1    3.03    0.60
   6   7  -1    5.20    0.76
  -6  -7   1    3.96    0.67
  -6  -7   1    4.36    0.86
   5   7  -1    0.82    0.47
   5   7  -1   -0.20    0.28
  -5  -7   1    0.32    0.56
  -5  -7   1    0.11    0.36
   4   7  -1    1.05    0.48
   4   7  -1    0.95    0.48
   4   7  -1    0.87    0.42
  -4  -7   1    0.82    0.42
   3   7  -1    0.25    0.39
   3   7  -1    0.32    0.43
  -3  -7   1    0.26    0.41
   2   7  -1   15.85    1.15
   2   7  -1   16.22    1.24
  -2  -7   1   16.71    1.23
   1   7  -1    1.22    0.52
   1   7  -1    2.60    0.62
  -1  -7   1    2.29    0.65
   0   7  -1   35.89    1.83
   0   7  -1   32.87    1.67
   0  -7   1   32.58    1.77
  -1   7  -1   17.79    1.36
  -1   7  -1   19.65    1.32
   1  -7   1   18.92    1.43
  -2   7  -1   68.10    2.59
  -2   7  -1   66.47    2.67
   2  -7   1   63.51    2.66
   7   6  -1    1.82    0.51
  -7  -6   1    1.41    0.39
  -7  -6   1    2.57    0.67
   6   6  -1    3.26    0.56
  -6  -6   1    4.14    0.80
  -6  -6   1    4.29    0.63
   5   6  -1   38.29    1.65
   5   6  -1   38.86    1.62
  -5  -6   1   36.57    1.80
  -5  -6   1   37.76    1.61
   4   6  -1    0.89    0.39
   4   6  -1    1.36    0.49
   4   6  -1    1.21    0.43
  -4  -6   1    1.34    0.42
  -4  -6   1    1.95    0.55
   3   6  -1   41.09    1.66
   3   6  -1   39.66    1.74
   3   6  -1   42.05    1.68
  -3  -6   1   38.43    1.69
   2   6  -1    8.00    0.88
   2   6  -1    7.15    0.75
   2   6  -1    9.72    0.94
  -2  -6   1    8.79    0.93
   1   6  -1   12.72    1.02
   1   6  -1   10.90    0.86
   1   6  -1   10.75    0.92
  -1  -6   1   11.73    0.98
   0   6  -1   12.39    1.17
   0   6  -1   10.78    0.92
   0  -6   1   10.99    0.87
   0  -6   1   10.75    0.97
  -1   6  -1    8.79    0.91
  -1   6  -1   11.50    0.95
   1  -6   1    9.75    0.86
   1  -6   1    9.76    0.97
  -2   6  -1   21.48    1.34
  -2   6  -1   22.05    1.32
   2  -6   1   20.86    1.37
   2  -6   1   23.77    1.30
  -3   6  -1   77.84    2.74
  -3   6  -1   77.52    2.76
  -3   6  -1   77.10    2.73
   3  -6   1   79.36    2.84
   3  -6   1   81.55    2.73
  -4   6  -1   15.62    1.15
  -4   6  -1   13.31    1.12
   4  -6   1   14.21    1.16
   7   5  -1    3.50    0.54
   7   5  -1    2.82    0.50
  -7  -5   1    2.75    0.42
  -7  -5   1    2.60    0.64
   6   5  -1   13.81    0.91
   6   5  -1   14.52    0.93
  -6  -5   1   13.31    0.81
  -6  -5   1   14.60    1.10
   5   5  -1   12.66    0.87
   5   5  -1   13.19    0.90
   5   5  -1   12.49    0.86
  -5  -5   1   14.00    1.05
  -5  -5   1   12.68    0.82
   4   5  -1    7.17    0.75
   4   5  -1    6.08    0.62
   4   5  -1    6.51    0.66
  -4  -5   1    7.48    0.85
  -4  -5   1    5.91    0.67
   3   5  -1    0.49    0.29
   3   5  -1    0.20    0.31
   3   5  -1    0.64    0.35
   3   5  -1    0.05    0.32
  -3  -5   1    0.35    0.33
   2   5  -1   92.33    2.73
   2   5  -1  101.80    2.79
   2   5  -1   96.53    2.77
   2   5  -1   98.64    2.88
  -2  -5   1   99.66    2.90
  -2  -5   1   96.96    2.72
   1   5  -1    3.44    0.54
   1   5  -1    3.85    0.57
   1   5  -1    3.22    0.56
   1   5  -1    3.64    0.56
  -1  -5   1    3.92    0.53
  -1  -5   1    2.70    0.46
  -1  -5   1    3.88    0.60
   0   5  -1  194.14    4.91
   0   5  -1  194.32    4.70
   0   5  -1  182.66    4.68
   0  -5   1  189.44    4.90
   0  -5   1  189.14    4.72
   0  -5   1  192.29    4.72
  -1   5  -1    0.12    0.30
  -1   5  -1    0.31    0.23
  -1   5  -1    0.18    0.37
   1  -5   1    0.16    0.29
   1  -5   1    0.03    0.31
   1  -5   1    0.16    0.34
  -2   5  -1   25.75    1.28
  -2   5  -1   24.13    1.26
  -2   5  -1   24.78    1.30
   2  -5   1   24.56    1.23
   2  -5   1   24.92    1.25
   2  -5   1   24.99    1.33
  -3   5  -1   42.02    1.76
  -3   5  -1   45.46    1.81
  -3   5  -1   44.08    1.85
   3  -5   1   41.81    1.72
   3  -5   1   45.43    1.85
  -4   5  -1   37.22    1.68
  -4   5  -1   38.25    1.65
   4  -5   1   39.08    1.68
  -5   5  -1   12.63    1.04
  -5   5  -1   13.08    0.96
   5  -5   1   13.01    1.04
   8   4  -1   20.47    1.03
   8   4  -1   21.88    1.06
   7   4  -1    2.78    0.44
   7   4  -1    2.94    0.48
  -7  -4   1    3.33    0.31
  -7  -4   1    2.80    0.65
   6   4  -1    0.21    0.26
   6   4  -1    0.49    0.27
  -6  -4   1    0.48    0.23
  -6  -4   1    0.58    0.39
   5   4  -1   -0.11    0.23
   5   4  -1    0.11    0.26
   5   4  -1    0.10    0.24
  -5  -4   1   -0.15    0.21
  -5  -4   1   -0.07    0.34
   4   4  -1   12.97    0.79
   4   4  -1   12.56    0.75
   4   4  -1   12.39    0.76
  -4  -4   1   13.10    0.75
  -4  -4   1   12.05    0.88
   3   4  -1    7.72    0.65
   3   4  -1    7.25    0.62
   3   4  -1    7.32    0.60
  -3  -4   1    7.66    0.61
  -3  -4   1    7.47    0.66
   2   4  -1    0.38    0.25
   2   4  -1    0.12    0.21
   2   4  -1    0.12    0.28
  -2  -4   1   -0.29    0.19
  -2  -4   1    0.27    0.20
   1   4  -1  144.09    3.58
   1   4  -1  148.13    3.72
   1   4  -1  141.21    3.54
   1   4  -1  142.43    3.56
  -1  -4   1  144.98    3.72
  -1  -4   1  143.43    3.55
   0   4  -1    6.22    0.64
   0   4  -1    7.07    0.60
   0   4  -1    6.26    0.62
   0  -4   1    7.39    0.67
   0  -4   1    6.38    0.63
   0  -4   1    4.89    0.56
  -1   4  -1  183.68    4.42
  -1   4  -1  184.62    4.44
  -1   4  -1  190.22    4.64
   1  -4   1  186.12    4.47
   1  -4   1  181.73    4.45
   1  -4   1  181.82    4.61
  -2   4  -1   37.06    1.47
  -2   4  -1   33.91    1.40
  -2   4  -1   34.84    1.40
   2  -4   1   36.67    1.40
   2  -4   1   35.64    1.44
   2  -4   1   36.14    1.38
  -3   4  -1  285.36    6.81
  -3   4  -1  286.17    6.63
  -3   4  -1  281.50    6.62
   3  -4   1  292.35    6.66
   3  -4   1  300.07    6.89
   3  -4   1  277.66    6.64
  -4   4  -1    7.78    0.70
  -4   4  -1    7.42    0.77
  -4   4  -1    7.58    0.88
   4  -4   1    8.60    0.84
   4  -4   1    9.13    0.83
   4  -4   1    7.26    0.73
  -5   4  -1   18.00    1.11
  -5   4  -1   16.84    0.96
   5  -4   1   15.91    1.02
   5  -4   1   16.16    1.04
  -6   4  -1    6.32    0.64
  -6   4  -1    6.95    0.82
   6  -4   1    6.81    0.80
   8   3  -1    3.22    0.45
   7   3  -1    2.41    0.38
   7   3  -1    2.80    0.40
   6   3  -1   22.61    0.93
   6   3  -1   22.45    0.94
  -6  -3   1   22.91    0.74
  -6  -3   1   22.17    0.73
  -6  -3   1   21.63    1.25
   5   3  -1    0.02    0.20
   5   3  -1    0.04    0.21
   5   3  -1    0.07    0.20
  -5  -3   1   -0.19    0.32
  -5  -3   1    0.03    0.14
  -5  -3   1    0.09    0.16
   4   3  -1   12.80    0.67
   4   3  -1   13.63    0.67
   4   3  -1   12.90    0.67
  -4  -3   1   12.78    0.64
  -4  -3   1   13.50    0.83
  -4  -3   1   11.91    0.61
   3   3  -1   22.64    0.87
   3   3  -1   20.88    0.88
   3   3  -1   22.35    0.87
  -3  -3   1   22.21    0.88
  -3  -3   1   19.69    0.95
   2   3  -1   19.43    0.82
   2   3  -1   18.66    0.79
   2   3  -1   19.29    0.85
  -2  -3   1   19.03    0.83
  -2  -3   1   17.93    0.77
  -2  -3   1   18.81    0.76
   1   3  -1   59.62    1.64
   1   3  -1   56.16    1.70
   1   3  -1   57.28    1.62
  -1  -3   1   53.58    1.67
  -1  -3   1   56.33    1.61
   0   3  -1  347.07    7.66
   0   3  -1  334.66    7.32
   0   3  -1  346.49    7.41
   0  -3   1  340.01    7.42
   0  -3   1  340.17    7.43
   0  -3   1  341.48    7.67
  -1   3  -1   39.15    1.24
  -1   3  -1   34.55    1.19
  -1   3  -1   37.84    1.29
  -1   3  -1   36.12    1.25
   1  -3   1   36.56    1.24
   1  -3   1   38.95    1.32
   1  -3   1   35.77    1.23
  -2   3  -1  243.15    5.58
  -2   3  -1  242.33    5.76
  -2   3  -1  253.86    5.58
   2  -3   1  243.64    5.60
   2  -3   1  251.53    5.62
   2  -3   1  256.52    5.81
  -3   3  -1  153.43    3.75
  -3   3  -1  151.01    3.80
  -3   3  -1  154.04    3.80
   3  -3   1  150.97    3.71
   3  -3   1  148.72    3.82
   3  -3   1  153.02    3.72
  -4   3  -1  229.66    5.51
  -4   3  -1  234.60    5.59
  -4   3  -1  229.88    5.49
   4  -3   1  229.05    5.46
   4  -3   1  243.17    5.64
   4  -3   1  243.14    5.51
  -5   3  -1   18.36    1.15
  -5   3  -1   20.25    0.92
  -5   3  -1   18.94    1.03
   5  -3   1   19.32    1.00
   5  -3   1   18.75    0.99
  -6   3  -1   42.47    1.39
  -6   3  -1   45.03    1.74
   6  -3   1   41.18    1.61
   6  -3   1   46.47    1.66
   8   2  -1   29.70    1.12
   7   2  -1    5.58    0.52
   6   2  -1    6.09    0.46
   6   2  -1    6.77    0.48
   5   2  -1   84.23    2.24
   5   2  -1   84.70    2.18
   5   2  -1   84.54    2.13
   5   2  -1   85.93    2.16
  -5  -2   1   89.82    2.04
  -5  -2   1   87.23    2.03
   4   2  -1   12.65    0.58
   4   2  -1   12.62    0.56
   4   2  -1   13.35    0.58
  -4  -2   1   12.49    0.53
  -4  -2   1   13.56    0.55
  -4  -2   1   13.16    0.78
   3   2  -1    8.52    0.47
   3   2  -1    8.64    0.49
   3   2  -1    8.50    0.46
  -3  -2   1    8.85    0.59
  -3  -2   1    9.55    0.47
   2   2  -1  103.72    2.44
   2   2  -1  105.55    2.46
   2   2  -1  105.19    2.53
  -2  -2   1  100.31    2.57
  -2  -2   1  103.62    2.40
  -2  -2   1  104.14    2.52
  -2  -2   1  103.68    2.52
  -2  -2   1  107.06    2.43
   1   2  -1  256.14    5.81
   1   2  -1  261.47    5.64
   1   2  -1  268.04    5.66
  -1  -2   1  265.30    5.64
   0   2  -1  115.43    2.87
   0   2  -1  119.62    2.77
   0   2  -1  119.44    2.76
   0  -2   1  120.57    2.88
   0  -2   1  121.41    2.78
   0  -2   1  123.71    2.80
  -1   2  -1  193.28    4.61
  -1   2  -1  201.92    4.45
  -1   2  -1  204.73    4.45
  -1   2  -1  203.28    4.45
   1  -2   1  204.09    4.63
   1  -2   1  206.84    4.49
   1  -2   1  204.18    4.44
   1  -2   1  205.09    4.48
  -2   2  -1   33.69    1.05
  -2   2  -1   30.75    0.96
  -2   2  -1   30.93    1.13
  -2   2  -1   30.96    1.06
  -2   2  -1   32.34    1.06
   2  -2   1   31.98    1.04
   2  -2   1   31.95    1.07
   2  -2   1   32.02    1.06
   2  -2   1   32.15    1.03
  -3   2  -1  163.65    3.83
  -3   2  -1  159.07    3.76
  -3   2  -1  157.03    3.74
  -3   2  -1  160.26    3.77
  -3   2  -1  159.09    3.77
   3  -2   1  159.40    3.71
   3  -2   1  160.22    3.81
   3  -2   1  160.22    3.70
   3  -2   1  162.43    3.70
  -4   2  -1  114.77    2.77
  -4   2  -1  110.60    2.99
  -4   2  -1  114.79    2.87
  -4   2  -1  104.29    2.72
   4  -2   1  110.87    3.00
   4  -2   1  112.14    2.85
   4  -2   1  111.15    2.77
   4  -2   1  114.39    2.77
  -5   2  -1   97.62    2.93
  -5   2  -1  102.05    2.54
  -5   2  -1  103.78    2.76
   5  -2   1  104.52    2.66
   5  -2   1  104.40    2.66
   5  -2   1  105.15    3.05
  -6   2  -1   20.59    0.66
  -6   2  -1   22.01    1.07
   6  -2   1   20.45    0.95
   6  -2   1   21.43    0.97
   7  -2   1   42.38    1.52
   7  -2   1   42.82    1.53
   8   1  -1   11.35    0.67
   8   1  -1   11.85    0.68
   7   1  -1   39.47    1.26
   6   1  -1    2.58    0.32
   6   1  -1    2.09    0.44
   5   1  -1   25.03    1.05
   5   1  -1   26.34    0.93
   5   1  -1   20.12    0.75
   5   1  -1   20.34    0.75
   4   1  -1    0.24    0.15
   4   1  -1    0.12    0.18
   4   1  -1    0.08    0.13
   4   1  -1   -0.01    0.13
  -4  -1   1    0.03    0.10
  -4  -1   1    0.10    0.10
   3   1  -1    3.41    0.27
   3   1  -1    2.94    0.31
   3   1  -1    3.09    0.28
   3   1  -1    2.91    0.25
  -3  -1   1    2.31    0.33
  -3  -1   1    3.63    0.26
  -3  -1   1    2.57    0.24
   2   1  -1  208.45    4.46
   2   1  -1  205.29    4.33
   2   1  -1  199.02    4.30
   2   1  -1  197.25    4.51
  -2  -1   1  206.00    4.25
  -2  -1   1  205.78    4.26
  -2  -1   1  204.22    4.44
  -2  -1   1  202.28    4.52
   1   1  -1  365.08    7.84
   1   1  -1  369.37    7.60
   1   1  -1  377.54    7.88
  -1  -1   1  372.43    7.84
  -1  -1   1  365.96    7.59
  -1  -1   1  371.14    7.61
  -1  -1   1  353.60    7.83
   0   1  -1  251.67    5.32
   0   1  -1  258.95    5.49
   0   1  -1  260.04    5.48
   0  -1   1  258.41    5.32
   0  -1   1  245.36    5.48
   0  -1   1  250.40    5.32
  -1   1  -1   10.12    0.44
  -1   1  -1   10.76    0.40
  -1   1  -1   10.29    0.40
  -1   1  -1   10.82    0.43
  -1   1  -1    9.83    0.42
   1  -1   1   10.49    0.43
   1  -1   1   10.64    0.42
   1  -1   1   10.53    0.42
   1  -1   1   10.09    0.43
  -2   1  -1   12.89    0.54
  -2   1  -1   12.69    0.42
  -2   1  -1   13.60    0.51
  -2   1  -1   12.70    0.60
   2  -1   1   12.52    0.51
   2  -1   1   12.43    0.49
   2  -1   1   13.38    0.55
   2  -1   1   13.39    0.50
  -3   1  -1  197.14    4.20
  -3   1  -1  190.41    4.28
  -3   1  -1  190.13    4.19
  -3   1  -1  190.86    4.17
   3  -1   1  184.94    4.11
   3  -1   1  188.01    4.25
   3  -1   1  192.66    4.29
   3  -1   1  186.83    4.15
   3  -1   1  190.59    4.12
  -4   1  -1  203.07    4.49
  -4   1  -1  205.80    4.56
  -4   1  -1  210.86    4.49
   4  -1   1  199.88    4.71
   4  -1   1  205.77    4.54
   4  -1   1  206.02    4.61
   4  -1   1  203.72    4.47
   4  -1   1  205.92    4.47
  -5   1  -1    1.98    0.34
   5  -1   1    2.00    0.41
   5  -1   1    1.70    0.27
   5  -1   1    1.67    0.27
   5  -1   1    1.97    0.28
   5  -1   1    1.99    0.33
  -6   1  -1    4.72    0.51
   6  -1   1    4.54    0.44
   6  -1   1    4.54    0.43
  -7   1  -1   31.83    1.26
   7  -1   1   31.54    1.15
   7  -1   1   29.99    1.11
   8   0  -1   21.80    0.97
   8   0  -1   20.85    0.94
   7   0  -1    7.20    0.54
   7   0  -1    6.46    0.52
   6   0  -1    1.49    0.28
   6   0  -1    1.47    0.28
   6   0  -1    1.74    0.40
   5   0  -1   18.40    0.70
   5   0  -1   18.09    0.70
   5   0  -1   19.50    0.96
   5   0  -1   19.07    0.85
   4   0  -1  113.17    2.71
   4   0  -1  120.95    2.64
   4   0  -1  114.67    2.84
   4   0  -1  121.60    2.79
  -4   0   1  116.79    2.80
  -4   0   1  117.18    2.61
  -4   0   1  110.24    2.60
   3   0  -1   19.56    0.73
   3   0  -1   22.08    0.68
   3   0  -1   21.17    0.64
   3   0  -1   20.43    0.79
  -3   0   1   19.78    0.75
  -3   0   1   22.11    0.63
  -3   0   1   20.75    0.63
   2   0  -1   -0.03    0.10
   2   0  -1   -0.08    0.14
   2   0  -1   -0.07    0.14
   2   0  -1    0.04    0.12
  -2   0   1    0.46    0.11
  -2   0   1    0.05    0.07
  -2   0   1   -0.02    0.07
  -2   0   1   -0.07    0.11
  -2   0   1    0.14    0.15
   1   0  -1   37.02    0.82
   1   0  -1   27.35    0.82
   1   0  -1   36.21    0.85
  -1   0   1   37.27    0.86
  -1   0   1   31.60    0.79
  -1   0   1   35.16    0.85
  -1   0   1   32.82    0.79
   0   0  -1   -0.15    0.02
   0   0  -1   -0.11    0.02
   0   0  -1   -0.16    0.04
   0   0  -1   -0.10    0.02
   0   0   1   -0.11    0.03
   0   0   1   -0.15    0.04
   0   0   1   -0.14    0.03
   0   0   1   -0.10    0.02
  -1   0  -1  995.22   19.21
  -1   0  -1 1000.00   20.08
  -1   0  -1  967.10   20.03
  -1   0  -1  964.50   19.40
   1   0   1  852.85   19.10
   1   0   1  929.78   20.04
  -2   0  -1    7.95    0.32
   2   0   1    8.11    0.45
   2   0   1    7.99    0.26
   2   0   1    8.03    0.32
  -3   0  -1  326.58    6.68
   3   0   1  322.30    6.77
   3   0   1  322.32    6.67
   3   0   1  327.24    6.85
  -4   0  -1  107.38    2.42
   4   0   1  103.51    2.32
   4   0   1   99.96    2.38
   4   0   1   99.41    2.63
   4   0   1  104.75    2.22
  -5   0  -1  121.00    2.82
   5   0   1  115.01    2.61
   5   0   1  122.95    3.14
   5   0   1  119.26    2.80
   5   0   1  117.21    2.62
   6   0   1    8.65    0.43
   6   0   1    8.32    0.55
   6   0   1    8.46    0.44
   6   0   1    7.98    0.82
   7   0   1   39.94    1.19
   7   0   1   41.83    1.21
   8   0   1    5.11    0.45
   8   0   1    5.37    0.46
   7  -1  -1   13.12    0.75
   7  -1  -1   12.51    0.75
   6  -1  -1    4.05    0.45
   6  -1  -1    3.66    0.43
  -6   1   1    4.63    0.57
   5  -1  -1    0.24    0.19
   5  -1  -1    0.47    0.22
   5  -1  -1    0.67    0.23
   5  -1  -1    0.57    0.33
  -5   1   1    0.83    0.18
  -5   1   1    0.35    0.25
  -5   1   1    0.30    0.14
   4  -1  -1    5.87    0.42
   4  -1  -1    7.44    0.58
   4  -1  -1    5.50    0.42
   4  -1  -1    6.21    0.43
   4  -1  -1    6.66    0.52
  -4   1   1    5.56    0.36
  -4   1   1    6.88    0.53
  -4   1   1    6.40    0.40
   3  -1  -1   64.96    1.70
   3  -1  -1   63.29    1.64
   3  -1  -1   69.22    1.77
   3  -1  -1   68.71    1.66
   3  -1  -1   61.92    1.75
  -3   1   1   64.82    1.67
  -3   1   1   65.90    1.77
  -3   1   1   63.57    1.74
   2  -1  -1    5.69    0.36
   2  -1  -1    5.63    0.40
   2  -1  -1    6.22    0.38
   2  -1  -1    5.57    0.36
   2  -1  -1    5.35    0.41
  -2   1   1    5.29    0.41
  -2   1   1    6.27    0.41
  -2   1   1    5.19    0.36
   1  -1  -1   57.37    1.41
   1  -1  -1   55.66    1.38
   1  -1  -1   57.61    1.37
   1  -1  -1   57.40    1.37
  -1   1   1   56.46    1.33
  -1   1   1   55.63    1.40
  -1   1   1   58.55    1.35
  -1   1   1   55.15    1.38
  -1   1   1   57.14    1.35
  -1   1   1   54.62    1.40
   0  -1  -1  852.04   17.94
   0  -1  -1  831.68   18.03
   0  -1  -1  876.88   18.65
   0   1   1  865.74   18.54
   0   1   1  883.82   17.84
   0   1   1  877.98   18.52
   0   1   1  777.16   17.87
  -1  -1  -1  100.26    2.17
  -1  -1  -1   90.93    2.32
  -1  -1  -1  106.31    2.26
  -1  -1  -1   98.80    2.16
   1   1   1  105.17    2.19
   1   1   1  104.86    2.19
   1   1   1  105.64    2.13
   1   1   1  106.24    2.35
   1   1   1  103.03    2.26
  -2  -1  -1  159.61    3.26
  -2  -1  -1  154.34    3.55
  -2  -1  -1  149.78    3.25
   2   1   1  150.37    3.53
   2   1   1  153.76    3.29
  -3  -1  -1  439.32    9.74
   3   1   1  448.66    9.30
   3   1   1  446.69    8.98
   4   1   1  616.31   12.45
   5   1   1   52.46    1.70
   5   1   1   48.60    1.33
   6   1   1   75.94    2.35
   6   1   1   73.23    1.91
   6   1   1   75.31    1.72
   7   1   1   13.34    0.54
   8   1   1   28.03    0.90
   8   1   1   28.92    0.93
   7  -2  -1   20.57    1.06
   7  -2  -1   22.66    1.10
  -7   2   1   21.08    1.17
   6  -2  -1   11.35    0.74
   6  -2  -1   10.54    0.73
  -6   2   1   10.57    0.81
  -6   2   1   10.63    0.54
   5  -2  -1    1.47    0.34
   5  -2  -1    2.06    0.45
   5  -2  -1    1.82    0.36
  -5   2   1    2.11    0.42
  -5   2   1    2.05    0.32
   4  -2  -1    8.39    0.57
   4  -2  -1    8.42    0.58
   4  -2  -1    8.20    0.57
  -4   2   1    7.44    0.52
  -4   2   1    7.46    0.61
  -4   2   1    5.98    0.60
   3  -2  -1    0.55    0.22
   3  -2  -1    0.48    0.24
   3  -2  -1    0.13    0.19
   3  -2  -1    0.87    0.25
  -3   2   1    0.57    0.27
  -3   2   1    0.75    0.28
  -3   2   1    0.80    0.25
  -3   2   1    0.86    0.22
   2  -2  -1    4.00    0.40
   2  -2  -1    5.30    0.42
   2  -2  -1    4.81    0.40
   2  -2  -1    5.62    0.44
  -2   2   1    3.81    0.41
  -2   2   1    5.29    0.43
  -2   2   1    4.97    0.47
  -2   2   1    4.72    0.36
   1  -2  -1   43.87    1.26
   1  -2  -1   45.81    1.27
   1  -2  -1   44.32    1.27
   1  -2  -1   45.25    1.32
  -1   2   1   45.95    1.25
  -1   2   1   45.22    1.29
  -1   2   1   44.66    1.24
  -1   2   1   43.52    1.30
   0  -2  -1  113.00    2.62
   0  -2  -1  112.18    2.71
   0  -2  -1  114.70    2.59
   0  -2  -1  111.78    2.62
   0   2   1  115.39    2.59
   0   2   1  115.79    2.71
   0   2   1  112.62    2.61
   0   2   1  111.76    2.61
  -1  -2  -1   47.55    1.22
  -1  -2  -1   47.26    1.23
  -1  -2  -1   47.24    1.28
   1   2   1   46.37    1.23
   1   2   1   45.71    1.20
   1   2   1   47.59    1.25
   1   2   1   45.78    1.27
  -2  -2  -1   13.02    0.65
  -2  -2  -1   13.01    0.52
  -2  -2  -1   13.86    0.48
  -2  -2  -1   11.36    0.48
  -2  -2  -1   12.67    0.46
   2   2   1   13.22    0.51
   2   2   1   12.21    0.53
   2   2   1   13.60    0.51
  -3  -2  -1  179.64    4.34
  -3  -2  -1  189.44    4.01
  -3  -2  -1  180.99    3.99
   3   2   1  181.94    4.04
   3   2   1  184.24    3.92
   3   2   1  178.62    3.90
  -4  -2  -1   85.57    2.45
   4   2   1   85.41    1.93
   4   2   1   83.13    1.91
   4   2   1   83.99    1.99
   5   2   1  145.04    3.24
   5   2   1  142.46    3.14
   5   2   1  148.60    3.17
   6   2   1    9.75    0.51
   6   2   1   10.39    0.45
   6   2   1    9.62    0.43
   7   2   1   11.70    0.51
   7   2   1   11.95    0.52
   8   2   1   23.58    0.81
   6  -3  -1    0.51    0.36
   6  -3  -1    1.55    0.43
  -6   3   1    1.65    0.27
  -6   3   1    0.90    0.41
   5  -3  -1    6.79    0.67
   5  -3  -1    8.27    0.74
  -5   3   1    7.21    0.81
  -5   3   1    8.17    0.63
  -5   3   1    8.73    0.86
   4  -3  -1    9.94    0.73
   4  -3  -1    8.78    0.70
   4  -3  -1    8.66    0.69
  -4   3   1    9.60    0.77
  -4   3   1    8.12    0.64
  -4   3   1    9.52    0.73
   3  -3  -1   44.80    1.52
   3  -3  -1   48.00    1.55
   3  -3  -1   45.77    1.56
  -3   3   1   45.34    1.58
  -3   3   1   49.58    1.63
  -3   3   1   44.71    1.53
   2  -3  -1   -0.01    0.21
   2  -3  -1   -0.15    0.19
   2  -3  -1   -0.18    0.19
  -2   3   1    0.58    0.21
  -2   3   1    0.14    0.21
  -2   3   1    0.13    0.22
  -2   3   1    0.05    0.21
  -2   3   1   -0.04    0.19
   1  -3  -1   34.09    1.18
   1  -3  -1   36.08    1.26
   1  -3  -1   35.87    1.20
   1  -3  -1   34.43    1.19
  -1   3   1   35.08    1.21
  -1   3   1   34.54    1.24
  -1   3   1   36.97    1.18
  -1   3   1   33.88    1.15
   0  -3  -1  117.70    2.82
   0  -3  -1  114.82    2.95
   0  -3  -1  116.97    2.85
   0  -3  -1  119.29    2.87
   0   3   1  119.64    2.96
   0   3   1  116.26    2.85
   0   3   1  117.64    2.85
  -1  -3  -1  149.23    3.43
  -1  -3  -1  144.04    3.54
   1   3   1  144.51    3.55
   1   3   1  148.61    3.39
   1   3   1  153.97    3.47
   1   3   1  147.70    3.44
  -2  -3  -1   27.21    0.91
  -2  -3  -1   28.34    0.97
  -2  -3  -1   27.12    0.90
   2   3   1   27.12    0.94
   2   3   1   26.27    0.92
   2   3   1   26.90    0.93
   2   3   1   26.49    0.97
  -3  -3  -1   13.88    0.63
  -3  -3  -1   13.83    0.61
  -3  -3  -1   13.47    0.81
   3   3   1   14.40    0.63
   3   3   1   14.76    0.66
   3   3   1   13.78    0.63
  -4  -3  -1   90.86    2.61
  -4  -3  -1   89.53    2.20
  -4  -3  -1   87.51    2.19
   4   3   1   89.63    2.26
   4   3   1   88.50    2.19
   4   3   1   90.21    2.21
  -5  -3  -1    2.76    0.25
  -5  -3  -1    2.24    0.22
  -5  -3  -1    1.29    0.43
   5   3   1    3.24    0.35
   5   3   1    1.98    0.28
   5   3   1    1.75    0.27
  -6  -3  -1   43.61    1.83
   6   3   1   41.94    1.27
   6   3   1   41.57    1.23
   6   3   1   42.16    1.25
   7   3   1    9.96    0.55
   7   3   1    9.29    0.54
   8   3   1   42.93    1.29
   8   3   1   40.78    1.27
   6  -4  -1    6.10    0.78
  -6   4   1    6.35    0.70
  -6   4   1    6.08    0.83
   5  -4  -1    3.64    0.58
   5  -4  -1    2.71    0.53
  -5   4   1    3.20    0.52
  -5   4   1    3.36    0.59
  -5   4   1    1.94    0.53
   4  -4  -1   20.89    1.13
   4  -4  -1   22.44    1.17
   4  -4  -1   20.93    1.12
  -4   4   1   21.99    1.18
  -4   4   1   21.97    1.11
  -4   4   1   22.22    1.19
   3  -4  -1    2.72    0.48
   3  -4  -1    2.39    0.46
   3  -4  -1    1.49    0.41
  -3   4   1    2.71    0.50
  -3   4   1    1.96    0.44
  -3   4   1    2.59    0.50
   2  -4  -1   22.11    1.10
   2  -4  -1   21.96    1.06
   2  -4  -1   21.19    1.04
  -2   4   1   23.18    1.10
  -2   4   1   21.81    1.07
  -2   4   1   21.37    1.08
  -2   4   1   20.48    1.05
   1  -4  -1   67.77    2.09
   1  -4  -1   66.30    1.99
   1  -4  -1   66.52    1.98
  -1   4   1   68.28    1.97
  -1   4   1   62.25    2.04
  -1   4   1   62.22    1.97
   0   4   1    0.69    0.25
   0   4   1    1.72    0.34
  -1  -4  -1  337.29    7.53
  -1  -4  -1  332.26    7.27
   1   4   1  334.79    7.29
   1   4   1  315.61    7.50
   1   4   1  317.97    7.26
   1   4   1  338.36    7.19
  -2  -4  -1   83.90    2.21
  -2  -4  -1   79.87    2.30
   2   4   1   79.16    2.19
   2   4   1   85.70    2.27
   2   4   1   82.06    2.32
   2   4   1   83.90    2.25
  -3  -4  -1  165.68    4.00
  -3  -4  -1  169.06    4.23
   3   4   1  160.44    3.88
   3   4   1  162.92    3.81
   3   4   1  161.03    4.02
   3   4   1  164.13    3.91
  -4  -4  -1  258.20    5.96
  -4  -4  -1  260.51    6.33
  -4  -4  -1  260.91    5.95
   4   4   1  259.72    5.85
   4   4   1  261.92    5.86
   4   4   1  263.01    6.02
  -5  -4  -1  177.91    4.30
  -5  -4  -1  185.57    4.31
  -5  -4  -1  188.51    4.87
   5   4   1  187.44    4.34
   5   4   1  182.61    4.30
   5   4   1  186.98    4.43
  -6  -4  -1    8.24    0.94
  -6  -4  -1    7.86    0.42
   6   4   1    7.55    0.58
   6   4   1    8.80    0.60
  -7  -4  -1   19.58    1.34
   7   4   1   18.84    0.88
   7   4   1   20.21    0.89
   8   4   1   11.38    0.69
   8   4   1   11.30    0.70
   5  -5  -1    2.75    0.59
  -5   5   1    3.15    0.63
  -5   5   1    2.74    0.56
   4  -5  -1    2.10    0.52
  -4   5   1    0.70    0.39
  -4   5   1    0.69    0.43
   3  -5  -1   19.49    1.19
   3  -5  -1   20.00    1.14
  -3   5   1   18.68    1.13
  -3   5   1   20.57    1.17
  -3   5   1   21.86    1.22
   2  -5  -1    2.31    0.52
   2  -5  -1    2.12    0.52
   2  -5  -1    2.76    0.54
  -2   5   1    2.14    0.47
  -2   5   1    1.91    0.47
  -2   5   1    3.05    0.57
  -2   5   1    2.63    0.51
   1  -5  -1   22.76    1.14
   1  -5  -1   20.86    1.08
   1  -5  -1   22.63    1.20
  -1   5   1   19.93    1.14
  -1   5   1   20.48    1.12
  -1   5   1   21.66    1.07
   0  -5  -1   40.06    1.64
   0  -5  -1   43.72    1.58
   0  -5  -1   42.68    1.59
   0   5   1   42.96    1.66
   0   5   1   43.30    1.56
   0   5   1   44.61    1.62
  -1  -5  -1    0.19    0.17
  -1  -5  -1    0.64    0.30
  -1  -5  -1    0.63    0.29
   1   5   1    0.72    0.31
   1   5   1    0.76    0.29
   1   5   1    0.74    0.32
  -2  -5  -1   79.56    2.30
  -2  -5  -1   78.07    2.44
   2   5   1   80.03    2.32
   2   5   1   82.76    2.39
   2   5   1   81.42    2.36
   2   5   1   79.89    2.44
  -3  -5  -1   26.74    1.21
   3   5   1   28.25    1.20
   3   5   1   28.04    1.24
   3   5   1   28.45    1.17
   3   5   1   28.24    1.21
  -4  -5  -1  312.86    7.44
  -4  -5  -1  300.28    7.09
   4   5   1  302.46    7.13
   4   5   1  307.36    6.92
   4   5   1  303.14    6.94
   4   5   1  304.64    6.78
  -5  -5  -1   77.78    2.64
  -5  -5  -1   75.46    2.21
   5   5   1   73.23    2.22
   5   5   1   75.24    2.22
   5   5   1   74.10    2.27
   5   5   1   74.39    2.15
  -6  -5  -1   68.15    1.95
  -6  -5  -1   65.46    2.48
   6   5   1   67.16    2.06
   6   5   1   65.42    2.05
  -7  -5  -1   27.92    0.92
  -7  -5  -1   29.11    1.66
   7   5   1   30.12    1.24
   7   5   1   27.04    1.20
  -8  -5  -1   24.49    1.62
   8   5   1   23.14    1.12
   8   5   1   24.52    1.13
   4  -6  -1    1.00    0.48
  -4   6   1    1.75    0.57
  -4   6   1    1.11    0.49
   3  -6  -1    1.35    0.46
   3  -6  -1    0.55    0.48
  -3   6   1    0.57    0.42
  -3   6   1    0.84    0.46
   2  -6  -1    1.54    0.43
   2  -6  -1    2.32    0.62
  -2   6   1    1.78    0.51
  -2   6   1    1.36    0.51
  -2   6   1    1.97    0.53
  -2   6   1    0.82    0.43
   1  -6  -1    2.10    0.47
   1  -6  -1    1.41    0.54
  -1   6   1    1.84    0.53
  -1   6   1    1.67    0.49
   0  -6  -1   20.64    1.14
   0  -6  -1   18.11    1.21
   0   6   1   18.17    1.20
   0   6   1   18.47    1.12
  -1  -6  -1   84.25    2.76
   1   6   1   86.52    2.77
   1   6   1   87.13    2.64
   1   6   1   82.51    2.62
  -2  -6  -1    0.18    0.34
  -2  -6  -1   -0.04    0.30
   2   6   1    0.04    0.31
   2   6   1    0.24    0.28
   2   6   1    0.32    0.40
   2   6   1    0.50    0.37
  -3  -6  -1   61.16    2.13
   3   6   1   59.10    2.00
   3   6   1   59.45    2.04
   3   6   1   56.88    2.10
   3   6   1   58.82    2.05
  -4  -6  -1   14.01    1.09
  -4  -6  -1   13.32    0.93
   4   6   1   14.20    0.91
   4   6   1   13.84    0.93
   4   6   1   14.28    0.94
   4   6   1   11.73    0.92
  -5  -6  -1   51.51    2.18
  -5  -6  -1   52.79    1.89
   5   6   1   53.43    1.83
   5   6   1   50.89    1.90
   5   6   1   53.29    1.89
   5   6   1   51.54    1.88
  -6  -6  -1   11.76    1.21
  -6  -6  -1    8.89    0.74
   6   6   1    9.37    0.81
   6   6   1    9.00    0.77
   6   6   1   11.19    0.85
  -7  -6  -1   46.13    2.19
  -7  -6  -1   46.43    1.56
   7   6   1   48.09    1.80
   7   6   1   46.25    1.76
   2  -7  -1    8.07    1.07
  -2   7   1    5.29    0.83
  -2   7   1    6.16    0.92
  -2   7   1    5.49    0.89
   1  -7  -1    4.94    0.82
  -1   7   1    4.16    0.71
  -1   7   1    4.54    0.77
   0  -7  -1   42.32    2.00
   0   7   1   46.51    1.95
   0   7   1   42.74    2.00
  -1  -7  -1   44.00    1.97
   1   7   1   44.98    1.97
   1   7   1   39.75    1.79
  -2  -7  -1   27.14    1.51
   2   7   1   26.86    1.40
   2   7   1   26.59    1.50
  -3  -7  -1   35.68    1.72
   3   7   1   37.16    1.76
   3   7   1   34.35    1.60
   3   7   1   37.54    1.64
  -4  -7  -1   71.85    2.79
  -4  -7  -1   74.90    2.63
   4   7   1   77.41    2.59
   4   7   1   75.88    2.50
   4   7   1   77.90    2.68
  -5  -7  -1   25.33    1.37
  -5  -7  -1   23.53    1.56
   5   7   1   24.51    1.27
   5   7   1   25.06    1.37
  -6  -7  -1   34.08    1.54
  -6  -7  -1   32.25    1.81
   6   7   1   32.91    1.57
   6   7   1   31.68    1.48
   1  -8  -1    0.63    0.58
  -1   8   1    0.20    0.49
  -1   8   1    0.24    0.48
  -1   8   1    0.34    0.47
   0  -8  -1    0.01    0.52
   0   8   1    0.50    0.46
   0   8   1   -0.60    0.44
  -1  -8  -1   38.62    2.03
   1   8   1   41.23    1.94
   1   8   1   39.31    2.06
  -2  -8  -1    5.06    0.93
   2   8   1    6.91    0.92
   2   8   1    3.57    0.78
  -3  -8  -1   40.93    2.01
   3   8   1   42.21    2.05
   3   8   1   40.97    1.88
  -4  -8  -1   38.12    1.90
   4   8   1   40.48    1.97
   4   8   1   35.43    1.76
  -5  -8  -1   46.46    2.06
  -5  -8  -1   44.16    2.23
   5   8   1   44.48    1.93
   4   8  -2    2.62    0.70
   4   8  -2    3.69    0.88
  -4  -8   2    1.85    0.64
   3   8  -2    3.03    0.76
   3   8  -2    3.51    0.76
  -3  -8   2    2.47    0.65
   2   8  -2    0.72    0.51
   2   8  -2    1.15    0.64
  -2  -8   2    0.43    0.52
   1   8  -2    2.27    0.66
   1   8  -2    2.96    0.79
  -1  -8   2    3.50    0.82
   6   7  -2   16.81    1.19
   6   7  -2   14.03    1.15
  -6  -7   2   14.01    1.11
  -6  -7   2   14.64    1.30
   5   7  -2   10.59    1.07
   5   7  -2    9.70    0.99
  -5  -7   2   10.69    1.05
  -5  -7   2   10.84    1.22
   4   7  -2   26.24    1.58
   4   7  -2   29.27    1.54
  -4  -7   2   28.17    1.63
  -4  -7   2   29.96    1.59
   3   7  -2    3.81    0.74
   3   7  -2    3.84    0.77
  -3  -7   2    4.26    0.80
   2   7  -2    0.46    0.43
   2   7  -2    0.18    0.41
  -2  -7   2    0.87    0.51
   1   7  -2    0.12    0.36
   1   7  -2   -0.22    0.44
  -1  -7   2    0.44    0.47
   0   7  -2    0.32    0.48
   0   7  -2    0.21    0.40
   0  -7   2   -0.10    0.46
  -1   7  -2    5.90    0.90
  -1   7  -2    5.45    0.84
   1  -7   2    8.79    1.12
  -2   7  -2    0.23    0.51
  -2   7  -2    1.44    0.58
   2  -7   2    1.43    0.66
   7   6  -2   21.42    1.26
  -7  -6   2   19.69    1.10
  -7  -6   2   20.09    1.42
   6   6  -2    0.37    0.34
  -6  -6   2   -0.34    0.38
  -6  -6   2    0.67    0.38
   5   6  -2   13.42    0.98
   5   6  -2   11.88    1.03
  -5  -6   2   13.40    0.99
  -5  -6   2   12.33    1.21
   4   6  -2    0.86    0.43
   4   6  -2    0.18    0.27
  -4  -6   2    0.53    0.47
  -4  -6   2    1.27    0.47
   3   6  -2    0.45    0.40
   3   6  -2    0.50    0.35
   3   6  -2    0.46    0.41
  -3  -6   2    0.55    0.43
   2   6  -2   20.96    1.21
   2   6  -2   24.74    1.38
   2   6  -2   22.25    1.25
  -2  -6   2   22.53    1.33
   1   6  -2   21.50    1.32
   1   6  -2   20.43    1.21
  -1  -6   2   20.98    1.29
   0   6  -2    0.73    0.42
   0   6  -2    1.31    0.49
   0  -6   2    1.31    0.44
  -1   6  -2    6.29    0.80
  -1   6  -2    6.72    0.90
   1  -6   2    6.94    0.87
   1  -6   2    4.95    0.74
  -2   6  -2   10.04    1.00
  -2   6  -2   10.81    1.09
   2  -6   2   10.51    0.94
   2  -6   2   11.97    1.21
  -3   6  -2   10.86    1.10
  -3   6  -2   12.11    1.09
   3  -6   2   13.96    1.12
   3  -6   2   14.67    1.33
  -4   6  -2   21.96    1.38
  -4   6  -2   20.82    1.35
   7   5  -2   22.65    1.19
   7   5  -2   21.48    1.17
  -7  -5   2   21.75    1.00
  -7  -5   2   18.89    1.32
   6   5  -2   14.46    0.96
   6   5  -2   12.92    0.92
  -6  -5   2   15.80    1.12
  -6  -5   2   14.42    0.88
   5   5  -2    6.63    0.68
   5   5  -2    5.79    0.66
   5   5  -2    7.60    0.81
  -5  -5   2    7.59    0.76
  -5  -5   2    7.17    0.87
   4   5  -2   49.00    1.79
   4   5  -2   48.67    1.76
   4   5  -2   49.56    1.86
  -4  -5   2   46.69    1.87
  -4  -5   2   49.66    1.81
   3   5  -2   12.77    0.86
   3   5  -2   11.89    0.91
   3   5  -2   10.91    0.82
  -3  -5   2   13.85    0.91
   2   5  -2   14.05    0.92
   2   5  -2   16.19    0.96
   2   5  -2   15.35    0.95
   2   5  -2   17.06    1.06
  -2  -5   2   16.15    0.90
  -2  -5   2   16.59    1.01
   1   5  -2   24.21    1.22
   1   5  -2   28.11    1.34
   1   5  -2   27.49    1.24
   1   5  -2   25.21    1.21
  -1  -5   2   27.21    1.32
  -1  -5   2   27.53    1.22
  -1  -5   2   24.78    1.17
   0   5  -2    1.33    0.42
   0   5  -2    1.00    0.25
   0   5  -2    2.28    0.51
   0  -5   2    1.51    0.39
   0  -5   2    1.20    0.45
   0  -5   2    1.37    0.39
  -1   5  -2   26.31    1.32
  -1   5  -2   21.89    1.20
  -1   5  -2   24.84    1.17
   1  -5   2   25.74    1.24
   1  -5   2   25.07    1.23
   1  -5   2   27.53    1.37
  -2   5  -2    7.46    0.86
  -2   5  -2    7.20    0.80
  -2   5  -2    7.37    0.78
   2  -5   2    7.73    0.87
   2  -5   2    7.99    0.79
   2  -5   2    5.33    0.68
  -3   5  -2   22.61    1.30
  -3   5  -2   26.25    1.34
  -3   5  -2   23.71    1.28
   3  -5   2   21.66    1.30
   3  -5   2   23.09    1.26
  -4   5  -2    3.23    0.62
  -4   5  -2    2.54    0.56
  -4   5  -2    2.49    0.56
   4  -5   2    4.08    0.67
  -5   5  -2   12.20    1.02
  -5   5  -2   12.30    0.94
   5  -5   2   13.26    1.05
   8   4  -2   21.37    1.10
   8   4  -2   21.46    1.11
   7   4  -2   37.99    1.48
   7   4  -2   36.08    1.46
  -7  -4   2   39.96    1.23
   6   4  -2    2.19    0.43
   6   4  -2    2.38    0.42
  -6  -4   2    2.30    0.39
  -6  -4   2    2.55    0.55
   5   4  -2  114.86    3.07
   5   4  -2  111.17    2.99
   5   4  -2  110.13    2.96
  -5  -4   2  106.78    2.96
  -5  -4   2  113.61    3.24
   4   4  -2   59.34    1.87
   4   4  -2   59.21    1.85
   4   4  -2   57.92    1.90
  -4  -4   2   58.46    1.87
  -4  -4   2   56.75    1.98
   3   4  -2   53.21    1.73
   3   4  -2   53.89    1.81
   3   4  -2   54.67    1.76
  -3  -4   2   55.50    1.81
   2   4  -2    0.21    0.23
   2   4  -2    0.03    0.26
   2   4  -2    0.21    0.26
  -2  -4   2    0.48    0.25
  -2  -4   2    0.37    0.28
   1   4  -2   90.98    2.53
   1   4  -2   94.21    2.56
   1   4  -2   88.64    2.51
   1   4  -2   92.29    2.65
  -1  -4   2   91.80    2.64
  -1  -4   2   92.23    2.52
   0   4  -2   21.92    1.01
   0   4  -2   21.01    1.03
   0   4  -2   17.28    0.92
   0  -4   2   21.74    0.99
   0  -4   2   21.87    1.06
   0  -4   2   18.37    0.94
  -1   4  -2    5.29    0.63
  -1   4  -2    4.47    0.58
  -1   4  -2    4.96    0.55
   1  -4   2    4.55    0.58
   1  -4   2    3.70    0.48
   1  -4   2    5.25    0.59
  -2   4  -2   17.89    1.01
  -2   4  -2   16.26    0.95
  -2   4  -2   16.49    0.97
   2  -4   2   16.78    0.94
   2  -4   2   18.31    0.98
   2  -4   2   18.88    1.03
  -3   4  -2   10.85    0.81
  -3   4  -2    9.48    0.79
  -3   4  -2    9.95    0.79
   3  -4   2    9.15    0.78
   3  -4   2   10.12    0.78
   3  -4   2   10.41    0.84
  -4   4  -2   31.38    1.36
  -4   4  -2   33.42    1.45
  -4   4  -2   31.94    1.36
  -4   4  -2   32.19    1.53
   4  -4   2   33.70    1.43
   4  -4   2   32.18    1.40
  -5   4  -2   -0.50    0.27
  -5   4  -2    0.43    0.28
   5  -4   2    0.38    0.34
   5  -4   2   -0.32    0.28
  -6   4  -2   24.32    1.32
  -6   4  -2   23.83    1.11
   6  -4   2   24.40    1.33
   8   3  -2   15.32    0.88
   7   3  -2   30.98    1.22
   7   3  -2   30.68    1.22
   6   3  -2   16.65    0.84
   6   3  -2   16.55    0.84
  -6  -3   2   15.75    0.69
   5   3  -2    9.08    0.63
   5   3  -2    9.10    0.62
   5   3  -2    8.97    0.62
  -5  -3   2    8.28    0.73
  -5  -3   2    8.98    0.57
   4   3  -2   77.77    2.12
   4   3  -2   78.08    2.19
   4   3  -2   77.66    2.15
  -4  -3   2   78.32    2.15
  -4  -3   2   76.73    2.30
  -4  -3   2   80.04    2.16
   3   3  -2   34.59    1.23
   3   3  -2   34.86    1.20
   3   3  -2   33.48    1.17
  -3  -3   2   35.12    1.27
  -3  -3   2   32.13    1.18
   2   3  -2    4.23    0.45
   2   3  -2    5.47    0.49
   2   3  -2    5.29    0.52
  -2  -3   2    5.23    0.44
  -2  -3   2    3.83    0.44
  -2  -3   2    4.74    0.45
   1   3  -2   37.60    1.30
   1   3  -2   36.60    1.22
   1   3  -2   35.54    1.23
  -1  -3   2   35.15    1.26
  -1  -3   2   36.14    1.21
   0   3  -2  443.41    9.58
   0   3  -2  458.88    9.72
   0   3  -2  465.60   10.07
   0  -3   2  457.58   10.04
   0  -3   2  451.20    9.73
   0  -3   2  448.32    9.71
  -1   3  -2    0.75    0.23
  -1   3  -2    0.81    0.26
   1  -3   2    0.62    0.24
   1  -3   2    0.40    0.23
   1  -3   2    0.83    0.26
  -2   3  -2    0.43    0.26
  -2   3  -2    0.24    0.24
  -2   3  -2    0.25    0.24
   2  -3   2    0.64    0.26
   2  -3   2    0.50    0.28
   2  -3   2    0.25    0.25
  -3   3  -2   89.80    2.55
  -3   3  -2   83.79    2.41
  -3   3  -2   89.17    2.44
   3  -3   2   87.53    2.40
   3  -3   2   85.56    2.45
   3  -3   2   84.14    2.38
  -4   3  -2    9.96    0.75
  -4   3  -2   10.72    0.70
  -4   3  -2   10.31    0.86
  -4   3  -2   10.88    0.69
   4  -3   2   11.61    0.78
   4  -3   2   10.23    0.73
   4  -3   2   10.11    0.74
  -5   3  -2   32.54    1.36
  -5   3  -2   31.89    1.19
  -5   3  -2   30.08    1.49
   5  -3   2   32.48    1.32
   5  -3   2   31.03    1.29
  -6   3  -2   21.37    0.89
  -6   3  -2   21.72    1.14
   6  -3   2   21.89    1.11
   6  -3   2   24.34    1.16
   8   2  -2   16.74    0.88
   7   2  -2   31.80    1.19
   6   2  -2    2.58    0.37
   6   2  -2    2.84    0.38
  -6  -2   2    2.76    0.25
  -6  -2   2    2.54    0.25
   5   2  -2   17.21    0.77
   5   2  -2   16.45    0.75
   5   2  -2   19.07    0.79
  -5  -2   2   18.30    0.69
  -5  -2   2   16.16    0.66
   4   2  -2   14.13    0.67
   4   2  -2   13.30    0.64
   4   2  -2   12.96    0.64
  -4  -2   2   13.90    0.63
  -4  -2   2   15.42    0.80
   3   2  -2    5.93    0.44
   3   2  -2    5.24    0.43
   3   2  -2    5.71    0.46
  -3  -2   2    5.82    0.42
  -3  -2   2    5.84    0.47
  -3  -2   2    6.15    0.44
   2   2  -2    1.21    0.23
   2   2  -2    1.47    0.27
   2   2  -2    1.37    0.27
  -2  -2   2    1.79    0.31
  -2  -2   2    1.40    0.25
  -2  -2   2    1.57    0.25
  -2  -2   2    1.00    0.27
   1   2  -2   24.44    0.87
   1   2  -2   23.67    0.86
   1   2  -2   24.84    0.91
  -1  -2   2   23.81    0.89
  -1  -2   2   25.04    0.87
   0   2  -2    3.54    0.36
   0   2  -2    3.10    0.37
   0  -2   2    3.61    0.41
   0  -2   2    3.79    0.38
   0  -2   2    3.77    0.39
  -1   2  -2   14.14    0.63
  -1   2  -2   15.19    0.69
  -1   2  -2   14.54    0.63
  -1   2  -2   13.97    0.66
   1  -2   2   16.47    0.70
   1  -2   2   14.58    0.66
   1  -2   2   13.75    0.64
  -2   2  -2    0.29    0.21
  -2   2  -2    0.03    0.21
  -2   2  -2    0.22    0.14
  -2   2  -2    0.27    0.18
   2  -2   2    0.40    0.19
   2  -2   2    0.29    0.18
   2  -2   2    0.19    0.18
  -3   2  -2    2.30    0.34
  -3   2  -2    3.06    0.46
  -3   2  -2    2.20    0.35
  -3   2  -2    2.39    0.31
   3  -2   2    2.32    0.34
   3  -2   2    2.85    0.38
   3  -2   2    3.12    0.38
   3  -2   2    2.76    0.35
  -4   2  -2   67.78    1.85
  -4   2  -2   69.79    1.98
  -4   2  -2   66.35    1.84
  -4   2  -2   68.53    2.15
   4  -2   2   69.06    1.91
   4  -2   2   69.83    1.95
   4  -2   2   70.41    2.18
   4  -2   2   70.94    1.92
  -5   2  -2    8.10    0.47
  -5   2  -2    8.21    0.62
  -5   2  -2    7.49    0.78
   5  -2   2    7.29    0.57
   5  -2   2    6.86    0.57
  -6   2  -2   62.84    1.98
   6  -2   2   63.56    1.90
   6  -2   2   62.46    1.90
   7  -2   2   41.19    1.49
   7  -2   2   40.86    1.48
   8   1  -2   50.20    1.65
   7   1  -2   50.42    1.57
   6   1  -2   76.85    2.27
   6   1  -2   72.08    2.00
   5   1  -2    1.62    0.34
   5   1  -2    2.11    0.30
   5   1  -2    2.16    0.31
  -5  -1   2    2.03    0.24
  -5  -1   2    1.91    0.23
   4   1  -2  228.64    5.12
   4   1  -2  223.25    5.03
   4   1  -2  234.60    5.07
   4   1  -2  238.04    5.23
  -4  -1   2  228.10    5.12
  -4  -1   2  235.99    5.13
   3   1  -2   30.04    0.92
   3   1  -2   28.55    0.98
   3   1  -2   29.32    0.90
   3   1  -2   29.64    0.95
  -3  -1   2   29.65    0.92
   2   1  -2   39.72    1.09
   2   1  -2   41.64    1.13
   2   1  -2   38.73    1.11
   2   1  -2   37.96    1.14
  -2  -1   2   40.27    1.05
  -2  -1   2   40.28    1.13
  -2  -1   2   40.76    1.07
  -2  -1   2   41.12    1.12
  -2  -1   2   39.25    1.13
   1   1  -2   94.82    2.20
   1   1  -2   95.58    2.27
   1   1  -2   95.11    2.18
  -1  -1   2   89.48    2.24
  -1  -1   2   95.14    2.19
  -1  -1   2   96.25    2.26
  -1  -1   2   95.23    2.17
   0   1  -2  219.91    4.60
   0   1  -2  207.14    4.74
   0  -1   2  219.11    4.60
   0  -1   2  215.34    4.75
   0  -1   2  214.66    4.60
  -1   1  -2   46.22    1.18
  -1   1  -2   46.17    1.24
  -1   1  -2   47.32    1.21
  -1   1  -2   49.16    1.20
  -1   1  -2   45.89    1.24
  -1   1  -2   48.09    1.25
   1  -1   2   45.25    1.20
   1  -1   2   47.40    1.21
   1  -1   2   46.18    1.25
  -2   1  -2   57.62    1.46
  -2   1  -2   56.92    1.58
  -2   1  -2   59.27    1.37
  -2   1  -2   57.56    1.49
   2  -1   2   58.19    1.44
   2  -1   2   58.28    1.45
   2  -1   2   59.09    1.59
   2  -1   2   58.13    1.46
   2  -1   2   59.55    1.51
  -3   1  -2    1.24    0.23
  -3   1  -2    1.41    0.20
  -3   1  -2    1.22    0.29
  -3   1  -2    1.31    0.20
   3  -1   2    1.52    0.22
   3  -1   2    1.59    0.23
   3  -1   2    1.42    0.30
   3  -1   2    1.53    0.22
   3  -1   2    1.38    0.24
  -4   1  -2   16.10    0.88
  -4   1  -2   16.27    0.56
  -4   1  -2   16.92    0.56
  -4   1  -2   15.85    0.70
   4  -1   2   17.00    0.71
   4  -1   2   16.51    0.63
   4  -1   2   16.33    0.87
   4  -1   2   16.43    0.63
   4  -1   2   16.77    0.65
  -5   1  -2   20.11    0.85
   5  -1   2   20.20    1.05
   5  -1   2   19.58    0.82
   5  -1   2   20.25    0.75
   5  -1   2   19.25    0.75
  -6   1  -2    0.21    0.23
   6  -1   2    0.08    0.18
   6  -1   2    0.05    0.19
   7  -1   2   32.30    1.14
   7  -1   2   34.19    1.18
   8   0  -2    4.52    0.53
   8   0  -2    5.29    0.59
   7   0  -2   41.38    1.41
   7   0  -2   42.04    1.42
   6   0  -2   14.90    0.89
   6   0  -2   16.44    0.76
   6   0  -2   16.86    0.78
   5   0  -2   85.60    2.19
   5   0  -2   83.85    2.36
   5   0  -2   85.72    2.24
  -5   0   2   90.52    2.08
  -5   0   2   84.64    2.07
   4   0  -2   30.65    1.00
   4   0  -2   31.02    1.08
   4   0  -2   29.94    0.95
   4   0  -2   30.32    1.08
  -4   0   2   29.79    0.91
  -4   0   2   30.64    0.93
   3   0  -2  295.88    6.25
   3   0  -2  296.62    6.29
   3   0  -2  300.57    6.10
   3   0  -2  291.01    6.45
  -3   0   2  288.23    6.41
   2   0  -2    3.53    0.34
   2   0  -2    3.47    0.29
   2   0  -2    3.82    0.31
   2   0  -2    3.96    0.34
  -2   0   2    2.96    0.28
  -2   0   2    3.76    0.27
  -2   0   2    3.45    0.25
  -2   0   2    3.05    0.28
   1   0  -2  355.69    7.55
   1   0  -2  361.03    7.33
   1   0  -2  342.63    7.21
  -1   0   2  356.32    7.54
  -1   0   2  348.78    7.31
  -1   0   2  351.59    7.54
   0   0  -2   69.72    1.63
   0   0  -2   68.24    1.40
   0   0   2   69.37    1.63
   0   0   2   67.33    1.48
   0   0   2   66.77    1.40
   0   0   2   68.99    1.58
  -1   0  -2  269.24    5.52
  -1   0  -2  267.17    5.39
  -1   0  -2  271.51    5.72
   1   0   2  272.84    5.40
   1   0   2  267.08    5.73
   1   0   2  264.35    5.54
  -2   0  -2   -0.13    0.10
  -2   0  -2   -0.05    0.08
  -2   0  -2   -0.13    0.08
   2   0   2   -0.03    0.18
   2   0   2    0.05    0.10
   2   0   2   -0.04    0.10
   2   0   2   -0.11    0.07
  -3   0  -2   61.08    1.43
   3   0   2   61.90    1.41
   3   0   2   60.69    1.42
   3   0   2   61.51    1.70
   3   0   2   59.60    1.31
  -4   0  -2   96.18    2.17
   4   0   2   94.44    2.02
   4   0   2   91.43    2.02
   4   0   2   94.84    2.16
   4   0   2   92.51    2.49
  -5   0  -2    0.62    0.20
   5   0   2    0.65    0.14
   5   0   2    0.41    0.19
   5   0   2    0.29    0.12
   5   0   2    0.37    0.25
   6   0   2   24.82    0.76
   6   0   2   24.84    0.76
   6   0   2   25.92    0.92
   7   0   2   31.47    0.96
   7   0   2   30.76    0.95
   8   0   2   32.74    1.05
   8   0   2   32.65    1.05
   7  -1  -2   16.68    0.89
   7  -1  -2   16.66    0.89
   6  -1  -2    0.19    0.25
   6  -1  -2    0.40    0.24
   6  -1  -2    0.18    0.26
  -6   1   2    0.26    0.29
  -6   1   2    0.33    0.16
   5  -1  -2    5.43    0.48
   5  -1  -2    5.71    0.64
   5  -1  -2    5.60    0.48
   5  -1  -2    5.01    0.48
  -5   1   2    5.80    0.62
  -5   1   2    4.51    0.38
  -5   1   2    5.08    0.38
   4  -1  -2   18.76    0.76
   4  -1  -2   16.87    0.74
   4  -1  -2   17.48    0.74
   4  -1  -2   17.17    0.83
   4  -1  -2   18.68    0.94
  -4   1   2   17.38    0.85
  -4   1   2   17.05    0.71
  -4   1   2   17.01    0.68
   3  -1  -2   30.27    1.06
   3  -1  -2   32.98    1.03
   3  -1  -2   32.06    0.99
   3  -1  -2   29.38    1.01
   3  -1  -2   29.53    0.97
  -3   1   2   29.76    1.07
  -3   1   2   30.67    0.99
  -3   1   2   29.34    1.00
   2  -1  -2   30.85    0.90
   2  -1  -2   30.57    0.92
   2  -1  -2   29.61    0.91
   2  -1  -2   29.33    0.94
   2  -1  -2   28.51    0.95
  -2   1   2   28.56    0.91
  -2   1   2   30.11    0.89
  -2   1   2   29.40    0.94
   1  -1  -2   17.95    0.63
   1  -1  -2   17.44    0.62
   1  -1  -2   19.08    0.66
  -1   1   2   17.68    0.55
  -1   1   2   17.67    0.64
  -1   1   2   18.92    0.64
  -1   1   2   18.11    0.61
  -1   1   2   17.83    0.61
   0  -1  -2  383.21    7.95
   0  -1  -2  390.11    7.80
   0  -1  -2  394.31    7.96
   0  -1  -2  368.05    8.18
   0   1   2  395.32    8.23
   0   1   2  382.39    7.95
   0   1   2  388.43    8.09
   0   1   2  370.49    8.18
  -1  -1  -2  110.71    2.51
  -1  -1  -2  108.91    2.34
  -1  -1  -2  108.33    2.34
  -1  -1  -2  108.39    2.26
  -1  -1  -2  109.72    2.43
   1   1   2  110.38    2.44
   1   1   2  106.63    2.26
   1   1   2  108.61    2.36
   1   1   2  109.03    2.50
   1   1   2  108.40    2.36
  -2  -1  -2  162.18    3.36
  -2  -1  -2  155.12    3.36
  -2  -1  -2  157.85    3.67
   2   1   2  156.12    3.65
   2   1   2  156.54    3.26
   2   1   2  160.41    3.40
   2   1   2  156.71    3.25
   3   1   2   70.30    1.49
   4   1   2   19.21    0.56
   5   1   2   96.61    2.69
   5   1   2  100.79    2.24
   6   1   2   54.86    1.44
   6   1   2   56.89    1.94
   7   1   2   93.07    2.07
   8   1   2   38.85    1.05
   8   1   2   39.87    1.07
   7  -2  -2   40.64    1.58
   7  -2  -2   39.14    1.54
  -7   2   2   43.03    1.73
   6  -2  -2    6.50    0.65
   6  -2  -2    5.95    0.62
  -6   2   2    5.61    0.45
  -6   2   2    7.19    0.79
   5  -2  -2   38.32    1.37
   5  -2  -2   39.64    1.39
  -5   2   2   38.76    1.30
  -5   2   2   37.86    1.48
   4  -2  -2    4.41    0.49
   4  -2  -2    3.49    0.44
   4  -2  -2    4.42    0.48
  -4   2   2    4.30    0.39
  -4   2   2    4.32    0.47
  -4   2   2    4.53    0.52
  -4   2   2    3.73    0.51
   3  -2  -2    3.96    0.44
   3  -2  -2    3.74    0.41
   3  -2  -2    3.18    0.40
  -3   2   2    3.97    0.47
  -3   2   2    3.93    0.43
  -3   2   2    3.13    0.37
  -3   2   2    3.53    0.44
   2  -2  -2    0.24    0.20
   2  -2  -2    0.25    0.20
   2  -2  -2    0.26    0.20
   2  -2  -2    0.37    0.21
  -2   2   2   -0.06    0.17
  -2   2   2    0.27    0.16
  -2   2   2    0.03    0.19
  -2   2   2    0.45    0.22
   1  -2  -2  104.44    2.52
   1  -2  -2  102.60    2.50
   1  -2  -2  105.55    2.52
   1  -2  -2  100.63    2.59
  -1   2   2  109.04    2.51
  -1   2   2  108.02    2.54
  -1   2   2  106.11    2.50
  -1   2   2  105.24    2.60
   0  -2  -2    2.90    0.30
   0  -2  -2    4.30    0.40
   0  -2  -2    4.88    0.36
   0  -2  -2    4.83    0.40
   0   2   2    4.45    0.40
   0   2   2    4.67    0.39
   0   2   2    5.30    0.42
   0   2   2    4.00    0.36
   0   2   2    4.31    0.36
  -1  -2  -2   97.21    2.36
  -1  -2  -2   98.75    2.22
  -1  -2  -2   99.04    2.28
   1   2   2   97.45    2.22
   1   2   2   98.29    2.36
   1   2   2  101.24    2.30
   1   2   2   96.33    2.28
  -2  -2  -2   -0.13    0.12
  -2  -2  -2   -0.24    0.11
  -2  -2  -2   -0.07    0.25
  -2  -2  -2   -0.03    0.14
  -2  -2  -2   -0.30    0.10
   2   2   2   -0.25    0.12
   2   2   2    0.19    0.15
   2   2   2   -0.25    0.13
   2   2   2   -0.15    0.13
  -3  -2  -2   98.75    2.28
  -3  -2  -2  102.20    2.29
  -3  -2  -2  101.11    2.67
   3   2   2  100.14    2.33
   3   2   2  102.64    2.26
   3   2   2  102.40    2.25
  -4  -2  -2  256.64    6.00
   4   2   2  257.08    5.43
   4   2   2  251.44    5.26
   4   2   2  248.98    5.19
   4   2   2  248.96    5.25
   5   2   2    0.33    0.13
   5   2   2    0.38    0.11
   5   2   2    0.46    0.11
   6   2   2   85.55    1.95
   6   2   2   90.58    1.97
   6   2   2   91.04    2.07
   7   2   2   21.24    0.63
   7   2   2   22.15    0.65
   8   2   2   57.76    1.42
   6  -3  -2   32.19    1.41
   6  -3  -2   32.10    1.41
  -6   3   2   33.05    1.26
  -6   3   2   32.50    1.52
   5  -3  -2   12.46    0.84
   5  -3  -2   10.72    0.80
  -5   3   2    9.55    0.70
  -5   3   2   12.62    0.89
  -5   3   2   12.97    0.90
   4  -3  -2  115.92    3.20
   4  -3  -2  122.83    3.15
   4  -3  -2  120.72    3.16
  -4   3   2  117.95    3.16
  -4   3   2  115.16    3.14
  -4   3   2  119.04    3.22
   3  -3  -2   26.03    1.10
   3  -3  -2   27.48    1.15
   3  -3  -2   27.37    1.11
  -3   3   2   26.57    1.16
  -3   3   2   26.62    1.12
  -3   3   2   26.67    1.12
   2  -3  -2   81.00    2.19
   2  -3  -2   78.46    2.18
   2  -3  -2   79.76    2.26
  -2   3   2   75.39    2.23
  -2   3   2   80.56    2.12
  -2   3   2   79.69    2.23
  -2   3   2   79.95    2.15
  -1   3   2    2.72    0.38
   0  -3  -2    6.41    0.50
   0  -3  -2    6.94    0.50
   0  -3  -2    6.21    0.53
   0  -3  -2    6.08    0.49
   0   3   2    6.18    0.50
   0   3   2    5.99    0.52
   0   3   2    6.39    0.50
   0   3   2    5.88    0.49
  -1  -3  -2    3.47    0.37
  -1  -3  -2    4.44    0.43
  -1  -3  -2    4.59    0.47
  -1  -3  -2    2.64    0.35
   1   3   2    3.77    0.41
   1   3   2    3.65    0.41
   1   3   2    3.85    0.43
   1   3   2    2.77    0.34
  -2  -3  -2   22.24    0.85
  -2  -3  -2   23.46    0.80
   2   3   2   23.16    0.84
   2   3   2   21.83    0.78
   2   3   2   22.31    0.86
   2   3   2   22.76    0.83
  -3  -3  -2   10.13    0.49
  -3  -3  -2   10.00    0.51
   3   3   2   10.20    0.52
   3   3   2   10.23    0.53
   3   3   2   10.27    0.49
   3   3   2    9.56    0.51
  -4  -3  -2   15.19    0.92
  -4  -3  -2   17.18    0.61
  -4  -3  -2   15.81    0.60
   4   3   2   15.68    0.64
   4   3   2   16.20    0.65
   4   3   2   16.90    0.66
  -5  -3  -2   22.30    1.20
   5   3   2   23.47    0.80
   5   3   2   24.39    0.81
   5   3   2   23.76    0.80
  -6  -3  -2    3.38    0.67
   6   3   2    4.57    0.33
   6   3   2    4.49    0.36
   6   3   2    4.59    0.37
   7   3   2   40.03    1.16
   7   3   2   40.65    1.15
   8   3   2   19.15    0.73
   8   3   2   19.90    0.74
   6  -4  -2    4.06    0.65
  -6   4   2    4.60    0.61
  -6   4   2    3.97    0.71
   5  -4  -2    1.80    0.48
   5  -4  -2    1.02    0.41
  -5   4   2    1.65    0.48
  -5   4   2    1.51    0.46
  -5   4   2    1.65    0.45
   4  -4  -2    1.76    0.46
   4  -4  -2    1.13    0.40
   4  -4  -2    1.34    0.43
  -4   4   2    0.80    0.36
  -4   4   2    1.78    0.45
  -4   4   2    0.76    0.37
   3  -4  -2   84.08    2.48
   3  -4  -2   86.34    2.58
   3  -4  -2   85.11    2.49
  -3   4   2   82.54    2.54
  -3   4   2   81.74    2.46
  -3   4   2   78.80    2.49
   2  -4  -2    8.61    0.72
   2  -4  -2   10.01    0.78
   2  -4  -2    9.56    0.74
  -2   4   2    8.96    0.68
  -2   4   2    9.80    0.75
  -2   4   2   10.17    0.76
  -2   4   2    9.98    0.65
   1  -4  -2   31.42    1.25
   1  -4  -2   30.53    1.28
   1  -4  -2   30.82    1.23
  -1   4   2   31.53    1.29
  -1   4   2   32.82    1.31
  -1   4   2   30.73    1.19
  -1   4   2   33.06    1.27
   0  -4  -2    0.29    0.24
   0  -4  -2    0.31    0.23
   0   4   2    0.60    0.26
   0   4   2    0.09    0.20
   0   4   2    0.48    0.28
  -1  -4  -2   20.97    0.98
  -1  -4  -2   22.40    0.93
  -1  -4  -2   20.99    0.92
   1   4   2   21.81    0.96
   1   4   2   21.01    0.92
   1   4   2   20.73    0.92
   1   4   2   21.83    0.99
  -2  -4  -2   25.77    1.07
  -2  -4  -2   27.31    1.01
   2   4   2   26.31    1.00
   2   4   2   26.86    1.03
   2   4   2   24.06    1.05
   2   4   2   27.30    1.05
  -3  -4  -2    3.38    0.44
  -3  -4  -2    3.32    0.53
   3   4   2    3.26    0.43
   3   4   2    3.10    0.40
   3   4   2    2.80    0.40
   3   4   2    3.43    0.42
  -4  -4  -2  120.01    3.02
  -4  -4  -2  119.67    3.03
  -4  -4  -2  121.20    3.42
   4   4   2  122.47    3.00
   4   4   2  123.18    2.90
   4   4   2  125.48    3.02
   4   4   2  119.34    3.07
  -5  -4  -2   13.26    1.00
  -5  -4  -2   13.70    0.62
  -5  -4  -2   13.69    0.63
   5   4   2   14.20    0.73
   5   4   2   13.18    0.70
   5   4   2   13.69    0.67
   5   4   2   13.22    0.70
  -6  -4  -2   28.48    0.79
  -6  -4  -2   26.72    1.45
  -6  -4  -2   28.78    0.81
   6   4   2   27.04    1.02
   6   4   2   26.16    1.01
  -7  -4  -2   27.06    1.56
   7   4   2   28.51    1.07
   7   4   2   29.82    1.06
   8   4   2   41.11    1.33
   8   4   2   40.43    1.33
   5  -5  -2    0.12    0.36
  -5   5   2   -0.01    0.33
  -5   5   2    0.36    0.37
   4  -5  -2   26.32    1.38
  -4   5   2   27.86    1.41
  -4   5   2   24.45    1.38
  -4   5   2   24.76    1.34
   3  -5  -2    2.13    0.52
   3  -5  -2    1.18    0.46
  -3   5   2    1.67    0.50
  -3   5   2    1.26    0.42
  -3   5   2    1.26    0.45
   2  -5  -2    3.00    0.55
   2  -5  -2    3.31    0.60
   2  -5  -2    4.35    0.64
  -2   5   2    4.07    0.62
  -2   5   2    2.78    0.52
  -2   5   2    2.81    0.55
  -2   5   2    3.95    0.66
   1  -5  -2    1.45    0.41
   1  -5  -2    1.90    0.49
   1  -5  -2    1.24    0.37
  -1   5   2    0.60    0.34
  -1   5   2    1.59    0.45
  -1   5   2    1.23    0.41
  -1   5   2    1.75    0.40
   0  -5  -2   49.97    1.85
   0  -5  -2   49.86    1.73
   0  -5  -2   52.14    1.78
   0   5   2   51.79    1.87
   0   5   2   49.26    1.76
   0   5   2   51.14    1.73
  -1  -5  -2    8.66    0.76
  -1  -5  -2    7.89    0.66
   1   5   2    7.57    0.66
   1   5   2    6.67    0.64
   1   5   2    7.49    0.72
   1   5   2    8.47    0.76
  -2  -5  -2   68.28    2.01
  -2  -5  -2   67.97    2.15
   2   5   2   65.56    2.05
   2   5   2   63.74    2.10
   2   5   2   67.27    2.01
   2   5   2   65.96    2.04
  -3  -5  -2    4.52    0.55
   3   5   2    5.33    0.56
   3   5   2    6.10    0.64
   3   5   2    6.05    0.62
   3   5   2    5.57    0.58
  -4  -5  -2   45.27    1.59
  -4  -5  -2   47.67    1.87
   4   5   2   46.23    1.51
   4   5   2   41.69    1.57
   4   5   2   46.52    1.59
   4   5   2   46.01    1.58
  -5  -5  -2  108.29    3.31
  -5  -5  -2  103.67    2.82
   5   5   2  106.76    2.87
   5   5   2  105.71    2.85
   5   5   2  105.26    2.91
   5   5   2  106.68    2.73
  -6  -5  -2    2.51    0.65
  -6  -5  -2    1.34    0.30
   6   5   2    2.19    0.42
   6   5   2    2.08    0.38
   6   5   2    1.97    0.37
  -7  -5  -2   63.27    2.57
  -7  -5  -2   61.81    1.55
   7   5   2   63.64    1.96
   7   5   2   63.55    1.97
  -8  -5  -2   27.56    1.73
   8   5   2   27.24    1.17
   8   5   2   27.86    1.18
   4  -6  -2    7.84    0.90
  -4   6   2    8.90    1.04
  -4   6   2    9.49    1.04
   3  -6  -2   46.33    2.02
   3  -6  -2   46.54    1.94
  -3   6   2   45.54    1.97
  -3   6   2   41.76    1.92
   2  -6  -2    8.65    0.95
   2  -6  -2   10.98    1.03
  -2   6   2    8.77    0.92
  -2   6   2   10.49    1.08
  -2   6   2    8.47    0.91
  -2   6   2   10.93    1.13
   1  -6  -2   39.95    1.78
   1  -6  -2   39.54    1.67
  -1   6   2   41.15    1.79
  -1   6   2   38.16    1.73
  -1   6   2   38.67    1.68
   0  -6  -2   16.49    1.15
   0  -6  -2   18.08    1.08
   0   6   2   19.26    1.20
   0   6   2   15.14    1.04
  -1  -6  -2   26.98    1.38
  -1  -6  -2   25.48    1.31
   1   6   2   24.38    1.25
   1   6   2   25.92    1.38
   1   6   2   25.61    1.31
   1   6   2   24.82    1.23
  -2  -6  -2    3.43    0.56
  -2  -6  -2    4.15    0.58
   2   6   2    4.06    0.67
   2   6   2    3.32    0.56
   2   6   2    3.86    0.59
   2   6   2    4.70    0.65
  -3  -6  -2   30.81    1.43
   3   6   2   30.25    1.32
   3   6   2   30.60    1.44
   3   6   2   30.96    1.40
   3   6   2   31.40    1.38
  -4  -6  -2   14.75    0.98
  -4  -6  -2   18.30    1.26
   4   6   2   16.22    1.05
   4   6   2   15.44    0.93
   4   6   2   15.03    0.99
   4   6   2   15.75    0.98
  -5  -6  -2    0.67    0.33
  -5  -6  -2   -0.08    0.41
   5   6   2    0.91    0.35
   5   6   2    0.78    0.38
   5   6   2    0.68    0.35
   5   6   2    0.74    0.37
  -6  -6  -2    5.93    0.91
  -6  -6  -2    5.69    0.63
   6   6   2    6.42    0.70
   6   6   2    6.80    0.68
   6   6   2    5.16    0.63
  -7  -6  -2   19.62    0.89
  -7  -6  -2   21.28    1.50
   7   6   2   19.70    1.10
   7   6   2   22.23    1.15
  -3   7   2   16.00    1.27
  -3   7   2   11.94    1.22
   2  -7  -2   23.38    1.54
  -2   7   2   26.22    1.54
  -2   7   2   25.39    1.56
  -2   7   2   24.07    1.57
   1  -7  -2   15.10    1.24
  -1   7   2   14.15    1.13
  -1   7   2   16.09    1.28
  -1   7   2   15.26    1.23
   0  -7  -2   11.75    1.16
   0   7   2   13.62    1.14
   0   7   2   13.69    1.08
  -1  -7  -2    0.21    0.42
   1   7   2    0.69    0.46
   1   7   2    0.22    0.36
  -2  -7  -2   16.32    1.18
   2   7   2   15.43    1.07
   2   7   2   17.15    1.22
  -3  -7  -2    0.76    0.45
   3   7   2    0.98    0.42
   3   7   2    1.74    0.47
   3   7   2    1.19    0.54
  -4  -7  -2    2.58    0.57
  -4  -7  -2    2.04    0.65
   4   7   2    2.12    0.48
   4   7   2    2.59    0.53
   4   7   2    2.84    0.64
  -5  -7  -2    7.69    1.06
  -5  -7  -2    6.81    0.82
   5   7   2    6.82    0.80
   5   7   2    5.81    0.77
  -6  -7  -2   -0.14    0.48
  -6  -7  -2   -0.02    0.33
   6   7   2   -0.14    0.30
   6   7   2   -0.13    0.32
  -7  -7  -2    6.35    1.08
  -7  -7  -2    7.20    0.72
   7   7   2    6.16    0.77
   1  -8  -2    2.25    0.69
  -1   8   2    2.17    0.72
  -1   8   2    2.16    0.67
  -1   8   2    2.07    0.72
   0  -8  -2    5.57    0.98
   0   8   2    3.80    0.77
   0   8   2    4.14    0.87
  -1  -8  -2    7.42    0.98
   1   8   2    8.20    0.98
   1   8   2    6.88    0.98
  -2  -8  -2   -0.60    0.41
   2   8   2    0.09    0.43
   2   8   2    0.40    0.54
  -3  -8  -2    0.84    0.52
   3   8   2    1.25    0.63
   3   8   2    0.44    0.44
  -4  -8  -2   25.56    1.54
   4   8   2   26.25    1.43
   4   8   2   23.95    1.54
  -5  -8  -2   12.83    1.43
  -5  -8  -2   12.43    1.10
   5   8   2    9.82    1.00
   3   8  -3    3.12    0.83
   3   8  -3    1.28    0.59
  -3  -8   3    1.98    0.73
   2   8  -3   33.49    1.84
   2   8  -3   35.54    1.97
  -2  -8   3   33.44    1.92
   5   7  -3   29.42    1.59
  -5  -7   3   30.46    1.71
  -5  -7   3   31.28    1.67
   4   7  -3   30.37    1.62
   4   7  -3   31.25    1.73
  -4  -7   3   31.16    1.70
  -4  -7   3   29.58    1.67
   3   7  -3   28.71    1.57
   3   7  -3   25.88    1.61
  -3  -7   3   29.26    1.66
   2   7  -3   17.00    1.26
   2   7  -3   17.58    1.37
  -2  -7   3   16.49    1.32
   1   7  -3   46.50    2.08
   1   7  -3   49.93    2.21
  -1  -7   3   46.85    2.16
   0   7  -3   18.13    1.38
   0   7  -3   17.84    1.29
   0  -7   3   16.67    1.35
  -1   7  -3   23.90    1.49
  -1   7  -3   20.62    1.52
   1  -7   3   22.94    1.57
  -2   7  -3    3.28    0.76
  -2   7  -3    5.49    0.86
   2  -7   3    3.88    0.82
   6   6  -3   46.43    1.96
  -6  -6   3   48.99    2.10
  -6  -6   3   48.97    1.94
   5   6  -3   15.45    1.10
   5   6  -3   18.04    1.23
  -5  -6   3   16.79    1.13
  -5  -6   3   16.85    1.23
   4   6  -3   53.91    2.08
   4   6  -3   57.85    2.21
  -4  -6   3   54.80    2.17
  -4  -6   3   53.93    2.13
   3   6  -3   23.33    1.40
   3   6  -3   26.96    1.38
   3   6  -3   24.28    1.30
  -3  -6   3   21.91    1.33
   2   6  -3   11.91    1.09
   2   6  -3   10.39    1.08
  -2  -6   3   10.73    1.08
   1   6  -3   40.36    1.76
   1   6  -3   37.42    1.79
  -1  -6   3   39.26    1.80
   0   6  -3   38.92    1.80
   0   6  -3   38.45    1.72
   0  -6   3   36.91    1.79
  -1   6  -3   -0.39    0.29
  -1   6  -3   -0.21    0.34
   1  -6   3   -0.20    0.39
  -2   6  -3    7.07    0.92
  -2   6  -3    6.99    0.88
   2  -6   3    8.05    1.01
  -3   6  -3    4.42    0.76
  -3   6  -3    4.76    0.79
   7   5  -3   26.33    1.34
  -7  -5   3   27.14    1.51
  -7  -5   3   23.51    1.14
   6   5  -3   18.97    1.12
   6   5  -3   18.32    1.10
  -6  -5   3   18.14    1.18
  -6  -5   3   19.51    1.08
   5   5  -3  117.09    3.26
   5   5  -3  115.20    3.37
   5   5  -3  114.16    3.29
  -5  -5   3  114.82    3.30
  -5  -5   3  114.25    3.41
   4   5  -3   27.39    1.38
   4   5  -3   28.11    1.31
   4   5  -3   27.67    1.33
  -4  -5   3   29.58    1.42
  -4  -5   3   26.98    1.33
   3   5  -3   55.98    2.04
   3   5  -3   51.96    1.89
   3   5  -3   52.65    1.92
  -3  -5   3   54.80    2.00
  -3  -5   3   56.87    1.91
   2   5  -3    0.37    0.28
   2   5  -3   -0.08    0.26
   2   5  -3    0.43    0.38
  -2  -5   3    0.28    0.33
  -2  -5   3    0.16    0.27
   1   5  -3   53.61    2.05
   1   5  -3   56.88    1.96
   1   5  -3   58.37    1.96
   1   5  -3   56.00    1.99
  -1  -5   3   55.00    1.92
  -1  -5   3   56.14    2.06
  -1  -5   3   55.70    1.92
   0   5  -3    9.63    0.73
   0   5  -3    7.12    0.80
   0   5  -3    8.30    0.82
   0  -5   3    9.58    0.78
   0  -5   3    9.81    0.79
   0  -5   3    9.16    0.92
  -1   5  -3    1.98    0.50
  -1   5  -3    2.46    0.53
   1  -5   3    1.72    0.48
   1  -5   3    2.01    0.46
   1  -5   3    1.30    0.47
  -2   5  -3    0.52    0.36
  -2   5  -3    0.93    0.44
  -2   5  -3    0.49    0.34
   2  -5   3    0.63    0.39
   2  -5   3    0.59    0.38
  -3   5  -3    4.67    0.69
  -3   5  -3    5.40    0.74
   3  -5   3    3.86    0.65
   3  -5   3    4.94    0.76
  -4   5  -3    0.81    0.43
  -4   5  -3    2.09    0.52
   4  -5   3    1.68    0.51
  -5   5  -3    1.57    0.48
   7   4  -3    6.00    0.67
   7   4  -3    6.82    0.74
  -7  -4   3    5.98    0.53
   6   4  -3   19.65    1.04
   6   4  -3   20.22    1.07
  -6  -4   3   17.70    1.15
  -6  -4   3   19.76    0.96
   5   4  -3   22.75    1.12
   5   4  -3   23.87    1.15
   5   4  -3   24.37    1.16
  -5  -4   3   22.37    1.17
  -5  -4   3   24.37    1.12
   4   4  -3  169.17    4.33
   4   4  -3  163.33    4.18
   4   4  -3  172.11    4.23
  -4  -4   3  170.27    4.31
  -4  -4   3  170.84    4.35
   3   4  -3   48.24    1.73
   3   4  -3   46.70    1.63
   3   4  -3   50.49    1.70
  -3  -4   3   46.13    1.68
  -3  -4   3   48.06    1.59
   2   4  -3   67.39    2.19
   2   4  -3   70.56    2.14
   2   4  -3   67.92    2.09
  -2  -4   3   69.97    2.06
  -2  -4   3   71.74    2.21
   1   4  -3    3.95    0.59
   1   4  -3    1.82    0.40
   1   4  -3    3.82    0.52
  -1  -4   3    3.65    0.58
  -1  -4   3    3.40    0.47
  -1  -4   3    3.54    0.51
   0   4  -3  148.14    3.62
   0   4  -3  139.33    3.61
   0   4  -3  145.37    3.78
   0  -4   3  141.34    3.60
   0  -4   3  138.96    3.60
   0  -4   3  133.24    3.73
  -1   4  -3   26.57    1.25
  -1   4  -3   26.21    1.13
  -1   4  -3   28.76    1.23
   1  -4   3   27.87    1.21
   1  -4   3   26.70    1.19
   1  -4   3   28.07    1.28
  -2   4  -3   20.57    1.06
  -2   4  -3   18.86    1.08
  -2   4  -3   18.41    1.03
   2  -4   3   19.31    1.03
   2  -4   3   17.86    1.00
   2  -4   3   19.33    1.08
  -3   4  -3    4.96    0.70
  -3   4  -3    4.52    0.62
  -3   4  -3    4.30    0.60
   3  -4   3    3.75    0.54
   3  -4   3    4.65    0.64
   3  -4   3    4.63    0.67
  -4   4  -3    4.21    0.67
  -4   4  -3    4.74    0.65
  -4   4  -3    5.08    0.64
   4  -4   3    6.43    0.73
   4  -4   3    4.49    0.61
  -5   4  -3    0.17    0.27
  -5   4  -3    0.26    0.35
   5  -4   3   -0.11    0.32
   5  -4   3   -0.06    0.32
   8   3  -3    0.48    0.32
   7   3  -3   12.52    0.83
   7   3  -3   13.70    0.86
  -7  -3   3   12.76    0.61
   6   3  -3   21.51    1.04
   6   3  -3   22.79    1.04
  -6  -3   3   21.83    0.92
   5   3  -3   77.26    2.21
   5   3  -3   78.23    2.28
   5   3  -3   75.31    2.23
  -5  -3   3   77.93    2.20
  -5  -3   3   77.79    2.39
   4   3  -3   32.40    1.22
   4   3  -3   30.99    1.18
   4   3  -3   30.92    1.24
  -4  -3   3   31.21    1.19
  -4  -3   3   29.87    1.23
   3   3  -3    5.03    0.54
   3   3  -3    4.03    0.48
   3   3  -3    3.45    0.42
  -3  -3   3    3.40    0.46
  -3  -3   3    3.92    0.46
   2   3  -3   73.95    2.04
   2   3  -3   74.35    2.06
   2   3  -3   69.85    2.11
  -2  -3   3   69.55    2.08
  -2  -3   3   73.31    2.00
   1   3  -3   93.44    2.45
   1   3  -3   96.04    2.48
   1   3  -3   91.22    2.55
  -1  -3   3   92.53    2.54
  -1  -3   3   89.80    2.43
   0   3  -3   89.50    2.36
   0   3  -3   86.37    2.47
   0  -3   3   86.39    2.35
   0  -3   3   88.36    2.37
   0  -3   3   91.63    2.49
  -1   3  -3  125.62    3.39
  -1   3  -3  136.00    3.27
  -1   3  -3  130.97    3.28
   1  -3   3  132.54    3.42
   1  -3   3  132.91    3.30
   1  -3   3  137.46    3.31
  -2   3  -3    0.61    0.29
  -2   3  -3    0.80    0.32
  -2   3  -3    0.85    0.31
   2  -3   3    0.77    0.29
   2  -3   3    1.10    0.31
   2  -3   3    1.04    0.31
  -3   3  -3   41.77    1.48
  -3   3  -3   43.36    1.49
  -3   3  -3   41.84    1.60
   3  -3   3   43.03    1.48
   3  -3   3   40.58    1.50
   3  -3   3   38.08    1.43
  -4   3  -3    0.24    0.32
  -4   3  -3    0.50    0.29
  -4   3  -3    0.51    0.29
   4  -3   3   -0.17    0.26
   4  -3   3    0.31    0.28
   4  -3   3    0.58    0.31
  -5   3  -3   23.58    1.31
  -5   3  -3   21.86    0.97
  -5   3  -3   22.97    1.13
   5  -3   3   22.25    1.09
   5  -3   3   23.24    1.10
  -6   3  -3    5.55    0.52
  -6   3  -3    4.88    0.62
   6  -3   3    6.11    0.68
   6  -3   3    4.95    0.63
   8   2  -3   -0.20    0.25
   7   2  -3    0.78    0.31
   6   2  -3   39.17    1.37
  -6  -2   3   37.32    1.17
   5   2  -3   13.72    0.75
   5   2  -3   13.45    0.73
   5   2  -3   12.93    0.74
  -5  -2   3   15.13    0.70
   4   2  -3  109.77    2.83
   4   2  -3  109.11    2.71
   4   2  -3  105.63    2.73
  -4  -2   3  106.31    2.84
  -4  -2   3  108.93    2.75
  -4  -2   3  110.09    2.77
   3   2  -3   21.93    0.87
   3   2  -3   20.72    0.87
  -3  -2   3   21.26    0.85
  -3  -2   3   22.73    0.89
   2   2  -3    2.77    0.35
   2   2  -3    3.23    0.42
   2   2  -3    3.79    0.44
  -2  -2   3    3.29    0.37
  -2  -2   3    3.94    0.40
  -2  -2   3    3.04    0.39
  -2  -2   3    4.03    0.44
   1   2  -3    7.77    0.56
   1   2  -3    8.13    0.52
  -1  -2   3    8.03    0.55
  -1  -2   3    6.74    0.50
   0   2  -3  126.26    3.00
   0   2  -3  127.89    3.12
   0  -2   3  127.49    3.02
   0  -2   3  124.25    3.11
   0  -2   3  124.88    3.00
  -1   2  -3   55.41    1.56
  -1   2  -3   53.92    1.52
  -1   2  -3   52.23    1.48
  -1   2  -3   52.74    1.49
  -1   2  -3   52.03    1.57
   1  -2   3   53.28    1.52
   1  -2   3   51.32    1.56
   1  -2   3   55.25    1.53
  -2   2  -3    3.32    0.45
  -2   2  -3    2.84    0.37
  -2   2  -3    3.99    0.42
   2  -2   3    3.90    0.42
   2  -2   3    3.42    0.42
   2  -2   3    3.71    0.41
  -3   2  -3   56.66    1.66
  -3   2  -3   57.03    1.64
  -3   2  -3   56.57    1.65
  -3   2  -3   57.99    1.83
   3  -2   3   57.27    1.69
   3  -2   3   58.65    1.65
   3  -2   3   55.76    1.63
  -4   2  -3   50.16    1.75
  -4   2  -3   46.77    1.42
  -4   2  -3   48.33    1.52
   4  -2   3   45.65    1.46
   4  -2   3   47.83    1.50
   4  -2   3   46.22    1.46
  -5   2  -3    4.51    0.52
  -5   2  -3    4.11    0.64
  -5   2  -3    4.41    0.38
   5  -2   3    3.12    0.43
   5  -2   3    4.86    0.51
  -6   2  -3    1.12    0.35
   6  -2   3    0.87    0.32
   6  -2   3    1.16    0.34
   7  -2   3   18.71    0.96
   7  -2   3   18.75    0.96
   8   1  -3    0.49    0.31
   7   1  -3    0.69    0.31
   6   1  -3    5.52    0.53
   6   1  -3    4.96    0.58
  -6  -1   3    4.75    0.35
   5   1  -3   71.84    2.03
   5   1  -3   71.28    1.98
  -5  -1   3   73.48    1.89
  -5  -1   3   71.24    1.89
   4   1  -3   33.38    1.15
   4   1  -3   33.08    1.19
   4   1  -3   33.31    1.12
  -4  -1   3   35.18    1.10
   3   1  -3  114.99    2.69
   3   1  -3  107.94    2.75
   3   1  -3  108.81    2.64
  -3  -1   3  109.34    2.71
  -3  -1   3  111.22    2.72
   2   1  -3   20.65    0.80
   2   1  -3   20.26    0.76
   2   1  -3   20.07    0.68
   2   1  -3   20.04    0.77
  -2  -1   3   19.46    0.73
  -2  -1   3   20.06    0.67
  -2  -1   3   19.72    0.71
  -2  -1   3   20.40    0.78
   1   1  -3    2.80    0.35
   1   1  -3    2.20    0.30
   1   1  -3    2.57    0.32
  -1  -1   3    2.10    0.30
  -1  -1   3    2.81    0.34
   0   1  -3    8.36    0.51
   0   1  -3    7.56    0.46
   0  -1   3    7.78    0.48
   0  -1   3    7.81    0.46
   0  -1   3    7.80    0.46
  -1   1  -3    0.57    0.18
  -1   1  -3    0.77    0.21
  -1   1  -3    1.35    0.23
  -1   1  -3    1.31    0.26
  -1   1  -3    0.77    0.20
   1  -1   3    0.66    0.18
   1  -1   3    1.12    0.24
   1  -1   3    0.98    0.21
  -2   1  -3   15.43    0.61
  -2   1  -3   14.67    0.58
  -2   1  -3   14.45    0.68
  -2   1  -3   14.72    0.60
  -2   1  -3   15.06    0.52
   2  -1   3   15.86    0.60
   2  -1   3   14.47    0.61
   2  -1   3   14.86    0.59
   2  -1   3   14.79    0.69
  -3   1  -3    2.94    0.27
  -3   1  -3    2.81    0.42
  -3   1  -3    3.44    0.34
  -3   1  -3    3.26    0.29
   3  -1   3    3.17    0.45
   3  -1   3    2.45    0.29
   3  -1   3    2.88    0.29
   3  -1   3    2.93    0.30
  -4   1  -3    9.22    0.42
  -4   1  -3    8.58    0.52
  -4   1  -3   10.59    0.73
  -4   1  -3    8.77    0.41
  -4   1  -3    9.47    0.42
   4  -1   3    8.65    0.48
   4  -1   3    9.51    0.69
   4  -1   3    9.51    0.49
   4  -1   3    9.35    0.52
   4  -1   3    8.91    0.48
  -5   1  -3    6.56    0.50
   5  -1   3    6.61    0.45
   5  -1   3    9.01    0.85
   5  -1   3    5.62    0.44
   5  -1   3    6.06    0.48
  -6   1  -3    1.80    0.34
   6  -1   3    1.58    0.30
   6  -1   3    1.36    0.29
   7  -1   3    6.11    0.51
   7  -1   3    5.58    0.50
   8   0  -3    2.80    0.47
   8   0  -3    2.40    0.45
   7   0  -3    0.34    0.27
   7   0  -3    0.24    0.27
   6   0  -3   39.72    1.34
   6   0  -3   38.87    1.45
  -6   0   3   35.06    1.08
   5   0  -3   24.21    1.05
   5   0  -3   25.61    0.99
   5   0  -3   24.86    0.98
  -5   0   3   26.34    0.90
  -5   0   3   25.02    0.87
   4   0  -3  236.55    5.30
   4   0  -3  244.47    5.50
   4   0  -3  235.66    5.46
   4   0  -3  241.44    5.17
  -4   0   3  236.56    5.38
   3   0  -3   21.87    0.76
   3   0  -3   20.07    0.78
   3   0  -3   21.64    0.83
   3   0  -3   20.83    0.85
  -3   0   3   21.28    0.78
  -3   0   3   21.05    0.80
   2   0  -3    8.72    0.48
   2   0  -3    7.83    0.49
   2   0  -3    7.26    0.41
   2   0  -3    7.56    0.50
  -2   0   3    7.85    0.43
  -2   0   3    7.40    0.45
  -2   0   3    7.45    0.42
  -2   0   3    7.04    0.46
   1   0  -3    8.88    0.46
   1   0  -3    8.70    0.47
   1   0  -3    8.94    0.28
   1   0  -3    8.31    0.48
  -1   0   3    7.66    0.46
  -1   0   3    8.70    0.44
   0   0  -3  617.59   12.40
   0   0  -3  623.36   13.21
   0   0   3  612.64   13.22
   0   0   3  621.99   13.15
   0   0   3  636.40   13.82
  -1   0  -3    0.31    0.14
  -1   0  -3    0.42    0.17
  -1   0  -3    0.40    0.16
  -1   0  -3    0.22    0.13
   1   0   3    0.25    0.14
   1   0   3    0.11    0.13
   1   0   3    0.12    0.13
  -2   0  -3   18.54    0.57
  -2   0  -3   18.48    0.53
  -2   0  -3   17.72    0.44
  -2   0  -3   17.84    0.57
   2   0   3   17.42    0.71
   2   0   3   19.46    0.60
   2   0   3   17.79    0.55
  -3   0  -3    0.12    0.09
  -3   0  -3    0.02    0.12
  -3   0  -3    0.11    0.09
   3   0   3    0.40    0.14
   3   0   3    0.15    0.11
   3   0   3    0.18    0.22
  -4   0  -3    1.55    0.20
   4   0   3    1.20    0.16
   4   0   3    1.45    0.33
  -5   0  -3    1.67    0.25
   5   0   3    0.90    0.33
   5   0   3    1.52    0.24
   5   0   3    1.51    0.19
   5   0   3    1.16    0.18
  -6   0  -3   15.94    0.66
   6   0   3   16.18    0.58
   6   0   3   16.21    0.57
   7   0   3    6.87    0.41
   7   0   3    6.56    0.41
   8   0   3    0.17    0.19
   8   0   3    0.02    0.18
   7  -1  -3   11.58    0.80
   7  -1  -3   10.56    0.77
   6  -1  -3    0.07    0.24
   6  -1  -3    0.22    0.25
   6  -1  -3    0.60    0.27
  -6   1   3    0.33    0.18
   5  -1  -3   26.08    1.07
   5  -1  -3   27.21    1.14
   5  -1  -3   26.32    1.06
   5  -1  -3   28.79    1.09
  -5   1   3   27.62    0.97
  -5   1   3   25.19    0.97
  -5   1   3   26.56    1.18
   4  -1  -3   22.31    0.90
   4  -1  -3   21.83    0.90
   4  -1  -3   22.85    0.93
   4  -1  -3   21.10    0.90
  -4   1   3   21.38    0.99
  -4   1   3   23.09    0.90
   3  -1  -3   60.21    1.64
   3  -1  -3   60.10    1.64
   3  -1  -3   57.70    1.67
   3  -1  -3   57.83    1.56
   3  -1  -3   57.55    1.70
  -3   1   3   58.94    1.73
  -3   1   3   58.62    1.67
  -3   1   3   60.11    1.64
   2  -1  -3   18.21    0.71
   2  -1  -3   18.69    0.72
   2  -1  -3   18.48    0.76
   2  -1  -3   17.38    0.62
   2  -1  -3   16.90    0.72
  -2   1   3   17.32    0.75
  -2   1   3   19.03    0.75
  -2   1   3   17.90    0.62
  -2   1   3   18.12    0.78
   1  -1  -3  116.13    2.62
   1  -1  -3  110.89    2.58
   1  -1  -3  116.90    2.62
   1  -1  -3  111.41    2.68
  -1   1   3  108.44    2.68
  -1   1   3  114.66    2.60
  -1   1   3  111.69    2.32
  -1   1   3  106.06    2.56
   0  -1  -3   10.63    0.46
   0  -1  -3   11.58    0.50
   0  -1  -3   11.68    0.49
   0  -1  -3   11.26    0.52
   0   1   3   10.85    0.52
   0   1   3   10.45    0.48
   0   1   3   10.99    0.47
   0   1   3   12.15    0.50
  -1  -1  -3  139.84    3.04
  -1  -1  -3  140.52    3.17
  -1  -1  -3  134.91    3.15
  -1  -1  -3  142.91    3.05
  -1  -1  -3  139.08    2.93
  -1  -1  -3  139.25    3.15
   1   1   3  142.40    2.94
   1   1   3  138.54    3.16
   1   1   3  136.85    3.16
   1   1   3  143.77    3.06
   1   1   3  142.40    3.06
  -2  -1  -3   75.05    1.71
  -2  -1  -3   71.98    1.94
  -2  -1  -3   72.08    1.71
   2   1   3   73.01    1.66
   2   1   3   74.49    1.73
   2   1   3   76.00    1.66
   3   1   3  127.16    2.61
   3   1   3  121.12    2.60
   3   1   3  128.56    2.76
   4   1   3    8.74    0.62
   5   1   3   77.06    2.26
   5   1   3   75.50    1.68
   6   1   3   16.90    0.56
   7  -2  -3    1.77    0.44
   7  -2  -3    1.23    0.42
  -7   2   3    0.93    0.42
  -7   2   3    1.28    0.26
   6  -2  -3    6.41    0.67
   6  -2  -3    5.12    0.62
  -6   2   3    5.52    0.50
  -6   2   3    6.07    0.75
   5  -2  -3    3.21    0.46
   5  -2  -3    3.18    0.50
  -5   2   3    3.92    0.58
  -5   2   3    3.97    0.48
   4  -2  -3   72.83    2.14
   4  -2  -3   72.43    2.09
   4  -2  -3   70.93    2.07
  -4   2   3   74.47    2.06
  -4   2   3   71.80    2.09
  -4   2   3   75.55    2.21
  -4   2   3   73.64    2.09
   3  -2  -3    0.25    0.21
   3  -2  -3    0.38    0.25
   3  -2  -3    0.30    0.22
  -3   2   3    0.42    0.22
  -3   2   3    0.36    0.25
  -3   2   3    0.71    0.27
   2  -2  -3   24.36    0.96
   2  -2  -3   23.80    0.92
   2  -2  -3   24.55    0.95
   2  -2  -3   23.84    0.92
  -2   2   3   24.00    0.96
  -2   2   3   23.95    0.87
  -2   2   3   25.49    0.87
  -2   2   3   23.59    0.94
   1  -2  -3    1.29    0.27
   1  -2  -3    0.83    0.25
   1  -2  -3    1.63    0.31
   1  -2  -3    1.74    0.34
  -1   2   3    1.90    0.31
  -1   2   3    2.09    0.33
  -1   2   3    1.90    0.33
  -1   2   3    1.82    0.33
   0  -2  -3   30.59    1.01
   0  -2  -3   30.38    0.97
   0  -2  -3   28.94    0.96
   0   2   3   30.37    1.01
   0   2   3   29.00    0.96
   0   2   3   29.92    0.97
   0   2   3   30.19    0.95
  -1  -2  -3   22.51    0.81
  -1  -2  -3   23.90    0.78
  -1  -2  -3   23.73    0.73
  -1  -2  -3   22.99    0.77
   1   2   3   22.58    0.72
   1   2   3   22.36    0.77
   1   2   3   24.02    0.79
   1   2   3   23.98    0.82
  -2  -2  -3   70.69    1.63
  -2  -2  -3   69.16    1.57
  -2  -2  -3   69.10    1.62
  -2  -2  -3   71.40    1.92
  -2  -2  -3   64.90    1.70
  -2  -2  -3   67.89    1.72
   2   2   3   73.81    1.70
   2   2   3   69.35    1.57
   2   2   3   71.82    1.75
   2   2   3   66.99    1.67
  -3  -2  -3   46.34    1.16
  -3  -2  -3   48.25    1.54
  -3  -2  -3   45.50    1.15
   3   2   3   44.37    1.15
   3   2   3   47.46    1.16
   3   2   3   46.36    1.03
   3   2   3   45.70    1.20
  -4  -2  -3   45.23    1.64
   4   2   3   43.97    1.08
   4   2   3   45.26    1.14
   4   2   3   46.28    1.08
   5   2   3   12.70    0.38
   6  -3  -3    5.45    0.69
   6  -3  -3    6.11    0.71
  -6   3   3    6.87    0.69
  -6   3   3    5.10    0.73
   5  -3  -3   40.32    1.53
   5  -3  -3   37.66    1.50
  -5   3   3   35.49    1.57
  -5   3   3   36.43    1.51
  -5   3   3   37.67    1.44
   4  -3  -3   74.89    2.25
   4  -3  -3   70.81    2.27
   4  -3  -3   75.18    2.27
  -4   3   3   75.87    2.28
  -4   3   3   71.41    2.31
  -4   3   3   80.74    2.28
   3  -3  -3  106.47    2.85
   3  -3  -3  105.64    2.84
   3  -3  -3  105.22    2.92
  -3   3   3  105.54    2.75
  -3   3   3  109.61    2.94
  -3   3   3  105.01    2.89
   2  -3  -3   29.83    1.22
   2  -3  -3   34.61    1.25
   2  -3  -3   32.75    1.21
  -2   3   3   32.57    1.14
  -2   3   3   32.47    1.16
  -2   3   3   32.18    1.24
  -2   3   3   33.59    1.26
   1  -3  -3    6.46    0.56
   1  -3  -3    7.20    0.55
   1  -3  -3    6.62    0.55
   1  -3  -3    5.91    0.52
  -1   3   3    6.13    0.51
  -1   3   3    6.21    0.50
  -1   3   3    7.39    0.53
  -1   3   3    6.69    0.57
   0  -3  -3  145.40    3.44
   0  -3  -3  143.49    3.43
   0  -3  -3  144.38    3.56
   0  -3  -3  143.02    3.36
   0   3   3  151.01    3.59
   0   3   3  147.85    3.43
   0   3   3  147.60    3.44
   0   3   3  141.92    3.54
   0   3   3  133.82    3.35
  -1  -3  -3  160.64    3.71
  -1  -3  -3  157.95    3.84
  -1  -3  -3  165.75    3.64
   1   3   3  162.94    3.73
   1   3   3  164.28    3.64
   1   3   3  164.78    3.74
   1   3   3  157.81    3.84
   1   3   3  155.81    3.84
  -2  -3  -3   15.76    0.64
  -2  -3  -3   17.03    0.67
  -2  -3  -3   17.58    0.74
   2   3   3   16.51    0.65
   2   3   3   17.80    0.73
   2   3   3   17.20    0.74
   2   3   3   16.46    0.71
  -3  -3  -3   17.78    0.93
  -3  -3  -3   16.67    0.67
  -3  -3  -3   17.59    0.70
   3   3   3   17.53    0.69
   3   3   3   17.92    0.62
   3   3   3   17.89    0.70
   3   3   3   17.22    0.72
  -4  -3  -3    2.42    0.26
  -4  -3  -3    2.59    0.27
  -4  -3  -3    0.86    0.36
   4   3   3    1.96    0.27
   4   3   3    1.64    0.21
   4   3   3    2.67    0.32
   4   3   3    1.84    0.26
  -5  -3  -3   78.75    2.56
   5   3   3   79.17    1.98
   5   3   3   81.36    1.95
   5   3   3   79.64    1.94
   5   3   3   80.00    1.81
  -6  -3  -3    1.53    0.55
   6   3   3    1.69    0.24
   6   3   3    1.80    0.21
   6   3   3    1.60    0.19
   6   3   3    1.62    0.24
   7   3   3    0.06    0.16
   7   3   3    0.24    0.15
   8   3   3    2.14    0.26
   8   3   3    2.90    0.29
   6  -4  -3   16.32    1.12
  -6   4   3   16.65    0.97
  -6   4   3   16.30    1.19
   5  -4  -3   -0.16    0.32
  -5   4   3    0.29    0.34
  -5   4   3    0.67    0.36
  -5   4   3    0.44    0.38
   4  -4  -3   64.17    2.13
   4  -4  -3   62.04    2.12
   4  -4  -3   59.65    2.13
  -4   4   3   59.82    2.07
  -4   4   3   63.77    2.14
  -4   4   3   63.45    2.20
   3  -4  -3   34.47    1.50
   3  -4  -3   36.15    1.47
   3  -4  -3   37.69    1.51
  -3   4   3   36.77    1.51
  -3   4   3   36.77    1.53
  -3   4   3   36.76    1.45
   2  -4  -3  148.33    3.84
   2  -4  -3  138.84    3.67
   2  -4  -3  146.56    3.72
  -2   4   3  146.09    3.73
  -2   4   3  137.48    3.57
  -2   4   3  140.90    3.55
  -2   4   3  147.81    3.82
   1  -4  -3  105.82    2.92
   1  -4  -3   96.07    2.76
   1  -4  -3  107.47    2.83
  -1   4   3  104.70    2.76
  -1   4   3  105.19    2.90
   0  -4  -3  218.99    5.09
   0  -4  -3  215.03    5.25
   0  -4  -3  215.15    5.07
   0   4   3  221.57    5.09
   0   4   3  218.36    5.02
   0   4   3  219.35    5.27
   0   4   3  218.48    5.27
   0   4   3  219.04    5.07
  -1  -4  -3  185.65    4.26
  -1  -4  -3  187.38    4.34
  -1  -4  -3  178.73    4.48
   1   4   3  184.53    4.35
   1   4   3  186.67    4.52
   1   4   3  182.52    4.34
   1   4   3  182.73    4.27
  -2  -4  -3   14.23    0.77
  -2  -4  -3   14.78    0.70
  -2  -4  -3   16.20    0.75
   2   4   3   14.74    0.80
   2   4   3   13.20    0.73
   2   4   3   14.82    0.77
   2   4   3   14.66    0.71
  -3  -4  -3   78.55    2.45
  -3  -4  -3   80.04    2.22
   3   4   3   81.89    2.17
   3   4   3   82.91    2.18
   3   4   3   80.11    2.23
   3   4   3   78.73    2.05
  -4  -4  -3   82.68    2.21
  -4  -4  -3   82.96    2.62
  -4  -4  -3   81.77    2.18
   4   4   3   84.38    2.23
   4   4   3   83.91    2.21
   4   4   3   83.07    2.25
   4   4   3   84.11    2.09
  -5  -4  -3    2.63    0.33
  -5  -4  -3    2.85    0.33
  -5  -4  -3    2.37    0.57
   5   4   3    2.56    0.32
   5   4   3    3.15    0.39
   5   4   3    2.30    0.36
   5   4   3    3.13    0.40
  -6  -4  -3   21.43    1.32
   6   4   3   21.77    0.78
   6   4   3   22.57    0.89
   6   4   3   22.64    0.89
  -7  -4  -3   12.29    1.26
   7   4   3   11.15    0.62
   7   4   3   11.23    0.62
   8   4   3    2.15    0.33
   8   4   3    1.43    0.29
   5  -5  -3    1.74    0.53
  -5   5   3    2.32    0.56
  -5   5   3    3.53    0.70
   4  -5  -3    0.93    0.46
  -4   5   3    1.16    0.43
  -4   5   3    1.33    0.49
  -4   5   3    1.14    0.45
   3  -5  -3   40.80    1.75
   3  -5  -3   41.37    1.71
  -3   5   3   38.48    1.63
  -3   5   3   40.70    1.72
  -3   5   3   40.24    1.73
   2  -5  -3   10.66    0.85
   2  -5  -3    9.07    0.81
   2  -5  -3    9.15    0.91
  -2   5   3    9.90    0.85
  -2   5   3    7.78    0.84
  -2   5   3    8.84    0.83
   1  -5  -3    2.53    0.47
   1  -5  -3    2.36    0.48
   1  -5  -3    3.67    0.56
  -1   5   3    1.77    0.37
  -1   5   3    3.44    0.60
  -1   5   3    3.01    0.58
  -1   5   3    2.42    0.49
   0  -5  -3   16.84    0.95
   0  -5  -3   16.23    1.00
   0  -5  -3   17.12    0.95
   0   5   3   18.59    1.06
   0   5   3   18.73    0.96
   0   5   3   12.37    0.84
   0   5   3   17.13    1.01
   0   5   3   14.75    0.89
  -1  -5  -3  163.44    4.20
  -1  -5  -3  158.08    4.00
   1   5   3  161.10    3.99
   1   5   3  160.56    4.04
   1   5   3  162.66    4.22
   1   5   3  159.62    4.02
  -2  -5  -3    9.37    0.69
  -2  -5  -3    8.87    0.72
   2   5   3    9.97    0.70
   2   5   3    9.59    0.77
   2   5   3   10.76    0.74
   2   5   3   10.40    0.73
  -3  -5  -3  119.49    3.21
   3   5   3  119.09    3.12
   3   5   3  117.53    3.00
   3   5   3  121.66    3.14
   3   5   3  116.32    3.20
  -4  -5  -3   14.76    0.83
  -4  -5  -3   12.71    0.98
   4   5   3   13.43    0.75
   4   5   3   14.16    0.82
   4   5   3   13.07    0.80
   4   5   3   14.25    0.84
  -5  -5  -3    8.92    0.99
  -5  -5  -3    7.30    0.58
   5   5   3    8.56    0.60
   5   5   3    8.25    0.66
   5   5   3    8.74    0.67
   5   5   3    7.60    0.65
  -6  -5  -3    7.90    0.51
  -6  -5  -3    7.89    0.98
   6   5   3    7.09    0.61
   6   5   3    7.83    0.55
   6   5   3    7.81    0.65
  -7  -5  -3    0.12    0.51
   7   5   3    0.22    0.27
   7   5   3   -0.02    0.24
  -8  -5  -3   20.15    1.51
   8   5   3   16.93    0.89
   8   5   3   16.94    0.89
  -4   6   3   13.26    1.14
  -4   6   3   13.41    1.13
   3  -6  -3   20.46    1.37
   3  -6  -3   21.03    1.32
  -3   6   3   21.27    1.34
  -3   6   3   23.72    1.40
   2  -6  -3    1.66    0.51
   2  -6  -3    1.88    0.53
  -2   6   3    1.95    0.52
  -2   6   3    1.97    0.59
  -2   6   3    1.61    0.51
   1  -6  -3    0.59    0.35
   1  -6  -3    0.94    0.47
  -1   6   3    0.91    0.46
  -1   6   3    0.17    0.36
  -1   6   3    0.58    0.40
   0  -6  -3   11.96    1.02
   0  -6  -3   14.76    0.99
   0   6   3   13.59    1.03
   0   6   3   14.94    1.00
   0   6   3   14.08    1.04
  -1  -6  -3    4.81    0.65
   1   6   3    7.48    0.88
   1   6   3    4.76    0.61
   1   6   3    5.32    0.62
   1   6   3    6.87    0.78
  -2  -6  -3   47.84    1.87
  -2  -6  -3   47.65    1.76
   2   6   3   51.35    1.84
   2   6   3   49.83    1.81
   2   6   3   48.88    1.77
   2   6   3   49.27    1.92
  -3  -6  -3    7.63    0.82
   3   6   3    6.11    0.71
   3   6   3    5.48    0.75
   3   6   3    6.34    0.69
   3   6   3    6.16    0.68
  -4  -6  -3   51.24    2.13
  -4  -6  -3   49.62    1.84
   4   6   3   53.01    1.75
   4   6   3   54.12    1.92
   4   6   3   48.70    1.81
   4   6   3   50.24    1.82
  -5  -6  -3    4.42    0.57
  -5  -6  -3    4.71    0.81
   5   6   3    4.20    0.58
   5   6   3    4.13    0.56
   5   6   3    5.03    0.59
   5   6   3    5.41    0.69
  -6  -6  -3   52.29    1.71
  -6  -6  -3   49.62    2.20
   6   6   3   49.31    1.64
   6   6   3   47.45    1.77
   6   6   3   50.25    1.81
  -7  -6  -3    1.21    0.30
  -7  -6  -3    1.58    0.65
   7   6   3    0.55    0.33
   7   6   3    1.21    0.38
   3  -7  -3   30.69    1.81
  -3   7   3   32.67    1.77
  -3   7   3   29.04    1.71
   2  -7  -3   27.93    1.67
  -2   7   3   28.69    1.66
  -2   7   3   27.49    1.61
   1  -7  -3   32.01    1.74
  -1   7   3   34.31    1.70
  -1   7   3   28.88    1.67
  -1   7   3   31.04    1.71
   0  -7  -3   67.63    2.62
   0   7   3   73.96    2.70
   0   7   3   72.71    2.54
   0   7   3   71.84    2.66
  -1  -7  -3   36.71    1.78
   1   7   3   37.16    1.67
   1   7   3   37.68    1.80
  -2  -7  -3   12.11    1.15
   2   7   3   10.19    1.02
   2   7   3   10.43    0.90
  -3  -7  -3   28.37    1.49
   3   7   3   29.02    1.43
   3   7   3   31.23    1.57
   3   7   3   27.90    1.37
  -4  -7  -3   11.30    1.22
  -4  -7  -3    8.61    0.90
   4   7   3    9.94    0.83
   4   7   3   11.35    0.99
   4   7   3    9.06    0.91
  -5  -7  -3   32.34    1.83
  -5  -7  -3   33.32    1.54
   5   7   3   31.40    1.39
   5   7   3   34.06    1.55
  -6  -7  -3    7.05    0.76
  -6  -7  -3    6.06    1.00
   6   7   3    6.17    0.69
   6   7   3    5.32    0.72
  -7  -7  -3    1.62    0.40
  -7  -7  -3    1.89    0.68
   7   7   3    1.91    0.48
   1  -8  -3    0.37    0.52
  -1   8   3    0.43    0.56
  -1   8   3   -0.03    0.40
  -1   8   3    0.68    0.60
   0  -8  -3   10.26    1.23
   0   8   3   12.33    1.34
   0   8   3   11.67    1.21
   0   8   3    9.87    1.21
  -1  -8  -3   44.43    2.13
   1   8   3   44.79    2.01
   1   8   3   41.84    2.11
  -2  -8  -3   46.45    2.18
   2   8   3   50.85    2.11
   2   8   3   50.10    2.26
  -3  -8  -3   12.04    1.22
   3   8   3   14.91    1.30
   3   8   3   14.44    1.11
  -4  -8  -3    8.43    1.13
  -4  -8  -3   12.17    1.09
   4   8   3   11.51    1.00
   4   8   3    8.93    1.01
  -5  -8  -3    0.98    0.65
  -5  -8  -3    1.26    0.48
   5   8   3    0.23    0.42
   5   8   3   -0.19    0.35
  -5  -7   4    4.28    0.85
  -5  -7   4    2.97    0.68
   4   7  -4    0.37    0.45
   4   7  -4    0.33    0.50
  -4  -7   4    0.51    0.47
  -4  -7   4    1.48    0.59
   3   7  -4    9.31    1.16
   3   7  -4    9.58    1.06
  -3  -7   4   10.09    1.17
   2   7  -4   10.66    1.13
   2   7  -4   12.38    1.31
  -2  -7   4   13.92    1.37
   1   7  -4   20.20    1.50
   1   7  -4   20.79    1.40
  -1  -7   4   20.20    1.51
   0   7  -4   36.21    1.86
   0   7  -4   37.23    1.95
   0  -7   4   36.10    1.95
  -1   7  -4   11.92    1.31
  -1   7  -4   11.76    1.19
   1  -7   4   15.68    1.49
   6   6  -4    1.77    0.54
  -6  -6   4    2.37    0.56
  -6  -6   4    1.27    0.53
   5   6  -4    5.28    0.76
   5   6  -4    4.85    0.77
  -5  -6   4    5.18    0.75
  -5  -6   4    4.69    0.79
   4   6  -4    1.01    0.42
   4   6  -4   -0.31    0.38
  -4  -6   4   -0.48    0.38
  -4  -6   4    0.26    0.41
   3   6  -4   26.25    1.52
  -3  -6   4   26.04    1.47
   2   6  -4   14.47    1.10
   2   6  -4   11.93    1.18
  -2  -6   4   14.78    1.13
   1   6  -4   13.48    1.08
   1   6  -4   14.50    1.15
  -1  -6   4   14.11    1.14
   0   6  -4   27.89    1.57
   0   6  -4   26.92    1.46
   0  -6   4   26.69    1.54
  -1   6  -4   12.58    1.06
  -1   6  -4   14.58    1.14
   1  -6   4   14.16    1.21
  -2   6  -4   20.00    1.31
  -2   6  -4   20.87    1.40
   2  -6   4   23.47    1.49
  -3   6  -4   62.66    2.45
  -3   6  -4   61.47    2.40
   7   5  -4    5.70    0.78
  -7  -5   4    6.77    0.89
  -7  -5   4    5.81    0.67
   6   5  -4    8.50    0.86
  -6  -5   4   10.38    0.93
  -6  -5   4    8.94    0.88
   5   5  -4    2.50    0.57
   5   5  -4    2.70    0.55
  -5  -5   4    1.28    0.45
  -5  -5   4    1.63    0.47
   4   5  -4   13.39    1.03
   4   5  -4   12.80    0.95
  -4  -5   4   13.88    0.96
  -4  -5   4   14.33    1.00
   3   5  -4    5.78    0.75
   3   5  -4    5.53    0.69
   3   5  -4    6.06    0.75
  -3  -5   4    4.79    0.66
   2   5  -4   43.57    1.81
   2   5  -4   38.70    1.72
   2   5  -4   42.77    1.70
  -2  -5   4   45.35    1.81
  -2  -5   4   44.14    1.76
   1   5  -4   16.32    1.05
   1   5  -4   15.56    1.10
   1   5  -4   15.30    0.99
  -1  -5   4   15.35    0.96
  -1  -5   4   16.69    1.11
   0   5  -4   78.37    2.49
   0   5  -4   76.83    2.59
   0  -5   4   74.68    2.42
   0  -5   4   72.96    2.55
  -1   5  -4    0.22    0.34
  -1   5  -4    0.38    0.35
   1  -5   4   -0.40    0.30
   1  -5   4    0.13    0.30
  -2   5  -4    0.14    0.35
  -2   5  -4    0.44    0.35
  -2   5  -4    0.01    0.32
   2  -5   4    0.68    0.45
   2  -5   4    0.47    0.32
  -3   5  -4   10.99    0.95
  -3   5  -4    8.58    0.92
   3  -5   4   13.27    1.06
   3  -5   4    8.51    0.87
  -4   5  -4    8.50    0.94
  -4   5  -4    8.74    0.90
   4  -5   4    8.52    0.94
   7   4  -4   18.64    1.11
   7   4  -4   15.88    1.04
  -7  -4   4   16.78    0.91
   6   4  -4   12.76    0.93
   6   4  -4   13.48    0.92
  -6  -4   4   13.29    0.97
  -6  -4   4   13.62    0.87
   5   4  -4    2.84    0.53
   5   4  -4    1.94    0.45
   5   4  -4    2.98    0.54
  -5  -4   4    2.12    0.47
  -5  -4   4    2.08    0.43
   4   4  -4    2.42    0.46
   4   4  -4    3.58    0.55
   4   4  -4    3.41    0.56
  -4  -4   4    3.87    0.58
  -4  -4   4    3.55    0.54
   3   4  -4   23.37    1.18
   3   4  -4   24.52    1.16
   3   4  -4   22.93    1.11
  -3  -4   4   22.71    1.03
  -3  -4   4   21.35    1.08
  -3  -4   4   23.53    1.16
   2   4  -4   49.79    1.70
   2   4  -4   50.68    1.74
   2   4  -4   48.12    1.78
  -2  -4   4   44.78    1.72
  -2  -4   4   46.45    1.63
   1   4  -4  123.79    3.29
   1   4  -4  121.13    3.24
   1   4  -4  124.54    3.43
  -1  -4   4  121.57    3.22
  -1  -4   4  119.02    3.23
  -1  -4   4  122.24    3.40
   0   4  -4   17.00    1.01
   0   4  -4   15.00    0.92
   0   4  -4   14.95    0.88
   0   4  -4   12.00    0.77
   0  -4   4   17.06    0.93
   0  -4   4   16.71    0.93
   0  -4   4   16.59    0.99
  -1   4  -4   33.93    1.40
  -1   4  -4   32.36    1.32
  -1   4  -4   32.69    1.44
   1  -4   4   34.86    1.39
   1  -4   4   33.27    1.45
   1  -4   4   32.80    1.36
  -2   4  -4    3.30    0.58
  -2   4  -4    3.97    0.61
  -2   4  -4    3.83    0.59
   2  -4   4    4.41    0.58
   2  -4   4    4.04    0.60
   2  -4   4    5.25    0.73
  -3   4  -4   31.81    1.44
  -3   4  -4   33.99    1.53
  -3   4  -4   32.05    1.41
   3  -4   4   31.63    1.41
   3  -4   4   34.74    1.44
   3  -4   4   34.92    1.51
  -4   4  -4    0.35    0.33
  -4   4  -4    0.75    0.37
   4  -4   4    0.33    0.34
   4  -4   4   -0.23    0.28
  -5   4  -4    2.02    0.46
  -5   4  -4    1.42    0.39
  -5   4  -4    2.16    0.49
   5  -4   4    1.48    0.46
   7   3  -4   10.58    0.82
  -7  -3   4    9.62    0.63
   6   3  -4    0.78    0.35
   6   3  -4    0.85    0.33
  -6  -3   4    0.60    0.27
   5   3  -4    8.70    0.73
   5   3  -4    8.21    0.70
   5   3  -4    6.69    0.65
  -5  -3   4    8.26    0.65
  -5  -3   4    7.85    0.70
   4   3  -4    4.17    0.53
   4   3  -4    5.42    0.60
   4   3  -4    4.89    0.54
  -4  -3   4    6.34    0.64
  -4  -3   4    4.84    0.54
   3   3  -4    0.18    0.28
   3   3  -4    0.23    0.24
   3   3  -4    0.24    0.26
  -3  -3   4    0.50    0.29
  -3  -3   4    0.22    0.20
  -3  -3   4    0.22    0.24
   2   3  -4   17.82    0.88
   2   3  -4   17.51    0.90
   2   3  -4   17.31    0.92
  -2  -3   4   17.25    0.83
  -2  -3   4   15.97    0.89
   1   3  -4   61.21    1.90
   1   3  -4   57.45    1.78
   1   3  -4   58.03    1.77
  -1  -3   4   58.78    1.86
  -1  -3   4   54.28    1.72
  -1  -3   4   56.22    1.76
   0   3  -4  136.02    3.53
   0   3  -4  134.69    3.38
   0  -3   4  138.25    3.53
   0  -3   4  133.05    3.38
   0  -3   4  135.58    3.39
  -1   3  -4    9.16    0.67
  -1   3  -4    7.53    0.66
  -1   3  -4    8.91    0.63
  -1   3  -4    8.77    0.66
   1  -3   4    7.76    0.62
   1  -3   4    8.25    0.66
   1  -3   4    7.94    0.62
  -2   3  -4   35.35    1.33
  -2   3  -4   37.43    1.42
  -2   3  -4   37.62    1.39
   2  -3   4   37.48    1.36
   2  -3   4   35.59    1.34
   2  -3   4   36.59    1.40
  -3   3  -4   53.04    1.73
  -3   3  -4   52.48    1.73
  -3   3  -4   54.28    1.88
   3  -3   4   51.06    1.76
   3  -3   4   51.14    1.70
   3  -3   4   50.28    1.70
  -4   3  -4   53.52    1.99
  -4   3  -4   57.38    1.82
  -4   3  -4   53.01    1.73
   4  -3   4   49.31    1.79
   4  -3   4   51.54    1.77
   4  -3   4   53.22    1.78
  -5   3  -4    3.80    0.57
  -5   3  -4    3.67    0.48
  -5   3  -4    3.60    0.48
   5  -3   4    4.05    0.56
   5  -3   4    3.36    0.53
  -6   3  -4   16.60    1.00
  -6   3  -4   15.05    0.75
   6  -3   4   16.50    0.99
   6  -3   4   14.89    0.97
   8   2  -4   14.40    0.94
   7   2  -4    7.50    0.72
  -7  -2   4    8.38    0.50
   6   2  -4   10.55    0.75
  -6  -2   4    8.59    0.59
   5   2  -4   28.34    1.18
   5   2  -4   27.83    1.15
   5   2  -4   28.07    1.16
  -5  -2   4   28.91    1.11
   4   2  -4    0.29    0.23
   4   2  -4    0.25    0.24
   4   2  -4    0.01    0.25
  -4  -2   4    0.14    0.21
  -4  -2   4    0.16    0.23
   3   2  -4    4.32    0.51
   3   2  -4    4.94    0.51
   3   2  -4    4.43    0.46
  -3  -2   4    4.57    0.44
  -3  -2   4    4.26    0.47
   2   2  -4   43.02    1.36
   2   2  -4   42.14    1.44
   2   2  -4   44.82    1.41
  -2  -2   4   40.18    1.39
  -2  -2   4   41.09    1.31
  -2  -2   4   41.69    1.23
  -2  -2   4   44.40    1.37
   1   2  -4   19.57    0.84
   1   2  -4   19.71    0.86
   1   2  -4   19.31    0.90
  -1  -2   4   19.03    0.84
  -1  -2   4   21.05    0.91
   0   2  -4    4.55    0.47
   0   2  -4    4.29    0.47
   0  -2   4    3.16    0.38
   0  -2   4    4.48    0.48
   0  -2   4    4.69    0.48
  -1   2  -4   55.67    1.59
  -1   2  -4   55.25    1.64
  -1   2  -4   54.58    1.68
  -1   2  -4   56.29    1.62
   1  -2   4   56.02    1.63
   1  -2   4   56.29    1.62
   1  -2   4   55.06    1.68
  -2   2  -4   -0.24    0.22
  -2   2  -4    0.21    0.23
  -2   2  -4    0.03    0.22
   2  -2   4    0.06    0.20
   2  -2   4    0.20    0.20
   2  -2   4    0.08    0.21
  -3   2  -4   52.78    1.58
  -3   2  -4   54.89    1.60
  -3   2  -4   53.54    1.76
  -3   2  -4   51.73    1.60
   3  -2   4   52.94    1.59
   3  -2   4   53.34    1.60
   3  -2   4   51.79    1.63
  -4   2  -4   40.91    1.36
  -4   2  -4   42.26    1.61
  -4   2  -4   38.85    1.29
   4  -2   4   39.40    1.37
   4  -2   4   40.70    1.37
   4  -2   4   41.27    1.36
  -5   2  -4   44.89    1.36
  -5   2  -4   46.33    1.55
  -5   2  -4   45.10    1.83
   5  -2   4   48.75    1.54
   5  -2   4   46.17    1.52
  -6   2  -4   11.35    0.74
   6  -2   4   11.55    0.75
   6  -2   4   11.52    0.74
   7  -2   4   16.04    0.91
   7  -2   4   15.30    0.89
   8   1  -4    5.25    0.63
   7   1  -4   61.77    1.96
  -7  -1   4   56.42    1.53
   6   1  -4    0.80    0.28
   6   1  -4    1.00    0.31
  -6  -1   4    0.88    0.25
   5   1  -4   17.04    0.83
   5   1  -4   18.03    0.88
   5   1  -4   17.17    0.87
  -5  -1   4   17.44    0.80
   4   1  -4   34.62    1.23
   4   1  -4   36.25    1.27
  -4  -1   4   35.38    1.22
  -4  -1   4   33.93    1.18
   3   1  -4   38.50    1.27
   3   1  -4   38.06    1.31
   3   1  -4   39.85    1.18
  -3  -1   4   38.84    1.28
   2   1  -4   35.18    1.14
   2   1  -4   33.47    1.17
   2   1  -4   34.80    1.15
  -2  -1   4   33.52    1.10
  -2  -1   4   34.63    1.09
  -2  -1   4   32.93    0.94
  -2  -1   4   36.03    1.17
   1   1  -4  269.64    6.32
   1   1  -4  282.70    6.13
   1   1  -4  290.35    6.17
  -1  -1   4  277.82    6.33
  -1  -1   4  288.85    6.15
   0   1  -4   30.07    1.06
   0   1  -4   29.28    0.99
   0  -1   4   29.32    1.04
   0  -1   4   30.78    1.00
   0  -1   4   30.77    1.00
  -1   1  -4   26.35    0.90
  -1   1  -4   27.25    0.96
  -1   1  -4   28.22    0.91
   1  -1   4   26.44    0.96
   1  -1   4   27.39    0.93
   1  -1   4   28.33    0.93
  -2   1  -4   39.33    1.14
  -2   1  -4   38.48    1.17
  -2   1  -4   38.88    1.19
  -2   1  -4   38.49    1.25
   2  -1   4   39.48    1.16
   2  -1   4   40.06    1.18
   2  -1   4   38.33    1.21
   2  -1   4   37.79    1.25
  -3   1  -4  102.64    2.42
  -3   1  -4  100.92    2.65
  -3   1  -4  101.11    2.48
   3  -1   4  103.44    2.46
   3  -1   4   99.75    2.44
   3  -1   4  103.40    2.67
   3  -1   4  101.25    2.53
  -4   1  -4   94.10    2.33
  -4   1  -4   96.65    2.35
  -4   1  -4  101.44    2.74
  -4   1  -4  100.53    2.39
   4  -1   4   97.28    2.40
   4  -1   4  100.00    2.73
   4  -1   4   97.61    2.46
   4  -1   4   98.71    2.41
  -5   1  -4    5.54    0.47
   5  -1   4    5.38    0.46
   5  -1   4    6.59    0.47
   5  -1   4    6.40    0.74
  -6   1  -4   22.21    0.90
   6  -1   4   22.13    0.88
   6  -1   4   21.87    0.87
   7  -1   4    0.61    0.26
   7  -1   4    0.56    0.27
   7   0  -4   15.17    0.91
   7   0  -4   15.65    0.91
  -7   0   4   15.26    0.60
   6   0  -4   11.55    0.75
   6   0  -4   10.81    0.76
  -6   0   4   10.10    0.59
   5   0  -4    2.77    0.40
   5   0  -4    3.31    0.47
   5   0  -4    2.79    0.40
  -5   0   4    2.85    0.38
   4   0  -4   32.61    1.14
   4   0  -4   30.01    1.13
   4   0  -4   29.62    1.03
  -4   0   4   31.31    1.07
  -4   0   4   28.23    1.07
   3   0  -4   37.87    1.29
   3   0  -4   39.40    1.28
   3   0  -4   37.33    1.23
   3   0  -4   39.38    1.09
  -3   0   4   36.87    1.25
  -3   0   4   39.40    1.34
   2   0  -4   -0.03    0.13
   2   0  -4    0.05    0.19
   2   0  -4    0.09    0.21
   2   0  -4   -0.02    0.17
  -2   0   4    0.15    0.19
  -2   0   4    0.17    0.17
  -2   0   4   -0.06    0.16
   1   0  -4  408.16    8.89
   1   0  -4  409.18    8.63
  -1   0   4  407.30    8.61
  -1   0   4  404.48    8.88
   0   0  -4  453.80    9.04
   0   0  -4  454.93    9.74
   0   0   4  456.29    9.51
   0   0   4  453.26    9.45
   0   0   4  432.50    9.71
  -1   0  -4  266.06    5.57
  -1   0  -4  250.61    5.74
  -1   0  -4  269.21    5.33
  -1   0  -4  265.45    5.77
   1   0   4  253.47    5.59
   1   0   4  265.05    5.78
   1   0   4  257.79    5.32
  -2   0  -4   62.77    1.45
  -2   0  -4   60.13    1.57
   2   0   4   62.35    1.63
   2   0   4   60.94    1.53
   2   0   4   63.03    1.61
  -3   0  -4   25.82    0.72
  -3   0  -4   25.65    0.75
  -3   0  -4   25.42    0.76
   3   0   4   25.94    1.01
   3   0   4   25.68    0.76
   3   0   4   25.60    0.80
  -4   0  -4   64.00    1.52
   4   0   4   65.18    1.60
   4   0   4   64.01    1.55
   4   0   4   63.90    1.54
   4   0   4   61.17    1.91
  -5   0  -4   11.69    0.51
   5   0   4   12.99    0.50
   5   0   4   11.96    0.49
   5   0   4   13.48    0.86
  -6   0  -4   12.29    0.55
   6   0   4   13.37    0.54
   6   0   4   13.02    0.53
   7   0   4   24.46    0.82
   7   0   4   24.81    0.83
   8   0   4    0.10    0.18
   8   0   4   -0.05    0.19
   7  -1  -4   14.46    0.93
   7  -1  -4   15.23    0.94
  -7   1   4   13.64    0.63
   6  -1  -4    2.00    0.41
   6  -1  -4    2.46    0.45
   6  -1  -4    1.65    0.39
  -6   1   4    2.13    0.35
   5  -1  -4    0.11    0.24
   5  -1  -4    0.02    0.24
   5  -1  -4   -0.15    0.23
   5  -1  -4   -0.17    0.23
  -5   1   4    0.20    0.29
  -5   1   4    0.13    0.22
   4  -1  -4   32.60    1.23
   4  -1  -4   31.46    1.19
   4  -1  -4   33.83    1.14
   4  -1  -4   33.61    1.20
  -4   1   4   33.88    1.20
  -4   1   4   32.51    1.14
  -4   1   4   33.65    1.30
   3  -1  -4   11.41    0.55
   3  -1  -4   13.38    0.68
   3  -1  -4   12.49    0.68
   3  -1  -4   12.00    0.68
  -3   1   4   12.61    0.73
  -3   1   4   12.60    0.69
   2  -1  -4    2.98    0.35
   2  -1  -4    3.48    0.36
   2  -1  -4    4.40    0.44
   2  -1  -4    2.50    0.35
  -2   1   4    4.08    0.43
  -2   1   4    3.96    0.46
   1  -1  -4   71.10    1.94
   1  -1  -4   71.97    1.89
   1  -1  -4   71.40    1.87
   1  -1  -4   73.47    1.89
  -1   1   4   72.45    1.86
  -1   1   4   76.30    1.54
  -1   1   4   75.71    1.90
  -1   1   4   72.93    1.94
   0  -1  -4  653.27   13.32
   0  -1  -4  649.68   13.05
   0  -1  -4  649.25   13.72
   0  -1  -4  605.47   13.30
   0   1   4  656.48   13.06
   0   1   4  634.20   13.72
   0   1   4  654.36   13.33
  -1  -1  -4    2.00    0.26
  -1  -1  -4    1.96    0.26
  -1  -1  -4    2.27    0.28
  -1  -1  -4    2.15    0.27
  -1  -1  -4    1.95    0.22
  -1  -1  -4    1.89    0.27
   1   1   4    2.38    0.28
   1   1   4    1.44    0.24
   1   1   4    1.42    0.24
   1   1   4    1.87    0.25
  -2  -1  -4   63.71    1.77
  -2  -1  -4   65.19    1.47
  -2  -1  -4   64.86    1.60
  -2  -1  -4   62.83    1.40
   2   1   4   62.64    1.56
   2   1   4   62.82    1.55
   2   1   4   63.81    1.61
  -3  -1  -4  225.98    4.81
   3   1   4  227.90    4.73
   3   1   4  220.32    4.89
   3   1   4  223.31    4.72
   4   1   4  225.27    5.04
   4   1   4  216.43    4.62
   4   1   4  222.13    4.63
   4   1   4  226.03    4.80
   5   1   4   13.44    0.85
   7  -2  -4    3.05    0.56
   7  -2  -4    3.57    0.59
  -7   2   4    3.17    0.41
   6  -2  -4    5.08    0.62
   6  -2  -4    4.10    0.58
  -6   2   4    3.45    0.63
  -6   2   4    4.06    0.52
   5  -2  -4    0.16    0.27
   5  -2  -4   -0.12    0.25
  -5   2   4   -0.08    0.24
  -5   2   4    0.45    0.33
   4  -2  -4    0.16    0.26
   4  -2  -4   -0.01    0.24
   4  -2  -4   -0.25    0.20
  -4   2   4    0.36    0.27
  -4   2   4   -0.03    0.24
   3  -2  -4   19.28    0.90
   3  -2  -4   20.88    0.92
   3  -2  -4   21.10    0.95
  -3   2   4   19.29    0.95
  -3   2   4   20.69    0.82
  -3   2   4   19.49    0.91
   2  -2  -4   30.37    1.09
   2  -2  -4   31.53    1.15
   2  -2  -4   29.69    1.09
  -2   2   4   31.25    1.15
  -2   2   4   28.69    1.11
  -2   2   4   29.47    0.94
   1  -2  -4   19.72    0.82
   1  -2  -4   18.37    0.84
   1  -2  -4   19.89    0.82
   1  -2  -4   19.44    0.82
  -1   2   4   20.73    0.80
  -1   2   4   19.04    0.79
  -1   2   4   19.78    0.85
  -1   2   4   19.23    0.82
   0  -2  -4   97.18    2.50
   0  -2  -4   99.89    2.37
   0  -2  -4   97.54    2.42
   0  -2  -4   97.54    2.41
   0   2   4  101.41    2.37
   0   2   4   96.21    2.40
   0   2   4   98.55    2.51
   0   2   4   97.93    2.41
  -1  -2  -4    0.49    0.24
  -1  -2  -4    0.72    0.23
  -1  -2  -4    0.50    0.22
  -1  -2  -4    0.36    0.18
   1   2   4    0.40    0.19
   1   2   4    0.49    0.23
   1   2   4    0.53    0.18
   1   2   4    0.81    0.23
  -2  -2  -4   12.74    0.67
  -2  -2  -4   13.61    0.59
  -2  -2  -4   13.40    0.47
  -2  -2  -4   13.39    0.52
  -2  -2  -4   13.33    0.56
   2   2   4   13.53    0.58
   2   2   4   13.27    0.56
   2   2   4   13.37    0.56
   2   2   4   12.91    0.46
  -3  -2  -4  120.56    2.72
  -3  -2  -4  117.95    3.09
  -3  -2  -4  119.05    2.71
   3   2   4  117.26    2.67
   3   2   4  117.84    2.76
   3   2   4  118.66    2.67
  -4  -2  -4   75.99    2.35
   4   2   4   76.88    1.85
   4   2   4   77.20    1.78
   4   2   4   78.58    1.78
   5   2   4  137.36    2.98
   5   2   4  141.40    2.98
   6  -3  -4    1.55    0.45
   6  -3  -4    1.39    0.48
  -6   3   4    1.06    0.45
  -6   3   4    1.22    0.38
   5  -3  -4    5.09    0.66
   5  -3  -4    5.95    0.70
  -5   3   4    4.70    0.56
  -5   3   4    5.78    0.75
   4  -3  -4    5.27    0.66
   4  -3  -4    7.11    0.71
   4  -3  -4    5.45    0.62
  -4   3   4    7.92    0.75
  -4   3   4    5.91    0.72
  -4   3   4    4.93    0.58
   3  -3  -4    0.29    0.29
   3  -3  -4    0.23    0.29
   3  -3  -4    0.06    0.27
  -3   3   4    0.53    0.31
  -3   3   4    0.40    0.23
  -3   3   4    0.30    0.30
   2  -3  -4    5.69    0.58
   2  -3  -4    4.32    0.51
   2  -3  -4    3.28    0.45
  -2   3   4    3.58    0.46
  -2   3   4    3.98    0.44
  -2   3   4    4.04    0.44
  -2   3   4    3.53    0.49
   1  -3  -4   17.28    0.83
   1  -3  -4   17.19    0.86
   1  -3  -4   17.55    0.83
  -1   3   4   17.14    0.82
  -1   3   4   16.81    0.80
  -1   3   4   16.73    0.80
  -1   3   4   16.97    0.87
   0  -3  -4    8.30    0.57
   0  -3  -4    8.50    0.61
   0  -3  -4    8.36    0.54
   0  -3  -4    7.86    0.56
   0   3   4    8.59    0.58
   0   3   4    7.84    0.55
   0   3   4    7.79    0.57
   0   3   4    8.69    0.62
  -1  -3  -4  107.30    2.69
  -1  -3  -4  109.52    2.69
  -1  -3  -4  109.12    2.80
  -1  -3  -4  109.86    2.61
   1   3   4  110.84    2.71
   1   3   4  109.15    2.71
   1   3   4  110.02    2.81
   1   3   4  110.43    2.63
  -2  -3  -4   22.50    0.88
  -2  -3  -4   21.03    0.98
  -2  -3  -4   21.54    0.75
  -2  -3  -4   21.12    0.79
   2   3   4   21.46    0.85
   2   3   4   21.61    0.84
   2   3   4   22.35    0.77
   2   3   4   21.30    0.86
  -3  -3  -4    0.53    0.19
  -3  -3  -4    0.64    0.20
  -3  -3  -4    0.40    0.30
   3   3   4    1.04    0.19
   3   3   4    0.56    0.21
   3   3   4    0.50    0.19
   3   3   4    0.62    0.21
  -4  -3  -4   45.43    1.25
  -4  -3  -4   47.92    1.26
   4   3   4   46.71    1.11
   4   3   4   46.39    1.30
   4   3   4   46.72    1.33
   4   3   4   44.99    1.29
  -5  -3  -4    1.68    0.48
   5   3   4    1.40    0.23
   5   3   4    1.97    0.26
   5   3   4    1.63    0.25
  -6  -3  -4   52.43    2.11
   6   3   4   49.84    1.32
   6   3   4   49.49    1.32
   7   3   4   16.32    0.59
   7   3   4   16.38    0.60
   8   3   4   26.68    0.78
   8   3   4   26.31    0.77
   6  -4  -4    7.71    0.90
  -6   4   4    7.50    0.81
  -6   4   4    9.81    1.07
   5  -4  -4    0.09    0.33
  -5   4   4   -0.03    0.27
  -5   4   4   -0.01    0.32
  -5   4   4    0.28    0.36
   4  -4  -4   12.03    0.92
   4  -4  -4   10.76    0.86
   4  -4  -4   10.75    0.87
  -4   4   4   12.28    0.93
  -4   4   4   12.53    0.92
  -4   4   4   11.41    0.85
   3  -4  -4   20.12    1.09
   3  -4  -4   19.05    1.08
   3  -4  -4   18.27    1.10
  -3   4   4   20.23    1.13
  -3   4   4   21.44    1.05
  -3   4   4   20.94    1.14
   2  -4  -4    1.00    0.36
   2  -4  -4    0.64    0.32
   2  -4  -4    0.95    0.40
  -2   4   4    1.44    0.42
  -2   4   4    1.29    0.35
  -2   4   4    1.28    0.37
  -2   4   4    1.65    0.33
   1  -4  -4   40.18    1.52
   1  -4  -4   38.25    1.43
   1  -4  -4   39.43    1.45
  -1   4   4   36.99    1.38
  -1   4   4   41.18    1.53
  -1   4   4   40.84    1.48
   0  -4  -4   95.09    2.60
   0  -4  -4   93.05    2.70
   0  -4  -4   98.31    2.61
   0   4   4   96.56    2.71
   0   4   4   95.82    2.62
   0   4   4   98.50    2.60
   0   4   4   95.00    2.58
  -1  -4  -4  143.30    3.59
  -1  -4  -4  152.92    3.56
  -1  -4  -4  154.23    3.64
  -1  -4  -4  147.10    3.77
   1   4   4  153.73    3.68
   1   4   4  144.07    3.55
   1   4   4  145.34    3.64
   1   4   4  148.71    3.78
   1   4   4  147.27    3.78
  -2  -4  -4    3.57    0.48
  -2  -4  -4    2.20    0.33
  -2  -4  -4    2.43    0.35
   2   4   4    2.79    0.36
   2   4   4    2.41    0.39
   2   4   4    2.48    0.36
   2   4   4    2.12    0.36
   2   4   4    2.95    0.43
  -3  -4  -4   19.50    1.04
  -3  -4  -4   17.70    0.83
   3   4   4   18.61    0.83
   3   4   4   17.55    0.81
   3   4   4   17.06    0.83
   3   4   4   17.17    0.74
  -4  -4  -4  137.29    3.84
  -4  -4  -4  143.13    3.43
  -4  -4  -4  140.27    3.39
   4   4   4  141.35    3.39
   4   4   4  143.78    3.19
   4   4   4  141.18    3.39
   4   4   4  135.94    3.46
  -5  -4  -4   58.40    1.58
  -5  -4  -4   58.58    1.59
  -5  -4  -4   56.87    2.17
   5   4   4   60.49    1.70
   5   4   4   60.36    1.70
   5   4   4   60.29    1.72
   5   4   4   59.69    1.72
   5   4   4   58.38    1.49
  -6  -4  -4    5.13    0.84
   6   4   4    3.23    0.39
   6   4   4    3.97    0.29
   6   4   4    4.04    0.43
  -7  -4  -4   16.18    1.29
   7   4   4   16.44    0.74
   7   4   4   17.19    0.75
   8   4   4    3.86    0.40
   8   4   4    3.44    0.38
   5  -5  -4    1.48    0.53
  -5   5   4    0.68    0.46
  -5   5   4    1.57    0.50
   4  -5  -4    0.96    0.43
  -4   5   4    1.10    0.47
  -4   5   4    1.23    0.47
  -4   5   4    1.12    0.43
   3  -5  -4    0.75    0.38
   3  -5  -4    0.92    0.47
  -3   5   4    0.33    0.34
  -3   5   4    0.10    0.36
  -3   5   4   -0.12    0.28
   2  -5  -4   12.19    0.91
   2  -5  -4   11.61    0.98
   2  -5  -4   11.92    0.90
  -2   5   4   12.45    0.87
  -2   5   4   13.39    0.93
  -2   5   4   11.89    0.93
   1  -5  -4    0.88    0.39
   1  -5  -4    1.73    0.47
   1  -5  -4    0.89    0.40
  -1   5   4    1.54    0.40
  -1   5   4    1.31    0.42
  -1   5   4    1.33    0.44
   0  -5  -4   54.27    1.98
   0  -5  -4   56.85    1.91
   0  -5  -4   61.50    1.96
   0   5   4   57.82    1.90
   0   5   4   54.81    1.87
   0   5   4   57.65    1.92
   0   5   4   57.62    2.01
   0   5   4   54.85    2.00
  -1  -5  -4   36.04    1.47
  -1  -5  -4   34.92    1.37
   1   5   4   34.83    1.39
   1   5   4   34.32    1.35
   1   5   4   34.55    1.45
   1   5   4   36.37    1.49
   1   5   4   37.93    1.43
  -2  -5  -4   17.05    0.88
  -2  -5  -4   16.44    0.95
   2   5   4   17.69    0.94
   2   5   4   17.97    0.91
   2   5   4   16.22    0.97
   2   5   4   17.59    0.93
  -3  -5  -4    8.72    0.90
  -3  -5  -4    7.75    0.67
   3   5   4    8.63    0.68
   3   5   4    8.09    0.71
   3   5   4    8.86    0.63
   3   5   4    8.20    0.67
  -4  -5  -4  195.58    4.87
  -4  -5  -4  200.97    5.28
   4   5   4  203.88    4.59
   4   5   4  197.17    4.93
   4   5   4  205.80    4.82
   4   5   4  206.69    4.84
  -5  -5  -4   19.75    1.26
  -5  -5  -4   18.66    0.88
   5   5   4   17.51    0.93
   5   5   4   18.87    0.95
   5   5   4   19.30    0.93
   5   5   4   17.43    0.79
  -6  -5  -4   30.42    1.62
  -6  -5  -4   31.58    1.06
   6   5   4   31.94    1.04
   6   5   4   31.60    1.23
   6   5   4   31.20    1.22
  -7  -5  -4   12.32    1.31
   7   5   4   11.47    0.74
   7   5   4   11.10    0.72
  -8  -5  -4    8.04    1.10
   8   5   4    8.17    0.64
   8   5   4    7.62    0.61
  -4   6   4    0.85    0.49
  -4   6   4    0.91    0.49
   3  -6  -4    5.19    0.82
  -3   6   4    4.29    0.74
  -3   6   4    4.93    0.73
  -3   6   4    6.10    0.86
   2  -6  -4    5.17    0.84
   2  -6  -4    4.53    0.68
  -2   6   4    4.97    0.75
  -2   6   4    5.81    0.78
  -2   6   4    6.21    0.86
   1  -6  -4   10.21    1.03
   1  -6  -4    9.88    0.87
  -1   6   4    8.37    0.93
  -1   6   4   11.15    0.94
   0  -6  -4    0.43    0.36
   0  -6  -4    0.39    0.43
   0   6   4   -0.17    0.33
   0   6   4   -0.04    0.29
   0   6   4    0.28    0.38
  -1  -6  -4    6.48    0.75
   1   6   4    7.90    0.88
   1   6   4    6.60    0.76
   1   6   4    6.68    0.80
   1   6   4    6.79    0.73
   1   6   4    8.36    0.83
  -2  -6  -4    7.03    0.81
  -2  -6  -4    5.84    0.62
   2   6   4    5.89    0.70
   2   6   4    4.42    0.58
   2   6   4    5.98    0.66
   2   6   4    5.85    0.66
  -3  -6  -4    5.22    0.68
   3   6   4    3.59    0.60
   3   6   4    6.60    0.75
   3   6   4    4.87    0.60
   3   6   4    4.79    0.62
  -4  -6  -4   10.34    0.82
  -4  -6  -4   10.16    1.04
   4   6   4   10.26    0.82
   4   6   4   11.20    0.76
   4   6   4   11.34    0.90
   4   6   4   10.38    0.82
  -5  -6  -4   18.75    1.01
  -5  -6  -4   19.89    1.32
   5   6   4   17.26    1.01
   5   6   4   19.79    0.95
   5   6   4   18.07    1.03
  -6  -6  -4   10.32    0.72
  -6  -6  -4   11.48    1.23
   6   6   4   10.97    0.70
   6   6   4   11.96    0.86
   6   6   4   10.85    0.80
  -7  -6  -4   43.30    1.34
  -7  -6  -4   42.58    2.12
   7   6   4   42.21    1.62
   7   6   4   42.84    1.64
   2  -7  -4    5.93    0.97
  -2   7   4    3.91    0.78
  -2   7   4    6.60    0.96
   1  -7  -4    3.94    0.74
  -1   7   4    6.19    0.87
  -1   7   4    3.88    0.74
   0  -7  -4   12.32    1.21
   0   7   4   10.65    1.16
   0   7   4   10.70    1.14
   0   7   4   13.73    1.07
  -1  -7  -4    1.81    0.53
   1   7   4    1.91    0.53
   1   7   4    1.39    0.54
   1   7   4    1.67    0.58
  -2  -7  -4    1.48    0.45
   2   7   4    0.59    0.42
   2   7   4    0.84    0.41
  -3  -7  -4    3.35    0.60
   3   7   4    6.82    0.83
   3   7   4    5.34    0.70
   3   7   4    4.02    0.66
  -4  -7  -4   21.33    1.24
  -4  -7  -4   18.88    1.40
   4   7   4   21.51    1.22
   4   7   4   21.11    1.30
   4   7   4   20.40    1.11
  -5  -7  -4   19.32    1.41
  -5  -7  -4   20.63    1.20
   5   7   4   22.10    1.12
   5   7   4   20.59    1.21
  -6  -7  -4   31.80    1.42
  -6  -7  -4   32.54    1.87
   6   7   4   31.09    1.44
   6   7   4   32.12    1.51
  -7  -7  -4    6.43    0.66
  -7  -7  -4    7.01    1.08
   7   7   4    6.74    0.80
   1  -8  -4    7.02    1.09
  -1   8   4    4.86    0.88
  -1   8   4    6.64    1.02
   0  -8  -4   10.27    1.27
   0   8   4   11.44    1.20
   0   8   4   11.66    1.28
   0   8   4    9.29    1.20
  -1  -8  -4   25.50    1.63
   1   8   4   24.45    1.63
   1   8   4   27.98    1.70
   1   8   4   26.68    1.52
  -2  -8  -4   25.26    1.57
   2   8   4   22.86    1.39
   2   8   4   24.99    1.57
   2   8   4   23.85    1.56
  -3  -8  -4   29.05    1.66
   3   8   4   31.58    1.74
   3   8   4   26.78    1.45
  -4  -8  -4   23.57    1.45
  -4  -8  -4   19.54    1.53
   4   8   4   20.52    1.26
   4   8   4   22.28    1.43
  -5  -8  -4   38.02    2.09
  -5  -8  -4   44.34    1.93
   5   8   4   43.70    1.91
   5   8   4   42.22    1.76
  -6  -8  -4    7.91    1.16
  -6  -8  -4    7.89    0.90
   4   7  -5   63.55    2.66
  -4  -7   5   57.48    2.41
  -4  -7   5   62.80    2.60
   3   7  -5    5.12    0.83
   3   7  -5    5.94    0.96
  -3  -7   5    5.88    0.93
   2   7  -5    5.43    0.89
   2   7  -5    3.37    0.79
  -2  -7   5    4.77    0.90
   1   7  -5   -0.29    0.48
   1   7  -5    0.02    0.43
  -1  -7   5   -0.30    0.43
   0   7  -5    0.61    0.52
   0   7  -5    0.56    0.52
   0  -7   5    0.26    0.53
  -1   7  -5   14.68    1.35
  -1   7  -5   17.55    1.35
   1  -7   5   16.00    1.54
   6   6  -5    1.60    0.54
  -6  -6   5    1.56    0.54
  -6  -6   5    1.99    0.60
  -5  -6   5   16.48    1.22
  -5  -6   5   15.51    1.14
   4   6  -5   13.06    1.17
  -4  -6   5   11.46    1.01
  -4  -6   5   11.54    1.15
   3   6  -5    0.54    0.51
  -3  -6   5    0.30    0.39
   2   6  -5    0.51    0.44
   2   6  -5    0.07    0.41
  -2  -6   5   -0.07    0.42
   1   6  -5    6.41    0.86
   1   6  -5    6.76    0.94
  -1  -6   5    7.23    0.95
   0   6  -5    0.48    0.44
   0   6  -5    0.52    0.41
   0  -6   5    0.01    0.48
  -1   6  -5    2.98    0.63
  -1   6  -5    3.27    0.69
   1  -6   5    3.39    0.78
  -2   6  -5   15.05    1.16
  -2   6  -5   15.38    1.24
   2  -6   5   13.02    1.28
  -3   6  -5    7.97    1.02
  -3   6  -5    8.78    1.03
   6   5  -5   13.21    1.05
  -6  -5   5   15.53    1.08
  -6  -5   5   14.53    1.04
   5   5  -5    1.60    0.46
   5   5  -5    1.89    0.56
  -5  -5   5    1.04    0.45
  -5  -5   5    1.35    0.45
   4   5  -5   73.96    2.50
   4   5  -5   71.64    2.55
  -4  -5   5   73.12    2.41
  -4  -5   5   75.28    2.56
   3   5  -5   -0.12    0.29
   3   5  -5    0.22    0.39
  -3  -5   5    0.14    0.33
   2   5  -5    2.63    0.56
   2   5  -5    3.04    0.68
  -2  -5   5    4.02    0.70
   1   5  -5    1.34    0.45
  -1  -5   5    1.66    0.51
   0   5  -5    1.73    0.49
   0   5  -5    2.59    0.62
   0  -5   5    1.85    0.46
   0  -5   5    2.11    0.54
  -1   5  -5    5.44    0.71
  -1   5  -5    5.26    0.79
  -1   5  -5    4.71    0.69
   1  -5   5    7.99    0.96
   1  -5   5    5.04    0.70
  -2   5  -5   10.89    0.93
  -2   5  -5    8.92    0.97
  -2   5  -5   12.14    0.98
   2  -5   5   10.54    0.99
   2  -5   5   11.24    1.02
  -3   5  -5   14.41    1.10
  -3   5  -5   13.33    1.05
   3  -5   5   15.38    1.10
   3  -5   5   15.34    1.20
  -4   5  -5   11.22    0.98
  -4   5  -5   11.59    1.11
   4  -5   5   10.45    1.05
   7   4  -5   30.85    1.51
  -7  -4   5   31.43    1.35
   6   4  -5    7.04    0.78
  -6  -4   5    8.10    0.84
  -6  -4   5    6.64    0.72
   5   4  -5   96.09    2.96
   5   4  -5   95.34    2.87
   5   4  -5   95.93    2.91
  -5  -4   5   96.52    2.90
  -5  -4   5   96.40    2.81
   4   4  -5   27.62    1.32
   4   4  -5   25.12    1.25
   4   4  -5   26.27    1.35
  -4  -4   5   26.11    1.18
  -4  -4   5   26.37    1.28
   3   4  -5   52.27    1.85
   3   4  -5   49.57    1.92
   3   4  -5   53.47    1.88
  -3  -4   5   52.06    1.74
  -3  -4   5   51.09    1.74
  -3  -4   5   51.01    1.89
   2   4  -5    0.24    0.28
   2   4  -5   -0.07    0.23
   2   4  -5    0.64    0.39
  -2  -4   5    0.24    0.31
  -2  -4   5    0.60    0.32
   1   4  -5    3.61    0.50
   1   4  -5    3.84    0.56
   1   4  -5    3.80    0.57
  -1  -4   5    4.58    0.59
  -1  -4   5    3.11    0.52
  -1  -4   5    3.54    0.54
   0   4  -5   50.49    1.72
   0   4  -5   48.46    1.85
   0  -4   5   44.79    1.68
   0  -4   5   50.01    1.75
   0  -4   5   44.26    1.77
  -1   4  -5    3.08    0.47
  -1   4  -5    3.19    0.57
  -1   4  -5    2.78    0.52
  -1   4  -5    3.63    0.64
   1  -4   5    2.90    0.52
   1  -4   5    3.25    0.50
   1  -4   5    2.88    0.54
  -2   4  -5   24.42    1.20
  -2   4  -5   23.66    1.21
  -2   4  -5   23.34    1.22
   2  -4   5   23.57    1.19
   2  -4   5   21.67    1.15
   2  -4   5   22.69    1.24
  -3   4  -5   22.64    1.28
  -3   4  -5   25.21    1.25
  -3   4  -5   23.87    1.21
   3  -4   5   23.50    1.22
   3  -4   5   23.76    1.22
   3  -4   5   24.65    1.30
  -4   4  -5    4.95    0.66
  -4   4  -5    7.32    0.83
   4  -4   5    6.48    0.79
  -5   4  -5    0.28    0.33
  -5   4  -5    0.19    0.32
   5  -4   5   -0.25    0.33
   7   3  -5   24.77    1.28
  -7  -3   5   23.67    1.07
   6   3  -5   22.97    1.18
  -6  -3   5   21.20    1.05
   5   3  -5   26.33    1.24
   5   3  -5   25.75    1.24
   5   3  -5   24.27    1.18
  -5  -3   5   26.55    1.16
  -5  -3   5   26.18    1.19
   4   3  -5  109.50    2.98
   4   3  -5  107.91    3.09
   4   3  -5  110.59    3.04
  -4  -3   5  105.02    2.85
  -4  -3   5  109.27    3.05
   3   3  -5   20.24    1.03
   3   3  -5   18.86    1.05
   3   3  -5   19.67    1.00
  -3  -3   5   20.34    1.04
  -3  -3   5   20.88    0.94
  -3  -3   5   20.08    0.90
   2   3  -5    0.14    0.28
   2   3  -5    0.46    0.36
   2   3  -5   -0.04    0.26
  -2  -3   5    0.52    0.33
  -2  -3   5    0.32    0.25
   1   3  -5    7.86    0.72
   1   3  -5    8.46    0.66
   1   3  -5    7.46    0.64
  -1  -3   5    8.31    0.77
  -1  -3   5    7.73    0.63
  -1  -3   5    7.60    0.62
   0   3  -5   19.68    0.95
   0   3  -5   20.10    1.03
   0  -3   5   18.18    0.94
   0  -3   5   20.15    0.96
   0  -3   5   18.57    0.99
  -1   3  -5   76.11    2.27
  -1   3  -5   81.76    2.30
  -1   3  -5   82.43    2.45
   1  -3   5   82.23    2.44
   1  -3   5   81.81    2.34
   1  -3   5   81.46    2.34
  -2   3  -5   25.56    1.16
  -2   3  -5   24.25    1.12
  -2   3  -5   22.90    1.11
   2  -3   5   23.08    1.08
   2  -3   5   23.77    1.14
   2  -3   5   25.30    1.12
  -3   3  -5  102.44    2.93
  -3   3  -5  104.56    2.89
  -3   3  -5  101.36    2.80
   3  -3   5  103.97    2.83
   3  -3   5   95.62    2.79
   3  -3   5  102.26    2.92
  -4   3  -5   15.14    1.01
  -4   3  -5   14.76    0.87
  -4   3  -5   15.18    0.89
   4  -3   5   15.62    0.93
   4  -3   5   13.65    0.88
  -5   3  -5   16.83    0.88
  -5   3  -5   14.19    0.90
   5  -3   5   15.23    0.94
   5  -3   5   15.17    0.96
  -6   3  -5    2.92    0.40
   6  -3   5    2.54    0.52
   6  -3   5    2.07    0.47
   7   2  -5   27.66    1.31
  -7  -2   5   27.57    1.07
   6   2  -5    0.21    0.31
  -6  -2   5    0.35    0.25
   5   2  -5   19.77    1.01
   5   2  -5   20.46    1.07
  -5  -2   5   19.90    0.97
   4   2  -5   13.40    0.82
   4   2  -5   15.19    0.90
   4   2  -5   15.78    0.87
  -4  -2   5   16.42    0.86
   3   2  -5    9.48    0.71
   3   2  -5   10.63    0.70
   3   2  -5    9.94    0.69
  -3  -2   5   10.33    0.63
  -3  -2   5    9.66    0.70
  -3  -2   5    9.83    0.53
   2   2  -5   24.67    1.12
   2   2  -5   23.01    1.00
   2   2  -5   24.39    1.04
  -2  -2   5   24.54    1.07
  -2  -2   5   25.78    0.85
  -2  -2   5   24.49    0.99
   1   2  -5   36.25    1.37
   1   2  -5   38.11    1.32
   1   2  -5   37.71    1.30
  -1  -2   5   38.67    1.38
  -1  -2   5   37.46    1.30
   0   2  -5    0.00    0.23
   0   2  -5    0.11    0.24
   0   2  -5    0.05    0.07
   0  -2   5   -0.29    0.19
   0  -2   5    0.28    0.22
   0  -2   5    0.18    0.25
  -1   2  -5   18.77    0.85
  -1   2  -5   20.76    0.88
  -1   2  -5   19.87    0.93
   1  -2   5   18.26    0.86
   1  -2   5   20.05    0.93
   1  -2   5   20.15    0.89
  -2   2  -5   10.26    0.63
  -2   2  -5   10.20    0.67
  -2   2  -5    9.74    0.65
   2  -2   5    9.56    0.65
   2  -2   5   10.60    0.64
   2  -2   5   10.30    0.66
  -3   2  -5   23.44    1.11
  -3   2  -5   24.71    1.02
  -3   2  -5   23.25    0.98
   3  -2   5   23.76    1.01
   3  -2   5   26.49    1.03
   3  -2   5   24.09    1.04
  -4   2  -5   83.87    2.29
  -4   2  -5   85.98    2.30
  -4   2  -5   84.31    2.58
   4  -2   5   83.94    2.32
   4  -2   5   82.63    2.32
   4  -2   5   81.79    2.37
  -5   2  -5    1.63    0.35
  -5   2  -5    1.16    0.41
  -5   2  -5    1.60    0.30
   5  -2   5    1.28    0.33
   5  -2   5    1.17    0.34
  -6   2  -5   67.28    1.69
  -6   2  -5   70.91    2.08
   6  -2   5   68.36    2.10
   6  -2   5   69.45    2.10
   7  -2   5   24.67    1.15
   7  -2   5   25.46    1.15
   7   1  -5   34.78    1.48
  -7  -1   5   35.97    1.21
   6   1  -5   22.24    1.10
   6   1  -5   22.31    1.03
  -6  -1   5   23.54    1.00
   5   1  -5    5.06    0.50
   5   1  -5    3.45    0.48
   5   1  -5    4.38    0.55
  -5  -1   5    4.68    0.54
   4   1  -5  186.32    4.67
   4   1  -5  188.97    4.55
  -4  -1   5  195.91    4.63
   3   1  -5    0.42    0.27
   3   1  -5    0.46    0.22
   3   1  -5    0.59    0.21
  -3  -1   5    0.13    0.21
   2   1  -5    8.77    0.59
   2   1  -5    7.14    0.58
  -2  -1   5    8.17    0.60
  -2  -1   5    8.28    0.55
  -2  -1   5    8.54    0.56
  -2  -1   5    8.23    0.35
   1   1  -5    0.09    0.21
   1   1  -5    0.23    0.23
  -1  -1   5    0.65    0.27
  -1  -1   5   -0.05    0.07
  -1  -1   5    0.24    0.22
   0   1  -5    6.27    0.59
   0   1  -5    6.85    0.40
   0  -1   5    5.93    0.49
   0  -1   5    6.85    0.50
   0  -1   5    6.62    0.53
  -1   1  -5    0.84    0.24
  -1   1  -5    1.15    0.24
  -1   1  -5    0.59    0.25
   1  -1   5    0.45    0.20
   1  -1   5    0.53    0.26
   1  -1   5    0.84    0.26
  -2   1  -5   13.43    0.70
  -2   1  -5   12.30    0.65
   2  -1   5   12.94    0.64
   2  -1   5   14.14    0.66
   2  -1   5   13.67    0.68
   2  -1   5   12.72    0.70
  -3   1  -5    0.22    0.19
  -3   1  -5    0.46    0.20
  -3   1  -5    0.90    0.32
  -3   1  -5    0.48    0.17
   3  -1   5    0.22    0.20
   3  -1   5    0.52    0.29
   3  -1   5    0.30    0.19
   3  -1   5    0.51    0.23
  -4   1  -5   52.79    1.46
  -4   1  -5   50.34    1.43
  -4   1  -5   51.79    1.42
  -4   1  -5   49.25    1.74
   4  -1   5   51.73    1.50
   4  -1   5   50.66    1.48
   4  -1   5   48.56    1.74
   4  -1   5   51.07    1.52
  -5   1  -5    4.59    0.30
  -5   1  -5    4.54    0.30
  -5   1  -5    4.05    0.29
  -5   1  -5    4.39    0.44
   5  -1   5    4.09    0.43
   5  -1   5    4.61    0.45
  -6   1  -5    0.41    0.21
   6  -1   5    0.30    0.22
   6  -1   5    0.15    0.22
   7  -1   5   52.49    1.61
   7  -1   5   50.83    1.59
   7   0  -5   60.64    2.03
   7   0  -5   58.40    2.03
  -7   0   5   58.46    1.71
   6   0  -5   24.11    1.09
   6   0  -5   23.26    1.13
  -6   0   5   24.68    1.02
   5   0  -5  105.33    2.95
   5   0  -5  108.22    2.71
   5   0  -5  108.15    2.90
  -5   0   5  108.86    2.88
   4   0  -5  160.10    3.83
   4   0  -5  153.93    3.48
   4   0  -5  151.36    3.90
  -4   0   5  157.66    3.88
   3   0  -5  158.63    3.79
   3   0  -5  156.64    3.36
   3   0  -5  156.87    3.63
   3   0  -5  158.04    3.90
  -3   0   5  158.95    3.90
   2   0  -5    5.40    0.26
   2   0  -5    5.14    0.50
   2   0  -5    6.22    0.57
   2   0  -5    4.11    0.43
   2   0  -5    5.10    0.29
  -2   0   5    6.67    0.52
  -2   0   5    5.17    0.45
   1   0  -5   19.00    0.82
   1   0  -5   19.80    0.87
  -1   0   5   20.67    0.87
  -1   0   5   20.42    0.82
   0   0  -5   65.88    1.94
   0   0  -5   74.07    1.57
   0   0   5   73.15    1.97
   0   0   5   73.21    1.62
   0   0   5   73.59    1.91
  -1   0  -5    0.22    0.16
  -1   0  -5    0.07    0.19
  -1   0  -5    0.06    0.18
   1   0   5   -0.26    0.17
   1   0   5    0.13    0.15
   1   0   5    0.15    0.19
   1   0   5    0.08    0.15
  -2   0  -5    5.82    0.40
  -2   0  -5    6.49    0.46
  -2   0  -5    5.84    0.35
   2   0   5    5.64    0.41
   2   0   5    5.90    0.42
   2   0   5    5.27    0.41
  -3   0  -5   55.96    1.47
  -3   0  -5   56.98    1.37
  -3   0  -5   54.20    1.46
   3   0   5   54.81    1.52
   3   0   5   55.20    1.66
   3   0   5   53.64    1.45
  -4   0  -5   81.67    1.85
  -4   0  -5   79.90    1.88
  -4   0  -5   80.40    1.87
   4   0   5   77.25    1.94
   4   0   5   80.85    2.01
   4   0   5   78.64    1.96
   4   0   5   79.92    2.29
  -5   0  -5   11.25    0.47
   5   0   5   10.55    0.52
   5   0   5   12.43    0.85
   5   0   5   11.13    0.52
  -6   0  -5    1.77    0.23
   6   0   5    1.99    0.27
   6   0   5    1.67    0.26
   7   0   5   22.77    0.83
   7   0   5   24.11    0.83
   8   0   5    3.33    0.37
   8   0   5    4.20    0.39
   7  -1  -5   15.16    0.99
   7  -1  -5   14.15    0.98
  -7   1   5   14.49    0.74
   6  -1  -5   22.44    1.14
   6  -1  -5   23.42    1.09
   6  -1  -5   24.49    1.19
  -6   1   5   24.69    1.05
   5  -1  -5    0.77    0.33
   5  -1  -5    1.13    0.36
   5  -1  -5    0.80    0.33
   5  -1  -5    0.73    0.29
  -5   1   5    0.96    0.30
   4  -1  -5  194.95    4.74
   4  -1  -5  200.84    4.88
   4  -1  -5  199.28    4.75
   4  -1  -5  200.08    4.39
  -4   1   5  205.66    4.85
   3  -1  -5   64.51    1.88
   3  -1  -5   63.29    1.60
   3  -1  -5   63.95    1.94
   3  -1  -5   63.29    1.88
  -3   1   5   65.71    1.95
  -3   1   5   66.58    1.96
   2  -1  -5   86.33    2.32
   2  -1  -5   89.97    2.33
   2  -1  -5   88.92    2.39
  -2   1   5   86.64    2.32
  -2   1   5   87.55    2.40
   1  -1  -5  118.99    3.05
   1  -1  -5  125.19    2.97
   1  -1  -5  126.22    2.98
  -1   1   5  119.39    2.92
  -1   1   5  122.33    2.95
  -1   1   5  123.11    3.09
   0  -1  -5    0.51    0.26
   0  -1  -5    0.20    0.19
   0  -1  -5    0.26    0.15
   0  -1  -5    0.28    0.19
   0  -1  -5    0.33    0.23
   0   1   5    0.03    0.22
   0   1   5   -0.13    0.16
  -1  -1  -5   40.55    1.28
  -1  -1  -5   43.79    1.15
  -1  -1  -5   42.81    1.22
  -1  -1  -5   41.79    1.18
  -1  -1  -5   42.52    1.22
   1   1   5   42.26    1.18
   1   1   5   42.13    1.29
   1   1   5   42.19    1.24
  -2  -1  -5   14.97    0.62
  -2  -1  -5   16.17    0.58
  -2  -1  -5   16.07    0.74
  -2  -1  -5   16.15    0.52
  -2  -1  -5   15.50    0.65
   2   1   5   16.11    0.65
   2   1   5   16.35    0.64
  -3  -1  -5   45.33    1.23
  -3  -1  -5   48.09    1.24
   3   1   5   46.83    1.43
   3   1   5   46.97    1.29
   3   1   5   45.55    1.23
   4   1   5   61.85    1.53
   4   1   5   62.39    1.59
   4   1   5   66.61    1.94
   5   1   5   38.12    1.01
   5   1   5   40.38    1.53
   6   1   5    0.49    0.14
   7   1   5   79.23    1.80
   7   1   5   76.38    1.79
   7  -2  -5   42.39    1.73
  -7   2   5   39.52    1.43
   6  -2  -5   14.32    0.97
   6  -2  -5   13.80    0.95
  -6   2   5   13.61    0.84
  -6   2   5   14.96    1.05
   5  -2  -5   17.64    1.00
   5  -2  -5   18.20    1.01
  -5   2   5   18.29    0.97
  -5   2   5   19.29    1.12
   4  -2  -5   38.49    1.44
   4  -2  -5   38.24    1.44
   4  -2  -5   39.81    1.49
  -4   2   5   35.99    1.49
  -4   2   5   36.45    1.44
   3  -2  -5   31.65    1.25
   3  -2  -5   34.16    1.31
   3  -2  -5   32.71    1.26
  -3   2   5   31.29    1.04
  -3   2   5   33.57    1.33
   2  -2  -5    7.70    0.59
   2  -2  -5    8.26    0.62
   2  -2  -5    6.95    0.57
  -2   2   5    7.84    0.42
  -2   2   5    8.08    0.62
  -2   2   5    6.19    0.59
   1  -2  -5    3.36    0.45
   1  -2  -5    3.55    0.44
   1  -2  -5    4.35    0.47
   1  -2  -5    3.46    0.41
  -1   2   5    3.94    0.43
  -1   2   5    4.41    0.49
  -1   2   5    5.20    0.55
   0  -2  -5    0.88    0.26
   0  -2  -5    1.37    0.34
   0  -2  -5    1.57    0.32
   0  -2  -5    1.44    0.27
   0   2   5    0.81    0.27
   0   2   5    0.79    0.23
   0   2   5    1.92    0.34
   0   2   5    1.26    0.27
  -1  -2  -5   75.49    1.98
  -1  -2  -5   70.54    1.88
  -1  -2  -5   71.23    1.91
  -1  -2  -5   73.34    1.88
  -1  -2  -5   71.43    1.79
   1   2   5   73.31    1.97
   1   2   5   72.60    1.90
   1   2   5   74.01    1.91
   1   2   5   71.96    1.80
  -2  -2  -5   16.59    0.72
  -2  -2  -5   18.26    0.60
  -2  -2  -5   17.89    0.66
  -2  -2  -5   19.75    0.84
  -2  -2  -5   18.61    0.72
   2   2   5   18.29    0.60
   2   2   5   18.30    0.71
   2   2   5   17.57    0.73
   2   2   5   17.84    0.72
  -3  -2  -5    1.14    0.12
  -3  -2  -5    1.37    0.23
  -3  -2  -5    1.27    0.38
   3   2   5    0.94    0.20
   3   2   5    1.33    0.23
   3   2   5    1.42    0.24
  -4  -2  -5  100.37    2.26
  -4  -2  -5   98.29    2.87
  -4  -2  -5  102.28    2.26
   4   2   5  100.28    2.33
   4   2   5  101.91    2.41
   4   2   5  100.88    2.34
   5   2   5    1.09    0.18
   5   2   5    1.90    0.22
   6   2   5   12.64    0.47
   6   2   5   14.46    0.48
   6  -3  -5   50.94    2.00
  -6   3   5   52.63    1.89
  -6   3   5   54.34    2.15
   5  -3  -5   15.97    1.03
   5  -3  -5   16.01    1.03
  -5   3   5   16.49    1.09
  -5   3   5   16.34    0.99
   4  -3  -5  102.40    2.99
   4  -3  -5  101.04    2.92
   4  -3  -5  102.42    2.92
  -4   3   5   95.43    2.90
  -4   3   5  104.59    3.02
  -4   3   5  101.22    2.68
   3  -3  -5   64.52    2.02
   3  -3  -5   61.71    2.01
   3  -3  -5   61.37    2.06
  -3   3   5   62.95    2.06
  -3   3   5   60.49    2.04
  -3   3   5   62.31    1.79
   2  -3  -5    9.28    0.72
   2  -3  -5    8.29    0.68
   2  -3  -5   10.33    0.71
  -2   3   5    8.70    0.70
  -2   3   5    8.30    0.59
  -2   3   5   10.22    0.72
  -2   3   5    8.99    0.55
   1  -3  -5    4.18    0.46
   1  -3  -5    7.52    0.63
  -1   3   5    4.28    0.53
  -1   3   5    6.41    0.55
  -1   3   5    5.42    0.55
   0  -3  -5    5.02    0.48
   0  -3  -5    3.99    0.46
   0  -3  -5    5.78    0.48
   0  -3  -5    4.87    0.49
   0   3   5    4.13    0.46
   0   3   5    5.56    0.52
   0   3   5    4.01    0.44
   0   3   5    4.60    0.50
  -1  -3  -5    0.13    0.22
  -1  -3  -5    0.23    0.23
  -1  -3  -5    0.26    0.25
  -1  -3  -5    0.10    0.18
   1   3   5    0.06    0.18
   1   3   5    0.23    0.20
   1   3   5   -0.03    0.22
   1   3   5   -0.01    0.20
  -2  -3  -5    0.58    0.21
  -2  -3  -5    0.20    0.18
  -2  -3  -5    0.35    0.23
  -2  -3  -5    0.19    0.30
   2   3   5    0.47    0.24
   2   3   5    0.32    0.21
   2   3   5    0.30    0.23
   2   3   5    0.17    0.17
  -3  -3  -5    4.80    0.42
  -3  -3  -5    5.58    0.33
  -3  -3  -5    4.55    0.38
  -3  -3  -5    5.07    0.58
   3   3   5    5.60    0.34
   3   3   5    4.51    0.42
   3   3   5    4.79    0.43
   3   3   5    4.85    0.42
  -4  -3  -5    3.05    0.30
  -4  -3  -5    2.66    0.53
  -4  -3  -5    2.84    0.30
   4   3   5    2.57    0.32
   4   3   5    2.61    0.31
   4   3   5    2.84    0.34
  -5  -3  -5    3.14    0.63
   5   3   5    2.76    0.31
   5   3   5    2.40    0.29
   5   3   5    2.72    0.31
   6   3   5    9.76    0.48
   6   3   5    9.64    0.48
   7   3   5   16.90    0.61
   7   3   5   17.21    0.62
   8   3   5   30.82    0.86
   8   3   5   29.96    0.85
   5  -4  -5   22.86    1.28
  -5   4   5   18.45    1.14
  -5   4   5   18.96    1.09
  -5   4   5   18.74    1.24
   4  -4  -5   39.63    1.72
   4  -4  -5   39.72    1.66
  -4   4   5   39.37    1.52
  -4   4   5   41.76    1.76
  -4   4   5   38.97    1.67
   3  -4  -5  147.83    3.91
   3  -4  -5  148.04    4.04
   3  -4  -5  143.82    3.88
  -3   4   5  146.32    3.63
  -3   4   5  151.55    4.02
  -3   4   5  142.37    3.94
   2  -4  -5   34.55    1.48
   2  -4  -5   34.74    1.42
   2  -4  -5   35.70    1.44
  -2   4   5   35.43    1.46
  -2   4   5   33.50    1.32
  -2   4   5   35.35    1.50
  -2   4   5   34.83    1.28
   1  -4  -5   33.30    1.32
   1  -4  -5   29.40    1.33
   1  -4  -5   33.77    1.32
  -1   4   5   31.99    1.31
  -1   4   5   32.75    1.28
  -1   4   5   32.23    1.39
   0  -4  -5   48.64    1.65
   0  -4  -5   40.20    1.48
   0  -4  -5   42.03    1.50
   0   4   5   43.49    1.51
   0   4   5   43.10    1.50
   0   4   5   42.90    1.59
   0   4   5   46.01    1.53
  -1  -4  -5    5.04    0.53
  -1  -4  -5    4.04    0.50
  -1  -4  -5    3.12    0.42
  -1  -4  -5    3.59    0.47
   1   4   5    4.49    0.53
   1   4   5    4.62    0.50
   1   4   5    5.07    0.53
   1   4   5    4.39    0.57
  -2  -4  -5    2.67    0.38
  -2  -4  -5    3.01    0.44
  -2  -4  -5    3.53    0.40
   2   4   5    3.74    0.45
   2   4   5    2.36    0.36
   2   4   5    3.62    0.50
   2   4   5    3.79    0.47
  -3  -4  -5    0.18    0.22
  -3  -4  -5   -0.02    0.34
  -3  -4  -5    0.25    0.20
   3   4   5    0.37    0.23
   3   4   5    0.12    0.22
   3   4   5    0.08    0.21
   3   4   5    0.11    0.20
  -4  -4  -5   47.37    1.50
  -4  -4  -5   49.84    1.86
  -4  -4  -5   49.75    1.48
   4   4   5   49.06    1.55
   4   4   5   48.35    1.32
   4   4   5   49.44    1.52
   4   4   5   49.91    1.52
  -5  -4  -5    2.57    0.30
  -5  -4  -5    3.00    0.33
  -5  -4  -5    2.26    0.53
   5   4   5    3.15    0.40
   5   4   5    2.68    0.38
   5   4   5    3.09    0.27
   5   4   5    3.00    0.39
  -6  -4  -5    1.63    0.54
   6   4   5    1.30    0.28
   6   4   5    1.16    0.27
  -7  -4  -5    5.26    0.92
   7   4   5    3.94    0.41
   7   4   5    4.05    0.42
   8   4   5   37.77    1.18
   8   4   5   36.75    1.16
   5  -5  -5    0.98    0.49
  -5   5   5    0.30    0.39
  -5   5   5    0.71    0.50
   4  -5  -5   48.75    1.99
  -4   5   5   46.42    2.03
  -4   5   5   50.48    2.05
  -4   5   5   50.98    1.90
   3  -5  -5   15.05    1.09
   3  -5  -5   15.46    1.05
  -3   5   5   15.13    0.97
  -3   5   5   15.34    1.08
  -3   5   5   16.54    1.15
   2  -5  -5   26.39    1.30
   2  -5  -5   26.25    1.37
  -2   5   5   27.74    1.23
  -2   5   5   25.45    1.36
  -2   5   5   22.74    1.26
   1  -5  -5    2.04    0.46
   1  -5  -5    1.18    0.40
   1  -5  -5    1.71    0.51
  -1   5   5    1.96    0.51
  -1   5   5    1.02    0.35
  -1   5   5    1.24    0.42
   0  -5  -5    9.96    0.78
   0  -5  -5    9.64    0.85
   0  -5  -5   11.03    0.80
   0   5   5   10.50    0.87
   0   5   5    9.88    0.75
   0   5   5    9.52    0.78
   0   5   5   11.00    0.78
  -1  -5  -5    0.50    0.29
  -1  -5  -5    0.05    0.32
  -1  -5  -5    0.49    0.23
   1   5   5   -0.16    0.26
   1   5   5    0.56    0.31
   1   5   5    0.37    0.31
   1   5   5    0.62    0.31
  -2  -5  -5    5.89    0.59
  -2  -5  -5    5.43    0.63
   2   5   5    8.31    0.77
   2   5   5    7.42    0.80
   2   5   5    5.56    0.57
   2   5   5    6.18    0.62
   2   5   5    7.62    0.76
  -3  -5  -5    5.00    0.73
  -3  -5  -5    5.39    0.59
   3   5   5    5.12    0.60
   3   5   5    6.27    0.57
   3   5   5    5.41    0.56
   3   5   5    5.80    0.67
   3   5   5    6.54    0.72
  -4  -5  -5   78.92    2.30
  -4  -5  -5   77.12    2.62
   4   5   5   78.23    2.28
   4   5   5   78.33    2.34
   4   5   5   76.97    2.07
   4   5   5   75.82    2.25
   4   5   5   78.78    2.34
  -5  -5  -5   77.83    2.19
  -5  -5  -5   74.59    2.65
   5   5   5   77.72    1.99
   5   5   5   78.13    2.23
   5   5   5   79.02    2.25
   5   5   5   74.89    2.27
   5   5   5   75.77    2.28
  -6  -5  -5    3.11    0.36
  -6  -5  -5    1.95    0.63
   6   5   5    2.86    0.44
   6   5   5    2.81    0.43
  -7  -5  -5   37.86    1.96
   7   5   5   37.72    1.35
   7   5   5   38.45    1.38
  -8  -5  -5   18.73    1.52
   8   5   5   19.09    0.90
   8   5   5   17.28    0.89
  -4   6   5    9.92    1.13
  -4   6   5    9.00    1.08
   3  -6  -5   19.79    1.37
  -3   6   5   17.63    1.15
  -3   6   5   20.58    1.33
  -3   6   5   18.71    1.31
   2  -6  -5    0.32    0.43
  -2   6   5    0.56    0.46
  -2   6   5    0.02    0.36
  -2   6   5    0.26    0.39
   1  -6  -5    7.20    0.90
   1  -6  -5    8.32    0.88
  -1   6   5    6.47    0.85
  -1   6   5    7.87    0.89
   0  -6  -5    2.21    0.53
   0  -6  -5    2.18    0.45
   0   6   5    3.03    0.55
   0   6   5    3.40    0.68
  -1  -6  -5    0.90    0.42
  -1  -6  -5    0.25    0.18
   1   6   5    1.16    0.40
   1   6   5    1.71    0.54
   1   6   5    0.59    0.44
   1   6   5    1.11    0.40
  -2  -6  -5   12.39    0.96
   2   6   5   12.79    0.88
   2   6   5   12.64    0.91
   2   6   5   13.83    1.02
   2   6   5   13.33    0.93
   2   6   5   12.50    0.99
  -3  -6  -5    5.13    0.70
   3   6   5    3.70    0.57
   3   6   5    4.67    0.69
   3   6   5    3.59    0.58
   3   6   5    4.17    0.65
   3   6   5    3.42    0.51
  -4  -6  -5   24.04    1.46
  -4  -6  -5   27.63    1.28
   4   6   5   26.86    1.30
   4   6   5   25.49    1.27
   4   6   5   26.48    1.26
   4   6   5   25.84    1.11
   4   6   5   25.06    1.23
  -5  -6  -5    0.50    0.31
  -5  -6  -5   -0.19    0.46
   5   6   5    0.76    0.35
   5   6   5    0.86    0.37
   5   6   5    1.48    0.35
  -6  -6  -5    0.55    0.51
  -6  -6  -5    1.81    0.37
   6   6   5    2.06    0.44
   6   6   5    2.19    0.44
  -7  -6  -5   21.81    1.56
  -7  -6  -5   20.04    0.82
   7   6   5   21.81    1.12
   7   6   5   22.24    1.12
   2  -7  -5   15.62    1.37
  -2   7   5   15.32    1.24
  -2   7   5   16.82    1.34
   1  -7  -5    6.55    0.99
  -1   7   5    6.40    0.86
  -1   7   5    5.58    0.91
   0  -7  -5    0.59    0.48
   0   7   5    0.63    0.49
   0   7   5    0.56    0.41
  -1  -7  -5   -0.36    0.41
   1   7   5   -0.16    0.34
   1   7   5    0.51    0.46
   1   7   5   -0.16    0.38
  -2  -7  -5    2.60    0.65
   2   7   5    3.98    0.75
   2   7   5    2.45    0.66
   2   7   5    1.64    0.48
  -3  -7  -5    1.94    0.51
   3   7   5    1.75    0.49
   3   7   5    1.88    0.44
   3   7   5    3.17    0.54
   3   7   5    1.87    0.51
  -4  -7  -5   -0.45    0.27
  -4  -7  -5   -0.03    0.43
   4   7   5   -0.15    0.25
   4   7   5    0.76    0.42
   4   7   5    0.30    0.33
   4   7   5    0.00    0.34
  -5  -7  -5    8.00    1.09
  -5  -7  -5    6.67    0.77
   5   7   5    8.15    0.71
   5   7   5    7.46    0.81
  -6  -7  -5    0.21    0.29
  -6  -7  -5   -0.27    0.44
   6   7   5    0.07    0.33
  -7  -7  -5   15.93    1.38
  -7  -7  -5   14.89    0.88
   7   7   5   15.10    1.04
   1  -8  -5    5.02    0.93
  -1   8   5    5.40    0.92
  -1   8   5    5.92    0.95
   0  -8  -5   -0.08    0.52
   0   8   5    0.26    0.44
   0   8   5    0.65    0.57
  -1  -8  -5    0.44    0.54
   1   8   5    0.05    0.47
   1   8   5    0.80    0.48
  -2  -8  -5    0.23    0.48
   2   8   5   -0.08    0.44
   2   8   5   -0.13    0.42
   2   8   5   -0.14    0.35
  -3  -8  -5    0.53    0.49
   3   8   5   -0.33    0.32
   3   8   5   -0.03    0.43
   3   8   5   -0.19    0.41
  -4  -8  -5    9.08    1.05
  -4  -8  -5    5.21    0.95
   4   8   5    6.85    0.94
   4   8   5    5.99    0.87
   4   8   5    8.03    0.88
  -5  -8  -5   15.10    1.34
  -5  -8  -5   16.00    1.17
   5   8   5   14.29    1.11
   5   8   5   13.85    0.99
   3   7  -6   33.03    1.83
   3   7  -6   37.49    2.05
  -3  -7   6   34.63    1.97
   2   7  -6   19.70    1.45
   2   7  -6   16.27    1.43
  -2  -7   6   16.36    1.42
   1   7  -6   30.66    1.85
   1   7  -6   30.78    1.76
  -1  -7   6   30.52    1.86
   0   7  -6    3.97    0.79
   0   7  -6    3.63    0.79
   0  -7   6    6.16    1.07
  -5  -6   6    0.27    0.38
  -5  -6   6    0.88    0.52
   4   6  -6   34.81    1.87
  -4  -6   6   34.00    1.62
  -4  -6   6   35.40    1.84
   3   6  -6    8.31    1.08
  -3  -6   6    7.47    0.96
   2   6  -6   13.99    1.38
  -2  -6   6   12.53    1.26
   1   6  -6   44.56    2.00
   1   6  -6   45.04    2.10
  -1  -6   6   43.08    2.06
   0   6  -6   34.85    1.85
   0   6  -6   34.95    1.76
   0  -6   6   37.56    1.91
  -1   6  -6    3.84    0.75
  -1   6  -6    5.04    0.80
   1  -6   6    6.40    1.02
  -2   6  -6    1.13    0.56
  -2   6  -6    1.62    0.61
   2  -6   6    0.57    0.54
   6   5  -6   16.30    1.20
  -6  -5   6   18.06    1.19
   5   5  -6   58.98    2.29
   5   5  -6   57.16    2.22
  -5  -5   6   56.96    2.22
  -5  -5   6   53.65    2.00
   4   5  -6    3.74    0.69
   4   5  -6    5.00    0.73
  -4  -5   6    5.62    0.70
  -4  -5   6    4.94    0.71
   3   5  -6   13.37    1.12
   3   5  -6   12.83    1.00
  -3  -5   6   15.60    1.12
   2   5  -6    0.10    0.36
  -2  -5   6    0.24    0.37
   1   5  -6   26.33    1.49
  -1  -5   6   27.60    1.48
   0   5  -6    2.97    0.59
   0   5  -6    3.16    0.62
   0  -5   6    3.51    0.72
  -1   5  -6    2.84    0.60
  -1   5  -6    2.74    0.59
  -1   5  -6    2.04    0.54
   1  -5   6    2.41    0.62
   1  -5   6    3.21    0.59
  -2   5  -6    0.22    0.37
  -2   5  -6   -0.16    0.41
   2  -5   6    0.58    0.40
   2  -5   6   -0.13    0.40
  -3   5  -6   -0.50    0.30
  -3   5  -6   -0.36    0.32
   3  -5   6   -0.25    0.34
  -4   5  -6    2.04    0.58
  -4   5  -6    3.13    0.62
   4  -5   6    2.06    0.52
   7   4  -6    2.61    0.58
  -7  -4   6    1.42    0.44
   6   4  -6   18.97    1.21
  -6  -4   6   19.59    1.09
  -6  -4   6   19.85    1.16
   5   4  -6    8.26    0.84
   5   4  -6   11.54    0.99
  -5  -4   6    9.06    0.94
  -5  -4   6   10.67    0.77
   4   4  -6  159.24    4.40
   4   4  -6  164.73    4.33
  -4  -4   6  158.94    4.06
  -4  -4   6  157.62    4.35
   3   4  -6   35.02    1.50
   3   4  -6   32.33    1.55
   3   4  -6   34.46    1.50
  -3  -4   6   32.48    1.52
  -3  -4   6   32.38    1.32
   2   4  -6   81.07    2.56
   2   4  -6   80.34    2.67
   2   4  -6   82.49    2.53
  -2  -4   6   81.93    2.66
  -2  -4   6   81.09    2.47
   1   4  -6   51.54    1.86
   1   4  -6   51.77    2.01
   1   4  -6   53.42    1.92
  -1  -4   6   51.20    1.87
  -1  -4   6   55.68    1.90
  -1  -4   6   53.03    2.00
   0   4  -6   78.30    2.61
   0   4  -6   82.15    2.49
   0  -4   6   79.89    2.48
   0  -4   6   80.37    2.62
   0  -4   6   76.14    2.45
  -1   4  -6    2.00    0.48
  -1   4  -6    1.02    0.39
  -1   4  -6    1.61    0.45
   1  -4   6    1.35    0.43
   1  -4   6    1.00    0.40
   1  -4   6    1.12    0.38
  -2   4  -6    1.43    0.41
  -2   4  -6    1.28    0.42
  -2   4  -6    2.01    0.48
   2  -4   6    1.86    0.44
   2  -4   6    1.44    0.42
   2  -4   6    1.83    0.47
  -3   4  -6    0.48    0.38
  -3   4  -6    0.81    0.40
  -3   4  -6    0.45    0.35
   3  -4   6    0.96    0.40
   3  -4   6   -0.07    0.30
  -4   4  -6    0.19    0.36
  -4   4  -6    0.21    0.34
   4  -4   6    0.81    0.41
  -5   4  -6    6.61    0.78
  -5   4  -6    6.30    0.73
   5  -4   6    7.08    0.83
   7   3  -6   18.78    1.17
  -7  -3   6   17.87    1.00
   6   3  -6   10.52    0.89
  -6  -3   6   10.84    0.82
   5   3  -6   88.07    2.71
   5   3  -6   93.71    2.84
   5   3  -6   88.23    2.75
  -5  -3   6   91.44    2.75
  -5  -3   6   90.58    2.56
   4   3  -6   43.19    1.67
   4   3  -6   43.25    1.71
   4   3  -6   40.63    1.60
  -4  -3   6   41.53    1.65
  -4  -3   6   41.60    1.41
   3   3  -6  111.12    3.11
   3   3  -6  113.69    3.09
   3   3  -6  111.39    3.22
  -3  -3   6  109.15    2.97
  -3  -3   6  114.51    2.86
  -3  -3   6  108.77    3.18
   2   3  -6   85.70    2.52
   2   3  -6   85.53    2.62
   2   3  -6   82.74    2.46
  -2  -3   6   83.25    2.58
  -2  -3   6   82.58    2.41
   1   3  -6  271.39    6.36
   1   3  -6  280.07    6.66
   1   3  -6  274.32    6.39
  -1  -3   6  274.89    6.62
  -1  -3   6  273.83    6.35
  -1  -3   6  276.98    6.38
   0   3  -6  144.87    3.67
   0   3  -6  144.68    3.86
   0   3  -6  135.04    3.63
   0  -3   6  143.25    3.69
   0  -3   6  144.49    3.70
   0  -3   6  147.76    3.86
  -1   3  -6  142.83    3.66
  -1   3  -6  142.18    3.85
  -1   3  -6  139.60    3.58
   1  -3   6  150.06    3.75
   1  -3   6  147.89    3.88
   1  -3   6  144.64    3.73
  -2   3  -6    2.25    0.44
  -2   3  -6    2.11    0.47
  -2   3  -6    2.67    0.48
   2  -3   6    2.81    0.52
   2  -3   6    1.83    0.41
   2  -3   6    2.29    0.45
  -3   3  -6    0.71    0.35
  -3   3  -6    1.49    0.40
  -3   3  -6    2.61    0.49
   3  -3   6    2.15    0.45
   3  -3   6    1.27    0.37
   3  -3   6    1.47    0.41
  -4   3  -6    2.42    0.53
  -4   3  -6    2.66    0.47
  -4   3  -6    2.34    0.46
   4  -3   6    3.25    0.55
   4  -3   6    3.09    0.51
  -5   3  -6    2.76    0.51
  -5   3  -6    2.68    0.45
   5  -3   6    3.01    0.55
   5  -3   6    3.20    0.55
  -6   3  -6    6.19    0.53
   6  -3   6    7.80    0.80
   6  -3   6    7.09    0.78
   7   2  -6   16.99    1.07
  -7  -2   6   16.72    0.90
   6   2  -6   33.73    1.46
  -6  -2   6   33.14    1.36
   5   2  -6   13.14    0.94
   5   2  -6   15.42    0.94
  -5  -2   6   13.74    0.87
   4   2  -6  147.22    3.85
   4   2  -6  137.64    3.70
  -4  -2   6  142.96    3.79
   3   2  -6   32.57    1.32
   3   2  -6   30.90    1.36
  -3  -2   6   31.44    1.33
  -3  -2   6   32.11    1.21
  -3  -2   6   32.54    1.02
   2   2  -6   18.10    0.93
   2   2  -6   17.60    0.91
   2   2  -6   15.65    0.95
  -2  -2   6   18.11    0.88
  -2  -2   6   18.78    0.98
  -2  -2   6   15.98    0.64
   1   2  -6   82.45    2.44
   1   2  -6   81.23    2.30
   1   2  -6   84.13    2.34
  -1  -2   6   81.41    2.28
  -1  -2   6   77.57    2.39
  -1  -2   6   82.33    2.33
   0   2  -6  235.61    5.25
   0   2  -6  227.27    5.45
   0  -2   6  218.58    5.24
   0  -2   6  219.43    5.43
   0  -2   6  226.70    5.25
  -1   2  -6   11.40    0.67
  -1   2  -6   11.98    0.71
  -1   2  -6   10.26    0.74
   1  -2   6   11.55    0.72
   1  -2   6   11.06    0.76
   1  -2   6   12.42    0.74
  -2   2  -6    6.85    0.62
  -2   2  -6    6.38    0.61
   2  -2   6    6.56    0.60
   2  -2   6    7.25    0.61
   2  -2   6    6.99    0.60
  -3   2  -6   11.14    0.73
  -3   2  -6   11.39    0.70
  -3   2  -6   11.39    0.81
   3  -2   6   11.18    0.73
   3  -2   6   10.97    0.75
   3  -2   6   10.98    0.73
  -4   2  -6    6.49    0.61
  -4   2  -6    7.36    0.58
  -4   2  -6    4.73    0.64
   4  -2   6    5.81    0.60
   4  -2   6    5.84    0.61
   4  -2   6    7.03    0.63
  -5   2  -6    8.49    0.57
  -5   2  -6    8.58    0.64
  -5   2  -6    7.03    0.83
   5  -2   6    8.70    0.69
   5  -2   6    8.92    0.70
  -6   2  -6    0.08    0.15
   6  -2   6    0.14    0.26
   6  -2   6    0.19    0.28
   7   1  -6   30.75    1.45
  -7  -1   6   30.20    1.20
   6   1  -6   21.42    0.99
   6   1  -6   23.15    1.18
  -6  -1   6   22.47    1.07
   5   1  -6   39.35    1.30
   5   1  -6   39.46    1.54
   5   1  -6   39.26    1.56
  -5  -1   6   42.15    1.52
   4   1  -6   75.45    2.31
   4   1  -6   70.61    2.20
  -4  -1   6   73.87    2.24
   3   1  -6  142.86    3.63
   3   1  -6  141.02    3.73
  -3  -1   6  145.02    3.70
   2   1  -6   34.23    1.33
  -2  -1   6   36.37    1.24
  -2  -1   6   32.09    1.29
   1   1  -6   70.62    2.00
   1   1  -6   65.92    2.05
  -1  -1   6   67.69    2.05
  -1  -1   6   70.98    2.00
   0   1  -6  105.66    2.75
   0   1  -6   97.73    2.32
   0  -1   6  104.03    2.63
   0  -1   6  100.20    2.64
   0  -1   6   99.19    2.72
  -1   1  -6   10.38    0.62
  -1   1  -6   11.89    0.72
  -1   1  -6    9.48    0.54
   1  -1   6   10.15    0.67
   1  -1   6   11.11    0.65
   1  -1   6    9.72    0.62
  -2   1  -6    2.33    0.38
  -2   1  -6    2.74    0.41
   2  -1   6    1.80    0.35
   2  -1   6    2.53    0.40
   2  -1   6    2.72    0.40
   2  -1   6    2.14    0.35
  -3   1  -6   18.04    0.75
  -3   1  -6   16.22    0.74
  -3   1  -6   16.49    0.88
  -3   1  -6   17.53    0.79
   3  -1   6   16.36    0.81
   3  -1   6   16.56    0.79
   3  -1   6   16.92    0.90
   3  -1   6   17.57    0.80
  -4   1  -6    0.13    0.14
  -4   1  -6    0.20    0.26
  -4   1  -6    0.36    0.20
  -4   1  -6    0.34    0.19
   4  -1   6    0.04    0.21
   4  -1   6    0.51    0.32
   4  -1   6    0.11    0.22
   4  -1   6    0.10    0.20
  -5   1  -6    5.47    0.45
  -5   1  -6    5.51    0.38
   5  -1   6    6.21    0.53
   5  -1   6    5.15    0.50
   6  -1   6    2.26    0.38
   6  -1   6    1.91    0.36
   7  -1   6    8.87    0.64
   7  -1   6    8.97    0.66
   7   0  -6    0.05    0.30
   7   0  -6    0.27    0.34
  -7   0   6    0.66    0.31
   6   0  -6   60.19    2.05
   6   0  -6   62.81    1.93
  -6   0   6   59.27    1.93
   5   0  -6    8.98    0.74
   5   0  -6    9.47    0.59
   5   0  -6    9.14    0.76
  -5   0   6    9.39    0.70
   4   0  -6  320.45    7.45
   4   0  -6  321.56    6.60
   4   0  -6  319.59    7.25
  -4   0   6  319.22    7.42
   3   0  -6  102.75    2.80
   3   0  -6  106.03    2.51
   3   0  -6  104.07    2.89
   3   0  -6  107.43    2.32
  -3   0   6  106.97    2.90
   2   0  -6   51.93    1.21
   2   0  -6   52.16    1.70
   2   0  -6   52.00    1.64
   2   0  -6   50.25    1.12
  -2   0   6   51.64    1.57
  -2   0   6   53.70    1.71
   1   0  -6  283.32    6.23
   1   0  -6  279.49    6.43
  -1   0   6  280.26    6.21
  -1   0   6  272.28    6.41
   0   0  -6  579.59   12.38
   0   0  -6  567.59   11.09
   0   0   6  572.40   11.93
   0   0   6  570.69   12.00
   0   0   6  546.40   12.35
  -1   0  -6  216.65    4.82
  -1   0  -6  223.23    5.04
  -1   0  -6  217.43    4.52
   1   0   6  213.28    5.03
   1   0   6  209.17    4.78
   1   0   6  211.91    4.51
   1   0   6  215.68    4.86
  -2   0  -6    1.13    0.28
   2   0   6    1.02    0.26
   2   0   6    1.06    0.27
   2   0   6    1.18    0.28
  -3   0  -6   27.93    0.96
   3   0   6   27.12    1.07
   3   0   6   27.57    0.99
   3   0   6   26.77    0.94
  -4   0  -6    0.53    0.17
  -5   0  -6    8.33    0.40
   5   0   6    7.86    0.50
   5   0   6    8.08    0.82
   5   0   6    8.45    0.52
   6   0   6   35.08    1.12
   6   0   6   33.32    1.09
   7   0   6   16.03    0.72
   7   0   6   15.52    0.71
   7  -1  -6   12.77    0.98
  -7   1   6   14.23    0.81
   6  -1  -6    9.43    0.87
   6  -1  -6    7.44    0.76
  -6   1   6    8.87    0.70
   5  -1  -6   19.04    1.08
   5  -1  -6   19.42    0.87
   5  -1  -6   20.07    1.06
   5  -1  -6   20.53    1.08
  -5   1   6   19.24    1.00
   4  -1  -6   31.62    1.04
   4  -1  -6   33.02    1.34
   4  -1  -6   31.35    1.29
   4  -1  -6   29.48    1.28
  -4   1   6   31.27    1.29
   3  -1  -6  371.24    8.02
   3  -1  -6  353.55    7.99
   3  -1  -6  368.96    8.24
  -3   1   6  345.31    8.18
   2  -1  -6   35.51    1.32
   2  -1  -6   35.24    1.28
  -2   1   6   34.45    1.31
   1  -1  -6  522.37   10.87
   1  -1  -6  506.94   11.39
   1  -1  -6  524.44   11.06
  -1   1   6  525.19   11.03
  -1   1   6  516.27   11.41
   0  -1  -6  219.73    5.13
   0  -1  -6  223.44    4.96
   0  -1  -6  210.23    4.82
   0  -1  -6  221.45    4.72
   0   1   6  214.92    4.95
   0   1   6  225.89    5.14
   0   1   6  217.55    4.34
  -1  -1  -6  329.71    7.22
  -1  -1  -6  317.68    6.77
  -1  -1  -6  321.29    6.96
  -1  -1  -6  331.83    6.98
  -1  -1  -6  323.28    6.99
   1   1   6  307.21    7.20
   1   1   6  322.43    6.99
   1   1   6  330.02    6.50
   1   1   6  316.35    7.00
  -2  -1  -6    7.94    0.44
  -2  -1  -6    7.98    0.41
  -2  -1  -6    7.63    0.52
  -2  -1  -6    7.97    0.49
   2   1   6    6.87    0.46
   2   1   6    8.12    0.52
   2   1   6    8.13    0.51
  -3  -1  -6   16.46    0.67
  -3  -1  -6   17.16    0.52
   3   1   6   15.35    0.67
   3   1   6   16.31    0.78
   3   1   6   16.37    0.70
  -4  -1  -6    6.80    0.35
  -4  -1  -6    7.14    0.36
   4   1   6    5.99    0.59
   4   1   6    7.36    0.43
   4   1   6    7.26    0.44
   5   1   6    3.38    0.32
   5   1   6    3.73    0.54
   6   1   6    1.36    0.22
   7   1   6   11.79    0.51
   7   1   6   11.66    0.52
   8   1   6    7.92    0.42
   8   1   6    9.11    0.45
   6  -2  -6   25.50    1.30
   6  -2  -6   24.38    1.29
  -6   2   6   24.53    1.18
   5  -2  -6   10.44    0.84
   5  -2  -6   10.25    0.83
  -5   2   6   10.42    0.87
  -5   2   6    9.99    0.77
   4  -2  -6   45.55    1.72
   4  -2  -6   46.35    1.67
   4  -2  -6   45.60    1.68
  -4   2   6   43.84    1.73
  -4   2   6   47.75    1.72
   3  -2  -6   78.83    2.39
   3  -2  -6   85.25    2.48
   3  -2  -6   82.81    2.40
  -3   2   6   83.83    2.48
  -3   2   6   83.08    2.46
   2  -2  -6   15.90    0.87
   2  -2  -6   18.14    0.90
   2  -2  -6   16.83    0.91
  -2   2   6   16.61    0.88
  -2   2   6   17.15    0.59
   1  -2  -6   68.17    1.94
   1  -2  -6   63.36    1.99
   1  -2  -6   67.00    1.94
  -1   2   6   67.24    1.91
  -1   2   6   64.93    2.00
  -1   2   6   68.72    1.94
   0  -2  -6  281.10    6.62
   0  -2  -6  299.62    6.44
   0  -2  -6  292.70    6.29
   0  -2  -6  294.18    6.44
   0   2   6  302.31    6.46
   0   2   6  276.05    6.27
   0   2   6  286.72    6.64
  -1  -2  -6   73.59    1.86
  -1  -2  -6   75.02    2.07
  -1  -2  -6   75.02    1.95
  -1  -2  -6   70.81    1.94
  -1  -2  -6   74.29    1.97
   1   2   6   74.02    1.88
   1   2   6   76.43    1.99
   1   2   6   69.66    1.96
   1   2   6   70.07    2.04
  -2  -2  -6   48.33    1.43
  -2  -2  -6   45.71    1.22
  -2  -2  -6   44.97    1.45
  -2  -2  -6   45.89    1.32
   2   2   6   46.75    1.43
   2   2   6   47.73    1.40
   2   2   6   45.35    1.22
   2   2   6   44.72    1.37
  -3  -2  -6   11.42    0.72
  -3  -2  -6   10.53    0.38
  -3  -2  -6   10.28    0.55
   3   2   6   11.07    0.58
   3   2   6   11.68    0.58
   3   2   6   10.77    0.55
  -4  -2  -6   24.44    1.17
  -4  -2  -6   24.69    0.78
  -4  -2  -6   23.75    0.75
   4   2   6   23.79    0.84
   4   2   6   23.93    0.86
   4   2   6   24.14    0.82
   5   2   6   16.68    0.65
   5   2   6   17.25    0.65
   5   2   6   17.56    0.65
   6   2   6    0.37    0.15
   6   2   6    0.41    0.17
   7   2   6   11.34    0.47
   6  -3  -6    6.72    0.84
  -6   3   6    7.90    0.83
  -6   3   6    8.02    0.98
   5  -3  -6   38.05    1.65
  -5   3   6   38.81    1.63
  -5   3   6   39.16    1.75
   4  -3  -6   35.67    1.52
   4  -3  -6   34.38    1.53
   4  -3  -6   31.53    1.44
  -4   3   6   34.47    1.25
  -4   3   6   33.25    1.52
  -4   3   6   34.95    1.47
   3  -3  -6  162.45    4.25
   3  -3  -6  161.17    4.13
   3  -3  -6  161.11    4.13
  -3   3   6  165.21    3.71
  -3   3   6  162.18    4.24
  -3   3   6  155.71    4.14
   2  -3  -6   23.64    1.11
   2  -3  -6   21.80    1.13
   2  -3  -6   22.73    1.09
  -2   3   6   24.90    1.18
  -2   3   6   24.28    1.13
  -2   3   6   23.95    0.88
   1  -3  -6    0.12    0.24
   1  -3  -6    1.39    0.38
   1  -3  -6   -0.12    0.24
  -1   3   6    0.35    0.26
  -1   3   6    0.24    0.17
  -1   3   6    0.43    0.27
  -1   3   6    0.35    0.27
   0  -3  -6   87.45    2.39
   0  -3  -6   88.68    2.50
   0  -3  -6   87.04    2.39
   0  -3  -6   89.50    2.44
   0   3   6   87.50    2.49
   0   3   6   83.75    2.36
   0   3   6   89.00    2.35
   0   3   6   87.62    2.39
  -1  -3  -6   34.11    1.21
  -1  -3  -6   34.24    1.28
  -1  -3  -6   32.84    1.19
  -1  -3  -6   36.18    1.15
   1   3   6   34.53    1.23
   1   3   6   33.59    1.21
   1   3   6   35.99    1.30
   1   3   6   35.16    1.15
  -2  -3  -6    0.72    0.23
  -2  -3  -6    1.09    0.32
  -2  -3  -6    1.34    0.37
  -2  -3  -6    0.99    0.22
   2   3   6    0.52    0.22
   2   3   6    0.80    0.25
   2   3   6    0.80    0.26
   2   3   6    0.54    0.20
  -3  -3  -6    0.28    0.22
  -3  -3  -6    0.40    0.18
  -3  -3  -6    0.42    0.32
  -3  -3  -6    0.41    0.15
   3   3   6    0.64    0.22
   3   3   6    0.40    0.15
   3   3   6    0.09    0.21
   3   3   6    0.44    0.21
  -4  -3  -6   -0.30    0.32
  -4  -3  -6    0.13    0.17
  -4  -3  -6    0.02    0.14
   4   3   6    0.08    0.16
   4   3   6    0.05    0.18
   4   3   6    0.00    0.17
  -5  -3  -6   15.06    1.07
  -5  -3  -6   13.34    0.45
  -5  -3  -6   13.04    0.46
   5   3   6   12.61    0.62
   5   3   6   13.98    0.64
   5   3   6   13.47    0.62
   6   3   6    1.97    0.29
   6   3   6    1.36    0.26
   7   3   6    1.81    0.26
   7   3   6    1.95    0.27
   8   3   6   18.55    0.64
   8   3   6   17.83    0.64
   5  -4  -6    6.54    0.84
  -5   4   6    5.12    0.82
  -5   4   6    7.71    0.88
   4  -4  -6   41.90    1.82
   4  -4  -6   42.49    1.77
  -4   4   6   45.30    1.83
  -4   4   6   43.11    1.84
  -4   4   6   41.93    1.55
   3  -4  -6   60.18    2.23
   3  -4  -6   65.24    2.19
   3  -4  -6   64.11    2.19
  -3   4   6   63.97    2.25
  -3   4   6   60.46    1.89
  -3   4   6   65.40    2.25
   2  -4  -6  158.94    4.17
   2  -4  -6  159.49    4.18
   2  -4  -6  167.21    4.37
  -2   4   6  164.71    3.82
  -2   4   6  156.43    4.06
  -2   4   6  164.95    4.34
  -2   4   6  163.07    4.21
   1  -4  -6   55.76    1.97
   1  -4  -6   55.97    1.88
   1  -4  -6   52.32    1.84
  -1   4   6   55.94    1.98
  -1   4   6   56.94    1.84
  -1   4   6   56.25    1.87
   0  -4  -6  166.18    4.15
   0  -4  -6  167.92    4.31
   0  -4  -6  169.60    4.15
   0   4   6  159.08    4.04
   0   4   6  171.30    4.33
   0   4   6  173.95    4.16
   0   4   6  164.12    4.13
  -1  -4  -6   60.04    1.92
  -1  -4  -6   57.28    1.79
  -1  -4  -6   57.14    1.79
   1   4   6   55.94    1.89
   1   4   6   55.17    1.79
   1   4   6   56.23    1.73
   1   4   6   57.72    1.82
  -2  -4  -6   -0.10    0.22
  -2  -4  -6    0.14    0.18
  -2  -4  -6   -0.03    0.18
  -2  -4  -6   -0.11    0.27
   2   4   6    0.14    0.22
   2   4   6    0.22    0.25
   2   4   6    0.12    0.23
   2   4   6    0.04    0.24
  -3  -4  -6    2.65    0.41
  -3  -4  -6    2.71    0.34
  -3  -4  -6    2.53    0.53
   3   4   6    2.41    0.33
   3   4   6    2.86    0.45
   3   4   6    2.57    0.41
   3   4   6    2.78    0.42
  -4  -4  -6   11.15    0.87
  -4  -4  -6   12.02    0.64
  -4  -4  -6   11.95    0.68
   4   4   6   12.07    0.53
   4   4   6   11.35    0.68
   4   4   6   12.20    0.71
   4   4   6   11.57    0.70
  -5  -4  -6    0.27    0.18
  -5  -4  -6   -0.25    0.36
  -5  -4  -6    0.50    0.20
   5   4   6    0.34    0.12
   5   4   6    0.47    0.24
   5   4   6    0.17    0.23
   5   4   6    0.29    0.21
  -6  -4  -6    7.60    0.98
   6   4   6    6.75    0.52
   6   4   6    6.19    0.51
  -7  -4  -6    0.38    0.49
   7   4   6    0.30    0.22
   7   4   6    0.04    0.21
   8   4   6    3.59    0.38
   8   4   6    3.89    0.39
   4  -5  -6   11.56    1.02
  -4   5   6   13.80    0.95
  -4   5   6   13.29    1.10
  -4   5   6   12.03    1.17
   3  -5  -6   93.03    2.89
   3  -5  -6   92.08    3.01
  -3   5   6   91.65    2.97
  -3   5   6   86.21    2.90
  -3   5   6   84.98    2.59
   2  -5  -6   12.31    0.94
   2  -5  -6   11.94    1.00
  -2   5   6   14.88    1.08
  -2   5   6   12.60    0.82
  -2   5   6   11.54    0.92
   1  -5  -6   76.02    2.56
   1  -5  -6   74.60    2.43
   1  -5  -6   78.41    2.47
  -1   5   6   77.18    2.46
  -1   5   6   76.96    2.57
  -1   5   6   76.54    2.41
   0  -5  -6   78.64    2.50
   0  -5  -6   82.21    2.66
   0  -5  -6   85.36    2.54
   0   5   6   85.01    2.53
   0   5   6   85.95    2.53
   0   5   6   83.82    2.67
   0   5   6   85.84    2.55
  -1  -5  -6  196.70    4.84
  -1  -5  -6  198.03    5.08
   1   5   6  198.68    4.90
   1   5   6  200.78    4.78
   1   5   6  199.04    5.08
   1   5   6  201.32    4.90
  -2  -5  -6   22.67    1.03
  -2  -5  -6   22.29    1.16
   2   5   6   22.39    1.01
   2   5   6   22.76    1.10
   2   5   6   23.92    1.17
   2   5   6   21.83    1.07
  -3  -5  -6   45.38    1.65
  -3  -5  -6   46.58    1.84
   3   5   6   46.22    1.62
   3   5   6   47.26    1.63
   3   5   6   44.06    1.65
   3   5   6   42.74    1.45
  -4  -5  -6    0.63    0.41
  -4  -5  -6    0.23    0.25
   4   5   6    0.37    0.23
   4   5   6    0.98    0.34
   4   5   6    0.97    0.35
   4   5   6    0.58    0.31
  -5  -5  -6    0.78    0.46
  -5  -5  -6    0.78    0.28
   5   5   6    0.65    0.30
   5   5   6    0.63    0.30
   5   5   6    0.69    0.24
  -6  -5  -6    0.25    0.20
  -6  -5  -6    0.34    0.47
   6   5   6    0.11    0.23
   6   5   6   -0.14    0.24
  -7  -5  -6    0.43    0.58
   7   5   6    1.08    0.32
   7   5   6    1.15    0.34
  -8  -5  -6   10.28    1.31
   8   5   6   12.30    0.75
   8   5   6   13.53    0.77
   3  -6  -6   17.92    1.34
  -3   6   6   17.94    1.33
  -3   6   6   18.07    1.28
  -3   6   6   16.82    1.08
   2  -6  -6   29.08    1.59
  -2   6   6   26.02    1.52
  -2   6   6   25.99    1.32
  -2   6   6   26.81    1.48
   1  -6  -6    6.01    0.88
  -1   6   6    6.48    0.84
  -1   6   6    5.04    0.73
   0  -6  -6   43.70    1.89
   0   6   6   44.78    1.91
   0   6   6   43.45    1.76
  -1  -6  -6   23.35    1.35
   1   6   6   26.58    1.31
   1   6   6   28.09    1.44
   1   6   6   26.24    1.28
  -2  -6  -6   61.91    2.19
   2   6   6   60.31    2.08
   2   6   6   59.05    2.16
   2   6   6   56.46    2.05
   2   6   6   57.96    1.97
  -3  -6  -6    0.59    0.44
  -3  -6  -6    1.34    0.45
   3   6   6    1.52    0.44
   3   6   6    0.91    0.38
   3   6   6    1.04    0.36
   3   6   6    1.14    0.47
  -4  -6  -6   11.54    1.02
  -4  -6  -6   12.50    0.89
   4   6   6   11.87    0.89
   4   6   6   12.88    0.89
   4   6   6   12.48    0.78
   4   6   6   11.54    0.85
  -5  -6  -6    0.33    0.43
  -5  -6  -6    0.65    0.33
   5   6   6    0.64    0.29
   5   6   6    0.27    0.30
   5   6   6    0.32    0.31
  -6  -6  -6   14.65    0.83
  -6  -6  -6   15.63    1.25
   6   6   6   15.21    0.93
   6   6   6   14.81    0.94
  -7  -6  -6    8.76    1.12
  -7  -6  -6   10.47    0.57
   7   6   6   10.75    0.82
   7   6   6   10.81    0.81
   2  -7  -6   20.10    1.51
  -2   7   6   20.33    1.38
  -2   7   6   19.81    1.45
   1  -7  -6   54.36    2.36
  -1   7   6   57.96    2.41
  -1   7   6   54.04    2.24
   0  -7  -6   25.94    1.57
   0   7   6   25.99    1.45
   0   7   6   26.04    1.56
  -1  -7  -6   26.36    1.53
   1   7   6   27.49    1.56
   1   7   6   24.22    1.36
  -2  -7  -6    1.58    0.55
   2   7   6    0.64    0.45
   2   7   6    1.28    0.46
  -3  -7  -6    4.42    0.73
   3   7   6    2.98    0.54
   3   7   6    3.96    0.65
   3   7   6    3.39    0.61
  -4  -7  -6    0.22    0.46
  -4  -7  -6    1.23    0.46
   4   7   6    1.22    0.40
   4   7   6    0.94    0.46
   4   7   6    1.59    0.55
   4   7   6    1.42    0.47
  -5  -7  -6   15.88    1.35
  -5  -7  -6   16.91    1.09
   5   7   6   16.43    1.08
   5   7   6   16.88    0.96
  -6  -7  -6   14.51    0.95
  -6  -7  -6   16.20    1.33
   6   7   6   14.29    1.02
  -7  -7  -6    3.90    0.52
  -7  -7  -6    3.76    0.91
   7   7   6    3.14    0.60
   0  -8  -6   35.03    1.94
   0   8   6   30.63    1.85
   0   8   6   34.09    1.79
  -1  -8  -6   28.21    1.72
   1   8   6   26.66    1.54
   1   8   6   25.29    1.67
  -2  -8  -6   48.97    2.20
   2   8   6   46.07    2.17
   2   8   6   43.76    1.94
  -3  -8  -6    3.33    0.79
   3   8   6    3.21    0.63
   3   8   6    3.34    0.73
  -4  -8  -6    7.60    0.96
  -4  -8  -6    7.37    1.13
   4   8   6    7.52    0.94
   4   8   6    6.77    0.82
   4   8   6    7.85    0.98
  -5  -8  -6    0.26    0.40
  -5  -8  -6    0.37    0.53
   5   8   6    0.31    0.36
   5   8   6   -0.23    0.30
   4   6  -7    4.92    0.95
  -4  -6   7    4.75    0.71
  -4  -6   7    4.34    0.82
   3   6  -7   40.77    2.10
  -3  -6   7   40.45    2.02
   2   6  -7   24.90    1.64
  -2  -6   7   27.38    1.67
   1   6  -7   61.02    2.43
   1   6  -7   55.27    2.50
  -1  -6   7   60.80    2.54
   0   6  -7   21.28    1.43
   0   6  -7   20.21    1.50
   0  -6   7   21.19    1.52
  -1   6  -7   44.00    2.05
  -1   6  -7   42.39    2.12
   1  -6   7   46.90    2.22
  -2   6  -7   17.81    1.32
  -2   6  -7   18.38    1.41
   2  -6   7   17.94    1.45
   5   5  -7   14.61    1.40
  -5  -5   7   12.75    1.11
   4   5  -7   47.25    2.09
  -4  -5   7   46.61    1.76
  -4  -5   7   46.04    2.04
   3   5  -7    9.70    1.03
  -3  -5   7    8.19    1.02
   2   5  -7   13.75    1.17
  -2  -5   7   12.13    1.09
   1   5  -7   46.12    2.06
  -1  -5   7   47.09    2.05
   0   5  -7   58.66    2.35
   0   5  -7   60.33    2.25
   0  -5   7   57.47    2.33
  -1   5  -7   12.92    1.05
  -1   5  -7   15.13    1.08
  -1   5  -7   13.51    1.15
   1  -5   7   13.66    1.16
  -2   5  -7   35.54    1.78
  -2   5  -7   37.38    1.71
   2  -5   7   34.46    1.79
  -3   5  -7   25.84    1.49
  -3   5  -7   27.66    1.51
   6   4  -7    2.27    0.57
  -6  -4   7    3.52    0.66
   5   4  -7   46.24    1.95
   5   4  -7   46.41    2.02
  -5  -4   7   49.47    1.98
  -5  -4   7   45.97    1.66
   4   4  -7   -0.31    0.28
   4   4  -7    0.10    0.46
  -4  -4   7    0.26    0.35
  -4  -4   7    0.40    0.26
   3   4  -7   76.81    2.55
   3   4  -7   78.95    2.68
  -3  -4   7   74.90    2.23
  -3  -4   7   74.39    2.60
   2   4  -7    7.92    0.86
   2   4  -7    9.03    0.99
  -2  -4   7    9.67    1.01
   1   4  -7   97.85    3.11
   1   4  -7   99.85    2.97
  -1  -4   7   93.86    3.07
  -1  -4   7  101.80    2.95
   0   4  -7    7.91    0.87
   0  -4   7    9.75    0.91
   0  -4   7    7.77    0.91
  -1   4  -7   20.14    1.23
  -1   4  -7   19.23    1.09
  -1   4  -7   17.51    1.09
   1  -4   7   19.41    1.13
   1  -4   7   19.71    1.22
  -2   4  -7   14.97    1.03
  -2   4  -7   16.16    1.12
  -2   4  -7   15.12    1.00
   2  -4   7   14.49    1.08
   2  -4   7   15.87    1.04
  -3   4  -7   23.77    1.34
  -3   4  -7   26.48    1.33
   3  -4   7   27.82    1.38
   3  -4   7   23.47    1.37
  -4   4  -7    9.78    0.90
  -4   4  -7   10.15    0.86
   4  -4   7   10.44    0.92
  -5   4  -7    4.24    0.65
   7   3  -7    0.63    0.38
  -7  -3   7    0.26    0.29
   6   3  -7   13.98    1.05
  -6  -3   7   12.69    0.95
   5   3  -7    0.69    0.43
   5   3  -7    0.28    0.40
  -5  -3   7    0.89    0.39
   4   3  -7   32.38    1.47
   4   3  -7   29.25    1.46
   4   3  -7   28.31    1.38
  -4  -3   7   28.91    1.41
  -4  -3   7   30.57    1.11
   3   3  -7    6.19    0.73
   3   3  -7    6.78    0.83
   3   3  -7    5.64    0.66
  -3  -3   7    7.41    0.77
  -3  -3   7    7.27    0.83
  -3  -3   7    7.87    0.53
   2   3  -7   83.57    2.64
   2   3  -7   80.54    2.46
   2   3  -7   79.77    2.50
  -2  -3   7   77.36    2.39
  -2  -3   7   79.82    2.58
   1   3  -7   84.50    2.50
   1   3  -7   84.70    2.67
   1   3  -7   80.61    2.48
  -1  -3   7   78.23    2.46
  -1  -3   7   84.76    2.49
  -1  -3   7   80.48    2.60
   0   3  -7  341.69    8.11
   0   3  -7  334.11    7.79
   0  -3   7  348.06    8.12
   0  -3   7  345.51    7.84
   0  -3   7  342.77    7.82
  -1   3  -7   25.51    1.16
  -1   3  -7   26.03    1.29
  -1   3  -7   26.48    1.16
   1  -3   7   24.94    1.20
   1  -3   7   25.95    1.28
   1  -3   7   25.56    1.21
  -2   3  -7  126.43    3.36
  -2   3  -7  120.57    3.49
  -2   3  -7  125.52    3.36
   2  -3   7  116.42    3.35
   2  -3   7  128.18    3.42
   2  -3   7  128.26    3.54
  -3   3  -7   49.56    1.85
  -3   3  -7   51.00    1.79
  -3   3  -7   50.52    1.89
   3  -3   7   51.27    1.90
   3  -3   7   48.90    1.81
   3  -3   7   50.20    1.82
  -4   3  -7   55.40    1.93
  -4   3  -7   56.64    1.91
   4  -3   7   54.91    1.96
   4  -3   7   52.33    1.94
  -5   3  -7    0.50    0.33
  -5   3  -7    0.46    0.32
   5  -3   7    0.90    0.40
   5  -3   7    0.83    0.37
   7   2  -7    1.07    0.43
  -7  -2   7    1.07    0.38
   6   2  -7   23.20    1.27
  -6  -2   7   24.22    1.22
   5   2  -7   45.78    1.83
   5   2  -7   48.99    1.81
  -5  -2   7   42.86    1.73
   4   2  -7    0.79    0.42
   4   2  -7    1.17    0.41
  -4  -2   7    1.34    0.40
   3   2  -7   28.69    1.30
   3   2  -7   28.79    1.36
  -3  -2   7   27.96    1.17
  -3  -2   7   29.20    1.34
  -3  -2   7   28.40    0.90
   2   2  -7   20.77    1.06
   2   2  -7   22.14    1.16
  -2  -2   7   20.47    0.99
  -2  -2   7   20.05    0.70
  -2  -2   7   19.60    1.08
   1   2  -7   88.91    2.70
   1   2  -7   88.64    2.55
  -1  -2   7   88.23    2.66
  -1  -2   7   86.38    2.52
  -1  -2   7   91.90    2.57
   0   2  -7  144.86    3.37
   0  -2   7  143.50    3.84
   0  -2   7  146.83    3.70
   0  -2   7  144.78    3.68
  -1   2  -7  296.71    6.64
  -1   2  -7  301.98    6.36
  -1   2  -7  285.15    6.91
   1  -2   7  283.19    6.66
   1  -2   7  295.66    6.93
   1  -2   7  292.25    6.69
  -2   2  -7   62.53    1.92
  -2   2  -7   59.54    1.97
   2  -2   7   60.35    1.92
   2  -2   7   63.07    2.02
   2  -2   7   57.68    1.90
  -3   2  -7  193.38    4.64
  -3   2  -7  188.16    4.48
  -3   2  -7  189.05    4.71
   3  -2   7  190.18    4.63
   3  -2   7  191.49    4.62
   3  -2   7  185.08    4.73
  -4   2  -7   50.12    1.69
  -4   2  -7   51.95    1.92
  -4   2  -7   51.04    1.67
   4  -2   7   53.10    1.97
   4  -2   7   52.18    1.77
   4  -2   7   52.90    1.77
  -5   2  -7   40.41    1.43
  -5   2  -7   41.44    1.41
   5  -2   7   40.44    1.53
   5  -2   7   40.54    1.54
  -6   2  -7    0.33    0.21
  -6   2  -7    0.36    0.21
   6  -2   7    0.26    0.33
   6  -2   7   -0.05    0.28
   7   1  -7    4.76    0.69
  -7  -1   7    4.84    0.59
   6   1  -7   25.83    1.31
  -6  -1   7   25.84    1.23
   5   1  -7    0.54    0.35
   5   1  -7    1.07    0.38
   5   1  -7    0.91    0.25
  -5  -1   7    0.79    0.37
   4   1  -7   38.74    1.60
   4   1  -7   38.05    1.54
  -4  -1   7   40.01    1.56
   3   1  -7   22.04    1.13
   3   1  -7   21.52    1.08
  -3  -1   7   22.15    1.10
   2   1  -7   34.46    1.32
   2   1  -7   31.73    1.35
  -2  -1   7   32.24    1.24
  -2  -1   7   34.01    1.37
   1   1  -7   38.75    1.49
   1   1  -7   39.53    1.43
  -1  -1   7   39.04    1.39
  -1  -1   7   42.03    1.45
  -1  -1   7   39.85    1.50
   0   1  -7   71.09    2.20
   0   1  -7   75.04    1.80
   0  -1   7   69.88    2.10
   0  -1   7   73.77    2.21
   0  -1   7   73.24    2.11
  -1   1  -7    5.10    0.49
  -1   1  -7    4.99    0.46
   1  -1   7    4.26    0.52
   1  -1   7    5.37    0.56
   1  -1   7    5.23    0.55
  -2   1  -7    0.09    0.25
  -2   1  -7    0.40    0.24
   2  -1   7    0.62    0.25
   2  -1   7    0.16    0.23
   2  -1   7    0.48    0.27
  -3   1  -7   71.36    2.09
  -3   1  -7   73.34    1.96
  -3   1  -7   74.13    2.17
   3  -1   7   74.25    2.19
   3  -1   7   71.38    2.06
   3  -1   7   71.60    2.08
   3  -1   7   71.06    2.13
  -4   1  -7  119.74    2.92
  -4   1  -7  120.48    3.07
   4  -1   7  120.00    3.28
   4  -1   7  119.56    3.15
   4  -1   7  124.49    3.11
   4  -1   7  119.66    3.08
  -5   1  -7   -0.01    0.17
  -5   1  -7    0.09    0.19
   5  -1   7   -0.03    0.21
   5  -1   7    0.10    0.24
   6  -1   7   15.65    0.86
   6  -1   7   17.63    0.89
   7  -1   7    0.44    0.27
   7  -1   7    0.87    0.33
   7   0  -7    1.07    0.45
  -7   0   7    0.76    0.34
   6   0  -7    1.01    0.40
  -6   0   7    1.44    0.39
   5   0  -7   28.17    1.00
   5   0  -7   29.88    1.34
   5   0  -7   27.80    1.34
  -5   0   7   29.14    1.30
   4   0  -7    4.19    0.53
   4   0  -7    4.61    0.63
   4   0  -7    2.81    0.31
  -4   0   7    2.82    0.53
   3   0  -7  118.23    3.13
   3   0  -7  115.81    2.66
   3   0  -7  115.71    3.21
   3   0  -7  115.20    2.44
  -3   0   7  112.73    3.19
   2   0  -7    0.46    0.26
   2   0  -7    0.76    0.35
  -2   0   7    0.84    0.33
  -2   0   7    0.57    0.27
   1   0  -7  163.03    4.20
   1   0  -7  163.90    4.05
  -1   0   7  168.71    4.05
  -1   0   7  174.40    4.25
   0   0  -7  171.81    4.21
   0   0  -7  168.59    3.49
   0   0   7  169.87    3.65
   0   0   7  164.84    4.03
   0   0   7  169.31    4.20
  -1   0  -7  173.60    4.00
  -1   0  -7  170.18    4.17
   1   0   7  168.32    3.87
   1   0   7  170.41    4.18
   1   0   7  171.09    3.69
   1   0   7  166.61    4.03
  -2   0  -7    6.31    0.55
   2   0   7    7.02    0.51
   2   0   7    7.26    0.56
   2   0   7    6.19    0.52
  -3   0  -7   25.00    0.95
  -3   0  -7   24.29    0.96
   3   0   7   25.04    1.00
   3   0   7   24.98    0.96
   3   0   7   24.05    1.04
  -4   0  -7   29.11    0.90
  -4   0  -7   29.93    1.00
  -4   0  -7   29.57    1.00
   4   0   7   28.72    1.05
   4   0   7   28.13    1.23
   4   0   7   29.71    1.08
   4   0   7   28.71    1.08
  -5   0  -7    5.11    0.32
  -5   0  -7    4.49    0.30
  -5   0  -7    5.06    0.34
   5   0   7    4.33    0.46
   5   0   7    4.29    0.44
   6   0   7    0.45    0.23
   6   0   7    0.19    0.22
   7   0   7    7.60    0.56
   7   0   7    7.48    0.56
   6  -1  -7    4.12    0.63
   6  -1  -7    4.82    0.69
  -6   1   7    5.86    0.69
   5  -1  -7    5.88    0.72
   5  -1  -7    4.57    0.60
  -5   1   7    4.70    0.63
   4  -1  -7    5.85    0.69
   4  -1  -7    6.58    0.71
   4  -1  -7    5.83    0.70
  -4   1   7    5.31    0.64
  -3   1   7    1.26    0.37
   2  -1  -7   43.21    1.59
   2  -1  -7   43.02    1.51
  -2   1   7   44.53    1.58
   1  -1  -7   13.26    0.82
   1  -1  -7   13.89    0.78
  -1   1   7   13.64    0.81
  -1   1   7   13.30    0.76
   0  -1  -7  526.27   10.87
   0  -1  -7  525.99   11.43
   0  -1  -7  519.85   10.82
   0  -1  -7  519.25   11.06
   0   1   7  526.45   10.07
   0   1   7  493.22   11.40
   0   1   7  511.79   11.07
  -1  -1  -7  112.82    2.65
  -1  -1  -7  110.40    2.90
  -1  -1  -7  109.93    2.77
  -1  -1  -7  108.18    2.65
  -1  -1  -7  109.13    2.75
   1   1   7  107.49    2.80
   1   1   7  112.68    2.91
   1   1   7  111.54    2.65
   1   1   7  111.47    2.46
  -2  -1  -7  335.38    7.01
  -2  -1  -7  336.94    7.53
   2   1   7  337.86    7.32
   2   1   7  331.77    6.94
   2   1   7  333.35    7.53
  -3  -1  -7  104.22    2.62
  -3  -1  -7  101.99    2.32
  -3  -1  -7  104.56    2.61
   3   1   7   99.43    2.57
   3   1   7  103.13    2.66
   3   1   7  104.43    2.63
  -4  -1  -7  245.84    5.00
  -4  -1  -7  245.50    5.46
  -4  -1  -7  248.60    5.01
  -4  -1  -7  248.06    5.47
   4   1   7  246.27    5.57
   4   1   7  241.07    5.43
   4   1   7  241.60    5.58
   5   1   7   11.42    0.85
   5   1   7   11.11    0.60
   6   1   7   13.87    0.64
   7   1   7    0.00    0.17
   7   1   7    0.05    0.18
   8   1   7    0.21    0.19
   8   1   7    0.55    0.21
   6  -2  -7    0.58    0.38
  -6   2   7    0.04    0.30
   5  -2  -7   32.92    1.49
   5  -2  -7   32.50    1.48
  -5   2   7   32.30    1.45
   4  -2  -7    3.64    0.58
   4  -2  -7    2.99    0.56
   4  -2  -7    3.16    0.50
  -4   2   7    3.48    0.60
  -4   2   7    3.85    0.57
   3  -2  -7   18.94    1.02
   3  -2  -7   17.89    1.00
   3  -2  -7   16.72    1.00
  -3   2   7   17.52    1.03
  -3   2   7   18.46    1.03
   2  -2  -7    4.14    0.50
   2  -2  -7    3.17    0.45
   2  -2  -7    4.20    0.58
  -2   2   7    3.78    0.52
  -2   2   7    4.74    0.57
  -2   2   7    3.34    0.24
   1  -2  -7   44.98    1.62
   1  -2  -7   49.13    1.59
   1  -2  -7   44.76    1.55
  -1   2   7   45.83    1.55
  -1   2   7   47.39    1.54
  -1   2   7   47.82    1.64
  -1   2   7   45.95    1.06
   0  -2  -7   84.64    2.22
   0  -2  -7   76.96    2.25
   0  -2  -7   84.10    2.29
   0  -2  -7   83.10    2.37
   0   2   7   84.27    2.29
   0   2   7   83.66    2.22
   0   2   7   81.19    2.36
  -1  -2  -7  157.05    3.67
  -1  -2  -7  159.65    3.59
  -1  -2  -7  157.88    3.72
  -1  -2  -7  159.74    3.72
  -1  -2  -7  158.82    3.88
   1   2   7  148.90    3.85
   1   2   7  151.04    3.74
   1   2   7  152.71    3.57
  -2  -2  -7   44.78    1.49
  -2  -2  -7   48.20    1.49
  -2  -2  -7   46.65    1.39
  -2  -2  -7   45.10    1.28
   2   2   7   46.57    1.46
   2   2   7   45.87    1.48
   2   2   7   48.54    1.46
  -3  -2  -7  149.90    3.85
  -3  -2  -7  154.90    3.64
  -3  -2  -7  152.92    3.66
  -3  -2  -7  152.65    3.26
   3   2   7  149.13    3.57
   3   2   7  153.24    3.70
   3   2   7  150.09    3.59
  -4  -2  -7  119.29    2.86
  -4  -2  -7  119.65    2.88
  -4  -2  -7  120.08    2.86
   4   2   7  118.37    2.89
   4   2   7  122.90    2.92
   4   2   7  118.51    2.97
   5   2   7  155.10    3.59
   5   2   7  156.10    3.95
   6   2   7    0.60    0.21
   7   2   7    8.62    0.48
   8   2   7    0.12    0.15
   8   2   7    0.12    0.16
   6  -3  -7    0.06    0.38
  -6   3   7    0.56    0.44
  -6   3   7    0.34    0.33
   5  -3  -7   13.75    1.02
  -5   3   7   10.57    0.93
  -5   3   7   14.35    1.09
   4  -3  -7   17.91    1.13
   4  -3  -7   15.79    1.04
   4  -3  -7   15.25    1.04
  -4   3   7   17.25    1.10
  -4   3   7   17.36    1.12
   3  -3  -7    6.72    0.72
   3  -3  -7    6.27    0.76
   3  -3  -7    5.99    0.69
  -3   3   7    4.56    0.62
  -3   3   7    6.32    0.48
  -3   3   7    5.38    0.66
   2  -3  -7   53.85    1.87
   2  -3  -7   55.48    1.97
   2  -3  -7   56.44    1.89
  -2   3   7   54.40    1.95
  -2   3   7   55.91    1.48
  -2   3   7   55.48    1.90
   1  -3  -7   10.76    0.76
   1  -3  -7   11.51    0.83
   1  -3  -7   12.27    0.80
  -1   3   7   11.27    0.76
  -1   3   7   11.66    0.74
  -1   3   7   10.60    0.81
   0  -3  -7  166.66    4.12
   0  -3  -7  169.09    4.29
   0  -3  -7  168.53    4.14
   0   3   7  173.31    4.32
   0   3   7  169.59    4.13
   0   3   7  170.25    4.05
   0   3   7  167.57    4.11
  -1  -3  -7   94.07    2.61
  -1  -3  -7   92.86    2.39
  -1  -3  -7   92.39    2.48
  -1  -3  -7   95.49    2.50
  -1  -3  -7   90.09    2.47
   1   3   7   96.31    2.53
   1   3   7   89.69    2.38
   1   3   7   93.09    2.62
   1   3   7   89.35    2.50
  -2  -3  -7  126.88    3.31
  -2  -3  -7  130.11    3.01
  -2  -3  -7  128.63    3.14
  -2  -3  -7  134.65    3.32
   2   3   7  125.78    3.20
   2   3   7  126.37    3.31
   2   3   7  125.50    3.21
   2   3   7  127.14    3.00
  -3  -3  -7    5.89    0.51
  -3  -3  -7    5.53    0.60
  -3  -3  -7    5.57    0.37
   3   3   7    6.06    0.51
   3   3   7    5.27    0.52
   3   3   7    6.36    0.52
   3   3   7    5.63    0.37
  -4  -3  -7   93.53    2.88
  -4  -3  -7  100.21    2.53
   4   3   7   99.54    2.59
   4   3   7   95.88    2.51
   4   3   7  100.66    2.53
  -5  -3  -7   16.17    0.58
  -5  -3  -7   15.68    0.60
  -5  -3  -7   14.93    1.05
   5   3   7   15.59    0.74
   5   3   7   15.61    0.72
   6   3   7    3.94    0.40
   6   3   7    3.31    0.37
   7   3   7    7.03    0.46
   7   3   7    7.04    0.47
   8   3   7    8.75    0.48
   5  -4  -7    3.82    0.71
  -5   4   7    4.69    0.71
  -5   4   7    4.80    0.83
   4  -4  -7    0.15    0.40
   4  -4  -7    0.03    0.33
  -4   4   7    0.09    0.37
  -4   4   7    0.08    0.20
  -4   4   7    0.05    0.35
   3  -4  -7   22.30    1.24
   3  -4  -7   23.30    1.32
  -3   4   7   22.57    1.27
  -3   4   7   22.47    0.99
  -3   4   7   25.18    1.36
   2  -4  -7   19.79    1.13
   2  -4  -7   20.80    1.15
   2  -4  -7   19.51    1.20
  -2   4   7   20.18    0.90
  -2   4   7   20.93    1.22
  -2   4   7   19.01    1.12
   1  -4  -7   89.33    2.81
   1  -4  -7   92.64    2.71
   1  -4  -7   90.82    2.70
  -1   4   7   92.74    2.70
  -1   4   7   92.77    2.65
  -1   4   7   94.16    2.83
   0  -4  -7  159.73    4.00
   0  -4  -7  152.83    3.97
   0  -4  -7  160.01    4.17
   0   4   7  153.91    3.91
   0   4   7  158.54    3.98
   0   4   7  157.10    4.16
   0   4   7  156.74    3.98
  -1  -4  -7  207.78    4.95
  -1  -4  -7  204.37    5.15
   1   4   7  208.76    5.00
   1   4   7  211.99    4.84
   1   4   7  213.03    5.00
   1   4   7  202.33    5.16
  -2  -4  -7   36.34    1.23
  -2  -4  -7   35.12    1.29
  -2  -4  -7   35.68    1.45
  -2  -4  -7   38.79    1.45
   2   4   7   36.16    1.37
   2   4   7   39.64    1.45
   2   4   7   34.72    1.34
   2   4   7   36.40    1.24
  -3  -4  -7   90.45    2.73
  -3  -4  -7   94.28    2.58
  -3  -4  -7   87.78    2.25
   3   4   7   90.40    2.58
   3   4   7   91.95    2.51
   3   4   7   90.01    2.28
   3   4   7   91.00    2.50
  -4  -4  -7   57.39    1.76
  -4  -4  -7   57.22    1.72
  -4  -4  -7   58.25    2.10
   4   4   7   54.04    1.79
   4   4   7   56.64    1.76
   4   4   7   58.47    1.49
   4   4   7   59.94    1.79
  -5  -4  -7   88.47    2.87
  -5  -4  -7   83.94    2.24
   5   4   7   84.93    2.34
   5   4   7   85.06    2.32
  -6  -4  -7    1.94    0.60
   6   4   7    2.64    0.39
   6   4   7    2.15    0.35
   7   4   7    9.10    0.59
   7   4   7    9.58    0.61
   8   4   7    0.96    0.26
   8   4   7    0.61    0.23
   4  -5  -7    6.58    0.82
  -4   5   7    6.81    0.93
  -4   5   7    8.55    1.01
   3  -5  -7    0.62    0.43
   3  -5  -7    0.01    0.44
  -3   5   7    0.37    0.32
  -3   5   7   -0.20    0.38
  -3   5   7    0.19    0.38
   2  -5  -7   35.58    1.60
   2  -5  -7   34.87    1.70
  -2   5   7   34.46    1.66
  -2   5   7   35.91    1.37
  -2   5   7   33.86    1.60
   1  -5  -7    3.69    0.57
   1  -5  -7    4.75    0.73
  -1   5   7    3.84    0.69
  -1   5   7    3.98    0.63
   0  -5  -7  160.45    4.14
   0  -5  -7  154.10    4.30
   0  -5  -7  149.51    4.08
   0   5   7  161.22    4.09
   0   5   7  154.73    4.10
   0   5   7  162.34    4.14
   0   5   7  161.04    4.34
  -1  -5  -7   99.90    2.83
  -1  -5  -7   94.32    2.95
   1   5   7  100.63    2.87
   1   5   7   98.10    2.86
   1   5   7   97.75    2.99
   1   5   7  101.57    2.78
  -2  -5  -7  120.64    3.23
  -2  -5  -7  122.16    3.43
   2   5   7  122.35    3.15
   2   5   7  126.77    3.34
   2   5   7  122.56    3.44
   2   5   7  117.28    3.28
  -3  -5  -7   84.18    2.68
  -3  -5  -7   82.70    2.50
   3   5   7   79.15    2.39
   3   5   7   79.93    2.43
   3   5   7   79.45    2.48
   3   5   7   79.29    2.21
  -4  -5  -7  150.38    3.96
  -4  -5  -7  153.20    4.32
   4   5   7  154.50    3.92
   4   5   7  156.27    3.92
   4   5   7  157.26    4.05
   4   5   7  156.04    3.61
  -5  -5  -7   46.08    1.54
  -5  -5  -7   44.08    1.97
   5   5   7   45.13    1.27
   5   5   7   46.04    1.61
   5   5   7   44.84    1.58
  -6  -5  -7   33.91    1.15
  -6  -5  -7   36.55    1.85
   6   5   7   35.25    1.35
   6   5   7   35.17    1.35
  -7  -5  -7    5.28    0.96
   7   5   7    6.20    0.62
   7   5   7    7.36    0.66
   8   5   7   12.08    0.75
   8   5   7   11.45    0.74
   3  -6  -7   22.02    1.53
  -3   6   7   22.52    1.22
  -3   6   7   21.77    1.43
  -3   6   7   21.17    1.46
   2  -6  -7    0.33    0.51
  -2   6   7    0.02    0.34
  -2   6   7    0.51    0.48
  -2   6   7    0.14    0.40
   1  -6  -7   18.59    1.31
  -1   6   7   19.50    1.22
  -1   6   7   19.02    1.31
   0  -6  -7    8.80    1.03
   0   6   7    5.49    0.76
   0   6   7    5.76    0.73
  -1  -6  -7  113.86    3.46
   1   6   7  110.40    3.28
   1   6   7  116.52    3.24
   1   6   7  113.20    3.46
  -2  -6  -7   26.38    1.37
   2   6   7   23.95    1.20
   2   6   7   24.36    1.26
   2   6   7   25.61    1.36
  -3  -6  -7  114.01    3.38
  -3  -6  -7  118.88    3.59
   3   6   7  111.95    3.28
   3   6   7  117.02    3.31
   3   6   7  117.22    3.11
   3   6   7  117.99    3.43
  -4  -6  -7   45.81    1.76
  -4  -6  -7   44.64    1.98
   4   6   7   45.07    1.55
   4   6   7   46.69    1.76
   4   6   7   44.89    1.78
   4   6   7   45.75    1.75
  -5  -6  -7   40.17    1.57
  -5  -6  -7   40.91    1.95
   5   6   7   40.13    1.60
   5   6   7   41.59    1.63
   5   6   7   41.59    1.37
  -6  -6  -7   25.94    1.11
  -6  -6  -7   24.00    1.54
   6   6   7   25.34    1.21
   6   6   7   24.45    1.21
  -7  -6  -7   14.53    1.28
  -7  -6  -7   14.69    0.67
   7   6   7   12.77    0.89
   7   6   7   15.22    0.95
   2  -7  -7    9.16    1.23
  -2   7   7    8.85    1.11
  -2   7   7   10.04    1.18
   1  -7  -7    9.34    1.07
  -1   7   7    8.92    1.10
  -1   7   7    8.76    0.99
   0  -7  -7   72.09    2.73
   0   7   7   68.63    2.68
   0   7   7   68.50    2.51
  -1  -7  -7   27.79    1.58
   1   7   7   24.38    1.51
   1   7   7   25.28    1.39
  -2  -7  -7   46.40    2.03
   2   7   7   48.99    2.07
   2   7   7   44.43    1.83
  -3  -7  -7    2.78    0.63
   3   7   7    1.97    0.56
   3   7   7    3.36    0.58
   3   7   7    2.74    0.55
  -4  -7  -7   47.33    2.17
  -4  -7  -7   50.14    1.99
   4   7   7   47.79    1.92
   4   7   7   47.24    1.99
   4   7   7   47.05    1.74
  -5  -7  -7   27.35    1.37
  -5  -7  -7   25.00    1.64
   5   7   7   24.16    1.32
   5   7   7   24.97    1.16
  -6  -7  -7   37.92    1.58
  -6  -7  -7   38.41    2.09
   6   7   7   39.66    1.70
   0  -8  -7   32.78    1.92
   0   8   7   31.55    1.73
   0   8   7   30.37    1.84
  -1  -8  -7   55.11    2.42
   1   8   7   53.01    2.22
   1   8   7   52.79    2.40
  -2  -8  -7   39.60    2.01
   2   8   7   38.96    1.81
   2   8   7   39.83    2.02
  -3  -8  -7   37.59    1.90
   3   8   7   34.22    1.85
   3   8   7   36.06    1.69
  -4  -8  -7   18.84    1.33
  -4  -8  -7   19.29    1.53
   4   8   7   21.36    1.43
   4   8   7   20.50    1.21
  -5  -8  -7   28.21    1.84
  -5  -8  -7   24.60    1.47
   5   8   7   26.57    1.38
   5   8   7   28.59    1.53
   3   6  -8    1.88    0.73
  -3  -6   8    2.43    0.72
   2   6  -8    2.76    0.77
  -2  -6   8    3.11    0.79
   1   6  -8    0.13    0.48
   1   6  -8   -0.24    0.47
  -1  -6   8   -0.07    0.48
   0   6  -8    5.37    0.92
   0   6  -8    3.89    0.78
   0  -6   8    5.22    0.92
  -1   6  -8    0.67    0.49
  -1   6  -8    0.30    0.49
   1  -6   8    0.44    0.58
  -5  -5   8    7.57    1.05
   4   5  -8    4.00    0.82
  -4  -5   8    3.61    0.74
   3   5  -8   47.61    2.14
  -3  -5   8   43.33    1.68
  -3  -5   8   44.88    2.08
   2   5  -8   10.17    1.17
  -2  -5   8   11.61    1.23
   1   5  -8   24.95    1.56
  -1  -5   8   21.82    1.45
   0   5  -8   11.49    0.96
   0   5  -8   13.38    1.21
   0  -5   8   11.56    1.17
  -1   5  -8   18.98    1.28
  -1   5  -8   19.02    1.40
   1  -5   8   16.69    1.31
  -2   5  -8   10.24    1.13
  -2   5  -8   13.83    1.12
   2  -5   8   13.74    1.33
  -3   5  -8   31.04    1.72
  -3   5  -8   33.56    1.70
   6   4  -8    0.71    0.46
  -6  -4   8    0.36    0.38
   5   4  -8    5.41    0.89
   5   4  -8    5.01    0.73
  -5  -4   8    6.60    0.91
   4   4  -8    1.43    0.58
   4   4  -8    1.24    0.45
  -4  -4   8    1.41    0.55
   3   4  -8    0.50    0.37
   3   4  -8    1.14    0.50
  -3  -4   8    0.06    0.35
  -3  -4   8    0.76    0.32
   2   4  -8   25.49    1.48
  -2  -4   8   23.89    1.41
   1   4  -8   -0.11    0.40
  -1  -4   8    0.11    0.41
   0   4  -8   57.21    1.97
   0   4  -8   56.36    2.24
   0  -4   8   59.98    2.28
  -1   4  -8   -0.03    0.25
  -1   4  -8    0.17    0.41
   1  -4   8   -0.38    0.30
   1  -4   8    0.02    0.29
  -2   4  -8   38.32    1.80
  -2   4  -8   37.95    1.69
  -2   4  -8   41.63    1.73
   2  -4   8   37.40    1.69
   2  -4   8   41.90    1.85
  -3   4  -8   17.77    1.20
  -3   4  -8   17.67    1.13
   3  -4   8   18.58    1.26
   3  -4   8   19.02    1.19
  -4   4  -8   20.23    1.25
  -4   4  -8   22.94    1.27
   4  -4   8   21.92    1.31
   6   3  -8    9.54    0.97
  -6  -3   8   10.77    0.94
   5   3  -8   -0.01    0.37
   5   3  -8   -0.08    0.35
  -5  -3   8    0.44    0.39
   4   3  -8   72.30    2.57
   4   3  -8   75.18    2.52
  -4  -3   8   70.78    2.52
   3   3  -8    1.84    0.47
   3   3  -8    1.01    0.44
  -3  -3   8    1.43    0.28
  -3  -3   8    1.06    0.41
   2   3  -8   -0.29    0.24
   2   3  -8    0.06    0.39
  -2  -3   8   -0.11    0.34
   1   3  -8    4.97    0.63
   1   3  -8    8.44    0.97
  -1  -3   8    7.43    0.80
  -1  -3   8    5.96    0.79
  -1  -3   8    7.39    0.84
   0   3  -8   15.98    0.88
   0   3  -8   16.42    1.12
   0   3  -8   15.34    0.98
   0  -3   8   15.37    0.98
   0  -3   8   15.92    1.10
   0  -3   8   15.17    0.98
  -1   3  -8   14.65    0.91
  -1   3  -8   18.06    1.13
   1  -3   8   17.45    1.11
   1  -3   8   18.59    1.07
   1  -3   8   17.81    1.06
  -2   3  -8    0.39    0.30
  -2   3  -8   -0.05    0.32
  -2   3  -8    0.62    0.37
   2  -3   8    0.94    0.38
   2  -3   8    0.22    0.35
   2  -3   8    0.75    0.39
  -3   3  -8   46.20    1.86
  -3   3  -8   49.49    1.91
  -3   3  -8   48.96    1.80
   3  -3   8   49.62    1.86
   3  -3   8   47.66    1.83
   3  -3   8   47.77    1.89
  -4   3  -8   15.22    1.00
  -4   3  -8   17.12    1.02
   4  -3   8   16.59    1.07
  -5   3  -8   31.33    1.36
  -5   3  -8   30.70    1.36
   5  -3   8   29.19    1.44
   6   2  -8    2.53    0.54
  -6  -2   8    3.66    0.61
   5   2  -8    0.39    0.37
   5   2  -8    0.73    0.47
  -5  -2   8    0.54    0.39
   4   2  -8    0.84    0.43
   4   2  -8    0.11    0.32
  -4  -2   8    0.83    0.40
   3   2  -8   11.22    0.88
   3   2  -8    8.13    0.83
  -3  -2   8   11.23    0.76
  -3  -2   8   10.24    0.89
   2   2  -8   17.96    1.04
   2   2  -8   17.86    1.11
  -2  -2   8   16.98    0.58
  -2  -2   8   18.06    1.09
  -2  -2   8   18.29    0.99
   1   2  -8    2.99    0.51
  -1  -2   8    3.55    0.53
  -1  -2   8    2.80    0.46
  -1  -2   8    2.60    0.50
   0   2  -8   42.88    1.36
   0   2  -8   43.15    1.69
   0   2  -8   40.21    1.52
   0  -2   8   40.96    1.55
   0  -2   8   40.17    1.57
   0  -2   8   39.98    1.64
  -1   2  -8    0.54    0.26
  -1   2  -8    0.36    0.33
  -1   2  -8    0.56    0.27
   1  -2   8    0.93    0.32
   1  -2   8    0.49    0.27
   1  -2   8    0.38    0.35
  -2   2  -8   77.80    2.26
  -2   2  -8   73.63    2.38
   2  -2   8   76.27    2.32
   2  -2   8   74.39    2.33
   2  -2   8   75.39    2.41
  -3   2  -8   38.96    1.53
  -3   2  -8   39.09    1.45
  -3   2  -8   37.30    1.53
   3  -2   8   37.38    1.50
   3  -2   8   39.46    1.52
   3  -2   8   38.54    1.55
  -4   2  -8  100.85    2.72
  -4   2  -8   97.72    2.99
  -4   2  -8   96.51    2.82
   4  -2   8  100.00    2.87
   4  -2   8  102.09    2.87
  -5   2  -8   17.24    0.90
  -5   2  -8   18.06    0.91
   5  -2   8   17.66    1.03
   5  -2   8   18.08    1.03
  -6   2  -8   33.07    1.17
   6  -2   8   33.33    1.47
   6  -2   8   37.32    1.52
   6   1  -8    4.34    0.66
  -6  -1   8    5.01    0.71
   5   1  -8    3.95    0.58
   5   1  -8    4.46    0.64
  -5  -1   8    4.44    0.64
   4   1  -8   18.20    1.09
   4   1  -8   18.16    1.13
  -4  -1   8   17.60    1.08
   3   1  -8   12.76    0.94
   3   1  -8   12.41    0.87
  -3  -1   8   12.16    0.81
  -3  -1   8   11.45    0.87
   2   1  -8   29.40    1.35
   2   1  -8   29.54    1.27
  -2  -1   8   26.80    1.29
  -2  -1   8   28.97    1.21
   1   1  -8   23.99    1.12
   1   1  -8   25.73    0.78
   1   1  -8   25.24    1.23
  -1  -1   8   24.42    1.20
  -1  -1   8   24.30    1.11
  -1  -1   8   25.30    1.15
   0   1  -8   -0.20    0.27
   0   1  -8    0.08    0.17
   0   1  -8    0.03    0.13
   0  -1   8    0.02    0.19
   0  -1   8   -0.01    0.21
   0  -1   8    0.14    0.27
  -1   1  -8   65.33    1.80
  -1   1  -8   71.43    2.21
  -1   1  -8   63.27    1.97
   1  -1   8   66.50    2.05
   1  -1   8   64.05    2.02
   1  -1   8   65.33    2.12
  -2   1  -8    7.49    0.72
  -2   1  -8    6.75    0.56
   2  -1   8    6.88    0.65
   2  -1   8    5.32    0.55
   2  -1   8    5.90    0.61
  -3   1  -8  126.43    3.28
  -3   1  -8  124.24    3.22
   3  -1   8  121.79    3.22
   3  -1   8  122.61    3.21
   3  -1   8  121.02    3.22
   3  -1   8  122.27    3.31
  -4   1  -8   59.77    1.71
  -4   1  -8   58.32    1.83
   4  -1   8   61.77    2.06
   4  -1   8   57.12    1.89
   4  -1   8   57.46    1.87
   4  -1   8   56.62    1.84
  -5   1  -8   76.02    2.13
  -5   1  -8   81.86    2.10
   5  -1   8   77.90    2.31
   5  -1   8   76.13    2.27
  -6   1  -8    8.67    0.41
   6  -1   8    8.61    0.71
   6  -1   8    8.35    0.69
   7  -1   8   45.85    1.63
   7  -1   8   45.31    1.63
   6   0  -8    3.13    0.63
  -6   0   8    3.72    0.60
   5   0  -8   12.72    0.96
   5   0  -8   11.53    0.96
  -5   0   8   12.38    0.92
   4   0  -8    5.56    0.70
   4   0  -8    3.88    0.61
   4   0  -8    3.83    0.30
  -4   0   8    5.49    0.71
   3   0  -8   37.28    1.49
   3   0  -8   34.72    1.52
  -3   0   8   37.02    1.52
   2   0  -8   48.94    1.69
   2   0  -8   45.08    1.73
  -2   0   8   47.86    1.75
  -2   0   8   45.42    1.59
   1   0  -8    0.93    0.35
   1   0  -8    0.26    0.26
  -1   0   8   -0.10    0.27
  -1   0   8    0.48    0.29
  -1   0   8    0.49    0.27
   0   0  -8   64.61    2.07
   0   0   8   63.22    2.05
   0   0   8   62.46    1.96
   0   0   8   65.19    1.49
  -1   0  -8    0.47    0.29
  -1   0  -8    0.48    0.25
   1   0   8    0.05    0.23
   1   0   8    0.43    0.28
   1   0   8    0.51    0.19
  -2   0  -8   24.15    1.06
   2   0   8   21.75    0.90
   2   0   8   21.37    0.98
   2   0   8   22.75    1.03
  -3   0  -8   32.82    1.20
   3   0   8   28.95    1.19
   3   0   8   30.30    1.21
   3   0   8   29.26    1.17
  -4   0  -8   96.11    2.56
  -4   0  -8  100.03    2.35
   4   0   8   97.82    2.66
   4   0   8   97.40    2.59
   4   0   8   99.73    2.62
   4   0   8   97.55    2.77
  -5   0  -8    1.06    0.24
  -5   0  -8    1.31    0.22
   5   0   8    1.27    0.33
   5   0   8    0.99    0.30
   6   0   8   29.70    1.16
   6   0   8   30.48    1.17
   7   0   8   21.37    0.96
   7   0   8   20.31    0.95
   6  -1  -8   19.92    1.24
  -6   1   8   20.12    1.16
   5  -1  -8   10.20    0.90
   5  -1  -8   11.62    0.94
  -5   1   8   11.11    0.90
   4  -1  -8   14.51    0.97
   4  -1  -8   13.72    0.95
   4  -1  -8   13.81    1.00
  -4   1   8   13.42    0.94
   3  -1  -8    0.74    0.21
   3  -1  -8    0.98    0.40
   3  -1  -8    0.18    0.32
  -3   1   8    0.79    0.35
   2  -1  -8   13.63    0.91
   2  -1  -8   13.51    0.86
  -2   1   8   14.80    0.93
   1  -1  -8   36.78    1.44
   1  -1  -8   35.50    1.36
  -1   1   8   33.27    1.31
  -1   1   8   37.58    1.45
   0  -1  -8    1.41    0.41
   0  -1  -8    1.40    0.35
   0   1   8    1.08    0.31
   0   1   8    1.34    0.35
  -1  -1  -8  108.97    2.74
  -1  -1  -8  110.15    3.00
  -1  -1  -8  109.66    2.86
   1   1   8  112.27    2.68
   1   1   8  110.29    2.49
   1   1   8  111.89    2.91
   1   1   8  114.95    3.02
  -2  -1  -8   34.94    1.11
  -2  -1  -8   31.64    1.26
   2   1   8   33.24    1.24
   2   1   8   34.48    1.12
   2   1   8   38.03    1.34
  -3  -1  -8  172.31    4.22
  -3  -1  -8  180.33    4.25
  -3  -1  -8  171.75    3.83
   3   1   8  179.19    4.29
   3   1   8  177.16    4.08
   3   1   8  172.00    4.15
  -4  -1  -8   57.81    1.36
  -4  -1  -8   57.43    1.35
  -4  -1  -8   48.75    1.56
  -4  -1  -8   55.86    1.62
   4   1   8   58.80    1.69
   4   1   8   54.36    1.69
   4   1   8   56.14    1.83
  -5  -1  -8   69.67    1.70
  -5  -1  -8   66.23    1.68
   5   1   8   63.75    2.20
   5   1   8   67.98    1.90
   6   1   8   11.66    0.65
   7   1   8   46.45    1.45
   7   1   8   47.30    1.45
   6  -2  -8    0.24    0.36
  -6   2   8    1.39    0.47
   5  -2  -8    0.72    0.40
  -5   2   8    0.29    0.32
   4  -2  -8    0.95    0.48
   4  -2  -8    1.20    0.42
   4  -2  -8    1.27    0.42
  -4   2   8    1.37    0.43
   3  -2  -8   23.29    1.19
   3  -2  -8   22.21    1.17
   3  -2  -8   20.68    1.20
  -3   2   8   24.39    1.24
  -3   2   8   22.74    1.20
   2  -2  -8   40.00    1.54
   2  -2  -8   39.17    1.59
   2  -2  -8   41.65    1.55
  -2   2   8   38.47    1.52
  -2   2   8   40.89    1.62
   1  -2  -8    1.49    0.37
   1  -2  -8    0.62    0.29
   1  -2  -8    1.90    0.45
  -1   2   8    1.42    0.41
  -1   2   8    1.34    0.35
  -1   2   8    1.11    0.31
   0  -2  -8   65.42    1.67
   0  -2  -8   60.78    1.92
   0  -2  -8   64.74    2.04
   0   2   8   58.72    1.99
   0   2   8   63.87    1.95
  -1  -2  -8   38.36    1.24
  -1  -2  -8   39.78    1.37
  -1  -2  -8   37.72    1.27
  -1  -2  -8   42.38    1.49
   1   2   8   42.68    1.43
   1   2   8   38.72    1.45
  -2  -2  -8  111.60    2.92
  -2  -2  -8  119.47    2.98
  -2  -2  -8  116.58    2.75
  -2  -2  -8  114.15    3.04
   2   2   8  115.96    2.98
   2   2   8  113.29    3.06
  -3  -2  -8   73.66    1.79
  -3  -2  -8   73.70    2.11
  -3  -2  -8   76.71    2.26
   3   2   8   72.16    2.12
   3   2   8   73.45    2.09
  -4  -2  -8  279.43    6.37
   4   2   8  281.37    6.29
   4   2   8  280.34    6.45
   4   2   8  289.73    6.32
  -5  -2  -8  111.57    2.58
  -5  -2  -8  109.30    2.58
   5   2   8  109.01    2.76
   5   2   8  110.83    3.07
   6   2   8   81.23    2.14
   7   2   8   40.85    1.28
   8   2   8   34.48    1.09
   8   2   8   33.98    1.10
   5  -3  -8    0.23    0.37
  -5   3   8    0.68    0.42
  -5   3   8    0.45    0.39
   4  -3  -8    0.07    0.35
   4  -3  -8    0.05    0.42
  -4   3   8    1.11    0.44
  -4   3   8    0.26    0.37
   3  -3  -8    2.44    0.56
   3  -3  -8    3.59    0.59
   3  -3  -8    3.27    0.56
  -3   3   8    3.37    0.60
  -3   3   8    2.18    0.31
  -3   3   8    2.90    0.54
   2  -3  -8    0.01    0.29
   2  -3  -8    0.55    0.38
   2  -3  -8    0.30    0.32
  -2   3   8   -0.19    0.27
  -2   3   8   -0.14    0.25
  -2   3   8    0.20    0.16
   1  -3  -8   12.42    0.86
   1  -3  -8   13.51    0.93
   1  -3  -8   12.77    0.87
  -1   3   8   12.60    0.85
  -1   3   8   13.99    0.84
  -1   3   8   14.07    0.94
   0  -3  -8    2.04    0.45
   0  -3  -8    0.85    0.35
   0  -3  -8    2.99    0.49
   0   3   8    0.99    0.36
   0   3   8    1.19    0.34
   0   3   8    2.73    0.48
  -1  -3  -8   23.82    1.14
  -1  -3  -8   25.11    1.09
  -1  -3  -8   25.42    1.03
   1   3   8   23.82    1.08
   1   3   8   25.77    1.16
   1   3   8   25.08    1.10
   1   3   8   25.51    1.03
  -2  -3  -8    3.23    0.48
  -2  -3  -8    1.99    0.31
  -2  -3  -8    1.93    0.40
  -2  -3  -8    1.90    0.32
   2   3   8    1.62    0.35
   2   3   8    2.29    0.42
   2   3   8    1.92    0.32
   2   3   8    1.70    0.38
  -3  -3  -8  126.26    2.91
  -3  -3  -8  126.83    3.42
  -3  -3  -8  126.73    3.28
   3   3   8  129.28    3.32
   3   3   8  130.32    3.24
   3   3   8  121.97    3.20
  -4  -3  -8   18.62    1.07
  -4  -3  -8   17.54    0.82
  -4  -3  -8   17.33    0.55
   4   3   8   16.21    0.83
   4   3   8   17.83    0.86
   4   3   8   17.74    0.85
  -5  -3  -8   98.27    2.43
  -5  -3  -8  101.46    2.48
  -5  -3  -8   98.10    3.10
   5   3   8  100.08    2.58
   5   3   8   98.41    2.58
   6   3   8   14.01    0.71
   6   3   8   14.09    0.71
   7   3   8   61.96    1.74
   8   3   8   41.17    1.25
   5  -4  -8   15.06    1.18
  -5   4   8   14.67    1.24
  -5   4   8   14.80    1.17
   4  -4  -8   -0.08    0.34
   4  -4  -8    0.39    0.47
  -4   4   8    0.42    0.37
  -4   4   8    0.26    0.40
   3  -4  -8   30.19    1.60
   3  -4  -8   29.84    1.45
  -3   4   8   31.07    1.55
  -3   4   8   31.62    1.15
  -3   4   8   29.51    1.51
   2  -4  -8    8.22    0.85
   2  -4  -8    6.76    0.81
  -2   4   8    8.91    0.91
  -2   4   8    6.89    0.52
  -2   4   8    8.81    0.94
   1  -4  -8    0.84    0.38
   1  -4  -8    0.97    0.36
   1  -4  -8    1.50    0.49
  -1   4   8    1.51    0.34
  -1   4   8    1.24    0.47
  -1   4   8    0.89    0.36
   0  -4  -8   32.21    1.46
   0  -4  -8   33.11    1.37
   0  -4  -8   34.43    1.40
   0   4   8   33.51    1.48
   0   4   8   31.56    1.33
   0   4   8   30.23    1.34
   0   4   8   32.61    1.36
  -1  -4  -8   24.15    1.24
  -1  -4  -8   27.60    1.19
   1   4   8   26.12    1.18
   1   4   8   25.51    1.24
   1   4   8   26.56    1.14
   1   4   8   29.16    1.24
  -2  -4  -8   39.47    1.42
  -2  -4  -8   40.20    1.54
  -2  -4  -8   37.02    1.51
   2   4   8   40.40    1.54
   2   4   8   38.84    1.34
   2   4   8   40.67    1.48
   2   4   8   40.63    1.50
  -3  -4  -8   36.47    1.16
  -3  -4  -8   37.49    1.53
  -3  -4  -8   33.95    1.36
   3   4   8   36.77    1.19
   3   4   8   36.30    1.41
   3   4   8   34.66    1.35
   3   4   8   34.67    1.36
  -4  -4  -8  111.05    2.58
  -4  -4  -8  111.39    3.30
  -4  -4  -8  109.31    2.97
   4   4   8  111.41    2.59
   4   4   8  114.21    3.05
   4   4   8  110.10    2.95
   4   4   8  115.72    2.98
  -5  -4  -8   19.75    0.87
  -5  -4  -8   19.64    1.26
   5   4   8   19.28    0.94
   5   4   8   19.49    0.94
  -6  -4  -8   10.87    0.47
  -6  -4  -8   10.59    1.13
   6   4   8   10.53    0.68
   6   4   8   11.78    0.71
   7   4   8   10.25    0.65
   7   4   8   10.36    0.65
   8   4   8   26.65    1.04
   8   4   8   29.82    1.09
  -4   5   8   13.88    1.18
  -4   5   8   13.25    1.15
   3  -5  -8    3.19    0.72
  -3   5   8    3.79    0.76
  -3   5   8    2.34    0.61
   2  -5  -8   26.56    1.51
   2  -5  -8   27.79    1.43
  -2   5   8   25.35    1.48
  -2   5   8   26.30    1.43
  -2   5   8   26.01    1.13
   1  -5  -8   12.86    0.98
   1  -5  -8   14.96    1.13
  -1   5   8   13.98    1.00
  -1   5   8   15.19    1.12
   0  -5  -8    1.21    0.46
   0  -5  -8    0.80    0.36
   0   5   8    0.97    0.37
   0   5   8    0.61    0.37
   0   5   8    1.00    0.45
  -1  -5  -8   51.74    1.81
  -1  -5  -8   47.95    1.93
   1   5   8   48.51    1.75
   1   5   8   52.54    1.86
   1   5   8   52.73    1.87
   1   5   8   49.28    1.95
  -2  -5  -8    1.40    0.50
  -2  -5  -8    1.35    0.46
  -2  -5  -8    1.35    0.36
   2   5   8    1.59    0.39
   2   5   8    1.29    0.44
   2   5   8    0.78    0.33
   2   5   8    1.39    0.42
  -3  -5  -8   87.65    2.79
  -3  -5  -8   88.78    2.67
   3   5   8   87.50    2.38
   3   5   8   88.24    2.70
   3   5   8   86.38    2.60
   3   5   8   86.41    2.60
  -4  -5  -8   99.17    2.47
  -4  -5  -8   93.89    2.79
  -4  -5  -8   98.82    3.10
   4   5   8   98.53    2.48
   4   5   8   99.31    2.88
   4   5   8   95.58    2.78
   4   5   8   98.54    2.80
  -5  -5  -8   92.02    3.08
  -5  -5  -8   92.45    2.62
   5   5   8   92.99    2.23
   5   5   8   95.23    2.68
   5   5   8   92.91    2.67
  -6  -5  -8   21.42    1.42
  -6  -5  -8   22.73    0.92
   6   5   8   22.27    1.06
   6   5   8   22.43    1.07
  -7  -5  -8   31.93    1.89
   7   5   8   34.69    1.33
   7   5   8   31.51    1.29
   3  -6  -8    1.73    0.72
  -3   6   8    2.03    0.62
  -3   6   8    1.35    0.60
   2  -6  -8    0.67    0.54
  -2   6   8    0.11    0.33
  -2   6   8    0.48    0.46
  -2   6   8    0.79    0.48
   1  -6  -8   25.36    1.54
  -1   6   8   22.47    1.36
  -1   6   8   26.70    1.55
   0  -6  -8    1.11    0.50
   0   6   8    0.76    0.50
   0   6   8    1.13    0.44
  -1  -6  -8    7.27    0.89
   1   6   8   10.25    0.85
   1   6   8   10.43    1.09
  -2  -6  -8    6.38    0.83
   2   6   8    7.11    0.76
   2   6   8    4.79    0.69
   2   6   8    7.07    0.82
  -3  -6  -8    1.95    0.51
  -3  -6  -8    1.56    0.55
   3   6   8    1.54    0.39
   3   6   8    1.90    0.49
   3   6   8    1.10    0.46
  -4  -6  -8   85.28    2.71
  -4  -6  -8   88.89    3.01
   4   6   8   82.33    2.67
   4   6   8   87.85    2.41
   4   6   8   88.11    2.79
   4   6   8   87.12    2.67
  -5  -6  -8   12.92    1.12
  -5  -6  -8   13.58    0.92
   5   6   8   14.95    0.75
   5   6   8   14.38    0.95
   5   6   8   14.50    0.97
  -6  -6  -8   31.24    1.26
  -6  -6  -8   29.19    1.70
   6   6   8   30.22    1.37
   6   6   8   30.46    1.38
  -7  -6  -8   32.85    1.94
  -7  -6  -8   31.24    1.07
   7   6   8   30.72    1.38
   7   6   8   29.65    1.35
   2  -7  -8    5.07    0.97
  -2   7   8    4.13    0.84
  -2   7   8    5.21    0.90
   1  -7  -8   -0.63    0.48
  -1   7   8    0.21    0.40
  -1   7   8    0.85    0.51
   0  -7  -8    0.87    0.56
   0   7   8    1.00    0.48
   0   7   8    0.49    0.48
  -1  -7  -8    4.63    0.84
   1   7   8    4.95    0.76
   1   7   8    3.24    0.67
  -2  -7  -8    2.90    0.61
   2   7   8    4.00    0.66
   2   7   8    3.19    0.64
  -3  -7  -8    6.63    0.97
  -3  -7  -8    7.17    0.88
   3   7   8    4.58    0.73
   3   7   8    5.55    0.82
   3   7   8    5.67    0.72
  -4  -7  -8    3.88    0.78
  -4  -7  -8    4.02    0.66
   4   7   8    4.27    0.66
   4   7   8    5.24    0.82
   4   7   8    5.77    0.67
  -5  -7  -8   21.31    1.48
  -5  -7  -8   22.12    1.26
   5   7   8   20.57    1.23
  -6  -7  -8    4.91    0.94
  -6  -7  -8    4.91    0.66
   6   7   8    5.31    0.72
   0  -8  -8    3.89    0.90
   0   8   8    3.40    0.83
   0   8   8    2.63    0.70
  -1  -8  -8    1.54    0.68
   1   8   8    1.21    0.49
   1   8   8    1.78    0.61
  -2  -8  -8   13.79    1.38
   2   8   8   12.48    1.09
   2   8   8    9.12    1.06
  -3  -8  -8    2.54    0.70
   3   8   8    2.76    0.62
   3   8   8    2.87    0.72
  -4  -8  -8   34.69    1.78
  -4  -8  -8   32.12    1.92
   4   8   8   33.21    1.54
   4   8   8   31.69    1.74
  -5  -8  -8   31.92    1.96
  -5  -8  -8   30.94    1.64
   5   8   8   30.38    1.79
   1   6  -9   15.65    1.58
  -1  -6   9   12.30    1.33
   4   5  -9    8.94    1.11
  -4  -5   9   11.27    1.28
   3   5  -9    6.05    0.99
  -3  -5   9    5.18    0.92
   2   5  -9    4.16    0.81
  -2  -5   9    2.30    0.62
   1   5  -9   12.46    1.29
  -1  -5   9   12.76    1.29
   0   5  -9    0.67    0.42
   0   5  -9    0.25    0.50
   0  -5   9    0.08    0.45
  -1   5  -9    5.78    0.96
  -1   5  -9    6.98    0.93
   1  -5   9    9.05    1.16
  -2   5  -9   -0.21    0.37
  -2   5  -9   -0.04    0.40
   2  -5   9    0.30    0.50
  -5  -4   9    2.83    0.68
   4   4  -9   57.60    2.45
  -4  -4   9   59.84    2.42
   3   4  -9    0.65    0.50
  -3  -4   9    0.11    0.39
   2   4  -9    0.45    0.49
  -2  -4   9    0.14    0.41
   1   4  -9    0.36    0.48
  -1  -4   9    0.64    0.45
   0   4  -9    0.73    0.35
   0   4  -9    0.48    0.41
   0  -4   9   -0.08    0.37
  -1   4  -9   43.38    1.75
  -1   4  -9   41.21    1.94
   1  -4   9   44.34    1.98
  -2   4  -9    7.20    0.90
  -2   4  -9    9.07    0.98
  -2   4  -9    7.62    0.95
   2  -4   9    8.38    0.96
   2  -4   9    6.83    0.90
  -3   4  -9    6.16    0.86
  -3   4  -9    6.89    0.86
   3  -4   9    5.52    0.79
  -4   4  -9   -0.29    0.34
  -4   4  -9    0.39    0.39
   4  -4   9   -0.48    0.32
   6   3  -9   24.01    1.45
  -6  -3   9   20.71    1.34
   5   3  -9   51.63    2.14
   5   3  -9   54.69    2.28
  -5  -3   9   50.75    2.14
   4   3  -9   13.69    1.07
   4   3  -9   12.54    1.12
  -4  -3   9   13.56    1.09
   3   3  -9   80.68    2.67
   3   3  -9   78.31    2.78
  -3  -3   9   79.50    2.77
   2   3  -9    6.30    0.77
   2   3  -9    7.76    0.97
  -2  -3   9    7.08    0.49
  -2  -3   9    6.74    0.82
   1   3  -9   46.56    1.98
  -1  -3   9   44.75    1.92
   0   3  -9    2.70    0.61
   0   3  -9    1.94    0.41
   0  -3   9    1.48    0.53
   0  -3   9    3.05    0.53
  -1   3  -9   13.85    0.88
  -1   3  -9   13.79    1.08
   1  -3   9   15.03    1.09
   1  -3   9   15.00    1.01
  -2   3  -9   28.38    1.45
  -2   3  -9   25.25    1.27
   2  -3   9   27.88    1.44
   2  -3   9   27.49    1.37
  -3   3  -9    3.39    0.62
  -3   3  -9    3.22    0.60
  -3   3  -9    3.86    0.62
   3  -3   9    3.51    0.61
   3  -3   9    3.27    0.66
  -4   3  -9    9.87    0.83
  -4   3  -9    9.45    0.87
   4  -3   9   10.01    0.95
  -5   3  -9    5.24    0.69
   5  -3   9    5.74    0.77
   6   2  -9   16.84    1.21
  -6  -2   9   14.12    1.08
   5   2  -9    5.91    0.76
   5   2  -9    7.47    0.98
  -5  -2   9    8.24    0.97
   4   2  -9   34.09    1.58
   4   2  -9   34.69    1.69
  -4  -2   9   33.56    1.62
   3   2  -9   10.02    1.03
   3   2  -9    9.44    0.95
  -3  -2   9    7.64    0.86
   2   2  -9    1.02    0.49
   2   2  -9    0.75    0.36
  -2  -2   9    0.77    0.42
  -2  -2   9    1.64    0.45
   1   2  -9    0.70    0.44
   1   2  -9    0.49    0.31
   1   2  -9    0.77    0.26
  -1  -2   9    0.76    0.30
  -1  -2   9    0.27    0.30
  -1  -2   9    0.78    0.42
   0   2  -9  110.61    3.13
   0   2  -9  113.26    2.79
   0   2  -9  113.07    3.34
   0  -2   9  111.54    3.18
   0  -2   9  106.29    3.13
   0  -2   9  113.73    3.34
  -1   2  -9    3.67    0.61
  -1   2  -9    3.50    0.46
  -1   2  -9    3.55    0.52
   1  -2   9    4.46    0.69
   1  -2   9    3.43    0.54
   1  -2   9    3.65    0.58
  -2   2  -9   28.90    1.39
  -2   2  -9   27.63    1.23
   2  -2   9   32.71    1.38
   2  -2   9   29.72    1.33
   2  -2   9   26.19    1.36
  -3   2  -9    5.52    0.69
  -3   2  -9    5.26    0.69
  -3   2  -9    5.06    0.62
   3  -2   9    5.21    0.68
   3  -2   9    5.78    0.70
   3  -2   9    7.50    0.78
  -4   2  -9    5.64    0.64
  -4   2  -9    5.70    0.68
  -4   2  -9    5.71    0.75
   4  -2   9    6.03    0.73
   4  -2   9    5.31    0.68
  -5   2  -9   26.06    1.18
   5  -2   9   26.22    1.30
   5  -2   9   26.04    1.31
  -6   2  -9    3.98    0.47
   6  -2   9    5.02    0.70
   6  -2   9    6.58    0.75
   6   1  -9    6.08    0.86
  -6  -1   9    5.92    0.77
   5   1  -9   21.72    1.33
   5   1  -9   19.66    1.23
  -5  -1   9   19.44    1.22
   4   1  -9    0.34    0.33
   4   1  -9    0.08    0.36
  -4  -1   9    0.43    0.38
   3   1  -9   14.62    1.07
   3   1  -9   14.46    0.98
  -3  -1   9   14.82    1.02
   2   1  -9   19.26    1.06
   2   1  -9   19.16    0.60
   2   1  -9   18.81    1.16
  -2  -1   9   18.63    1.01
  -2  -1   9   18.93    1.12
   1   1  -9    0.29    0.39
   1   1  -9    0.42    0.31
   1   1  -9    0.11    0.14
  -1  -1   9    0.39    0.27
  -1  -1   9    0.53    0.27
  -1  -1   9   -0.12    0.30
   0   1  -9   -0.04    0.17
   0   1  -9    0.15    0.37
   0   1  -9   -0.19    0.13
   0  -1   9    0.13    0.14
   0  -1   9   -0.10    0.27
   0  -1   9    0.14    0.26
   0  -1   9    0.32    0.27
  -1   1  -9    0.11    0.21
  -1   1  -9    0.10    0.35
  -1   1  -9    0.13    0.21
   1  -1   9   -0.01    0.33
   1  -1   9    0.09    0.25
   1  -1   9    0.22    0.26
  -2   1  -9   13.85    0.78
  -2   1  -9   16.60    0.98
   2  -1   9   14.24    0.88
   2  -1   9   14.95    0.95
   2  -1   9   15.11    0.93
  -3   1  -9    0.70    0.35
  -3   1  -9    0.41    0.28
   3  -1   9    0.43    0.35
   3  -1   9    0.47    0.33
   3  -1   9    0.48    0.31
  -4   1  -9   12.88    0.82
  -4   1  -9   13.98    0.76
   4  -1   9   13.30    0.87
   4  -1   9   11.75    0.83
  -5   1  -9    0.47    0.26
  -5   1  -9    0.60    0.27
   5  -1   9    0.31    0.31
   5  -1   9    0.57    0.31
  -6   1  -9   27.24    0.94
   6  -1   9   26.73    1.25
   6  -1   9   31.44    1.31
   6   0  -9   25.20    1.40
  -6   0   9   22.90    1.31
   5   0  -9   31.72    1.54
  -5   0   9   33.46    1.56
   4   0  -9  117.97    3.42
   4   0  -9  106.41    3.23
  -4   0   9  109.62    3.31
   3   0  -9   11.37    0.97
   3   0  -9   12.60    0.92
  -3   0   9   11.19    0.91
   2   0  -9   11.15    0.85
   2   0  -9   12.66    0.96
  -2   0   9   13.93    0.94
  -2   0   9   12.33    0.81
   1   0  -9   12.38    0.84
   1   0  -9   12.54    0.92
  -1   0   9   12.22    0.84
  -1   0   9   12.47    0.81
  -1   0   9   13.03    0.91
   0   0  -9   44.30    1.72
   0   0   9   45.06    1.62
   0   0   9   44.62    1.62
   0   0   9   46.59    1.72
  -1   0  -9   14.51    0.94
  -1   0  -9   15.67    0.86
   1   0   9   17.26    0.97
   1   0   9   17.40    0.72
   1   0   9   15.94    0.91
  -2   0  -9    0.21    0.30
   2   0   9    0.12    0.28
   2   0   9   -0.21    0.18
   2   0   9    0.13    0.25
  -3   0  -9   29.70    1.24
   3   0   9   29.57    1.21
   3   0   9   29.69    1.23
   3   0   9   31.00    1.29
   3   0   9   30.96    1.25
  -4   0  -9    6.81    0.59
  -4   0  -9    6.31    0.47
   4   0   9    6.93    0.64
   4   0   9    7.11    0.73
   4   0   9    5.95    0.63
   4   0   9    5.81    0.60
  -5   0  -9   16.34    0.76
  -5   0  -9   17.28    0.69
   5   0   9   16.99    0.91
   5   0   9   16.04    0.89
   6   0   9    3.02    0.45
   6   0   9    2.98    0.46
   7   0   9   26.19    1.15
   7   0   9   25.61    1.14
   6  -1  -9    3.35    0.63
  -6   1   9    5.16    0.74
   5  -1  -9   39.10    1.71
  -5   1   9   37.67    1.70
   4  -1  -9   19.68    1.14
   4  -1  -9   17.60    1.16
  -4   1   9   17.56    1.12
   3  -1  -9   99.05    2.96
   3  -1  -9   99.37    2.96
   3  -1  -9  102.49    3.10
  -3   1   9  101.97    3.07
   2  -1  -9    2.37    0.51
   2  -1  -9    1.59    0.43
  -2   1   9    2.62    0.50
   1  -1  -9  123.00    3.30
   1  -1  -9  116.93    3.40
  -1   1   9  125.88    3.44
  -1   1   9  119.44    3.25
   0  -1  -9    1.07    0.38
   0  -1  -9    0.79    0.33
   0   1   9    1.21    0.34
   0   1   9    0.98    0.36
  -1  -1  -9   68.53    2.20
  -1  -1  -9   67.38    2.05
   1   1   9   69.78    1.71
   1   1   9   73.72    2.23
   1   1   9   69.50    2.12
  -2  -1  -9    8.90    0.69
  -2  -1  -9    7.60    0.51
   2   1   9    7.34    0.65
   2   1   9    7.49    0.51
   2   1   9    7.57    0.64
  -3  -1  -9    1.59    0.38
  -3  -1  -9    0.90    0.25
   3   1   9    0.74    0.29
   3   1   9    1.37    0.34
   3   1   9    1.66    0.35
  -4  -1  -9   16.18    0.81
  -4  -1  -9   14.61    0.58
   4   1   9   14.22    0.81
   4   1   9   13.66    0.87
   4   1   9   14.32    0.80
  -5  -1  -9    6.11    0.44
   5   1   9    5.12    0.53
   6   1   9   15.12    0.82
   6   1   9   17.44    0.86
   7   1   9   25.91    1.08
   7   1   9   26.72    1.08
   5  -2  -9    9.48    0.96
  -5   2   9   10.90    0.96
   4  -2  -9   19.11    1.25
   4  -2  -9   19.21    1.17
  -4   2   9   17.35    1.14
   3  -2  -9    1.09    0.39
   3  -2  -9    2.28    0.51
   3  -2  -9    1.98    0.52
  -3   2   9    1.95    0.50
   2  -2  -9    6.27    0.69
   2  -2  -9    6.03    0.76
  -2   2   9    6.48    0.81
   1  -2  -9    9.52    0.76
   1  -2  -9   10.64    0.86
   1  -2  -9    9.27    0.76
  -1   2   9   10.89    0.86
  -1   2   9    8.24    0.70
   0  -2  -9   73.35    1.88
   0  -2  -9   74.81    2.36
   0  -2  -9   73.66    2.23
   0   2   9   73.46    1.59
   0   2   9   72.46    2.24
   0   2   9   75.49    2.37
  -1  -2  -9    0.14    0.24
  -1  -2  -9    0.24    0.22
  -1  -2  -9   -0.08    0.26
   1   2   9    0.21    0.27
   1   2   9    0.05    0.12
   1   2   9    0.11    0.24
  -2  -2  -9   80.00    2.08
  -2  -2  -9   76.88    2.35
  -2  -2  -9   76.98    2.21
   2   2   9   77.84    2.36
   2   2   9   79.29    2.02
   2   2   9   82.47    2.32
  -3  -2  -9   19.85    0.75
  -3  -2  -9   19.82    0.97
   3   2   9   18.93    0.88
   3   2   9   19.91    0.98
   3   2   9   19.29    0.95
  -4  -2  -9    3.57    0.46
  -4  -2  -9    3.53    0.28
   4   2   9    2.84    0.44
   4   2   9    5.08    0.58
   4   2   9    4.21    0.52
  -5  -2  -9   11.17    0.58
   5   2   9   10.62    0.68
   6   2   9    2.12    0.37
   7   2   9   34.65    1.23
   5  -3  -9   23.41    1.40
  -5   3   9   23.38    1.37
   4  -3  -9   21.50    1.36
   4  -3  -9   19.19    1.22
  -4   3   9   18.70    1.25
  -4   3   9   20.33    1.28
   3  -3  -9   55.11    2.09
   3  -3  -9   57.36    2.19
  -3   3   9   60.42    2.24
  -3   3   9   55.56    2.09
   2  -3  -9    0.71    0.39
   2  -3  -9    1.68    0.50
   2  -3  -9    1.47    0.43
  -2   3   9    1.07    0.40
  -2   3   9    1.36    0.45
  -2   3   9    1.06    0.18
   1  -3  -9    5.90    0.68
   1  -3  -9    5.54    0.70
  -1   3   9    4.41    0.31
  -1   3   9    5.33    0.64
  -1   3   9    6.13    0.72
  -1   3   9    5.34    0.63
   0  -3  -9    1.61    0.42
   0  -3  -9    1.16    0.36
   0  -3  -9    1.22    0.39
   0   3   9    1.17    0.38
   0   3   9    1.33    0.38
   0   3   9    1.06    0.35
  -1  -3  -9   40.72    1.39
  -1  -3  -9   40.55    1.59
  -1  -3  -9   38.95    1.46
   1   3   9   40.53    1.41
   1   3   9   41.19    1.53
   1   3   9   39.78    1.58
  -2  -3  -9    2.14    0.35
  -2  -3  -9    2.20    0.43
  -2  -3  -9    2.49    0.49
   2   3   9    2.29    0.48
   2   3   9    3.04    0.49
   2   3   9    2.27    0.42
  -3  -3  -9   27.12    0.94
  -3  -3  -9   28.35    1.21
  -3  -3  -9   27.28    1.24
   3   3   9   27.46    1.16
   3   3   9   28.73    1.18
   3   3   9   26.06    1.15
  -4  -3  -9    6.68    0.58
  -4  -3  -9    7.35    0.82
  -4  -3  -9    7.11    0.37
   4   3   9    6.42    0.61
   4   3   9    6.69    0.63
   4   3   9    7.05    0.61
  -5  -3  -9    1.62    0.31
   5   3   9    1.37    0.34
   5   3   9    1.10    0.32
   6   3   9    8.88    0.63
   7   3   9   14.71    0.77
   4  -4  -9   34.04    1.79
   4  -4  -9   32.76    1.68
  -4   4   9   33.13    1.72
  -4   4   9   33.52    1.73
   3  -4  -9   27.40    1.55
   3  -4  -9   26.74    1.43
  -3   4   9   25.19    1.43
  -3   4   9   25.55    1.40
   2  -4  -9   50.62    2.06
   2  -4  -9   49.29    1.94
  -2   4   9   50.07    1.96
  -2   4   9   50.18    2.04
  -2   4   9   49.26    1.43
   1  -4  -9    6.69    0.84
   1  -4  -9    8.47    0.82
  -1   4   9    6.37    0.73
  -1   4   9    6.57    0.81
   0  -4  -9  120.20    3.40
   0  -4  -9  120.95    3.40
   0  -4  -9  129.45    3.61
   0   4   9  124.62    3.41
   0   4   9  123.10    3.59
   0   4   9  121.66    3.40
   0   4   9  126.78    3.36
  -1  -4  -9    2.44    0.46
  -1  -4  -9    1.79    0.46
  -1  -4  -9    2.96    0.50
   1   4   9    1.97    0.44
   1   4   9    1.88    0.42
   1   4   9    2.54    0.46
   1   4   9    2.30    0.49
  -2  -4  -9   32.49    1.29
  -2  -4  -9   31.80    1.37
  -2  -4  -9   30.80    1.38
   2   4   9   31.18    1.20
   2   4   9   31.00    1.39
   2   4   9   31.06    1.33
   2   4   9   31.80    1.35
  -3  -4  -9    2.42    0.34
  -3  -4  -9    2.45    0.53
  -3  -4  -9    2.88    0.50
   3   4   9    2.35    0.37
   3   4   9    3.82    0.55
   3   4   9    2.04    0.43
   3   4   9    2.45    0.46
  -4  -4  -9    4.22    0.37
  -4  -4  -9    3.50    0.63
  -4  -4  -9    5.17    0.58
   4   4   9    5.23    0.61
   4   4   9    4.77    0.62
   4   4   9    5.46    0.62
  -5  -4  -9    0.32    0.25
  -5  -4  -9    1.16    0.47
   5   4   9    0.57    0.28
   5   4   9    0.97    0.33
  -6  -4  -9    2.55    0.64
  -6  -4  -9    2.99    0.33
   6   4   9    2.53    0.42
   6   4   9    2.29    0.41
   7   4   9   10.99    0.73
   7   4   9   12.89    0.76
  -4   5   9   13.49    1.33
  -4   5   9   17.01    1.22
   3  -5  -9   53.88    2.35
  -3   5   9   55.17    2.27
  -3   5   9   55.67    2.32
   2  -5  -9    0.25    0.50
  -2   5   9    1.07    0.31
  -2   5   9    2.12    0.59
  -2   5   9    1.27    0.54
   1  -5  -9   28.86    1.56
  -1   5   9   28.12    1.56
  -1   5   9   31.10    1.48
   0  -5  -9   12.95    1.07
   0   5   9   11.45    0.91
   0   5   9   11.92    1.03
  -1  -5  -9   37.45    1.67
   1   5   9   35.38    1.62
   1   5   9   35.71    1.54
   1   5   9   34.58    1.46
  -2  -5  -9    3.69    0.64
  -2  -5  -9    3.48    0.63
   2   5   9    2.73    0.49
   2   5   9    3.16    0.49
   2   5   9    4.02    0.65
   2   5   9    2.93    0.53
  -3  -5  -9   16.27    1.08
  -3  -5  -9   17.08    1.06
   3   5   9   17.16    0.88
   3   5   9   18.00    1.03
   3   5   9   17.97    1.07
   3   5   9   15.81    1.00
  -4  -5  -9   21.26    1.24
  -4  -5  -9   19.25    1.07
   4   5   9   18.85    1.05
   4   5   9   20.22    1.08
   4   5   9   20.82    1.11
   4   5   9   20.95    0.87
  -5  -5  -9    2.36    0.44
  -5  -5  -9    3.12    0.69
   5   5   9    2.68    0.47
   5   5   9    2.85    0.47
  -6  -5  -9    7.04    1.01
  -6  -5  -9    6.10    0.53
   6   5   9    6.78    0.70
   6   5   9    7.91    0.75
  -7  -5  -9    4.44    0.86
   7   5   9    5.18    0.60
   7   5   9    5.67    0.62
   3  -6  -9    2.91    0.79
  -3   6   9    2.10    0.65
  -3   6   9    2.08    0.75
   2  -6  -9   18.98    1.48
  -2   6   9   17.58    1.40
  -2   6   9   18.41    1.32
   1  -6  -9    3.68    0.81
  -1   6   9    5.52    0.89
  -1   6   9    3.23    0.66
   0  -6  -9   30.66    1.68
   0   6   9   32.80    1.56
   0   6   9   32.88    1.70
  -1  -6  -9   -0.08    0.41
   1   6   9   -0.22    0.33
   1   6   9    0.08    0.33
  -2  -6  -9   28.29    1.49
   2   6   9   25.20    1.35
   2   6   9   28.52    1.51
   2   6   9   28.17    1.30
  -3  -6  -9    0.21    0.39
  -3  -6  -9    0.19    0.44
   3   6   9    0.11    0.28
   3   6   9    0.05    0.34
   3   6   9   -0.09    0.29
  -4  -6  -9    0.27    0.49
  -4  -6  -9    0.40    0.36
   4   6   9    0.94    0.38
   4   6   9    0.79    0.40
   4   6   9    0.99    0.34
  -5  -6  -9    5.49    0.86
  -5  -6  -9    6.65    0.74
   5   6   9    6.25    0.73
   5   6   9    7.71    0.81
  -6  -6  -9    0.91    0.34
  -6  -6  -9    0.59    0.55
   6   6   9    1.69    0.46
   6   6   9    1.06    0.39
  -7  -6  -9   30.06    1.06
  -7  -6  -9   29.60    1.88
   7   6   9   29.62    1.37
   7   6   9   28.25    1.33
   1  -7  -9    5.74    1.00
  -1   7   9    8.38    1.01
  -1   7   9    6.91    1.01
   0  -7  -9    1.45    0.69
   0   7   9    2.20    0.68
   0   7   9    2.87    0.63
  -1  -7  -9   23.74    1.55
   1   7   9   23.06    1.52
   1   7   9   24.03    1.36
  -2  -7  -9    0.56    0.51
   2   7   9    0.21    0.36
   2   7   9   -0.12    0.42
  -3  -7  -9   16.95    1.24
  -3  -7  -9   13.96    1.24
   3   7   9   13.68    1.14
   3   7   9   14.40    0.99
  -4  -7  -9    1.27    0.56
  -4  -7  -9    1.22    0.48
   4   7   9    0.45    0.41
   4   7   9    1.90    0.55
   4   7   9    0.47    0.32
  -5  -7  -9    1.75    0.51
  -5  -7  -9    2.30    0.74
   5   7   9    2.11    0.50
  -6  -7  -9    0.23    0.58
  -6  -7  -9    0.43    0.35
   6   7   9    0.29    0.35
  -1  -8  -9    4.16    0.83
   1   8   9    3.66    0.73
   1   8   9    3.94    0.77
  -2  -8  -9   10.26    1.16
   2   8   9   13.14    1.35
   2   8   9   12.30    1.05
  -3  -8  -9    1.71    0.66
  -3  -8  -9    0.50    0.50
   3   8   9    0.27    0.47
   3   8   9    1.38    0.50
  -4  -8  -9    4.32    0.94
  -4  -8  -9    4.81    0.84
   4   8   9    3.51    0.61
   3   5 -10    6.20    1.04
  -3  -5  10    8.49    1.18
   2   5 -10    8.96    1.20
  -2  -5  10    8.92    1.10
   1   5 -10   10.71    1.34
   1   5 -10    9.57    0.95
  -1  -5  10    9.76    1.16
   0   5 -10   33.77    1.95
   0  -5  10   34.86    1.93
  -1   5 -10    1.00    0.55
  -1   5 -10    1.71    0.61
   1  -5  10    1.04    0.58
   4   4 -10    1.32    0.69
  -4  -4  10    1.74    0.65
   3   4 -10   50.58    2.35
  -3  -4  10   52.84    2.31
   2   4 -10    5.85    0.90
  -2  -4  10    7.41    1.00
   1   4 -10   45.07    1.70
   1   4 -10   45.88    2.14
  -1  -4  10   45.66    2.11
   0   4 -10    2.99    0.72
   0   4 -10    3.04    0.55
   0  -4  10    2.51    0.66
  -1   4 -10    9.77    0.94
  -1   4 -10   11.02    1.20
   1  -4  10    9.09    1.06
  -2   4 -10    0.50    0.43
  -2   4 -10    0.32    0.44
   2  -4  10    0.28    0.51
  -3   4 -10    9.01    0.98
  -3   4 -10    6.65    0.89
  -5  -3  10    6.00    0.95
   4   3 -10   13.53    1.22
  -4  -3  10   12.70    1.16
   3   3 -10   12.70    1.16
  -3  -3  10   12.65    1.11
   2   3 -10   50.15    2.17
  -2  -3  10   49.80    2.14
   1   3 -10   14.74    0.82
   1   3 -10   13.35    1.17
  -1  -3  10   13.60    1.12
   0   3 -10   85.59    2.43
   0   3 -10   82.56    2.92
   0  -3  10   82.28    2.89
  -1   3 -10    5.91    0.67
  -1   3 -10    4.22    0.68
   1  -3  10    4.82    0.78
   1  -3  10    5.29    0.71
  -2   3 -10    5.76    0.83
  -2   3 -10    3.67    0.57
   2  -3  10    6.21    0.81
   2  -3  10    5.41    0.78
  -3   3 -10    1.63    0.46
  -3   3 -10    1.04    0.50
   3  -3  10    1.66    0.50
   3  -3  10    3.02    0.72
  -4   3 -10    8.71    0.90
  -4   3 -10    7.54    0.87
   4  -3  10    8.58    0.94
   5   2 -10   53.97    2.19
  -5  -2  10   50.94    2.18
   4   2 -10    9.15    0.98
   4   2 -10    7.87    0.96
  -4  -2  10    9.42    1.02
   3   2 -10   52.41    2.23
   3   2 -10   57.88    2.17
  -3  -2  10   59.02    2.28
   2   2 -10   12.31    0.61
   2   2 -10   13.62    1.13
   2   2 -10   13.42    0.99
  -2  -2  10   12.59    1.06
   1   2 -10   47.32    1.42
  -1  -2  10   49.12    2.00
   0   2 -10   34.51    1.22
   0   2 -10   31.25    1.60
   0  -2  10   36.25    1.67
   0  -2  10   33.16    1.48
  -1   2 -10   62.36    1.92
  -1   2 -10   63.56    2.32
   1  -2  10   64.34    2.34
   1  -2  10   62.44    2.19
  -2   2 -10    1.03    0.34
  -2   2 -10    2.99    0.59
   2  -2  10    1.91    0.48
   2  -2  10    1.72    0.43
  -3   2 -10   33.93    1.54
  -3   2 -10   33.04    1.46
   3  -2  10   34.28    1.53
   3  -2  10   31.59    1.54
  -4   2 -10    2.91    0.53
  -4   2 -10    2.70    0.54
   4  -2  10    3.84    0.61
  -5   2 -10    6.15    0.71
   5  -2  10    5.66    0.74
   6   1 -10    7.21    0.88
  -6  -1  10    9.01    1.01
   5   1 -10   13.32    1.07
  -5  -1  10   13.80    1.13
   4   1 -10   31.99    1.58
   4   1 -10   35.27    1.74
  -4  -1  10   36.51    1.71
   3   1 -10    9.26    0.99
   3   1 -10    9.15    0.82
  -3  -1  10   10.02    0.91
   2   1 -10   47.81    1.13
   2   1 -10   48.19    1.99
   2   1 -10   49.46    1.88
  -2  -1  10   47.49    1.94
   1   1 -10    9.78    0.46
   1   1 -10    7.10    0.81
   1   1 -10    9.65    0.81
  -1  -1  10    9.92    1.01
  -1  -1  10    9.58    0.78
  -1  -1  10   10.08    0.82
   0   1 -10  109.62    3.31
   0   1 -10  108.81    2.60
   0   1 -10  107.34    3.12
   0  -1  10  111.50    3.15
   0  -1  10  111.04    2.56
   0  -1  10  110.83    3.17
   0  -1  10  115.61    3.35
  -1   1 -10    2.35    0.36
  -1   1 -10    2.17    0.52
  -1   1 -10    2.77    0.48
   1  -1  10    3.11    0.56
   1  -1  10    2.18    0.49
   1  -1  10    2.37    0.48
  -2   1 -10   19.39    1.14
  -2   1 -10   19.28    0.94
   2  -1  10   20.32    1.12
   2  -1  10   19.39    1.08
   2  -1  10   18.49    1.12
  -3   1 -10   16.53    1.02
   3  -1  10   19.37    1.11
   3  -1  10   16.90    1.02
   3  -1  10   15.69    0.98
  -4   1 -10   56.59    1.80
  -4   1 -10   61.38    2.02
   4  -1  10   58.56    2.04
   4  -1  10   60.59    2.05
  -5   1 -10    6.66    0.66
   5  -1  10    6.05    0.70
   5  -1  10    5.74    0.67
  -6   1 -10    4.04    0.44
   6  -1  10    4.58    0.64
   6  -1  10    5.65    0.69
   6   0 -10    0.00    0.37
  -6   0  10    0.46    0.40
   5   0 -10   22.15    1.34
  -5   0  10   22.58    1.34
   4   0 -10   24.47    1.43
   4   0 -10   20.99    1.27
  -4   0  10   23.66    1.33
   3   0 -10   36.00    1.70
   3   0 -10   37.97    1.63
  -3   0  10   36.54    1.66
   2   0 -10    9.45    0.84
   2   0 -10    5.63    0.75
  -2   0  10    8.22    0.71
  -2   0  10    6.83    0.80
   1   0 -10   51.61    2.02
   1   0 -10   53.64    1.92
  -1   0  10   54.76    2.04
  -1   0  10   57.48    1.93
  -1   0  10   52.99    1.89
   0   0 -10   40.25    1.66
   0   0  10   37.85    1.53
   0   0  10   37.18    1.51
   0   0  10   37.07    1.60
  -1   0 -10   28.86    1.35
  -1   0 -10   27.17    1.19
   1   0  10   25.79    1.23
   1   0  10   28.11    1.26
   1   0  10   26.67    1.30
  -2   0 -10    4.23    0.59
   2   0  10    4.88    0.68
   2   0  10    5.01    0.64
   2   0  10    4.17    0.58
   2   0  10    4.36    0.51
  -3   0 -10   33.33    1.40
   3   0  10   32.54    1.37
   3   0  10   33.17    1.32
   3   0  10   31.74    1.41
   3   0  10   34.74    1.40
  -4   0 -10   -0.27    0.24
   4   0  10    0.40    0.29
   4   0  10    0.13    0.25
   4   0  10   -0.29    0.26
  -5   0 -10   19.38    0.90
   5   0  10   18.76    1.03
   5   0  10   17.32    0.99
  -6   0 -10   -0.03    0.16
   6   0  10   -0.11    0.29
   6   0  10   -0.07    0.26
   5  -1 -10    3.75    0.67
  -5   1  10    1.38    0.48
   4  -1 -10   69.53    2.47
   4  -1 -10   75.63    2.62
  -4   1  10   69.61    2.54
   3  -1 -10   19.14    1.23
   3  -1 -10   18.61    1.14
  -3   1  10   16.59    1.12
   2  -1 -10  105.28    3.15
   2  -1 -10  112.29    3.35
   2  -1 -10  110.05    3.20
  -2   1  10  113.47    3.33
   1  -1 -10   46.79    1.72
   1  -1 -10   45.32    1.69
   1  -1 -10   38.26    1.71
  -1   1  10   47.02    1.81
  -1   1  10   40.84    1.63
   0  -1 -10  264.92    6.23
   0  -1 -10  269.39    6.52
   0   1  10  256.77    6.25
   0   1  10  269.62    6.52
  -1  -1 -10   21.72    1.03
  -1  -1 -10   22.08    1.17
   1   1  10   22.14    0.77
   1   1  10   22.80    1.17
   1   1  10   21.53    1.10
  -2  -1 -10   41.61    1.60
   2   1  10   41.03    1.59
   2   1  10   38.46    1.27
   2   1  10   39.42    1.51
  -3  -1 -10   18.95    1.01
  -3  -1 -10   18.63    0.79
   3   1  10   17.39    0.99
   3   1  10   18.52    0.91
   3   1  10   19.23    0.99
  -4  -1 -10   26.53    0.91
   4   1  10   27.33    1.21
   4   1  10   27.57    1.20
   4   1  10   27.23    1.23
  -5  -1 -10    0.89    0.25
   5   1  10    0.38    0.27
  -6  -1 -10    5.71    0.31
   6   1  10    6.27    0.64
   6   1  10    5.43    0.60
   7   1  10    4.12    0.54
   7   1  10    3.31    0.50
   5  -2 -10   12.12    1.07
  -5   2  10   13.03    1.07
   4  -2 -10    8.82    0.96
   4  -2 -10    6.36    0.86
  -4   2  10    6.17    0.80
   3  -2 -10   30.10    1.46
   3  -2 -10   27.34    1.51
  -3   2  10   27.62    1.46
   2  -2 -10    1.71    0.48
   2  -2 -10    1.31    0.45
  -2   2  10    1.24    0.44
   1  -2 -10  108.03    2.50
   1  -2 -10  112.41    3.11
   1  -2 -10  104.61    3.06
   1  -2 -10  107.47    3.25
  -1   2  10  105.18    3.05
  -1   2  10  107.25    3.24
   0  -2 -10   44.01    1.63
   0  -2 -10   41.26    1.72
   0  -2 -10   44.76    1.23
   0   2  10   43.23    1.74
   0   2  10   43.08    1.63
  -1  -2 -10  131.41    3.59
  -1  -2 -10  129.71    3.13
  -1  -2 -10  127.22    3.38
   1   2  10  132.37    3.60
   1   2  10  122.64    3.42
   1   2  10  127.93    2.84
  -2  -2 -10    0.59    0.29
  -2  -2 -10    0.11    0.27
   2   2  10    0.47    0.30
   2   2  10    0.36    0.21
   2   2  10    0.53    0.30
  -3  -2 -10   95.79    2.73
  -3  -2 -10   93.91    2.37
   3   2  10   97.17    2.76
   3   2  10   92.48    2.68
   3   2  10   93.97    2.50
  -4  -2 -10   21.43    0.74
  -4  -2 -10   22.89    1.04
   4   2  10   21.66    1.06
   4   2  10   22.34    1.09
   4   2  10   22.03    1.06
  -5  -2 -10   34.15    1.25
   5   2  10   42.32    1.46
   6   2  10    3.25    0.47
   7   2  10   -0.08    0.25
  -5   3  10    4.35    0.79
   4  -3 -10   21.57    1.31
   4  -3 -10   19.89    1.41
  -4   3  10   22.73    1.41
   3  -3 -10   20.71    1.24
   3  -3 -10   19.67    1.33
  -3   3  10   21.11    1.28
  -3   3  10   21.47    1.35
   2  -3 -10   10.11    1.05
   2  -3 -10    7.29    0.77
  -2   3  10    8.94    0.93
  -2   3  10    7.43    0.81
   1  -3 -10   10.63    0.95
   1  -3 -10   11.53    0.90
  -1   3  10   10.75    0.85
  -1   3  10   11.68    0.97
   0  -3 -10   29.86    1.10
   0  -3 -10   29.65    1.44
   0  -3 -10   28.92    1.34
   0   3  10   29.57    1.44
   0   3  10   32.54    1.34
   0   3  10   30.28    1.35
  -1  -3 -10    2.68    0.48
  -1  -3 -10    2.07    0.49
  -1  -3 -10    2.35    0.39
   1   3  10    1.72    0.44
   1   3  10    2.21    0.42
  -2  -3 -10    3.84    0.50
  -2  -3 -10    3.75    0.58
   2   3  10    3.92    0.56
   2   3  10    3.46    0.57
  -3  -3 -10   -0.01    0.32
  -3  -3 -10    0.32    0.30
  -3  -3 -10    0.53    0.20
   3   3  10    0.38    0.32
   3   3  10   -0.02    0.26
  -4  -3 -10   55.42    1.83
  -4  -3 -10   54.32    1.44
  -4  -3 -10   54.84    2.03
   4   3  10   57.43    1.87
   4   3  10   55.67    1.88
  -5  -3 -10    1.33    0.32
   5   3  10    0.92    0.34
  -6  -3 -10    8.30    0.43
   6   3  10    7.94    0.66
   7   3  10    2.13    0.40
   4  -4 -10    3.13    0.71
  -4   4  10    3.66    0.73
  -4   4  10    4.72    0.82
   3  -4 -10   44.35    2.06
  -3   4  10   43.21    1.95
  -3   4  10   45.26    2.04
   2  -4 -10    8.39    0.94
  -2   4  10   10.61    0.94
  -2   4  10    9.37    0.99
   1  -4 -10   23.37    1.31
   1  -4 -10   27.25    1.48
  -1   4  10   26.55    1.44
  -1   4  10   26.67    1.35
   0  -4 -10   47.66    1.97
   0   4  10   50.22    1.99
   0   4  10   50.86    1.85
  -1  -4 -10   30.12    1.49
  -1  -4 -10   32.63    1.31
  -1  -4 -10   31.04    1.38
   1   4  10   32.41    1.43
   1   4  10   31.48    1.41
   1   4  10   32.25    1.52
   1   4  10   30.88    1.34
  -2  -4 -10    8.96    0.75
  -2  -4 -10    9.17    0.82
   2   4  10    9.25    0.78
   2   4  10    8.67    0.69
   2   4  10    8.34    0.82
   2   4  10    8.57    0.86
  -3  -4 -10   10.91    0.85
  -3  -4 -10   11.74    0.89
   3   4  10   11.85    0.85
   3   4  10   12.61    0.86
   3   4  10   12.93    0.71
   3   4  10   12.91    0.90
  -4  -4 -10    3.95    0.55
  -4  -4 -10    3.70    0.62
   4   4  10    4.63    0.58
   4   4  10    4.55    0.59
   4   4  10    5.74    0.67
  -5  -4 -10   19.15    0.94
  -5  -4 -10   18.67    1.26
   5   4  10   19.33    1.01
   5   4  10   16.56    0.95
  -6  -4 -10    0.34    0.22
  -6  -4 -10    0.20    0.47
   6   4  10    0.44    0.29
   6   4  10    0.20    0.28
   7   4  10    5.18    0.59
   3  -5 -10    2.72    0.78
  -3   5  10    1.72    0.55
  -3   5  10    1.18    0.52
   2  -5 -10   34.16    1.82
  -2   5  10   36.16    1.75
  -2   5  10   32.40    1.75
   1  -5 -10    0.33    0.52
  -1   5  10    1.38    0.54
  -1   5  10    0.15    0.36
   0  -5 -10  128.66    3.87
   0   5  10  121.47    3.55
   0   5  10  131.37    3.88
  -1  -5 -10   49.66    2.00
   1   5  10   44.95    1.94
   1   5  10   45.20    1.82
   1   5  10   47.94    1.77
  -2  -5 -10   26.80    1.43
  -2  -5 -10   31.17    1.44
   2   5  10   29.02    1.28
   2   5  10   29.72    1.40
   2   5  10   31.17    1.51
  -3  -5 -10   17.34    1.14
  -3  -5 -10   18.28    1.13
   3   5  10   17.68    1.12
   3   5  10   16.96    1.05
   3   5  10   18.07    1.06
   3   5  10   19.78    0.95
  -4  -5 -10   42.60    1.66
  -4  -5 -10   39.46    1.80
   4   5  10   40.70    1.63
   4   5  10   43.84    1.68
   4   5  10   40.47    1.68
   4   5  10   41.73    1.36
  -5  -5 -10    5.60    0.82
  -5  -5 -10    7.30    0.66
   5   5  10    6.74    0.71
   5   5  10    7.17    0.74
  -6  -5 -10    5.02    0.54
  -6  -5 -10    6.87    0.96
   6   5  10    5.38    0.65
   6   5  10    6.33    0.70
  -7  -5 -10    0.35    0.58
   7   5  10    0.08    0.25
   7   5  10   -0.10    0.25
   2  -6 -10    0.66    0.64
  -2   6  10    0.56    0.50
  -2   6  10    0.75    0.55
   1  -6 -10    5.53    0.93
  -1   6  10    4.60    0.86
  -1   6  10    5.45    0.82
   0  -6 -10    0.03    0.47
   0   6  10    0.13    0.36
   0   6  10    0.14    0.48
  -1  -6 -10   44.42    2.00
   1   6  10   43.45    1.78
   1   6  10   42.06    1.95
  -2  -6 -10    0.35    0.46
  -2  -6 -10    0.66    0.49
   2   6  10   -0.28    0.23
   2   6  10   -0.12    0.29
   2   6  10    0.17    0.31
  -3  -6 -10   43.29    1.94
  -3  -6 -10   45.17    1.92
   3   6  10   44.06    1.90
   3   6  10   42.74    1.81
   3   6  10   46.09    1.66
  -4  -6 -10   10.76    1.12
  -4  -6 -10   13.36    1.01
   4   6  10   13.30    0.80
   4   6  10   12.27    0.96
   4   6  10   13.25    1.01
  -5  -6 -10   23.49    1.52
  -5  -6 -10   23.35    1.25
   5   6  10   25.19    1.30
  -6  -6 -10    3.61    0.77
  -6  -6 -10    2.43    0.46
   6   6  10    3.12    0.58
   1  -7 -10    1.48    0.76
  -1   7  10    1.67    0.68
  -1   7  10    0.97    0.50
   0  -7 -10   14.97    1.44
   0   7  10   12.45    1.32
   0   7  10   15.73    1.19
  -1  -7 -10    6.43    1.00
   1   7  10    5.25    0.92
   1   7  10    5.80    0.83
  -2  -7 -10    2.20    0.70
   2   7  10    2.44    0.57
   2   7  10    2.42    0.69
  -3  -7 -10    2.63    0.64
  -3  -7 -10    2.73    0.72
   3   7  10    2.27    0.51
   3   7  10    1.60    0.53
  -4  -7 -10   13.47    1.12
  -4  -7 -10   12.69    1.32
   4   7  10   14.01    0.91
   4   7  10   13.11    1.05
   4   7  10   13.06    1.12
  -5  -7 -10    8.32    1.13
  -5  -7 -10    9.70    0.99
   5   7  10    8.79    0.99
  -6  -7 -10   21.05    1.21
  -6  -7 -10   26.30    1.69
   6   7  10   21.41    1.28
  -2  -8 -10    7.44    1.17
   2   8  10    5.82    0.86
   2   8  10    7.88    1.17
  -3  -8 -10   15.14    1.37
  -3  -8 -10   15.61    1.53
   3   8  10   13.97    1.27
   3   8  10   14.66    1.10
  -4  -8 -10   13.26    1.43
  -4  -8 -10   11.56    1.22
   4   8  10   12.09    0.98
   3   4 -11    2.06    0.77
  -3  -4  11    0.69    0.53
   2   4 -11   29.78    1.83
  -2  -4  11   29.18    1.77
   1   4 -11    9.56    1.12
  -1  -4  11   11.21    1.21
   0   4 -11   29.66    1.39
   0   4 -11   29.99    1.77
   0  -4  11   29.55    1.75
  -1   4 -11    8.52    1.12
  -1   4 -11    8.25    0.85
   1  -4  11    9.27    1.17
  -2   4 -11   25.22    1.49
  -2   4 -11   25.57    1.63
   2  -4  11   26.95    1.66
   4   3 -11   38.30    2.00
  -4  -3  11   38.22    1.97
   3   3 -11    2.10    0.67
  -3  -3  11    1.86    0.61
   2   3 -11    8.82    1.04
  -2  -3  11   13.14    1.30
   1   3 -11   57.78    2.41
   1   3 -11   53.66    1.75
  -1  -3  11   58.90    2.40
   0   3 -11   14.25    0.87
   0   3 -11   14.34    1.27
   0  -3  11   16.04    1.27
  -1   3 -11   52.69    2.21
  -1   3 -11   47.88    1.77
   1  -3  11   47.15    2.12
  -2   3 -11   13.03    1.13
  -2   3 -11   13.41    0.95
   2  -3  11   12.57    1.11
  -3   3 -11   30.64    1.52
  -3   3 -11   32.65    1.67
   3  -3  11   32.98    1.64
  -4   3 -11   11.50    1.04
  -4   3 -11   11.80    0.96
   4  -3  11   14.01    1.12
  -5  -2  11    0.76    0.54
   4   2 -11    0.17    0.48
  -4  -2  11   -0.12    0.40
   3   2 -11    3.76    0.72
  -3  -2  11    5.14    0.84
   2   2 -11   15.23    1.24
  -2  -2  11   16.30    1.23
   1   2 -11    0.12    0.18
  -1  -2  11    0.42    0.40
   0   2 -11   62.78    2.45
   0   2 -11   66.09    1.90
   0  -2  11   67.31    2.50
  -1   2 -11    5.82    0.62
  -1   2 -11    5.42    0.83
   1  -2  11    4.99    0.77
   1  -2  11    5.59    0.75
  -2   2 -11   62.48    2.34
  -2   2 -11   60.14    2.03
   2  -2  11   62.24    2.24
   2  -2  11   64.49    2.39
  -3   2 -11   21.17    1.26
  -3   2 -11   20.50    1.17
   3  -2  11   21.41    1.31
   3  -2  11   21.96    1.27
  -4   2 -11   30.56    1.37
  -4   2 -11   30.89    1.51
   4  -2  11   31.04    1.55
  -5   2 -11    1.54    0.46
   5  -2  11    1.49    0.47
  -5  -1  11    0.33    0.44
   4   1 -11   -0.10    0.45
  -4  -1  11    0.47    0.44
   3   1 -11    3.77    0.72
  -3  -1  11    4.01    0.69
   2   1 -11   22.64    1.41
  -2  -1  11   24.34    1.40
   1   1 -11   21.25    0.70
   1   1 -11   20.55    1.32
  -1  -1  11   21.21    1.29
   0   1 -11   13.52    1.10
   0   1 -11   14.44    0.65
   0  -1  11   13.40    1.07
   0  -1  11   14.52    0.98
  -1   1 -11   28.53    1.09
  -1   1 -11   32.41    1.59
   1  -1  11   27.45    1.46
   1  -1  11   27.02    1.35
  -2   1 -11   -0.15    0.31
   2  -1  11   -0.26    0.29
   2  -1  11    0.77    0.38
  -3   1 -11   67.11    2.35
   3  -1  11   67.33    2.34
   3  -1  11   69.64    2.32
   3  -1  11   67.52    2.38
  -4   1 -11    6.75    0.74
  -4   1 -11    8.09    0.67
   4  -1  11    8.05    0.81
   4  -1  11    6.28    0.76
  -5   1 -11   26.46    1.22
   5  -1  11   25.07    1.32
  -5   0  11   22.46    1.42
   4   0 -11    1.81    0.65
   4   0 -11    0.36    0.41
  -4   0  11    0.83    0.44
   3   0 -11   11.81    0.99
   3   0 -11   13.13    1.24
  -3   0  11   11.19    1.12
   2   0 -11   16.08    1.08
   2   0 -11   17.36    1.23
  -2   0  11   17.67    1.19
   1   0 -11   11.18    0.85
   1   0 -11    8.60    0.91
  -1   0  11   10.41    0.94
  -1   0  11   11.84    0.88
   0   0 -11   46.43    1.93
   0   0 -11   46.25    1.76
   0   0  11   47.86    1.93
   0   0  11   49.86    1.83
   0   0  11   47.63    1.93
  -1   0 -11    7.29    0.79
  -1   0 -11    9.12    0.80
   1   0  11   10.83    1.04
   1   0  11    9.10    0.79
   1   0  11    6.93    0.72
  -2   0 -11    0.15    0.33
   2   0  11   -0.12    0.26
   2   0  11   -0.27    0.31
   2   0  11    0.12    0.32
  -3   0 -11   13.42    0.94
   3   0  11   13.71    0.86
   3   0  11   14.07    0.97
   3   0  11   14.25    0.94
   3   0  11   12.23    0.89
  -4   0 -11   24.78    1.21
   4   0  11   23.93    1.21
   4   0  11   25.00    1.23
  -5   0 -11    0.49    0.27
   5   0  11    0.25    0.30
   5   0  11   -0.19    0.24
  -6   0 -11   12.73    0.66
   6   0  11   11.92    0.90
   6   0  11   11.51    0.87
  -5   1  11    9.53    1.09
   4  -1 -11   18.12    1.30
   4  -1 -11   15.38    1.15
  -4   1  11   14.79    1.17
   3  -1 -11    1.82    0.60
   3  -1 -11    1.15    0.43
  -3   1  11    0.56    0.40
   2  -1 -11   13.31    0.97
   2  -1 -11   14.05    1.11
  -2   1  11   13.36    1.04
   1  -1 -11   17.84    1.19
   1  -1 -11   16.95    1.05
  -1   1  11   16.25    1.13
   0  -1 -11   -0.20    0.13
   0  -1 -11    0.07    0.38
   0   1  11    0.43    0.38
   0   1  11    0.08    0.28
  -1  -1 -11   64.73    2.12
  -1  -1 -11   65.79    2.32
   1   1  11   67.74    2.24
   1   1  11   72.88    2.39
  -2  -1 -11    0.54    0.35
   2   1  11    0.25    0.33
   2   1  11    1.09    0.28
   2   1  11    0.61    0.38
  -3  -1 -11   54.65    1.97
   3   1  11   57.24    1.81
   3   1  11   60.42    2.07
   3   1  11   57.59    1.99
  -4  -1 -11    9.28    0.73
   4   1  11   14.11    0.89
   4   1  11   14.08    0.89
  -5  -1 -11    3.13    0.45
   5   1  11    2.37    0.46
  -6  -1 -11    0.84    0.25
   6   1  11    1.29    0.39
   6   1  11    0.95    0.36
  -5   2  11    2.55    0.66
   4  -2 -11    5.45    0.85
  -4   2  11    4.78    0.79
   3  -2 -11    5.41    0.77
   3  -2 -11    4.68    0.81
  -3   2  11    6.88    0.91
   2  -2 -11   13.16    0.99
   2  -2 -11   14.83    1.16
  -2   2  11   13.12    1.06
   1  -2 -11    3.00    0.55
   1  -2 -11    4.15    0.73
   1  -2 -11    4.35    0.26
  -1   2  11    3.28    0.62
   0  -2 -11   50.30    2.02
   0  -2 -11   53.47    1.41
   0   2  11   55.28    2.07
   0   2  11   54.23    1.94
  -1  -2 -11   12.67    0.84
  -1  -2 -11   12.72    0.96
   1   2  11   12.19    0.88
   1   2  11   11.02    0.51
   1   2  11   11.29    0.91
  -2  -2 -11   27.22    1.35
   2   2  11   26.64    1.32
   2   2  11   29.10    1.31
   2   2  11   27.71    1.01
  -3  -2 -11   13.37    0.91
  -3  -2 -11   11.74    0.64
   3   2  11   10.94    0.86
   3   2  11   11.57    0.70
   3   2  11   11.51    0.84
  -4  -2 -11  122.44    3.27
   4   2  11  119.40    3.33
   4   2  11  117.94    3.16
   4   2  11  114.37    3.22
  -5  -2 -11    5.92    0.53
   5   2  11    8.22    0.71
  -6  -2 -11   17.24    0.69
   6   2  11   18.02    1.00
   7   2  11    6.42    0.67
   4  -3 -11   11.70    1.26
  -4   3  11    9.90    1.16
   3  -3 -11   -0.55    0.36
  -3   3  11   -0.01    0.41
   2  -3 -11    0.81    0.52
  -2   3  11    0.88    0.45
   1  -3 -11   11.80    1.04
  -1   3  11   10.96    1.00
   0  -3 -11    3.43    0.66
   0  -3 -11    2.94    0.40
   0   3  11    1.76    0.49
  -1  -3 -11   41.27    1.70
  -1  -3 -11   43.94    1.43
  -1  -3 -11   40.02    1.76
   1   3  11   42.27    1.68
   1   3  11   42.64    1.79
  -2  -3 -11    0.28    0.31
  -2  -3 -11    0.16    0.31
   2   3  11   -0.01    0.29
   2   3  11    0.18    0.34
  -3  -3 -11   16.08    1.00
  -3  -3 -11   16.25    0.81
  -3  -3 -11   16.52    1.02
   3   3  11   16.80    1.01
   3   3  11   16.74    1.02
  -4  -3 -11   19.88    1.06
   4   3  11   19.12    1.01
   4   3  11   20.53    1.10
   4   3  11   19.01    1.05
  -5  -3 -11   24.22    1.08
   5   3  11   23.35    1.15
  -6  -3 -11    0.75    0.23
   6   3  11    1.38    0.38
   7   3  11   24.38    1.14
   4  -4 -11    6.22    0.97
  -4   4  11    5.97    0.91
  -4   4  11    6.21    0.93
   3  -4 -11    3.28    0.74
  -3   4  11    4.70    0.77
  -3   4  11    4.47    0.83
   2  -4 -11   12.12    1.18
  -2   4  11   11.83    1.01
  -2   4  11   11.04    1.10
   1  -4 -11   -0.34    0.38
  -1   4  11    0.47    0.38
  -1   4  11   -0.11    0.38
   0  -4 -11    9.00    0.69
   0  -4 -11    6.70    0.81
   0   4  11    8.14    0.83
  -1  -4 -11    5.09    0.70
  -1  -4 -11    6.93    0.71
   1   4  11    6.73    0.75
   1   4  11    6.63    0.83
  -2  -4 -11    1.34    0.46
  -2  -4 -11    0.47    0.36
   2   4  11    0.45    0.34
   2   4  11    1.30    0.35
   2   4  11    1.00    0.43
  -3  -4 -11    1.65    0.47
  -3  -4 -11    1.26    0.43
   3   4  11    1.01    0.41
   3   4  11    1.42    0.43
   3   4  11    1.27    0.23
  -4  -4 -11   29.76    1.48
  -4  -4 -11   31.13    1.37
   4   4  11   31.02    1.40
   4   4  11   28.98    1.35
   4   4  11   30.78    1.38
  -5  -4 -11    2.39    0.61
  -5  -4 -11    1.77    0.40
   5   4  11    1.96    0.44
  -6  -4 -11    1.05    0.31
   6   4  11    0.77    0.35
   7   4  11   10.39    0.78
   3  -5 -11    2.12    0.79
  -3   5  11    1.91    0.62
  -3   5  11    2.00    0.66
   2  -5 -11    1.66    0.63
  -2   5  11    1.28    0.55
  -2   5  11    1.34    0.54
   1  -5 -11   18.14    1.36
  -1   5  11   16.28    1.18
  -1   5  11   15.61    1.26
   0  -5 -11   10.70    1.11
   0   5  11   12.35    1.10
   0   5  11   10.57    0.93
  -1  -5 -11   52.04    2.17
  -1  -5 -11   58.45    2.04
   1   5  11   55.84    2.02
   1   5  11   52.82    2.19
  -2  -5 -11    4.41    0.73
  -2  -5 -11    3.76    0.65
   2   5  11    3.31    0.59
   2   5  11    3.18    0.54
   2   5  11    5.18    0.81
  -3  -5 -11   21.22    1.25
  -3  -5 -11   23.46    1.31
   3   5  11   24.23    1.27
   3   5  11   23.86    1.10
   3   5  11   24.71    1.34
  -4  -5 -11   26.38    1.44
  -4  -5 -11   24.63    1.29
   4   5  11   26.40    1.31
   4   5  11   24.70    1.33
  -5  -5 -11   42.11    1.66
  -5  -5 -11   41.98    1.94
   5   5  11   43.31    1.72
   5   5  11   45.29    1.75
  -6  -5 -11    4.86    0.56
  -6  -5 -11    4.61    0.90
   6   5  11    4.00    0.60
   6   5  11    4.24    0.62
   7   5  11   19.87    1.09
   7   5  11   18.18    1.05
   2  -6 -11    2.64    0.82
  -2   6  11    2.31    0.63
  -2   6  11    2.23    0.68
   1  -6 -11   -0.53    0.51
  -1   6  11   -0.17    0.36
  -1   6  11   -0.11    0.47
   0  -6 -11    7.79    1.08
   0   6  11    6.87    0.99
   0   6  11    5.63    0.78
  -1  -6 -11    8.48    1.04
   1   6  11   10.11    1.15
   1   6  11    9.74    0.97
  -2  -6 -11   28.09    1.47
  -2  -6 -11   26.01    1.52
   2   6  11   23.95    1.27
   2   6  11   26.21    1.52
  -3  -6 -11   23.81    1.41
  -3  -6 -11   23.81    1.40
   3   6  11   23.24    1.32
   3   6  11   23.36    1.17
   3   6  11   21.66    1.38
  -4  -6 -11   74.88    2.71
  -4  -6 -11   71.64    2.55
   4   6  11   72.40    2.80
   4   6  11   72.87    2.51
   4   6  11   72.88    2.18
  -5  -6 -11   29.06    1.42
  -5  -6 -11   29.74    1.70
   5   6  11   29.81    1.46
  -6  -6 -11   31.92    1.40
  -6  -6 -11   33.16    1.84
   6   6  11   32.36    1.52
   0  -7 -11   -0.61    0.47
   0   7  11    0.05    0.41
   0   7  11    0.17    0.50
  -1  -7 -11   13.79    1.36
   1   7  11   14.37    1.30
   1   7  11   13.70    1.14
  -2  -7 -11    0.44    0.54
  -2  -7 -11    0.28    0.48
   2   7  11    0.11    0.43
   2   7  11    0.10    0.39
  -3  -7 -11    4.50    0.78
  -3  -7 -11    4.40    0.79
   3   7  11    3.80    0.62
   3   7  11    3.44    0.70
  -4  -7 -11    5.65    0.93
  -4  -7 -11    5.53    0.80
   4   7  11    5.51    0.68
  -5  -7 -11   23.73    1.38
  -5  -7 -11   21.40    1.54
   5   7  11   22.73    1.36
   2   4 -12    7.44    1.14
  -2  -4  12    8.05    1.15
   1   4 -12    1.49    0.73
  -1  -4  12    1.68    0.65
   0   4 -12    6.87    1.12
   0  -4  12    7.43    1.10
  -1   4 -12    4.43    0.85
   1  -4  12    4.98    0.87
   3   3 -12   40.70    2.13
  -3  -3  12   44.99    2.18
   2   3 -12    0.95    0.65
  -2  -3  12    1.60    0.67
   1   3 -12   15.08    1.38
  -1  -3  12   13.95    1.28
   0   3 -12   -0.71    0.44
   0  -3  12    1.01    0.59
  -1   3 -12    2.60    0.49
  -1   3 -12    4.58    0.88
   1  -3  12    3.85    0.82
  -2   3 -12    7.78    0.99
  -2   3 -12    7.39    0.83
   2  -3  12    6.62    0.93
  -3   3 -12    2.05    0.56
  -3   3 -12    2.07    0.62
   4   2 -12   70.78    2.85
  -4  -2  12   72.13    2.84
   3   2 -12   38.69    2.01
  -3  -2  12   34.33    1.89
   2   2 -12   23.00    1.59
  -2  -2  12   24.66    1.56
   1   2 -12   24.76    1.52
  -1  -2  12   21.91    1.48
   0   2 -12   38.81    1.36
   0   2 -12   39.08    1.92
   0  -2  12   41.58    1.96
  -1   2 -12    3.09    0.71
  -1   2 -12    2.28    0.42
   1  -2  12    2.31    0.61
  -2   2 -12   -0.04    0.26
  -2   2 -12    0.04    0.42
   2  -2  12    0.33    0.32
   2  -2  12   -0.23    0.37
  -3   2 -12   16.68    1.20
  -3   2 -12   16.82    1.09
   3  -2  12   16.82    1.18
  -4   2 -12    3.81    0.67
   4  -2  12    4.79    0.77
   4   1 -12   10.97    1.19
  -4  -1  12   15.33    1.49
   3   1 -12   17.44    1.37
  -3  -1  12   16.89    1.31
   2   1 -12    1.92    0.59
  -2  -1  12    1.02    0.51
   1   1 -12   25.73    1.51
  -1  -1  12   22.33    1.42
   0   1 -12   17.18    1.28
   0  -1  12   14.38    1.16
  -1   1 -12    0.52    0.48
   1  -1  12    0.15    0.37
   1  -1  12    0.21    0.28
  -2   1 -12    3.31    0.63
   2  -1  12    3.71    0.64
   2  -1  12    2.99    0.64
  -3   1 -12    3.32    0.67
   3  -1  12    3.22    0.56
   3  -1  12    3.58    0.65
  -4   1 -12   18.20    1.14
  -4   1 -12   17.21    0.96
   4  -1  12   16.54    1.12
  -5   1 -12   -0.20    0.30
   5  -1  12    0.81    0.41
  -5   0  12   15.81    1.29
   4   0 -12   53.41    2.39
  -4   0  12   53.64    2.31
   3   0 -12   15.27    1.28
  -3   0  12   15.89    1.23
   2   0 -12    3.21    0.68
  -2   0  12    3.36    0.70
   1   0 -12    5.34    0.83
  -1   0  12    3.37    0.63
   0   0 -12    7.47    0.91
   0   0  12    6.68    0.84
   0   0  12    8.62    0.91
  -1   0 -12    8.58    0.98
   1   0  12    7.69    0.80
   1   0  12    9.93    1.04
  -2   0 -12    0.05    0.39
   2   0  12    0.69    0.38
   2   0  12    0.53    0.36
  -3   0 -12    6.46    0.77
   3   0  12    5.99    0.73
   3   0  12    6.71    0.80
  -4   0 -12    6.03    0.73
   4   0  12    5.05    0.70
  -5   0 -12    5.10    0.61
   5   0  12    4.83    0.72
   5   0  12    4.71    0.68
  -6   0 -12    1.55    0.36
   4  -1 -12   34.91    1.89
  -4   1  12   37.72    1.89
   3  -1 -12   76.07    2.81
  -3   1  12   72.72    2.74
   2  -1 -12   28.34    1.58
  -2   1  12   25.80    1.51
   1  -1 -12   29.62    1.59
  -1   1  12   29.45    1.57
   0  -1 -12   25.88    1.43
   0   1  12   23.78    1.38
  -1  -1 -12    1.54    0.46
   1   1  12    1.49    0.48
  -2  -1 -12   10.17    0.92
   2   1  12   13.11    1.00
   2   1  12   11.94    0.67
   2   1  12   11.92    0.90
  -3  -1 -12    2.42    0.51
   3   1  12    2.19    0.49
   3   1  12    2.23    0.41
   3   1  12    3.12    0.58
   4   1  12   23.87    1.26
   4   1  12   26.90    1.25
  -5  -1 -12    1.90    0.40
   5   1  12    2.32    0.47
   5   1  12    1.82    0.42
  -6  -1 -12    7.03    0.55
   6   1  12    6.40    0.73
   6   1  12    6.29    0.72
   4  -2 -12   34.01    1.87
  -4   2  12   34.37    1.82
   3  -2 -12   22.84    1.50
  -3   2  12   18.88    1.37
   2  -2 -12   44.94    2.00
  -2   2  12   40.53    1.91
   1  -2 -12    2.38    0.57
  -1   2  12    2.62    0.61
   0  -2 -12   94.77    3.08
   0   2  12   93.06    3.05
  -1  -2 -12   11.53    0.97
   1   2  12   10.57    1.02
   1   2  12   10.56    0.49
  -2  -2 -12    0.75    0.42
   2   2  12    0.13    0.29
   2   2  12    0.07    0.34
   2   2  12    0.32    0.20
  -3  -2 -12    3.55    0.57
   3   2  12    6.15    0.68
   3   2  12    5.33    0.72
   3   2  12    6.70    0.62
  -4  -2 -12   17.31    1.02
   4   2  12   16.73    0.97
   4   2  12   14.87    0.98
  -5  -2 -12   15.96    0.91
   5   2  12   20.10    1.09
  -6  -2 -12    7.31    0.54
   6   2  12    7.05    0.74
   4  -3 -12   13.81    1.39
  -4   3  12   15.02    1.28
   3  -3 -12   30.43    1.78
  -3   3  12   31.14    1.73
   2  -3 -12    0.20    0.48
  -2   3  12    0.13    0.44
   1  -3 -12    1.53    0.55
  -1   3  12    0.72    0.42
   0  -3 -12    0.52    0.44
   0  -3 -12    0.14    0.22
   0   3  12    0.01    0.42
  -1  -3 -12    1.79    0.49
  -1  -3 -12    1.09    0.33
   1   3  12    1.56    0.50
   1   3  12    1.56    0.24
  -2  -3 -12   25.92    1.12
  -2  -3 -12   24.86    1.36
   2   3  12   24.12    0.94
   2   3  12   26.19    1.37
  -3  -3 -12   -0.01    0.28
  -3  -3 -12    0.16    0.33
   3   3  12   -0.02    0.31
   3   3  12   -0.05    0.30
   3   3  12    0.07    0.22
  -4  -3 -12   24.99    1.23
   4   3  12   22.45    1.12
   4   3  12   24.39    1.24
  -5  -3 -12    7.44    0.72
   5   3  12    7.84    0.79
  -6  -3 -12   10.56    0.66
   6   3  12   10.18    0.83
   3  -4 -12   33.95    1.90
  -3   4  12   32.65    1.85
   2  -4 -12   16.54    1.38
  -2   4  12   16.99    1.23
  -2   4  12   14.11    1.27
   1  -4 -12    2.99    0.69
  -1   4  12    3.76    0.78
  -1   4  12    3.09    0.64
   0  -4 -12    6.59    0.90
   0  -4 -12    9.10    0.68
   0   4  12    6.32    0.85
   0   4  12    6.73    0.78
  -1  -4 -12   -0.22    0.43
  -1  -4 -12   -0.30    0.26
   1   4  12   -0.22    0.32
  -2  -4 -12   12.06    0.84
  -2  -4 -12   11.02    0.99
   2   4  12   10.34    0.95
  -3  -4 -12   18.05    1.07
  -3  -4 -12   19.14    1.19
   3   4  12   18.91    1.18
  -4  -4 -12    3.09    0.57
  -4  -4 -12    4.86    0.72
   4   4  12    6.30    0.78
  -5  -4 -12    8.55    1.01
  -5  -4 -12    9.01    0.76
   5   4  12    8.43    0.83
  -6  -4 -12    2.60    0.43
   6   4  12    2.37    0.51
   2  -5 -12   21.94    1.58
  -2   5  12   20.07    1.38
  -2   5  12   18.42    1.46
   1  -5 -12   22.19    1.57
  -1   5  12   19.37    1.31
   0  -5 -12   10.15    1.11
   0   5  12    8.98    1.12
   0   5  12    8.04    0.91
  -1  -5 -12    7.77    0.93
  -1  -5 -12    7.40    0.81
   1   5  12    8.29    1.01
   1   5  12   10.01    0.96
  -2  -5 -12    1.39    0.45
  -2  -5 -12    0.42    0.41
   2   5  12    0.67    0.36
   2   5  12    0.87    0.50
  -3  -5 -12    0.17    0.38
  -3  -5 -12    0.40    0.40
   3   5  12    0.36    0.29
   3   5  12   -0.52    0.31
   3   5  12    0.20    0.29
  -4  -5 -12    5.80    0.81
  -4  -5 -12    6.38    0.77
   4   5  12    7.97    0.88
  -5  -5 -12    1.39    0.62
  -5  -5 -12    1.89    0.47
   5   5  12    2.02    0.51
  -6  -5 -12    3.82    0.76
  -6  -5 -12    3.10    0.51
   6   5  12    3.65    0.58
   1  -6 -12    0.24    0.57
  -1   6  12    0.50    0.45
  -1   6  12    1.46    0.63
   0  -6 -12   18.33    1.46
   0   6  12   15.91    1.22
   0   6  12   14.50    1.33
  -1  -6 -12    4.75    0.84
  -1  -6 -12    3.56    0.67
   1   6  12    3.75    0.67
   1   6  12    4.01    0.82
  -2  -6 -12    8.17    1.03
  -2  -6 -12    5.74    0.81
   2   6  12    6.80    0.81
   2   6  12    6.11    0.88
  -3  -6 -12    1.79    0.59
  -3  -6 -12    1.87    0.62
   3   6  12    2.03    0.48
   3   6  12    1.89    0.56
  -4  -6 -12    1.12    0.49
  -4  -6 -12    1.67    0.61
   4   6  12    1.84    0.52
  -5  -6 -12    2.47    0.56
  -5  -6 -12    4.15    0.82
   5   6  12    2.32    0.53
  -6  -6 -12    0.75    0.61
   6   6  12    1.90    0.49
  -1  -7 -12   13.33    1.35
   1   7  12   14.27    1.43
   1   7  12   13.94    1.16
  -2  -7 -12    0.08    0.52
  -2  -7 -12    0.60    0.48
   2   7  12   -0.19    0.37
   2   7  12    0.02    0.46
  -3  -7 -12    1.56    0.58
  -3  -7 -12    1.39    0.60
   3   7  12    1.84    0.59
   3   7  12    1.21    0.43
  -4  -7 -12    4.82    0.88
  -4  -7 -12    4.86    0.80
   2   3 -13   28.06    1.85
  -2  -3  13   28.57    1.82
   1   3 -13   21.79    1.65
  -1  -3  13   21.74    1.59
   0   3 -13   43.33    2.24
   0  -3  13   45.47    2.25
  -1   3 -13    4.57    0.86
   1  -3  13    5.16    0.92
  -2   3 -13    1.82    0.66
   2  -3  13    2.44    0.71
   3   2 -13   32.11    1.92
  -3  -2  13   29.26    1.81
   2   2 -13    4.72    1.00
  -2  -2  13    5.00    0.95
   1   2 -13   38.70    2.07
  -1  -2  13   39.18    2.04
   0   2 -13   35.47    1.92
   0  -2  13   37.47    1.94
  -1   2 -13   46.65    2.18
   1  -2  13   47.59    2.21
  -2   2 -13   11.12    0.83
  -2   2 -13   10.42    1.16
   2  -2  13   10.91    1.23
  -3   2 -13   29.37    1.64
   4   1 -13   19.51    1.54
  -4  -1  13   19.98    1.54
   3   1 -13   11.44    1.29
  -3  -1  13   11.16    1.20
   2   1 -13   16.46    1.39
  -2  -1  13   15.41    1.32
   1   1 -13   31.81    1.80
  -1  -1  13   34.45    1.82
   0   1 -13   93.16    3.23
   0  -1  13   90.24    3.20
  -1   1 -13    4.16    0.63
  -2   1 -13   11.14    1.12
   2  -1  13   10.79    1.08
   2  -1  13   11.23    1.17
  -3   1 -13    6.73    0.87
   3  -1  13    7.82    0.91
  -4   1 -13   12.66    1.04
   4  -1  13   12.57    1.04
   4   0 -13   16.88    1.45
  -4   0  13   13.75    1.40
   3   0 -13   22.98    1.59
  -3   0  13   21.44    1.49
   2   0 -13   11.25    1.15
  -2   0  13    9.32    1.03
   1   0 -13   17.29    1.32
  -1   0  13   16.44    1.26
   0   0 -13   41.59    1.94
   0   0  13   40.17    1.92
  -1   0 -13   13.89    1.14
   1   0  13   15.84    1.19
   1   0  13   14.25    1.16
  -2   0 -13    0.82    0.50
   2   0  13    0.89    0.36
   2   0  13    1.98    0.61
  -3   0 -13    7.22    0.86
   3   0  13    7.57    0.88
   3   0  13    7.53    0.91
  -4   0 -13    0.05    0.36
   4   0  13    0.51    0.37
  -5   0 -13    0.50    0.35
   5   0  13    0.81    0.40
   4  -1 -13   33.89    1.93
  -4   1  13   34.64    1.90
   3  -1 -13   10.98    1.19
  -3   1  13   13.51    1.21
   2  -1 -13   55.77    2.36
  -2   1  13   51.55    2.28
   1  -1 -13    9.09    1.04
  -1   1  13   11.22    1.16
   0  -1 -13   51.14    2.17
   0   1  13   52.00    2.19
  -1  -1 -13   31.95    1.65
   1   1  13   32.58    1.67
  -2  -1 -13    0.75    0.43
  -3  -1 -13    6.76    0.82
   3   1  13    7.19    0.91
   3   1  13    5.67    0.62
  -4  -1 -13    3.66    0.52
  -5  -1 -13    0.60    0.36
   5   1  13    0.43    0.35
   4  -2 -13    6.80    0.96
  -4   2  13    6.60    1.01
   3  -2 -13   19.56    1.51
  -3   2  13   20.80    1.45
   2  -2 -13   17.70    1.36
  -2   2  13   17.64    1.34
   1  -2 -13   77.62    2.79
  -1   2  13   67.57    2.66
   0  -2 -13   61.03    2.43
   0   2  13   64.45    2.46
  -1  -2 -13  157.57    4.49
   1   2  13  155.02    4.47
  -2  -2 -13    8.84    0.92
   2   2  13    9.70    0.61
   2   2  13   11.23    1.10
  -3  -2 -13   23.91    1.34
   3   2  13   25.43    1.09
   3   2  13   25.14    1.38
  -4  -2 -13   11.06    0.89
   4   2  13    9.40    0.75
  -5  -2 -13    4.58    0.51
  -6  -2 -13    0.17    0.26
   6   2  13    0.51    0.36
   3  -3 -13   20.48    1.55
  -3   3  13   17.80    1.40
   2  -3 -13   25.17    1.61
  -2   3  13   19.34    1.43
   1  -3 -13   14.37    1.26
  -1   3  13   16.19    1.26
   0  -3 -13   44.56    1.98
   0   3  13   37.48    1.88
  -1  -3 -13   82.99    2.26
  -1  -3 -13   80.56    2.86
   1   3  13   83.47    2.89
  -2  -3 -13   38.61    1.42
  -2  -3 -13   38.18    1.77
   2   3  13   37.76    1.76
  -3  -3 -13   28.44    1.45
   3   3  13   26.35    1.41
   3   3  13   25.21    1.09
  -4  -3 -13   49.91    1.92
   4   3  13   46.52    1.71
  -5  -3 -13    0.84    0.37
  -6  -3 -13    1.79    0.39
   6   3  13    0.73    0.41
   2  -4 -13   12.15    1.29
  -2   4  13   11.10    1.24
   1  -4 -13   41.28    2.06
  -1   4  13   42.25    2.06
   0  -4 -13   35.81    1.85
   0   4  13   35.80    1.84
  -1  -4 -13   37.71    1.42
  -1  -4 -13   34.59    1.80
   1   4  13   37.19    1.83
  -2  -4 -13    8.14    0.73
  -2  -4 -13    7.62    0.89
   2   4  13    9.62    1.05
  -3  -4 -13    4.73    0.70
  -3  -4 -13    3.97    0.63
   3   4  13    4.59    0.72
  -4  -4 -13    5.07    0.70
  -4  -4 -13    6.28    0.79
   4   4  13    6.80    0.72
  -5  -4 -13    6.40    0.73
  -6  -4 -13    0.84    0.36
   2  -5 -13   38.76    2.12
  -2   5  13   36.50    2.08
  -2   5  13   38.26    1.94
   1  -5 -13   45.14    2.25
  -1   5  13   44.55    2.21
  -1   5  13   43.66    1.99
   0  -5 -13   83.61    2.57
   0  -5 -13   83.57    3.10
   0   5  13   80.43    2.77
   0   5  13   85.70    3.11
  -1  -5 -13   63.22    2.52
  -1  -5 -13   59.34    2.09
   1   5  13   59.08    2.18
   1   5  13   58.43    2.43
  -2  -5 -13   39.44    1.91
  -2  -5 -13   37.88    1.63
   2   5  13   41.37    1.90
  -3  -5 -13    7.20    0.85
  -3  -5 -13    4.76    0.73
   3   5  13    7.16    0.95
  -4  -5 -13    7.31    0.85
  -4  -5 -13    8.46    1.00
  -5  -5 -13    1.01    0.42
  -5  -5 -13    0.05    0.48
   0  -6 -13   25.47    1.76
   0   6  13   25.86    1.70
   0   6  13   23.75    1.48
  -1  -6 -13   44.56    2.23
  -1  -6 -13   43.15    1.87
   1   6  13   45.72    2.20
   1   6  13   46.55    1.98
  -2  -6 -13   35.75    1.89
  -2  -6 -13   37.55    1.74
   2   6  13   37.56    1.93
   2   6  13   35.13    1.64
  -3  -6 -13   34.84    1.69
  -3  -6 -13   34.54    1.79
   3   6  13   31.44    1.75
   3   6  13   33.55    1.47
  -4  -6 -13   10.52    1.04
  -4  -6 -13   12.12    1.09
   4   6  13   11.33    1.13
  -5  -6 -13   13.75    1.23
  -5  -6 -13   15.91    1.14
   5   6  13   14.04    1.09
  -2  -7 -13   14.23    1.22
  -2  -7 -13   12.34    1.32
   2   7  13   13.99    1.13
   2   7  13   14.43    1.47
  -3  -7 -13    3.46    0.76
  -3  -7 -13    3.88    0.80
   3   7  13    4.46    0.72
   3   7  13    4.38    0.84
  -2  -2  14   11.62    1.37
   1   2 -14    2.00    0.73
  -1  -2  14    3.23    0.84
   0   2 -14   23.61    1.66
   0  -2  14   26.33    1.71
  -1   2 -14   13.70    1.40
   1  -2  14   14.64    1.34
  -2   2 -14   28.81    1.73
   2  -2  14   30.74    1.79
   3   1 -14   15.27    1.55
  -3  -1  14   16.35    1.46
   2   1 -14    3.83    0.88
  -2  -1  14    4.72    0.94
   1   1 -14   16.59    1.62
  -1  -1  14   15.88    1.56
   0   1 -14    9.67    1.11
   0  -1  14   12.38    1.31
  -1   1 -14   23.38    1.55
   1  -1  14   28.12    1.67
  -2   1 -14   16.89    1.32
   2  -1  14   15.59    1.29
  -3   1 -14   58.20    2.40
   3   0 -14    2.59    0.79
  -3   0  14    2.21    0.69
   2   0 -14   28.41    1.80
  -2   0  14   27.47    1.71
   1   0 -14   28.04    1.76
  -1   0  14   29.02    1.72
   0   0 -14   47.39    2.18
   0   0  14   43.37    2.09
  -1   0 -14   24.08    1.52
   1   0  14   23.34    1.49
  -2   0 -14   19.64    1.37
   2   0  14   17.63    1.30
  -3   0 -14   26.88    1.51
   3   0  14   25.33    1.43
  -4   0 -14   47.64    1.99
   4   0  14   44.19    1.95
   3  -1 -14    7.94    1.16
  -3   1  14   11.58    1.33
   2  -1 -14    7.01    1.04
  -2   1  14    9.84    1.16
   1  -1 -14   52.65    2.36
  -1   1  14   52.22    2.31
   0  -1 -14   18.96    1.41
   0   1  14   15.34    1.27
  -1  -1 -14   49.75    2.20
   1   1  14   55.11    2.29
  -2  -1 -14   39.18    1.88
   2   1  14   43.59    1.97
  -3  -1 -14   53.42    2.17
   3   1  14   54.49    2.14
   3   1  14   52.98    2.20
  -4  -1 -14   31.79    1.56
   4   1  14   29.27    1.53
  -5  -1 -14   14.58    1.02
   5   1  14   16.61    1.14
   3  -2 -14    0.94    0.65
  -3   2  14   -0.07    0.48
   2  -2 -14   10.15    1.24
  -2   2  14    9.07    1.11
   1  -2 -14    9.37    1.09
  -1   2  14   12.32    1.32
   0  -2 -14   29.80    1.72
   0   2  14   30.22    1.69
  -1  -2 -14   29.93    1.66
   1   2  14   30.65    1.66
  -2  -2 -14   34.45    1.73
   2   2  14   32.52    1.70
  -3  -2 -14   34.62    1.68
   3   2  14   35.44    1.74
  -4  -2 -14   77.19    2.62
  -5  -2 -14   20.18    1.12
   2  -3 -14   -0.03    0.49
  -2   3  14    0.19    0.50
   1  -3 -14   21.60    1.56
  -1   3  14   23.19    1.55
   0  -3 -14    8.58    0.99
   0   3  14    8.85    1.03
  -1  -3 -14   26.73    1.60
   1   3  14   28.45    1.60
  -2  -3 -14   16.31    1.26
   2   3  14   19.69    1.32
  -3  -3 -14   45.19    1.97
   3   3  14   45.91    1.99
  -4  -3 -14   58.10    2.22
  -5  -3 -14   39.24    1.66
   2  -4 -14    3.85    0.84
  -2   4  14    3.14    0.83
   1  -4 -14    6.26    0.97
  -1   4  14    6.26    1.01
   0  -4 -14   22.83    1.60
   0   4  14   26.07    1.64
  -1  -4 -14    8.78    1.10
   1   4  14    8.08    1.00
  -2  -4 -14   19.43    1.03
  -2  -4 -14   14.89    1.24
   2   4  14   17.64    1.30
  -3  -4 -14   19.97    1.32
  -3  -4 -14   21.24    1.16
   3   4  14   17.48    1.27
  -4  -4 -14   71.41    2.56
  -5  -4 -14    8.91    0.93
   1  -5 -14    4.24    0.93
  -1   5  14    5.41    0.94
   0  -5 -14   33.80    1.95
   0   5  14   31.92    1.89
  -1  -5 -14   19.03    1.48
   1   5  14   23.11    1.56
  -2  -5 -14   18.85    1.42
  -2  -5 -14   20.47    1.16
   2   5  14   19.95    1.43
  -3  -5 -14   25.68    1.36
  -3  -5 -14   25.72    1.55
   3   5  14   27.19    1.59
  -4  -5 -14   23.66    1.41
  -4  -5 -14   21.83    1.38
  -5  -5 -14   20.84    1.41
  -5  -5 -14   21.22    1.28
  -1  -6 -14   10.98    1.29
  -1  -6 -14   10.10    1.01
   1   6  14   11.27    1.14
  -2  -6 -14   22.31    1.58
  -2  -6 -14   25.64    1.41
   2   6  14   25.78    1.52
   2   6  14   24.07    1.35
  -3  -6 -14   28.71    1.56
  -3  -6 -14   30.40    1.73
  -4  -6 -14   47.01    2.10
  -4  -6 -14   48.09    2.14
   1   1 -15    0.17    0.56
  -1  -1  15   -0.01    0.48
   0   1 -15    2.48    0.85
   0  -1  15    1.74    0.69
  -1   1 -15    0.28    0.53
   1  -1  15    1.34    0.60
  -2   1 -15   16.62    1.38
   2  -1  15   18.10    1.43
   2   0 -15   -0.46    0.53
  -2   0  15    0.59    0.56
   1   0 -15    7.45    1.09
  -1   0  15    7.24    1.02
   0   0 -15    2.93    0.80
   0   0  15    2.67    0.69
  -1   0 -15    0.65    0.55
   1   0  15    0.19    0.49
  -2   0 -15    0.80    0.55
   2   0  15    1.11    0.56
  -3   0 -15    7.35    0.98
   2  -1 -15    0.19    0.57
  -2   1  15    2.05    0.77
   1  -1 -15   -0.31    0.52
  -1   1  15    0.32    0.47
   0  -1 -15    3.82    0.86
   0   1  15    2.11    0.69
  -1  -1 -15    0.09    0.51
   1   1  15   -0.37    0.36
  -2  -1 -15    9.21    1.07
   2   1  15    9.88    1.10
  -3  -1 -15   13.56    1.19
  -4  -1 -15   16.66    1.21
   4   1  15   15.81    1.17
   2  -2 -15    3.86    0.83
  -2   2  15    6.00    0.97
   1  -2 -15    1.98    0.76
  -1   2  15    2.25    0.75
   0  -2 -15    4.27    0.84
   0   2  15    4.86    0.84
  -1  -2 -15    0.70    0.52
   1   2  15    2.25    0.65
  -2  -2 -15    2.05    0.69
   2   2  15    1.63    0.57
  -3  -2 -15   19.08    1.34
   3   2  15   19.40    1.55
  -4  -2 -15   14.55    1.14
   1  -3 -15    3.30    0.76
  -1   3  15    4.17    0.88
   0  -3 -15    1.68    0.61
   0   3  15    1.80    0.61
  -1  -3 -15    1.55    0.69
   1   3  15    1.09    0.54
  -2  -3 -15    0.19    0.47
   2   3  15    0.61    0.48
  -3  -3 -15    0.71    0.45
   3   3  15    0.53    0.52
  -4  -3 -15   25.94    1.48
   1  -4 -15    0.44    0.63
  -1   4  15   -0.24    0.46
   0  -4 -15    1.03    0.59
   0   4  15    0.50    0.50
  -1  -4 -15    0.46    0.53
   1   4  15    0.17    0.47
  -2  -4 -15    1.73    0.61
   2   4  15    2.10    0.61
  -3  -4 -15    3.25    0.68
   3   4  15    3.46    0.74
  -4  -4 -15    9.77    1.04
  -1  -5 -15    0.64    0.58
   1   5  15   -0.32    0.44
  -2  -5 -15    1.34    0.62
   2   5  15    1.64    0.62
  -3  -5 -15    1.93    0.54
  -3  -5 -15    0.47    0.46
   3   5  15    1.94    0.62
  -1   0 -16    1.54    0.69
   1   0  16    1.20    0.61
   0  -1 -16   20.80    1.62
   0   1  16   19.51    1.53
  -1  -1 -16   -0.28    0.51
   1   1  16   -0.09    0.48
  -2  -1 -16    4.11    0.83
   2   1  16    3.15    0.74
   0  -2 -16   16.90    1.51
   0   2  16   18.96    1.51
  -1  -2 -16   19.69    1.55
   1   2  16   23.80    1.63
  -2  -2 -16   -0.15    0.45
   2   2  16    0.05    0.42
  -3  -2 -16    1.80    0.59
   0  -3 -16   18.73    1.56
   0   3  16   16.86    1.46
  -1  -3 -16    1.39    0.67
   1   3  16    1.37    0.60
  -2  -3 -16    0.25    0.57
   2   3  16    0.62    0.52
  -3  -3 -16    0.45    0.48
  -1  -4 -16    1.33    0.61
   1   4  16    1.41    0.69
  -2  -4 -16    7.30    1.03
   2   4  16    5.90    0.97
   0   0   0    0.00    0.00
;
_shelx_hkl_checksum              54229
#END Tags that were not found in dictionaries
loop_
_space_group_symop_operation_xyz
'x, y, z'
'-x, -y, -z'
loop_
_atom_site_label
_atom_site_type_symbol
_atom_site_fract_x
_atom_site_fract_y
_atom_site_fract_z
_atom_site_U_iso_or_equiv
_atom_site_adp_type
_atom_site_occupancy
_atom_site_site_symmetry_order
_atom_site_calc_flag
_atom_site_refinement_flags_posn
_atom_site_refinement_flags_adp
_atom_site_refinement_flags_occupancy
_atom_site_disorder_assembly
_atom_site_disorder_group
Mn1 Mn 0.53130(7) 0.49145(7) 0.35185(4) 0.01126(17) Uani 1 1 d . . . . .
F1 F 0.5000 0.5000 0.5000 0.0162(6) Uani 1 2 d S . P . .
F2 F 0.5899(3) 0.2288(3) 0.37817(16) 0.0217(5) Uani 1 1 d . . . . .
F3 F 0.2754(3) 0.5326(3) 0.34423(16) 0.0226(5) Uani 1 1 d . . . . .
N1 N 0.8214(4) 0.4787(4) 0.3428(2) 0.0178(7) Uani 1 1 d . . . . .
N2 N 0.6006(5) 0.5085(4) 0.1856(2) 0.0194(7) Uani 1 1 d . . . . .
N3 N 0.4984(4) 0.7888(4) 0.3046(2) 0.0167(6) Uani 1 1 d . . . . .
C9 C 0.9231(5) 0.3268(6) 0.4232(3) 0.0218(8) Uani 1 1 d . . . . .
H9A H 1.0582 0.3261 0.4168 0.033 Uiso 1 1 calc R U . . .
H9B H 0.9150 0.2008 0.4177 0.033 Uiso 1 1 calc R U . . .
H9C H 0.8637 0.3528 0.4882 0.033 Uiso 1 1 calc R U . . .
C12 C 0.4989(7) 0.3985(6) 0.1501(3) 0.0317(10) Uani 1 1 d . . . . .
H12A H 0.5476 0.3878 0.0815 0.048 Uiso 1 1 calc R U . . .
H12B H 0.3612 0.4651 0.1520 0.048 Uiso 1 1 calc R U . . .
H12C H 0.5198 0.2692 0.1932 0.048 Uiso 1 1 calc R U . . .
C13 C 0.3393(6) 0.9031(5) 0.3625(3) 0.0226(8) Uani 1 1 d . . . . .
H13A H 0.3278 1.0408 0.3371 0.034 Uiso 1 1 calc R U . . .
H13B H 0.3657 0.8670 0.4330 0.034 Uiso 1 1 calc R U . . .
H13C H 0.2191 0.8771 0.3559 0.034 Uiso 1 1 calc R U . . .
C14 C 0.4497(9) 0.8415(7) 0.1983(3) 0.0498(15) Uani 1 1 d . . . . .
H14A H 0.3109 0.8566 0.1983 0.060 Uiso 1 1 calc R U . . .
H14B H 0.4713 0.9691 0.1677 0.060 Uiso 1 1 calc R U . . .
C16 C 0.9166(7) 0.4509(10) 0.2440(3) 0.0550(17) Uani 1 1 d . . . . .
H16A H 0.9553 0.5688 0.2098 0.066 Uiso 1 1 calc R U . . .
H16B H 1.0355 0.3432 0.2543 0.066 Uiso 1 1 calc R U . . .
C17 C 0.8193(7) 0.6695(7) 0.3607(5) 0.0544(17) Uani 1 1 d . . . . .
H17A H 0.7971 0.6643 0.4334 0.065 Uiso 1 1 calc R U . . .
H17B H 0.9475 0.6901 0.3388 0.065 Uiso 1 1 calc R U . . .
C18 C 0.5514(11) 0.7116(7) 0.1361(4) 0.0570(18) Uani 1 1 d . . . . .
H18A H 0.6712 0.7455 0.1068 0.068 Uiso 1 1 calc R U . . .
H18B H 0.4726 0.7302 0.0805 0.068 Uiso 1 1 calc R U . . .
C19 C 0.8085(7) 0.4117(11) 0.1796(4) 0.0589(18) Uani 1 1 d . . . . .
H19A H 0.8268 0.2706 0.1941 0.071 Uiso 1 1 calc R U . . .
H19B H 0.8615 0.4494 0.1101 0.071 Uiso 1 1 calc R U . . .
C20 C 0.6808(7) 0.8284(7) 0.3121(6) 0.0553(17) Uani 1 1 d . . . . .
H20A H 0.7352 0.8743 0.2440 0.066 Uiso 1 1 calc R U . . .
H20B H 0.6530 0.9340 0.3483 0.066 Uiso 1 1 calc R U . . .
P1 P 0.0000 0.0000 0.0000 0.0190(3) Uani 1 2 d DS . P . .
F10 F -0.0907(14) 0.2269(10) -0.0325(6) 0.053(3) Uani 0.5 1 d D . P A 1
F11 F 0.2016(10) 0.0330(14) 0.0010(6) 0.080(3) Uani 0.5 1 d D . P A 1
F12 F -0.0450(11) 0.0094(11) 0.1134(4) 0.047(2) Uani 0.5 1 d D . P A 1
F10A F -0.0298(14) 0.2210(10) -0.0458(9) 0.068(4) Uani 0.5 1 d D . P A 2
F11A F 0.2146(8) -0.0495(9) -0.0432(6) 0.054(2) Uani 0.5 1 d D . P A 2
F12A F 0.0590(14) 0.0222(17) 0.0994(7) 0.109(6) Uani 0.5 1 d D . P A 2
loop_
_atom_site_aniso_label
_atom_site_aniso_U_11
_atom_site_aniso_U_22
_atom_site_aniso_U_33
_atom_site_aniso_U_23
_atom_site_aniso_U_13
_atom_site_aniso_U_12
Mn1 0.0119(3) 0.0114(3) 0.0113(3) -0.0022(2) 0.00020(19) -0.0052(2)
F1 0.0178(15) 0.0185(15) 0.0114(14) -0.0032(11) 0.0018(11) -0.0053(12)
F2 0.0316(13) 0.0145(11) 0.0208(11) -0.0043(9) 0.0017(9) -0.0105(9)
F3 0.0159(11) 0.0314(13) 0.0228(12) -0.0027(10) -0.0013(9) -0.0127(9)
N1 0.0135(15) 0.0183(16) 0.0188(16) 0.0005(13) 0.0008(12) -0.0048(12)
N2 0.0288(18) 0.0189(16) 0.0139(16) -0.0036(13) -0.0004(13) -0.0123(14)
N3 0.0157(15) 0.0133(15) 0.0203(16) -0.0040(12) 0.0016(12) -0.0041(12)
C9 0.0148(18) 0.023(2) 0.022(2) 0.0007(16) -0.0046(15) -0.0016(15)
C12 0.055(3) 0.034(2) 0.018(2) -0.0059(18) -0.0062(19) -0.027(2)
C13 0.022(2) 0.0142(18) 0.024(2) -0.0033(15) 0.0044(16) 0.0011(15)
C14 0.088(4) 0.022(2) 0.019(2) 0.0028(18) -0.004(2) 0.009(2)
C16 0.019(2) 0.107(5) 0.020(2) -0.009(3) 0.0075(18) 0.004(3)
C17 0.039(3) 0.022(2) 0.110(5) 0.002(3) -0.041(3) -0.015(2)
C18 0.130(6) 0.023(2) 0.022(3) 0.004(2) -0.029(3) -0.023(3)
C19 0.031(3) 0.111(5) 0.050(3) -0.061(4) 0.017(2) -0.017(3)
C20 0.021(2) 0.031(3) 0.128(6) -0.042(3) -0.004(3) -0.008(2)
P1 0.0185(7) 0.0184(7) 0.0158(7) 0.0006(5) 0.0022(5) -0.0040(5)
F10 0.079(8) 0.026(4) 0.032(4) -0.003(3) 0.009(5) 0.008(4)
F11 0.059(5) 0.117(8) 0.065(6) 0.051(5) -0.038(5) -0.067(6)
F12 0.080(6) 0.038(4) 0.013(3) -0.001(2) 0.002(3) -0.010(4)
F10A 0.049(5) 0.019(4) 0.099(8) 0.011(4) 0.052(4) -0.001(3)
F11A 0.020(3) 0.028(3) 0.098(7) -0.005(3) 0.027(4) -0.003(2)
F12A 0.090(8) 0.126(9) 0.107(9) -0.090(8) -0.073(7) 0.061(7)
loop_
_atom_type_symbol
_atom_type_description
_atom_type_scat_dispersion_real
_atom_type_scat_dispersion_imag
_atom_type_scat_source
C C 0.0033 0.0016 'International Tables Vol C Tables 4.2.6.8 and 6.1.1.4'
H H 0.0000 0.0000 'International Tables Vol C Tables 4.2.6.8 and 6.1.1.4'
N N 0.0061 0.0033 'International Tables Vol C Tables 4.2.6.8 and 6.1.1.4'
F F 0.0171 0.0103 'International Tables Vol C Tables 4.2.6.8 and 6.1.1.4'
P P 0.1023 0.0942 'International Tables Vol C Tables 4.2.6.8 and 6.1.1.4'
Mn Mn 0.3368 0.7283 'International Tables Vol C Tables 4.2.6.8 and 6.1.1.4'
loop_
_geom_angle_atom_site_label_1
_geom_angle_atom_site_label_2
_geom_angle_atom_site_label_3
_geom_angle
_geom_angle_site_symmetry_1
_geom_angle_site_symmetry_3
F3 Mn1 F2 95.50(10) . .
F3 Mn1 F1 93.73(7) . .
F2 Mn1 F1 93.05(7) . .
F3 Mn1 N1 171.61(11) . .
F2 Mn1 N1 90.93(11) . .
F1 Mn1 N1 91.30(9) . .
F3 Mn1 N3 90.08(11) . .
F2 Mn1 N3 171.27(11) . .
F1 Mn1 N3 93.29(9) . .
N1 Mn1 N3 82.92(12) . .
F3 Mn1 N2 93.29(11) . .
F2 Mn1 N2 92.06(11) . .
F1 Mn1 N2 170.89(8) . .
N1 Mn1 N2 81.07(12) . .
N3 Mn1 N2 80.90(12) . .
Mn1 F1 Mn1 180.0 . 2_666
C16 N1 C9 110.6(3) . .
C16 N1 C17 111.4(4) . .
C9 N1 C17 107.5(3) . .
C16 N1 Mn1 111.2(3) . .
C9 N1 Mn1 111.9(2) . .
C17 N1 Mn1 103.9(3) . .
C18 N2 C12 112.8(4) . .
C18 N2 C19 113.7(5) . .
C12 N2 C19 109.5(4) . .
C18 N2 Mn1 107.6(3) . .
C12 N2 Mn1 110.6(2) . .
C19 N2 Mn1 102.1(3) . .
C20 N3 C13 110.4(3) . .
C20 N3 C14 110.8(4) . .
C13 N3 C14 108.0(3) . .
C20 N3 Mn1 109.1(3) . .
C13 N3 Mn1 112.3(2) . .
C14 N3 Mn1 106.1(3) . .
N1 C9 H9A 109.5 . .
N1 C9 H9B 109.5 . .
H9A C9 H9B 109.5 . .
N1 C9 H9C 109.5 . .
H9A C9 H9C 109.5 . .
H9B C9 H9C 109.5 . .
N2 C12 H12A 109.5 . .
N2 C12 H12B 109.5 . .
H12A C12 H12B 109.5 . .
N2 C12 H12C 109.5 . .
H12A C12 H12C 109.5 . .
H12B C12 H12C 109.5 . .
N3 C13 H13A 109.5 . .
N3 C13 H13B 109.5 . .
H13A C13 H13B 109.5 . .
N3 C13 H13C 109.5 . .
H13A C13 H13C 109.5 . .
H13B C13 H13C 109.5 . .
C18 C14 N3 117.2(4) . .
C18 C14 H14A 108.0 . .
N3 C14 H14A 108.0 . .
C18 C14 H14B 108.0 . .
N3 C14 H14B 108.0 . .
H14A C14 H14B 107.2 . .
C19 C16 N1 116.6(4) . .
C19 C16 H16A 108.1 . .
N1 C16 H16A 108.1 . .
C19 C16 H16B 108.1 . .
N1 C16 H16B 108.1 . .
H16A C16 H16B 107.3 . .
C20 C17 N1 114.9(4) . .
C20 C17 H17A 108.5 . .
N1 C17 H17A 108.5 . .
C20 C17 H17B 108.5 . .
N1 C17 H17B 108.5 . .
H17A C17 H17B 107.5 . .
C14 C18 N2 115.2(4) . .
C14 C18 H18A 108.5 . .
N2 C18 H18A 108.5 . .
C14 C18 H18B 108.5 . .
N2 C18 H18B 108.5 . .
H18A C18 H18B 107.5 . .
C16 C19 N2 116.0(4) . .
C16 C19 H19A 108.3 . .
N2 C19 H19A 108.3 . .
C16 C19 H19B 108.3 . .
N2 C19 H19B 108.3 . .
H19A C19 H19B 107.4 . .
C17 C20 N3 114.5(4) . .
C17 C20 H20A 108.6 . .
N3 C20 H20A 108.6 . .
C17 C20 H20B 108.6 . .
N3 C20 H20B 108.6 . .
H20A C20 H20B 107.6 . .
F11A P1 F11A 180.0 . 2
F11A P1 F12A 90.9(4) . .
F11A P1 F12A 89.1(4) 2 .
F11A P1 F12A 89.1(4) . 2
F11A P1 F12A 90.9(4) 2 2
F12A P1 F12A 180.0 . 2
F11A P1 F10A 88.3(4) . 2
F11A P1 F10A 91.7(4) 2 2
F12A P1 F10A 89.0(5) . 2
F12A P1 F10A 91.0(5) 2 2
F11A P1 F10A 91.7(4) . .
F11A P1 F10A 88.3(4) 2 .
F12A P1 F10A 91.0(5) . .
F12A P1 F10A 89.0(5) 2 .
F10A P1 F10A 180.0 2 .
F12 P1 F12 180.00(8) 2 .
F12 P1 F11 90.0(4) 2 2
F12 P1 F11 90.0(4) . 2
F12 P1 F11 90.0(4) 2 .
F12 P1 F11 90.0(4) . .
F11 P1 F11 180.0 2 .
F12 P1 F10 90.9(4) 2 2
F12 P1 F10 89.1(4) . 2
F11 P1 F10 89.7(4) 2 2
F11 P1 F10 90.3(4) . 2
F12 P1 F10 89.1(4) 2 .
F12 P1 F10 90.9(4) . .
F11 P1 F10 90.3(4) 2 .
F11 P1 F10 89.7(4) . .
F10 P1 F10 180.0 2 .
loop_
_geom_bond_atom_site_label_1
_geom_bond_atom_site_label_2
_geom_bond_distance
_geom_bond_site_symmetry_2
Mn1 F3 1.823(2) .
Mn1 F2 1.823(2) .
Mn1 F1 2.0487(5) .
Mn1 N1 2.087(3) .
Mn1 N3 2.096(3) .
Mn1 N2 2.267(3) .
F1 Mn1 2.0487(5) 2_666
N1 C16 1.476(5) .
N1 C9 1.480(5) .
N1 C17 1.497(6) .
N2 C18 1.455(5) .
N2 C12 1.467(5) .
N2 C19 1.475(6) .
N3 C20 1.478(5) .
N3 C13 1.479(5) .
N3 C14 1.497(6) .
C9 H9A 0.9800 .
C9 H9B 0.9800 .
C9 H9C 0.9800 .
C12 H12A 0.9800 .
C12 H12B 0.9800 .
C12 H12C 0.9800 .
C13 H13A 0.9800 .
C13 H13B 0.9800 .
C13 H13C 0.9800 .
C14 C18 1.421(7) .
C14 H14A 0.9900 .
C14 H14B 0.9900 .
C16 C19 1.412(8) .
C16 H16A 0.9900 .
C16 H16B 0.9900 .
C17 C20 1.402(7) .
C17 H17A 0.9900 .
C17 H17B 0.9900 .
C18 H18A 0.9900 .
C18 H18B 0.9900 .
C19 H19A 0.9900 .
C19 H19B 0.9900 .
C20 H20A 0.9900 .
C20 H20B 0.9900 .
P1 F11A 1.565(5) .
P1 F11A 1.565(5) 2
P1 F12A 1.565(7) .
P1 F12A 1.565(7) 2
P1 F10A 1.570(7) 2
P1 F10A 1.570(7) .
P1 F12 1.573(5) 2
P1 F12 1.573(5) .
P1 F11 1.573(5) 2
P1 F11 1.574(5) .
P1 F10 1.590(6) 2
P1 F10 1.590(6) .
loop_
_geom_torsion_atom_site_label_1
_geom_torsion_atom_site_label_2
_geom_torsion_atom_site_label_3
_geom_torsion_atom_site_label_4
_geom_torsion
C20 N3 C14 C18 77.2(6)
C13 N3 C14 C18 -161.8(5)
Mn1 N3 C14 C18 -41.1(6)
C9 N1 C16 C19 116.6(6)
C17 N1 C16 C19 -123.8(6)
Mn1 N1 C16 C19 -8.4(7)
C16 N1 C17 C20 77.6(6)
C9 N1 C17 C20 -161.0(5)
Mn1 N1 C17 C20 -42.2(6)
N3 C14 C18 N2 34.3(8)
C12 N2 C18 C14 113.2(6)
C19 N2 C18 C14 -121.3(6)
Mn1 N2 C18 C14 -9.0(6)
N1 C16 C19 N2 34.8(9)
C18 N2 C19 C16 76.6(7)
C12 N2 C19 C16 -156.3(5)
Mn1 N2 C19 C16 -39.1(6)
N1 C17 C20 N3 35.2(8)
C13 N3 C20 C17 115.3(5)
C14 N3 C20 C17 -125.0(6)
Mn1 N3 C20 C17 -8.6(6)
