#------------------------------------------------------------------------------
#$Date: 2016-03-23 23:08:28 +0200 (Wed, 23 Mar 2016) $
#$Revision: 179502 $
#$URL: svn://www.crystallography.net/cod/cif/4/33/99/4339956.cif $
#------------------------------------------------------------------------------
#
# This file is available in the Crystallography Open Database (COD),
# http://www.crystallography.net/
#
# All data on this site have been placed in the public domain by the
# contributors.
#
data_4339956
loop_
_publ_author_name
'Ward, Matthew D.'
'Mesbah, Adel'
'Minasian, Stefan G.'
'Shuh, David K.'
'Tyliszczak, Tolek'
'Lee, Minseong'
'Choi, Eun Sang'
'Leb\`egue, S\'ebastien'
'Ibers, James A.'
_publ_section_title
;
 Synthesis and Characterization of Eight Compounds of the MU8Q17 Family:
 ScU8S17, CoU8S17, NiU8S17, TiU8Se17, VU8Se17, CrU8Se17, CoU8Se17, and
 NiU8Se17.
;
_journal_issue                   13
_journal_name_full               'Inorganic chemistry'
_journal_page_first              6920
_journal_page_last               6927
_journal_paper_doi               10.1021/ic500721d
_journal_volume                  53
_journal_year                    2014
_chemical_formula_moiety         'Cr1 Se17 U8'
_chemical_formula_sum            'Cr Se17 U8'
_chemical_formula_weight         3298.56
_chemical_name_systematic
;
 ?
;
_space_group_crystal_system      monoclinic
_space_group_IT_number           12
_space_group_name_Hall           '-C 2y'
_space_group_name_H-M_alt        'C 1 2/m 1'
_symmetry_space_group_name_Hall  '-C 2y'
_symmetry_space_group_name_H-M   'C 1 2/m 1'
_audit_creation_method           SHELXL-2013
_cell_angle_alpha                90
_cell_angle_beta                 101.7280(19)
_cell_angle_gamma                90
_cell_formula_units_Z            2
_cell_length_a                   13.8485(5)
_cell_length_b                   8.7846(3)
_cell_length_c                   10.8795(4)
_cell_measurement_reflns_used    9388
_cell_measurement_temperature    100(2)
_cell_measurement_theta_max      36.3775
_cell_measurement_theta_min      3.182
_cell_volume                     1295.90(8)
_computing_cell_refinement       'APEX2 (Bruker, 2009)'
_computing_data_collection       'APEX2 (Bruker, 2009)'
_computing_data_reduction        'SAINT (Bruker, 2009)'
_computing_molecular_graphics    'Crystalmaker (Palmer, 2009)'
_computing_publication_material  'SHELXTL (Sheldrick, 2013)'
_computing_structure_refinement  'SHELXL-2013 (Sheldrick, 2013)'
_computing_structure_solution    'SHELXS-2013 (Sheldrick, 2013)'
_diffrn_ambient_temperature      100(2)
_diffrn_measured_fraction_theta_full 0.991
_diffrn_measured_fraction_theta_max 0.996
_diffrn_measurement_device_type  'Bruker APEX2 CCD'
_diffrn_measurement_method       '\f and \w'
_diffrn_radiation_type           MoK\a
_diffrn_radiation_wavelength     0.71073
_diffrn_reflns_av_unetI/netI     0.0349
_diffrn_reflns_Laue_measured_fraction_full 0.991
_diffrn_reflns_Laue_measured_fraction_max 0.996
_diffrn_reflns_limit_h_max       22
_diffrn_reflns_limit_h_min       -23
_diffrn_reflns_limit_k_max       14
_diffrn_reflns_limit_k_min       0
_diffrn_reflns_limit_l_max       18
_diffrn_reflns_limit_l_min       0
_diffrn_reflns_number            3325
_diffrn_reflns_point_group_measured_fraction_full 0.991
_diffrn_reflns_point_group_measured_fraction_max 0.996
_diffrn_reflns_theta_full        25.242
_diffrn_reflns_theta_max         36.423
_diffrn_reflns_theta_min         3.826
_diffrn_source                   'fine-focus sealed tube'
_exptl_absorpt_coefficient_mu    74.057
_exptl_absorpt_correction_T_max  0.438257
_exptl_absorpt_correction_T_min  0.210205
_exptl_absorpt_correction_type   numerical
_exptl_absorpt_process_details   'TWINABS (Sheldrick, 2008)'
_exptl_crystal_colour            Black
_exptl_crystal_density_diffrn    8.453
_exptl_crystal_description       Needle
_exptl_crystal_F_000             2676
_exptl_crystal_size_max          0.068
_exptl_crystal_size_mid          0.032
_exptl_crystal_size_min          0.022
_refine_diff_density_max         3.878
_refine_diff_density_min         -4.080
_refine_diff_density_rms         0.590
_refine_ls_extinction_coef       0.00055(3)
_refine_ls_extinction_expression Fc^*^=kFc[1+0.001xFc^2^\l^3^/sin(2\q)]^-1/4^
_refine_ls_extinction_method     SHELXL
_refine_ls_goodness_of_fit_ref   1.156
_refine_ls_hydrogen_treatment    undef
_refine_ls_matrix_type           full
_refine_ls_number_parameters     74
_refine_ls_number_reflns         3325
_refine_ls_number_restraints     0
_refine_ls_restrained_S_all      1.156
_refine_ls_R_factor_all          0.0301
_refine_ls_R_factor_gt           0.0262
_refine_ls_shift/su_max          0.001
_refine_ls_shift/su_mean         0.000
_refine_ls_structure_factor_coef Fsqd
_refine_ls_weighting_details
'w=1/[\s^2^(Fo^2^)+(0.0287P)^2^] where P=(1.0000Fo^2^+0.0000Fc^2^)'
_refine_ls_weighting_scheme      calc
_refine_ls_wR_factor_gt          0.0588
_refine_ls_wR_factor_ref         0.0601
_reflns_Friedel_coverage         0.000
_reflns_number_gt                3094
_reflns_number_total             3325
_reflns_threshold_expression     'I > 2\s(I)'
_cod_data_source_file            ic500721d_si_001.cif
_cod_data_source_block           CrU8Se17
_cod_depositor_comments
;
The following automatic conversions were performed:

'_exptl_absorpt_correction_type' value 'Numerical' changed to
'numerical' according to
/usr/data/users/saulius/crontab/automatic-downloads/rss-feeds/ACS/lib/dictionaries/cif_core.dic
dictionary named 'cif_core.dic' version 2.4.2 from 2011-04-26.

Automatic conversion script
Id: cif_fix_values 2281 2013-09-26 08:29:07Z andrius 

 Adding full bibliography for 4339953--4339960.cif.
;
_cod_database_code               4339956
#BEGIN Tags that were not found in dictionaries:
_shelx_space_group_comment
;
The symmetry employed for this shelxl refinement is uniquely defined
by the following loop, which should always be used as a source of
symmetry information in preference to the above space-group names.
They are only intended as comments.
;
_shelxl_version_number           2013-3
_shelx_res_file
;
TITL CrU8Se17 in C2/m
CELL 0.71073  13.84850   8.78460  10.87950  90.0000 101.7280  90.0000
ZERR    2.00   0.00050   0.00030   0.00040   0.0000   0.0019   0.0000
LATT  7
SYMM -X, Y, -Z
SFAC CR SE U
UNIT 2 34 16
TEMP -173.170

L.S. 4
BOND
FMAP 2
PLAN 20
ACTA
OMIT 1 1 0

WGHT    0.028700    0.000000    0.000000    0.000000    0.000000    1.000000
EXTI    0.000552
BASF   0.14383
FVAR       0.08601
U1    3    0.439017    0.256824    0.297075    11.00000    0.00374    0.00488 =
         0.00510    0.00001    0.00030   -0.00005
U2    3    0.202970    0.000000    0.456241    10.50000    0.00353    0.00500 =
         0.00462    0.00000    0.00037    0.00000
U3    3    0.679059    0.000000    0.018035    10.50000    0.00421    0.00445 =
         0.00467    0.00000    0.00047    0.00000
SE1   2    0.127484    0.306523    0.465087    11.00000    0.00390    0.00540 =
         0.00607   -0.00019    0.00027   -0.00077
SE2   2    0.365383    0.312863    0.024969    11.00000    0.00420    0.00454 =
         0.00575    0.00000    0.00045   -0.00037
SE3   2    0.055984    0.000000    0.226404    10.50000    0.00494    0.00697 =
         0.00498    0.00000    0.00061    0.00000
SE4   2    0.213933    0.000000    0.723149    10.50000    0.00392    0.00785 =
         0.00416    0.00000    0.00018    0.00000
SE5   2    0.300217    0.000000    0.244288    10.50000    0.00431    0.00688 =
         0.00510    0.00000    0.00116    0.00000
SE6   2    0.520047    0.000000    0.167852    10.50000    0.00411    0.00604 =
         0.00611    0.00000    0.00083    0.00000
SE7   2    0.000000    0.000000    0.500000    10.25000    0.00471    0.00599 =
         0.00554    0.00000    0.00097    0.00000
CR1   1    0.000000    0.000000    0.000000    10.25000    0.00294    0.00686 =
         0.00474    0.00000    0.00015    0.00000
HKLF 5

REM  CrU8Se17 in C2/m
REM R1 =  0.0262 for    3094 Fo > 4sig(Fo)  and  0.0301 for all    3325 data
REM     74 parameters refined using      0 restraints

END

WGHT      0.0296     12.1659

REM Highest difference peak  3.878,  deepest hole -4.080,  1-sigma level  0.590
Q1    1   0.3888  0.2556  0.2626  11.00000  0.05    3.88
Q2    1   0.4877  0.2529  0.3323  11.00000  0.05    3.66
Q3    1   0.1528  0.0000  0.4227  10.50000  0.05    3.53
Q4    1   0.6270  0.0000 -0.0155  10.50000  0.05    3.18
Q5    1   0.4411  0.1853  0.2977  11.00000  0.05    2.94
Q6    1   0.7285  0.0000  0.0593  10.50000  0.05    2.70
Q7    1   0.1805  0.0000  0.5066  10.50000  0.05    2.57
Q8    1   0.2061  0.0668  0.4619  11.00000  0.05    2.39
Q9    1   0.4178  0.3098  0.0581  11.00000  0.05    2.35
Q10   1   0.6793 -0.0702  0.0187  11.00000  0.05    2.35
Q11   1   0.4412  0.3255  0.2969  11.00000  0.05    2.35
Q12   1   0.2540  0.0000  0.4907  10.50000  0.05    2.21
Q13   1   0.0607  0.2890  0.4393  11.00000  0.05    2.19
Q14   1   0.4708  0.0000  0.1337  10.50000  0.05    2.07
Q15   1   0.0612  0.2987  0.3810  11.00000  0.05    1.90
Q16   1   0.0473  0.0000  0.5772  10.50000  0.05    1.88
Q17   1   0.6403 -0.1314 -0.0155  11.00000  0.05    1.88
Q18   1   0.1646  0.0990  0.4953  11.00000  0.05    1.87
Q19   1   0.4192  0.2543  0.3397  11.00000  0.05    1.84
Q20   1   0.4049  0.0000  0.2855  10.50000  0.05    1.82
;
_shelx_res_checksum              76415
_shelx_hkl_file
;
   4   0   0 41.8716 3.73496  -2
   4   0   0 41.8716 3.73496   1
   6   0   0 183.091 9.16104  -2
   6   0   0 183.091 9.16104   1
   8   0   0 2260.38 51.1230  -2
   8   0   0 2260.38 51.1230   1
  10   0   0 9.40146 2.63034  -2
  10   0   0 9.40146 2.63034   1
  12   0   0 1441.59 35.8097  -2
  12   0   0 1441.59 35.8097   1
  14   0   0 1079.52 27.4236  -2
  14   0   0 1079.52 27.4236   1
  16   0   0 2698.37 66.0551  -2
  16   0   0 2698.37 66.0551   1
  18   0   0 84.6132 7.90774  -2
  18   0   0 84.6132 7.90774   1
  20   0   0 -5.1143 6.78122  -2
  20   0   0 -5.1143 6.78122   1
  22   0   0 37.2981 9.13199  -2
  22   0   0 37.2981 9.13199   1
   1   1   0 0.39992 0.38764  -2
   1   1   0 0.39992 0.38764   1
   3   1   0 124.024 4.22708  -2
   3   1   0 124.024 4.22708   1
   5   1   0 15.0535 2.66852  -2
   5   1   0 15.0535 2.66852   1
   7   1   0 626.719 14.8052  -2
   7   1   0 626.719 14.8052   1
   9   1   0 387.569 7.49293  -2
   9   1   0 387.569 7.49293   1
  11   1   0 543.345 9.19454  -2
  11   1   0 543.345 9.19454   1
  13   1   0 100.057 3.26956  -2
  13   1   0 100.057 3.26956   1
  15   1   0 620.616 13.4600  -2
  15   1   0 620.616 13.4600   1
  17   1   0 222.724 6.96873  -2
  17   1   0 222.724 6.96873   1
  19   1   0 760.741 19.1909  -2
  19   1   0 760.741 19.1909   1
  21   1   0 8.65869 5.18545  -2
  21   1   0 8.65869 5.18545   1
   0   2   0 451.047 24.8230  -2
   0   2   0 451.047 24.8230   1
   2   2   0 3312.65 131.980  -2
   2   2   0 3312.65 131.980   1
   4   2   0 2712.27 108.359  -2
   4   2   0 2712.27 108.359   1
   6   2   0 2952.43 72.0230  -2
   6   2   0 2952.43 72.0230   1
   8   2   0 335.261 7.78974  -2
   8   2   0 335.261 7.78974   1
  10   2   0 4442.68 71.9678  -2
  10   2   0 4442.68 71.9678   1
  12   2   0 39.3969 2.53582  -2
  12   2   0 39.3969 2.53582   1
  14   2   0 391.179 8.48845  -2
  14   2   0 391.179 8.48845   1
  16   2   0 604.531 14.2884  -2
  16   2   0 604.531 14.2884   1
  18   2   0 179.054 6.44915  -2
  18   2   0 179.054 6.44915   1
  20   2   0 90.9914 5.57315  -2
  20   2   0 90.9914 5.57315   1
  22   2   0 4.49736 5.98261  -2
  22   2   0 4.49736 5.98261   1
   1   3   0 12.5188 1.04948  -2
   1   3   0 12.5188 1.04948   1
   5   3   0 7.39077 1.74332  -2
   5   3   0 7.39077 1.74332   1
   7   3   0 434.354 10.4139  -2
   7   3   0 434.354 10.4139   1
   9   3   0 851.614 15.8327  -2
   9   3   0 851.614 15.8327   1
  11   3   0 250.833 5.44581  -2
  11   3   0 250.833 5.44581   1
  13   3   0 4.47571 2.57918  -2
  13   3   0 4.47571 2.57918   1
  15   3   0 313.519 7.36217  -2
  15   3   0 313.519 7.36217   1
  17   3   0 102.069 5.06938  -2
  17   3   0 102.069 5.06938   1
  19   3   0 677.382 17.2314  -2
  19   3   0 677.382 17.2314   1
  21   3   0 14.2212 5.29768  -2
  21   3   0 14.2212 5.29768   1
   0   4   0 9999.99 537.358  -2
   0   4   0 9999.99 537.358   1
   2   4   0 40.4413 2.07747  -2
   2   4   0 40.4413 2.07747   1
   4   4   0 621.662 24.1109  -2
   4   4   0 621.662 24.1109   1
   6   4   0 23.1393 1.90165  -2
   6   4   0 23.1393 1.90165   1
   8   4   0 4230.19 84.1399  -2
   8   4   0 4230.19 84.1399   1
  10   4   0 42.5200 2.94204  -2
  10   4   0 42.5200 2.94204   1
  12   4   0 309.679 8.28672  -2
  12   4   0 309.679 8.28672   1
  14   4   0 438.972 10.3814  -2
  14   4   0 438.972 10.3814   1
  16   4   0 1287.95 29.1361  -2
  16   4   0 1287.95 29.1361   1
  18   4   0 270.173 8.75504  -2
  18   4   0 270.173 8.75504   1
  20   4   0 83.3622 6.28105  -2
  20   4   0 83.3622 6.28105   1
   1   5   0 82.6727 2.47872  -2
   1   5   0 82.6727 2.47872   1
   3   5   0 122.227 3.84915  -2
   3   5   0 122.227 3.84915   1
   5   5   0 6.62967 1.48889  -2
   5   5   0 6.62967 1.48889   1
   7   5   0 618.641 12.3919  -2
   7   5   0 618.641 12.3919   1
   9   5   0 76.9117 2.95600  -2
   9   5   0 76.9117 2.95600   1
  11   5   0 532.954 12.7279  -2
  11   5   0 532.954 12.7279   1
  13   5   0 192.432 6.68616  -2
  13   5   0 192.432 6.68616   1
  15   5   0 672.619 17.4749  -2
  15   5   0 672.619 17.4749   1
  17   5   0 181.280 6.86144  -2
  17   5   0 181.280 6.86144   1
  19   5   0 744.048 20.3097  -2
  19   5   0 744.048 20.3097   1
  21   5   0 31.0467 10.2802  -2
  21   5   0 31.0467 10.2802   1
   0   6   0 2476.04 67.4406  -2
   0   6   0 2476.04 67.4406   1
   2   6   0 2136.49 53.7643  -2
   2   6   0 2136.49 53.7643   1
   4   6   0 14.7672 1.53118  -2
   4   6   0 14.7672 1.53118   1
   6   6   0 2542.22 45.4616  -2
   6   6   0 2542.22 45.4616   1
   8   6   0 232.628 5.81149  -2
   8   6   0 232.628 5.81149   1
  10   6   0 1857.10 40.6599  -2
  10   6   0 1857.10 40.6599   1
  12   6   0 337.885 9.08651  -2
  12   6   0 337.885 9.08651   1
  14   6   0 35.0103 3.89061  -2
  14   6   0 35.0103 3.89061   1
  16   6   0 26.4325 4.14263  -2
  16   6   0 26.4325 4.14263   1
  18   6   0 490.375 13.1910  -2
  18   6   0 490.375 13.1910   1
  20   6   0 -2.1361 5.76178  -2
  20   6   0 -2.1361 5.76178   1
   1   7   0 31.7948 1.95680  -2
   1   7   0 31.7948 1.95680   1
   3   7   0 1.20193 1.28060  -2
   3   7   0 1.20193 1.28060   1
   5   7   0 8.28047 1.27997  -2
   5   7   0 8.28047 1.27997   1
   7   7   0 63.2141 2.34717  -2
   7   7   0 63.2141 2.34717   1
   9   7   0 759.710 17.4356  -2
   9   7   0 759.710 17.4356   1
  11   7   0 202.800 6.23971  -2
  11   7   0 202.800 6.23971   1
  13   7   0 1.60990 3.32331  -2
  13   7   0 1.60990 3.32331   1
  15   7   0 202.159 7.00817  -2
  15   7   0 202.159 7.00817   1
  17   7   0 208.554 7.56598  -2
  17   7   0 208.554 7.56598   1
  19   7   0 330.451 11.0051  -2
  19   7   0 330.451 11.0051   1
   0   8   0 3911.23 125.881  -2
   0   8   0 3911.23 125.881   1
   2   8   0 29.3519 2.06395  -2
   2   8   0 29.3519 2.06395   1
   4   8   0 1541.07 38.6739  -2
   4   8   0 1541.07 38.6739   1
   6   8   0 -0.1224 1.38248  -2
   6   8   0 -0.1224 1.38248   1
   8   8   0 4559.50 86.0770  -2
   8   8   0 4559.50 86.0770   1
  10   8   0 155.243 4.88157  -2
  10   8   0 155.243 4.88157   1
  12   8   0 5.45607 2.72182  -2
  12   8   0 5.45607 2.72182   1
  14   8   0 69.0280 4.48155  -2
  14   8   0 69.0280 4.48155   1
  16   8   0 281.490 8.82557  -2
  16   8   0 281.490 8.82557   1
  18   8   0 424.128 12.7887  -2
  18   8   0 424.128 12.7887   1
   1   9   0 77.6455 3.23328  -2
   1   9   0 77.6455 3.23328   1
   3   9   0 162.403 6.41562  -2
   3   9   0 162.403 6.41562   1
   5   9   0 6.19694 1.96240  -2
   5   9   0 6.19694 1.96240   1
   7   9   0 707.731 15.6372  -2
   7   9   0 707.731 15.6372   1
   9   9   0 35.0281 2.74286  -2
   9   9   0 35.0281 2.74286   1
  11   9   0 221.334 6.29423  -2
  11   9   0 221.334 6.29423   1
  13   9   0 33.4618 3.94960  -2
  13   9   0 33.4618 3.94960   1
  15   9   0 407.696 11.2311  -2
  15   9   0 407.696 11.2311   1
  17   9   0 13.5364 4.36869  -2
  17   9   0 13.5364 4.36869   1
   0  10   0 1489.23 49.3000  -2
   0  10   0 1489.23 49.3000   1
   2  10   0 1025.10 27.0822  -2
   2  10   0 1025.10 27.0822   1
   4  10   0 4.59620 2.10331  -2
   4  10   0 4.59620 2.10331   1
   6  10   0 1180.87 30.5786  -2
   6  10   0 1180.87 30.5786   1
   8  10   0 152.410 5.38291  -2
   8  10   0 152.410 5.38291   1
  10  10   0 1034.36 29.1515  -2
  10  10   0 1034.36 29.1515   1
  12  10   0 260.573 8.46337  -2
  12  10   0 260.573 8.46337   1
  14  10   0 6.46910 4.23635  -2
  14  10   0 6.46910 4.23635   1
  16  10   0 14.3777 4.76352  -2
  16  10   0 14.3777 4.76352   1
   1  11   0 63.9481 3.29880  -2
   1  11   0 63.9481 3.29880   1
   3  11   0 7.04056 1.95977  -2
   3  11   0 7.04056 1.95977   1
   5  11   0 24.3468 3.57774  -2
   5  11   0 24.3468 3.57774   1
   7  11   0 4.53915 3.35192  -2
   7  11   0 4.53915 3.35192   1
   9  11   0 414.494 13.4656  -2
   9  11   0 414.494 13.4656   1
  11  11   0 114.892 6.99198  -2
  11  11   0 114.892 6.99198   1
  13  11   0 23.9634 4.77881  -2
  13  11   0 23.9634 4.77881   1
   0  12   0 2669.32 108.689  -2
   0  12   0 2669.32 108.689   1
   2  12   0 3.87902 2.34082  -2
   2  12   0 3.87902 2.34082   1
   4  12   0 220.826 9.00960  -2
   4  12   0 220.826 9.00960   1
   6  12   0 14.8492 3.50815  -2
   6  12   0 14.8492 3.50815   1
   8  12   0 1263.28 56.6479  -2
   8  12   0 1263.28 56.6479   1
  10  12   0 31.8622 4.96373  -2
  10  12   0 31.8622 4.96373   1
  12  12   0 36.1358 5.30062  -2
  12  12   0 36.1358 5.30062   1
   1  13   0 119.061 6.36052  -2
   1  13   0 119.061 6.36052   1
   3  13   0 77.0926 5.26794  -2
   3  13   0 77.0926 5.26794   1
   5  13   0 13.8685 3.34856  -2
   5  13   0 13.8685 3.34856   1
   7  13   0 339.935 13.1074  -2
   7  13   0 339.935 13.1074   1
   9  13   0 21.2764 4.58397  -2
   9  13   0 21.2764 4.58397   1
   0  14   0 129.225 10.0696  -2
   0  14   0 129.225 10.0696   1
   2  14   0 425.407 15.0591  -2
   2  14   0 425.407 15.0591   1
   4  14   0 203.585 9.11967  -2
   4  14   0 203.585 9.11967   1
   6  14   0 389.186 14.5229  -2
   6  14   0 389.186 14.5229   1
 -22   0   1 111.380 10.0605   1
 -20   0   1 1126.65 38.9148   1
 -18   0   1 65.9396 6.02608   1
 -16   0   1 15.7735 2.82595   1
 -14   0   1 6.97005 2.17330   1
 -12   0   1 2809.60 61.5918   1
 -10   0   1 63.9249 3.10246   1
  -8   0   1 305.428 7.76224   1
  -6   0   1 2.99033 1.74738   1
  -4   0   1 1047.05 42.2509   1
   4   0   1 128.091 6.35547   1
   6   0   1 2469.25 99.2408   1
   8   0   1 50.7512 2.68129   1
  10   0   1 817.590 20.7488   1
  12   0   1 46.0927 3.05925   1
  14   0   1 1734.08 42.9902   1
  16   0   1 13.2179 2.70831   1
  18   0   1 2.00085 4.06905   1
  20   0   1 5.12087 4.52550   1
  22   0   1 1053.23 46.3460   1
  21   1   1 80.8503 25.2056  -2
 -21   1   1 80.8503 25.2056   1
 -19   1   1 133.181 5.55809   1
 -17   1   1 5.96588 2.18750   1
 -15   1   1 112.435 4.06986   1
 -13   1   1 8.08830 1.37605   1
 -11   1   1 818.207 13.2425   1
  -9   1   1 63.4905 2.11715   1
  -7   1   1 746.158 17.3295   1
  -5   1   1 2098.07 68.6983   1
  -3   1   1 601.208 17.2485   1
   3   1   1 554.510 18.5581   1
   5   1   1 2468.77 80.8233   1
   7   1   1 324.052 7.08827   1
   9   1   1 295.126 5.94854   1
  11   1   1 502.766 8.58762   1
  13   1   1 458.550 8.52371   1
  15   1   1 72.3328 3.38915   1
  17   1   1 2.62833 2.25407   1
  19   1   1 52.6959 3.73805   1
  21   1   1 34.8454 4.33086   1
 -22   2   1 856.699 23.8735   1
 -20   2   1 5.49662 2.80745   1
 -18   2   1 1051.81 23.4995   1
 -16   2   1 119.715 4.42535   1
 -14   2   1 1494.83 27.6866   1
 -12   2   1 77.6863 2.64802   1
 -10   2   1 1499.29 23.6535   1
  -8   2   1 31.5858 1.60412   1
  -6   2   1 1286.00 31.7221   1
  -4   2   1 2318.59 75.6659   1
  -2   2   1 2713.89 88.1689   1
   0   2   1 375.610 12.1447   1
   2   2   1 164.796 5.73418   1
   4   2   1 4274.80 139.183   1
   6   2   1 671.434 17.0163   1
   8   2   1 889.885 17.6690   1
  10   2   1 44.4183 1.82724   1
  12   2   1 1761.75 30.5096   1
  14   2   1 9.74279 2.01215   1
  16   2   1 492.447 11.2154   1
  18   2   1 16.2484 2.85925   1
  20   2   1 1563.45 36.7161   1
  22   2   1 100.786 6.79204   1
 -21   3   1 83.1352 5.57242   1
 -19   3   1 72.2563 4.50025   1
 -17   3   1 27.6895 2.88061   1
 -15   3   1 1051.74 19.9818   1
 -13   3   1 7.12587 1.53674   1
 -11   3   1 28.0449 1.66156   1
  -9   3   1 338.382 6.82834   1
  -7   3   1 42.1063 1.98278   1
  -5   3   1 517.316 14.4285   1
  -1   3   1 891.127 34.5604   1
   1   3   1 2849.62 86.9182   1
   3   3   1 1867.03 105.507   1
   5   3   1 744.283 18.6042   1
   7   3   1 160.692 4.50932   1
   9   3   1 2.36061 1.06589   1
  11   3   1 28.1455 1.73582   1
  13   3   1 1245.26 23.2587   1
  15   3   1 83.0343 3.39417   1
  17   3   1 22.4130 2.81787   1
  19   3   1 396.580 11.4797   1
  21   3   1 47.8775 4.64609   1
 -22   4   1 43.7253 7.97344   1
 -20   4   1 1170.25 30.6174   1
 -18   4   1 13.5237 2.90182   1
 -16   4   1 7.01076 2.41833   1
 -14   4   1 39.5912 2.96307   1
 -12   4   1 2356.44 50.8507   1
 -10   4   1 126.404 4.03829   1
  -8   4   1 238.313 5.60409   1
  -6   4   1 9.90354 1.03155   1
  -4   4   1 756.733 21.7206   1
  -2   4   1 576.921 22.8949   1
   0   4   1 118.229 5.67812   1
   2   4   1 433.517 16.8332   1
   4   4   1 155.345 4.90452   1
   6   4   1 1684.96 35.3869   1
   8   4   1 62.3800 2.41921   1
  10   4   1 393.013 8.88530   1
  12   4   1 26.4159 2.03048   1
  14   4   1 1978.72 40.5063   1
  16   4   1 5.48529 2.44866   1
  18   4   1 38.8423 3.76563   1
  20   4   1 5.97968 3.38633   1
 -21   5   1 51.2698 5.37450   1
 -19   5   1 411.917 12.6205   1
 -17   5   1 2.17913 2.50982   1
 -15   5   1 3.66207 2.26753   1
 -13   5   1 29.3669 2.79551   1
 -11   5   1 1001.98 22.3086   1
  -9   5   1 0.84666 1.12117   1
  -7   5   1 1277.14 23.3090   1
  -5   5   1 2519.21 51.9603   1
  -3   5   1 5.00677 0.86374   1
  -1   5   1 13.7233 1.24542   1
   1   5   1 4.88505 0.78318   1
   3   5   1 219.979 5.60499   1
   5   5   1 2176.52 44.4601   1
   7   5   1 879.085 17.2898   1
   9   5   1 507.336 11.1414   1
  11   5   1 1055.51 23.5009   1
  13   5   1 103.827 4.74697   1
  15   5   1 155.434 6.15824   1
  17   5   1 14.6183 3.01747   1
  19   5   1 7.27107 3.69143   1
  21   5   1 16.0686 10.0417   1
 -20   6   1 11.2984 3.50298   1
 -18   6   1 492.685 13.8961   1
 -16   6   1 30.3650 3.37378   1
 -14   6   1 765.429 19.2987   1
 -12   6   1 16.8527 2.40091   1
 -10   6   1 1379.94 28.4656   1
  -8   6   1 12.6821 1.44005   1
  -6   6   1 1007.80 18.4757   1
  -4   6   1 1204.68 27.5577   1
  -2   6   1 1368.31 34.8913   1
   0   6   1 247.817 6.33280   1
   2   6   1 165.475 4.61480   1
   4   6   1 2816.11 53.6712   1
   6   6   1 228.238 4.92735   1
   8   6   1 552.572 12.0874   1
  10   6   1 6.24058 1.69108   1
  12   6   1 1372.57 30.6580   1
  14   6   1 21.9167 2.72208   1
  16   6   1 262.515 8.14654   1
  18   6   1 99.4434 5.64879   1
  20   6   1 942.336 24.9460   1
 -19   7   1 34.2418 3.71420   1
 -17   7   1 25.4667 3.21833   1
 -15   7   1 445.292 11.7049   1
 -13   7   1 6.37894 2.19956   1
 -11   7   1 242.360 6.83587   1
  -9   7   1 233.858 5.96265   1
  -7   7   1 24.9512 1.53311   1
  -5   7   1 303.720 6.11299   1
  -3   7   1 2095.07 47.8788   1
  -1   7   1 144.616 4.48689   1
   1   7   1 877.813 22.9391   1
   3   7   1 513.292 12.3073   1
   5   7   1 1043.84 19.1479   1
   7   7   1 40.0888 2.02712   1
   9   7   1 12.1681 1.77423   1
  11   7   1 -0.0279 1.80060   1
  13   7   1 952.219 22.0251   1
  15   7   1 2.06858 2.38847   1
  17   7   1 10.5919 3.06335   1
  19   7   1 108.644 6.02011   1
 -18   8   1 7.05645 2.88898   1
 -16   8   1 13.1582 2.85782   1
 -14   8   1 63.9844 3.81678   1
 -12   8   1 1224.24 25.8857   1
 -10   8   1 110.725 4.00401   1
  -8   8   1 166.583 4.26295   1
  -6   8   1 12.8586 1.34140   1
  -4   8   1 489.092 15.4844   1
  -2   8   1 246.491 7.63719   1
   0   8   1 46.6440 2.46714   1
   2   8   1 277.965 8.44052   1
   4   8   1 61.5463 2.69800   1
   6   8   1 759.385 15.2803   1
   8   8   1 23.6970 1.88498   1
  10   8   1 137.054 4.58144   1
  12   8   1 33.1558 2.92817   1
  14   8   1 1448.90 32.7734   1
  16   8   1 6.69455 2.67351   1
  18   8   1 88.7598 5.40582   1
 -17   9   1 1.24677 2.64505   1
 -15   9   1 147.745 5.89378   1
 -13   9   1 69.4789 3.89956   1
 -11   9   1 13.4525 2.16870   1
  -9   9   1 4.64520 1.71903   1
  -7   9   1 36.4251 2.27018   1
  -5   9   1 932.156 24.2094   1
  -3   9   1 272.907 9.70424   1
  -1   9   1 353.387 9.48582   1
   1   9   1 358.691 9.61823   1
   3   9   1 832.107 25.1864   1
   5   9   1 233.764 6.50070   1
   7   9   1 78.8215 3.08946   1
   9   9   1 45.5750 2.84713   1
  11   9   1 175.344 5.57475   1
  13   9   1 129.572 5.36769   1
  15   9   1 41.3172 3.65425   1
  17   9   1 6.04754 3.03021   1
 -16  10   1 8.49643 2.83658   1
 -14  10   1 488.964 14.0114   1
 -12  10   1 2.71789 2.37793   1
 -10  10   1 669.849 17.7596   1
  -8  10   1 4.99115 1.79451   1
  -6  10   1 473.570 11.9130   1
  -4  10   1 659.251 20.7434   1
  -2  10   1 698.305 17.4248   1
   0  10   1 47.1301 2.81872   1
   2  10   1 93.2119 4.56108   1
   4  10   1 1111.29 28.8357   1
   6  10   1 105.312 4.06534   1
   8  10   1 375.408 11.1116   1
  10  10   1 3.85309 2.25750   1
  12  10   1 914.161 23.5410   1
  14  10   1 6.31178 2.92180   1
  16  10   1 108.968 6.33712   1
 -15  11   1 5.19778 2.93558   1
 -13  11   1 29.9758 3.92888   1
 -11  11   1 921.479 30.5901   1
  -9  11   1 68.3892 4.53976   1
  -7  11   1 514.905 13.0384   1
  -5  11   1 322.773 11.9393   1
  -3  11   1 285.034 9.45093   1
  -1  11   1 42.2786 2.90902   1
   1  11   1 12.4842 2.28598   1
   3  11   1 3.91333 2.00622   1
   5  11   1 1571.12 40.3672   1
   7  11   1 64.2691 3.95952   1
   9  11   1 173.596 7.33933   1
  11  11   1 159.555 8.08999   1
  13  11   1 375.817 12.8877   1
 -12  12   1 586.416 20.8758   1
 -10  12   1 10.9200 3.11101   1
  -8  12   1 100.622 6.09411   1
  -6  12   1 2.67262 2.69108   1
  -4  12   1 363.603 13.2656   1
  -2  12   1 130.837 6.78628   1
   0  12   1 3.32538 2.45994   1
   2  12   1 113.078 6.43227   1
   4  12   1 2.65056 2.63204   1
   6  12   1 432.732 14.5860   1
   8  12   1 0.82406 3.09763   1
  10  12   1 128.944 7.32081   1
  12  12   1 24.9396 4.35483   1
  -9  13   1 -2.8809 3.56527   1
  -7  13   1 18.9479 3.86834   1
  -5  13   1 409.226 14.9581   1
  -3  13   1 271.546 11.0272   1
  -1  13   1 370.430 13.6115   1
   1  13   1 401.527 14.4802   1
   3  13   1 825.039 26.3367   1
   5  13   1 1.49151 2.78711   1
   7  13   1 7.58157 3.37907   1
   9  13   1 0.68119 3.34988   1
  -6  14   1 190.217 9.57407   1
  -4  14   1 266.214 11.3595   1
  -2  14   1 322.277 12.7374   1
   0  14   1 11.6443 3.29019   1
   2  14   1 34.7756 4.33274   1
   4  14   1 384.697 14.5130   1
   6  14   1 68.1531 6.32068   1
 -22   0   2 1083.26 47.7360   1
 -20   0   2 4.10125 4.71805   1
 -18   0   2 200.524 10.6552   1
 -16   0   2 53.0527 3.85504   1
 -14   0   2 120.299 5.22808   1
 -12   0   2 178.611 6.06459   1
 -10   0   2 118.069 4.35680   1
  -8   0   2 2910.44 65.4313   1
  -6   0   2 6835.93 272.249   1
  -4   0   2 5.06315 1.34912   1
   0   0   2 216.142 11.4982   1
   2   0   2 2508.51 78.7879   1
   4   0   2 4331.72 172.833   1
   6   0   2 706.300 23.2963   1
   8   0   2 993.647 25.1578   1
  10   0   2 2093.61 51.1305   1
  12   0   2 74.3818 3.86513   1
  14   0   2 288.818 9.19416   1
  16   0   2 186.666 7.26950   1
  18   0   2 1255.29 42.7559   1
  20   0   2 609.377 28.8060   1
  22   0   2 134.679 10.8256   1
 -21   1   2 -3.9621 3.57094   1
 -19   1   2 136.317 6.12009   1
 -17   1   2 1012.48 20.9855   1
 -15   1   2 263.139 6.83877   1
 -13   1   2 39.7638 2.11897   1
 -11   1   2 119.048 2.87907   1
  -9   1   2 1038.95 18.3586   1
  -7   1   2 78.5641 3.02713   1
  -5   1   2 324.279 11.2916   1
  -3   1   2 311.398 9.18371   1
  -1   1   2 142.694 5.97305   1
   1   1   2 154.050 4.54853   1
   3   1   2 14.8386 1.50225   1
   5   1   2 178.199 6.96051   1
   7   1   2 236.772 5.17223   1
   9   1   2 559.981 9.88577   1
  11   1   2 136.005 3.30828   1
  13   1   2 28.3494 2.17960   1
  15   1   2 521.919 11.6806   1
  17   1   2 323.690 9.03928   1
  19   1   2 36.2835 4.02719   1
  21   1   2 48.5168 4.76882   1
 -22   2   2 302.464 12.4814   1
 -20   2   2 21.5956 3.12966   1
 -18   2   2 586.318 14.1103   1
 -16   2   2 437.574 10.1031   1
 -14   2   2 182.795 4.86270   1
 -12   2   2 1448.88 25.2099   1
 -10   2   2 436.671 7.48262   1
  -8   2   2 1840.01 35.9721   1
  -6   2   2 552.487 14.0316   1
  -4   2   2 42.4213 2.53203   1
  -2   2   2 30.2407 1.54532   1
   0   2   2 966.058 24.0809   1
   2   2   2 240.443 8.16429   1
   4   2   2 1056.74 35.0367   1
   6   2   2 522.679 12.4072   1
   8   2   2 3879.34 73.2532   1
  10   2   2 228.754 4.75556   1
  12   2   2 60.5233 2.51567   1
  14   2   2 314.736 7.77112   1
  16   2   2 497.749 12.2600   1
  18   2   2 195.859 6.81808   1
  20   2   2 352.935 11.9184   1
 -21   3   2 41.1400 4.45024   1
 -19   3   2 103.446 5.65898   1
 -17   3   2 474.147 11.5747   1
 -15   3   2 369.603 8.11181   1
 -13   3   2 77.0616 2.95374   1
 -11   3   2 79.7954 2.60611   1
  -9   3   2 975.134 20.1208   1
  -7   3   2 272.824 6.79166   1
  -5   3   2 91.0295 3.30608   1
  -3   3   2 254.527 10.6479   1
  -1   3   2 88.9300 4.36502   1
   1   3   2 337.556 10.9430   1
   3   3   2 189.196 8.17995   1
   5   3   2 124.395 3.94696   1
   7   3   2 29.8408 1.51833   1
   9   3   2 488.587 10.0525   1
  11   3   2 169.880 4.23321   1
  13   3   2 8.19507 1.76154   1
  15   3   2 335.899 8.85279   1
  17   3   2 53.6517 3.60594   1
  19   3   2 160.509 6.73613   1
  21   3   2 4.29365 4.02908   1
 -22   4   2 459.853 16.3373   1
 -20   4   2 35.2916 4.19931   1
 -18   4   2 4.57082 2.64954   1
 -16   4   2 183.717 6.35155   1
 -14   4   2 504.301 12.3830   1
 -12   4   2 2.70676 1.70099   1
 -10   4   2 549.503 12.7201   1
  -8   4   2 951.566 19.5027   1
  -6   4   2 3173.33 65.2295   1
  -4   4   2 577.851 13.4315   1
  -2   4   2 561.313 22.3387   1
   0   4   2 227.270 9.72603   1
   2   4   2 2774.73 102.973   1
   4   4   2 1127.50 30.5992   1
   6   4   2 726.334 14.3407   1
   8   4   2 49.8565 2.34962   1
  10   4   2 1795.20 39.0045   1
  12   4   2 586.282 12.2723   1
  14   4   2 322.161 8.28392   1
  16   4   2 5.70237 2.54130   1
  18   4   2 824.271 20.1698   1
  20   4   2 217.540 8.95160   1
 -21   5   2 39.9568 5.15850   1
 -19   5   2 143.360 6.78423   1
 -17   5   2 1109.36 27.4567   1
 -15   5   2 84.0708 4.45768   1
 -13   5   2 36.7158 2.93701   1
 -11   5   2 85.8308 3.54480   1
  -9   5   2 825.077 17.1628   1
  -7   5   2 15.1842 1.15601   1
  -5   5   2 409.878 9.10308   1
  -3   5   2 256.084 5.87891   1
  -1   5   2 189.825 5.63311   1
   1   5   2 4.86793 0.76022   1
   3   5   2 17.8014 1.14093   1
   5   5   2 133.266 3.27675   1
   7   5   2 290.519 6.38656   1
   9   5   2 502.811 11.9410   1
  11   5   2 150.617 4.67945   1
  13   5   2 96.5187 4.73263   1
  15   5   2 389.889 11.2862   1
  17   5   2 510.504 13.2891   1
  19   5   2 10.2158 3.51332   1
 -20   6   2 90.2327 5.70211   1
 -18   6   2 34.3451 3.80959   1
 -16   6   2 788.173 20.0915   1
 -14   6   2 791.283 19.7882   1
 -12   6   2 239.602 7.23360   1
 -10   6   2 4.49942 1.46467   1
  -8   6   2 166.510 4.42174   1
  -6   6   2 5.49093 1.01892   1
  -4   6   2 637.383 13.7174   1
  -2   6   2 188.643 5.81038   1
   0   6   2 3091.57 69.5105   1
   2   6   2 448.446 10.7070   1
   4   6   2 44.7807 1.63136   1
   6   6   2 207.177 5.15872   1
   8   6   2 685.656 13.8698   1
  10   6   2 157.620 5.07335   1
  12   6   2 302.060 8.36307   1
  14   6   2 144.784 5.96696   1
  16   6   2 1305.56 31.9942   1
  18   6   2 47.2003 4.26352   1
  20   6   2 15.7055 11.0051   1
 -19   7   2 68.8273 4.68857   1
 -17   7   2 326.659 9.54846   1
 -15   7   2 447.836 11.7902   1
 -13   7   2 3.68396 2.07106   1
 -11   7   2 95.0405 3.90523   1
  -9   7   2 467.116 10.4458   1
  -7   7   2 212.853 4.77812   1
  -5   7   2 10.3489 1.00195   1
  -3   7   2 60.1556 2.72611   1
  -1   7   2 9.74600 1.27466   1
   1   7   2 451.252 12.4138   1
   3   7   2 133.963 3.70901   1
   5   7   2 61.8228 2.13475   1
   7   7   2 28.3775 1.83765   1
   9   7   2 214.914 6.19625   1
  11   7   2 10.5556 2.17286   1
  13   7   2 11.8501 2.44763   1
  15   7   2 365.807 10.8937   1
  17   7   2 26.9365 3.69561   1
  19   7   2 134.218 7.36590   1
 -18   8   2 86.8538 4.94002   1
 -16   8   2 320.577 9.39749   1
 -14   8   2 773.939 17.3569   1
 -12   8   2 116.626 4.37233   1
 -10   8   2 930.202 19.7624   1
  -8   8   2 51.7329 2.29005   1
  -6   8   2 945.338 17.5462   1
  -4   8   2 1326.41 33.6119   1
  -2   8   2 65.9909 3.03427   1
   0   8   2 897.356 21.4752   1
   2   8   2 2081.55 51.9242   1
   4   8   2 18.5661 1.68294   1
   6   8   2 589.481 12.2422   1
   8   8   2 216.598 5.50790   1
  10   8   2 1120.06 23.6826   1
  12   8   2 1246.75 28.2384   1
  14   8   2 272.203 8.82861   1
  16   8   2 121.010 6.07082   1
  18   8   2 437.304 12.9655   1
 -17   9   2 548.030 14.2847   1
 -15   9   2 12.0285 2.76368   1
 -13   9   2 128.051 5.27426   1
 -11   9   2 37.9009 2.68228   1
  -9   9   2 753.860 15.6791   1
  -7   9   2 7.46994 1.46386   1
  -5   9   2 297.846 7.75939   1
  -3   9   2 222.331 6.67195   1
  -1   9   2 211.752 6.34407   1
   1   9   2 25.7288 2.32610   1
   3   9   2 9.82164 1.70458   1
   5   9   2 50.2636 2.69065   1
   7   9   2 84.7681 3.42624   1
   9   9   2 500.700 11.8062   1
  11   9   2 316.504 8.68437   1
  13   9   2 23.0602 2.89614   1
  15   9   2 104.532 5.36723   1
  17   9   2 280.108 9.58764   1
 -16  10   2 497.821 13.1375   1
 -14  10   2 490.167 14.0030   1
 -12  10   2 93.3364 4.96940   1
 -10  10   2 2.66497 2.26284   1
  -8  10   2 61.5211 3.35448   1
  -6  10   2 8.64866 1.62569   1
  -4  10   2 378.900 11.5185   1
  -2  10   2 143.897 5.14508   1
   0  10   2 1842.50 43.1298   1
   2  10   2 221.930 8.62169   1
   4  10   2 54.4259 3.31387   1
   6  10   2 114.688 4.46082   1
   8  10   2 300.423 9.42262   1
  10  10   2 60.3520 3.94920   1
  12  10   2 233.055 8.17048   1
  14  10   2 109.669 6.22051   1
 -15  11   2 336.508 12.0773   1
 -13  11   2 27.1033 3.81510   1
 -11  11   2 59.0862 5.05325   1
  -9  11   2 133.296 6.18918   1
  -7  11   2 209.280 6.43684   1
  -5  11   2 2.43602 1.94133   1
  -3  11   2 25.8839 2.76292   1
  -1  11   2 1.02831 1.65054   1
   1  11   2 339.093 10.7200   1
   3  11   2 78.7081 5.18605   1
   5  11   2 60.8589 3.73192   1
   7  11   2 19.1396 2.97994   1
   9  11   2 21.5263 3.38992   1
  11  11   2 26.6526 4.32456   1
  13  11   2 5.10575 2.81878   1
 -12  12   2 8.56699 3.48157   1
 -10  12   2 226.596 9.77129   1
  -8  12   2 123.500 5.42313   1
  -6  12   2 748.390 24.1206   1
  -4  12   2 212.831 9.10210   1
  -2  12   2 126.888 6.76571   1
   0  12   2 57.1690 4.55015   1
   2  12   2 813.595 25.6508   1
   4  12   2 160.348 7.91521   1
   6  12   2 249.838 10.0325   1
   8  12   2 8.36585 2.92007   1
  10  12   2 581.864 20.6630   1
  12  12   2 276.019 11.9575   1
  -9  13   2 508.333 19.3564   1
  -7  13   2 12.9658 3.32778   1
  -5  13   2 152.323 7.89167   1
  -3  13   2 79.8828 5.71449   1
  -1  13   2 129.416 7.16691   1
   1  13   2 16.4742 3.30992   1
   3  13   2 27.5601 3.77944   1
   5  13   2 3.10645 3.10300   1
   7  13   2 53.4191 5.34528   1
   9  13   2 465.620 21.5944   1
  -6  14   2 38.6500 4.66663   1
  -4  14   2 -0.6949 2.85206   1
  -2  14   2 7.46144 3.12068   1
   0  14   2 228.461 10.1111   1
   2  14   2 18.3088 3.66426   1
   4  14   2 86.1267 6.23769   1
  20   0   3 323.702 28.4996  -2
 -22   0   3 323.702 28.4996   1
  18   0   3 67.9437 15.3224  -2
 -20   0   3 67.9437 15.3224   1
  16   0   3 475.754 33.5900  -2
 -18   0   3 475.754 33.5900   1
 -16   0   3 1027.87 29.8487   1
 -14   0   3 575.759 15.5783   1
 -12   0   3 134.412 5.16452   1
 -10   0   3 1373.50 33.7634   1
  -8   0   3 2999.02 67.4174   1
  -6   0   3 985.930 40.1746   1
  -4   0   3 1022.71 58.4822   1
  -2   0   3 2283.59 91.2299   1
   0   0   3 890.100 45.7886   1
   2   0   3 1075.88 34.2270   1
   4   0   3 7.78298 1.85646   1
   6   0   3 2145.16 52.7582   1
   8   0   3 278.689 9.04803   1
  10   0   3 499.880 13.3488   1
  12   0   3 253.675 9.26005   1
  14   0   3 681.851 20.6838   1
  16   0   3 112.460 7.36888   1
 -20   0   3 207.540 21.5053  -2
  18   0   3 207.540 21.5053   1
 -22   0   3 530.466 27.9131  -2
  20   0   3 530.466 27.9131   1
  21   1   3 199.881 24.0029  -2
 -23   1   3 199.881 24.0029   1
  19   1   3 -10.034 11.1749  -2
 -21   1   3 -10.034 11.1749   1
  17   1   3 61.2046 14.3750  -2
 -19   1   3 61.2046 14.3750   1
  15   1   3 223.939 21.2853  -2
 -17   1   3 223.939 21.2853   1
 -15   1   3 212.739 6.00236   1
 -13   1   3 18.3125 1.78980   1
 -11   1   3 105.167 2.72700   1
  -9   1   3 71.2893 2.26148   1
  -7   1   3 238.761 5.69483   1
  -5   1   3 305.109 13.1410   1
  -3   1   3 39.1601 2.11084   1
  -1   1   3 2.83719 0.97442   1
   1   1   3 3.36552 1.01759   1
   3   1   3 1692.04 46.7980   1
   5   1   3 901.692 20.7490   1
   7   1   3 513.013 9.50156   1
   9   1   3 516.515 9.65728   1
  11   1   3 996.208 17.8542   1
 -15   1   3 261.203 26.2131  -2
  13   1   3 261.203 26.2131   1
 -17   1   3 207.174 25.2627  -2
  15   1   3 207.174 25.2627   1
 -19   1   3 8.11577 23.1808  -2
  17   1   3 8.11577 23.1808   1
 -21   1   3 9.91473 11.3367  -2
  19   1   3 9.91473 11.3367   1
 -23   1   3 181.387 16.8846  -2
  21   1   3 181.387 16.8846   1
  20   2   3 110.510 13.1917  -2
 -22   2   3 110.510 13.1917   1
  18   2   3 940.421 34.4793  -2
 -20   2   3 940.421 34.4793   1
  16   2   3 518.201 35.4631  -2
 -18   2   3 518.201 35.4631   1
 -16   2   3 38.5569 2.79083   1
 -14   2   3 586.028 11.7542   1
 -12   2   3 2062.57 35.4696   1
 -10   2   3 856.047 13.8307   1
  -8   2   3 6.86440 1.24778   1
  -6   2   3 1126.11 27.8409   1
  -4   2   3 6816.34 221.422   1
  -2   2   3 1763.88 48.7337   1
   0   2   3 1443.03 39.3029   1
   2   2   3 1110.96 35.3825   1
   4   2   3 2186.78 52.3647   1
   6   2   3 225.250 5.20447   1
   8   2   3 1206.24 19.9294   1
  10   2   3 6.46501 1.36728   1
  12   2   3 184.901 4.65362   1
  14   2   3 1283.14 25.8442   1
 -18   2   3 851.966 53.6860  -2
  16   2   3 851.966 53.6860   1
  18   2   3 205.639 8.51281   1
 -22   2   3 46.6974 16.2335  -2
  20   2   3 46.6974 16.2335   1
  19   3   3 85.7601 12.1191  -2
 -21   3   3 85.7601 12.1191   1
  17   3   3 35.0429 14.2616  -2
 -19   3   3 35.0429 14.2616   1
  15   3   3 206.129 20.6919  -2
 -17   3   3 206.129 20.6919   1
  13   3   3 124.322 18.1204  -2
 -15   3   3 124.322 18.1204   1
  11   3   3 28.8908 13.6560  -2
 -13   3   3 28.8908 13.6560   1
 -11   3   3 514.918 10.7033   1
   7   3   3 289.215 19.2654  -2
  -9   3   3 289.215 19.2654   1
  -7   3   3 316.744 7.75678   1
  -5   3   3 280.268 8.19999   1
  -3   3   3 1549.70 49.2657   1
  -1   3   3 177.225 5.41359   1
   1   3   3 1714.00 46.7516   1
   3   3   3 2730.03 65.1228   1
   5   3   3 77.0232 3.42120   1
   7   3   3 143.814 3.93291   1
   9   3   3 4.54632 1.33564   1
  11   3   3 278.372 6.00337   1
  13   3   3 736.234 14.4677   1
 -17   3   3 962.079 59.1651  -2
  15   3   3 962.079 59.1651   1
 -19   3   3 268.514 30.2511  -2
  17   3   3 268.514 30.2511   1
 -21   3   3 192.999 18.0663  -2
  19   3   3 192.999 18.0663   1
  21   3   3 10.2659 4.76895   1
  20   4   3 210.618 24.1406  -2
 -22   4   3 210.618 24.1406   1
  18   4   3 33.2644 18.1023  -2
 -20   4   3 33.2644 18.1023   1
  16   4   3 434.596 31.2329  -2
 -18   4   3 434.596 31.2329   1
 -16   4   3 1036.73 23.7633   1
 -14   4   3 614.095 14.6849   1
 -12   4   3 74.8903 3.39642   1
 -10   4   3 952.362 21.1224   1
  -8   4   3 2416.57 48.3220   1
  -6   4   3 666.418 15.1703   1
  -4   4   3 663.764 15.3273   1
  -2   4   3 1660.73 51.3010   1
   0   4   3 553.226 17.6110   1
   2   4   3 674.004 15.0947   1
   4   4   3 6.86499 1.31204   1
   6   4   3 1993.33 38.1553   1
   8   4   3 333.630 8.33248   1
  10   4   3 201.920 5.39984   1
  12   4   3 265.125 6.54657   1
  14   4   3 293.093 7.80479   1
 -18   4   3 132.723 26.4112  -2
  16   4   3 132.723 26.4112   1
 -20   4   3 388.191 24.1228  -2
  18   4   3 388.191 24.1228   1
 -22   4   3 466.765 27.2987  -2
  20   4   3 466.765 27.2987   1
  19   5   3 51.0706 18.8019  -2
 -21   5   3 51.0706 18.8019   1
  17   5   3 112.629 18.9210  -2
 -19   5   3 112.629 18.9210   1
  15   5   3 123.972 17.5355  -2
 -17   5   3 123.972 17.5355   1
 -15   5   3 532.818 14.1948   1
 -13   5   3 25.8291 2.76345   1
 -11   5   3 613.220 14.2108   1
  -9   5   3 1.97006 1.10615   1
  -7   5   3 619.259 13.7766   1
  -5   5   3 170.918 3.66769   1
  -3   5   3 35.1944 1.51894   1
  -1   5   3 99.2221 2.91023   1
   1   5   3 325.179 7.20130   1
   3   5   3 777.700 15.2206   1
   5   5   3 1878.55 35.9180   1
   7   5   3 417.717 8.83830   1
   9   5   3 756.344 17.3803   1
  11   5   3 1095.66 26.6015   1
  13   5   3 97.0386 4.81342   1
  15   5   3 10.3308 2.74011   1
 -19   5   3 37.2771 24.8047  -2
  17   5   3 37.2771 24.8047   1
 -21   5   3 13.7374 25.4833  -2
  19   5   3 13.7374 25.4833   1
  18   6   3 456.511 23.0648  -2
 -20   6   3 456.511 23.0648   1
 -18   6   3 418.537 12.2500   1
 -16   6   3 0.28559 2.55562   1
 -14   6   3 320.850 9.37720   1
 -12   6   3 1724.36 40.6831   1
 -10   6   3 410.401 10.6928   1
  -8   6   3 6.71133 1.23856   1
  -6   6   3 814.948 15.0875   1
  -4   6   3 4100.05 72.7977   1
  -2   6   3 966.665 20.6638   1
   0   6   3 653.266 14.0421   1
   2   6   3 843.551 16.4701   1
   4   6   3 1095.57 18.8975   1
   6   6   3 332.511 7.64896   1
   8   6   3 998.247 20.8688   1
  10   6   3 47.2578 3.01687   1
  12   6   3 165.523 6.17160   1
  14   6   3 491.316 13.5267   1
  16   6   3 492.179 13.8360   1
  18   6   3 16.2377 3.46250   1
 -19   7   3 6.66673 2.99247   1
 -17   7   3 142.013 6.01156   1
 -15   7   3 9.74006 2.58711   1
 -13   7   3 6.23787 2.15199   1
 -11   7   3 203.240 5.74470   1
  -9   7   3 254.251 6.31345   1
  -7   7   3 10.8911 1.22996   1
  -5   7   3 235.626 4.96447   1
  -3   7   3 242.425 5.02072   1
  -1   7   3 175.722 4.18157   1
   1   7   3 655.820 15.2992   1
   3   7   3 1462.85 28.2139   1
   5   7   3 7.90581 1.17561   1
   7   7   3 340.417 7.56811   1
   9   7   3 92.9314 3.90266   1
  11   7   3 378.430 9.93925   1
  13   7   3 253.191 8.21427   1
  15   7   3 602.756 16.1977   1
  17   7   3 148.569 6.74566   1
 -18   8   3 274.597 8.78305   1
 -16   8   3 841.995 21.4478   1
 -14   8   3 423.838 10.5414   1
 -12   8   3 21.9250 2.31459   1
 -10   8   3 546.313 12.2596   1
  -8   8   3 1212.69 22.4047   1
  -6   8   3 390.449 7.83912   1
  -4   8   3 386.592 8.84695   1
  -2   8   3 785.429 17.1375   1
   0   8   3 278.448 7.33869   1
   2   8   3 252.077 6.66316   1
   4   8   3 6.28591 1.31395   1
   6   8   3 1459.83 28.2735   1
   8   8   3 213.398 5.52758   1
  10   8   3 37.2022 2.75400   1
  12   8   3 182.828 6.69601   1
  14   8   3 60.2607 4.27405   1
  16   8   3 76.0735 4.94226   1
 -17   9   3 1.30928 2.68722   1
 -15   9   3 29.7980 3.23130   1
 -13   9   3 6.92158 2.19205   1
 -11   9   3 22.8670 2.32564   1
  -9   9   3 3.28330 1.64487   1
  -7   9   3 17.5477 1.78970   1
  -5   9   3 69.0378 2.91219   1
  -3   9   3 557.001 12.7142   1
  -1   9   3 41.7213 2.60399   1
   1   9   3 74.7534 3.48807   1
   3   9   3 729.524 19.3262   1
   5   9   3 305.883 7.54344   1
   7   9   3 4.52815 1.72657   1
   9   9   3 21.3640 2.40592   1
  11   9   3 259.642 7.68479   1
  13   9   3 459.003 12.7832   1
  15   9   3 78.7294 4.84236   1
 -16  10   3 -1.5159 2.64384   1
 -14  10   3 271.886 9.23053   1
 -12  10   3 1090.56 27.6021   1
 -10  10   3 269.772 8.54835   1
  -8  10   3 17.4066 2.13783   1
  -6  10   3 340.769 9.01592   1
  -4  10   3 1976.98 45.3926   1
  -2  10   3 340.681 9.46023   1
   0  10   3 394.374 11.8310   1
   2  10   3 532.354 14.6972   1
   4  10   3 683.181 18.5331   1
   6  10   3 194.195 6.71173   1
   8  10   3 375.945 10.1262   1
  10  10   3 33.3392 3.24162   1
  12  10   3 55.8024 4.54970   1
  14  10   3 252.364 9.62706   1
 -15  11   3 92.0061 6.15837   1
 -13  11   3 53.6981 4.81213   1
 -11  11   3 14.5113 3.26610   1
  -9  11   3 149.780 6.58213   1
  -7  11   3 354.743 9.63123   1
  -5  11   3 172.399 6.88802   1
  -3  11   3 157.441 6.37620   1
  -1  11   3 88.1969 4.18328   1
   1  11   3 0.67080 1.84518   1
   3  11   3 464.960 13.4017   1
   5  11   3 205.594 8.36529   1
   7  11   3 619.460 18.8342   1
   9  11   3 519.677 16.4442   1
  11  11   3 624.483 25.1936   1
  13  11   3 0.41882 2.84410   1
 -12  12   3 19.6281 4.05898   1
 -10  12   3 386.320 14.5696   1
  -8  12   3 537.111 15.1334   1
  -6  12   3 294.276 11.5492   1
  -4  12   3 286.288 11.0674   1
  -2  12   3 272.121 10.6991   1
   0  12   3 226.429 9.33179   1
   2  12   3 118.078 6.53578   1
   4  12   3 4.82201 2.21526   1
   6  12   3 603.347 22.3601   1
   8  12   3 41.0682 4.00592   1
  10  12   3 31.7021 4.34549   1
  -9  13   3 15.6386 3.42608   1
  -7  13   3 138.131 9.25024   1
  -5  13   3 26.6485 3.87452   1
  -3  13   3 802.045 25.6927   1
  -1  13   3 31.2895 3.96080   1
   1  13   3 195.309 8.95841   1
   3  13   3 458.250 16.2036   1
   5  13   3 53.4024 4.44674   1
   7  13   3 28.7562 4.51064   1
   9  13   3 23.9251 9.47094   1
  -6  14   3 142.597 9.60500   1
  -4  14   3 806.197 30.7568   1
  -2  14   3 128.362 7.55881   1
   0  14   3 207.738 9.63658   1
   2  14   3 206.648 9.61109   1
   4  14   3 355.503 14.1670   1
  20   0   4 100.220 19.4715  -2
 -22   0   4 100.220 19.4715   1
  18   0   4 571.779 27.9087  -2
 -20   0   4 571.779 27.9087   1
  16   0   4 342.381 15.3453  -2
 -18   0   4 342.381 15.3453   1
  14   0   4 191.389 8.98389  -2
 -16   0   4 191.389 8.98389   1
  12   0   4 3320.72 80.6780  -2
 -14   0   4 3320.72 80.6780   1
  10   0   4 203.690 6.80228  -2
 -12   0   4 203.690 6.80228   1
   8   0   4 192.480 6.10845  -2
 -10   0   4 192.480 6.10845   1
   6   0   4 665.079 17.0732  -2
  -8   0   4 665.079 17.0732   1
   4   0   4 331.536 14.3057  -2
  -6   0   4 331.536 14.3057   1
   2   0   4 2154.95 86.3458  -2
  -4   0   4 2154.95 86.3458   1
   0   0   4 6435.59 362.237  -2
  -2   0   4 6435.59 362.237   1
  -4   0   4 2008.56 76.3184  -2
   2   0   4 2008.56 76.3184   1
  -6   0   4 380.807 12.9645  -2
   4   0   4 380.807 12.9645   1
  -8   0   4 1861.12 57.8598  -2
   6   0   4 1861.12 57.8598   1
 -10   0   4 673.075 19.4247  -2
   8   0   4 673.075 19.4247   1
 -12   0   4 233.948 7.63242  -2
  10   0   4 233.948 7.63242   1
 -14   0   4 2651.32 73.0682  -2
  12   0   4 2651.32 73.0682   1
 -16   0   4 510.380 16.5033  -2
  14   0   4 510.380 16.5033   1
 -18   0   4 2565.57 101.270  -2
  16   0   4 2565.57 101.270   1
 -20   0   4 196.411 11.5157  -2
  18   0   4 196.411 11.5157   1
 -22   0   4 493.579 24.5663  -2
  20   0   4 493.579 24.5663   1
  21   1   4 19.0500 19.1962  -2
 -23   1   4 19.0500 19.1962   1
  19   1   4 53.5436 8.29070  -2
 -21   1   4 53.5436 8.29070   1
  17   1   4 536.295 16.1966  -2
 -19   1   4 536.295 16.1966   1
  15   1   4 93.6374 5.82508  -2
 -17   1   4 93.6374 5.82508   1
  13   1   4 315.047 8.08193  -2
 -15   1   4 315.047 8.08193   1
  11   1   4 818.004 14.9428  -2
 -13   1   4 818.004 14.9428   1
   9   1   4 554.202 9.26388  -2
 -11   1   4 554.202 9.26388   1
   7   1   4 1937.90 35.2044  -2
  -9   1   4 1937.90 35.2044   1
   5   1   4 323.100 7.38462  -2
  -7   1   4 323.100 7.38462   1
   3   1   4 17.9829 1.54790  -2
  -5   1   4 17.9829 1.54790   1
   1   1   4 2034.66 66.5604  -2
  -3   1   4 2034.66 66.5604   1
  -1   1   4 498.238 27.1730  -2
  -1   1   4 498.238 27.1730   1
  -3   1   4 2083.80 63.4278  -2
   1   1   4 2083.80 63.4278   1
  -5   1   4 77.8626 2.84004  -2
   3   1   4 77.8626 2.84004   1
  -7   1   4 67.6044 2.30833  -2
   5   1   4 67.6044 2.30833   1
  -9   1   4 475.550 9.98502  -2
   7   1   4 475.550 9.98502   1
 -11   1   4 168.290 4.21858  -2
   9   1   4 168.290 4.21858   1
 -13   1   4 242.042 6.09021  -2
  11   1   4 242.042 6.09021   1
 -15   1   4 72.4256 4.62150  -2
  13   1   4 72.4256 4.62150   1
 -17   1   4 90.2399 5.31714  -2
  15   1   4 90.2399 5.31714   1
 -19   1   4 183.236 7.52087  -2
  17   1   4 183.236 7.52087   1
 -21   1   4 94.5665 7.10331  -2
  19   1   4 94.5665 7.10331   1
 -23   1   4 30.9183 7.65287  -2
  21   1   4 30.9183 7.65287   1
  20   2   4 99.8422 8.59973  -2
 -22   2   4 99.8422 8.59973   1
  18   2   4 254.768 9.29124  -2
 -20   2   4 254.768 9.29124   1
  16   2   4 1069.16 25.7636  -2
 -18   2   4 1069.16 25.7636   1
  14   2   4 405.263 11.4204  -2
 -16   2   4 405.263 11.4204   1
  12   2   4 1034.03 20.7174  -2
 -14   2   4 1034.03 20.7174   1
  10   2   4 961.866 19.1056  -2
 -12   2   4 961.866 19.1056   1
   8   2   4 370.284 6.78525  -2
 -10   2   4 370.284 6.78525   1
   6   2   4 312.293 8.46581  -2
  -8   2   4 312.293 8.46581   1
   4   2   4 164.135 4.41606  -2
  -6   2   4 164.135 4.41606   1
   2   2   4 4494.80 120.774  -2
  -4   2   4 4494.80 120.774   1
   0   2   4 68.0251 2.76761  -2
  -2   2   4 68.0251 2.76761   1
  -2   2   4 338.364 13.4727  -2
   0   2   4 338.364 13.4727   1
  -4   2   4 4246.67 100.951  -2
   2   2   4 4246.67 100.951   1
  -6   2   4 157.720 4.31928  -2
   4   2   4 157.720 4.31928   1
  -8   2   4 1080.89 24.5532  -2
   6   2   4 1080.89 24.5532   1
 -10   2   4 1719.61 31.2537  -2
   8   2   4 1719.61 31.2537   1
 -12   2   4 2720.81 55.5002  -2
  10   2   4 2720.81 55.5002   1
 -14   2   4 1378.57 29.4887  -2
  12   2   4 1378.57 29.4887   1
 -16   2   4 165.057 6.16687  -2
  14   2   4 165.057 6.16687   1
 -18   2   4 315.462 9.96836  -2
  16   2   4 315.462 9.96836   1
 -20   2   4 592.149 17.2302  -2
  18   2   4 592.149 17.2302   1
 -22   2   4 28.8432 6.76029  -2
  20   2   4 28.8432 6.76029   1
  19   3   4 84.8978 7.05800  -2
 -21   3   4 84.8978 7.05800   1
  17   3   4 438.248 13.7666  -2
 -19   3   4 438.248 13.7666   1
  15   3   4 22.2668 4.61968  -2
 -17   3   4 22.2668 4.61968   1
  13   3   4 227.786 6.34094  -2
 -15   3   4 227.786 6.34094   1
  11   3   4 339.784 7.85460  -2
 -13   3   4 339.784 7.85460   1
   9   3   4 678.650 12.9718  -2
 -11   3   4 678.650 12.9718   1
   7   3   4 1911.15 39.1096  -2
  -9   3   4 1911.15 39.1096   1
   5   3   4 186.686 4.16947  -2
  -7   3   4 186.686 4.16947   1
   3   3   4 65.4370 3.18863  -2
  -5   3   4 65.4370 3.18863   1
   1   3   4 2105.86 50.4147  -2
  -3   3   4 2105.86 50.4147   1
  -1   3   4 629.532 14.1072  -2
  -1   3   4 629.532 14.1072   1
  -3   3   4 1510.29 36.2193  -2
   1   3   4 1510.29 36.2193   1
  -5   3   4 83.0716 2.90987  -2
   3   3   4 83.0716 2.90987   1
  -7   3   4 47.3083 2.59964  -2
   5   3   4 47.3083 2.59964   1
  -9   3   4 307.151 8.41121  -2
   7   3   4 307.151 8.41121   1
 -11   3   4 111.344 4.06969  -2
   9   3   4 111.344 4.06969   1
 -13   3   4 70.6988 3.72847  -2
  11   3   4 70.6988 3.72847   1
 -15   3   4 63.1544 4.18345  -2
  13   3   4 63.1544 4.18345   1
 -17   3   4 12.7462 4.61030  -2
  15   3   4 12.7462 4.61030   1
 -19   3   4 113.177 6.82397  -2
  17   3   4 113.177 6.82397   1
 -21   3   4 144.106 8.90824  -2
  19   3   4 144.106 8.90824   1
  20   4   4 365.271 16.7925  -2
 -22   4   4 365.271 16.7925   1
  18   4   4 450.426 14.2244  -2
 -20   4   4 450.426 14.2244   1
  16   4   4 257.180 8.79327  -2
 -18   4   4 257.180 8.79327   1
  14   4   4 104.874 5.48911  -2
 -16   4   4 104.874 5.48911   1
  12   4   4 1222.43 27.4656  -2
 -14   4   4 1222.43 27.4656   1
  10   4   4 335.650 8.56187  -2
 -12   4   4 335.650 8.56187   1
   8   4   4 371.504 8.97279  -2
 -10   4   4 371.504 8.97279   1
   6   4   4 1127.99 22.9711  -2
  -8   4   4 1127.99 22.9711   1
   4   4   4 1386.40 26.0471  -2
  -6   4   4 1386.40 26.0471   1
   2   4   4 512.174 11.8434  -2
  -4   4   4 512.174 11.8434   1
   0   4   4 2460.25 54.1701  -2
  -2   4   4 2460.25 54.1701   1
  -2   4   4 3571.97 85.9279  -2
   0   4   4 3571.97 85.9279   1
  -4   4   4 470.171 12.9586  -2
   2   4   4 470.171 12.9586   1
  -6   4   4 1331.90 31.5493  -2
   4   4   4 1331.90 31.5493   1
  -8   4   4 2251.54 59.9861  -2
   6   4   4 2251.54 59.9861   1
 -10   4   4 1506.07 46.9398  -2
   8   4   4 1506.07 46.9398   1
 -12   4   4 111.592 4.88325  -2
  10   4   4 111.592 4.88325   1
 -14   4   4 964.142 20.8171  -2
  12   4   4 964.142 20.8171   1
 -16   4   4 344.697 9.71206  -2
  14   4   4 344.697 9.71206   1
 -18   4   4 1127.39 32.3764  -2
  16   4   4 1127.39 32.3764   1
 -20   4   4 175.932 9.48637  -2
  18   4   4 175.932 9.48637   1
 -22   4   4 908.818 41.2698  -2
  20   4   4 908.818 41.2698   1
  19   5   4 69.8066 7.72182  -2
 -21   5   4 69.8066 7.72182   1
  17   5   4 441.576 13.7761  -2
 -19   5   4 441.576 13.7761   1
  15   5   4 104.292 6.01193  -2
 -17   5   4 104.292 6.01193   1
  13   5   4 286.121 9.09390  -2
 -15   5   4 286.121 9.09390   1
  11   5   4 885.291 21.8411  -2
 -13   5   4 885.291 21.8411   1
   9   5   4 290.933 7.51196  -2
 -11   5   4 290.933 7.51196   1
   7   5   4 1314.14 26.7001  -2
  -9   5   4 1314.14 26.7001   1
   5   5   4 413.453 8.33977  -2
  -7   5   4 413.453 8.33977   1
   3   5   4 55.6693 1.85973  -2
  -5   5   4 55.6693 1.85973   1
   1   5   4 1227.14 27.7629  -2
  -3   5   4 1227.14 27.7629   1
  -1   5   4 291.329 7.89689  -2
  -1   5   4 291.329 7.89689   1
  -3   5   4 1577.53 30.1155  -2
   1   5   4 1577.53 30.1155   1
  -5   5   4 98.9925 2.43490  -2
   3   5   4 98.9925 2.43490   1
  -7   5   4 112.671 3.15369  -2
   5   5   4 112.671 3.15369   1
  -9   5   4 432.644 11.3488  -2
   7   5   4 432.644 11.3488   1
 -11   5   4 213.336 7.55923  -2
   9   5   4 213.336 7.55923   1
 -13   5   4 430.544 13.2364  -2
  11   5   4 430.544 13.2364   1
 -15   5   4 69.2606 5.57915  -2
  13   5   4 69.2606 5.57915   1
 -17   5   4 112.075 6.33542  -2
  15   5   4 112.075 6.33542   1
 -19   5   4 151.557 8.92924  -2
  17   5   4 151.557 8.92924   1
 -21   5   4 82.3770 8.26664  -2
  19   5   4 82.3770 8.26664   1
  18   6   4 157.635 7.77615  -2
 -20   6   4 157.635 7.77615   1
  16   6   4 220.999 8.60903  -2
 -18   6   4 220.999 8.60903   1
  14   6   4 163.665 6.85954  -2
 -16   6   4 163.665 6.85954   1
  12   6   4 30.6540 4.16649  -2
 -14   6   4 30.6540 4.16649   1
  10   6   4 1171.54 28.1367  -2
 -12   6   4 1171.54 28.1367   1
   8   6   4 267.391 7.50071  -2
 -10   6   4 267.391 7.50071   1
   6   6   4 61.3303 2.51271  -2
  -8   6   4 61.3303 2.51271   1
   4   6   4 1351.18 25.6775  -2
  -6   6   4 1351.18 25.6775   1
   2   6   4 893.600 14.7107  -2
  -4   6   4 893.600 14.7107   1
   0   6   4 881.621 15.2296  -2
  -2   6   4 881.621 15.2296   1
  -2   6   4 1550.11 29.5296  -2
   0   6   4 1550.11 29.5296   1
  -4   6   4 951.260 17.2627  -2
   2   6   4 951.260 17.2627   1
  -6   6   4 1297.52 29.1067  -2
   4   6   4 1297.52 29.1067   1
  -8   6   4 179.484 4.77341  -2
   6   6   4 179.484 4.77341   1
 -10   6   4 186.317 6.76993  -2
   8   6   4 186.317 6.76993   1
 -12   6   4 2851.49 73.8184  -2
  10   6   4 2851.49 73.8184   1
 -14   6   4 98.4691 6.02967  -2
  12   6   4 98.4691 6.02967   1
 -16   6   4 51.2986 5.59745  -2
  14   6   4 51.2986 5.59745   1
 -18   6   4 725.178 21.4917  -2
  16   6   4 725.178 21.4917   1
 -20   6   4 459.976 16.0674  -2
  18   6   4 459.976 16.0674   1
  17   7   4 389.378 12.2479  -2
 -19   7   4 389.378 12.2479   1
  15   7   4 62.2294 5.56770  -2
 -17   7   4 62.2294 5.56770   1
  13   7   4 113.910 5.77892  -2
 -15   7   4 113.910 5.77892   1
  11   7   4 172.824 6.42554  -2
 -13   7   4 172.824 6.42554   1
   9   7   4 650.866 15.0637  -2
 -11   7   4 650.866 15.0637   1
   7   7   4 1095.66 21.3606  -2
  -9   7   4 1095.66 21.3606   1
   5   7   4 42.4199 2.06346  -2
  -7   7   4 42.4199 2.06346   1
   3   7   4 104.889 2.72321  -2
  -5   7   4 104.889 2.72321   1
   1   7   4 1236.34 20.3177  -2
  -3   7   4 1236.34 20.3177   1
  -1   7   4 349.576 6.77660  -2
  -1   7   4 349.576 6.77660   1
  -3   7   4 860.754 17.8558  -2
   1   7   4 860.754 17.8558   1
  -5   7   4 23.2734 1.52458  -2
   3   7   4 23.2734 1.52458   1
  -7   7   4 97.3835 3.21469  -2
   5   7   4 97.3835 3.21469   1
  -9   7   4 237.667 6.54768  -2
   7   7   4 237.667 6.54768   1
 -11   7   4 128.779 5.95395  -2
   9   7   4 128.779 5.95395   1
 -13   7   4 42.0230 4.92282  -2
  11   7   4 42.0230 4.92282   1
 -15   7   4 31.6567 5.15489  -2
  13   7   4 31.6567 5.15489   1
 -17   7   4 28.7315 5.50462  -2
  15   7   4 28.7315 5.50462   1
 -19   7   4 127.950 7.77701  -2
  17   7   4 127.950 7.77701   1
  16   8   4 450.114 13.4058  -2
 -18   8   4 450.114 13.4058   1
  14   8   4 31.6982 5.02490  -2
 -16   8   4 31.6982 5.02490   1
  12   8   4 146.282 6.19671  -2
 -14   8   4 146.282 6.19671   1
  10   8   4 394.334 10.9111  -2
 -12   8   4 394.334 10.9111   1
   8   8   4 893.841 18.9458  -2
 -10   8   4 893.841 18.9458   1
   6   8   4 1228.10 22.7036  -2
  -8   8   4 1228.10 22.7036   1
   4   8   4 1949.77 35.1660  -2
  -6   8   4 1949.77 35.1660   1
   2   8   4 11.6297 1.35989  -2
  -4   8   4 11.6297 1.35989   1
   0   8   4 396.502 8.24212  -2
  -2   8   4 396.502 8.24212   1
  -2   8   4 802.253 18.5856  -2
   0   8   4 802.253 18.5856   1
  -4   8   4 4.41693 1.53991  -2
   2   8   4 4.41693 1.53991   1
  -6   8   4 1940.68 43.7539  -2
   4   8   4 1940.68 43.7539   1
  -8   8   4 2028.24 45.4903  -2
   6   8   4 2028.24 45.4903   1
 -10   8   4 2321.09 55.2097  -2
   8   8   4 2321.09 55.2097   1
 -12   8   4 74.3961 5.14231  -2
  10   8   4 74.3961 5.14231   1
 -14   8   4 106.144 6.34299  -2
  12   8   4 106.144 6.34299   1
 -16   8   4 136.096 7.39361  -2
  14   8   4 136.096 7.39361   1
 -18   8   4 310.985 11.5772  -2
  16   8   4 310.985 11.5772   1
  15   9   4 15.6785 4.73624  -2
 -17   9   4 15.6785 4.73624   1
  13   9   4 243.013 8.03009  -2
 -15   9   4 243.013 8.03009   1
  11   9   4 482.030 12.4613  -2
 -13   9   4 482.030 12.4613   1
   9   9   4 118.045 4.80958  -2
 -11   9   4 118.045 4.80958   1
   7   9   4 851.247 17.0905  -2
  -9   9   4 851.247 17.0905   1
   5   9   4 420.719 9.86879  -2
  -7   9   4 420.719 9.86879   1
   3   9   4 121.999 3.71281  -2
  -5   9   4 121.999 3.71281   1
   1   9   4 635.724 13.0247  -2
  -3   9   4 635.724 13.0247   1
  -1   9   4 228.473 6.33385  -2
  -1   9   4 228.473 6.33385   1
  -3   9   4 822.513 21.4160  -2
   1   9   4 822.513 21.4160   1
  -5   9   4 246.939 6.75960  -2
   3   9   4 246.939 6.75960   1
  -7   9   4 142.594 4.61810  -2
   5   9   4 142.594 4.61810   1
  -9   9   4 187.733 6.35838  -2
   7   9   4 187.733 6.35838   1
 -11   9   4 138.466 6.40396  -2
   9   9   4 138.466 6.40396   1
 -13   9   4 181.337 7.63912  -2
  11   9   4 181.337 7.63912   1
 -15   9   4 106.641 6.65822  -2
  13   9   4 106.641 6.65822   1
 -17   9   4 3.92996 5.48588  -2
  15   9   4 3.92996 5.48588   1
  14  10   4 77.3150 5.54718  -2
 -16  10   4 77.3150 5.54718   1
  12  10   4 7.43269 4.57021  -2
 -14  10   4 7.43269 4.57021   1
  10  10   4 700.904 18.6304  -2
 -12  10   4 700.904 18.6304   1
   8  10   4 200.986 7.75699  -2
 -10  10   4 200.986 7.75699   1
   6  10   4 40.0315 2.84741  -2
  -8  10   4 40.0315 2.84741   1
   4  10   4 832.336 19.6164  -2
  -6  10   4 832.336 19.6164   1
   2  10   4 356.225 8.37585  -2
  -4  10   4 356.225 8.37585   1
   0  10   4 521.431 12.0039  -2
  -2  10   4 521.431 12.0039   1
  -2  10   4 857.151 22.3277  -2
   0  10   4 857.151 22.3277   1
  -4  10   4 394.202 11.2386  -2
   2  10   4 394.202 11.2386   1
  -6  10   4 742.616 19.8887  -2
   4  10   4 742.616 19.8887   1
  -8  10   4 72.5383 3.98498  -2
   6  10   4 72.5383 3.98498   1
 -10  10   4 96.2295 5.23599  -2
   8  10   4 96.2295 5.23599   1
 -12  10   4 1564.49 47.6195  -2
  10  10   4 1564.49 47.6195   1
 -14  10   4 27.4213 5.65437  -2
  12  10   4 27.4213 5.65437   1
 -16  10   4 23.0574 6.15848  -2
  14  10   4 23.0574 6.15848   1
  13  11   4 23.8618 5.88768  -2
 -15  11   4 23.8618 5.88768   1
  11  11   4 66.9853 5.94374  -2
 -13  11   4 66.9853 5.94374   1
   9  11   4 394.300 14.8337  -2
 -11  11   4 394.300 14.8337   1
   7  11   4 532.028 16.1472  -2
  -9  11   4 532.028 16.1472   1
   5  11   4 20.4462 2.76364  -2
  -7  11   4 20.4462 2.76364   1
   3  11   4 117.185 4.11912  -2
  -5  11   4 117.185 4.11912   1
   1  11   4 662.307 16.2504  -2
  -3  11   4 662.307 16.2504   1
  -1  11   4 131.732 4.68347  -2
  -1  11   4 131.732 4.68347   1
  -3  11   4 355.651 9.54458  -2
   1  11   4 355.651 9.54458   1
  -5  11   4 76.5301 4.48225  -2
   3  11   4 76.5301 4.48225   1
  -7  11   4 79.0257 4.62832  -2
   5  11   4 79.0257 4.62832   1
  -9  11   4 183.143 8.42529  -2
   7  11   4 183.143 8.42529   1
 -11  11   4 67.1407 7.51892  -2
   9  11   4 67.1407 7.51892   1
 -13  11   4 18.1734 7.03840  -2
  11  11   4 18.1734 7.03840   1
 -15  11   4 25.5796 6.18211  -2
  13  11   4 25.5796 6.18211   1
  10  12   4 117.342 7.56605  -2
 -12  12   4 117.342 7.56605   1
   8  12   4 169.208 8.08088  -2
 -10  12   4 169.208 8.08088   1
   6  12   4 389.919 11.5142  -2
  -8  12   4 389.919 11.5142   1
   4  12   4 433.468 14.1109  -2
  -6  12   4 433.468 14.1109   1
   2  12   4 69.9450 6.02605  -2
  -4  12   4 69.9450 6.02605   1
   0  12   4 477.090 18.7475  -2
  -2  12   4 477.090 18.7475   1
  -2  12   4 742.314 23.2766  -2
   0  12   4 742.314 23.2766   1
  -4  12   4 55.1303 3.61696  -2
   2  12   4 55.1303 3.61696   1
  -6  12   4 391.701 13.3737  -2
   4  12   4 391.701 13.3737   1
  -8  12   4 801.100 28.2604  -2
   6  12   4 801.100 28.2604   1
 -10  12   4 705.711 27.8007  -2
   8  12   4 705.711 27.8007   1
 -12  12   4 26.0575 7.00608  -2
  10  12   4 26.0575 7.00608   1
   7  13   4 378.148 13.0787  -2
  -9  13   4 378.148 13.0787   1
   5  13   4 206.767 10.9785  -2
  -7  13   4 206.767 10.9785   1
   3  13   4 111.377 7.66351  -2
  -5  13   4 111.377 7.66351   1
   1  13   4 205.193 10.4836  -2
  -3  13   4 205.193 10.4836   1
  -1  13   4 144.007 8.44446  -2
  -1  13   4 144.007 8.44446   1
  -3  13   4 546.606 18.1749  -2
   1  13   4 546.606 18.1749   1
  -5  13   4 223.644 9.52478  -2
   3  13   4 223.644 9.52478   1
  -7  13   4 65.0034 4.90614  -2
   5  13   4 65.0034 4.90614   1
  -9  13   4 95.0526 7.74213  -2
   7  13   4 95.0526 7.74213   1
   2  14   4 441.915 18.4252  -2
  -4  14   4 441.915 18.4252   1
   0  14   4 20.7057 5.48057  -2
  -2  14   4 20.7057 5.48057   1
  -2  14   4 94.0028 7.30127  -2
   0  14   4 94.0028 7.30127   1
  -4  14   4 502.232 20.2969  -2
   2  14   4 502.232 20.2969   1
 -22   0   5 215.619 21.9804   1
 -20   0   5 108.653 9.60495   1
 -18   0   5 373.532 15.6687   1
 -16   0   5 427.171 14.3385   1
 -14   0   5 1963.37 48.4690   1
 -12   0   5 414.081 11.4957   1
 -10   0   5 36.2807 2.49285   1
  -8   0   5 253.774 7.28122   1
  -6   0   5 2092.57 51.3378   1
  -4   0   5 643.785 26.6566   1
  -2   0   5 135.737 9.52089   1
   0   0   5 344.273 18.8882   1
   2   0   5 1477.63 45.6820   1
   4   0   5 38.0480 2.35786   1
   6   0   5 1032.05 32.8735   1
   8   0   5 669.401 17.1956   1
  10   0   5 481.120 14.9571   1
  12   0   5 25.9361 3.47268   1
  14   0   5 124.142 7.79900   1
  16   0   5 62.6464 6.09804   1
  18   0   5 399.187 16.7230   1
  20   0   5 78.9910 8.21403   1
 -23   1   5 114.713 8.52387   1
 -21   1   5 789.080 25.2106   1
 -19   1   5 89.6732 5.56640   1
 -17   1   5 2.72997 2.41730   1
 -15   1   5 181.396 5.55107   1
 -13   1   5 32.1871 2.03409   1
 -11   1   5 2.82211 1.14782   1
  -9   1   5 178.647 4.20533   1
  -7   1   5 556.061 10.6758   1
  -5   1   5 92.2874 3.00622   1
  -3   1   5 54.3333 2.89442   1
  -1   1   5 2.28806 0.83152   1
   1   1   5 222.870 5.90787   1
   3   1   5 509.338 10.1784   1
  -7   1   5 2143.06 123.432  -2
   5   1   5 2143.06 123.432   1
   7   1   5 27.1555 1.68249   1
   9   1   5 196.318 5.16639   1
  11   1   5 1052.02 21.3193   1
  13   1   5 183.810 6.23619   1
  15   1   5 13.7010 2.70871   1
  17   1   5 31.0986 3.84016   1
  19   1   5 197.826 8.57923   1
 -22   2   5 -1.2746 3.97670   1
 -20   2   5 33.7546 3.91686   1
 -18   2   5 314.337 9.71213   1
 -16   2   5 992.619 23.8211   1
 -14   2   5 266.456 6.71058   1
 -12   2   5 19.0179 1.93392   1
 -10   2   5 1948.52 31.7363   1
  -8   2   5 2294.72 37.0807   1
  -6   2   5 18.6327 1.29093   1
  -4   2   5 174.776 5.58691   1
  -2   2   5 2028.02 54.2649   1
   0   2   5 2510.66 53.9218   1
   2   2   5 291.738 7.02417   1
   4   2   5 91.2210 2.91584   1
   6   2   5 673.117 12.6049   1
   8   2   5 1790.12 32.5934   1
  10   2   5 45.0723 2.52747   1
  12   2   5 73.1684 3.62584   1
  14   2   5 73.1136 3.92140   1
  16   2   5 991.149 24.3667   1
  18   2   5 474.464 14.5810   1
  20   2   5 18.0673 4.50864   1
 -21   3   5 208.763 8.90973   1
 -19   3   5 13.8696 3.57526   1
 -17   3   5 380.666 9.93800   1
 -15   3   5 4.26955 1.95283   1
 -13   3   5 371.015 8.37722   1
 -11   3   5 374.839 7.75898   1
  -9   3   5 13.0358 1.30295   1
  -7   3   5 161.551 3.82830   1
  -5   3   5 480.439 11.1117   1
  -3   3   5 1895.31 45.5259   1
  -1   3   5 165.847 5.19588   1
   1   3   5 1883.75 44.8392   1
   3   3   5 504.257 12.8208   1
   5   3   5 280.334 6.91734   1
   7   3   5 153.688 4.70093   1
   9   3   5 266.573 6.76801   1
  11   3   5 737.073 16.2819   1
  13   3   5 1055.31 24.9653   1
  15   3   5 60.9117 4.03735   1
  17   3   5 231.372 9.07987   1
  19   3   5 488.605 16.9033   1
 -22   4   5 192.981 8.64233   1
 -20   4   5 199.415 8.49820   1
 -18   4   5 275.650 8.74579   1
 -16   4   5 227.046 6.85962   1
 -14   4   5 1776.08 39.0965   1
 -12   4   5 288.631 7.65886   1
 -10   4   5 48.7246 2.49112   1
  -8   4   5 188.248 5.03364   1
  -6   4   5 1554.17 29.2115   1
  -4   4   5 444.501 7.88594   1
  -2   4   5 92.9013 2.64736   1
   0   4   5 432.842 10.0227   1
   2   4   5 1099.48 22.1169   1
   4   4   5 121.883 3.65503   1
   6   4   5 592.517 16.2976   1
   8   4   5 322.996 8.90543   1
  10   4   5 614.679 15.8261   1
  12   4   5 69.0688 3.96136   1
  14   4   5 258.146 8.04734   1
  16   4   5 106.000 6.60320   1
  18   4   5 147.780 7.99937   1
 -21   5   5 940.591 25.5996   1
 -19   5   5 240.813 8.13626   1
 -17   5   5 68.8252 4.63764   1
 -15   5   5 250.047 8.16230   1
 -13   5   5 3.26556 2.08659   1
 -11   5   5 57.5635 2.87349   1
  -9   5   5 159.563 4.61733   1
  -7   5   5 1330.56 25.2220   1
  -5   5   5 3.45192 0.76108   1
  -3   5   5 138.327 3.13029   1
  -1   5   5 80.6088 2.47744   1
   1   5   5 14.8438 0.91307   1
   3   5   5 335.040 6.31800   1
   5   5   5 2507.80 53.5330   1
   7   5   5 3.88597 1.89488   1
   9   5   5 738.735 20.4598   1
  11   5   5 905.997 24.9789   1
  13   5   5 13.1031 2.97624   1
  15   5   5 18.8233 3.35721   1
  17   5   5 7.17490 3.93113   1
  19   5   5 67.0288 13.4502   1
 -20   6   5 2.65740 3.22705   1
 -18   6   5 197.393 7.63097   1
 -16   6   5 519.694 14.2013   1
 -14   6   5 148.655 5.88359   1
 -12   6   5 48.7328 3.18446   1
 -10   6   5 1543.99 36.3002   1
  -8   6   5 1594.75 30.4484   1
  -6   6   5 29.8861 1.49469   1
  -4   6   5 190.161 3.71762   1
  -2   6   5 1270.66 20.8904   1
   0   6   5 2005.26 35.9050   1
   2   6   5 100.674 2.67569   1
   4   6   5 6.45625 1.09936   1
   6   6   5 265.905 7.47413   1
   8   6   5 833.437 22.7165   1
  10   6   5 152.079 6.40970   1
  12   6   5 0.64504 2.75986   1
  14   6   5 219.885 8.75131   1
  16   6   5 887.436 25.3983   1
  18   6   5 124.001 7.56243   1
 -19   7   5 0.45584 3.06017   1
 -17   7   5 213.275 7.78517   1
 -15   7   5 50.9229 3.89032   1
 -13   7   5 115.914 4.81673   1
 -11   7   5 55.5871 3.09658   1
  -9   7   5 114.384 3.82264   1
  -7   7   5 42.3633 1.93162   1
  -5   7   5 240.011 5.12259   1
  -3   7   5 748.390 13.2511   1
  -1   7   5 171.392 3.81027   1
   1   7   5 417.488 8.64665   1
   3   7   5 356.888 7.18559   1
   5   7   5 533.008 11.5575   1
   7   7   5 160.414 5.51596   1
   9   7   5 106.217 5.19853   1
  11   7   5 710.899 20.1888   1
  13   7   5 612.642 18.1092   1
  15   7   5 5.06763 3.32437   1
  17   7   5 48.6688 4.99822   1
 -18   8   5 175.038 6.99038   1
 -16   8   5 73.6111 4.50001   1
 -14   8   5 1112.98 27.2868   1
 -12   8   5 130.884 5.09076   1
 -10   8   5 21.7372 2.27117   1
  -8   8   5 109.347 3.69224   1
  -6   8   5 975.645 18.1889   1
  -4   8   5 254.333 5.18301   1
  -2   8   5 79.6774 2.63169   1
   0   8   5 291.629 6.84257   1
   2   8   5 497.621 11.0568   1
   4   8   5 137.180 4.01302   1
   6   8   5 191.832 6.09785   1
   8   8   5 118.064 4.93087   1
  10   8   5 604.530 16.0480   1
  12   8   5 73.8076 4.85707   1
  14   8   5 336.858 11.5574   1
  16   8   5 82.7790 5.95148   1
 -17   9   5 3.66138 2.76832   1
 -15   9   5 1.35656 2.43338   1
 -13   9   5 121.839 5.36226   1
 -11   9   5 109.746 4.53982   1
  -9   9   5 15.9254 1.96679   1
  -7   9   5 125.388 4.17733   1
  -5   9   5 51.9163 2.96982   1
  -3   9   5 117.922 3.75286   1
  -1   9   5 51.5930 2.43002   1
   1   9   5 753.069 16.2311   1
   3   9   5 165.561 4.77615   1
   5   9   5 310.399 8.91291   1
   7   9   5 5.66689 2.38084   1
   9   9   5 92.4560 4.88276   1
  11   9   5 330.440 10.9459   1
  13   9   5 197.672 8.17571   1
  15   9   5 123.436 6.78091   1
 -16  10   5 297.301 9.56871   1
 -14  10   5 150.498 5.91441   1
 -12  10   5 35.8403 3.41426   1
 -10  10   5 602.974 18.1381   1
  -8  10   5 890.083 21.2562   1
  -6  10   5 6.61117 1.90880   1
  -4  10   5 89.1986 3.93757   1
  -2  10   5 794.433 18.8275   1
   0  10   5 971.115 22.7019   1
   2  10   5 9.10054 1.75020   1
   4  10   5 18.2375 2.32694   1
   6  10   5 95.5608 4.61022   1
   8  10   5 515.725 17.3136   1
  10  10   5 116.703 6.82265   1
  12  10   5 9.22418 3.62742   1
  14  10   5 168.285 9.08464   1
 -13  11   5 2.92528 3.17418   1
 -11  11   5 90.2388 5.53072   1
  -9  11   5 343.145 11.4266   1
  -7  11   5 77.8172 4.13158   1
  -5  11   5 28.7813 2.63560   1
  -3  11   5 3.96395 2.09950   1
  -1  11   5 75.7288 4.02681   1
   1  11   5 63.0062 3.75511   1
   3  11   5 265.603 9.87156   1
   5  11   5 1262.94 40.2202   1
   7  11   5 99.6823 7.05797   1
   9  11   5 30.4665 5.27039   1
  11  11   5 605.960 20.5622   1
 -12  12   5 99.5766 6.89572   1
 -10  12   5 1.05457 2.94645   1
  -8  12   5 50.7977 3.83648   1
  -6  12   5 664.310 18.0372   1
  -4  12   5 207.536 8.28636   1
  -2  12   5 63.4513 4.36930   1
   0  12   5 62.9962 4.34717   1
   2  12   5 235.734 9.11580   1
   4  12   5 35.8416 4.92660   1
   6  12   5 103.287 7.09047   1
   8  12   5 142.183 8.89914   1
  10  12   5 277.220 13.7060   1
  -9  13   5 67.7322 4.99452   1
  -7  13   5 11.2476 2.47369   1
  -5  13   5 53.2595 5.76755   1
  -3  13   5 184.187 10.4873   1
  -1  13   5 34.3340 4.76026   1
   1  13   5 897.715 27.3008   1
   3  13   5 60.1412 4.62934   1
   5  13   5 16.4707 3.72809   1
   7  13   5 17.2700 6.35371   1
  -4  14   5 45.5931 9.47372   1
  -2  14   5 380.409 16.9968   1
   0  14   5 292.935 14.2027   1
 -22   0   6 766.760 50.9944   1
 -20   0   6 65.8971 12.0296   1
 -18   0   6 287.223 13.1912   1
 -16   0   6 196.543 8.58844   1
 -14   0   6 8.35555 2.41276   1
 -12   0   6 138.534 5.33222   1
 -10   0   6 2614.17 69.8950   1
  -8   0   6 383.683 11.3396   1
  -6   0   6 4293.68 115.942   1
  -4   0   6 1532.45 41.9189   1
  -2   0   6 374.393 12.4044   1
   0   0   6 974.367 26.2912   1
   2   0   6 116.249 3.87910   1
   4   0   6 2665.56 70.6369   1
   6   0   6 465.170 15.8813   1
   8   0   6 12.9642 2.37142   1
  10   0   6 1329.51 37.6382   1
  12   0   6 1058.73 30.7960   1
  14   0   6 23.7707 4.74503   1
  16   0   6 1517.20 50.9783   1
  18   0   6 171.954 10.4473   1
 -21   1   6 51.3653 5.64923   1
 -19   1   6 248.862 9.68911   1
 -17   1   6 230.064 7.97199   1
 -15   1   6 182.231 5.99413   1
 -13   1   6 0.33137 1.59823   1
 -11   1   6 194.186 4.17685   1
  -9   1   6 842.346 14.0355   1
  -7   1   6 105.486 3.00988   1
  -5   1   6 36.6068 1.71871   1
  -3   1   6 521.133 13.1593   1
  -1   1   6 762.969 18.8820   1
   1   1   6 86.4615 2.48065   1
   3   1   6 63.5654 2.20200   1
   5   1   6 457.799 10.0180   1
   7   1   6 358.530 7.33565   1
   9   1   6 8.08156 1.75140   1
  11   1   6 36.7437 2.69320   1
  13   1   6 144.985 5.59835   1
  15   1   6 74.2563 4.50416   1
  17   1   6 -0.0306 3.24479   1
  19   1   6 -0.5400 3.80419   1
 -22   2   6 242.743 11.1074   1
 -20   2   6 1205.31 28.9827   1
 -18   2   6 109.373 5.44869   1
 -16   2   6 131.769 5.70721   1
 -14   2   6 5.51388 1.87041   1
 -12   2   6 1784.94 34.3977   1
 -10   2   6 1155.83 20.0239   1
  -8   2   6 490.311 8.53337   1
  -6   2   6 381.766 8.52170   1
  -4   2   6 352.484 8.52496   1
  -2   2   6 24.9255 1.41179   1
   0   2   6 30.7903 1.39918   1
   2   2   6 64.3361 2.50774   1
   4   2   6 1327.66 25.2419   1
   6   2   6 3792.58 71.4745   1
   8   2   6 61.7707 2.69752   1
  10   2   6 103.457 4.13726   1
  12   2   6 52.9655 3.34114   1
  14   2   6 1014.16 24.7675   1
  16   2   6 38.4635 3.81014   1
  18   2   6 40.2504 4.33091   1
 -21   3   6 4.58238 3.57217   1
 -19   3   6 95.0383 5.82381   1
 -17   3   6 188.153 6.54136   1
 -15   3   6 276.573 7.07695   1
 -13   3   6 3.24917 1.71873   1
 -11   3   6 85.4459 3.05071   1
  -9   3   6 933.381 17.3608   1
  -7   3   6 150.696 3.55926   1
  -5   3   6 9.89603 1.08430   1
  -3   3   6 354.043 9.14236   1
  -1   3   6 1107.69 24.6475   1
   1   3   6 40.9674 1.44214   1
   3   3   6 26.3699 1.66598   1
   5   3   6 161.058 4.64108   1
   7   3   6 145.842 4.73706   1
   9   3   6 14.7726 2.00193   1
  11   3   6 153.852 5.25992   1
  13   3   6 38.2488 3.41658   1
  15   3   6 12.7511 3.13409   1
  17   3   6 13.1786 3.59790   1
  19   3   6 77.4316 6.23007   1
 -22   4   6 297.129 18.9037   1
 -20   4   6 27.4284 4.02835   1
 -18   4   6 767.665 18.9954   1
 -16   4   6 104.252 4.59696   1
 -14   4   6 324.023 8.79726   1
 -12   4   6 118.684 4.34419   1
 -10   4   6 775.653 17.4944   1
  -8   4   6 229.050 5.92023   1
  -6   4   6 1428.78 28.7447   1
  -4   4   6 1656.11 29.3981   1
  -2   4   6 1468.95 25.3306   1
   0   4   6 278.952 5.52166   1
   2   4   6 100.144 2.76142   1
   4   4   6 1118.17 24.1161   1
   6   4   6 21.7814 2.01802   1
   8   4   6 154.238 5.42690   1
  10   4   6 584.614 15.2956   1
  12   4   6 1650.37 40.0286   1
  14   4   6 2.89478 3.46237   1
  16   4   6 737.024 20.4559   1
  18   4   6 254.619 11.1997   1
 -21   5   6 83.4695 5.81420   1
 -19   5   6 360.992 11.6046   1
 -17   5   6 149.873 6.56402   1
 -15   5   6 88.4779 4.78085   1
 -13   5   6 13.2040 2.38048   1
 -11   5   6 244.788 6.69151   1
  -9   5   6 553.256 12.7886   1
  -7   5   6 66.9192 2.54812   1
  -5   5   6 60.5401 1.99369   1
  -3   5   6 624.253 11.1429   1
  -1   5   6 324.381 6.41271   1
   1   5   6 46.7315 1.61193   1
   3   5   6 204.002 4.43138   1
   5   5   6 521.070 13.0191   1
   7   5   6 329.659 10.0706   1
   9   5   6 13.1072 2.65600   1
  11   5   6 18.5258 3.15224   1
  13   5   6 231.067 8.25488   1
  15   5   6 185.725 10.3775   1
  17   5   6 2.35315 3.98111   1
 -20   6   6 653.039 17.7777   1
 -18   6   6 44.3645 4.24064   1
 -16   6   6 160.926 6.56812   1
 -14   6   6 397.683 11.1993   1
 -12   6   6 1244.40 29.8245   1
 -10   6   6 7.49200 1.86307   1
  -8   6   6 439.025 9.81365   1
  -6   6   6 159.691 4.25034   1
  -4   6   6 544.579 9.78463   1
  -2   6   6 657.133 13.0138   1
   0   6   6 84.2250 2.60866   1
   2   6   6 910.302 17.6045   1
   4   6   6 215.920 5.04354   1
   6   6   6 1068.91 28.4615   1
   8   6   6 84.9266 4.54674   1
  10   6   6 40.3185 3.64114   1
  12   6   6 78.7207 5.10653   1
  14   6   6 1271.81 34.8847   1
  16   6   6 346.164 11.2950   1
 -19   7   6 35.6011 3.97494   1
 -17   7   6 213.108 7.87630   1
 -15   7   6 218.008 7.66014   1
 -13   7   6 48.6646 3.36388   1
 -11   7   6 35.4363 2.71839   1
  -9   7   6 634.217 13.7554   1
  -7   7   6 79.8850 2.99105   1
  -5   7   6 5.11895 1.20830   1
  -3   7   6 54.2612 2.09425   1
  -1   7   6 896.345 16.4529   1
   1   7   6 94.6961 3.05890   1
   3   7   6 38.8512 2.15708   1
   5   7   6 84.4284 3.38023   1
   7   7   6 231.346 7.15592   1
   9   7   6 6.16581 2.58766   1
  11   7   6 22.2441 3.42130   1
  13   7   6 -0.8506 2.99324   1
  15   7   6 9.51031 3.63115   1
 -18   8   6 1129.67 28.2127   1
 -16   8   6 38.8328 3.63281   1
 -14   8   6 725.927 18.6666   1
 -12   8   6 61.8678 3.49377   1
 -10   8   6 31.9218 2.62093   1
  -8   8   6 76.2699 3.17043   1
  -6   8   6 92.5717 3.10401   1
  -4   8   6 1336.48 23.0408   1
  -2   8   6 2144.56 41.1049   1
   0   8   6 24.8004 1.67330   1
   2   8   6 580.457 14.7904   1
   4   8   6 258.227 7.33526   1
   6   8   6 109.032 4.49309   1
   8   8   6 438.269 12.0043   1
  10   8   6 96.0616 5.27046   1
  12   8   6 1715.21 45.7961   1
  14   8   6 52.5838 4.83620   1
 -17   9   6 34.5578 3.62396   1
 -15   9   6 46.3415 3.75942   1
 -13   9   6 68.1845 4.07132   1
 -11   9   6 227.027 6.93561   1
  -9   9   6 345.666 8.39677   1
  -7   9   6 63.0708 2.77111   1
  -5   9   6 71.5592 3.19638   1
  -3   9   6 714.110 15.5160   1
  -1   9   6 210.331 5.52488   1
   1   9   6 5.46232 1.49964   1
   3   9   6 90.3641 3.87846   1
   5   9   6 321.534 10.1445   1
   7   9   6 37.0711 2.97293   1
   9   9   6 15.1663 2.99783   1
  11   9   6 156.324 7.07086   1
  13   9   6 230.892 9.11972   1
 -16  10   6 97.5889 5.08972   1
 -14  10   6 302.909 9.39007   1
 -12  10   6 690.624 16.7614   1
 -10  10   6 2.75396 2.49923   1
  -8  10   6 235.741 7.57934   1
  -6  10   6 138.353 5.33297   1
  -4  10   6 291.907 8.72025   1
  -2  10   6 470.547 11.8040   1
   0  10   6 59.3812 3.10705   1
   2  10   6 561.441 16.5168   1
   4  10   6 98.9567 4.70523   1
   6  10   6 494.297 16.4201   1
   8  10   6 47.5559 4.50041   1
  10  10   6 51.8630 4.91931   1
  12  10   6 53.7660 5.30728   1
 -13  11   6 84.0715 5.86092   1
 -11  11   6 10.3918 3.06697   1
  -9  11   6 445.517 14.0697   1
  -7  11   6 54.0870 3.51421   1
  -5  11   6 36.8813 2.96915   1
  -3  11   6 6.68497 1.88573   1
  -1  11   6 453.668 11.6407   1
   1  11   6 94.8603 4.37784   1
   3  11   6 6.85390 2.51921   1
   5  11   6 23.5962 3.91905   1
   7  11   6 369.081 16.0419   1
   9  11   6 6.60072 3.41651   1
  11  11   6 20.9998 4.10119   1
 -12  12   6 22.7708 4.53992   1
 -10  12   6 136.194 7.53868   1
  -8  12   6 54.5413 4.00938   1
  -6  12   6 261.974 8.55185   1
  -4  12   6 464.081 15.3261   1
  -2  12   6 478.197 15.6562   1
   0  12   6 76.3397 4.92287   1
   2  12   6 87.9584 6.03277   1
   4  12   6 287.571 12.6073   1
   6  12   6 7.51637 3.57192   1
   8  12   6 113.424 8.14388   1
  -7  13   6 10.7530 2.76988   1
  -5  13   6 86.4649 5.47298   1
  -3  13   6 419.998 14.3405   1
  -1  13   6 139.942 6.85441   1
   1  13   6 12.0386 3.37431   1
   3  13   6 35.3299 5.05989   1
   5  13   6 294.275 15.0776   1
  18   0   7 291.074 31.8908  -2
 -22   0   7 291.074 31.8908   1
  16   0   7 65.5796 24.3033  -2
 -20   0   7 65.5796 24.3033   1
  14   0   7 43.2043 14.0668  -2
 -18   0   7 43.2043 14.0668   1
  12   0   7 1138.38 45.1535  -2
 -16   0   7 1138.38 45.1535   1
  10   0   7 171.182 17.3342  -2
 -14   0   7 171.182 17.3342   1
   8   0   7 1150.94 46.7327  -2
 -12   0   7 1150.94 46.7327   1
   6   0   7 63.7605 5.84873  -2
 -10   0   7 63.7605 5.84873   1
   4   0   7 2241.86 129.397  -2
  -8   0   7 2241.86 129.397   1
   2   0   7 173.701 14.8765  -2
  -6   0   7 173.701 14.8765   1
   0   0   7 3048.79 174.183  -2
  -4   0   7 3048.79 174.183   1
  -2   0   7 222.480 6.34508   1
   0   0   7 2950.77 77.9338   1
   2   0   7 111.992 4.36022   1
   4   0   7 1946.23 52.0306   1
 -10   0   7 326.563 10.7623  -2
   6   0   7 326.563 10.7623   1
 -12   0   7 498.419 22.5087  -2
   8   0   7 498.419 22.5087   1
 -14   0   7 331.822 19.0299  -2
  10   0   7 331.822 19.0299   1
 -16   0   7 1637.15 69.1487  -2
  12   0   7 1637.15 69.1487   1
 -18   0   7 164.844 15.9599  -2
  14   0   7 164.844 15.9599   1
 -20   0   7 72.2267 14.5653  -2
  16   0   7 72.2267 14.5653   1
 -22   0   7 159.421 16.4330  -2
  18   0   7 159.421 16.4330   1
  17   1   7 85.8966 12.9993  -2
 -21   1   7 85.8966 12.9993   1
  15   1   7 -15.449 8.81351  -2
 -19   1   7 -15.449 8.81351   1
  13   1   7 728.641 22.7061  -2
 -17   1   7 728.641 22.7061   1
  11   1   7 531.335 15.5636  -2
 -15   1   7 531.335 15.5636   1
   9   1   7 232.637 7.89325  -2
 -13   1   7 232.637 7.89325   1
   7   1   7 33.2115 5.28939  -2
 -11   1   7 33.2115 5.28939   1
   5   1   7 43.7073 5.58660  -2
  -9   1   7 43.7073 5.58660   1
   3   1   7 392.416 14.5223  -2
  -7   1   7 392.416 14.5223   1
   1   1   7 91.6898 7.70180  -2
  -5   1   7 91.6898 7.70180   1
  -1   1   7 554.301 24.1996  -2
  -3   1   7 554.301 24.1996   1
  -3   1   7 386.482 24.7764  -2
  -1   1   7 386.482 24.7764   1
  -5   1   7 19.6245 8.29108  -2
   1   1   7 19.6245 8.29108   1
  -7   1   7 169.472 9.36486  -2
   3   1   7 169.472 9.36486   1
  -9   1   7 111.528 5.17993  -2
   5   1   7 111.528 5.17993   1
 -11   1   7 5.57997 5.00099  -2
   7   1   7 5.57997 5.00099   1
 -13   1   7 768.650 34.6096  -2
   9   1   7 768.650 34.6096   1
 -15   1   7 379.974 14.8813  -2
  11   1   7 379.974 14.8813   1
 -17   1   7 280.047 13.1328  -2
  13   1   7 280.047 13.1328   1
 -19   1   7 -4.8318 9.48343  -2
  15   1   7 -4.8318 9.48343   1
 -21   1   7 63.7731 10.3061  -2
  17   1   7 63.7731 10.3061   1
  19   1   7 255.041 11.2241   1
  18   2   7 293.179 16.2213  -2
 -22   2   7 293.179 16.2213   1
  16   2   7 158.249 9.61650  -2
 -20   2   7 158.249 9.61650   1
  14   2   7 244.175 10.7705  -2
 -18   2   7 244.175 10.7705   1
  12   2   7 86.9574 7.17157  -2
 -16   2   7 86.9574 7.17157   1
  10   2   7 1403.84 39.1270  -2
 -14   2   7 1403.84 39.1270   1
   8   2   7 163.089 7.40525  -2
 -12   2   7 163.089 7.40525   1
   6   2   7 602.541 25.6717  -2
 -10   2   7 602.541 25.6717   1
   4   2   7 234.544 17.8574  -2
  -8   2   7 234.544 17.8574   1
   2   2   7 5743.88 230.900  -2
  -6   2   7 5743.88 230.900   1
   0   2   7 232.688 16.9142  -2
  -4   2   7 232.688 16.9142   1
  -2   2   7 73.4340 9.58004  -2
  -2   2   7 73.4340 9.58004   1
  -4   2   7 266.057 18.7369  -2
   0   2   7 266.057 18.7369   1
  -6   2   7 5258.77 189.278  -2
   2   2   7 5258.77 189.278   1
  -8   2   7 592.268 16.9126  -2
   4   2   7 592.268 16.9126   1
 -10   2   7 215.749 8.92035  -2
   6   2   7 215.749 8.92035   1
 -12   2   7 326.589 12.2870  -2
   8   2   7 326.589 12.2870   1
 -14   2   7 1968.97 66.7767  -2
  10   2   7 1968.97 66.7767   1
 -16   2   7 32.0229 8.65168  -2
  12   2   7 32.0229 8.65168   1
 -18   2   7 53.7687 9.47730  -2
  14   2   7 53.7687 9.47730   1
 -20   2   7 1081.35 39.5862  -2
  16   2   7 1081.35 39.5862   1
 -22   2   7 262.398 15.7223  -2
  18   2   7 262.398 15.7223   1
  17   3   7 81.4629 9.96193  -2
 -21   3   7 81.4629 9.96193   1
  15   3   7 -3.5002 8.13879  -2
 -19   3   7 -3.5002 8.13879   1
  13   3   7 248.506 11.1723  -2
 -17   3   7 248.506 11.1723   1
  11   3   7 105.728 6.93412  -2
 -15   3   7 105.728 6.93412   1
   9   3   7 1152.18 32.4402  -2
 -13   3   7 1152.18 32.4402   1
   7   3   7 113.403 6.25105  -2
 -11   3   7 113.403 6.25105   1
   5   3   7 885.261 28.8753  -2
  -9   3   7 885.261 28.8753   1
   3   3   7 1112.00 46.0785  -2
  -7   3   7 1112.00 46.0785   1
   1   3   7 212.308 10.6320  -2
  -5   3   7 212.308 10.6320   1
  -1   3   7 21.9020 4.83871  -2
  -3   3   7 21.9020 4.83871   1
  -3   3   7 21.0215 8.21512  -2
  -1   3   7 21.0215 8.21512   1
  -5   3   7 1046.52 33.3339  -2
   1   3   7 1046.52 33.3339   1
  -7   3   7 227.014 9.10164  -2
   3   3   7 227.014 9.10164   1
  -9   3   7 402.833 18.2695  -2
   5   3   7 402.833 18.2695   1
 -11   3   7 144.745 18.2306  -2
   7   3   7 144.745 18.2306   1
 -13   3   7 269.103 21.1115  -2
   9   3   7 269.103 21.1115   1
 -15   3   7 265.684 16.5966  -2
  11   3   7 265.684 16.5966   1
 -17   3   7 922.641 34.0320  -2
  13   3   7 922.641 34.0320   1
 -19   3   7 30.9299 10.1805  -2
  15   3   7 30.9299 10.1805   1
 -21   3   7 456.729 26.7989  -2
  17   3   7 456.729 26.7989   1
  16   4   7 131.633 11.3433  -2
 -20   4   7 131.633 11.3433   1
  14   4   7 33.9691 7.47767  -2
 -18   4   7 33.9691 7.47767   1
  12   4   7 1087.22 23.6417  -2
 -16   4   7 1087.22 23.6417   1
  10   4   7 80.6275 7.60203  -2
 -14   4   7 80.6275 7.60203   1
   8   4   7 907.722 29.3364  -2
 -12   4   7 907.722 29.3364   1
   6   4   7 73.4174 7.66472  -2
 -10   4   7 73.4174 7.66472   1
   4   4   7 1972.42 76.4198  -2
  -8   4   7 1972.42 76.4198   1
  -6   4   7 102.799 3.36473   1
   0   4   7 2043.87 116.611  -2
  -4   4   7 2043.87 116.611   1
  -2   4   7 254.704 16.8244  -2
  -2   4   7 254.704 16.8244   1
  -4   4   7 2179.94 80.6969  -2
   0   4   7 2179.94 80.6969   1
  -6   4   7 127.237 7.67134  -2
   2   4   7 127.237 7.67134   1
  -8   4   7 2365.27 73.3990  -2
   4   4   7 2365.27 73.3990   1
 -10   4   7 327.868 15.7021  -2
   6   4   7 327.868 15.7021   1
 -12   4   7 639.499 40.1741  -2
   8   4   7 639.499 40.1741   1
 -14   4   7 196.805 18.3408  -2
  10   4   7 196.805 18.3408   1
  12   4   7 860.439 24.3279   1
  14   4   7 42.5556 4.62816   1
 -20   4   7 30.0769 15.3629  -2
  16   4   7 30.0769 15.3629   1
  18   4   7 238.491 12.9443   1
  17   5   7 192.720 18.4812  -2
 -21   5   7 192.720 18.4812   1
  15   5   7 14.8020 7.69405  -2
 -19   5   7 14.8020 7.69405   1
  13   5   7 779.806 20.8378  -2
 -17   5   7 779.806 20.8378   1
  11   5   7 739.401 21.6456  -2
 -15   5   7 739.401 21.6456   1
   9   5   7 130.302 9.50956  -2
 -13   5   7 130.302 9.50956   1
   7   5   7 134.628 7.75142  -2
 -11   5   7 134.628 7.75142   1
   5   5   7 116.635 6.45899  -2
  -9   5   7 116.635 6.45899   1
  -7   5   7 173.672 4.55179   1
   1   5   7 211.942 9.81322  -2
  -5   5   7 211.942 9.81322   1
  -1   5   7 972.197 27.2617  -2
  -3   5   7 972.197 27.2617   1
  -3   5   7 479.508 28.1301  -2
  -1   5   7 479.508 28.1301   1
  -5   5   7 292.622 9.28477  -2
   1   5   7 292.622 9.28477   1
  -7   5   7 362.103 15.6594  -2
   3   5   7 362.103 15.6594   1
  -9   5   7 369.924 22.7541  -2
   5   5   7 369.924 22.7541   1
   7   5   7 30.6138 2.98662   1
   9   5   7 821.321 22.8407   1
  11   5   7 299.908 10.2968   1
  13   5   7 12.6188 3.34947   1
 -19   5   7 -15.520 27.6382  -2
  15   5   7 -15.520 27.6382   1
 -21   5   7 98.7687 31.0283  -2
  17   5   7 98.7687 31.0283   1
  16   6   7 69.5082 8.83394  -2
 -20   6   7 69.5082 8.83394   1
  14   6   7 151.868 9.74870  -2
 -18   6   7 151.868 9.74870   1
  12   6   7 113.415 6.99189  -2
 -16   6   7 113.415 6.99189   1
  10   6   7 962.013 31.5734  -2
 -14   6   7 962.013 31.5734   1
   8   6   7 175.142 11.5444  -2
 -12   6   7 175.142 11.5444   1
   6   6   7 318.187 12.3429  -2
 -10   6   7 318.187 12.3429   1
   4   6   7 108.654 10.5458  -2
  -8   6   7 108.654 10.5458   1
   2   6   7 4446.54 229.728  -2
  -6   6   7 4446.54 229.728   1
   0   6   7 254.392 9.69555  -2
  -4   6   7 254.392 9.69555   1
  -2   6   7 58.9347 5.90897  -2
  -2   6   7 58.9347 5.90897   1
  -4   6   7 69.1233 4.96587  -2
   0   6   7 69.1233 4.96587   1
  -6   6   7 3810.95 99.6945  -2
   2   6   7 3810.95 99.6945   1
  -8   6   7 171.514 7.83960  -2
   4   6   7 171.514 7.83960   1
 -10   6   7 87.6511 7.89614  -2
   6   6   7 87.6511 7.89614   1
   8   6   7 493.310 14.4934   1
  10   6   7 881.795 24.5751   1
  12   6   7 80.2433 5.28947   1
  14   6   7 6.00311 3.26825   1
 -20   6   7 500.162 41.7211  -2
  16   6   7 500.162 41.7211   1
  15   7   7 -3.3837 7.87111  -2
 -19   7   7 -3.3837 7.87111   1
  13   7   7 332.511 14.9021  -2
 -17   7   7 332.511 14.9021   1
  11   7   7 46.3383 7.84175  -2
 -15   7   7 46.3383 7.84175   1
   9   7   7 648.619 22.5620  -2
 -13   7   7 648.619 22.5620   1
   7   7   7 16.5466 7.10159  -2
 -11   7   7 16.5466 7.10159   1
   5   7   7 445.516 26.9626  -2
  -9   7   7 445.516 26.9626   1
   3   7   7 310.013 9.90669  -2
  -7   7   7 310.013 9.90669   1
   1   7   7 95.5170 7.11451  -2
  -5   7   7 95.5170 7.11451   1
  -1   7   7 30.2691 4.21202  -2
  -3   7   7 30.2691 4.21202   1
  -3   7   7 84.2574 4.59032  -2
  -1   7   7 84.2574 4.59032   1
  -5   7   7 538.820 17.4615  -2
   1   7   7 538.820 17.4615   1
  -7   7   7 83.8425 6.59879  -2
   3   7   7 83.8425 6.59879   1
  -9   7   7 93.6875 6.20024  -2
   5   7   7 93.6875 6.20024   1
   7   7   7 81.8864 3.99498   1
   9   7   7 265.667 8.47040   1
  11   7   7 105.168 5.76534   1
  13   7   7 418.161 13.6471   1
  15   7   7 26.5213 4.11373   1
  14   8   7 5.46045 9.27569  -2
 -18   8   7 5.46045 9.27569   1
  12   8   7 727.406 31.9580  -2
 -16   8   7 727.406 31.9580   1
 -14   8   7 39.5702 3.38225   1
   8   8   7 517.761 21.9214  -2
 -12   8   7 517.761 21.9214   1
   6   8   7 39.4114 12.2303  -2
 -10   8   7 39.4114 12.2303   1
   4   8   7 1480.43 81.0407  -2
  -8   8   7 1480.43 81.0407   1
   2   8   7 113.262 14.0208  -2
  -6   8   7 113.262 14.0208   1
   0   8   7 1143.72 60.9143  -2
  -4   8   7 1143.72 60.9143   1
  -2   8   7 107.523 5.77296  -2
  -2   8   7 107.523 5.77296   1
  -4   8   7 1111.64 41.3049  -2
   0   8   7 1111.64 41.3049   1
  -6   8   7 53.1618 5.08110  -2
   2   8   7 53.1618 5.08110   1
  -8   8   7 1962.84 71.9744  -2
   4   8   7 1962.84 71.9744   1
 -10   8   7 317.833 14.8704  -2
   6   8   7 317.833 14.8704   1
 -12   8   7 612.903 36.1001  -2
   8   8   7 612.903 36.1001   1
  10   8   7 36.5953 3.83690   1
  12   8   7 392.477 12.8852   1
  14   8   7 5.06564 3.25979   1
  13   9   7 111.979 10.5175  -2
 -17   9   7 111.979 10.5175   1
  11   9   7 423.757 29.8108  -2
 -15   9   7 423.757 29.8108   1
 -13   9   7 95.5755 4.66514   1
   7   9   7 30.1570 12.4526  -2
 -11   9   7 30.1570 12.4526   1
   5   9   7 19.1538 7.81403  -2
  -9   9   7 19.1538 7.81403   1
   3   9   7 724.565 20.2224  -2
  -7   9   7 724.565 20.2224   1
   1   9   7 34.6954 5.47965  -2
  -5   9   7 34.6954 5.47965   1
  -1   9   7 62.2663 8.46780  -2
  -3   9   7 62.2663 8.46780   1
  -3   9   7 15.4461 5.10794  -2
  -1   9   7 15.4461 5.10794   1
  -5   9   7 12.2965 4.39746  -2
   1   9   7 12.2965 4.39746   1
  -7   9   7 230.860 9.21332  -2
   3   9   7 230.860 9.21332   1
  -9   9   7 17.0938 6.97007  -2
   5   9   7 17.0938 6.97007   1
 -11   9   7 5.86160 9.91192  -2
   7   9   7 5.86160 9.91192   1
 -13   9   7 42.5703 13.4046  -2
   9   9   7 42.5703 13.4046   1
  11   9   7 292.451 10.2683   1
  13   9   7 189.019 8.33927   1
 -14  10   7 586.064 15.7023   1
 -12  10   7 56.3760 3.69328   1
   6  10   7 236.047 26.5796  -2
 -10  10   7 236.047 26.5796   1
  -8  10   7 36.7512 3.12781   1
  -6  10   7 1812.11 45.3075   1
   0  10   7 167.530 11.8824  -2
  -4  10   7 167.530 11.8824   1
  -2  10   7 3.27370 7.30693  -2
  -2  10   7 3.27370 7.30693   1
  -4  10   7 36.3396 5.46629  -2
   0  10   7 36.3396 5.46629   1
  -6  10   7 2264.28 115.959  -2
   2  10   7 2264.28 115.959   1
  -8  10   7 100.352 8.31609  -2
   4  10   7 100.352 8.31609   1
 -10  10   7 40.1902 10.3443  -2
   6  10   7 40.1902 10.3443   1
   8  10   7 240.570 9.98846   1
  10  10   7 416.570 15.2288   1
  12  10   7 31.4709 4.84934   1
 -13  11   7 63.7642 5.35673   1
 -11  11   7 29.9951 3.70708   1
  -9  11   7 27.8596 3.40743   1
  -7  11   7 14.4291 2.74168   1
   1  11   7 288.147 18.0124  -2
  -5  11   7 288.147 18.0124   1
  -1  11   7 306.578 13.1685  -2
  -3  11   7 306.578 13.1685   1
  -3  11   7 374.049 21.4212  -2
  -1  11   7 374.049 21.4212   1
  -5  11   7 56.5525 6.24821  -2
   1  11   7 56.5525 6.24821   1
  -7  11   7 10.1611 6.42963  -2
   3  11   7 10.1611 6.42963   1
  -9  11   7 138.654 13.8202  -2
   5  11   7 138.654 13.8202   1
   7  11   7 19.8897 4.35837   1
   9  11   7 772.662 25.1671   1
 -10  12   7 0.31048 3.06860   1
   4  12   7 658.392 36.4668  -2
  -8  12   7 658.392 36.4668   1
   2  12   7 124.535 11.8092  -2
  -6  12   7 124.535 11.8092   1
   0  12   7 682.292 26.1093  -2
  -4  12   7 682.292 26.1093   1
  -2  12   7 15.2366 5.36654  -2
  -2  12   7 15.2366 5.36654   1
  -4  12   7 694.146 38.1521  -2
   0  12   7 694.146 38.1521   1
  -6  12   7 31.8414 6.37055  -2
   2  12   7 31.8414 6.37055   1
  -8  12   7 767.175 29.8605  -2
   4  12   7 767.175 29.8605   1
 -10  12   7 226.977 18.1802  -2
   6  12   7 226.977 18.1802   1
  -7  13   7 662.935 19.9113   1
   1  13   7 137.223 12.8311  -2
  -5  13   7 137.223 12.8311   1
  -1  13   7 11.0159 8.05105  -2
  -3  13   7 11.0159 8.05105   1
  -3  13   7 44.9679 7.43613  -2
  -1  13   7 44.9679 7.43613   1
  -5  13   7 41.8827 9.58260  -2
   1  13   7 41.8827 9.58260   1
  -7  13   7 160.320 13.9063  -2
   3  13   7 160.320 13.9063   1
  18   0   8 185.595 22.4812  -2
 -22   0   8 185.595 22.4812   1
  16   0   8 371.220 31.4812  -2
 -20   0   8 371.220 31.4812   1
  14   0   8 322.683 27.1268  -2
 -18   0   8 322.683 27.1268   1
  12   0   8 594.019 21.5475  -2
 -16   0   8 594.019 21.5475   1
  10   0   8 941.832 26.9238  -2
 -14   0   8 941.832 26.9238   1
   8   0   8 2715.78 72.9796  -2
 -12   0   8 2715.78 72.9796   1
   6   0   8 145.850 6.00030  -2
 -10   0   8 145.850 6.00030   1
   4   0   8 840.024 23.3896  -2
  -8   0   8 840.024 23.3896   1
   2   0   8 459.380 13.3342  -2
  -6   0   8 459.380 13.3342   1
   0   0   8 509.010 14.5396  -2
  -4   0   8 509.010 14.5396   1
  -2   0   8 3725.08 114.994  -2
  -2   0   8 3725.08 114.994   1
  -4   0   8 191.037 7.35713  -2
   0   0   8 191.037 7.35713   1
  -6   0   8 549.608 15.6154  -2
   2   0   8 549.608 15.6154   1
  -8   0   8 357.096 9.59239  -2
   4   0   8 357.096 9.59239   1
 -10   0   8 810.544 26.6607  -2
   6   0   8 810.544 26.6607   1
 -12   0   8 508.948 17.9196  -2
   8   0   8 508.948 17.9196   1
 -14   0   8 961.389 28.1873  -2
  10   0   8 961.389 28.1873   1
 -16   0   8 747.574 26.9165  -2
  12   0   8 747.574 26.9165   1
 -18   0   8 2226.92 73.2896  -2
  14   0   8 2226.92 73.2896   1
 -20   0   8 151.714 11.2056  -2
  16   0   8 151.714 11.2056   1
 -22   0   8 80.4552 12.4306  -2
  18   0   8 80.4552 12.4306   1
  17   1   8 38.9448 10.3189  -2
 -21   1   8 38.9448 10.3189   1
  15   1   8 4.15030 7.15414  -2
 -19   1   8 4.15030 7.15414   1
  13   1   8 3.46044 5.16783  -2
 -17   1   8 3.46044 5.16783   1
  11   1   8 12.8760 4.65571  -2
 -15   1   8 12.8760 4.65571   1
   9   1   8 480.144 11.3075  -2
 -13   1   8 480.144 11.3075   1
   7   1   8 790.824 15.9117  -2
 -11   1   8 790.824 15.9117   1
   5   1   8 608.617 10.9528  -2
  -9   1   8 608.617 10.9528   1
   3   1   8 128.666 3.15493  -2
  -7   1   8 128.666 3.15493   1
   1   1   8 645.873 11.9640  -2
  -5   1   8 645.873 11.9640   1
  -1   1   8 1532.31 29.0593  -2
  -3   1   8 1532.31 29.0593   1
  -3   1   8 1225.18 27.2376  -2
  -1   1   8 1225.18 27.2376   1
  -5   1   8 1410.22 25.1222  -2
   1   1   8 1410.22 25.1222   1
  -7   1   8 303.126 6.25664  -2
   3   1   8 303.126 6.25664   1
  -9   1   8 197.338 4.94374  -2
   5   1   8 197.338 4.94374   1
 -11   1   8 1775.69 39.4908  -2
   7   1   8 1775.69 39.4908   1
 -13   1   8 151.830 6.06762  -2
   9   1   8 151.830 6.06762   1
 -15   1   8 9.87827 4.33403  -2
  11   1   8 9.87827 4.33403   1
 -17   1   8 62.4085 5.89329  -2
  13   1   8 62.4085 5.89329   1
 -19   1   8 4.03650 6.55137  -2
  15   1   8 4.03650 6.55137   1
 -21   1   8 59.5286 8.02533  -2
  17   1   8 59.5286 8.02533   1
  18   2   8 34.3521 19.4340  -2
 -22   2   8 34.3521 19.4340   1
  16   2   8 112.460 10.4766  -2
 -20   2   8 112.460 10.4766   1
  14   2   8 2826.87 69.6803  -2
 -18   2   8 2826.87 69.6803   1
  12   2   8 360.975 11.4728  -2
 -16   2   8 360.975 11.4728   1
  10   2   8 28.5147 4.54809  -2
 -14   2   8 28.5147 4.54809   1
   8   2   8 356.604 8.68639  -2
 -12   2   8 356.604 8.68639   1
   6   2   8 491.259 10.9853  -2
 -10   2   8 491.259 10.9853   1
   4   2   8 51.6011 2.35541  -2
  -8   2   8 51.6011 2.35541   1
   2   2   8 355.933 7.04343  -2
  -6   2   8 355.933 7.04343   1
   0   2   8 572.102 10.1831  -2
  -4   2   8 572.102 10.1831   1
  -2   2   8 2396.17 45.2306  -2
  -2   2   8 2396.17 45.2306   1
  -4   2   8 1077.82 20.5330  -2
   0   2   8 1077.82 20.5330   1
  -6   2   8 271.583 5.59831  -2
   2   2   8 271.583 5.59831   1
  -8   2   8 278.421 6.27488  -2
   4   2   8 278.421 6.27488   1
 -10   2   8 124.267 4.05222  -2
   6   2   8 124.267 4.05222   1
 -12   2   8 2123.67 51.8624  -2
   8   2   8 2123.67 51.8624   1
 -14   2   8 7.60925 4.25676  -2
  10   2   8 7.60925 4.25676   1
 -16   2   8 294.595 9.50729  -2
  12   2   8 294.595 9.50729   1
 -18   2   8 618.314 18.1207  -2
  14   2   8 618.314 18.1207   1
 -20   2   8 804.386 22.6525  -2
  16   2   8 804.386 22.6525   1
 -22   2   8 137.093 10.7128  -2
  18   2   8 137.093 10.7128   1
  17   3   8 25.9242 7.49511  -2
 -21   3   8 25.9242 7.49511   1
  15   3   8 27.9725 6.84315  -2
 -19   3   8 27.9725 6.84315   1
  13   3   8 53.2709 6.36518  -2
 -17   3   8 53.2709 6.36518   1
  11   3   8 33.2287 4.01673  -2
 -15   3   8 33.2287 4.01673   1
   9   3   8 329.984 8.34099  -2
 -13   3   8 329.984 8.34099   1
   7   3   8 745.608 16.0114  -2
 -11   3   8 745.608 16.0114   1
   5   3   8 392.440 8.94870  -2
  -9   3   8 392.440 8.94870   1
   3   3   8 230.248 5.37877  -2
  -7   3   8 230.248 5.37877   1
   1   3   8 398.783 7.76931  -2
  -5   3   8 398.783 7.76931   1
  -1   3   8 2003.98 35.3393  -2
  -3   3   8 2003.98 35.3393   1
  -3   3   8 1231.15 25.0091  -2
  -1   3   8 1231.15 25.0091   1
  -5   3   8 962.483 17.3619  -2
   1   3   8 962.483 17.3619   1
  -7   3   8 452.115 9.88110  -2
   3   3   8 452.115 9.88110   1
  -9   3   8 142.010 4.40609  -2
   5   3   8 142.010 4.40609   1
 -11   3   8 833.336 18.0068  -2
   7   3   8 833.336 18.0068   1
 -13   3   8 269.442 7.98092  -2
   9   3   8 269.442 7.98092   1
 -15   3   8 182.889 7.59733  -2
  11   3   8 182.889 7.59733   1
 -17   3   8 174.262 7.41418  -2
  13   3   8 174.262 7.41418   1
 -19   3   8 89.7048 6.98730  -2
  15   3   8 89.7048 6.98730   1
 -21   3   8 61.6757 8.23414  -2
  17   3   8 61.6757 8.23414   1
  16   4   8 646.239 20.9528  -2
 -20   4   8 646.239 20.9528   1
  14   4   8 220.969 10.1764  -2
 -18   4   8 220.969 10.1764   1
  12   4   8 232.232 7.64398  -2
 -16   4   8 232.232 7.64398   1
  10   4   8 190.154 6.46164  -2
 -14   4   8 190.154 6.46164   1
   8   4   8 1688.92 39.8868  -2
 -12   4   8 1688.92 39.8868   1
   6   4   8 546.958 13.8348  -2
 -10   4   8 546.958 13.8348   1
   4   4   8 920.650 20.4447  -2
  -8   4   8 920.650 20.4447   1
   2   4   8 10.6129 2.03415  -2
  -6   4   8 10.6129 2.03415   1
   0   4   8 466.546 10.7809  -2
  -4   4   8 466.546 10.7809   1
  -2   4   8 1197.59 28.5774  -2
  -2   4   8 1197.59 28.5774   1
  -4   4   8 185.684 4.66974  -2
   0   4   8 185.684 4.66974   1
  -6   4   8 5.82437 1.81292  -2
   2   4   8 5.82437 1.81292   1
  -8   4   8 459.632 10.1038  -2
   4   4   8 459.632 10.1038   1
 -10   4   8 1755.24 41.8533  -2
   6   4   8 1755.24 41.8533   1
 -12   4   8 302.858 9.11889  -2
   8   4   8 302.858 9.11889   1
 -14   4   8 203.511 7.46439  -2
  10   4   8 203.511 7.46439   1
 -16   4   8 278.073 12.3678  -2
  12   4   8 278.073 12.3678   1
 -18   4   8 1326.28 37.4976  -2
  14   4   8 1326.28 37.4976   1
 -20   4   8 108.049 8.91673  -2
  16   4   8 108.049 8.91673   1
  15   5   8 -3.8199 8.04300  -2
 -19   5   8 -3.8199 8.04300   1
  13   5   8 14.2794 4.85302  -2
 -17   5   8 14.2794 4.85302   1
  11   5   8 27.1517 4.29752  -2
 -15   5   8 27.1517 4.29752   1
   9   5   8 359.908 10.2449  -2
 -13   5   8 359.908 10.2449   1
   7   5   8 573.052 14.6022  -2
 -11   5   8 573.052 14.6022   1
   5   5   8 681.091 15.5894  -2
  -9   5   8 681.091 15.5894   1
   3   5   8 62.8344 2.98197  -2
  -7   5   8 62.8344 2.98197   1
   1   5   8 589.104 13.3420  -2
  -5   5   8 589.104 13.3420   1
  -1   5   8 848.582 18.7647  -2
  -3   5   8 848.582 18.7647   1
  -3   5   8 966.866 23.3483  -2
  -1   5   8 966.866 23.3483   1
  -5   5   8 983.013 20.1207  -2
   1   5   8 983.013 20.1207   1
  -7   5   8 170.994 4.62872  -2
   3   5   8 170.994 4.62872   1
  -9   5   8 167.995 5.55916  -2
   5   5   8 167.995 5.55916   1
 -11   5   8 2004.21 52.3566  -2
   7   5   8 2004.21 52.3566   1
 -13   5   8 90.5154 5.75565  -2
   9   5   8 90.5154 5.75565   1
 -15   5   8 12.1370 5.08372  -2
  11   5   8 12.1370 5.08372   1
 -17   5   8 14.7158 6.97775  -2
  13   5   8 14.7158 6.97775   1
 -19   5   8 11.7249 7.08690  -2
  15   5   8 11.7249 7.08690   1
  16   6   8 242.691 15.3289  -2
 -20   6   8 242.691 15.3289   1
  14   6   8 1098.70 27.7703  -2
 -18   6   8 1098.70 27.7703   1
  12   6   8 33.9214 4.88410  -2
 -16   6   8 33.9214 4.88410   1
  10   6   8 215.748 7.42378  -2
 -14   6   8 215.748 7.42378   1
   8   6   8 238.029 7.50061  -2
 -12   6   8 238.029 7.50061   1
   6   6   8 1606.53 37.8858  -2
 -10   6   8 1606.53 37.8858   1
   4   6   8 115.187 4.43632  -2
  -8   6   8 115.187 4.43632   1
   2   6   8 145.643 4.51659  -2
  -6   6   8 145.643 4.51659   1
   0   6   8 460.394 9.45647  -2
  -4   6   8 460.394 9.45647   1
  -2   6   8 160.840 4.54551  -2
  -2   6   8 160.840 4.54551   1
  -4   6   8 838.778 17.3519  -2
   0   6   8 838.778 17.3519   1
  -6   6   8 163.085 4.17713  -2
   2   6   8 163.085 4.17713   1
  -8   6   8 367.145 9.03783  -2
   4   6   8 367.145 9.03783   1
 -10   6   8 528.848 15.1536  -2
   6   6   8 528.848 15.1536   1
 -12   6   8 1055.34 28.6228  -2
   8   6   8 1055.34 28.6228   1
 -14   6   8 218.659 8.78325  -2
  10   6   8 218.659 8.78325   1
 -16   6   8 36.5745 5.91504  -2
  12   6   8 36.5745 5.91504   1
 -18   6   8 187.319 10.8263  -2
  14   6   8 187.319 10.8263   1
 -20   6   8 1221.65 51.0076  -2
  16   6   8 1221.65 51.0076   1
  15   7   8 18.1304 7.28555  -2
 -19   7   8 18.1304 7.28555   1
  13   7   8 36.1567 5.26300  -2
 -17   7   8 36.1567 5.26300   1
  11   7   8 6.01242 4.36695  -2
 -15   7   8 6.01242 4.36695   1
   9   7   8 223.716 7.52590  -2
 -13   7   8 223.716 7.52590   1
   7   7   8 662.466 16.7935  -2
 -11   7   8 662.466 16.7935   1
   5   7   8 140.271 5.12539  -2
  -9   7   8 140.271 5.12539   1
   3   7   8 138.613 4.56948  -2
  -7   7   8 138.613 4.56948   1
   1   7   8 250.295 6.08007  -2
  -5   7   8 250.295 6.08007   1
  -1   7   8 1388.52 30.3952  -2
  -3   7   8 1388.52 30.3952   1
  -3   7   8 685.930 14.2009  -2
  -1   7   8 685.930 14.2009   1
  -5   7   8 835.556 20.2221  -2
   1   7   8 835.556 20.2221   1
  -7   7   8 241.827 6.49246  -2
   3   7   8 241.827 6.49246   1
  -9   7   8 225.354 6.39548  -2
   5   7   8 225.354 6.39548   1
 -11   7   8 511.206 14.9167  -2
   7   7   8 511.206 14.9167   1
 -13   7   8 155.689 7.09431  -2
   9   7   8 155.689 7.09431   1
 -15   7   8 88.7703 6.61346  -2
  11   7   8 88.7703 6.61346   1
 -17   7   8 142.545 8.05157  -2
  13   7   8 142.545 8.05157   1
 -19   7   8 16.9420 8.62076  -2
  15   7   8 16.9420 8.62076   1
  14   8   8 266.432 12.4250  -2
 -18   8   8 266.432 12.4250   1
  12   8   8 43.1441 5.25300  -2
 -16   8   8 43.1441 5.25300   1
  10   8   8 7.31280 4.20373  -2
 -14   8   8 7.31280 4.20373   1
   8   8   8 764.398 18.2102  -2
 -12   8   8 764.398 18.2102   1
   6   8   8 996.395 22.7167  -2
 -10   8   8 996.395 22.7167   1
   4   8   8 771.698 17.8051  -2
  -8   8   8 771.698 17.8051   1
   2   8   8 386.973 8.90020  -2
  -6   8   8 386.973 8.90020   1
   0   8   8 335.878 7.45396  -2
  -4   8   8 335.878 7.45396   1
  -2   8   8 60.8488 2.99945  -2
  -2   8   8 60.8488 2.99945   1
  -4   8   8 140.936 4.28645  -2
   0   8   8 140.936 4.28645   1
  -6   8   8 305.629 9.40271  -2
   2   8   8 305.629 9.40271   1
  -8   8   8 403.484 10.7376  -2
   4   8   8 403.484 10.7376   1
 -10   8   8 2275.72 53.6038  -2
   6   8   8 2275.72 53.6038   1
 -12   8   8 192.695 7.67715  -2
   8   8   8 192.695 7.67715   1
 -14   8   8 10.1717 4.99717  -2
  10   8   8 10.1717 4.99717   1
 -16   8   8 60.8958 6.39532  -2
  12   8   8 60.8958 6.39532   1
 -18   8   8 472.571 21.7967  -2
  14   8   8 472.571 21.7967   1
  11   9   8 17.8227 4.44775  -2
 -15   9   8 17.8227 4.44775   1
   9   9   8 217.979 7.33782  -2
 -13   9   8 217.979 7.33782   1
   7   9   8 251.423 7.56345  -2
 -11   9   8 251.423 7.56345   1
   5   9   8 646.052 15.3241  -2
  -9   9   8 646.052 15.3241   1
   3   9   8 68.5909 3.40081  -2
  -7   9   8 68.5909 3.40081   1
   1   9   8 356.205 8.49895  -2
  -5   9   8 356.205 8.49895   1
  -1   9   8 581.485 14.9929  -2
  -3   9   8 581.485 14.9929   1
  -3   9   8 832.211 22.5792  -2
  -1   9   8 832.211 22.5792   1
  -5   9   8 341.302 10.2699  -2
   1   9   8 341.302 10.2699   1
  -7   9   8 211.516 7.43985  -2
   3   9   8 211.516 7.43985   1
  -9   9   8 123.737 5.02013  -2
   5   9   8 123.737 5.02013   1
 -11   9   8 1048.93 28.3716  -2
   7   9   8 1048.93 28.3716   1
 -13   9   8 78.3902 5.74332  -2
   9   9   8 78.3902 5.74332   1
 -15   9   8 11.5599 5.47688  -2
  11   9   8 11.5599 5.47688   1
  10  10   8 155.608 6.62039  -2
 -14  10   8 155.608 6.62039   1
   8  10   8 153.120 6.05797  -2
 -12  10   8 153.120 6.05797   1
   6  10   8 1087.54 27.4286  -2
 -10  10   8 1087.54 27.4286   1
   4  10   8 66.3844 4.29251  -2
  -8  10   8 66.3844 4.29251   1
   2  10   8 130.668 5.56723  -2
  -6  10   8 130.668 5.56723   1
   0  10   8 247.488 7.81462  -2
  -4  10   8 247.488 7.81462   1
  -2  10   8 56.2172 4.08713  -2
  -2  10   8 56.2172 4.08713   1
  -4  10   8 403.378 11.8457  -2
   0  10   8 403.378 11.8457   1
  -6  10   8 140.255 5.72164  -2
   2  10   8 140.255 5.72164   1
  -8  10   8 203.191 8.33383  -2
   4  10   8 203.191 8.33383   1
 -10  10   8 349.011 12.6801  -2
   6  10   8 349.011 12.6801   1
 -12  10   8 607.587 20.4082  -2
   8  10   8 607.587 20.4082   1
 -14  10   8 172.969 9.22047  -2
  10  10   8 172.969 9.22047   1
   9  11   8 96.8440 6.75791  -2
 -13  11   8 96.8440 6.75791   1
   7  11   8 524.867 16.6597  -2
 -11  11   8 524.867 16.6597   1
   5  11   8 95.8918 5.61782  -2
  -9  11   8 95.8918 5.61782   1
   3  11   8 59.8130 4.53861  -2
  -7  11   8 59.8130 4.53861   1
   1  11   8 161.288 6.00702  -2
  -5  11   8 161.288 6.00702   1
  -1  11   8 746.066 21.4839  -2
  -3  11   8 746.066 21.4839   1
  -3  11   8 243.858 9.18091  -2
  -1  11   8 243.858 9.18091   1
  -5  11   8 619.943 23.8537  -2
   1  11   8 619.943 23.8537   1
  -7  11   8 48.8901 5.15003  -2
   3  11   8 48.8901 5.15003   1
  -9  11   8 290.421 13.3992  -2
   5  11   8 290.421 13.3992   1
 -11  11   8 418.181 14.8362  -2
   7  11   8 418.181 14.8362   1
 -13  11   8 90.1572 7.16978  -2
   9  11   8 90.1572 7.16978   1
   6  12   8 202.268 9.55629  -2
 -10  12   8 202.268 9.55629   1
   4  12   8 326.686 11.0512  -2
  -8  12   8 326.686 11.0512   1
   2  12   8 13.5822 3.49561  -2
  -6  12   8 13.5822 3.49561   1
   0  12   8 163.644 6.61808  -2
  -4  12   8 163.644 6.61808   1
  -2  12   8 210.097 8.41892  -2
  -2  12   8 210.097 8.41892   1
  -4  12   8 54.4982 4.48057  -2
   0  12   8 54.4982 4.48057   1
  -6  12   8 12.9687 4.43630  -2
   2  12   8 12.9687 4.43630   1
  -8  12   8 138.617 8.14473  -2
   4  12   8 138.617 8.14473   1
 -10  12   8 690.122 27.3412  -2
   6  12   8 690.122 27.3412   1
   1  13   8 157.228 15.7134  -2
  -5  13   8 157.228 15.7134   1
  -1  13   8 267.452 10.1265  -2
  -3  13   8 267.452 10.1265   1
  -3  13   8 659.619 27.0823  -2
  -1  13   8 659.619 27.0823   1
  -5  13   8 127.703 14.4955  -2
   1  13   8 127.703 14.4955   1
 -22   0   9 131.729 16.5287   1
 -20   0   9 563.681 39.4910   1
 -18   0   9 37.6699 9.74600   1
 -16   0   9 41.5777 5.18611   1
 -14   0   9 976.930 27.8754   1
 -12   0   9 360.496 11.6451   1
 -10   0   9 179.594 6.94945   1
  -8   0   9 22.6132 2.49575   1
   2   0   9 2379.45 137.373  -2
  -6   0   9 2379.45 137.373   1
   0   0   9 25.9315 11.0153  -2
  -4   0   9 25.9315 11.0153   1
  -2   0   9 41.7552 2.52260   1
   0   0   9 51.9694 3.07684   1
   2   0   9 2720.25 64.1248   1
   4   0   9 557.319 16.2521   1
   6   0   9 230.155 9.67713   1
 -12   0   9 80.2184 15.4955  -2
   8   0   9 80.2184 15.4955   1
  10   0   9 1030.05 35.3044   1
  12   0   9 2.80983 4.01958   1
  14   0   9 119.417 8.21755   1
  16   0   9 187.572 13.8865   1
 -21   1   9 440.285 23.8270   1
 -19   1   9 27.8329 4.80699   1
 -17   1   9 155.081 7.23843   1
 -15   1   9 326.057 10.4007   1
 -13   1   9 297.344 8.51451   1
 -11   1   9 29.0645 2.22545   1
  -9   1   9 101.251 3.24043   1
  -7   1   9 23.5016 1.58638   1
  -5   1   9 389.109 7.32790   1
  -3   1   9 9.13192 1.05886   1
  -1   1   9 20.1740 1.47248   1
   1   1   9 90.1638 2.67164   1
   3   1   9 340.499 7.03838   1
   5   1   9 208.363 5.69902   1
 -11   1   9 32.3443 14.3228  -2
   7   1   9 32.3443 14.3228   1
   9   1   9 111.417 4.95025   1
  11   1   9 214.415 6.97730   1
  13   1   9 59.3211 4.62219   1
  15   1   9 6.06120 3.66840   1
  17   1   9 36.6283 4.81120   1
 -20   2   9 53.1665 5.12398   1
 -18   2   9 -0.9184 3.20987   1
 -16   2   9 376.486 11.8095   1
 -14   2   9 235.328 8.24591   1
 -12   2   9 517.739 11.8012   1
 -10   2   9 9.63410 1.82593   1
  -8   2   9 1350.39 25.9249   1
  -6   2   9 240.831 5.28255   1
  -4   2   9 1759.71 29.6616   1
  -2   2   9 87.7285 2.56724   1
   0   2   9 533.284 10.8230   1
   2   2   9 9.97821 1.35235   1
  -8   2   9 1668.46 97.9294  -2
   4   2   9 1668.46 97.9294   1
 -10   2   9 -12.883 13.8147  -2
   6   2   9 -12.883 13.8147   1
   8   2   9 1402.08 32.2648   1
  10   2   9 51.1486 3.72555   1
 -16   2   9 765.702 51.9887  -2
  12   2   9 765.702 51.9887   1
  14   2   9 101.133 5.80921   1
  16   2   9 184.134 9.41748   1
 -21   3   9 16.4347 4.92811   1
 -19   3   9 53.9978 5.33232   1
 -17   3   9 33.5050 4.46563   1
 -15   3   9 347.327 10.8638   1
 -13   3   9 1129.46 23.8365   1
 -11   3   9 162.607 5.05846   1
   5   3   9 217.173 20.4017  -2
  -9   3   9 217.173 20.4017   1
  -7   3   9 334.133 7.87637   1
  -5   3   9 104.025 3.22560   1
  -3   3   9 187.729 4.35613   1
  -1   3   9 679.513 14.4638   1
   1   3   9 19.2899 1.55573   1
  -7   3   9 74.6976 13.5106  -2
   3   3   9 74.6976 13.5106   1
   5   3   9 46.7027 2.49586   1
   7   3   9 65.7634 3.47678   1
   9   3   9 68.1768 4.15577   1
  11   3   9 636.262 17.4773   1
  13   3   9 353.038 11.6605   1
  15   3   9 8.90087 3.49195   1
 -20   4   9 360.163 13.6194   1
 -18   4   9 37.9035 4.84671   1
 -16   4   9 24.3697 3.11143   1
 -14   4   9 813.777 19.0176   1
 -12   4   9 318.964 9.19651   1
 -10   4   9 114.589 4.62613   1
  -8   4   9 31.5250 2.51975   1
  -6   4   9 1357.03 29.6636   1
  -4   4   9 23.1721 1.62551   1
  -2   4   9 73.0044 2.62460   1
   0   4   9 3.04730 1.40002   1
   2   4   9 2439.73 51.7024   1
   4   4   9 204.618 5.52777   1
   6   4   9 175.345 5.59862   1
   8   4   9 126.199 5.32198   1
  10   4   9 897.023 22.9002   1
  12   4   9 54.6436 5.49087   1
  14   4   9 76.7583 5.35468   1
  16   4   9 32.7476 5.02781   1
 -19   5   9 13.3891 4.32443   1
 -17   5   9 376.970 11.4164   1
 -15   5   9 199.276 7.26814   1
 -13   5   9 97.4549 4.72454   1
 -11   5   9 3.05691 1.91735   1
  -9   5   9 306.865 8.00608   1
  -7   5   9 13.6547 1.80106   1
  -5   5   9 986.426 21.8746   1
  -3   5   9 5.41794 1.57119   1
  -1   5   9 40.9606 2.39002   1
   1   5   9 135.251 4.49119   1
  -7   5   9 407.758 27.3574  -2
   3   5   9 407.758 27.3574   1
   5   5   9 468.951 11.3017   1
   7   5   9 82.6365 4.64179   1
   9   5   9 322.381 10.6954   1
  11   5   9 27.1259 3.82679   1
  13   5   9 11.7071 4.22359   1
  15   5   9 20.0641 4.57060   1
 -18   6   9 2.01361 3.10338   1
 -16   6   9 223.161 7.96775   1
 -14   6   9 168.912 6.42014   1
 -12   6   9 378.771 10.6929   1
 -10   6   9 7.45280 2.02234   1
  -8   6   9 872.809 19.8940   1
  -6   6   9 86.1577 3.56806   1
  -4   6   9 1517.25 32.4934   1
  -2   6   9 102.089 3.51961   1
   0   6   9 728.142 17.8673   1
   2   6   9 3.97739 1.94338   1
   4   6   9 579.046 14.6833   1
   6   6   9 3.94996 2.34897   1
   8   6   9 484.774 14.5292   1
  10   6   9 48.4745 4.30256   1
  12   6   9 931.363 26.3633   1
  14   6   9 29.1387 4.59224   1
 -17   7   9 1.46110 2.95745   1
 -15   7   9 333.860 9.80881   1
 -13   7   9 330.511 9.39184   1
 -11   7   9 121.568 4.91760   1
  -9   7   9 20.6426 2.34220   1
  -7   7   9 243.943 6.83775   1
  -5   7   9 31.5047 2.45632   1
  -3   7   9 19.5829 1.89487   1
  -1   7   9 248.774 6.67864   1
   1   7   9 22.7420 2.65941   1
   3   7   9 128.944 5.52571   1
   5   7   9 9.18247 2.44308   1
   7   7   9 18.8417 2.94180   1
   9   7   9 25.3603 3.44323   1
  11   7   9 488.724 15.1652   1
  13   7   9 96.8710 6.04141   1
 -16   8   9 8.79583 2.96923   1
 -14   8   9 474.276 12.6077   1
 -12   8   9 156.354 5.90437   1
 -10   8   9 63.8596 3.65184   1
   4   8   9 43.4712 10.8202  -2
  -8   8   9 43.4712 10.8202   1
  -6   8   9 838.699 19.2318   1
  -4   8   9 38.8167 2.31093   1
  -2   8   9 46.1315 2.60946   1
   0   8   9 11.0942 2.01662   1
   2   8   9 1559.58 47.1369   1
   4   8   9 25.0682 3.38028   1
   6   8   9 131.723 5.90093   1
   8   8   9 237.183 8.62989   1
  10   8   9 720.234 20.7463   1
  12   8   9 117.228 6.51752   1
 -15   9   9 60.5964 4.36547   1
 -13   9   9 600.039 15.1329   1
 -11   9   9 3.31133 2.27426   1
  -9   9   9 14.0641 2.37241   1
   3   9   9 15.5037 9.86008  -2
  -7   9   9 15.5037 9.86008   1
  -5   9   9 170.006 5.75804   1
  -3   9   9 117.917 4.17998   1
  -1   9   9 70.6149 3.53382   1
   1   9   9 31.5473 2.98145   1
   3   9   9 4.11793 2.59209   1
   5   9   9 59.7627 4.77379   1
   7   9   9 1.99650 2.66372   1
   9   9   9 37.4098 3.90228   1
  11   9   9 38.0154 4.07030   1
 -14  10   9 53.2007 4.08472   1
 -12  10   9 189.984 6.66263   1
 -10  10   9 -0.5601 2.25699   1
  -8  10   9 435.890 12.3257   1
  -6  10   9 74.6315 4.77168   1
  -4  10   9 903.648 24.8729   1
  -2  10   9 24.6127 2.82994   1
   0  10   9 463.371 13.8071   1
   2  10   9 4.82224 2.78768   1
   4  10   9 350.761 12.5966   1
   6  10   9 20.3468 3.77015   1
   8  10   9 254.707 10.7259   1
 -11  11   9 38.7380 4.36276   1
  -9  11   9 97.8090 7.06953   1
  -7  11   9 70.9527 5.34301   1
  -5  11   9 58.2063 4.54734   1
  -3  11   9 67.2073 4.82673   1
  -1  11   9 5.42861 2.80517   1
   1  11   9 249.612 10.0302   1
   3  11   9 486.502 19.9445   1
   5  11   9 39.0080 4.25814   1
   7  11   9 21.9154 3.93552   1
  -8  12   9 30.8014 4.28280   1
  -6  12   9 595.092 23.5424   1
  -4  12   9 8.71708 2.88728   1
  -2  12   9 0.55839 2.71360   1
   0  12   9 0.03512 2.86490   1
   2  12   9 682.673 26.7635   1
   4  12   9 32.3547 4.16484   1
 -20   0  10 23.8652 11.0896   1
 -18   0  10 925.935 58.9623   1
 -16   0  10 15.9943 4.27269   1
 -14   0  10 106.081 5.96011   1
 -12   0  10 487.655 15.0140   1
 -10   0  10 3975.07 106.022   1
  -8   0  10 608.397 17.7100   1
  -6   0  10 158.934 6.18839   1
  -4   0  10 18.9424 2.50373   1
  -2   0  10 733.710 18.4918   1
   0   0  10 142.919 6.71590   1
   2   0  10 1314.08 35.8980   1
   4   0  10 2.26554 2.20052   1
   6   0  10 1351.78 43.5409   1
   8   0  10 297.752 15.2708   1
  10   0  10 12.5920 3.98971   1
  12   0  10 363.789 15.6100   1
  14   0  10 -1.6553 4.55987   1
  16   0  10 1313.52 56.6029   1
 -21   1  10 85.3891 9.27087   1
 -19   1  10 3.90633 4.17438   1
 -17   1  10 1.90845 3.09108   1
 -15   1  10 103.392 5.54838   1
 -13   1  10 5.88569 2.58256   1
 -11   1  10 5.40781 1.89976   1
  -9   1  10 268.975 6.47002   1
  -7   1  10 40.1828 2.16852   1
  -5   1  10 133.991 3.69429   1
  -3   1  10 569.580 9.85966   1
  -1   1  10 22.4271 1.66962   1
   1   1  10 139.832 4.07539   1
   3   1  10 75.7268 2.96149   1
   5   1  10 576.321 12.8719   1
   7   1  10 344.277 10.4594   1
   9   1  10 19.0799 2.87172   1
  11   1  10 33.6835 3.50531   1
  13   1  10 256.223 10.0898   1
  15   1  10 63.5127 5.68227   1
 -20   2  10 614.618 23.3093   1
 -18   2  10 50.8427 4.65060   1
 -16   2  10 464.381 13.8184   1
 -14   2  10 806.740 21.4204   1
 -12   2  10 211.476 7.54808   1
 -10   2  10 55.9665 2.96631   1
  -8   2  10 2133.33 40.4251   1
  -6   2  10 104.192 3.25078   1
  -4   2  10 612.253 11.0224   1
  -2   2  10 167.500 3.79381   1
   0   2  10 1016.86 19.7739   1
   2   2  10 726.975 13.7033   1
   4   2  10 9.91261 1.88290   1
   6   2  10 865.249 20.5137   1
   8   2  10 870.649 20.9058   1
  10   2  10 47.6666 4.00520   1
  12   2  10 320.061 11.0316   1
  14   2  10 106.208 5.97362   1
  16   2  10 8.01593 4.21337   1
 -19   3  10 6.42658 4.16085   1
 -17   3  10 9.40749 3.77314   1
 -15   3  10 62.2319 4.51808   1
 -13   3  10 6.10866 2.15768   1
 -11   3  10 27.5924 2.46408   1
  -9   3  10 420.947 9.81447   1
  -7   3  10 25.9373 2.11918   1
  -5   3  10 137.907 3.98552   1
  -3   3  10 685.584 12.2159   1
  -1   3  10 123.830 4.08125   1
   1   3  10 2.80258 1.53909   1
   3   3  10 138.466 4.03910   1
   5   3  10 186.980 5.52617   1
   7   3  10 250.928 8.28699   1
   9   3  10 61.1191 4.19721   1
  11   3  10 2.55050 2.87785   1
  13   3  10 388.534 12.7351   1
  15   3  10 318.615 12.9003   1
 -20   4  10 19.8103 4.61827   1
 -18   4  10 1075.76 31.3385   1
 -16   4  10 47.4069 4.77061   1
 -14   4  10 0.39599 2.19046   1
 -12   4  10 90.4798 4.23784   1
 -10   4  10 1882.12 44.3314   1
  -8   4  10 148.880 5.31661   1
  -6   4  10 18.2665 1.93948   1
  -4   4  10 24.5239 1.82824   1
  -2   4  10 1680.50 33.7914   1
   0   4  10 232.518 6.48289   1
   2   4  10 284.485 7.03189   1
   4   4  10 5.54747 1.80687   1
   6   4  10 395.737 10.2142   1
   8   4  10 249.419 8.11601   1
  10   4  10 76.8143 5.98326   1
  12   4  10 337.150 12.3157   1
  14   4  10 59.2906 5.67410   1
 -19   5  10 25.7099 4.71736   1
 -17   5  10 15.2025 3.25132   1
 -15   5  10 134.636 6.02168   1
 -13   5  10 3.97997 2.38834   1
 -11   5  10 5.34678 2.16823   1
  -9   5  10 132.458 5.08420   1
  -7   5  10 13.7472 1.98267   1
  -5   5  10 58.1455 2.93441   1
  -3   5  10 460.051 10.2372   1
  -1   5  10 10.1654 1.64011   1
   1   5  10 268.971 7.87452   1
   3   5  10 39.6261 2.69069   1
   5   5  10 669.866 17.0586   1
   7   5  10 246.207 8.74267   1
   9   5  10 26.2850 3.74368   1
  11   5  10 96.1528 6.84739   1
  13   5  10 164.422 9.38707   1
 -18   6  10 1.49983 3.20126   1
 -16   6  10 932.138 23.7289   1
 -14   6  10 135.574 5.87410   1
 -12   6  10 692.582 17.7621   1
 -10   6  10 119.598 4.82022   1
  -8   6  10 689.118 17.3224   1
  -6   6  10 777.469 19.1435   1
  -4   6  10 136.526 4.18991   1
  -2   6  10 112.970 4.18689   1
   0   6  10 1082.71 26.0543   1
   2   6  10 10.4077 2.31429   1
   4   6  10 29.8484 3.10949   1
   6   6  10 45.2966 3.73275   1
   8   6  10 623.760 18.1432   1
  10   6  10 424.014 13.5774   1
  12   6  10 173.554 9.41670   1
 -17   7  10 28.2672 3.55939   1
 -15   7  10 10.4743 2.83115   1
 -13   7  10 -0.1713 2.27611   1
 -11   7  10 36.3125 3.08015   1
  -9   7  10 331.897 9.49785   1
  -7   7  10 78.9287 3.99570   1
  -5   7  10 130.477 4.96069   1
  -3   7  10 309.452 8.73761   1
  -1   7  10 220.899 6.92200   1
   1   7  10 -0.5366 2.45028   1
   3   7  10 87.4173 5.35210   1
   5   7  10 169.405 6.79835   1
   7   7  10 278.742 9.61950   1
   9   7  10 5.30121 2.96862   1
  11   7  10 -1.5597 3.09139   1
 -16   8  10 175.693 7.00753   1
 -14   8  10 61.6565 4.12177   1
 -12   8  10 2.33367 2.31079   1
 -10   8  10 626.312 15.1696   1
  -8   8  10 1.67598 2.11223   1
  -6   8  10 259.483 7.74184   1
  -4   8  10 124.967 4.95154   1
  -2   8  10 2095.60 54.5299   1
   0   8  10 272.703 8.88216   1
   2   8  10 1.92882 2.68314   1
   4   8  10 11.8260 3.24604   1
   6   8  10 12.6505 2.93294   1
   8   8  10 160.395 7.07947   1
  10   8  10 294.106 10.5093   1
 -15   9  10 134.589 6.13749   1
 -13   9  10 3.65431 2.61091   1
 -11   9  10 13.6145 2.61895   1
  -9   9  10 61.0813 3.73338   1
  -7   9  10 11.9258 2.39519   1
  -5   9  10 20.7013 2.60194   1
  -3   9  10 556.549 14.1333   1
  -1   9  10 16.8391 2.66702   1
   1   9  10 110.679 5.24494   1
   3   9  10 61.5944 4.70938   1
   5   9  10 295.683 11.4308   1
   7   9  10 50.0515 4.23427   1
   9   9  10 153.406 7.17244   1
 -12  10  10 471.594 12.4995   1
 -10  10  10 94.5411 4.66205   1
  -8  10  10 358.659 11.5062   1
  -6  10  10 489.867 16.4031   1
  -4  10  10 55.0500 4.30452   1
  -2  10  10 78.8352 4.39769   1
   0  10  10 672.960 21.6825   1
   2  10  10 5.36225 2.93654   1
   4  10  10 30.6946 3.89444   1
   6  10  10 11.1810 3.50491   1
   8  10  10 302.370 12.2114   1
  -9  11  10 268.560 12.6940   1
  -7  11  10 107.016 7.55801   1
  -5  11  10 62.1169 5.60012   1
  -3  11  10 66.4017 5.70266   1
  -1  11  10 171.027 9.31076   1
   1  11  10 5.12464 2.93532   1
   3  11  10 9.51215 3.23848   1
   5  11  10 184.290 8.58632   1
  -6  12  10 16.1635 4.03717   1
  -4  12  10 33.1557 4.49106   1
  -2  12  10 652.014 25.7146   1
   0  12  10 97.5649 6.30362   1
  14   0  11 521.800 40.6203  -2
 -20   0  11 521.800 40.6203   1
  12   0  11 450.888 35.7239  -2
 -18   0  11 450.888 35.7239   1
  10   0  11 186.807 23.1263  -2
 -16   0  11 186.807 23.1263   1
   8   0  11 147.807 8.38766  -2
 -14   0  11 147.807 8.38766   1
   6   0  11 531.611 16.8371  -2
 -12   0  11 531.611 16.8371   1
   4   0  11 616.395 18.3656  -2
 -10   0  11 616.395 18.3656   1
   2   0  11 47.2188 5.09774  -2
  -8   0  11 47.2188 5.09774   1
   0   0  11 70.0626 5.20119  -2
  -6   0  11 70.0626 5.20119   1
  -2   0  11 1975.30 53.5470  -2
  -4   0  11 1975.30 53.5470   1
  -4   0  11 1164.13 32.2087  -2
  -2   0  11 1164.13 32.2087   1
  -6   0  11 392.696 12.8503  -2
   0   0  11 392.696 12.8503   1
  -8   0  11 133.236 8.14134  -2
   2   0  11 133.236 8.14134   1
 -10   0  11 1820.23 57.8385  -2
   4   0  11 1820.23 57.8385   1
 -12   0  11 372.829 18.7584  -2
   6   0  11 372.829 18.7584   1
 -14   0  11 69.1875 10.8108  -2
   8   0  11 69.1875 10.8108   1
 -16   0  11 350.199 16.7904  -2
  10   0  11 350.199 16.7904   1
 -18   0  11 1793.10 60.3405  -2
  12   0  11 1793.10 60.3405   1
 -20   0  11 113.254 15.7320  -2
  14   0  11 113.254 15.7320   1
  13   1  11 84.4728 15.7143  -2
 -19   1  11 84.4728 15.7143   1
  11   1  11 565.819 17.0775  -2
 -17   1  11 565.819 17.0775   1
   9   1  11 489.788 15.0080  -2
 -15   1  11 489.788 15.0080   1
   7   1  11 35.1141 5.54545  -2
 -13   1  11 35.1141 5.54545   1
   5   1  11 8.37625 3.93835  -2
 -11   1  11 8.37625 3.93835   1
   3   1  11 639.197 14.4627  -2
  -9   1  11 639.197 14.4627   1
   1   1  11 811.998 17.6937  -2
  -7   1  11 811.998 17.6937   1
  -1   1  11 981.494 19.4488  -2
  -5   1  11 981.494 19.4488   1
  -3   1  11 157.395 4.42769  -2
  -3   1  11 157.395 4.42769   1
  -5   1  11 898.703 17.9145  -2
  -1   1  11 898.703 17.9145   1
  -7   1  11 275.615 7.44305  -2
   1   1  11 275.615 7.44305   1
  -9   1  11 363.431 9.16690  -2
   3   1  11 363.431 9.16690   1
 -11   1  11 14.8683 5.21633  -2
   5   1  11 14.8683 5.21633   1
 -13   1  11 82.7311 6.69306  -2
   7   1  11 82.7311 6.69306   1
 -15   1  11 87.0269 8.78054  -2
   9   1  11 87.0269 8.78054   1
 -17   1  11 106.829 9.31502  -2
  11   1  11 106.829 9.31502   1
 -19   1  11 42.8002 9.74097  -2
  13   1  11 42.8002 9.74097   1
  15   1  11 3.18344 4.11785   1
  14   2  11 208.888 13.2047  -2
 -20   2  11 208.888 13.2047   1
  12   2  11 108.793 8.04946  -2
 -18   2  11 108.793 8.04946   1
  10   2  11 376.127 12.4796  -2
 -16   2  11 376.127 12.4796   1
   8   2  11 426.072 13.3298  -2
 -14   2  11 426.072 13.3298   1
   6   2  11 588.191 16.5913  -2
 -12   2  11 588.191 16.5913   1
   4   2  11 214.588 7.34091  -2
 -10   2  11 214.588 7.34091   1
   2   2  11 452.114 10.5439  -2
  -8   2  11 452.114 10.5439   1
   0   2  11 987.550 19.5602  -2
  -6   2  11 987.550 19.5602   1
  -2   2  11 345.958 8.03920  -2
  -4   2  11 345.958 8.03920   1
  -4   2  11 292.922 6.70411  -2
  -2   2  11 292.922 6.70411   1
  -6   2  11 400.779 9.62643  -2
   0   2  11 400.779 9.62643   1
  -8   2  11 2139.66 40.7292  -2
   2   2  11 2139.66 40.7292   1
 -10   2  11 57.6861 5.46214  -2
   4   2  11 57.6861 5.46214   1
 -12   2  11 389.900 12.4208  -2
   6   2  11 389.900 12.4208   1
 -14   2  11 312.234 14.6172  -2
   8   2  11 312.234 14.6172   1
 -16   2  11 1485.15 42.9775  -2
  10   2  11 1485.15 42.9775   1
 -18   2  11 97.6624 8.73859  -2
  12   2  11 97.6624 8.73859   1
 -20   2  11 609.490 21.6992  -2
  14   2  11 609.490 21.6992   1
  13   3  11 39.1421 7.78951  -2
 -19   3  11 39.1421 7.78951   1
  11   3  11 65.8805 7.90901  -2
 -17   3  11 65.8805 7.90901   1
   9   3  11 612.403 19.5645  -2
 -15   3  11 612.403 19.5645   1
   7   3  11 672.482 18.7304  -2
 -13   3  11 672.482 18.7304   1
   5   3  11 36.5711 4.31807  -2
 -11   3  11 36.5711 4.31807   1
   3   3  11 2076.03 42.3621  -2
  -9   3  11 2076.03 42.3621   1
   1   3  11 673.891 14.9509  -2
  -7   3  11 673.891 14.9509   1
  -1   3  11 92.0967 4.12610  -2
  -5   3  11 92.0967 4.12610   1
  -3   3  11 13.7330 3.28183  -2
  -3   3  11 13.7330 3.28183   1
  -5   3  11 15.1999 3.64440  -2
  -1   3  11 15.1999 3.64440   1
  -7   3  11 132.215 4.96382  -2
   1   3  11 132.215 4.96382   1
  -9   3  11 1704.86 35.1443  -2
   3   3  11 1704.86 35.1443   1
 -11   3  11 57.9156 5.39471  -2
   5   3  11 57.9156 5.39471   1
 -13   3  11 141.475 8.46709  -2
   7   3  11 141.475 8.46709   1
 -15   3  11 116.155 8.46302  -2
   9   3  11 116.155 8.46302   1
 -17   3  11 112.463 9.51775  -2
  11   3  11 112.463 9.51775   1
 -19   3  11 66.8329 9.97917  -2
  13   3  11 66.8329 9.97917   1
  12   4  11 308.934 12.8067  -2
 -18   4  11 308.934 12.8067   1
  10   4  11 115.595 8.55215  -2
 -16   4  11 115.595 8.55215   1
   8   4  11 96.4954 5.89822  -2
 -14   4  11 96.4954 5.89822   1
   6   4  11 437.143 12.4596  -2
 -12   4  11 437.143 12.4596   1
   4   4  11 632.848 16.2263  -2
 -10   4  11 632.848 16.2263   1
   2   4  11 59.3468 4.45642  -2
  -8   4  11 59.3468 4.45642   1
   0   4  11 45.3740 4.01811  -2
  -6   4  11 45.3740 4.01811   1
  -2   4  11 1347.03 32.2046  -2
  -4   4  11 1347.03 32.2046   1
  -4   4  11 770.515 17.7729  -2
  -2   4  11 770.515 17.7729   1
  -6   4  11 199.935 6.72798  -2
   0   4  11 199.935 6.72798   1
  -8   4  11 211.135 7.89223  -2
   2   4  11 211.135 7.89223   1
 -10   4  11 1932.57 42.4399  -2
   4   4  11 1932.57 42.4399   1
 -12   4  11 432.608 12.6779  -2
   6   4  11 432.608 12.6779   1
 -14   4  11 20.0795 7.75178  -2
   8   4  11 20.0795 7.75178   1
 -16   4  11 239.197 12.7432  -2
  10   4  11 239.197 12.7432   1
 -18   4  11 1048.52 36.4701  -2
  12   4  11 1048.52 36.4701   1
  14   4  11 24.7206 5.87453   1
  13   5  11 72.9334 13.9542  -2
 -19   5  11 72.9334 13.9542   1
  11   5  11 813.768 28.3258  -2
 -17   5  11 813.768 28.3258   1
   9   5  11 336.640 10.8930  -2
 -15   5  11 336.640 10.8930   1
   7   5  11 82.7608 5.67659  -2
 -13   5  11 82.7608 5.67659   1
   5   5  11 26.8954 4.60231  -2
 -11   5  11 26.8954 4.60231   1
   3   5  11 183.460 6.94385  -2
  -9   5  11 183.460 6.94385   1
   1   5  11 703.579 17.8129  -2
  -7   5  11 703.579 17.8129   1
  -1   5  11 1221.77 29.2856  -2
  -5   5  11 1221.77 29.2856   1
  -3   5  11 283.595 8.67815  -2
  -3   5  11 283.595 8.67815   1
  -5   5  11 1441.40 38.3245  -2
  -1   5  11 1441.40 38.3245   1
  -7   5  11 315.800 10.7011  -2
   1   5  11 315.800 10.7011   1
  -9   5  11 46.1042 4.89559  -2
   3   5  11 46.1042 4.89559   1
 -11   5  11 6.60187 5.23927  -2
   5   5  11 6.60187 5.23927   1
 -13   5  11 136.745 7.96743  -2
   7   5  11 136.745 7.96743   1
 -15   5  11 106.473 11.3296  -2
   9   5  11 106.473 11.3296   1
 -17   5  11 149.898 13.5329  -2
  11   5  11 149.898 13.5329   1
 -19   5  11 142.724 30.0005  -2
  13   5  11 142.724 30.0005   1
  12   6  11 83.4372 9.05737  -2
 -18   6  11 83.4372 9.05737   1
  10   6  11 319.547 10.5608  -2
 -16   6  11 319.547 10.5608   1
   8   6  11 236.264 8.73730  -2
 -14   6  11 236.264 8.73730   1
   6   6  11 401.631 11.8338  -2
 -12   6  11 401.631 11.8338   1
   4   6  11 192.540 7.42161  -2
 -10   6  11 192.540 7.42161   1
   2   6  11 261.231 8.18622  -2
  -8   6  11 261.231 8.18622   1
   0   6  11 975.670 23.8784  -2
  -6   6  11 975.670 23.8784   1
  -2   6  11 126.271 5.86248  -2
  -4   6  11 126.271 5.86248   1
  -4   6  11 93.8927 5.28665  -2
  -2   6  11 93.8927 5.28665   1
  -6   6  11 545.562 16.2070  -2
   0   6  11 545.562 16.2070   1
  -8   6  11 1188.26 32.4492  -2
   2   6  11 1188.26 32.4492   1
 -10   6  11 44.9354 5.59614  -2
   4   6  11 44.9354 5.59614   1
 -12   6  11 351.724 13.9819  -2
   6   6  11 351.724 13.9819   1
 -14   6  11 62.4073 9.78689  -2
   8   6  11 62.4073 9.78689   1
 -16   6  11 1150.53 46.0120  -2
  10   6  11 1150.53 46.0120   1
  12   6  11 -3.3343 7.56318   1
  11   7  11 86.0707 9.06884  -2
 -17   7  11 86.0707 9.06884   1
   9   7  11 319.572 10.7674  -2
 -15   7  11 319.572 10.7674   1
   7   7  11 389.051 11.8975  -2
 -13   7  11 389.051 11.8975   1
   5   7  11 48.1742 5.94968  -2
 -11   7  11 48.1742 5.94968   1
   3   7  11 944.155 23.3664  -2
  -9   7  11 944.155 23.3664   1
   1   7  11 392.761 11.2982  -2
  -7   7  11 392.761 11.2982   1
  -1   7  11 302.622 9.24487  -2
  -5   7  11 302.622 9.24487   1
  -3   7  11 1.26093 4.11441  -2
  -3   7  11 1.26093 4.11441   1
  -5   7  11 82.9158 5.08773  -2
  -1   7  11 82.9158 5.08773   1
  -7   7  11 93.9629 6.70596  -2
   1   7  11 93.9629 6.70596   1
  -9   7  11 968.993 30.7416  -2
   3   7  11 968.993 30.7416   1
 -11   7  11 13.2361 5.68122  -2
   5   7  11 13.2361 5.68122   1
 -13   7  11 74.5685 7.71688  -2
   7   7  11 74.5685 7.71688   1
 -15   7  11 71.0649 8.35667  -2
   9   7  11 71.0649 8.35667   1
 -17   7  11 15.1368 14.8891  -2
  11   7  11 15.1368 14.8891   1
   8   8  11 61.5698 5.92877  -2
 -14   8  11 61.5698 5.92877   1
   6   8  11 301.725 10.0122  -2
 -12   8  11 301.725 10.0122   1
   4   8  11 504.545 13.6227  -2
 -10   8  11 504.545 13.6227   1
   2   8  11 77.6705 5.33251  -2
  -8   8  11 77.6705 5.33251   1
   0   8  11 16.8173 4.24467  -2
  -6   8  11 16.8173 4.24467   1
  -2   8  11 724.826 18.4749  -2
  -4   8  11 724.826 18.4749   1
  -4   8  11 374.920 11.8261  -2
  -2   8  11 374.920 11.8261   1
  -6   8  11 54.0367 5.45958  -2
   0   8  11 54.0367 5.45958   1
  -8   8  11 198.821 9.70175  -2
   2   8  11 198.821 9.70175   1
 -10   8  11 1704.92 52.0069  -2
   4   8  11 1704.92 52.0069   1
 -12   8  11 327.419 13.6472  -2
   6   8  11 327.419 13.6472   1
 -14   8  11 76.1039 8.81070  -2
   8   8  11 76.1039 8.81070   1
  10   8  11 154.520 8.58506   1
   7   9  11 27.8030 5.71236  -2
 -13   9  11 27.8030 5.71236   1
   5   9  11 45.5784 5.43116  -2
 -11   9  11 45.5784 5.43116   1
   3   9  11 712.095 18.5341  -2
  -9   9  11 712.095 18.5341   1
   1   9  11 493.986 13.6615  -2
  -7   9  11 493.986 13.6615   1
  -1   9  11 83.7463 5.65990  -2
  -5   9  11 83.7463 5.65990   1
  -3   9  11 160.861 7.34626  -2
  -3   9  11 160.861 7.34626   1
  -5   9  11 216.677 8.59026  -2
  -1   9  11 216.677 8.59026   1
  -7   9  11 147.229 6.97887  -2
   1   9  11 147.229 6.97887   1
  -9   9  11 251.462 10.8933  -2
   3   9  11 251.462 10.8933   1
 -11   9  11 119.443 8.67568  -2
   5   9  11 119.443 8.67568   1
 -13   9  11 3.59853 7.61580  -2
   7   9  11 3.59853 7.61580   1
   6  10  11 283.917 11.1911  -2
 -12  10  11 283.917 11.1911   1
   4  10  11 98.9255 6.32786  -2
 -10  10  11 98.9255 6.32786   1
   2  10  11 160.305 8.24725  -2
  -8  10  11 160.305 8.24725   1
   0  10  11 493.098 17.0978  -2
  -6  10  11 493.098 17.0978   1
  -2  10  11 43.9830 6.12745  -2
  -4  10  11 43.9830 6.12745   1
  -4  10  11 76.3245 6.82174  -2
  -2  10  11 76.3245 6.82174   1
  -6  10  11 343.335 13.1411  -2
   0  10  11 343.335 13.1411   1
  -8  10  11 829.142 26.9753  -2
   2  10  11 829.142 26.9753   1
 -10  10  11 16.5282 6.74051  -2
   4  10  11 16.5282 6.74051   1
 -12  10  11 171.838 12.3074  -2
   6  10  11 171.838 12.3074   1
   1  11  11 208.083 11.7608  -2
  -7  11  11 208.083 11.7608   1
  -1  11  11 908.403 34.9702  -2
  -5  11  11 908.403 34.9702   1
  -3  11  11 19.2100 9.86686  -2
  -3  11  11 19.2100 9.86686   1
  -5  11  11 399.065 17.5544  -2
  -1  11  11 399.065 17.5544   1
  -7  11  11 69.3815 7.10484  -2
   1  11  11 69.3815 7.10484   1
   3  11  11 130.511 7.15109   1
 -20   0  12 25.4705 10.6954   1
  12   0  12 39.2713 16.8375  -2
 -18   0  12 39.2713 16.8375   1
  10   0  12 1154.84 71.4337  -2
 -16   0  12 1154.84 71.4337   1
   8   0  12 405.312 16.0075  -2
 -14   0  12 405.312 16.0075   1
   6   0  12 1334.64 37.3788  -2
 -12   0  12 1334.64 37.3788   1
   4   0  12 176.638 7.50337  -2
 -10   0  12 176.638 7.50337   1
   2   0  12 545.173 16.4728  -2
  -8   0  12 545.173 16.4728   1
   0   0  12 2053.22 55.5826  -2
  -6   0  12 2053.22 55.5826   1
  -2   0  12 65.4015 4.88909  -2
  -4   0  12 65.4015 4.88909   1
  -4   0  12 5.70603 4.04846  -2
  -2   0  12 5.70603 4.04846   1
  -6   0  12 1373.29 37.7361  -2
   0   0  12 1373.29 37.7361   1
  -8   0  12 118.700 7.16312  -2
   2   0  12 118.700 7.16312   1
 -10   0  12 233.583 13.2641  -2
   4   0  12 233.583 13.2641   1
 -12   0  12 239.479 13.6700  -2
   6   0  12 239.479 13.6700   1
 -14   0  12 373.620 19.0385  -2
   8   0  12 373.620 19.0385   1
 -16   0  12 1442.48 48.8448  -2
  10   0  12 1442.48 48.8448   1
 -18   0  12 149.259 14.6270  -2
  12   0  12 149.259 14.6270   1
  13   1  12 107.500 14.1129  -2
 -19   1  12 107.500 14.1129   1
  11   1  12 164.771 9.61247  -2
 -17   1  12 164.771 9.61247   1
   9   1  12 8.58584 5.25782  -2
 -15   1  12 8.58584 5.25782   1
   7   1  12 286.021 9.76157  -2
 -13   1  12 286.021 9.76157   1
   5   1  12 91.8360 4.96568  -2
 -11   1  12 91.8360 4.96568   1
   3   1  12 53.5784 3.68228  -2
  -9   1  12 53.5784 3.68228   1
   1   1  12 39.5092 3.36190  -2
  -7   1  12 39.5092 3.36190   1
  -1   1  12 440.906 10.3464  -2
  -5   1  12 440.906 10.3464   1
  -3   1  12 284.726 6.42154  -2
  -3   1  12 284.726 6.42154   1
  -5   1  12 662.853 14.6680  -2
  -1   1  12 662.853 14.6680   1
  -7   1  12 91.1668 4.64910  -2
   1   1  12 91.1668 4.64910   1
  -9   1  12 146.858 6.42224  -2
   3   1  12 146.858 6.42224   1
 -11   1  12 488.205 14.0099  -2
   5   1  12 488.205 14.0099   1
 -13   1  12 899.210 26.8614  -2
   7   1  12 899.210 26.8614   1
 -15   1  12 64.3979 7.33569  -2
   9   1  12 64.3979 7.33569   1
 -17   1  12 57.7387 7.67829  -2
  11   1  12 57.7387 7.67829   1
 -19   1  12 145.236 10.2140  -2
  13   1  12 145.236 10.2140   1
  12   2  12 507.990 15.6781  -2
 -18   2  12 507.990 15.6781   1
  10   2  12 845.557 22.9183  -2
 -16   2  12 845.557 22.9183   1
   8   2  12 79.2077 6.11626  -2
 -14   2  12 79.2077 6.11626   1
   6   2  12 641.809 17.7154  -2
 -12   2  12 641.809 17.7154   1
   4   2  12 421.896 12.2920  -2
 -10   2  12 421.896 12.2920   1
   2   2  12 73.6762 4.27032  -2
  -8   2  12 73.6762 4.27032   1
   0   2  12 475.897 10.9646  -2
  -6   2  12 475.897 10.9646   1
  -2   2  12 1180.02 24.7414  -2
  -4   2  12 1180.02 24.7414   1
  -4   2  12 1614.40 33.3160  -2
  -2   2  12 1614.40 33.3160   1
  -6   2  12 877.065 20.4508  -2
   0   2  12 877.065 20.4508   1
  -8   2  12 371.729 11.0786  -2
   2   2  12 371.729 11.0786   1
 -10   2  12 482.290 13.8363  -2
   4   2  12 482.290 13.8363   1
 -12   2  12 189.707 7.98558  -2
   6   2  12 189.707 7.98558   1
 -14   2  12 133.394 7.94125  -2
   8   2  12 133.394 7.94125   1
 -16   2  12 481.825 16.4986  -2
  10   2  12 481.825 16.4986   1
 -18   2  12 229.516 11.7685  -2
  12   2  12 229.516 11.7685   1
  13   3  12 129.264 13.1955  -2
 -19   3  12 129.264 13.1955   1
  11   3  12 242.968 10.8525  -2
 -17   3  12 242.968 10.8525   1
   9   3  12 69.3275 6.81832  -2
 -15   3  12 69.3275 6.81832   1
   7   3  12 221.628 8.53105  -2
 -13   3  12 221.628 8.53105   1
   5   3  12 36.1021 4.15739  -2
 -11   3  12 36.1021 4.15739   1
   3   3  12 58.0323 4.06444  -2
  -9   3  12 58.0323 4.06444   1
   1   3  12 17.7815 3.12768  -2
  -7   3  12 17.7815 3.12768   1
  -1   3  12 485.322 10.3579  -2
  -5   3  12 485.322 10.3579   1
  -3   3  12 513.278 10.9459  -2
  -3   3  12 513.278 10.9459   1
  -5   3  12 492.078 11.2810  -2
  -1   3  12 492.078 11.2810   1
  -7   3  12 33.0125 4.30973  -2
   1   3  12 33.0125 4.30973   1
  -9   3  12 240.244 8.41368  -2
   3   3  12 240.244 8.41368   1
 -11   3  12 150.563 6.21568  -2
   5   3  12 150.563 6.21568   1
 -13   3  12 572.253 14.7896  -2
   7   3  12 572.253 14.7896   1
 -15   3  12 350.425 13.1669  -2
   9   3  12 350.425 13.1669   1
 -17   3  12 41.6321 7.32502  -2
  11   3  12 41.6321 7.32502   1
 -19   3  12 351.322 16.9694  -2
  13   3  12 351.322 16.9694   1
  12   4  12 16.3339 6.83989  -2
 -18   4  12 16.3339 6.83989   1
  10   4  12 406.765 14.5120  -2
 -16   4  12 406.765 14.5120   1
   8   4  12 527.244 16.9862  -2
 -14   4  12 527.244 16.9862   1
   6   4  12 498.871 13.6450  -2
 -12   4  12 498.871 13.6450   1
   4   4  12 33.6712 3.93915  -2
 -10   4  12 33.6712 3.93915   1
   2   4  12 1050.92 25.6113  -2
  -8   4  12 1050.92 25.6113   1
   0   4  12 947.248 23.1388  -2
  -6   4  12 947.248 23.1388   1
  -2   4  12 38.5626 3.25344  -2
  -4   4  12 38.5626 3.25344   1
  -4   4  12 112.950 4.68172  -2
  -2   4  12 112.950 4.68172   1
  -6   4  12 595.397 15.5027  -2
   0   4  12 595.397 15.5027   1
  -8   4  12 377.677 10.8637  -2
   2   4  12 377.677 10.8637   1
 -10   4  12 58.2983 4.69798  -2
   4   4  12 58.2983 4.69798   1
 -12   4  12 206.605 8.70012  -2
   6   4  12 206.605 8.70012   1
 -14   4  12 458.432 14.9195  -2
   8   4  12 458.432 14.9195   1
 -16   4  12 593.245 26.2257  -2
  10   4  12 593.245 26.2257   1
 -18   4  12 50.1488 8.91247  -2
  12   4  12 50.1488 8.91247   1
  11   5  12 101.058 8.23849  -2
 -17   5  12 101.058 8.23849   1
   9   5  12 7.99834 5.33876  -2
 -15   5  12 7.99834 5.33876   1
   7   5  12 210.481 7.60213  -2
 -13   5  12 210.481 7.60213   1
   5   5  12 97.9792 5.12723  -2
 -11   5  12 97.9792 5.12723   1
   3   5  12 62.4259 4.22361  -2
  -9   5  12 62.4259 4.22361   1
   1   5  12 94.7799 4.68317  -2
  -7   5  12 94.7799 4.68317   1
  -1   5  12 274.808 8.17003  -2
  -5   5  12 274.808 8.17003   1
  -3   5  12 144.032 5.57939  -2
  -3   5  12 144.032 5.57939   1
  -5   5  12 528.219 17.5043  -2
  -1   5  12 528.219 17.5043   1
  -7   5  12 86.0222 5.23330  -2
   1   5  12 86.0222 5.23330   1
  -9   5  12 49.3343 4.95205  -2
   3   5  12 49.3343 4.95205   1
 -11   5  12 526.173 14.2951  -2
   5   5  12 526.173 14.2951   1
 -13   5  12 880.535 28.7990  -2
   7   5  12 880.535 28.7990   1
 -15   5  12 4.37479 6.54004  -2
   9   5  12 4.37479 6.54004   1
 -17   5  12 27.6582 7.66327  -2
  11   5  12 27.6582 7.66327   1
  10   6  12 86.3359 6.15638  -2
 -16   6  12 86.3359 6.15638   1
   8   6  12 189.961 7.52018  -2
 -14   6  12 189.961 7.52018   1
   6   6  12 1302.90 31.7463  -2
 -12   6  12 1302.90 31.7463   1
   4   6  12 711.093 18.1359  -2
 -10   6  12 711.093 18.1359   1
   2   6  12 319.077 9.32454  -2
  -8   6  12 319.077 9.32454   1
   0   6  12 47.2516 3.80056  -2
  -6   6  12 47.2516 3.80056   1
  -2   6  12 244.611 7.58312  -2
  -4   6  12 244.611 7.58312   1
  -4   6  12 399.003 10.9405  -2
  -2   6  12 399.003 10.9405   1
  -6   6  12 163.144 6.74319  -2
   0   6  12 163.144 6.74319   1
  -8   6  12 912.007 25.3676  -2
   2   6  12 912.007 25.3676   1
 -10   6  12 768.715 24.9496  -2
   4   6  12 768.715 24.9496   1
 -12   6  12 280.238 9.92037  -2
   6   6  12 280.238 9.92037   1
 -14   6  12 211.728 9.03767  -2
   8   6  12 211.728 9.03767   1
 -16   6  12 43.2621 7.54257  -2
  10   6  12 43.2621 7.54257   1
   9   7  12 62.4147 5.51521  -2
 -15   7  12 62.4147 5.51521   1
   7   7  12 198.443 7.61073  -2
 -13   7  12 198.443 7.61073   1
   5   7  12 36.4232 4.29883  -2
 -11   7  12 36.4232 4.29883   1
   3   7  12 57.4421 4.37685  -2
  -9   7  12 57.4421 4.37685   1
   1   7  12 54.4073 4.09882  -2
  -7   7  12 54.4073 4.09882   1
  -1   7  12 343.746 9.83206  -2
  -5   7  12 343.746 9.83206   1
  -3   7  12 303.583 8.88935  -2
  -3   7  12 303.583 8.88935   1
  -5   7  12 302.901 8.86695  -2
  -1   7  12 302.901 8.86695   1
  -7   7  12 100.267 6.48842  -2
   1   7  12 100.267 6.48842   1
  -9   7  12 291.176 11.4637  -2
   3   7  12 291.176 11.4637   1
 -11   7  12 194.608 9.33273  -2
   5   7  12 194.608 9.33273   1
 -13   7  12 335.725 11.6309  -2
   7   7  12 335.725 11.6309   1
 -15   7  12 257.993 10.3952  -2
   9   7  12 257.993 10.3952   1
   8   8  12 490.845 17.8381  -2
 -14   8  12 490.845 17.8381   1
   6   8  12 100.386 5.75341  -2
 -12   8  12 100.386 5.75341   1
   4   8  12 -1.9598 3.85669  -2
 -10   8  12 -1.9598 3.85669   1
   2   8  12 1425.88 34.2431  -2
  -8   8  12 1425.88 34.2431   1
   0   8  12 272.113 8.43649  -2
  -6   8  12 272.113 8.43649   1
  -2   8  12 245.286 7.72631  -2
  -4   8  12 245.286 7.72631   1
  -4   8  12 336.774 9.67237  -2
  -2   8  12 336.774 9.67237   1
  -6   8  12 129.138 5.74794  -2
   0   8  12 129.138 5.74794   1
  -8   8  12 619.824 20.4880  -2
   2   8  12 619.824 20.4880   1
 -10   8  12 0.74200 4.93528  -2
   4   8  12 0.74200 4.93528   1
 -12   8  12 332.944 13.2069  -2
   6   8  12 332.944 13.2069   1
 -14   8  12 488.519 17.8737  -2
   8   8  12 488.519 17.8737   1
   5   9  12 33.1424 4.56149  -2
 -11   9  12 33.1424 4.56149   1
   3   9  12 117.586 5.72136  -2
  -9   9  12 117.586 5.72136   1
   1   9  12 63.2045 4.59297  -2
  -7   9  12 63.2045 4.59297   1
  -1   9  12 160.258 5.94600  -2
  -5   9  12 160.258 5.94600   1
  -3   9  12 193.548 7.25800  -2
  -3   9  12 193.548 7.25800   1
  -5   9  12 369.841 11.4280  -2
  -1   9  12 369.841 11.4280   1
  -7   9  12 16.3313 4.16350  -2
   1   9  12 16.3313 4.16350   1
  -9   9  12 31.9485 5.44060  -2
   3   9  12 31.9485 5.44060   1
 -11   9  12 142.934 8.16056  -2
   5   9  12 142.934 8.16056   1
 -10  10  12 484.304 13.4439   1
   2  10  12 215.006 8.49458  -2
  -8  10  12 215.006 8.49458   1
   0  10  12 9.05824 4.32623  -2
  -6  10  12 9.05824 4.32623   1
  -2  10  12 119.886 6.51078  -2
  -4  10  12 119.886 6.51078   1
  -4  10  12 194.625 8.36935  -2
  -2  10  12 194.625 8.36935   1
  -6  10  12 44.4060 4.96159  -2
   0  10  12 44.4060 4.96159   1
  -8  10  12 547.715 18.6776  -2
   2  10  12 547.715 18.6776   1
 -18   0  13 577.160 40.2975   1
 -16   0  13 14.5176 9.27260   1
 -14   0  13 69.8882 7.65795   1
   6   0  13 408.731 27.8241  -2
 -12   0  13 408.731 27.8241   1
 -10   0  13 541.652 19.4249   1
   2   0  13 216.062 13.1535  -2
  -8   0  13 216.062 13.1535   1
   0   0  13 311.665 16.6588  -2
  -6   0  13 311.665 16.6588   1
  -2   0  13 248.180 19.1527  -2
  -4   0  13 248.180 19.1527   1
  -4   0  13 425.904 28.4097  -2
  -2   0  13 425.904 28.4097   1
   0   0  13 1064.62 43.9533   1
   2   0  13 30.3711 5.52418   1
   4   0  13 158.158 16.5901   1
 -12   0  13 523.970 38.0977  -2
   6   0  13 523.970 38.0977   1
   8   0  13 706.088 30.9474   1
 -16   0  13 173.092 29.1474  -2
  10   0  13 173.092 29.1474   1
 -18   0  13 222.150 31.3118  -2
  12   0  13 222.150 31.3118   1
 -19   1  13 0.60785 6.54778   1
 -17   1  13 98.9212 7.87337   1
   9   1  13 158.089 20.5920  -2
 -15   1  13 158.089 20.5920   1
   7   1  13 181.459 13.3807  -2
 -13   1  13 181.459 13.3807   1
   5   1  13 -5.2118 12.7963  -2
 -11   1  13 -5.2118 12.7963   1
   3   1  13 25.5610 11.9090  -2
  -9   1  13 25.5610 11.9090   1
   1   1  13 770.824 27.9774  -2
  -7   1  13 770.824 27.9774   1
  -1   1  13 172.557 9.30690  -2
  -5   1  13 172.557 9.30690   1
  -3   1  13 -2.7344 8.86793  -2
  -3   1  13 -2.7344 8.86793   1
  -5   1  13 182.645 15.0152  -2
  -1   1  13 182.645 15.0152   1
  -7   1  13 298.898 25.1980  -2
   1   1  13 298.898 25.1980   1
   3   1  13 4.40790 3.00769   1
 -11   1  13 6.51175 11.7432  -2
   5   1  13 6.51175 11.7432   1
 -13   1  13 21.3253 11.2229  -2
   7   1  13 21.3253 11.2229   1
 -15   1  13 54.4930 18.9010  -2
   9   1  13 54.4930 18.9010   1
 -17   1  13 20.0107 28.3042  -2
  11   1  13 20.0107 28.3042   1
 -18   2  13 54.4105 5.55310   1
 -16   2  13 198.519 8.36279   1
   8   2  13 208.834 14.5358  -2
 -14   2  13 208.834 14.5358   1
   6   2  13 370.044 18.5056  -2
 -12   2  13 370.044 18.5056   1
   4   2  13 581.496 35.4481  -2
 -10   2  13 581.496 35.4481   1
   2   2  13 98.0265 13.9745  -2
  -8   2  13 98.0265 13.9745   1
   0   2  13 -4.1860 7.59404  -2
  -6   2  13 -4.1860 7.59404   1
  -2   2  13 333.624 14.9335  -2
  -4   2  13 333.624 14.9335   1
  -4   2  13 363.099 29.0566  -2
  -2   2  13 363.099 29.0566   1
  -6   2  13 -2.6230 16.5254  -2
   0   2  13 -2.6230 16.5254   1
  -8   2  13 162.023 20.6580  -2
   2   2  13 162.023 20.6580   1
 -10   2  13 881.943 56.8131  -2
   4   2  13 881.943 56.8131   1
   6   2  13 621.206 16.0744   1
 -14   2  13 136.680 21.2310  -2
   8   2  13 136.680 21.2310   1
  10   2  13 63.6940 6.52399   1
  12   2  13 405.950 15.2920   1
 -17   3  13 13.0030 4.13403   1
   9   3  13 458.057 32.3855  -2
 -15   3  13 458.057 32.3855   1
   7   3  13 691.249 42.5392  -2
 -13   3  13 691.249 42.5392   1
   5   3  13 40.3220 12.7342  -2
 -11   3  13 40.3220 12.7342   1
   3   3  13 234.001 11.6555  -2
  -9   3  13 234.001 11.6555   1
   1   3  13 351.823 14.4826  -2
  -7   3  13 351.823 14.4826   1
  -1   3  13 87.3078 8.37996  -2
  -5   3  13 87.3078 8.37996   1
  -3   3  13 121.576 17.8899  -2
  -3   3  13 121.576 17.8899   1
  -5   3  13 33.0953 16.4258  -2
  -1   3  13 33.0953 16.4258   1
  -7   3  13 200.286 22.3140  -2
   1   3  13 200.286 22.3140   1
   3   3  13 183.475 7.26942   1
   5   3  13 5.65222 2.61738   1
   7   3  13 299.422 10.2538   1
 -15   3  13 152.704 21.9499  -2
   9   3  13 152.704 21.9499   1
  11   3  13 86.7887 7.41145   1
 -16   4  13 23.4252 4.42357   1
   8   4  13 168.112 19.0048  -2
 -14   4  13 168.112 19.0048   1
   6   4  13 335.470 24.8339  -2
 -12   4  13 335.470 24.8339   1
   4   4  13 325.142 23.6737  -2
 -10   4  13 325.142 23.6737   1
   2   4  13 169.371 11.4749  -2
  -8   4  13 169.371 11.4749   1
   0   4  13 147.258 9.81667  -2
  -6   4  13 147.258 9.81667   1
  -4   4  13 200.525 6.33499   1
  -2   4  13 495.430 11.2979   1
   0   4  13 798.878 20.2966   1
   2   4  13 96.9004 6.54191   1
   4   4  13 60.6233 5.49082   1
   6   4  13 262.684 9.83600   1
   8   4  13 858.132 22.6433   1
  10   4  13 76.5705 6.76518   1
 -17   5  13 125.248 11.2137   1
 -15   5  13 50.7472 5.22499   1
 -13   5  13 54.1543 4.18621   1
   5   5  13 12.6577 8.25527  -2
 -11   5  13 12.6577 8.25527   1
  -9   5  13 211.440 7.30684   1
   1   5  13 795.422 46.0021  -2
  -7   5  13 795.422 46.0021   1
  -5   5  13 399.387 11.1648   1
  -3   5  13 6.59255 2.25605   1
  -1   5  13 242.175 7.32395   1
   1   5  13 145.520 6.79166   1
   3   5  13 45.6950 4.23977   1
   5   5  13 43.6841 5.06564   1
   7   5  13 53.5903 5.33684   1
   9   5  13 24.0363 4.54456   1
 -16   6  13 154.072 11.0075   1
   8   6  13 209.941 21.4070  -2
 -14   6  13 209.941 21.4070   1
 -12   6  13 206.626 7.55517   1
   4   6  13 312.092 23.2049  -2
 -10   6  13 312.092 23.2049   1
  -8   6  13 73.2987 4.38684   1
   0   6  13 18.5239 11.1262  -2
  -6   6  13 18.5239 11.1262   1
  -2   6  13 333.631 21.9738  -2
  -4   6  13 333.631 21.9738   1
  -2   6  13 454.781 11.4543   1
   0   6  13 4.77705 2.58188   1
   2   6  13 17.8819 3.41515   1
   4   6  13 313.441 12.3053   1
   6   6  13 249.475 10.9076   1
   8   6  13 8.87197 3.90790   1
 -13   7  13 245.030 8.57375   1
 -11   7  13 -0.6052 2.54312   1
   3   7  13 121.678 10.7971  -2
  -9   7  13 121.678 10.7971   1
  -7   7  13 254.249 8.26648   1
  -1   7  13 24.0665 12.0942  -2
  -5   7  13 24.0665 12.0942   1
  -3   7  13 124.170 5.54858   1
  -1   7  13 41.1665 3.66979   1
   1   7  13 88.6547 5.32453   1
   3   7  13 33.2508 4.31559   1
   5   7  13 16.7941 3.95449   1
   7   7  13 175.563 9.20984   1
 -12   8  13 172.724 7.09093   1
   4   8  13 185.956 18.4773  -2
 -10   8  13 185.956 18.4773   1
   2   8  13 175.815 18.1423  -2
  -8   8  13 175.815 18.1423   1
  -6   8  13 2.76128 2.55726   1
  -4   8  13 177.462 6.65192   1
  -2   8  13 439.972 12.4180   1
   0   8  13 372.458 12.0615   1
   2   8  13 137.452 6.64068   1
   4   8  13 4.03925 3.44227   1
   6   8  13 96.5763 7.00975   1
  -9   9  13 0.21246 2.64309   1
  -7   9  13 338.636 10.2100   1
  -5   9  13 27.2880 3.24267   1
  -3   9  13 18.1212 10.6108  -2
  -3   9  13 18.1212 10.6108   1
  -1   9  13 8.73478 2.63798   1
  -7   9  13 170.357 16.7430  -2
   1   9  13 170.357 16.7430   1
   3   9  13 52.2173 4.49106   1
  -6  10  13 3.20180 2.83093   1
  -4  10  13 198.638 8.95682   1
  -2  10  13 228.882 9.86660   1
 -18   0  14 304.418 26.4246   1
 -16   0  14 0.52890 8.64236   1
 -14   0  14 231.580 14.1031   1
 -12   0  14 1991.71 63.8689   1
 -10   0  14 174.132 9.17211   1
  -8   0  14 268.837 11.6472   1
  -6   0  14 11.2357 3.53492   1
  -4   0  14 324.620 13.2867   1
  -2   0  14 226.996 10.5626   1
   0   0  14 37.8314 4.74460   1
   2   0  14 428.068 20.7203   1
   4   0  14 1250.25 51.7627   1
   6   0  14 391.927 19.6037   1
   8   0  14 77.6625 6.80589   1
  10   0  14 127.257 10.6705   1
 -17   1  14 3.46785 6.37445   1
 -15   1  14 50.7680 5.25697   1
 -13   1  14 229.684 8.72164   1
 -11   1  14 59.8969 4.02922   1
  -9   1  14 21.3388 2.94519   1
  -7   1  14 3.05091 2.39000   1
  -5   1  14 165.456 6.24947   1
  -3   1  14 4.14093 2.22366   1
  -1   1  14 61.6358 3.70369   1
   1   1  14 44.8436 4.04007   1
 -11   1  14 177.145 22.4791  -2
   3   1  14 177.145 22.4791   1
   5   1  14 66.6574 6.25766   1
   7   1  14 86.3687 6.02246   1
   9   1  14 39.1378 5.05053   1
 -16   2  14 8.14013 3.68457   1
 -14   2  14 442.172 13.5337   1
 -12   2  14 36.8251 3.90159   1
 -10   2  14 211.766 8.04589   1
  -8   2  14 981.385 23.2565   1
  -6   2  14 1009.99 23.8132   1
  -4   2  14 34.4084 3.22578   1
  -2   2  14 1051.44 24.7729   1
   0   2  14 68.5004 4.10505   1
   2   2  14 923.916 27.6494   1
   4   2  14 158.601 8.17676   1
   6   2  14 289.161 10.1824   1
   8   2  14 365.422 12.1478   1
  10   2  14 65.7684 5.91312   1
 -17   3  14 0.78477 3.93235   1
 -15   3  14 17.0847 4.13056   1
 -13   3  14 409.661 14.0658   1
 -11   3  14 65.2419 4.64526   1
  -9   3  14 2.79468 2.76297   1
  -7   3  14 7.90309 2.48688   1
  -5   3  14 144.230 5.30575   1
  -3   3  14 97.1176 4.30199   1
  -1   3  14 90.9349 4.00356   1
   1   3  14 13.8617 2.90806   1
   3   3  14 35.8087 4.43464   1
   5   3  14 9.28205 3.59707   1
   7   3  14 98.1301 5.70498   1
   9   3  14 -1.9012 3.65448   1
 -16   4  14 95.4418 6.67972   1
 -14   4  14 178.312 8.62591   1
 -12   4  14 919.068 26.9766   1
 -10   4  14 100.298 5.41328   1
  -8   4  14 11.0324 2.85645   1
  -6   4  14 33.0247 3.44975   1
  -4   4  14 769.204 19.8240   1
  -2   4  14 378.416 10.1472   1
   0   4  14 15.7133 3.02726   1
   2   4  14 190.402 9.57435   1
   4   4  14 708.449 21.4035   1
   6   4  14 151.514 8.01652   1
   8   4  14 12.0792 3.95582   1
 -15   5  14 93.4684 6.45681   1
 -13   5  14 91.8797 5.94388   1
 -11   5  14 44.9481 4.39295   1
  -9   5  14 28.6017 3.36372   1
  -7   5  14 6.73492 2.61493   1
  -5   5  14 70.5923 4.31920   1
  -3   5  14 7.36472 2.63832   1
  -1   5  14 43.4582 3.19908   1
   1   5  14 141.089 6.42835   1
   3   5  14 192.372 9.67942   1
   5   5  14 87.5287 6.79829   1
   7   5  14 75.0091 7.85494   1
 -14   6  14 332.992 11.8501   1
 -12   6  14 79.9055 4.97345   1
 -10   6  14 221.508 7.87790   1
  -8   6  14 121.937 5.77221   1
  -6   6  14 974.738 24.3364   1
  -4   6  14 86.2444 4.74819   1
  -2   6  14 452.562 11.6067   1
   0   6  14 427.504 12.3325   1
   2   6  14 306.919 9.71933   1
   4   6  14 7.38620 3.85970   1
   6   6  14 509.869 22.3689   1
 -13   7  14 325.930 13.4056   1
 -11   7  14 30.8426 3.58184   1
  -9   7  14 3.24107 2.70240   1
  -7   7  14 5.29141 2.63187   1
  -5   7  14 214.774 7.61288   1
  -3   7  14 81.3738 4.70893   1
  -1   7  14 25.1713 3.08463   1
   1   7  14 14.1080 3.32607   1
   3   7  14 16.9865 3.56040   1
   5   7  14 36.2459 4.84634   1
 -10   8  14 59.4820 4.40359   1
  -8   8  14 64.2263 4.30402   1
  -6   8  14 53.3919 4.14689   1
  -4   8  14 1075.53 26.7119   1
  -2   8  14 394.351 11.6406   1
   0   8  14 141.305 6.15440   1
   2   8  14 22.4100 3.66081   1
  -7   9  14 35.3470 4.27980   1
  -5   9  14 -1.3317 2.69924   1
  -3   9  14 4.51274 2.92481   1
  -1   9  14 68.3114 4.38708   1
   8   0  15 1052.89 67.8933  -2
 -16   0  15 1052.89 67.8933   1
   6   0  15 37.7202 19.8743  -2
 -14   0  15 37.7202 19.8743   1
   4   0  15 39.8453 10.8309  -2
 -12   0  15 39.8453 10.8309   1
   2   0  15 107.722 11.3318  -2
 -10   0  15 107.722 11.3318   1
   0   0  15 819.785 28.4287  -2
  -8   0  15 819.785 28.4287   1
  -2   0  15 196.042 10.5495  -2
  -6   0  15 196.042 10.5495   1
  -4   0  15 92.8531 8.84028  -2
  -4   0  15 92.8531 8.84028   1
  -6   0  15 856.056 29.7229  -2
  -2   0  15 856.056 29.7229   1
  -8   0  15 490.087 23.6581  -2
   0   0  15 490.087 23.6581   1
 -10   0  15 342.895 19.2300  -2
   2   0  15 342.895 19.2300   1
 -12   0  15 6.16680 11.2769  -2
   4   0  15 6.16680 11.2769   1
 -14   0  15 75.8011 17.3864  -2
   6   0  15 75.8011 17.3864   1
 -16   0  15 286.999 20.3211  -2
   8   0  15 286.999 20.3211   1
   7   1  15 2.17993 7.68713  -2
 -15   1  15 2.17993 7.68713   1
   5   1  15 20.7936 7.27945  -2
 -13   1  15 20.7936 7.27945   1
   3   1  15 66.9428 6.52032  -2
 -11   1  15 66.9428 6.52032   1
   1   1  15 594.598 15.5052  -2
  -9   1  15 594.598 15.5052   1
  -1   1  15 549.752 14.5561  -2
  -7   1  15 549.752 14.5561   1
  -3   1  15 558.469 14.8338  -2
  -5   1  15 558.469 14.8338   1
  -5   1  15 154.481 6.96493  -2
  -3   1  15 154.481 6.96493   1
  -7   1  15 608.640 19.7994  -2
  -1   1  15 608.640 19.7994   1
  -9   1  15 548.063 18.4467  -2
   1   1  15 548.063 18.4467   1
 -11   1  15 278.729 12.4813  -2
   3   1  15 278.729 12.4813   1
 -13   1  15 58.5358 10.1394  -2
   5   1  15 58.5358 10.1394   1
 -15   1  15 15.1568 9.91782  -2
   7   1  15 15.1568 9.91782   1
   8   2  15 156.684 9.49829  -2
 -16   2  15 156.684 9.49829   1
   6   2  15 136.560 8.40634  -2
 -14   2  15 136.560 8.40634   1
   4   2  15 64.9920 7.14459  -2
 -12   2  15 64.9920 7.14459   1
   2   2  15 571.159 16.8000  -2
 -10   2  15 571.159 16.8000   1
   0   2  15 118.260 6.43864  -2
  -8   2  15 118.260 6.43864   1
  -2   2  15 319.630 9.98813  -2
  -6   2  15 319.630 9.98813   1
  -4   2  15 43.4876 5.61277  -2
  -4   2  15 43.4876 5.61277   1
  -6   2  15 285.488 9.41514  -2
  -2   2  15 285.488 9.41514   1
  -8   2  15 217.791 9.34934  -2
   0   2  15 217.791 9.34934   1
 -10   2  15 162.763 8.38656  -2
   2   2  15 162.763 8.38656   1
 -12   2  15 15.7787 7.78479  -2
   4   2  15 15.7787 7.78479   1
 -14   2  15 126.202 11.4013  -2
   6   2  15 126.202 11.4013   1
 -16   2  15 884.090 32.6596  -2
   8   2  15 884.090 32.6596   1
   7   3  15 272.633 12.0154  -2
 -15   3  15 272.633 12.0154   1
   5   3  15 120.627 8.83018  -2
 -13   3  15 120.627 8.83018   1
   3   3  15 448.267 15.4111  -2
 -11   3  15 448.267 15.4111   1
   1   3  15 981.144 25.8625  -2
  -9   3  15 981.144 25.8625   1
  -1   3  15 171.379 8.32936  -2
  -7   3  15 171.379 8.32936   1
  -3   3  15 97.7911 6.36858  -2
  -5   3  15 97.7911 6.36858   1
  -5   3  15 15.2471 5.21911  -2
  -3   3  15 15.2471 5.21911   1
  -7   3  15 76.0046 6.13620  -2
  -1   3  15 76.0046 6.13620   1
  -9   3  15 1028.74 27.3453  -2
   1   3  15 1028.74 27.3453   1
 -11   3  15 830.236 25.9718  -2
   3   3  15 830.236 25.9718   1
 -13   3  15 23.8431 9.25665  -2
   5   3  15 23.8431 9.25665   1
 -15   3  15 225.669 13.7834  -2
   7   3  15 225.669 13.7834   1
   6   4  15 27.2514 7.28572  -2
 -14   4  15 27.2514 7.28572   1
   4   4  15 32.6702 7.12250  -2
 -12   4  15 32.6702 7.12250   1
   2   4  15 139.836 8.26771  -2
 -10   4  15 139.836 8.26771   1
   0   4  15 764.423 23.2643  -2
  -8   4  15 764.423 23.2643   1
  -2   4  15 82.2450 6.12311  -2
  -6   4  15 82.2450 6.12311   1
  -4   4  15 88.5446 6.58529  -2
  -4   4  15 88.5446 6.58529   1
  -6   4  15 482.405 14.1518  -2
  -2   4  15 482.405 14.1518   1
  -8   4  15 408.278 14.1532  -2
   0   4  15 408.278 14.1532   1
 -10   4  15 515.653 20.6312  -2
   2   4  15 515.653 20.6312   1
 -12   4  15 10.8423 9.15122  -2
   4   4  15 10.8423 9.15122   1
 -14   4  15 216.674 13.6405  -2
   6   4  15 216.674 13.6405   1
   5   5  15 25.2231 7.55916  -2
 -13   5  15 25.2231 7.55916   1
   3   5  15 14.3576 6.16081  -2
 -11   5  15 14.3576 6.16081   1
   1   5  15 387.954 13.3102  -2
  -9   5  15 387.954 13.3102   1
  -1   5  15 580.352 17.7428  -2
  -7   5  15 580.352 17.7428   1
  -3   5  15 706.515 21.0367  -2
  -5   5  15 706.515 21.0367   1
  -5   5  15 191.091 8.72226  -2
  -3   5  15 191.091 8.72226   1
  -7   5  15 967.350 27.5730  -2
  -1   5  15 967.350 27.5730   1
  -9   5  15 289.476 11.7371  -2
   1   5  15 289.476 11.7371   1
 -11   5  15 82.8745 9.78904  -2
   3   5  15 82.8745 9.78904   1
 -13   5  15 79.3663 10.1808  -2
   5   5  15 79.3663 10.1808   1
   4   6  15 14.5484 9.18602  -2
 -12   6  15 14.5484 9.18602   1
   2   6  15 538.382 17.2597  -2
 -10   6  15 538.382 17.2597   1
   0   6  15 85.2961 6.29066  -2
  -8   6  15 85.2961 6.29066   1
  -2   6  15 92.3783 6.36109  -2
  -6   6  15 92.3783 6.36109   1
  -4   6  15 11.9801 5.28525  -2
  -4   6  15 11.9801 5.28525   1
  -6   6  15 62.9481 6.13007  -2
  -2   6  15 62.9481 6.13007   1
  -8   6  15 226.283 10.1302  -2
   0   6  15 226.283 10.1302   1
 -10   6  15 98.9069 9.19060  -2
   2   6  15 98.9069 9.19060   1
 -12   6  15 27.4874 15.0149  -2
   4   6  15 27.4874 15.0149   1
   1   7  15 472.211 13.7279  -2
  -9   7  15 472.211 13.7279   1
  -1   7  15 266.419 9.68230  -2
  -7   7  15 266.419 9.68230   1
  -3   7  15 160.544 7.67355  -2
  -5   7  15 160.544 7.67355   1
  -5   7  15 49.4314 5.71065  -2
  -3   7  15 49.4314 5.71065   1
  -7   7  15 88.0100 6.45447  -2
  -1   7  15 88.0100 6.45447   1
  -9   7  15 715.553 21.2825  -2
   1   7  15 715.553 21.2825   1
  -2   8  15 31.2535 7.28473  -2
  -6   8  15 31.2535 7.28473   1
  -4   8  15 35.3166 7.64619  -2
  -4   8  15 35.3166 7.64619   1
  -6   8  15 190.947 12.6341  -2
  -2   8  15 190.947 12.6341   1
   6   0  16 800.605 53.2293  -2
 -14   0  16 800.605 53.2293   1
   4   0  16 106.839 11.5845  -2
 -12   0  16 106.839 11.5845   1
   2   0  16 327.926 17.8576  -2
 -10   0  16 327.926 17.8576   1
   0   0  16 141.250 11.7965  -2
  -8   0  16 141.250 11.7965   1
  -2   0  16 669.952 23.7913  -2
  -6   0  16 669.952 23.7913   1
  -4   0  16 58.0160 7.53197  -2
  -4   0  16 58.0160 7.53197   1
  -6   0  16 773.193 27.0832  -2
  -2   0  16 773.193 27.0832   1
  -8   0  16 273.498 16.1414  -2
   0   0  16 273.498 16.1414   1
 -10   0  16 295.560 17.3600  -2
   2   0  16 295.560 17.3600   1
 -12   0  16 137.589 12.9207  -2
   4   0  16 137.589 12.9207   1
 -14   0  16 602.012 28.9849  -2
   6   0  16 602.012 28.9849   1
   5   1  16 40.0188 7.07735  -2
 -13   1  16 40.0188 7.07735   1
   3   1  16 329.187 12.8722  -2
 -11   1  16 329.187 12.8722   1
   1   1  16 1.82563 5.26314  -2
  -9   1  16 1.82563 5.26314   1
  -1   1  16 86.9036 6.32253  -2
  -7   1  16 86.9036 6.32253   1
  -3   1  16 29.5054 5.61021  -2
  -5   1  16 29.5054 5.61021   1
  -5   1  16 17.6698 5.59646  -2
  -3   1  16 17.6698 5.59646   1
  -7   1  16 31.6950 5.73767  -2
  -1   1  16 31.6950 5.73767   1
  -9   1  16 22.8355 6.75349  -2
   1   1  16 22.8355 6.75349   1
 -11   1  16 135.470 8.97415  -2
   3   1  16 135.470 8.97415   1
 -13   1  16 109.604 9.29686  -2
   5   1  16 109.604 9.29686   1
   6   2  16 63.4615 8.90150  -2
 -14   2  16 63.4615 8.90150   1
   4   2  16 779.223 21.5008  -2
 -12   2  16 779.223 21.5008   1
   2   2  16 6.48597 5.36019  -2
 -10   2  16 6.48597 5.36019   1
   0   2  16 72.8675 5.65593  -2
  -8   2  16 72.8675 5.65593   1
  -2   2  16 6.30660 4.57032  -2
  -6   2  16 6.30660 4.57032   1
  -4   2  16 2617.15 58.5562  -2
  -4   2  16 2617.15 58.5562   1
  -6   2  16 0.70151 4.57721  -2
  -2   2  16 0.70151 4.57721   1
  -8   2  16 13.6978 5.78749  -2
   0   2  16 13.6978 5.78749   1
 -10   2  16 26.0443 6.08926  -2
   2   2  16 26.0443 6.08926   1
 -12   2  16 1020.91 31.1136  -2
   4   2  16 1020.91 31.1136   1
 -14   2  16 71.0209 10.5371  -2
   6   2  16 71.0209 10.5371   1
   5   3  16 -7.4739 7.51970  -2
 -13   3  16 -7.4739 7.51970   1
   3   3  16 431.600 14.9380  -2
 -11   3  16 431.600 14.9380   1
   1   3  16 22.9543 5.88706  -2
  -9   3  16 22.9543 5.88706   1
  -1   3  16 23.7607 5.90590  -2
  -7   3  16 23.7607 5.90590   1
  -3   3  16 16.3163 4.59127  -2
  -5   3  16 16.3163 4.59127   1
  -5   3  16 28.3669 5.04648  -2
  -3   3  16 28.3669 5.04648   1
  -7   3  16 -1.3280 4.93763  -2
  -1   3  16 -1.3280 4.93763   1
  -9   3  16 8.86520 6.27747  -2
   1   3  16 8.86520 6.27747   1
 -11   3  16 114.044 8.25816  -2
   3   3  16 114.044 8.25816   1
 -13   3  16 5.19952 8.36234  -2
   5   3  16 5.19952 8.36234   1
   4   4  16 -1.2394 10.1045  -2
 -12   4  16 -1.2394 10.1045   1
   2   4  16 321.745 13.5245  -2
 -10   4  16 321.745 13.5245   1
   0   4  16 4.91889 5.65036  -2
  -8   4  16 4.91889 5.65036   1
  -2   4  16 636.571 19.7252  -2
  -6   4  16 636.571 19.7252   1
  -4   4  16 4.53843 5.65241  -2
  -4   4  16 4.53843 5.65241   1
  -6   4  16 708.770 19.1123  -2
  -2   4  16 708.770 19.1123   1
  -8   4  16 36.6251 5.85273  -2
   0   4  16 36.6251 5.85273   1
 -10   4  16 348.153 13.2539  -2
   2   4  16 348.153 13.2539   1
 -12   4  16 5.31470 8.18173  -2
   4   4  16 5.31470 8.18173   1
   3   5  16 178.446 18.7270  -2
 -11   5  16 178.446 18.7270   1
   1   5  16 5.72951 5.94154  -2
  -9   5  16 5.72951 5.94154   1
  -1   5  16 108.210 6.85442  -2
  -7   5  16 108.210 6.85442   1
  -3   5  16 78.4114 6.26368  -2
  -5   5  16 78.4114 6.26368   1
  -5   5  16 22.3805 5.12878  -2
  -3   5  16 22.3805 5.12878   1
  -7   5  16 30.4298 5.59679  -2
  -1   5  16 30.4298 5.59679   1
  -9   5  16 33.2424 6.48792  -2
   1   5  16 33.2424 6.48792   1
 -11   5  16 96.9093 12.4375  -2
   3   5  16 96.9093 12.4375   1
   0   6  16 47.5610 8.08384  -2
  -8   6  16 47.5610 8.08384   1
  -2   6  16 -4.9563 4.99469  -2
  -6   6  16 -4.9563 4.99469   1
  -4   6  16 919.056 26.1078  -2
  -4   6  16 919.056 26.1078   1
  -6   6  16 -2.4016 5.08132  -2
  -2   6  16 -2.4016 5.08132   1
  -8   6  16 130.946 11.6853  -2
   0   6  16 130.946 11.6853   1
 -12   0  17 1.91302 5.51645   1
   2   0  17 490.188 33.6051  -2
 -10   0  17 490.188 33.6051   1
   0   0  17 232.493 28.3578  -2
  -8   0  17 232.493 28.3578   1
  -2   0  17 494.859 39.0867  -2
  -6   0  17 494.859 39.0867   1
  -4   0  17 42.2476 21.5779  -2
  -4   0  17 42.2476 21.5779   1
  -6   0  17 141.636 24.0037  -2
  -2   0  17 141.636 24.0037   1
   0   0  17 265.042 16.0332   1
   2   0  17 596.182 28.0040   1
   3   1  17 -7.6860 15.6795  -2
 -11   1  17 -7.6860 15.6795   1
   1   1  17 29.9461 8.02455  -2
  -9   1  17 29.9461 8.02455   1
  -1   1  17 317.978 31.4122  -2
  -7   1  17 317.978 31.4122   1
  -3   1  17 17.8455 10.3064  -2
  -5   1  17 17.8455 10.3064   1
  -5   1  17 0.25970 21.6351  -2
  -3   1  17 0.25970 21.6351   1
  -1   1  17 146.537 7.14848   1
  -9   1  17 89.2060 22.6169  -2
   1   1  17 89.2060 22.6169   1
 -11   1  17 -15.698 19.5599  -2
   3   1  17 -15.698 19.5599   1
   2   2  17 25.4302 16.3252  -2
 -10   2  17 25.4302 16.3252   1
   0   2  17 499.617 34.4552  -2
  -8   2  17 499.617 34.4552   1
  -2   2  17 35.2488 16.1389  -2
  -6   2  17 35.2488 16.1389   1
  -4   2  17 0.85209 11.6746  -2
  -4   2  17 0.85209 11.6746   1
  -6   2  17 19.4088 20.9904  -2
  -2   2  17 19.4088 20.9904   1
   0   2  17 206.832 8.84053   1
 -10   2  17 198.360 27.0970  -2
   2   2  17 198.360 27.0970   1
   1   3  17 165.320 20.4113  -2
  -9   3  17 165.320 20.4113   1
  -1   3  17 31.7398 10.6787  -2
  -7   3  17 31.7398 10.6787   1
  -3   3  17 4.34206 15.6583  -2
  -5   3  17 4.34206 15.6583   1
  -5   3  17 76.4758 22.9485  -2
  -3   3  17 76.4758 22.9485   1
  -7   3  17 65.0107 23.0714  -2
  -1   3  17 65.0107 23.0714   1
  -9   3  17 244.143 28.4564  -2
   1   3  17 244.143 28.4564   1
  -8   4  17 71.0067 6.79099   1
  -6   4  17 485.217 16.2710   1
  -4   4  17 86.9581 24.9507  -2
  -4   4  17 86.9581 24.9507   1
  -6   4  17 168.758 26.1578  -2
  -2   4  17 168.758 26.1578   1
  -8   4  17 348.249 34.0309  -2
   0   4  17 348.249 34.0309   1
  -5   5  17 26.0165 9.94203   1
  -3   5  17 48.7731 11.1255   1
  -6   0  18 7.20144 5.24828   1
  -4   0  18 89.7966 9.33706   1
  -2   0  18 11.9726 5.84214   1
  -3   1  18 116.136 25.5725  -2
  -7   1  18 116.136 25.5725   1
  -5   1  18 269.060 10.0941   1
  -3   1  18 134.865 6.98901   1
  -4   2  18 4.76580 7.39650   1
   0   0   0    0.00    0.00   0
;
_shelx_hkl_checksum              87493
#END Tags that were not found in dictionaries
loop_
_space_group_symop_operation_xyz
'x, y, z'
'-x, y, -z'
'x+1/2, y+1/2, z'
'-x+1/2, y+1/2, -z'
'-x, -y, -z'
'x, -y, z'
'-x+1/2, -y+1/2, -z'
'x+1/2, -y+1/2, z'
loop_
_atom_site_label
_atom_site_type_symbol
_atom_site_fract_x
_atom_site_fract_y
_atom_site_fract_z
_atom_site_U_iso_or_equiv
_atom_site_adp_type
_atom_site_occupancy
_atom_site_site_symmetry_order
_atom_site_calc_flag
_atom_site_refinement_flags_posn
_atom_site_refinement_flags_adp
_atom_site_refinement_flags_occupancy
U1 U 0.43902(2) 0.25682(2) 0.29707(2) 0.00466(5) Uani 1 1 d . . .
U2 U 0.20297(2) 0.0000 0.45624(2) 0.00445(5) Uani 1 2 d S T P
U3 U 0.67906(2) 0.0000 0.01804(2) 0.00450(5) Uani 1 2 d S T P
Se1 Se 0.12748(3) 0.30652(5) 0.46509(5) 0.00523(8) Uani 1 1 d . . .
Se2 Se 0.36538(3) 0.31286(5) 0.02497(5) 0.00491(8) Uani 1 1 d . . .
Se3 Se 0.05598(5) 0.0000 0.22640(7) 0.00569(11) Uani 1 2 d S T P
Se4 Se 0.21393(5) 0.0000 0.72315(7) 0.00540(11) Uani 1 2 d S T P
Se5 Se 0.30022(5) 0.0000 0.24429(7) 0.00540(11) Uani 1 2 d S T P
Se6 Se 0.52005(5) 0.0000 0.16785(7) 0.00545(11) Uani 1 2 d S T P
Se7 Se 0.0000 0.0000 0.5000 0.00542(15) Uani 1 4 d S T P
Cr1 Cr 0.0000 0.0000 0.0000 0.0049(2) Uani 1 4 d S T P
loop_
_atom_site_aniso_label
_atom_site_aniso_U_11
_atom_site_aniso_U_22
_atom_site_aniso_U_33
_atom_site_aniso_U_23
_atom_site_aniso_U_13
_atom_site_aniso_U_12
U1 0.00374(7) 0.00488(7) 0.00510(8) 0.00001(5) 0.00030(6) -0.00005(5)
U2 0.00353(9) 0.00500(9) 0.00462(10) 0.000 0.00037(7) 0.000
U3 0.00421(10) 0.00445(9) 0.00467(10) 0.000 0.00047(7) 0.000
Se1 0.00390(18) 0.00540(18) 0.00607(19) -0.00019(14) 0.00027(15) -0.00077(13)
Se2 0.00420(17) 0.00454(17) 0.00575(18) 0.00000(13) 0.00045(15) -0.00037(13)
Se3 0.0049(3) 0.0070(2) 0.0050(3) 0.000 0.0006(2) 0.000
Se4 0.0039(2) 0.0078(2) 0.0042(3) 0.000 0.0002(2) 0.000
Se5 0.0043(2) 0.0069(2) 0.0051(3) 0.000 0.0012(2) 0.000
Se6 0.0041(2) 0.0060(2) 0.0061(3) 0.000 0.0008(2) 0.000
Se7 0.0047(4) 0.0060(3) 0.0055(4) 0.000 0.0010(3) 0.000
Cr1 0.0029(6) 0.0069(6) 0.0047(6) 0.000 0.0001(5) 0.000
loop_
_atom_type_symbol
_atom_type_description
_atom_type_scat_dispersion_real
_atom_type_scat_dispersion_imag
_atom_type_scat_source
Cr Cr 0.3209 0.6236 'International Tables Vol C Tables 4.2.6.8 and 6.1.1.4'
Se Se -0.0929 2.2259 'International Tables Vol C Tables 4.2.6.8 and 6.1.1.4'
U U -9.6767 9.6646 'International Tables Vol C Tables 4.2.6.8 and 6.1.1.4'
loop_
_geom_angle_atom_site_label_1
_geom_angle_atom_site_label_2
_geom_angle_atom_site_label_3
_geom_angle
_geom_angle_site_symmetry_1
_geom_angle_site_symmetry_3
Se3 U1 Se1 80.136(17) 3 8
Se3 U1 Se5 153.80(2) 3 .
Se1 U1 Se5 116.184(15) 8 .
Se3 U1 Se2 73.054(17) 3 .
Se1 U1 Se2 137.550(15) 8 .
Se5 U1 Se2 81.621(16) . .
Se3 U1 Se1 131.509(17) 3 7_556
Se1 U1 Se1 79.332(15) 8 7_556
Se5 U1 Se1 73.775(17) . 7_556
Se2 U1 Se1 142.662(14) . 7_556
Se3 U1 Se4 83.026(15) 3 7_556
Se1 U1 Se4 135.503(16) 8 7_556
Se5 U1 Se4 96.240(15) . 7_556
Se2 U1 Se4 73.329(17) . 7_556
Se1 U1 Se4 81.794(16) 7_556 7_556
Se3 U1 Se6 98.559(16) 3 .
Se1 U1 Se6 77.156(17) 8 .
Se5 U1 Se6 67.860(16) . .
Se2 U1 Se6 75.071(16) . .
Se1 U1 Se6 118.685(15) 7_556 .
Se4 U1 Se6 146.372(19) 7_556 .
Se3 U1 Se7 65.636(13) 3 3
Se1 U1 Se7 66.513(10) 8 3
Se5 U1 Se7 138.428(15) . 3
Se2 U1 Se7 126.233(10) . 3
Se1 U1 Se7 65.912(10) 7_556 3
Se4 U1 Se7 69.007(13) 7_556 3
Se6 U1 Se7 142.061(14) . 3
Se4 U2 Se1 80.077(16) . 7_556
Se4 U2 Se1 80.077(16) . 4_546
Se1 U2 Se1 72.220(19) 7_556 4_546
Se4 U2 Se3 139.28(2) . .
Se1 U2 Se3 130.205(15) 7_556 .
Se1 U2 Se3 130.205(15) 4_546 .
Se4 U2 Se1 84.942(12) . 6
Se1 U2 Se1 144.625(13) 7_556 6
Se1 U2 Se1 73.733(15) 4_546 6
Se3 U2 Se1 80.389(12) . 6
Se4 U2 Se1 84.942(12) . .
Se1 U2 Se1 73.733(15) 7_556 .
Se1 U2 Se1 144.625(13) 4_546 .
Se3 U2 Se1 80.390(12) . .
Se1 U2 Se1 136.69(2) 6 .
Se4 U2 Se5 149.96(2) . .
Se1 U2 Se5 75.765(15) 7_556 .
Se1 U2 Se5 75.765(15) 4_546 .
Se3 U2 Se5 70.76(2) . .
Se1 U2 Se5 104.814(12) 6 .
Se1 U2 Se5 104.814(12) . .
Se4 U2 Se7 72.126(14) . .
Se1 U2 Se7 134.292(11) 7_556 .
Se1 U2 Se7 134.292(11) 4_546 .
Se3 U2 Se7 67.152(15) . .
Se1 U2 Se7 68.402(10) 6 .
Se1 U2 Se7 68.402(10) . .
Se5 U2 Se7 137.910(16) . .
Se2 U3 Se2 151.69(2) 5_655 2_655
Se2 U3 Se4 102.181(11) 5_655 5_656
Se2 U3 Se4 102.181(11) 2_655 5_656
Se2 U3 Se5 84.264(12) 5_655 5_655
Se2 U3 Se5 84.264(12) 2_655 5_655
Se4 U3 Se5 144.50(2) 5_656 5_655
Se2 U3 Se6 86.033(11) 5_655 .
Se2 U3 Se6 86.033(12) 2_655 .
Se4 U3 Se6 76.05(2) 5_656 .
Se5 U3 Se6 139.45(2) 5_655 .
Se2 U3 Se2 132.960(12) 5_655 8
Se2 U3 Se2 68.615(15) 2_655 8
Se4 U3 Se2 73.338(15) 5_656 8
Se5 U3 Se2 76.921(15) 5_655 8
Se6 U3 Se2 134.365(14) . 8
Se2 U3 Se2 68.615(15) 5_655 3_545
Se2 U3 Se2 132.960(12) 2_655 3_545
Se4 U3 Se2 73.338(15) 5_656 3_545
Se5 U3 Se2 76.921(15) 5_655 3_545
Se6 U3 Se2 134.365(14) . 3_545
Se2 U3 Se2 65.292(18) 8 3_545
Se2 U3 Se6 75.846(11) 5_655 5_655
Se2 U3 Se6 75.846(11) 2_655 5_655
Se4 U3 Se6 148.42(2) 5_656 5_655
Se5 U3 Se6 67.078(19) 5_655 5_655
Se6 U3 Se6 72.37(2) . 5_655
Se2 U3 Se6 131.213(14) 8 5_655
Se2 U3 Se6 131.213(14) 3_545 5_655
U2 Se1 U2 106.267(15) 7_556 .
U2 Se1 U1 150.279(19) 7_556 8_455
U2 Se1 U1 94.861(14) . 8_455
U2 Se1 U1 103.282(16) 7_556 7_556
U2 Se1 U1 91.872(14) . 7_556
U1 Se1 U1 96.527(14) 8_455 7_556
Cr1 Se2 U3 138.506(19) 3 5_655
Cr1 Se2 U1 95.917(15) 3 .
U3 Se2 U1 91.309(14) 5_655 .
Cr1 Se2 U3 106.513(15) 3 3_455
U3 Se2 U3 111.384(15) 5_655 3_455
U1 Se2 U3 103.388(15) . 3_455
Cr1 Se3 U1 100.957(18) . 3_445
Cr1 Se3 U1 100.957(18) . 8_455
U1 Se3 U1 95.83(2) 3_445 8_455
Cr1 Se3 U2 154.54(3) . .
U1 Se3 U2 96.009(18) 3_445 .
U1 Se3 U2 96.009(18) 8_455 .
U2 Se4 U3 152.98(3) . 5_656
U2 Se4 U1 91.978(17) . 4_546
U3 Se4 U1 106.630(18) 5_656 4_546
U2 Se4 U1 91.978(17) . 7_556
U3 Se4 U1 106.630(18) 5_656 7_556
U1 Se4 U1 91.40(2) 4_546 7_556
U2 Se5 U3 158.44(3) . 5_655
U2 Se5 U1 103.618(18) . 6
U3 Se5 U1 90.040(17) 5_655 6
U2 Se5 U1 103.619(18) . .
U3 Se5 U1 90.039(17) 5_655 .
U1 Se5 U1 100.06(2) 6 .
U3 Se6 U1 130.003(11) . .
U3 Se6 U1 130.004(11) . 6
U1 Se6 U1 97.77(2) . 6
U3 Se6 U3 107.63(2) . 5_655
U1 Se6 U3 86.398(15) . 5_655
U1 Se6 U3 86.398(15) 6 5_655
U2 Se7 U2 180.0 . 5_556
U2 Se7 U1 90.909(5) . 3_445
U2 Se7 U1 89.091(5) 5_556 3_445
U2 Se7 U1 89.091(5) . 7_556
U2 Se7 U1 90.909(5) 5_556 7_556
U1 Se7 U1 180.0 3_445 7_556
U2 Se7 U1 89.091(5) . 4_546
U2 Se7 U1 90.909(5) 5_556 4_546
U1 Se7 U1 91.622(7) 3_445 4_546
U1 Se7 U1 88.378(7) 7_556 4_546
U2 Se7 U1 90.909(5) . 8_455
U2 Se7 U1 89.091(5) 5_556 8_455
U1 Se7 U1 88.378(7) 3_445 8_455
U1 Se7 U1 91.622(7) 7_556 8_455
U1 Se7 U1 180.0 4_546 8_455
Se3 Cr1 Se3 180.0 . 5
Se3 Cr1 Se2 88.938(17) . 3_445
Se3 Cr1 Se2 91.063(17) 5 3_445
Se3 Cr1 Se2 91.062(17) . 7
Se3 Cr1 Se2 88.937(17) 5 7
Se2 Cr1 Se2 180.000(14) 3_445 7
Se3 Cr1 Se2 91.062(16) . 4_545
Se3 Cr1 Se2 88.937(17) 5 4_545
Se2 Cr1 Se2 99.38(2) 3_445 4_545
Se2 Cr1 Se2 80.62(2) 7 4_545
Se3 Cr1 Se2 88.938(16) . 8_455
Se3 Cr1 Se2 91.063(17) 5 8_455
Se2 Cr1 Se2 80.62(2) 3_445 8_455
Se2 Cr1 Se2 99.38(2) 7 8_455
Se2 Cr1 Se2 180.000(14) 4_545 8_455
loop_
_geom_bond_atom_site_label_1
_geom_bond_atom_site_label_2
_geom_bond_distance
_geom_bond_site_symmetry_2
U1 Se3 2.8783(5) 3
U1 Se1 2.9195(5) 8
U1 Se5 2.9438(5) .
U1 Se2 2.9696(5) .
U1 Se1 2.9702(5) 7_556
U1 Se4 2.9847(5) 7_556
U1 Se6 2.9945(5) .
U1 Se7 3.06475(18) 3
U2 Se4 2.8768(7) .
U2 Se1 2.8840(5) 7_556
U2 Se1 2.8840(5) 4_546
U2 Se3 2.8856(7) .
U2 Se1 2.8971(5) 6
U2 Se1 2.8972(5) .
U2 Se5 2.8972(8) .
U2 Se7 2.9447(3) .
U3 Se2 2.8345(5) 5_655
U3 Se2 2.8345(5) 2_655
U3 Se4 2.9032(7) 5_656
U3 Se5 2.9259(7) 5_655
U3 Se6 2.9942(7) .
U3 Se2 3.0475(5) 8
U3 Se2 3.0475(5) 3_545
U3 Se6 3.0701(7) 5_655
Se1 U2 2.8839(5) 7_556
Se1 U1 2.9195(5) 8_455
Se1 U1 2.9701(5) 7_556
Se2 Cr1 2.5412(5) 3
Se2 U3 2.8345(5) 5_655
Se2 U3 3.0474(5) 3_455
Se3 Cr1 2.4273(7) .
Se3 U1 2.8783(5) 3_445
Se3 U1 2.8783(5) 8_455
Se4 U3 2.9032(7) 5_656
Se4 U1 2.9847(5) 4_546
Se4 U1 2.9847(5) 7_556
Se5 U3 2.9258(7) 5_655
Se5 U1 2.9438(5) 6
Se6 U1 2.9945(5) 6
Se6 U3 3.0702(7) 5_655
Se7 U2 2.9448(3) 5_556
Se7 U1 3.06472(18) 3_445
Se7 U1 3.06472(18) 7_556
Se7 U1 3.06472(18) 4_546
Se7 U1 3.06472(18) 8_455
Cr1 Se3 2.4273(7) 5
Cr1 Se2 2.5412(5) 3_445
Cr1 Se2 2.5412(5) 7
Cr1 Se2 2.5412(5) 4_545
Cr1 Se2 2.5412(5) 8_455
