#------------------------------------------------------------------------------
#$Date: 2016-03-23 23:08:28 +0200 (Wed, 23 Mar 2016) $
#$Revision: 179502 $
#$URL: svn://www.crystallography.net/cod/cif/4/33/99/4339996.cif $
#------------------------------------------------------------------------------
#
# This file is available in the Crystallography Open Database (COD),
# http://www.crystallography.net/
#
# All data on this site have been placed in the public domain by the
# contributors.
#
data_4339996
loop_
_publ_author_name
'Richtera, Lukas'
'Jancik, Vojtech'
'Mart\'inez-Otero, Diego'
'Pokluda, Ales'
'Zak, Zdirad'
'Taraba, Jan'
'Touzin, Jiri'
_publ_section_title
;
 Taming the Oxidative Power of SeO3 in 1,4-Dioxane, Isolation of Two New
 Isomers of Mixed-Valence Selenium Oxides, and Two Unprecedented Cyclic
 Esters of Selenic Acid.
;
_journal_issue                   13
_journal_name_full               'Inorganic chemistry'
_journal_page_first              6569
_journal_page_last               6577
_journal_paper_doi               10.1021/ic500137z
_journal_volume                  53
_journal_year                    2014
_chemical_formula_moiety         'H2 O7 Se2, C4 H8 O2'
_chemical_formula_sum            'C4 H10 O9 Se2'
_chemical_formula_weight         360.04
_chemical_name_systematic
; 
 ? 
;
_space_group_crystal_system      triclinic
_space_group_IT_number           2
_space_group_name_Hall           '-P 1'
_space_group_name_H-M_alt        'P -1'
_symmetry_space_group_name_Hall  '-P 1'
_symmetry_space_group_name_H-M   'P -1'
_atom_sites_solution_hydrogens   mixed
_atom_sites_solution_primary     direct
_atom_sites_solution_secondary   difmap
_audit_creation_method           SHELXL-2013
_cell_angle_alpha                93.176(5)
_cell_angle_beta                 94.356(6)
_cell_angle_gamma                98.012(6)
_cell_formula_units_Z            2
_cell_length_a                   5.9908(5)
_cell_length_b                   7.0818(5)
_cell_length_c                   12.2584(8)
_cell_measurement_reflns_used    6168
_cell_measurement_temperature    150(2)
_cell_measurement_theta_max      26.366
_cell_measurement_theta_min      2.911
_cell_volume                     512.36(7)
_computing_cell_refinement       'Version 1.171.35.19 CrysAlis171'
_computing_data_collection       '1.170.27 CrysAlis170'
_computing_data_reduction        'Version 1.171.35.19 CrysAlis171'
_computing_molecular_graphics    'Gretep and POV-Ray'
_computing_publication_material  'Bruker SHELXTL'
_computing_structure_refinement  'SHELXL-2013 (Sheldrick, 2013)'
_computing_structure_solution    'SHELXT (Sheldrick, 2013)'
_diffrn_ambient_temperature      150(2)
_diffrn_measured_fraction_theta_full 0.998
_diffrn_measured_fraction_theta_max 0.999
_diffrn_measurement_device_type  'KM4CCD/SAPPHIRE CCD'
_diffrn_measurement_method       '\w scans'
_diffrn_radiation_type           MoK\a
_diffrn_radiation_wavelength     0.71073
_diffrn_reflns_av_R_equivalents  0.0160
_diffrn_reflns_av_unetI/netI     0.0180
_diffrn_reflns_Laue_measured_fraction_full 0.998
_diffrn_reflns_Laue_measured_fraction_max 0.999
_diffrn_reflns_limit_h_max       7
_diffrn_reflns_limit_h_min       -6
_diffrn_reflns_limit_k_max       8
_diffrn_reflns_limit_k_min       -8
_diffrn_reflns_limit_l_max       14
_diffrn_reflns_limit_l_min       -14
_diffrn_reflns_number            5654
_diffrn_reflns_point_group_measured_fraction_full 0.998
_diffrn_reflns_point_group_measured_fraction_max 0.999
_diffrn_reflns_theta_full        25.242
_diffrn_reflns_theta_max         25.249
_diffrn_reflns_theta_min         2.911
_diffrn_source                   'Sealed tube'
_exptl_absorpt_coefficient_mu    7.247
_exptl_absorpt_correction_T_max  0.4312
_exptl_absorpt_correction_T_min  0.3593
_exptl_absorpt_correction_type   multi-scan
_exptl_absorpt_process_details   'SADABS 2009/1, Sheldrick'
_exptl_crystal_colour            colourless
_exptl_crystal_density_diffrn    2.334
_exptl_crystal_description       prism
_exptl_crystal_F_000             348
_exptl_crystal_size_max          0.100
_exptl_crystal_size_mid          0.100
_exptl_crystal_size_min          0.050
_refine_diff_density_max         0.414
_refine_diff_density_min         -0.353
_refine_diff_density_rms         0.074
_refine_ls_extinction_method     none
_refine_ls_goodness_of_fit_ref   1.102
_refine_ls_hydrogen_treatment    mixed
_refine_ls_matrix_type           full
_refine_ls_number_parameters     170
_refine_ls_number_reflns         1858
_refine_ls_number_restraints     107
_refine_ls_restrained_S_all      1.079
_refine_ls_R_factor_all          0.0232
_refine_ls_R_factor_gt           0.0190
_refine_ls_shift/su_max          0.001
_refine_ls_shift/su_mean         0.000
_refine_ls_structure_factor_coef Fsqd
_refine_ls_weighting_details
; 
 w=1/[\s^2^(Fo^2^)+(0.0144P)^2^+0.7556P] 
 where P=(Fo^2^+2Fc^2^)/3 
;
_refine_ls_weighting_scheme      calc
_refine_ls_wR_factor_gt          0.0413
_refine_ls_wR_factor_ref         0.0430
_reflns_Friedel_coverage         0.000
_reflns_number_gt                1684
_reflns_number_total             1858
_reflns_threshold_expression     'I > 2\s(I)'
_cod_data_source_file            ic500137z_si_002.cif
_cod_data_source_block           H2Se2O7
_cod_depositor_comments
;
The following automatic conversions were performed:

'_exptl_absorpt_correction_type' value 'Multi-scan' changed to
'multi-scan' according to
/usr/data/users/saulius/crontab/automatic-downloads/rss-feeds/ACS/lib/dictionaries/cif_core.dic
dictionary named 'cif_core.dic' version 2.4.2 from 2011-04-26.

Automatic conversion script
Id: cif_fix_values 2281 2013-09-26 08:29:07Z andrius 

 Adding full bibliography for 4339987--4339996.cif.
;
_cod_database_code               4339996
#BEGIN Tags that were not found in dictionaries:
_shelx_space_group_comment
; 
The symmetry employed for this shelxl refinement is uniquely defined 
by the following loop, which should always be used as a source of 
symmetry information in preference to the above space-group names. 
They are only intended as comments. 
;
_shelx_estimated_absorpt_t_min   0.531
_shelx_estimated_absorpt_t_max   0.713
_shelxl_version_number           2013-2
_shelx_res_file
; 
TITL out in P-1 
CELL 0.71073   5.9908   7.0818  12.2584  93.176  94.356  98.012 
ZERR    2.00   0.0005   0.0005   0.0008   0.005   0.006   0.006 
LATT 1 
  
SFAC C H O Se 
UNIT 8 20 18 4 
EQIV $1 x, y-1, z 
  
temp -123 
L.S. 10 
PLAN  20 
  
htab O2 O8 
htab O5 O9_$1 
size 0.10 0.10 0.05 
BOND 
LIST 4 
fmap 2 
  
ACTA 
sadi o2 h2 o5 h5 
sadi h2 se1 h5 se2 
rigu o3a se1a o3 se1 o4 o4a 
simu 0.015 o3 o3a o4 o4a se1 se1a 
  
same se1 o1 o2 o4 o3 
same se1a o1 o2 o3a o4a 
WGHT    0.014400    0.755600 
FVAR       0.19131   0.53929 
part 1 21.0 
SE1   4    0.427692    0.077453    0.156435    21.00000    0.01690    0.01942 = 
         0.01457    0.00628    0.00692    0.01285 
part 0 
O1    3    0.399517    0.008030    0.294117    11.00000    0.01339    0.03046 = 
         0.01580    0.01039    0.00498    0.00819 
O2    3    0.158287    0.036307    0.106495    11.00000    0.01878    0.01105 = 
         0.01999    0.00440   -0.00162    0.00438 
H2    2    0.126832    0.140318    0.081623    11.00000   -1.50000 
part 1 21.0 
O3    3    0.519984    0.301524    0.170782    21.00000    0.01318    0.02067 = 
         0.02790    0.00704    0.00282    0.00419 
O4    3    0.582618   -0.067096    0.109490    21.00000    0.03362    0.02972 = 
         0.02419    0.00528    0.00949    0.02353 
part 2 -21.0 
O3A   3    0.555492    0.271337    0.155719   -21.00000    0.01404    0.01954 = 
         0.03879    0.01308    0.00863   -0.00237 
O4A   3    0.539072   -0.120773    0.109876   -21.00000    0.03017    0.02181 = 
         0.02787    0.00286    0.00761    0.01904 
SE1A  4    0.430786    0.058649    0.154593   -21.00000    0.01253    0.01638 = 
         0.01524    0.00502    0.00355    0.00621 
part 0 
SE2   4    0.136534   -0.006785    0.352363    11.00000    0.01231    0.01164 = 
         0.01239    0.00297    0.00202    0.00434 
O5    3    0.242557   -0.021081    0.482654    11.00000    0.01710    0.01352 = 
         0.01410    0.00253    0.00143    0.00720 
H5    2    0.290052   -0.125354    0.485257    11.00000   -1.50000 
O6    3   -0.010985   -0.203538    0.306343    11.00000    0.02519    0.01840 = 
         0.01866    0.00096    0.00101   -0.00319 
O7    3    0.044369    0.192265    0.341291    11.00000    0.02523    0.01766 = 
         0.02333    0.00726    0.00275    0.01254 
O8    3    0.035091    0.324168    0.037277    11.00000    0.01917    0.01172 = 
         0.01528    0.00321    0.00229    0.00555 
O9    3    0.403905    0.669564    0.496973    11.00000    0.02175    0.01360 = 
         0.01949    0.00504    0.00611    0.00858 
C1    1    0.126632    0.387485   -0.063543    11.00000    0.01784    0.01491 = 
         0.01515    0.00305    0.00376    0.00666 
AFIX  23 
H1A   2    0.135306    0.275731   -0.114447    11.00000   -1.20000 
H1B   2    0.280987    0.458591   -0.047029    11.00000   -1.20000 
AFIX   0 
C2    1    0.026862    0.485289    0.115336    11.00000    0.01952    0.01333 = 
         0.01279    0.00012    0.00232    0.00595 
AFIX  23 
H2A   2    0.180468    0.557026    0.133368    11.00000   -1.20000 
H2B   2   -0.031972    0.439225    0.183887    11.00000   -1.20000 
AFIX   0 
  
C3    1    0.499308    0.594409    0.401592    11.00000    0.01995    0.01574 = 
         0.01754    0.00457    0.00625    0.00796 
AFIX  23 
H3A   2    0.560365    0.700724    0.358245    11.00000   -1.20000 
H3B   2    0.380218    0.509798    0.354593    11.00000   -1.20000 
AFIX   0 
C4    1    0.313347    0.516953    0.561885    11.00000    0.01839    0.01547 = 
         0.01880    0.00541    0.00526    0.00517 
AFIX  23 
H4A   2    0.190854    0.430986    0.517787    11.00000   -1.20000 
H4B   2    0.249172    0.570939    0.626757    11.00000   -1.20000 
AFIX   0 
HKLF 4 
  
REM  out in P-1 
REM R1 =  0.0190 for    1684 Fo > 4sig(Fo)  and  0.0232 for all    1858 data 
REM    170 parameters refined using    107 restraints 
  
END 
  
WGHT      0.0144      0.7556 
  
REM Highest difference peak  0.414,  deepest hole -0.353,  1-sigma level  0.074 
Q1    1   0.4387 -0.0445  0.1056  11.00000  0.05    0.41 
Q2    1   0.4177  0.0373  0.2387  11.00000  0.05    0.40 
Q3    1   0.1361 -0.1282  0.2964  11.00000  0.05    0.37 
Q4    1   0.4323  0.1795  0.2035  11.00000  0.05    0.34 
Q5    1   0.1117 -0.0602  0.4276  11.00000  0.05    0.33 
Q6    1   0.5754  0.1746  0.1230  11.00000  0.05    0.32 
Q7    1   0.0505  0.2253  0.0630  11.00000  0.05    0.31 
Q8    1   0.0318  0.3979  0.0785  11.00000  0.05    0.30 
Q9    1   0.3034  0.0350  0.3165  11.00000  0.05    0.29 
Q10   1   0.4611  0.3553  0.2021  11.00000  0.05    0.26 
Q11   1  -0.0522  0.5385  0.0840  11.00000  0.05    0.26 
Q12   1   0.0887  0.3550 -0.0033  11.00000  0.05    0.25 
Q13   1   0.3859  0.4440  0.5758  11.00000  0.05    0.25 
Q14   1   0.4325  0.2036  0.1180  11.00000  0.05    0.24 
Q15   1   0.0459 -0.1437  0.2368  11.00000  0.05    0.24 
Q16   1   0.4248  0.0971  0.3225  11.00000  0.05    0.23 
Q17   1   0.0929  0.1090  0.3901  11.00000  0.05    0.23 
Q18   1  -0.0049 -0.0634  0.3564  11.00000  0.05    0.23 
Q19   1   0.2938 -0.0913  0.2614  11.00000  0.05    0.22 
Q20   1   0.3716 -0.1419  0.3363  11.00000  0.05    0.21 
;
_shelx_res_checksum              67084
_shelx_hkl_file
; 
  -1   0   0    5.47    0.17 
  -1   0   0    5.26    0.17 
   1   0   0    5.41    0.16 
   1   0   0    5.45    0.20 
   1   0   0    5.28    0.21 
  -2   0   0  216.88    2.62 
  -2   0   0  220.55    2.71 
   2   0   0  216.43    2.48 
   2   0   0  216.01    2.83 
   2   0   0  215.87    3.11 
  -3   0   0   74.87    1.23 
   3   0   0   69.35    1.48 
   3   0   0   72.35    1.38 
   3   0   0   72.69    1.10 
  -4   0   0   47.25    1.00 
   4   0   0   47.72    0.91 
   4   0   0   47.74    1.31 
   4   0   0   47.61    1.17 
   5   0   0   11.48    0.72 
   5   0   0   10.56    0.61 
   6   0   0    2.88    0.41 
   6   0   0    3.66    0.50 
   7   0   0   86.71    2.21 
   7  -1   0   92.26    2.61 
   7  -1   0   89.25    2.25 
   6  -1   0   11.77    0.70 
   6  -1   0   12.14    0.82 
   5  -1   0   37.23    1.13 
   5  -1   0   36.86    0.90 
   5  -1   0   37.73    1.32 
   4  -1   0  103.05    1.92 
   4  -1   0  102.35    2.15 
   4  -1   0  105.96    1.63 
  -4   1   0  106.67    1.78 
   3  -1   0   34.86    0.86 
   3  -1   0   35.74    0.72 
   3  -1   0   35.32    0.99 
  -3   1   0   35.56    0.80 
   2  -1   0   16.88    0.58 
   2  -1   0   16.51    0.48 
   2  -1   0   16.02    0.42 
  -2   1   0   16.39    0.45 
   1  -1   0    0.29    0.12 
   1  -1   0    0.44    0.10 
  -1   1   0    0.52    0.10 
   0  -1   0  609.50    6.30 
   0   1   0  571.45    6.62 
   0   1   0  589.38    6.95 
   0   1   0  589.66    6.15 
   1   1   0   32.66    0.60 
   1   1   0   32.11    0.79 
   1   1   0   31.85    0.60 
   1   1   0   33.44    0.62 
   1   1   0   32.55    0.57 
  -2  -1   0    0.78    0.12 
   2   1   0    0.95    0.16 
   2   1   0    1.31    0.12 
   2   1   0    0.78    0.11 
   2   1   0    1.15    0.13 
   2   1   0    1.10    0.16 
  -3  -1   0  247.47    3.08 
  -3  -1   0  251.15    3.21 
   3   1   0  243.13    2.88 
   3   1   0  245.05    3.41 
   3   1   0  233.37    3.56 
  -4  -1   0   80.53    1.39 
   4   1   0   79.56    1.65 
   4   1   0   78.80    1.76 
   5   1   0    0.19    0.25 
   5   1   0    0.41    0.27 
   6   1   0   11.13    0.71 
   7  -2   0   63.18    2.11 
   6  -2   0    6.00    0.61 
   6  -2   0    6.51    0.54 
   5  -2   0   24.95    0.93 
   5  -2   0   25.89    1.11 
   5  -2   0   24.18    0.75 
  -5   2   0   25.87    0.85 
   4  -2   0  289.92    3.70 
   4  -2   0  293.61    4.54 
   4  -2   0  293.59    4.22 
  -4   2   0  295.19    3.98 
   3  -2   0    2.30    0.29 
   3  -2   0    2.17    0.21 
  -3   2   0    1.83    0.21 
   2  -2   0  243.21    2.99 
   2  -2   0  237.57    3.50 
  -2   2   0  241.73    3.18 
   1  -2   0    5.89    0.30 
   1  -2   0    6.46    0.28 
  -1   2   0    5.59    0.33 
  -1   2   0    5.87    0.29 
   0   2   0  475.64    5.22 
   0   2   0  477.36    5.59 
   0   2   0  467.98    5.92 
   0   2   0  472.37    5.51 
   1   2   0   36.59    0.75 
   1   2   0   37.33    0.76 
   1   2   0   36.78    0.71 
   1   2   0   36.54    0.93 
   2   2   0   23.35    0.61 
   2   2   0   21.27    0.86 
   2   2   0   22.11    0.64 
   2   2   0   21.89    0.60 
   2   2   0   21.81    0.56 
  -3  -2   0  274.32    3.58 
   3   2   0  269.40    3.69 
   3   2   0  269.55    3.98 
   3   2   0  263.55    3.22 
   3   2   0  264.33    3.43 
   3   2   0  267.01    3.45 
   4   2   0    8.27    0.52 
   5   2   0   18.91    0.86 
   6   2   0    0.32    0.29 
   7  -3   0   33.12    1.55 
   6  -3   0   13.85    0.90 
   6  -3   0   14.36    0.66 
   5  -3   0   21.58    1.04 
   5  -3   0   21.33    0.76 
  -5   3   0   22.39    0.83 
   4  -3   0  348.89    4.44 
   4  -3   0  345.46    5.32 
  -4   3   0  341.62    4.69 
   3  -3   0    2.27    0.24 
   3  -3   0    2.85    0.34 
  -3   3   0    2.73    0.26 
   2  -3   0   91.81    1.52 
   2  -3   0   92.70    1.78 
  -2   3   0   91.62    1.78 
  -2   3   0   91.75    1.61 
   1  -3   0   10.28    0.42 
   1  -3   0    9.84    0.42 
  -1   3   0   10.46    0.47 
  -1   3   0   10.13    0.43 
  -1   3   0   10.13    0.40 
   0  -3   0  273.68    3.64 
   0   3   0  282.64    3.48 
   0   3   0  283.29    3.63 
   0   3   0  276.51    3.85 
   0   3   0  281.80    3.62 
   1   3   0   21.17    0.61 
   1   3   0   20.61    0.61 
   1   3   0   19.99    0.74 
   1   3   0   20.05    0.56 
   2   3   0   38.35    0.94 
   2   3   0   37.09    0.88 
   2   3   0   38.58    0.96 
   2   3   0   37.77    1.23 
   3   3   0  295.55    4.92 
   3   3   0  280.23    4.01 
   4   3   0    0.52    0.25 
   5   3   0   15.74    0.81 
   6   3   0    3.50    0.49 
   6  -4   0    0.58    0.35 
   6  -4   0    0.38    0.21 
  -6   4   0    0.57    0.25 
   5  -4   0    6.12    0.59 
   5  -4   0    6.19    0.46 
  -5   4   0    5.99    0.49 
   4  -4   0  144.06    2.87 
   4  -4   0  143.62    2.41 
  -4   4   0  145.34    2.92 
  -4   4   0  146.84    2.58 
   3  -4   0    3.77    0.39 
   3  -4   0    2.93    0.31 
  -3   4   0    3.37    0.34 
  -3   4   0    3.27    0.41 
   2  -4   0  108.10    1.86 
   2  -4   0  108.90    2.08 
  -2   4   0  108.96    1.94 
  -2   4   0  109.13    2.11 
   1  -4   0   92.48    1.61 
   1  -4   0   91.59    1.69 
  -1   4   0   91.58    1.83 
  -1   4   0   92.22    1.59 
  -1   4   0   91.98    1.68 
   0  -4   0  112.62    1.79 
   0   4   0  112.52    1.91 
   0   4   0  116.53    1.81 
   0   4   0  110.68    1.91 
   0   4   0  111.40    2.10 
   1   4   0   22.36    0.71 
   1   4   0   21.72    0.87 
   1   4   0   21.50    0.66 
   1   4   0   22.18    0.71 
   2   4   0    7.96    0.45 
   2   4   0    8.50    0.49 
   2   4   0    7.88    0.63 
   2   4   0    7.94    0.46 
   3   4   0   61.18    1.47 
   3   4   0   62.62    1.95 
   4   4   0    0.19    0.24 
   5   4   0   13.89    0.78 
   6  -5   0   12.58    0.93 
   6  -5   0   13.02    0.73 
  -6   5   0   12.48    0.98 
  -6   5   0   12.12    0.73 
   5  -5   0    0.72    0.34 
   5  -5   0    0.51    0.27 
  -5   5   0    0.54    0.37 
  -5   5   0    0.68    0.27 
   4  -5   0  121.62    2.32 
   4  -5   0  120.93    2.64 
  -4   5   0  121.33    2.62 
  -4   5   0  120.74    2.41 
   3  -5   0    0.17    0.22 
   3  -5   0    0.69    0.29 
  -3   5   0    0.25    0.21 
  -3   5   0    0.41    0.22 
  -3   5   0   -0.19    0.30 
   2  -5   0  119.90    2.28 
   2  -5   0  115.33    2.10 
  -2   5   0  116.31    2.08 
  -2   5   0  118.54    2.21 
  -2   5   0  114.16    2.33 
   1  -5   0  144.68    2.46 
  -1   5   0  144.32    2.34 
  -1   5   0  143.94    2.52 
  -1   5   0  146.67    2.69 
   0   5   0   24.21    0.94 
   0   5   0   23.81    0.83 
   0   5   0   23.78    0.80 
   0   5   0   23.47    0.78 
   1   5   0   65.57    1.38 
   1   5   0   65.05    1.73 
   1   5   0   66.19    1.46 
   1   5   0   63.12    1.43 
   2   5   0    3.92    0.37 
   2   5   0    4.25    0.38 
   2   5   0    3.97    0.37 
   2   5   0    4.55    0.53 
   3   5   0   69.33    1.65 
   3   5   0   69.35    2.14 
   4   5   0    0.32    0.23 
   4   5   0    0.39    0.39 
   5   5   0   18.12    0.96 
   5  -6   0    0.26    0.27 
   5  -6   0    0.65    0.37 
  -5   6   0    0.38    0.24 
  -5   6   0    1.15    0.32 
  -5   6   0    0.43    0.38 
   4  -6   0   39.99    1.29 
   4  -6   0   42.04    1.47 
  -4   6   0   39.14    1.44 
  -4   6   0   38.35    1.31 
  -4   6   0   39.59    1.25 
   3  -6   0    7.52    0.59 
   3  -6   0    5.81    0.50 
  -3   6   0    6.80    0.57 
  -3   6   0    6.72    0.53 
  -3   6   0    6.58    0.50 
   2  -6   0   42.94    1.30 
  -2   6   0   44.33    1.31 
  -2   6   0   43.45    1.41 
  -2   6   0   46.14    1.25 
  -1   6   0  120.64    2.27 
  -1   6   0  124.20    2.58 
  -1   6   0  119.59    2.38 
   0   6   0   23.17    1.05 
   0   6   0   24.77    0.93 
   0   6   0   24.06    0.87 
   1   6   0   55.66    1.46 
   1   6   0   56.40    1.70 
   1   6   0   55.34    1.41 
   1   6   0   55.23    1.40 
   2   6   0    0.19    0.21 
   2   6   0    0.01    0.32 
   3   6   0   14.68    1.05 
   3   6   0   14.46    0.75 
   4   6   0    2.83    0.63 
   4  -7   0    5.42    0.54 
   4  -7   0    7.53    0.68 
  -4   7   0    6.01    0.64 
  -4   7   0    6.57    0.55 
  -4   7   0    6.58    0.59 
   3  -7   0   22.64    1.05 
  -3   7   0   22.71    1.09 
  -3   7   0   20.45    0.98 
  -3   7   0   21.54    0.95 
  -2   7   0   25.58    1.07 
  -2   7   0   25.36    1.16 
  -2   7   0   25.03    1.01 
  -1   7   0   16.08    0.81 
  -1   7   0   15.99    0.93 
  -1   7   0   15.73    0.83 
   0   7   0   -0.03    0.23 
   0   7   0   -0.38    0.25 
   0   7   0    0.20    0.28 
   1   7   0   36.30    1.48 
   1   7   0   35.92    1.29 
   1   7   0   36.06    1.22 
   2   7   0    9.10    0.81 
   3   7   0   19.45    1.29 
  -3   8   0   25.58    1.17 
  -3   8   0   25.91    1.25 
  -3   8   0   26.06    1.12 
  -2   8   0   26.90    1.19 
  -2   8   0   24.95    1.25 
  -2   8   0   26.33    1.12 
  -1   8   0   16.93    0.88 
  -1   8   0   15.97    0.91 
  -1   8   0   14.48    0.98 
   0   8   0    0.09    0.36 
   0   8   0    1.05    0.32 
   0   8   0    1.44    0.42 
   1   8   0   29.83    1.49 
   1   8  -1   -0.51    0.37 
   0   8  -1   41.42    1.65 
   0   8  -1   42.97    1.47 
   0   8  -1   41.63    1.36 
  -1   8  -1    0.20    0.34 
  -1   8  -1   -0.03    0.27 
  -1   8  -1    0.34    0.25 
  -2   8  -1   11.52    0.78 
  -2   8  -1    9.27    0.68 
  -2   8  -1    8.49    0.77 
  -3   8  -1    9.63    0.82 
  -3   8  -1   10.41    0.72 
  -3   8  -1   10.74    0.77 
   3   7  -1    2.17    0.55 
   2   7  -1   28.95    1.43 
   1   7  -1    2.09    0.48 
   0   7  -1   23.02    0.96 
   0   7  -1   22.63    1.14 
   0   7  -1   21.93    0.90 
  -1   7  -1   -0.13    0.30 
  -1   7  -1    0.71    0.29 
  -1   7  -1    0.43    0.25 
  -2   7  -1   35.42    1.25 
  -2   7  -1   34.75    1.40 
  -2   7  -1   35.57    1.18 
  -3   7  -1   41.74    1.54 
  -3   7  -1   40.99    1.39 
  -3   7  -1   41.64    1.33 
   3  -7   1   41.70    1.47 
   3  -7   1   41.66    1.40 
  -4   7  -1    1.83    0.35 
  -4   7  -1    1.91    0.39 
  -4   7  -1    1.33    0.39 
   4  -7   1    2.07    0.39 
   4  -7   1    1.86    0.40 
   4   6  -1   39.92    1.32 
   4   6  -1   39.02    1.85 
   3   6  -1    3.79    0.42 
   3   6  -1    2.78    0.59 
   2   6  -1   43.64    1.61 
   1   6  -1    0.44    0.32 
   1   6  -1    0.81    0.24 
   1   6  -1    0.92    0.25 
   0   6  -1   49.12    1.33 
   0   6  -1   47.52    1.26 
   0   6  -1   48.93    1.55 
  -1   6  -1    3.73    0.36 
  -1   6  -1    3.80    0.38 
  -1   6  -1    2.82    0.46 
  -2   6  -1   37.06    1.14 
  -2   6  -1   39.18    1.36 
  -2   6  -1   37.84    1.20 
   2  -6   1   37.75    1.24 
   2  -6   1   37.73    1.18 
  -3   6  -1   24.02    1.08 
  -3   6  -1   24.33    0.92 
  -3   6  -1   23.75    0.97 
   3  -6   1   22.39    0.95 
   3  -6   1   24.86    1.06 
  -4   6  -1    1.20    0.43 
  -4   6  -1    0.67    0.29 
   4  -6   1    0.68    0.34 
   4  -6   1    0.42    0.27 
  -5   6  -1   38.62    1.61 
  -5   6  -1   38.03    1.37 
   5  -6   1   39.57    1.32 
   5  -6   1   38.56    1.53 
   5   5  -1    7.96    0.61 
   4   5  -1    5.16    0.73 
   4   5  -1    5.45    0.50 
   3   5  -1    4.66    0.61 
   3   5  -1    4.59    0.41 
   2   5  -1   33.29    1.33 
   2   5  -1   34.29    0.98 
   1   5  -1   26.37    1.07 
   1   5  -1   27.26    0.80 
   1   5  -1   25.93    0.80 
   1   5  -1   27.32    0.85 
   0   5  -1   23.40    0.78 
   0   5  -1   24.44    0.99 
   0   5  -1   23.93    0.73 
   0   5  -1   23.88    0.81 
  -1   5  -1   69.92    1.46 
  -1   5  -1   71.94    1.57 
  -1   5  -1   72.13    1.75 
  -1   5  -1   70.19    1.46 
   1  -5   1   70.31    1.49 
   1  -5   1   71.93    1.56 
  -2   5  -1   62.00    1.63 
  -2   5  -1   64.37    1.48 
   2  -5   1   62.82    1.44 
   2  -5   1   60.99    1.55 
  -3   5  -1    9.51    0.58 
  -3   5  -1    9.87    0.67 
   3  -5   1    9.41    0.55 
   3  -5   1    8.95    0.61 
  -4   5  -1    8.70    0.57 
  -4   5  -1    8.73    0.69 
   4  -5   1    7.81    0.53 
   4  -5   1    7.46    0.63 
  -5   5  -1   70.31    1.81 
  -5   5  -1   70.52    2.13 
   5  -5   1   68.09    1.68 
   5  -5   1   69.78    2.05 
  -6   5  -1    3.82    0.64 
  -6   5  -1    3.26    0.43 
   6  -5   1    3.24    0.42 
   6  -5   1    3.30    0.54 
   5   4  -1    4.17    0.47 
   4   4  -1   27.19    1.00 
   4   4  -1   29.23    1.43 
   3   4  -1    0.05    0.18 
   3   4  -1    0.16    0.33 
   2   4  -1  195.98    2.87 
   2   4  -1  191.79    2.72 
   2   4  -1  191.45    2.88 
   2   4  -1  193.09    3.47 
   1   4  -1   73.22    1.34 
   1   4  -1   69.71    1.69 
   1   4  -1   72.12    1.36 
   1   4  -1   70.15    1.27 
   0   4  -1    0.34    0.16 
   0   4  -1   -0.06    0.13 
   0   4  -1    0.17    0.13 
   0   4  -1    0.05    0.19 
  -1   4  -1  130.51    2.11 
  -1   4  -1  128.90    2.36 
   1  -4   1  130.53    2.01 
   1  -4   1  125.96    2.24 
  -2   4  -1    4.76    0.40 
  -2   4  -1    4.22    0.35 
   2  -4   1    5.18    0.41 
   2  -4   1    5.26    0.36 
  -3   4  -1   17.34    0.82 
  -3   4  -1   15.40    0.66 
   3  -4   1   16.14    0.65 
   3  -4   1   16.36    0.76 
  -4   4  -1    1.07    0.25 
  -4   4  -1    1.32    0.42 
   4  -4   1    1.61    0.36 
   4  -4   1    1.62    0.27 
  -5   4  -1  158.59    2.85 
   5  -4   1  158.61    3.30 
   5  -4   1  158.40    2.68 
  -6   4  -1    0.47    0.26 
   6  -4   1    0.12    0.34 
   6  -4   1    0.34    0.21 
   6   3  -1   18.95    0.95 
   5   3  -1    2.32    0.37 
   4   3  -1    8.53    0.54 
   3   3  -1   22.40    1.07 
   3   3  -1   21.34    0.74 
   2   3  -1  136.31    1.98 
   2   3  -1  138.18    2.12 
   2   3  -1  142.05    2.63 
   2   3  -1  137.41    2.11 
   1   3  -1    4.27    0.25 
   1   3  -1    4.13    0.24 
   1   3  -1    3.88    0.37 
   1   3  -1    4.04    0.25 
   0   3  -1    3.59    0.25 
   0   3  -1    3.57    0.32 
   0   3  -1    4.15    0.24 
   0   3  -1    4.23    0.26 
   0  -3   1    3.78    0.25 
  -1   3  -1   44.03    0.93 
  -1   3  -1   40.55    1.06 
   1  -3   1   42.77    0.99 
   1  -3   1   41.92    0.87 
  -2   3  -1    0.38    0.24 
  -2   3  -1    0.23    0.15 
   2  -3   1    0.24    0.19 
   2  -3   1    0.55    0.16 
  -3   3  -1   34.68    0.94 
   3  -3   1   35.97    0.90 
   3  -3   1   35.43    1.10 
  -4   3  -1    5.21    0.40 
   4  -3   1    5.90    0.53 
   4  -3   1    5.57    0.37 
  -5   3  -1  142.26    2.57 
   5  -3   1  137.01    2.32 
   5  -3   1  144.52    3.00 
  -6   3  -1    2.75    0.35 
   6  -3   1    2.95    0.34 
   6  -3   1    3.65    0.53 
   6   2  -1   55.42    1.61 
   5   2  -1    6.00    0.50 
   4   2  -1    4.82    0.40 
   4   2  -1    4.85    0.45 
   3   2  -1   86.20    1.29 
   3   2  -1   86.64    2.11 
   3   2  -1   86.68    1.20 
   3   2  -1   89.42    1.63 
   3   2  -1   88.51    1.81 
  -3  -2   1   87.27    1.27 
   2   2  -1  165.26    2.82 
   2   2  -1  170.88    2.61 
   2   2  -1  161.38    2.32 
   2   2  -1  165.48    2.06 
   2   2  -1  163.02    2.17 
   1   2  -1    0.56    0.12 
   1   2  -1    0.55    0.11 
   1   2  -1    0.38    0.18 
   1   2  -1    0.61    0.11 
   0   2  -1    5.10    0.19 
   0   2  -1    4.50    0.23 
   0   2  -1    4.04    0.28 
   0  -2   1    4.31    0.21 
  -1   2  -1  396.19    5.19 
  -1   2  -1  400.80    4.79 
   1  -2   1  393.68    5.24 
   1  -2   1  398.81    4.48 
  -2   2  -1    6.17    0.32 
   2  -2   1    6.56    0.31 
   2  -2   1    6.24    0.37 
  -3   2  -1   47.77    1.06 
   3  -2   1   46.05    1.22 
   3  -2   1   46.31    1.03 
   3  -2   1   48.15    0.99 
  -4   2  -1    8.59    0.47 
   4  -2   1    9.01    0.49 
   4  -2   1    9.70    0.45 
   4  -2   1    8.74    0.58 
  -5   2  -1   97.13    1.94 
   5  -2   1   97.45    1.77 
   5  -2   1  100.67    2.34 
   5  -2   1   98.58    2.02 
   6  -2   1    7.56    0.68 
   6  -2   1    7.44    0.58 
   7  -2   1    9.30    0.81 
   7  -2   1    8.98    0.69 
   6   1  -1   91.27    2.13 
   5   1  -1    1.02    0.27 
   5   1  -1    0.85    0.28 
   4   1  -1   19.44    0.73 
   4   1  -1   20.41    0.86 
   3   1  -1   56.35    1.18 
   3   1  -1   55.20    1.31 
   3   1  -1   55.13    0.82 
  -3  -1   1   55.83    0.91 
   2   1  -1  112.09    1.32 
   2   1  -1  115.23    1.94 
   2   1  -1  112.30    2.09 
   2   1  -1  112.81    1.70 
  -2  -1   1  115.20    1.46 
  -2  -1   1  111.26    1.39 
   1   1  -1  133.43    2.02 
   1   1  -1  137.03    2.04 
   1   1  -1  135.87    1.74 
   1   1  -1  136.23    1.75 
   0   1  -1   11.98    0.27 
   0   1  -1   10.93    0.33 
   0   1  -1   11.15    0.26 
   0  -1   1   11.24    0.24 
  -1   1  -1  968.55   10.21 
  -1   1  -1  988.94   10.90 
   1  -1   1 1000.00   10.33 
   1  -1   1  994.60   11.00 
   1  -1   1  918.35   11.94 
  -2   1  -1    9.06    0.35 
  -2   1  -1    9.62    0.36 
   2  -1   1    9.43    0.43 
   2  -1   1    9.29    0.33 
   2  -1   1    9.22    0.34 
  -3   1  -1   48.86    1.04 
   3  -1   1   49.26    1.05 
   3  -1   1   49.26    1.21 
   3  -1   1   48.84    0.94 
  -4   1  -1   49.60    1.14 
   4  -1   1   47.75    1.33 
   4  -1   1   49.13    1.19 
   4  -1   1   49.23    1.01 
  -5   1  -1   41.15    1.10 
   5  -1   1   41.17    1.22 
   5  -1   1   44.36    1.41 
   5  -1   1   41.60    0.98 
   6  -1   1    0.47    0.33 
   6  -1   1    0.38    0.26 
   7  -1   1    2.43    0.49 
   7  -1   1    2.28    0.44 
   7   0  -1   -0.13    0.30 
   6   0  -1   46.55    1.41 
   6   0  -1   45.61    1.63 
   5   0  -1    6.48    0.59 
   5   0  -1    6.52    0.49 
   4   0  -1   22.47    0.90 
   4   0  -1   22.65    0.78 
   4   0  -1   21.89    0.54 
  -4   0   1   22.04    0.59 
   3   0  -1  159.38    2.36 
   3   0  -1  158.74    2.67 
   3   0  -1  159.35    1.96 
  -3   0   1  163.04    2.15 
   2   0  -1  151.17    1.84 
   2   0  -1  148.86    2.32 
   2   0  -1  147.00    1.72 
   2   0  -1  148.78    2.07 
  -2   0   1  147.83    1.86 
   1   0  -1   94.12    1.26 
   1   0  -1   91.80    1.46 
   1   0  -1   91.77    1.16 
   1   0  -1   91.88    1.04 
  -1   0   1   92.38    1.12 
  -1   0  -1  319.66    3.78 
   1   0   1  318.96    3.55 
   1   0   1  314.35    4.01 
   1   0   1  317.06    3.68 
  -2   0  -1   24.87    0.59 
  -2   0  -1   23.50    0.55 
   2   0   1   23.50    0.59 
   2   0   1   22.62    0.62 
   2   0   1   23.63    0.51 
  -3   0  -1  126.41    1.89 
  -3   0  -1  129.32    1.99 
   3   0   1  128.38    1.75 
   3   0   1  123.15    2.16 
   3   0   1  127.81    2.04 
  -4   0  -1   88.82    1.57 
  -4   0  -1   87.69    1.63 
   4   0   1   86.47    1.44 
   4   0   1   85.12    1.86 
   4   0   1   87.93    1.76 
   5   0   1   18.65    0.81 
   5   0   1   20.02    0.91 
   6   0   1    1.72    0.35 
   6   0   1    2.26    0.44 
   7   0   1    3.62    0.48 
   7  -1  -1    9.24    0.72 
   7  -1  -1    9.43    0.86 
   6  -1  -1   52.37    1.75 
   6  -1  -1   50.23    1.49 
   5  -1  -1    1.30    0.36 
   5  -1  -1    0.91    0.26 
   4  -1  -1   69.30    1.71 
   4  -1  -1   70.46    1.49 
   4  -1  -1   71.35    1.21 
  -4   1   1   71.46    1.29 
   3  -1  -1  302.15    4.00 
   3  -1  -1  302.54    4.38 
   3  -1  -1  296.39    3.41 
   3  -1  -1  301.56    3.51 
  -3   1   1  299.26    3.77 
   2  -1  -1    1.88    0.19 
   2  -1  -1    2.17    0.16 
   2  -1  -1    2.16    0.13 
   2  -1  -1    2.23    0.25 
  -2   1   1    2.13    0.16 
   1  -1  -1   55.15    0.81 
   1  -1  -1   52.55    0.96 
  -1   1   1   53.94    0.78 
  -1   1   1   51.98    0.82 
   0   1   1   38.96    0.63 
   0   1   1   38.71    0.68 
   0   1   1   39.94    0.65 
   1   1   1  883.66   10.23 
   1   1   1  909.44   10.99 
   1   1   1  922.15   10.30 
   1   1   1  895.31    9.60 
  -2  -1  -1    1.08    0.18 
   2   1   1    1.47    0.17 
   2   1   1    1.33    0.16 
   2   1   1    1.36    0.16 
   2   1   1    1.36    0.20 
   2   1   1    0.98    0.14 
  -3  -1  -1  136.91    2.09 
   3   1   1  132.57    2.15 
   3   1   1  133.17    1.86 
   3   1   1  132.92    2.22 
  -4  -1  -1  123.66    2.06 
  -4  -1  -1  121.28    1.96 
   4   1   1  121.78    1.82 
   4   1   1  119.59    2.26 
   4   1   1  121.94    2.21 
   5   1   1    8.53    0.57 
   6   1   1   26.96    1.09 
   7  -2  -1   12.70    0.97 
   6  -2  -1   45.88    1.64 
   5  -2  -1    3.38    0.47 
   5  -2  -1    3.11    0.26 
  -5   2   1    3.81    0.32 
   4  -2  -1   91.92    1.56 
   4  -2  -1   92.16    2.05 
  -4   2   1   90.00    1.63 
   3  -2  -1  271.26    3.32 
   3  -2  -1  286.49    3.53 
   3  -2  -1  285.81    4.25 
  -3   2   1  288.76    3.78 
   2  -2  -1    5.41    0.27 
   2  -2  -1    5.64    0.37 
  -2   2   1    5.52    0.30 
   1  -2  -1  179.49    2.57 
   1  -2  -1  185.92    2.32 
  -1   2   1  185.76    2.48 
  -1   2   1  186.08    2.31 
  -1   2   1  181.90    2.53 
   0  -2  -1   76.12    1.11 
   0   2   1   75.47    1.26 
   0   2   1   77.61    1.18 
   0   2   1   76.48    1.27 
   1   2   1  122.64    1.91 
   1   2   1  122.94    1.79 
   1   2   1  123.89    2.08 
   1   2   1  125.67    1.89 
   2   2   1    9.49    0.43 
   2   2   1    9.62    0.40 
   2   2   1    9.89    0.33 
   2   2   1    9.99    0.61 
   2   2   1    9.49    0.43 
  -3  -2  -1   25.80    0.79 
   3   2   1   24.96    0.70 
   3   2   1   23.82    0.79 
   3   2   1   24.54    0.66 
   3   2   1   24.86    0.72 
   3   2   1   24.03    0.70 
   4   2   1  189.06    3.08 
   5   2   1    6.50    0.53 
   6   2   1   40.51    1.43 
   7  -3  -1   43.15    1.77 
   6  -3  -1   10.79    0.82 
   5  -3  -1   26.07    1.14 
   5  -3  -1   24.61    0.81 
  -5   3   1   24.90    0.87 
   4  -3  -1   19.16    0.87 
   4  -3  -1   19.21    0.67 
  -4   3   1   18.32    0.69 
   3  -3  -1  213.33    2.91 
   3  -3  -1  205.82    2.96 
   3  -3  -1  209.70    3.41 
  -3   3   1  211.75    3.08 
   2  -3  -1    3.60    0.34 
   2  -3  -1    2.49    0.25 
  -2   3   1    3.57    0.30 
  -2   3   1    2.78    0.24 
  -2   3   1    3.08    0.27 
   1  -3  -1  324.77    4.40 
  -1   3   1  329.68    4.25 
  -1   3   1  331.18    4.40 
  -1   3   1  325.93    3.97 
   0  -3  -1   63.47    1.04 
   0   3   1   63.79    1.21 
   0   3   1   65.36    1.29 
   0   3   1   62.15    1.28 
   0   3   1   64.70    1.15 
   1   3   1   96.53    1.85 
   1   3   1   93.72    1.65 
   1   3   1   93.75    1.56 
   1   3   1   91.70    1.65 
   2   3   1    3.06    0.40 
   2   3   1    3.37    0.31 
   2   3   1    1.98    0.25 
   2   3   1    2.84    0.30 
   3   3   1   31.92    0.90 
   3   3   1   31.30    0.85 
   3   3   1   30.27    0.95 
   3   3   1   31.20    1.29 
   4   3   1  102.34    2.10 
   5   3   1    0.29    0.27 
   6   3   1   49.74    1.60 
   6  -4  -1    0.40    0.21 
   6  -4  -1    0.37    0.35 
  -6   4   1    0.04    0.24 
   5  -4  -1   11.80    0.80 
   5  -4  -1   11.63    0.61 
  -5   4   1   11.78    0.64 
   4  -4  -1    4.22    0.45 
   4  -4  -1    4.86    0.40 
  -4   4   1    5.32    0.42 
  -4   4   1    5.35    0.52 
   3  -4  -1  215.49    3.59 
   3  -4  -1  218.90    3.23 
  -3   4   1  212.68    3.46 
  -3   4   1  218.20    3.33 
  -3   4   1  219.91    3.08 
   2  -4  -1    4.64    0.38 
   2  -4  -1    4.95    0.37 
  -2   4   1    4.76    0.40 
  -2   4   1    4.65    0.35 
  -2   4   1    4.14    0.35 
   1  -4  -1  223.75    3.25 
  -1   4   1  218.50    3.24 
  -1   4   1  219.40    3.05 
  -1   4   1  218.68    3.32 
   0  -4  -1  187.26    2.59 
   0   4   1  183.08    2.65 
   0   4   1  185.34    2.91 
   0   4   1  183.69    2.85 
   0   4   1  186.34    2.95 
   1   4   1   42.00    1.03 
   1   4   1   43.61    1.11 
   1   4   1   42.51    1.10 
   1   4   1   43.06    1.23 
   2   4   1   54.46    1.28 
   2   4   1   55.11    1.64 
   2   4   1   53.95    1.31 
   2   4   1   55.67    1.39 
   3   4   1   11.59    0.62 
   3   4   1   12.99    0.88 
   4   4   1   41.68    1.30 
   5   4   1    1.46    0.34 
   6  -5  -1    1.79    0.34 
   6  -5  -1    1.05    0.40 
  -6   5   1    1.86    0.34 
  -6   5   1    1.61    0.32 
   5  -5  -1   51.42    1.45 
   5  -5  -1   54.10    1.77 
  -5   5   1   51.32    1.41 
  -5   5   1   51.83    1.49 
  -5   5   1   52.83    1.66 
   4  -5  -1    2.61    0.45 
   4  -5  -1    2.74    0.36 
  -4   5   1    2.31    0.34 
  -4   5   1    2.20    0.40 
  -4   5   1    2.75    0.36 
   3  -5  -1   45.81    1.25 
   3  -5  -1   46.24    1.37 
  -3   5   1   46.77    1.30 
  -3   5   1   45.54    1.21 
  -3   5   1   45.88    1.33 
   2  -5  -1    0.25    0.22 
  -2   5   1    0.22    0.18 
  -2   5   1    0.23    0.19 
  -2   5   1   -0.01    0.23 
   1  -5  -1  113.83    2.05 
  -1   5   1  112.48    2.02 
  -1   5   1  114.31    2.15 
  -1   5   1  113.44    2.24 
   0   5   1  163.10    2.53 
   0   5   1  165.19    2.75 
   0   5   1  159.27    2.78 
   0   5   1  159.01    2.89 
   1   5   1   12.04    0.64 
   1   5   1   12.75    0.73 
   1   5   1   12.53    0.61 
   1   5   1   11.61    0.62 
   2   5   1   94.50    1.94 
   2   5   1   98.74    2.37 
   2   5   1   96.20    2.09 
   2   5   1   96.76    1.99 
   3   5   1    0.70    0.25 
   3   5   1    1.01    0.43 
   4   5   1    7.62    0.60 
   5   5   1    2.58    0.43 
   5  -6  -1   71.67    2.13 
   5  -6  -1   71.67    1.86 
  -5   6   1   69.79    1.90 
  -5   6   1   71.80    1.81 
   4  -6  -1   18.32    0.88 
   4  -6  -1   18.05    0.95 
  -4   6   1   18.78    0.84 
  -4   6   1   18.65    0.94 
  -4   6   1   18.15    0.88 
   3  -6  -1   26.38    1.05 
  -3   6   1   25.65    1.03 
  -3   6   1   25.61    1.04 
  -3   6   1   26.12    0.97 
   2  -6  -1   61.58    1.55 
  -2   6   1   60.67    1.54 
  -2   6   1   62.12    1.61 
  -2   6   1   62.57    1.66 
  -1   6   1   98.89    2.11 
  -1   6   1   95.34    2.16 
  -1   6   1   98.53    1.96 
  -1   6   1   96.89    2.20 
   0   6   1   61.02    1.65 
   0   6   1   58.56    1.45 
   0   6   1   57.70    1.55 
   0   6   1   56.54    1.53 
   1   6   1    1.17    0.30 
   1   6   1    0.94    0.27 
   1   6   1    1.35    0.31 
   1   6   1    1.44    0.36 
   2   6   1   47.01    1.69 
   2   6   1   46.17    1.37 
   3   6   1    1.32    0.34 
   3   6   1    0.79    0.38 
   4   6   1   22.59    1.04 
   4   6   1   22.60    1.40 
   4  -7  -1   11.85    0.81 
  -4   7   1   12.23    0.76 
  -4   7   1   11.13    0.75 
  -3   7   1    3.90    0.50 
  -3   7   1    5.63    0.53 
  -3   7   1    4.21    0.48 
  -2   7   1   21.14    0.98 
  -2   7   1   20.60    0.91 
  -2   7   1   22.43    1.05 
  -1   7   1   24.45    0.99 
  -1   7   1   24.93    1.06 
  -1   7   1   24.82    1.12 
   0   7   1   41.81    1.52 
   0   7   1   42.26    1.39 
   0   7   1   40.52    1.28 
   1   7   1    9.42    0.80 
   1   7   1    9.05    0.66 
   1   7   1    9.01    0.63 
   2   7   1   46.29    1.80 
   3   7   1    5.27    0.53 
   3   7   1    5.04    0.72 
  -3   8   1    0.54    0.28 
  -3   8   1    0.29    0.28 
  -2   8   1   68.07    1.89 
  -2   8   1   67.24    1.97 
  -1   8   1    5.96    0.66 
  -1   8   1    5.56    0.60 
  -1   8   1    5.78    0.57 
   0   8   1    6.70    0.72 
   0   8   1    6.99    0.63 
   0   8   1    6.20    0.59 
   1   8   1    2.40    0.56 
   1   8  -2   29.78    1.51 
   0   8  -2    3.24    0.57 
  -1   8  -2   23.90    1.04 
  -1   8  -2   25.30    1.31 
  -1   8  -2   25.33    1.12 
  -2   8  -2    0.99    0.44 
  -2   8  -2    0.75    0.25 
  -2   8  -2    1.36    0.36 
  -3   8  -2   28.90    1.22 
  -3   8  -2   25.86    1.33 
  -3   8  -2   28.09    1.12 
   3  -8   2   25.47    1.18 
   3   7  -2   31.35    1.61 
   2   7  -2    2.15    0.52 
   1   7  -2   19.12    1.13 
   0   7  -2    7.81    0.71 
   0   7  -2    8.36    0.59 
   0   7  -2    8.89    0.56 
  -1   7  -2   30.56    1.11 
  -1   7  -2   30.08    1.32 
  -1   7  -2   30.72    1.07 
  -2   7  -2   12.65    0.71 
  -2   7  -2   12.58    0.75 
  -2   7  -2   13.14    0.88 
   2  -7   2   13.27    0.76 
  -3   7  -2   29.10    1.31 
  -3   7  -2   29.49    1.11 
  -3   7  -2   29.96    1.18 
   3  -7   2   28.76    1.15 
   3  -7   2   29.55    1.26 
  -4   7  -2   20.53    1.01 
  -4   7  -2   21.80    1.18 
  -4   7  -2   21.48    0.99 
   4  -7   2   20.47    1.01 
   4  -7   2   21.05    1.11 
   4   6  -2    9.77    0.98 
   3   6  -2   22.44    1.29 
   2   6  -2    4.80    0.60 
   1   6  -2   73.18    1.57 
   1   6  -2   76.62    1.67 
   1   6  -2   77.85    2.13 
   0   6  -2   32.06    1.26 
   0   6  -2   32.49    1.02 
   0   6  -2   31.94    0.97 
  -1   6  -2    1.80    0.39 
  -1   6  -2    2.65    0.36 
  -1   6  -2    2.07    0.31 
   1  -6   2    2.23    0.34 
   1  -6   2    3.12    0.38 
  -2   6  -2   23.11    0.93 
  -2   6  -2   23.93    1.10 
  -2   6  -2   23.25    0.88 
   2  -6   2   23.21    0.92 
   2  -6   2   22.86    0.97 
  -3   6  -2   27.63    1.06 
  -3   6  -2   29.81    1.26 
   3  -6   2   27.69    1.15 
   3  -6   2   26.35    1.03 
  -4   6  -2   25.83    1.07 
  -4   6  -2   25.06    1.24 
   4  -6   2   25.61    1.04 
   4  -6   2   26.53    1.19 
  -5   6  -2    2.13    0.50 
  -5   6  -2    1.09    0.31 
   5  -6   2    2.59    0.43 
   5  -6   2    1.98    0.48 
   5   5  -2   21.25    0.97 
   4   5  -2    1.61    0.55 
   4   5  -2    1.48    0.29 
   3   5  -2   81.49    2.38 
   3   5  -2   82.87    1.74 
   2   5  -2   10.30    0.77 
   2   5  -2   11.25    0.52 
   1   5  -2  143.12    2.79 
   1   5  -2  142.73    2.18 
   1   5  -2  136.07    2.17 
   1   5  -2  143.05    2.32 
   0   5  -2   28.49    0.83 
   0   5  -2   28.54    1.07 
   0   5  -2   28.57    0.87 
  -1   5  -2    0.18    0.26 
  -1   5  -2    0.07    0.16 
  -1   5  -2    0.19    0.17 
   1  -5   2    0.44    0.21 
   1  -5   2    0.57    0.23 
  -2   5  -2   65.03    1.53 
  -2   5  -2   66.68    1.76 
   2  -5   2   67.65    1.65 
   2  -5   2   68.77    1.52 
  -3   5  -2    1.15    0.26 
  -3   5  -2    1.24    0.35 
   3  -5   2    1.45    0.32 
   3  -5   2    1.17    0.26 
  -4   5  -2    4.72    0.44 
  -4   5  -2    5.65    0.62 
   4  -5   2    5.16    0.47 
   4  -5   2    4.27    0.51 
  -5   5  -2    5.68    0.51 
  -5   5  -2    5.98    0.71 
   5  -5   2    5.83    0.50 
   5  -5   2    7.35    0.66 
  -6   5  -2   47.52    1.97 
  -6   5  -2   49.04    1.59 
   6  -5   2   48.59    1.82 
   6  -5   2   49.10    1.46 
   5   4  -2   30.05    1.13 
   4   4  -2    0.41    0.23 
   4   4  -2    0.27    0.38 
   3   4  -2   18.16    1.02 
   3   4  -2   15.19    0.65 
   2   4  -2   54.20    1.16 
   2   4  -2   54.55    1.60 
   1   4  -2   73.40    1.25 
   1   4  -2   71.49    1.70 
   1   4  -2   72.10    1.31 
   1   4  -2   71.35    1.25 
   0   4  -2   51.13    1.36 
   0   4  -2   51.51    0.93 
   0   4  -2   50.84    1.05 
   0   4  -2   51.57    1.11 
   0  -4   2   50.27    1.04 
  -1   4  -2    1.26    0.28 
  -1   4  -2    1.63    0.23 
   1  -4   2    1.57    0.21 
  -2   4  -2  110.59    2.30 
  -2   4  -2  113.06    1.96 
   2  -4   2  106.17    2.16 
   2  -4   2  109.54    1.89 
  -3   4  -2    1.90    0.38 
  -3   4  -2    1.79    0.29 
   3  -4   2    1.81    0.34 
   3  -4   2    0.95    0.22 
  -4   4  -2    2.00    0.45 
  -4   4  -2    2.12    0.34 
   4  -4   2    1.79    0.35 
   4  -4   2    1.93    0.28 
  -5   4  -2    7.91    0.57 
   5  -4   2    7.69    0.52 
   5  -4   2    7.53    0.67 
  -6   4  -2   51.26    1.54 
   6  -4   2   51.16    1.41 
   6  -4   2   48.56    1.75 
   6   3  -2    0.21    0.26 
   5   3  -2  112.43    2.32 
   4   3  -2    1.10    0.47 
   4   3  -2    0.27    0.20 
   3   3  -2    0.16    0.33 
   3   3  -2    0.30    0.19 
   3   3  -2    0.41    0.22 
   2   3  -2   39.22    0.80 
   2   3  -2   38.51    0.76 
   2   3  -2   39.21    0.87 
   2   3  -2   39.51    1.23 
   1   3  -2   36.07    0.73 
   1   3  -2   36.29    0.70 
   1   3  -2   37.12    1.06 
   1   3  -2   36.79    0.73 
   0   3  -2   81.17    1.63 
   0   3  -2   85.39    1.38 
   0   3  -2   83.57    1.17 
   0  -3   2   79.95    1.28 
  -1   3  -2   21.42    0.77 
  -1   3  -2   22.28    0.63 
   1  -3   2   20.21    0.59 
  -2   3  -2  274.60    4.20 
  -2   3  -2  270.04    3.70 
   2  -3   2  273.71    4.11 
   2  -3   2  272.30    3.49 
  -3   3  -2    0.12    0.16 
   3  -3   2    0.38    0.20 
   3  -3   2    0.20    0.15 
  -4   3  -2   13.73    0.64 
   4  -3   2   13.85    0.59 
   4  -3   2   14.27    0.76 
  -5   3  -2   21.82    0.88 
   5  -3   2   20.53    1.02 
   5  -3   2   21.32    0.79 
  -6   3  -2   51.86    1.49 
   6  -3   2   51.43    1.36 
   6  -3   2   54.61    1.79 
   6   2  -2    0.59    0.30 
   5   2  -2  111.69    2.23 
   4   2  -2    0.47    0.20 
   4   2  -2    0.49    0.27 
   3   2  -2    7.20    0.41 
   3   2  -2    6.22    0.56 
   3   2  -2    7.00    0.51 
   2   2  -2  166.84    2.31 
   2   2  -2  162.52    1.93 
   2   2  -2  168.91    2.82 
   2   2  -2  161.82    2.00 
   2   2  -2  175.49    2.80 
   1   2  -2    1.07    0.12 
   1   2  -2    0.83    0.17 
   1   2  -2    0.96    0.09 
   1   2  -2    1.10    0.09 
   1   2  -2    1.30    0.22 
   0   2  -2    7.43    0.27 
   0   2  -2    6.77    0.30 
   0   2  -2    7.13    0.37 
   0  -2   2    7.40    0.27 
  -1   2  -2    2.83    0.21 
  -1   2  -2    2.49    0.16 
  -1   2  -2    2.16    0.28 
   1  -2   2    2.56    0.19 
  -2   2  -2   32.62    0.79 
   2  -2   2   32.42    0.91 
   2  -2   2   31.70    0.74 
   2  -2   2   31.15    0.67 
  -3   2  -2   10.05    0.48 
   3  -2   2   10.09    0.44 
   3  -2   2   10.07    0.43 
   3  -2   2    9.66    0.54 
  -4   2  -2   14.88    0.63 
   4  -2   2   15.03    0.76 
   4  -2   2   15.02    0.57 
   4  -2   2   14.33    0.61 
  -5   2  -2   93.37    1.93 
   5  -2   2   91.77    2.21 
   5  -2   2   90.31    1.74 
   5  -2   2   90.51    1.92 
  -6   2  -2   16.14    0.79 
   6  -2   2   16.32    0.71 
   6  -2   2   16.84    0.83 
   6  -2   2   18.11    1.01 
   7  -2   2    2.23    0.43 
   7  -2   2    2.65    0.43 
   6   1  -2    3.01    0.42 
   5   1  -2   74.81    1.73 
   5   1  -2   74.00    2.03 
   4   1  -2    1.83    0.35 
   4   1  -2    2.15    0.28 
   3   1  -2    1.92    0.10 
   3   1  -2    2.66    0.33 
   3   1  -2    2.38    0.25 
  -3  -1   2    1.94    0.11 
   2   1  -2  259.55    3.87 
   2   1  -2  262.74    3.31 
   2   1  -2  259.78    3.26 
   2   1  -2  257.88    3.85 
   1   1  -2   50.42    0.99 
   1   1  -2   50.11    0.84 
   1   1  -2   50.58    0.80 
   1   1  -2   50.19    1.07 
   0   1  -2   24.96    0.57 
   0   1  -2   24.42    0.50 
   0   1  -2   25.69    0.50 
   0  -1   2   24.72    0.44 
  -1   1  -2    1.13    0.11 
  -1   1  -2    1.17    0.15 
  -1   1  -2    0.94    0.16 
   1  -1   2    0.90    0.10 
   1  -1   2    1.06    0.14 
  -2   1  -2  226.34    3.02 
  -2   1  -2  220.69    2.58 
  -2   1  -2  224.01    2.88 
   2  -1   2  226.82    2.77 
   2  -1   2  223.69    2.87 
   2  -1   2  223.81    3.31 
  -3   1  -2   16.36    0.57 
  -3   1  -2   16.56    0.60 
   3  -1   2   16.79    0.66 
   3  -1   2   16.33    0.53 
   3  -1   2   16.46    0.59 
  -4   1  -2  131.51    2.15 
  -4   1  -2  131.25    2.25 
   4  -1   2  131.68    2.50 
   4  -1   2  132.38    2.05 
   4  -1   2  127.54    2.23 
  -5   1  -2   61.42    1.50 
   5  -1   2   65.13    1.54 
   5  -1   2   63.86    1.34 
   5  -1   2   63.67    1.73 
   6  -1   2    4.53    0.46 
   6  -1   2    4.31    0.51 
   7  -1   2    3.86    0.50 
   7   0  -2    1.24    0.36 
   7   0  -2    0.88    0.44 
   6   0  -2   13.73    0.91 
   6   0  -2   13.45    0.75 
   5   0  -2   52.64    1.62 
   5   0  -2   53.66    1.40 
   4   0  -2   -0.08    0.22 
   4   0  -2    0.34    0.20 
   3   0  -2    4.62    0.39 
   3   0  -2    4.34    0.18 
   3   0  -2    4.31    0.22 
   3   0  -2    4.40    0.30 
  -3   0   2    4.41    0.19 
   2   0  -2  377.99    4.44 
   2   0  -2  372.67    5.17 
   2   0  -2  383.49    4.10 
   2   0  -2  386.02    4.65 
  -2   0   2  365.14    4.20 
   1   0  -2    5.62    0.24 
   1   0  -2    5.17    0.22 
   1   0  -2    5.18    0.30 
  -1   0   2    5.44    0.17 
  -1   0   2    5.54    0.16 
   0   0  -2    3.30    0.22 
   0   0   2    3.09    0.18 
   0   0   2    3.15    0.20 
  -1   0  -2   37.50    0.77 
  -1   0  -2   37.72    0.76 
   1   0   2   37.63    0.70 
   1   0   2   36.23    0.71 
   1   0   2   35.91    0.68 
   1   0   2   37.06    0.75 
  -2   0  -2   50.71    1.01 
  -2   0  -2   48.71    0.94 
   2   0   2   47.85    1.00 
   2   0   2   48.68    0.96 
   2   0   2   48.88    0.90 
  -3   0  -2    3.38    0.28 
  -3   0  -2    3.52    0.28 
   3   0   2    4.17    0.31 
   3   0   2    3.98    0.27 
   3   0   2    3.91    0.33 
  -4   0  -2   30.29    0.88 
  -4   0  -2   31.51    0.92 
   4   0   2   31.09    0.80 
   4   0   2   31.67    1.01 
   4   0   2   30.92    0.95 
  -5   0  -2   89.27    1.76 
  -5   0  -2   88.57    1.84 
   5   0   2   90.87    2.11 
   5   0   2   90.22    1.97 
   5   0   2   87.59    1.62 
   6   0   2    5.61    0.52 
   7  -1  -2   11.54    0.93 
   6  -1  -2    9.44    0.64 
   6  -1  -2    9.44    0.77 
   5  -1  -2   16.93    0.90 
   5  -1  -2   17.52    0.79 
   4  -1  -2    0.11    0.23 
   4  -1  -2    0.31    0.12 
   4  -1  -2   -0.15    0.19 
  -4   1   2    0.50    0.14 
   3  -1  -2    4.20    0.37 
   3  -1  -2    3.36    0.18 
   3  -1  -2    3.62    0.21 
  -3   1   2    3.78    0.22 
   2  -1  -2  337.93    4.10 
   2  -1  -2  345.46    3.93 
   2  -1  -2  340.15    4.75 
  -2   1   2  345.74    3.82 
  -2   1   2  340.29    4.10 
   1  -1  -2    0.92    0.22 
   1  -1  -2    0.72    0.18 
  -1   1   2    0.98    0.13 
  -1   1   2    0.99    0.13 
   0  -1  -2  362.24    4.46 
   0   1   2  353.33    4.13 
   0   1   2  361.96    4.42 
   0   1   2  350.99    4.34 
   1   1   2  174.26    2.34 
   1   1   2  173.33    2.34 
   1   1   2  173.88    2.49 
   2   1   2    3.70    0.26 
   2   1   2    3.57    0.25 
   2   1   2    3.48    0.27 
   2   1   2    3.04    0.21 
  -3  -1  -2    3.26    0.30 
   3   1   2    3.59    0.31 
   3   1   2    3.40    0.26 
   3   1   2    3.33    0.27 
  -4  -1  -2   42.43    1.05 
  -4  -1  -2   41.98    1.11 
   4   1   2   41.69    0.97 
   4   1   2   44.53    1.19 
   4   1   2   41.99    1.17 
  -5  -1  -2   75.04    1.59 
   5   1   2   73.63    1.76 
   6   1   2    0.37    0.27 
   7  -2  -2   19.13    1.19 
   6  -2  -2   57.78    1.90 
   5  -2  -2    3.89    0.47 
   5  -2  -2    4.51    0.32 
   4  -2  -2   60.02    1.16 
   4  -2  -2   58.92    1.58 
  -4   2   2   58.88    1.23 
   3  -2  -2    6.31    0.33 
   3  -2  -2    6.77    0.46 
   3  -2  -2    6.78    0.33 
  -3   2   2    6.45    0.34 
   2  -2  -2  180.84    2.68 
   2  -2  -2  183.83    2.44 
   2  -2  -2  185.66    2.86 
  -2   2   2  181.99    2.35 
  -2   2   2  185.26    2.54 
   1  -2  -2    0.07    0.13 
  -1   2   2    0.36    0.14 
  -1   2   2    0.30    0.13 
  -1   2   2    0.17    0.11 
   0  -2  -2   49.78    0.82 
   0   2   2   48.82    0.95 
   0   2   2   49.05    0.93 
   0   2   2   48.63    1.00 
   1   2   2   85.34    1.47 
   1   2   2   86.76    1.64 
   1   2   2   84.56    1.53 
   1   2   2   85.76    1.59 
   2   2   2   73.85    1.35 
   2   2   2   75.23    1.43 
   2   2   2   74.53    1.43 
   2   2   2   70.02    1.12 
  -3  -2  -2   22.39    0.84 
   3   2   2   21.79    0.73 
   3   2   2   23.60    0.74 
   3   2   2   21.96    0.68 
   3   2   2   23.25    0.79 
   4   2   2   68.20    1.34 
   4   2   2   67.04    1.59 
   5   2   2   62.45    1.66 
   6   2   2    0.49    0.28 
   6  -3  -2   53.53    1.82 
   5  -3  -2    8.43    0.66 
   5  -3  -2    8.55    0.48 
  -5   3   2    8.94    0.51 
   4  -3  -2   66.27    1.74 
   4  -3  -2   68.54    1.38 
  -4   3   2   68.25    1.45 
   3  -3  -2    5.89    0.40 
   3  -3  -2    5.22    0.42 
   3  -3  -2    5.16    0.35 
  -3   3   2    5.89    0.37 
  -3   3   2    5.59    0.35 
   2  -3  -2   33.63    0.96 
  -2   3   2   35.58    0.90 
  -2   3   2   35.08    0.89 
  -2   3   2   37.24    0.86 
   1  -3  -2   -0.18    0.15 
  -1   3   2    0.19    0.16 
  -1   3   2    0.08    0.14 
  -1   3   2    0.08    0.15 
   0  -3  -2   43.23    0.79 
   0   3   2   42.34    0.96 
   0   3   2   43.42    0.98 
   0   3   2   43.36    1.10 
   0   3   2   43.32    1.02 
   1   3   2  188.80    2.93 
   1   3   2  188.57    2.71 
   1   3   2  191.65    2.92 
   1   3   2  188.97    3.05 
   2   3   2    1.52    0.23 
   2   3   2    2.57    0.31 
   2   3   2    2.47    0.31 
   2   3   2    1.65    0.36 
   3   3   2   66.71    1.55 
   3   3   2   68.97    1.46 
   3   3   2   70.93    1.55 
   4   3   2    3.51    0.39 
   5   3   2   13.46    0.78 
   6   3   2    5.39    0.58 
   6  -4  -2   61.38    2.00 
   6  -4  -2   58.31    1.47 
   5  -4  -2   -0.16    0.29 
   5  -4  -2    0.04    0.19 
  -5   4   2    0.35    0.19 
  -5   4   2    0.43    0.25 
   4  -4  -2  155.27    2.56 
   4  -4  -2  152.19    3.03 
  -4   4   2  156.55    2.84 
  -4   4   2  157.03    2.70 
  -4   4   2  157.73    2.52 
   3  -4  -2    2.28    0.29 
   3  -4  -2    2.78    0.36 
  -3   4   2    3.00    0.31 
  -3   4   2    3.10    0.31 
  -3   4   2    2.64    0.35 
   2  -4  -2   48.62    1.25 
  -2   4   2   49.59    1.20 
  -2   4   2   48.28    1.13 
  -2   4   2   49.34    1.17 
   1  -4  -2   20.27    0.65 
  -1   4   2   21.12    0.70 
  -1   4   2   21.22    0.75 
  -1   4   2   21.61    0.72 
   0   4   2  184.52    2.87 
   0   4   2  181.38    2.71 
   0   4   2  182.57    2.89 
   0   4   2  183.38    3.00 
   1   4   2   83.36    1.76 
   1   4   2   85.50    1.86 
   1   4   2   80.81    1.73 
   1   4   2   80.99    1.63 
   2   4   2   12.38    0.69 
   2   4   2   12.09    0.63 
   2   4   2   11.36    0.76 
   2   4   2   12.50    0.63 
   3   4   2   77.45    1.68 
   3   4   2   76.93    1.78 
   3   4   2   80.72    2.24 
   3   4   2   75.71    1.81 
   4   4   2    0.85    0.30 
   5   4   2   10.90    0.75 
   6  -5  -2   27.17    1.04 
   6  -5  -2   26.89    1.32 
  -6   5   2   24.25    1.04 
  -6   5   2   26.94    1.03 
   5  -5  -2    5.00    0.47 
   5  -5  -2    5.21    0.57 
  -5   5   2    5.56    0.46 
  -5   5   2    5.55    0.48 
   4  -5  -2   47.89    1.54 
   4  -5  -2   46.39    1.31 
  -4   5   2   45.83    1.24 
  -4   5   2   47.64    1.42 
  -4   5   2   46.72    1.34 
   3  -5  -2   35.48    1.18 
  -3   5   2   34.25    1.11 
  -3   5   2   34.40    1.05 
  -3   5   2   34.16    1.09 
   2  -5  -2   63.69    1.54 
  -2   5   2   64.92    1.52 
  -2   5   2   62.70    1.46 
  -2   5   2   63.18    1.54 
  -1   5   2   75.39    1.69 
  -1   5   2   77.42    1.61 
  -1   5   2   75.50    1.68 
   0   5   2   99.59    1.90 
   0   5   2  100.06    2.08 
   0   5   2   95.82    1.98 
   0   5   2   98.60    2.10 
   1   5   2   45.64    1.31 
   1   5   2   47.14    1.25 
   1   5   2   45.86    1.32 
   1   5   2   46.73    1.43 
   2   5   2   -0.44    0.29 
   2   5   2    0.03    0.30 
   2   5   2    0.18    0.25 
   2   5   2    0.21    0.25 
   3   5   2   51.88    1.87 
   3   5   2   49.59    1.46 
   4   5   2    0.00    0.26 
   5  -6  -2    0.11    0.33 
  -5   6   2   -0.25    0.26 
  -5   6   2    0.06    0.29 
   4  -6  -2   93.53    2.36 
  -4   6   2   93.12    2.03 
  -4   6   2   91.59    2.18 
   3  -6  -2    8.92    0.62 
  -3   6   2    8.70    0.61 
  -3   6   2    7.29    0.54 
  -2   6   2    0.29    0.23 
  -2   6   2   -0.34    0.26 
  -2   6   2   -0.49    0.22 
  -1   6   2   51.16    1.58 
  -1   6   2   50.14    1.45 
  -1   6   2   51.42    1.48 
  -1   6   2   52.28    1.41 
   0   6   2    7.97    0.53 
   0   6   2    7.59    0.57 
   0   6   2    7.46    0.61 
   0   6   2    7.38    0.59 
   1   6   2   19.98    0.90 
   1   6   2   21.98    0.96 
   1   6   2   21.69    1.06 
   1   6   2   21.55    0.97 
   2   6   2    1.30    0.38 
   2   6   2    2.13    0.36 
   2   6   2    2.36    0.38 
   2   6   2    1.89    0.37 
   3   6   2   66.43    2.25 
   3   6   2   64.91    1.81 
   4   6   2    2.11    0.40 
   4  -7  -2   88.26    2.36 
  -4   7   2   85.29    2.22 
  -4   7   2   91.33    2.17 
  -3   7   2   15.41    0.87 
  -3   7   2   15.82    0.84 
  -2   7   2    1.05    0.36 
  -2   7   2    1.30    0.34 
  -1   7   2   93.96    2.18 
  -1   7   2   97.41    2.30 
  -1   7   2   93.27    2.28 
   0   7   2    8.20    0.62 
   0   7   2    8.84    0.70 
   0   7   2    9.30    0.73 
   0   7   2    9.25    0.70 
   1   7   2   10.53    0.70 
   1   7   2   10.62    0.82 
   1   7   2   10.11    0.71 
   1   7   2    9.67    0.72 
   2   7   2    0.46    0.29 
   2   7   2    0.71    0.40 
  -3   8   2    1.12    0.34 
  -3   8   2    1.05    0.36 
  -2   8   2   -0.11    0.31 
  -2   8   2   -0.10    0.31 
  -1   8   2   37.30    1.39 
  -1   8   2   36.43    1.46 
   0   8   2    1.37    0.40 
   0   8   2    1.42    0.44 
   0   8   2    1.22    0.38 
   1   8  -3    1.57    0.50 
   0   8  -3   20.65    1.23 
  -1   8  -3   11.26    0.68 
  -1   8  -3   11.06    0.92 
  -1   8  -3   11.41    0.73 
  -2   8  -3   17.13    0.94 
  -2   8  -3   17.58    1.14 
  -2   8  -3   18.10    0.90 
   3   7  -3   14.47    1.15 
   2   7  -3   29.87    1.48 
   1   7  -3    0.37    0.42 
   0   7  -3  109.11    2.27 
   0   7  -3  108.10    2.75 
   0   7  -3  110.27    2.19 
  -1   7  -3    9.57    0.81 
  -1   7  -3    8.68    0.59 
  -1   7  -3    8.47    0.55 
  -2   7  -3    2.38    0.35 
  -2   7  -3    1.44    0.37 
  -2   7  -3    2.11    0.47 
   2  -7   3    1.39    0.37 
   2  -7   3    1.59    0.33 
  -3   7  -3   24.25    1.04 
  -3   7  -3   23.52    1.24 
   3  -7   3   21.85    1.11 
   3  -7   3   22.45    1.01 
  -4   7  -3   24.01    1.28 
  -4   7  -3   26.12    1.14 
   4  -7   3   23.95    1.22 
   4  -7   3   24.44    1.09 
   4   6  -3   41.64    1.94 
   3   6  -3    0.81    0.50 
   2   6  -3   29.07    1.35 
   1   6  -3   12.21    0.82 
   0   6  -3   99.57    2.42 
   0   6  -3   94.26    1.84 
   0   6  -3  100.15    1.98 
  -1   6  -3   11.78    0.62 
  -1   6  -3   12.59    0.81 
  -1   6  -3   12.21    0.65 
   1  -6   3   11.38    0.62 
   1  -6   3   12.54    0.72 
  -2   6  -3    2.57    0.48 
  -2   6  -3    2.06    0.33 
   2  -6   3    2.28    0.39 
   2  -6   3    1.98    0.33 
  -3   6  -3   89.62    2.04 
  -3   6  -3   89.68    2.40 
   3  -6   3   92.36    2.29 
   3  -6   3   90.27    2.00 
  -4   6  -3    3.95    0.59 
  -4   6  -3    4.34    0.48 
   4  -6   3    4.35    0.55 
   4  -6   3    4.70    0.46 
  -5   6  -3   10.79    0.74 
  -5   6  -3   10.79    0.92 
   5  -6   3   10.80    0.86 
   5  -6   3   11.25    0.72 
   5   5  -3   -0.76    0.54 
   5   5  -3    0.21    0.25 
   4   5  -3   69.70    2.39 
   4   5  -3   71.35    1.68 
   3   5  -3    0.52    0.41 
   3   5  -3    0.29    0.18 
   2   5  -3   17.98    0.99 
   1   5  -3   23.26    0.71 
   1   5  -3   23.57    0.74 
   1   5  -3   22.89    1.03 
   0   5  -3  224.06    3.31 
   0   5  -3  217.75    3.13 
   0   5  -3  224.57    3.87 
   0  -5   3  226.93    3.09 
  -1   5  -3   40.28    1.12 
  -1   5  -3   43.22    1.37 
   1  -5   3   42.92    1.10 
  -2   5  -3   26.26    0.91 
  -2   5  -3   27.23    1.12 
   2  -5   3   26.56    0.89 
   2  -5   3   25.08    1.00 
  -3   5  -3  156.22    2.76 
  -3   5  -3  157.80    3.29 
   3  -5   3  156.26    2.68 
   3  -5   3  160.09    3.13 
  -4   5  -3    1.45    0.30 
  -4   5  -3    2.47    0.51 
   4  -5   3    1.30    0.36 
   4  -5   3    2.42    0.36 
  -5   5  -3    0.01    0.28 
  -5   5  -3    0.82    0.47 
   5  -5   3   -0.10    0.32 
   5  -5   3    0.54    0.29 
  -6   5  -3   13.64    1.13 
  -6   5  -3   14.90    0.86 
   6  -5   3   13.54    0.97 
   6  -5   3   13.85    0.78 
   5   4  -3    0.39    0.27 
   4   4  -3  119.70    2.30 
   4   4  -3  121.15    3.05 
   3   4  -3    0.96    0.21 
   3   4  -3    0.86    0.36 
   2   4  -3   18.03    0.59 
   2   4  -3   17.19    0.88 
   1   4  -3   52.05    1.42 
   1   4  -3   50.50    1.02 
   1   4  -3   49.90    0.97 
   1   4  -3   50.56    0.93 
   0   4  -3   82.57    1.49 
   0   4  -3   80.33    1.83 
   0  -4   3   81.72    1.41 
  -1   4  -3   20.09    0.69 
  -1   4  -3   21.48    0.89 
   1  -4   3   19.66    0.65 
  -2   4  -3    1.26    0.24 
  -2   4  -3    1.59    0.34 
   2  -4   3    2.09    0.33 
   2  -4   3    1.91    0.27 
  -3   4  -3  221.51    3.95 
  -3   4  -3  218.79    3.40 
   3  -4   3  220.19    3.77 
   3  -4   3  221.96    3.25 
  -4   4  -3    1.40    0.29 
  -4   4  -3    1.97    0.55 
   4  -4   3    1.81    0.29 
   4  -4   3    1.59    0.33 
  -5   4  -3    2.00    0.34 
   5  -4   3    2.09    0.44 
   5  -4   3    2.08    0.34 
  -6   4  -3   27.34    1.13 
   6  -4   3   27.29    1.32 
   6  -4   3   27.70    1.03 
   6   3  -3    1.86    0.38 
   5   3  -3    0.39    0.25 
   4   3  -3  173.58    2.85 
   4   3  -3  177.45    3.74 
   3   3  -3   20.02    0.69 
   3   3  -3   19.90    0.99 
   2   3  -3   30.12    1.05 
   2   3  -3   29.66    0.75 
   1   3  -3  241.06    3.74 
   1   3  -3  242.36    3.00 
   1   3  -3  241.68    3.07 
   1   3  -3  237.61    2.90 
  -1  -3   3  250.03    2.86 
   0   3  -3    0.85    0.15 
   0   3  -3    1.25    0.19 
   0   3  -3    0.79    0.07 
   0   3  -3    0.90    0.24 
   0  -3   3    0.73    0.14 
  -1   3  -3    1.25    0.29 
  -1   3  -3    1.26    0.20 
   1  -3   3    1.21    0.19 
  -2   3  -3    4.61    0.34 
  -2   3  -3    4.98    0.47 
   2  -3   3    4.26    0.31 
  -3   3  -3  201.68    3.15 
   3  -3   3  202.22    3.46 
   3  -3   3  206.69    2.94 
  -4   3  -3    0.14    0.19 
   4  -3   3    0.13    0.19 
   4  -3   3    0.17    0.20 
   4  -3   3    0.19    0.26 
  -5   3  -3   30.84    1.08 
   5  -3   3   31.84    1.26 
   5  -3   3   30.73    1.00 
   5  -3   3   29.12    1.01 
  -6   3  -3   60.45    1.68 
   6  -3   3   58.79    1.92 
   6  -3   3   59.95    1.64 
   6  -3   3   60.43    1.52 
   6   2  -3    0.49    0.32 
   5   2  -3   14.75    0.72 
   4   2  -3  266.41    4.68 
   4   2  -3  274.51    3.86 
   3   2  -3    0.04    0.15 
   3   2  -3    0.06    0.27 
   3   2  -3    0.44    0.27 
   2   2  -3   15.91    0.71 
   2   2  -3   17.82    0.53 
   2   2  -3   18.05    0.57 
   2   2  -3   18.44    0.76 
   1   2  -3  104.61    1.86 
   1   2  -3  100.74    1.64 
   1   2  -3  103.74    1.43 
   1   2  -3  102.43    1.37 
  -1  -2   3  105.63    1.27 
   0   2  -3    2.62    0.20 
   0   2  -3    2.67    0.27 
   0   2  -3    2.66    0.18 
   0   2  -3    2.22    0.15 
   0  -2   3    2.50    0.17 
  -1   2  -3   29.11    0.63 
  -1   2  -3   28.91    0.72 
  -1   2  -3   30.58    0.89 
  -1   2  -3   29.82    0.66 
   1  -2   3   30.77    0.68 
  -2   2  -3   11.69    0.49 
  -2   2  -3   11.47    0.33 
  -2   2  -3   11.41    0.46 
   2  -2   3   11.26    0.36 
   2  -2   3   11.36    0.45 
  -3   2  -3  371.35    4.70 
  -3   2  -3  379.65    5.06 
   3  -2   3  376.79    4.62 
   3  -2   3  376.11    4.80 
   3  -2   3  371.04    5.41 
  -4   2  -3    0.08    0.20 
   4  -2   3   -0.10    0.16 
   4  -2   3    0.23    0.23 
   4  -2   3    0.38    0.20 
  -5   2  -3   41.60    1.24 
   5  -2   3   43.44    1.24 
   5  -2   3   42.92    1.15 
   5  -2   3   40.75    1.42 
  -6   2  -3   76.00    1.90 
   6  -2   3   77.47    1.71 
   6  -2   3   76.72    1.88 
   6  -2   3   77.83    2.18 
   6   1  -3    0.87    0.41 
   6   1  -3    0.91    0.31 
   5   1  -3   36.70    1.43 
   5   1  -3   39.20    1.18 
   4   1  -3  107.33    1.99 
   4   1  -3  105.37    2.37 
   3   1  -3   -0.11    0.20 
   3   1  -3    0.18    0.16 
   3   1  -3   -0.09    0.12 
   2   1  -3    3.22    0.23 
   2   1  -3    3.51    0.36 
   2   1  -3    3.30    0.24 
   2   1  -3    3.85    0.34 
   1   1  -3  557.29    7.53 
   1   1  -3  546.94    6.22 
   1   1  -3  549.86    6.20 
   1   1  -3  523.78    6.63 
   1   1  -3  543.64    6.10 
  -1  -1   3  533.54    5.65 
   0   1  -3    4.70    0.27 
   0   1  -3    4.84    0.25 
   0   1  -3    4.18    0.23 
   0  -1   3    5.22    0.21 
  -1   1  -3  147.47    1.94 
  -1   1  -3  150.89    2.17 
   1  -1   3  149.35    1.98 
   1  -1   3  149.80    1.90 
  -2   1  -3   26.40    0.53 
  -2   1  -3   25.60    0.70 
  -2   1  -3   27.80    0.76 
   2  -1   3   27.15    0.68 
   2  -1   3   27.24    0.64 
  -3   1  -3    1.60    0.24 
  -3   1  -3    1.40    0.23 
   3  -1   3    1.61    0.21 
   3  -1   3    1.38    0.26 
   3  -1   3    1.44    0.20 
  -4   1  -3    0.31    0.18 
  -4   1  -3    0.12    0.20 
   4  -1   3    0.19    0.26 
   4  -1   3    0.28    0.22 
   4  -1   3    0.49    0.18 
  -5   1  -3    0.53    0.22 
  -5   1  -3    0.87    0.28 
   5  -1   3    0.45    0.20 
   5  -1   3    0.40    0.22 
   5  -1   3    0.55    0.30 
   6  -1   3  120.43    2.52 
   6  -1   3  121.07    2.83 
   7   0  -3    0.23    0.32 
   7   0  -3    0.01    0.38 
   6   0  -3   42.70    1.36 
   6   0  -3   42.67    1.64 
   5   0  -3   36.83    1.15 
   5   0  -3   35.62    1.37 
   4   0  -3   38.65    1.07 
   4   0  -3   40.51    1.31 
   3   0  -3    1.75    0.30 
   3   0  -3    2.82    0.28 
   3   0  -3    2.42    0.19 
  -3   0   3    2.66    0.15 
  -3   0   3    2.43    0.13 
   2   0  -3   19.55    0.74 
   2   0  -3   20.04    0.53 
  -2   0   3   20.89    0.39 
  -2   0   3   20.30    0.42 
   1   0  -3  708.17    8.39 
   1   0  -3  738.63    8.22 
   1   0  -3  714.43    9.21 
  -1   0   3  712.76    8.28 
  -1   0   3  708.42    7.59 
   0   0  -3    7.13    0.37 
   0   0   3    6.97    0.31 
   0   0   3    6.93    0.33 
  -1   0  -3  454.90    5.62 
  -1   0  -3  452.78    5.60 
   1   0   3  453.39    5.53 
   1   0   3  457.00    5.18 
   1   0   3  451.28    5.51 
   1   0   3  440.61    5.23 
  -2   0  -3   87.27    1.59 
  -2   0  -3   94.11    1.65 
   2   0   3   91.89    1.47 
   2   0   3   90.24    1.49 
   2   0   3   89.98    1.60 
  -3   0  -3    7.91    0.43 
  -3   0  -3    8.48    0.47 
   3   0   3    8.01    0.40 
   3   0   3    8.41    0.46 
   3   0   3    8.25    0.44 
  -4   0  -3   12.77    0.57 
  -4   0  -3   12.63    0.62 
   4   0   3   12.56    0.62 
   4   0   3   13.76    0.57 
   4   0   3   12.75    0.64 
  -5   0  -3   23.00    0.90 
  -5   0  -3   22.53    0.86 
   5   0   3   24.02    0.95 
   5   0   3   22.74    0.97 
   5   0   3   23.28    0.78 
   6   0   3   51.28    1.54 
   7  -1  -3    0.46    0.36 
   6  -1  -3   26.71    1.29 
   5  -1  -3   76.35    2.08 
   4  -1  -3   27.87    1.08 
   4  -1  -3   27.98    0.66 
  -4   1   3   28.40    0.65 
  -4   1   3   27.46    0.68 
   3  -1  -3   19.78    0.50 
   3  -1  -3   18.75    0.52 
   3  -1  -3   18.73    0.79 
  -3   1   3   19.30    0.47 
  -3   1   3   19.70    0.51 
   2  -1  -3   12.80    0.58 
   2  -1  -3   12.64    0.47 
  -2   1   3   12.96    0.37 
  -2   1   3   12.36    0.39 
   1  -1  -3  350.88    4.68 
   1  -1  -3  342.07    4.52 
  -1   1   3  338.22    4.23 
  -1   1   3  349.20    4.03 
   0  -1  -3    0.38    0.24 
   0  -1  -3    0.27    0.14 
   0   1   3    0.11    0.15 
   0   1   3    0.24    0.20 
   1   1   3   11.34    0.48 
   1   1   3   10.95    0.44 
   1   1   3   10.77    0.44 
   2   1   3  119.93    1.97 
   2   1   3  121.59    1.85 
   2   1   3  119.74    2.02 
   2   1   3  123.66    1.90 
  -3  -1  -3   27.43    0.92 
   3   1   3   28.88    0.85 
   3   1   3   29.40    0.80 
   3   1   3   28.49    0.87 
   3   1   3   27.88    0.80 
  -4  -1  -3   63.23    1.50 
   4   1   3   64.70    1.51 
   4   1   3   64.15    1.33 
  -5  -1  -3   10.58    0.60 
   5   1   3   10.38    0.66 
   6   1   3   44.45    1.48 
   7  -2  -3   -0.15    0.38 
   6  -2  -3   24.50    1.23 
   5  -2  -3   93.61    2.35 
   4  -2  -3   10.25    0.44 
   4  -2  -3    9.88    0.64 
  -4   2   3   10.41    0.44 
  -4   2   3   10.48    0.46 
   3  -2  -3  175.65    3.05 
   3  -2  -3  177.00    2.62 
  -3   2   3  173.88    2.33 
  -3   2   3  171.56    2.51 
   2  -2  -3   48.45    1.18 
   2  -2  -3   50.47    1.21 
  -2   2   3   48.77    1.01 
  -2   2   3   49.11    0.95 
   1  -2  -3    1.75    0.22 
  -1   2   3    1.86    0.21 
  -1   2   3    1.64    0.19 
  -1   2   3    1.83    0.13 
   0  -2  -3   10.17    0.35 
   0   2   3    9.98    0.44 
   0   2   3    9.30    0.37 
   0   2   3   10.66    0.48 
   1   2   3   25.13    0.83 
   1   2   3   24.88    0.85 
   1   2   3   24.73    0.77 
   1   2   3   25.40    0.77 
   2   2   3  212.81    3.03 
   2   2   3  212.30    2.91 
   2   2   3  212.06    3.11 
   2   2   3  191.14    2.67 
  -3  -2  -3    0.47    0.28 
   3   2   3    0.41    0.23 
   3   2   3    0.43    0.19 
   3   2   3    0.58    0.25 
   3   2   3    0.38    0.21 
  -4  -2  -3   91.00    1.98 
   4   2   3   91.57    1.71 
   4   2   3   91.48    1.95 
   4   2   3   88.99    1.78 
   5   2   3    0.28    0.25 
   6   2   3    8.99    0.69 
   6  -3  -3   23.74    1.22 
   5  -3  -3  134.56    2.92 
   5  -3  -3  132.24    2.24 
  -5   3   3  133.80    2.21 
  -5   3   3  133.06    2.36 
   4  -3  -3    0.00    0.16 
   4  -3  -3    0.29    0.25 
  -4   3   3    0.32    0.18 
  -4   3   3    0.56    0.21 
   3  -3  -3  219.34    3.38 
   3  -3  -3  220.07    3.59 
  -3   3   3  220.88    3.26 
  -3   3   3  219.48    2.98 
  -3   3   3  215.91    3.18 
   2  -3  -3   59.09    1.36 
  -2   3   3   59.06    1.27 
  -2   3   3   60.48    1.16 
  -2   3   3   59.76    1.19 
   1  -3  -3   53.94    1.14 
  -1   3   3   52.40    1.10 
  -1   3   3   52.97    1.02 
  -1   3   3   52.33    1.20 
   0  -3  -3   16.77    0.47 
   0   3   3   17.03    0.72 
   0   3   3   17.79    0.63 
   0   3   3   16.56    0.65 
   0   3   3   17.26    0.58 
   1   3   3   66.35    1.50 
   1   3   3   64.35    1.54 
   1   3   3   67.33    1.44 
   1   3   3   67.15    1.52 
   2   3   3   69.03    1.81 
   2   3   3   70.92    1.64 
   2   3   3   66.61    1.55 
   2   3   3   70.93    1.54 
   3   3   3    4.34    0.43 
   3   3   3    4.25    0.40 
   3   3   3    4.84    0.43 
   4   3   3   86.06    1.97 
   5   3   3    0.98    0.31 
   6  -4  -3    3.83    0.55 
   5  -4  -3   30.15    1.27 
   5  -4  -3   29.39    0.98 
  -5   4   3   30.56    1.02 
  -5   4   3   28.17    0.94 
   4  -4  -3   10.78    0.71 
  -4   4   3   11.18    0.59 
  -4   4   3   10.91    0.56 
   3  -4  -3   78.70    1.81 
   3  -4  -3   80.75    1.87 
  -3   4   3   81.67    1.71 
  -3   4   3   82.88    1.62 
  -3   4   3   82.40    1.66 
   2  -4  -3   56.14    1.36 
  -2   4   3   56.98    1.35 
  -2   4   3   55.86    1.22 
  -2   4   3   55.41    1.26 
   1  -4  -3    5.72    0.36 
  -1   4   3    6.30    0.41 
  -1   4   3    6.11    0.38 
  -1   4   3    6.10    0.44 
   0   4   3   35.59    1.00 
   0   4   3   35.32    1.05 
   0   4   3   35.90    1.15 
   0   4   3   35.00    1.01 
   1   4   3   15.49    0.77 
   1   4   3   15.89    0.70 
   1   4   3   14.88    0.74 
   1   4   3   15.80    0.74 
   2   4   3   39.62    1.21 
   2   4   3   39.40    1.41 
   2   4   3   39.43    1.21 
   2   4   3   40.98    1.31 
   3   4   3    0.92    0.28 
   3   4   3    0.82    0.30 
   3   4   3    0.89    0.26 
   4   4   3   61.38    1.70 
   5   4   3    3.55    0.48 
   6  -5  -3    0.81    0.39 
  -6   5   3    0.26    0.25 
  -6   5   3   -0.25    0.30 
   5  -5  -3   16.13    0.94 
  -5   5   3   16.79    0.81 
  -5   5   3   16.57    0.76 
   4  -5  -3    1.20    0.34 
  -4   5   3    1.57    0.32 
  -4   5   3    1.65    0.31 
   3  -5  -3  148.09    2.83 
  -3   5   3  144.73    2.70 
  -3   5   3  146.32    2.54 
   2  -5  -3   82.72    1.81 
  -2   5   3   80.97    1.72 
  -2   5   3   82.87    1.86 
  -2   5   3   83.59    1.73 
  -1   5   3    0.34    0.23 
  -1   5   3    0.40    0.24 
  -1   5   3    0.34    0.24 
   0   5   3  137.37    2.43 
   0   5   3  133.96    2.70 
   0   5   3  134.79    2.50 
   0   5   3  136.30    2.57 
   1   5   3    6.93    0.58 
   1   5   3    8.70    0.57 
   1   5   3    7.46    0.56 
   1   5   3    7.85    0.61 
   2   5   3    0.56    0.29 
   2   5   3    0.53    0.34 
   2   5   3    0.65    0.38 
   2   5   3    0.95    0.30 
   3   5   3    2.68    0.41 
   3   5   3    3.24    0.56 
   4   5   3   40.26    1.43 
   5  -6  -3    2.33    0.50 
  -5   6   3    2.28    0.39 
  -5   6   3    1.93    0.39 
   4  -6  -3    3.75    0.49 
  -4   6   3    4.19    0.45 
  -4   6   3    4.22    0.48 
   3  -6  -3   47.55    1.47 
  -3   6   3   47.39    1.38 
  -3   6   3   47.07    1.45 
  -2   6   3   60.16    1.57 
  -2   6   3   60.60    1.66 
  -1   6   3    0.59    0.30 
  -1   6   3    0.90    0.26 
  -1   6   3    1.25    0.35 
  -1   6   3    0.72    0.38 
   0   6   3   85.70    1.95 
   0   6   3   85.54    2.08 
   0   6   3   87.76    2.07 
   0   6   3   88.59    2.18 
   1   6   3    1.82    0.36 
   1   6   3    2.92    0.39 
   1   6   3    2.09    0.41 
   1   6   3    2.48    0.42 
   2   6   3    4.16    0.61 
   2   6   3    4.62    0.51 
   2   6   3    3.83    0.53 
   2   6   3    3.49    0.44 
   3   6   3    3.26    0.48 
   3   6   3    3.63    0.65 
  -4   7   3   27.14    1.18 
  -4   7   3   26.11    1.12 
  -3   7   3   31.23    1.27 
  -3   7   3   31.61    1.22 
  -2   7   3    1.07    0.35 
  -2   7   3    1.33    0.33 
  -1   7   3    1.85    0.46 
  -1   7   3    2.76    0.44 
  -1   7   3    2.70    0.43 
   0   7   3   37.62    1.40 
   0   7   3   36.18    1.41 
   0   7   3   34.27    1.30 
   0   7   3   35.74    1.37 
   1   7   3    4.80    0.59 
   1   7   3    4.78    0.53 
   1   7   3    3.97    0.56 
   1   7   3    5.53    0.60 
   2   7   3    0.47    0.35 
   2   7   3    0.00    0.30 
  -2   8   3    1.10    0.40 
  -2   8   3    1.70    0.44 
  -1   8   3    3.69    0.49 
  -1   8   3    3.74    0.57 
   0   8   3   58.85    1.84 
   0   8   3   58.08    1.91 
   1   8  -4   14.35    1.11 
   0   8  -4   -0.25    0.39 
  -1   8  -4   67.77    1.76 
  -1   8  -4   68.53    2.29 
  -1   8  -4   69.78    1.87 
  -2   8  -4    5.73    0.54 
  -2   8  -4    4.87    0.55 
  -2   8  -4    4.68    0.67 
   2  -8   4    3.11    0.50 
   3   7  -4   52.73    2.12 
   2   7  -4    0.07    0.39 
   1   7  -4    0.53    0.40 
   0   7  -4    0.47    0.33 
  -1   7  -4   57.13    1.97 
  -1   7  -4   56.85    1.56 
  -1   7  -4   57.35    1.46 
   1  -7   4   58.36    1.54 
  -2   7  -4   19.45    1.13 
  -2   7  -4   19.15    0.90 
   2  -7   4   19.00    0.89 
   2  -7   4   20.29    1.04 
  -3   7  -4    1.26    0.33 
  -3   7  -4    0.73    0.44 
   3  -7   4    0.90    0.43 
   3  -7   4    1.06    0.36 
  -4   7  -4   70.87    2.33 
  -4   7  -4   74.99    2.03 
   4  -7   4   71.32    2.25 
   4  -7   4   73.55    1.97 
   4   6  -4   -0.35    0.45 
   3   6  -4   64.10    2.20 
   2   6  -4    0.10    0.32 
   1   6  -4    7.41    0.70 
   0   6  -4    2.71    0.33 
   0   6  -4    2.93    0.46 
   0   6  -4    2.67    0.30 
   0  -6   4    2.29    0.34 
  -1   6  -4  221.11    3.56 
  -1   6  -4  228.72    4.21 
   1  -6   4  226.31    3.40 
  -2   6  -4   10.35    0.66 
  -2   6  -4   10.21    0.80 
   2  -6   4   11.25    0.65 
   2  -6   4   11.97    0.75 
  -3   6  -4   14.23    0.94 
  -3   6  -4   14.43    0.78 
   3  -6   4   13.72    0.74 
   3  -6   4   14.77    0.88 
  -4   6  -4   90.55    2.61 
  -4   6  -4   90.52    2.21 
   4  -6   4   92.46    2.48 
   4  -6   4   91.85    2.11 
  -5   6  -4   -0.36    0.28 
  -5   6  -4    1.10    0.55 
   5  -6   4   -0.19    0.43 
   5  -6   4    0.61    0.30 
   5   5  -4    5.20    0.80 
   4   5  -4    1.08    0.52 
   3   5  -4   78.47    2.31 
   2   5  -4    4.78    0.56 
   1   5  -4    0.12    0.27 
   0   5  -4   64.45    1.79 
   0   5  -4   64.10    1.38 
   0  -5   4   64.86    1.32 
  -1   5  -4   84.89    2.10 
  -1   5  -4   86.67    1.76 
   1  -5   4   88.42    1.69 
  -2   5  -4    0.25    0.21 
  -2   5  -4    0.84    0.41 
   2  -5   4    0.87    0.35 
   2  -5   4    0.16    0.19 
  -3   5  -4    9.61    0.77 
  -3   5  -4    9.22    0.60 
   3  -5   4    9.24    0.56 
   3  -5   4   10.05    0.74 
  -4   5  -4  138.42    2.75 
  -4   5  -4  138.70    3.24 
   4  -5   4  141.12    2.59 
   4  -5   4  140.01    3.07 
  -5   5  -4   -0.06    0.25 
  -5   5  -4    1.32    0.53 
   5  -5   4   -0.07    0.23 
   5  -5   4   -0.16    0.35 
   5   4  -4    0.01    0.24 
   4   4  -4    0.34    0.21 
   4   4  -4   -0.16    0.41 
   3   4  -4  191.30    2.89 
   3   4  -4  191.26    3.76 
   2   4  -4   37.21    1.31 
   2   4  -4   34.82    0.85 
   1   4  -4   72.17    1.23 
   1   4  -4   73.51    1.30 
   1   4  -4   73.15    1.79 
  -1  -4   4   72.29    1.23 
   0   4  -4  111.90    1.89 
   0   4  -4  113.75    2.31 
   0  -4   4  115.40    1.78 
  -1   4  -4   85.18    1.96 
  -1   4  -4   83.36    1.62 
   1  -4   4   85.30    1.53 
  -2   4  -4    0.81    0.23 
  -2   4  -4    0.48    0.30 
   2  -4   4    0.21    0.18 
  -3   4  -4    1.30    0.27 
  -3   4  -4    1.68    0.41 
   3  -4   4    1.99    0.40 
   3  -4   4    1.48    0.26 
  -4   4  -4  241.91    3.87 
  -4   4  -4  231.86    4.57 
   4  -4   4  237.52    4.24 
   4  -4   4  240.88    3.61 
  -5   4  -4    0.17    0.23 
   5  -4   4   -0.23    0.41 
   5  -4   4    0.26    0.27 
  -6   4  -4   24.05    1.08 
   6  -4   4   23.34    0.97 
   6  -4   4   23.65    1.24 
   6   3  -4    2.98    0.44 
   5   3  -4    3.31    0.40 
   4   3  -4    7.11    0.69 
   4   3  -4    6.77    0.46 
   4   3  -4    6.73    0.64 
   3   3  -4  230.33    3.25 
   3   3  -4  232.02    4.16 
   2   3  -4    0.69    0.26 
   2   3  -4    0.92    0.20 
   2   3  -4    0.96    0.18 
   1   3  -4   37.53    0.68 
   1   3  -4   38.23    1.11 
   1   3  -4   36.85    0.94 
   1   3  -4   37.09    0.75 
  -1  -3   4   37.44    0.70 
   0   3  -4   90.35    1.86 
   0   3  -4   94.23    1.52 
   0   3  -4   91.62    1.58 
   0  -3   4   94.51    1.43 
  -1   3  -4   21.81    0.63 
  -1   3  -4   23.74    0.89 
  -1   3  -4   22.27    0.70 
   1  -3   4   22.50    0.66 
  -2   3  -4    0.41    0.18 
  -2   3  -4    0.36    0.27 
  -2   3  -4    0.40    0.14 
   2  -3   4    0.52    0.18 
  -3   3  -4    3.03    0.34 
   3  -3   4    3.21    0.33 
   3  -3   4    3.93    0.43 
  -4   3  -4  248.29    3.85 
   4  -3   4  247.34    4.26 
   4  -3   4  241.23    3.53 
  -5   3  -4    0.40    0.26 
   5  -3   4    0.40    0.25 
   5  -3   4    0.00    0.33 
  -6   3  -4   15.90    0.85 
   6  -3   4   14.27    0.74 
   6  -3   4   15.01    0.97 
   6   2  -4    2.50    0.39 
   5   2  -4   28.17    1.31 
   5   2  -4   26.78    0.97 
   4   2  -4   26.43    0.88 
   4   2  -4   26.06    1.19 
   3   2  -4   75.64    1.47 
   3   2  -4   76.78    2.01 
   3   2  -4   76.86    1.90 
   3   2  -4   75.54    1.46 
   2   2  -4   17.88    0.75 
   2   2  -4   18.48    0.61 
   2   2  -4   18.47    0.57 
   1   2  -4   57.23    0.79 
   1   2  -4   61.69    1.17 
   1   2  -4   60.94    0.93 
   1   2  -4   60.52    0.96 
   1   2  -4   59.93    1.30 
  -1  -2   4   61.47    0.86 
   0   2  -4  362.31    4.45 
   0   2  -4  372.30    4.53 
   0   2  -4  359.88    4.04 
   0   2  -4  352.83    4.85 
   0  -2   4  355.24    4.23 
  -1   2  -4   23.98    0.82 
  -1   2  -4   23.66    0.61 
  -1   2  -4   24.55    0.61 
  -1   2  -4   25.37    0.70 
   1  -2   4   25.53    0.64 
   1  -2   4   21.61    0.40 
  -2   2  -4  130.78    1.85 
  -2   2  -4  134.72    2.23 
  -2   2  -4  134.61    2.07 
   2  -2   4  133.91    2.04 
   2  -2   4  141.60    1.94 
  -3   2  -4   11.14    0.56 
  -3   2  -4   10.73    0.54 
   3  -2   4   10.89    0.51 
   3  -2   4   11.56    0.64 
   3  -2   4   11.20    0.46 
  -4   2  -4   70.89    1.64 
  -4   2  -4   72.36    1.59 
   4  -2   4   73.37    1.54 
   4  -2   4   69.78    1.80 
   4  -2   4   71.55    1.49 
  -5   2  -4    0.12    0.25 
   5  -2   4    0.20    0.26 
   5  -2   4    0.15    0.31 
   5  -2   4   -0.02    0.20 
  -6   2  -4   11.41    0.73 
   6  -2   4   10.56    0.67 
   6  -2   4   11.18    0.80 
   6  -2   4   10.75    0.62 
   6   1  -4   -0.27    0.36 
   6   1  -4    0.61    0.28 
   5   1  -4   44.70    1.62 
   5   1  -4   42.54    1.26 
   4   1  -4   74.64    1.41 
   4   1  -4   74.51    1.58 
   4   1  -4   75.45    2.01 
   3   1  -4  154.09    3.02 
   3   1  -4  156.49    2.33 
   3   1  -4  162.51    2.45 
   3   1  -4  153.85    2.82 
   2   1  -4    1.17    0.30 
   2   1  -4    1.25    0.18 
   2   1  -4    1.32    0.23 
   2   1  -4    1.55    0.18 
   1   1  -4   82.91    1.42 
   1   1  -4   88.30    1.23 
   1   1  -4   84.27    1.41 
  -1  -1   4   84.62    1.16 
   0   1  -4  388.04    4.90 
   0   1  -4  371.30    4.60 
   0   1  -4  379.16    4.69 
   0  -1   4  385.81    4.40 
  -1   1  -4    0.26    0.16 
  -1   1  -4   -0.05    0.14 
   1  -1   4    0.27    0.10 
   1  -1   4   -0.21    0.12 
  -2   1  -4  155.93    2.49 
  -2   1  -4  152.11    2.13 
   2  -1   4  159.78    2.21 
   2  -1   4  155.74    2.26 
  -3   1  -4   46.91    1.12 
  -3   1  -4   47.16    1.21 
   3  -1   4   47.76    1.27 
   3  -1   4   46.52    1.08 
   3  -1   4   47.32    1.07 
  -4   1  -4   98.61    1.92 
  -4   1  -4   96.61    1.98 
   4  -1   4   97.39    2.12 
   4  -1   4   99.29    1.89 
   4  -1   4   97.97    1.81 
  -5   1  -4   16.33    0.77 
  -5   1  -4   16.36    0.80 
   5  -1   4   17.22    0.78 
   5  -1   4   17.34    0.72 
   5  -1   4   16.99    0.88 
  -6   1  -4    7.08    0.58 
   6  -1   4    7.26    0.58 
   6  -1   4    6.97    0.64 
   6  -1   4    6.91    0.50 
   6   0  -4    0.00    0.39 
   5   0  -4   22.95    1.16 
   5   0  -4   24.96    0.93 
   4   0  -4  121.62    2.66 
   4   0  -4  121.65    1.90 
   3   0  -4  101.31    2.16 
   3   0  -4   97.14    1.61 
  -3   0   4   98.28    1.30 
  -3   0   4   97.78    1.38 
   2   0  -4    1.98    0.21 
   2   0  -4    1.84    0.31 
  -2   0   4    1.96    0.17 
  -2   0   4    2.17    0.18 
   1   0  -4   13.47    0.35 
   1   0  -4   14.40    0.64 
   1   0  -4   12.28    0.49 
  -1   0   4   13.38    0.47 
  -1   0   4   13.23    0.43 
   0   0  -4  381.29    4.78 
   0   0   4  389.42    4.92 
   0   0   4  382.30    4.52 
  -1   0  -4    7.88    0.46 
  -1   0  -4    7.60    0.45 
   1   0   4    8.47    0.39 
   1   0   4    8.30    0.35 
   1   0   4    7.30    0.40 
   1   0   4    7.93    0.42 
  -2   0  -4  215.47    3.23 
  -2   0  -4  226.46    3.34 
   2   0   4  217.79    3.12 
   2   0   4  221.11    2.98 
   2   0   4  218.11    3.05 
  -3   0  -4  100.47    1.96 
  -3   0  -4   95.65    1.83 
   3   0   4   98.77    1.71 
   3   0   4  101.10    1.81 
   3   0   4   97.83    1.90 
  -4   0  -4    4.27    0.42 
  -4   0  -4    4.53    0.42 
   4   0   4    4.15    0.40 
   4   0   4    4.52    0.36 
   4   0   4    4.83    0.40 
  -5   0  -4   33.52    1.18 
  -5   0  -4   34.20    1.10 
   5   0   4   35.54    1.24 
   5   0   4   34.92    1.02 
   5   0   4   35.90    1.17 
  -6   0  -4   -0.13    0.26 
   6   0   4    0.60    0.29 
   7  -1  -4   38.38    1.73 
   6  -1  -4    1.20    0.43 
   5  -1  -4   77.19    2.17 
   4  -1  -4  173.54    3.32 
   3  -1  -4    3.36    0.40 
   3  -1  -4    3.29    0.26 
  -3   1   4    2.91    0.22 
  -3   1   4    3.02    0.20 
   2  -1  -4  169.73    2.94 
   2  -1  -4  166.66    2.54 
  -2   1   4  164.37    2.33 
  -2   1   4  169.30    2.18 
   1  -1  -4   33.24    0.92 
   1  -1  -4   32.59    0.96 
  -1   1   4   32.43    0.82 
  -1   1   4   32.95    0.77 
   0  -1  -4  107.02    2.04 
   0   1   4  114.16    1.94 
   0   1   4  109.47    1.78 
  -1  -1  -4    7.85    0.50 
   1   1   4    8.38    0.49 
   1   1   4    8.25    0.43 
   1   1   4    8.54    0.43 
  -2  -1  -4  179.97    2.91 
   2   1   4  182.78    2.67 
   2   1   4  178.32    2.69 
   2   1   4  181.98    2.85 
  -3  -1  -4   88.55    1.85 
  -3  -1  -4   91.29    1.93 
   3   1   4   88.28    1.77 
   3   1   4   91.30    1.72 
   3   1   4   90.53    1.77 
   3   1   4   89.80    1.66 
  -4  -1  -4   15.21    0.76 
   4   1   4   16.81    0.74 
   4   1   4   15.85    0.66 
  -5  -1  -4   57.70    1.61 
  -5  -1  -4   59.92    1.46 
   5   1   4   59.35    1.39 
   5   1   4   59.39    1.60 
   6   1   4    0.15    0.28 
   7  -2  -4   35.13    1.68 
   6  -2  -4   10.90    0.85 
   5  -2  -4   72.39    2.08 
   4  -2  -4  172.39    3.29 
  -4   2   4  172.90    2.43 
  -4   2   4  172.86    2.59 
   3  -2  -4    1.67    0.31 
   3  -2  -4    1.89    0.28 
  -3   2   4    2.09    0.22 
  -3   2   4    1.98    0.23 
   2  -2  -4  101.69    2.01 
   2  -2  -4  100.31    1.99 
  -2   2   4   97.32    1.43 
  -2   2   4  101.61    1.73 
  -2   2   4  100.95    1.60 
   1  -2  -4   55.51    1.23 
   1  -2  -4   54.04    1.39 
  -1   2   4   54.22    0.83 
  -1   2   4   55.86    1.12 
  -1   2   4   53.98    1.21 
   0  -2  -4   74.03    1.33 
   0   2   4   73.89    1.53 
   0   2   4   71.40    1.30 
   0   2   4   71.14    1.43 
   1   2   4   44.10    1.19 
   1   2   4   42.99    1.11 
   1   2   4   42.62    1.12 
   2   2   4   40.14    1.09 
   2   2   4   42.78    1.13 
   2   2   4   42.18    1.19 
  -3  -2  -4   85.58    2.06 
   3   2   4   85.28    1.79 
   3   2   4   84.98    1.71 
   3   2   4   82.17    1.76 
   3   2   4   82.68    1.80 
  -4  -2  -4    6.13    0.56 
   4   2   4    6.47    0.49 
   4   2   4    5.97    0.50 
   4   2   4    5.53    0.43 
   5   2   4   98.64    2.24 
   6   2   4    3.95    0.50 
   6  -3  -4   32.62    1.46 
   5  -3  -4    7.10    0.66 
   4  -3  -4   72.18    1.88 
  -4   3   4   73.11    1.45 
  -4   3   4   71.16    1.50 
   3  -3  -4   23.62    0.92 
   3  -3  -4   23.45    0.91 
  -3   3   4   21.73    0.70 
  -3   3   4   22.48    0.76 
   2  -3  -4  215.59    3.48 
   2  -3  -4  208.32    3.41 
  -2   3   4  211.76    2.97 
  -2   3   4  212.82    2.86 
  -2   3   4  210.42    3.18 
   1  -3  -4   49.11    1.16 
  -1   3   4   46.72    1.17 
  -1   3   4   50.17    1.13 
  -1   3   4   48.61    0.93 
   0  -3  -4    1.13    0.17 
   0   3   4    1.30    0.32 
   0   3   4    0.55    0.21 
   0   3   4    1.13    0.25 
   0   3   4    0.71    0.19 
   1   3   4   26.05    0.93 
   1   3   4   26.84    0.90 
   1   3   4   25.16    0.96 
   1   3   4   25.07    0.94 
   2   3   4   31.53    1.05 
   2   3   4   31.47    1.11 
   2   3   4   31.68    1.04 
   3   3   4   58.71    1.56 
   3   3   4   60.43    1.58 
   3   3   4   59.68    1.47 
  -4  -3  -4    0.27    0.33 
   4   3   4    0.75    0.28 
   4   3   4    0.37    0.22 
   4   3   4    0.45    0.28 
   4   3   4    0.36    0.24 
   5   3   4   69.47    1.91 
   6  -4  -4   60.80    2.08 
   5  -4  -4    8.73    0.70 
  -5   4   4    8.69    0.55 
  -5   4   4    8.73    0.53 
   4  -4  -4   72.38    1.94 
  -4   4   4   72.25    1.58 
  -4   4   4   74.97    1.69 
   3  -4  -4    1.62    0.32 
   3  -4  -4    1.79    0.39 
  -3   4   4    2.00    0.31 
  -3   4   4    1.58    0.27 
   2  -4  -4  154.52    2.76 
  -2   4   4  159.81    2.55 
  -2   4   4  158.12    2.70 
   1  -4  -4  131.67    2.25 
  -1   4   4  127.70    2.23 
  -1   4   4  127.64    2.36 
  -1   4   4  130.08    2.13 
   0   4   4    3.52    0.39 
   0   4   4    3.85    0.37 
   0   4   4    4.24    0.48 
   0   4   4    3.32    0.32 
   1   4   4  177.42    3.12 
   1   4   4  171.86    2.92 
   1   4   4  178.27    3.16 
   1   4   4  179.77    3.18 
   2   4   4   14.86    0.77 
   2   4   4   14.94    0.78 
   2   4   4   16.15    0.86 
   2   4   4   16.83    0.94 
   3   4   4    0.58    0.32 
   3   4   4    0.28    0.25 
   3   4   4   -0.31    0.29 
   4   4   4    1.39    0.34 
   5   4   4   30.82    1.29 
   6  -5  -4   62.74    2.14 
   5  -5  -4    1.44    0.41 
  -5   5   4    1.57    0.32 
  -5   5   4    1.25    0.29 
   4  -5  -4    6.93    0.62 
  -4   5   4    7.56    0.55 
  -4   5   4    7.59    0.52 
   3  -5  -4   44.08    1.38 
   3  -5  -4   40.58    1.38 
  -3   5   4   42.83    1.22 
  -3   5   4   41.95    1.30 
   2  -5  -4   63.93    1.56 
  -2   5   4   63.06    1.64 
  -2   5   4   64.29    1.54 
  -1   5   4   49.83    1.35 
  -1   5   4   48.88    1.41 
   0   5   4    1.90    0.36 
   0   5   4    2.34    0.39 
   0   5   4    1.99    0.31 
   0   5   4    2.07    0.45 
   1   5   4   83.87    1.92 
   1   5   4   82.77    2.05 
   1   5   4   85.65    2.07 
   1   5   4   86.76    2.14 
   2   5   4    0.75    0.38 
   2   5   4    1.09    0.37 
   2   5   4    1.25    0.35 
   2   5   4    0.52    0.31 
   3   5   4    2.14    0.42 
   3   5   4    1.85    0.45 
   3   5   4    1.98    0.39 
   4   5   4   15.35    0.91 
   5  -6  -4    8.38    0.75 
  -5   6   4    7.51    0.58 
  -5   6   4    6.82    0.60 
   4  -6  -4    0.76    0.34 
  -4   6   4    1.18    0.35 
  -4   6   4    0.26    0.24 
   3  -6  -4   51.03    1.56 
  -3   6   4   50.92    1.47 
  -3   6   4   51.20    1.55 
  -2   6   4   47.32    1.42 
  -2   6   4   48.15    1.51 
  -1   6   4   14.85    0.96 
  -1   6   4   15.00    0.79 
  -1   6   4   14.35    0.81 
   0   6   4    2.81    0.43 
   0   6   4    2.59    0.40 
   0   6   4    3.43    0.51 
   1   6   4   85.13    2.19 
   1   6   4   81.70    2.03 
   1   6   4   85.22    2.21 
   1   6   4   80.42    2.14 
   2   6   4    1.60    0.42 
   2   6   4    1.10    0.43 
   2   6   4    0.76    0.34 
   2   6   4    1.70    0.38 
   3   6   4    0.82    0.42 
  -4   7   4    1.25    0.34 
  -4   7   4    0.64    0.30 
  -3   7   4   59.82    1.85 
  -3   7   4   62.42    1.78 
  -2   7   4   10.83    0.74 
  -2   7   4   10.66    0.81 
  -1   7   4    8.19    0.67 
  -1   7   4   10.04    0.76 
  -1   7   4    9.00    0.80 
   0   7   4    0.23    0.35 
   0   7   4    1.04    0.39 
   0   7   4    0.64    0.31 
   1   7   4   46.59    1.58 
   1   7   4   49.52    1.73 
   1   7   4   50.09    1.73 
   2   7   4   -0.06    0.30 
   2   7   4   -0.19    0.36 
   2   7   4    0.61    0.32 
   2   7   4    0.68    0.32 
  -1   8   4   -0.08    0.32 
  -1   8   4    0.38    0.37 
   0   8  -5    2.19    0.60 
  -1   8  -5    5.13    0.72 
  -1   8  -5    5.41    0.50 
  -1   8  -5    5.12    0.50 
  -2   8  -5   50.48    1.55 
  -2   8  -5   51.35    1.66 
  -2   8  -5   48.84    2.01 
   2  -8   5   53.17    1.63 
   2   7  -5   32.31    1.57 
   1   7  -5    2.42    0.55 
   0   7  -5    3.12    0.56 
  -1   7  -5   17.85    1.13 
  -1   7  -5   20.66    0.90 
  -1   7  -5   18.19    0.81 
   1  -7   5   20.01    0.90 
  -2   7  -5   70.03    2.23 
  -2   7  -5   66.76    1.81 
   2  -7   5   68.80    1.77 
   2  -7   5   68.02    2.07 
  -3   7  -5    7.55    0.62 
  -3   7  -5    7.67    0.80 
   3  -7   5    8.18    0.67 
   3  -7   5    8.46    0.76 
  -4   7  -5    0.18    0.26 
  -4   7  -5   -0.15    0.47 
   4  -7   5    0.20    0.31 
   4  -7   5   -0.31    0.43 
   4   6  -5    4.36    0.76 
   3   6  -5    0.60    0.46 
   2   6  -5   76.23    2.28 
   1   6  -5    3.18    0.51 
   0   6  -5   24.73    0.84 
   0   6  -5   25.57    0.88 
   0   6  -5   26.23    1.24 
   0  -6   5   24.79    0.88 
  -1   6  -5   41.70    1.20 
  -1   6  -5   40.67    1.57 
   1  -6   5   40.73    1.19 
  -2   6  -5   21.95    0.93 
  -2   6  -5   21.87    1.18 
   2  -6   5   23.14    1.11 
   2  -6   5   21.06    0.88 
  -3   6  -5    8.88    0.79 
  -3   6  -5    9.98    0.64 
   3  -6   5    9.56    0.79 
   3  -6   5    9.01    0.62 
  -4   6  -5    3.40    0.47 
  -4   6  -5    3.93    0.65 
   4  -6   5    3.65    0.45 
   4  -6   5    3.92    0.57 
  -5   6  -5   70.20    2.51 
  -5   6  -5   70.73    2.04 
   5  -6   5   72.27    1.93 
   5  -6   5   72.29    2.32 
   4   5  -5    1.90    0.59 
   3   5  -5    4.12    0.59 
   2   5  -5  143.99    3.15 
   1   5  -5    1.62    0.38 
   0   5  -5   41.37    1.46 
   0   5  -5   43.02    1.10 
   0  -5   5   41.32    1.02 
  -1   5  -5   50.72    1.62 
  -1   5  -5   50.14    1.28 
   1  -5   5   50.06    1.22 
  -2   5  -5   40.13    1.48 
  -2   5  -5   41.40    1.22 
   2  -5   5   40.20    1.13 
  -3   5  -5   -0.23    0.40 
  -3   5  -5    0.29    0.23 
   3  -5   5    0.39    0.24 
   3  -5   5    0.21    0.34 
  -4   5  -5    0.14    0.24 
  -4   5  -5    0.24    0.44 
   4  -5   5    0.17    0.32 
   4  -5   5    0.42    0.27 
  -5   5  -5   79.90    2.62 
  -5   5  -5   83.60    2.11 
   5  -5   5   83.56    2.01 
   5  -5   5   82.64    2.41 
   5   4  -5    0.28    0.25 
   5   4  -5    1.24    0.53 
   4   4  -5    2.44    0.33 
   4   4  -5    1.06    0.42 
   3   4  -5    6.44    0.64 
   2   4  -5   80.38    2.06 
   1   4  -5    9.60    0.41 
   1   4  -5   10.15    0.54 
   1   4  -5    9.76    0.65 
   0   4  -5   48.96    1.09 
   0   4  -5   49.67    1.43 
   0   4  -5   46.18    1.17 
   0  -4   5   49.91    1.04 
  -1   4  -5  226.07    3.35 
  -1   4  -5  231.96    3.95 
  -1   4  -5  232.13    3.34 
   1  -4   5  233.41    3.18 
  -2   4  -5    9.18    0.69 
  -2   4  -5    9.61    0.54 
   2  -4   5    9.39    0.53 
  -3   4  -5   25.61    1.19 
  -3   4  -5   26.29    0.98 
   3  -4   5   26.08    0.92 
   3  -4   5   27.18    1.12 
  -4   4  -5    0.56    0.37 
  -4   4  -5   -0.13    0.24 
   4  -4   5    0.37    0.34 
   4  -4   5   -0.02    0.21 
  -5   4  -5   56.62    1.70 
   5  -4   5   58.87    1.91 
   5  -4   5   59.06    1.59 
  -6   4  -5    2.55    0.45 
   6  -4   5    1.77    0.50 
   6  -4   5    2.19    0.38 
   6   3  -5   89.20    2.11 
   5   3  -5    0.33    0.23 
   4   3  -5   54.34    1.85 
   4   3  -5   53.34    1.87 
   4   3  -5   53.35    1.32 
   3   3  -5    8.02    0.46 
   3   3  -5    8.48    0.66 
   3   3  -5    8.90    0.52 
   2   3  -5   27.42    0.69 
   2   3  -5   27.14    0.86 
   2   3  -5   26.18    1.03 
   1   3  -5   24.34    0.90 
   1   3  -5   24.40    0.52 
   1   3  -5   25.06    0.78 
   1   3  -5   24.13    0.59 
  -1  -3   5   24.39    0.55 
   0   3  -5   61.81    1.19 
   0   3  -5   62.77    1.29 
   0   3  -5   62.74    1.03 
   0   3  -5   62.64    1.49 
   0  -3   5   62.09    1.13 
  -1   3  -5  194.24    2.79 
  -1   3  -5  197.82    3.38 
  -1   3  -5  195.18    2.65 
  -1   3  -5  202.52    2.92 
   1  -3   5  192.43    2.73 
  -2   3  -5   35.74    0.92 
  -2   3  -5   34.53    1.24 
  -2   3  -5   35.19    1.02 
  -2   3  -5   35.71    0.83 
   2  -3   5   35.34    0.95 
  -3   3  -5   39.80    1.18 
  -3   3  -5   37.85    1.06 
   3  -3   5   37.35    1.06 
   3  -3   5   37.85    1.30 
  -4   3  -5    3.36    0.37 
   4  -3   5    3.42    0.48 
   4  -3   5    3.79    0.39 
  -5   3  -5   73.37    1.88 
   5  -3   5   72.39    1.73 
   5  -3   5   74.24    2.10 
  -6   3  -5   -0.47    0.32 
   6  -3   5    0.06    0.23 
   6  -3   5   -0.29    0.33 
   6   2  -5   99.86    2.26 
   5   2  -5    2.16    0.48 
   5   2  -5    2.77    0.37 
   4   2  -5   24.64    1.16 
   4   2  -5   26.47    0.87 
   4   2  -5   26.58    1.30 
   4   2  -5   27.37    0.87 
   3   2  -5   65.97    1.73 
   3   2  -5   67.30    1.43 
   3   2  -5   70.58    1.97 
   3   2  -5   69.33    1.37 
   2   2  -5   40.45    1.15 
   2   2  -5   41.00    0.89 
   2   2  -5   41.32    1.01 
   1   2  -5   23.59    0.78 
   1   2  -5   24.90    0.72 
   1   2  -5   23.65    0.56 
  -1  -2   5   24.57    0.52 
   0   2  -5   74.43    1.51 
   0   2  -5   75.55    1.31 
   0   2  -5   74.06    1.38 
   0  -2   5   72.77    1.22 
  -1   2  -5  184.47    2.53 
  -1   2  -5  189.25    2.70 
  -1   2  -5  177.58    3.00 
   1  -2   5  186.15    2.53 
   1  -2   5  172.26    2.16 
  -2   2  -5    2.29    0.21 
  -2   2  -5    2.23    0.28 
  -2   2  -5    1.79    0.24 
   2  -2   5    1.93    0.18 
   2  -2   5    2.24    0.25 
  -3   2  -5   60.20    1.37 
  -3   2  -5   61.10    1.50 
   3  -2   5   60.55    1.61 
   3  -2   5   61.01    1.35 
   3  -2   5   60.04    1.21 
  -4   2  -5   39.41    1.24 
  -4   2  -5   40.67    1.18 
   4  -2   5   40.02    1.35 
   4  -2   5   41.18    1.09 
   4  -2   5   39.33    1.12 
  -5   2  -5   40.18    1.25 
  -5   2  -5   40.23    1.33 
   5  -2   5   38.36    1.17 
   5  -2   5   39.42    1.20 
   5  -2   5   40.25    1.45 
  -6   2  -5   12.56    0.80 
   6  -2   5   12.21    0.70 
   6  -2   5   13.44    0.91 
   6   1  -5   46.11    1.84 
   6   1  -5   44.34    1.40 
   5   1  -5    0.02    0.30 
   5   1  -5   -0.36    0.23 
   4   1  -5   57.48    1.39 
   4   1  -5   59.26    1.28 
   4   1  -5   58.50    1.82 
   3   1  -5   89.93    1.62 
   3   1  -5   89.98    2.18 
   3   1  -5   87.69    1.95 
   2   1  -5   10.79    0.51 
   2   1  -5   10.78    0.67 
   2   1  -5   10.28    0.30 
   2   1  -5   10.45    0.46 
  -2  -1   5   10.08    0.27 
   1   1  -5    2.02    0.25 
   1   1  -5    2.51    0.20 
   1   1  -5    3.13    0.25 
  -1  -1   5    2.54    0.19 
   0   1  -5  125.13    2.00 
   0   1  -5  131.39    1.99 
   0   1  -5  127.41    1.98 
   0  -1   5  125.48    1.88 
  -1   1  -5  207.54    3.06 
  -1   1  -5  204.41    2.91 
   1  -1   5  205.09    2.75 
   1  -1   5  202.07    2.60 
  -2   1  -5    0.18    0.15 
  -2   1  -5    0.09    0.17 
   2  -1   5    0.03    0.17 
   2  -1   5   -0.03    0.12 
  -3   1  -5  190.60    3.16 
   3  -1   5  191.39    2.82 
   3  -1   5  191.08    2.83 
   3  -1   5  191.69    3.25 
  -4   1  -5   71.18    1.62 
  -4   1  -5   73.68    1.77 
   4  -1   5   73.20    1.56 
   4  -1   5   73.40    1.81 
   4  -1   5   74.98    1.61 
  -5   1  -5    3.10    0.41 
  -5   1  -5    4.01    0.45 
   5  -1   5    3.03    0.44 
   5  -1   5    2.79    0.38 
   5  -1   5    2.97    0.35 
  -6   1  -5   13.44    0.81 
  -6   1  -5   14.30    0.81 
   6  -1   5   14.69    0.80 
   6  -1   5   14.03    0.74 
   6   0  -5   58.72    2.06 
   5   0  -5    1.13    0.39 
   4   0  -5   60.36    1.23 
   4   0  -5   57.29    1.77 
   3   0  -5  186.31    3.46 
   3   0  -5  185.42    2.71 
   2   0  -5   15.14    0.74 
   2   0  -5   14.48    0.52 
   2   0  -5   15.10    0.57 
  -2   0   5   15.13    0.50 
  -2   0   5   15.48    0.48 
   1   0  -5  210.53    2.69 
   1   0  -5  215.55    3.43 
   1   0  -5  210.21    3.10 
  -1   0   5  209.50    2.73 
  -1   0   5  206.30    2.98 
   0   0  -5   76.54    1.51 
   0   0  -5   70.53    1.23 
   0   0   5   72.53    1.34 
   0   0   5   73.15    1.43 
  -1   0  -5   80.02    1.67 
  -1   0  -5   73.54    1.57 
   1   0   5   73.36    1.52 
   1   0   5   73.60    1.53 
   1   0   5   76.73    1.35 
   1   0   5   75.81    1.43 
  -2   0  -5   19.06    0.77 
  -2   0  -5   17.75    0.73 
   2   0   5   17.68    0.69 
   2   0   5   18.28    0.61 
   2   0   5   18.60    0.66 
  -3   0  -5   78.93    1.68 
  -3   0  -5   82.57    1.83 
   3   0   5   79.65    1.70 
   3   0   5   78.82    1.59 
   3   0   5   80.18    1.58 
  -4   0  -5   33.56    1.14 
   4   0   5   32.03    1.10 
   4   0   5   32.66    0.98 
   4   0   5   33.35    1.04 
  -5   0  -5   25.50    1.08 
  -5   0  -5   26.06    0.99 
   5   0   5   26.24    0.93 
   5   0   5   25.34    1.00 
  -6   0  -5   32.12    1.19 
   6   0   5   33.49    1.28 
   6  -1  -5   14.60    1.04 
   5  -1  -5    4.13    0.57 
   4  -1  -5   34.01    0.88 
   4  -1  -5   33.81    1.33 
   3  -1  -5  166.80    3.13 
   3  -1  -5  163.30    2.60 
  -3   1   5  166.04    2.22 
  -3   1   5  163.45    2.34 
   2  -1  -5    4.99    0.43 
   2  -1  -5    5.12    0.40 
  -2   1   5    4.75    0.32 
  -2   1   5    4.41    0.30 
   1  -1  -5  110.09    2.11 
   1  -1  -5  112.65    2.10 
  -1   1   5  113.00    1.82 
  -1   1   5  110.49    1.97 
   0  -1  -5    0.37    0.28 
   0   1   5    0.66    0.24 
   0   1   5    0.75    0.22 
  -1  -1  -5   22.51    0.92 
   1   1   5   22.16    0.78 
   1   1   5   21.68    0.82 
   1   1   5   20.81    0.71 
  -2  -1  -5   76.48    1.76 
   2   1   5   77.91    1.57 
   2   1   5   76.05    1.67 
   2   1   5   75.21    1.65 
   2   1   5   76.09    1.56 
  -3  -1  -5   83.17    1.90 
  -3  -1  -5   84.00    1.94 
   3   1   5   80.62    1.72 
   3   1   5   82.45    1.77 
   3   1   5   80.78    1.65 
   3   1   5   85.19    1.69 
  -4  -1  -5   58.35    1.65 
   4   1   5   56.47    1.40 
   4   1   5   58.45    1.49 
  -5  -1  -5    0.11    0.26 
  -5  -1  -5    0.10    0.26 
   5   1   5    0.30    0.22 
   5   1   5    0.51    0.29 
  -6  -1  -5   52.52    1.54 
   6   1   5   51.58    1.64 
   6  -2  -5    6.97    0.71 
   5  -2  -5   30.81    1.33 
   4  -2  -5   43.36    1.46 
  -4   2   5   43.36    0.98 
  -4   2   5   43.13    1.04 
   3  -2  -5   86.49    1.83 
   3  -2  -5   90.13    2.05 
  -3   2   5   87.94    1.52 
  -3   2   5   85.27    1.60 
   2  -2  -5   10.42    0.63 
   2  -2  -5   10.48    0.61 
  -2   2   5   11.00    0.48 
  -2   2   5   11.01    0.52 
   1  -2  -5  203.82    3.45 
   1  -2  -5  204.49    3.24 
  -1   2   5  203.18    2.94 
  -1   2   5  207.57    3.12 
   0  -2  -5   17.10    0.80 
   0   2   5   17.16    0.69 
   0   2   5   17.18    0.74 
  -1  -2  -5   36.34    1.18 
   1   2   5   37.74    1.09 
   1   2   5   38.37    1.18 
   1   2   5   35.68    1.09 
   2   2   5   76.16    1.67 
   2   2   5   73.21    1.65 
   2   2   5   75.83    1.77 
  -3  -2  -5  119.13    2.65 
   3   2   5  113.31    2.15 
   3   2   5  112.77    2.26 
   3   2   5  113.30    2.28 
   3   2   5  113.47    2.31 
  -4  -2  -5   20.23    0.98 
   4   2   5   19.33    0.87 
   4   2   5   18.44    0.84 
   4   2   5   17.65    0.78 
   5   2   5   -0.17    0.28 
   6  -3  -5    9.81    0.83 
   5  -3  -5   95.38    2.49 
   4  -3  -5   40.80    1.43 
  -4   3   5   42.33    1.06 
  -4   3   5   42.04    1.12 
   3  -3  -5   27.78    1.05 
   3  -3  -5   26.63    1.04 
  -3   3   5   27.37    0.83 
  -3   3   5   26.88    0.87 
   2  -3  -5    0.72    0.25 
   2  -3  -5   -0.29    0.31 
  -2   3   5    0.37    0.20 
  -2   3   5    0.50    0.23 
   1  -3  -5   55.73    1.31 
   1  -3  -5   54.57    1.54 
  -1   3   5   56.65    1.39 
  -1   3   5   56.92    1.31 
   0  -3  -5   27.95    0.79 
   0   3   5   27.41    0.81 
   0   3   5   28.35    1.05 
   0   3   5   28.35    1.00 
   0   3   5   29.83    0.97 
   1   3   5   10.03    0.61 
   1   3   5    9.56    0.63 
   1   3   5   10.32    0.61 
   2   3   5  164.28    2.98 
   2   3   5  169.55    2.89 
   2   3   5  169.31    3.11 
   3   3   5   15.46    0.84 
   3   3   5   15.84    0.81 
   3   3   5   15.51    0.78 
  -4  -3  -5    5.70    0.60 
   4   3   5    4.95    0.50 
   4   3   5    4.91    0.51 
   4   3   5    5.86    0.52 
   4   3   5    5.34    0.54 
   5   3   5   12.45    0.81 
   6  -4  -5   -0.21    0.38 
   5  -4  -5   83.20    2.32 
  -5   4   5   83.01    1.76 
  -5   4   5   81.41    1.87 
   4  -4  -5    2.96    0.44 
  -4   4   5    4.31    0.41 
  -4   4   5    3.44    0.37 
   3  -4  -5   16.73    0.91 
   3  -4  -5   15.94    0.81 
  -3   4   5   15.41    0.73 
  -3   4   5   14.41    0.66 
   2  -4  -5   40.08    1.24 
   2  -4  -5   41.12    1.37 
  -2   4   5   40.97    1.14 
  -2   4   5   42.26    1.22 
   1  -4  -5  193.78    3.08 
  -1   4   5  188.55    3.24 
  -1   4   5  191.57    3.03 
   0   4   5    4.25    0.55 
   0   4   5    3.91    0.38 
   0   4   5    4.30    0.47 
   0   4   5    4.13    0.44 
   1   4   5   24.36    1.04 
   1   4   5   23.09    1.00 
   1   4   5   24.50    1.08 
   1   4   5   23.29    0.94 
   2   4   5   80.00    2.03 
   2   4   5   77.97    1.90 
   2   4   5   78.29    1.97 
   3   4   5    0.33    0.34 
   3   4   5    0.40    0.31 
   3   4   5   -0.19    0.27 
   4   4   5    1.71    0.36 
   5   4   5   18.39    1.03 
   5  -5  -5   83.15    2.38 
  -5   5   5   83.67    2.04 
  -5   5   5   85.82    1.92 
   4  -5  -5    0.54    0.35 
  -4   5   5    0.46    0.27 
  -4   5   5    0.78    0.30 
   3  -5  -5   15.42    0.89 
   3  -5  -5   16.26    0.84 
  -3   5   5   16.21    0.75 
  -3   5   5   15.45    0.80 
  -2   5   5   38.97    1.28 
  -2   5   5   38.05    1.20 
  -1   5   5   92.16    2.12 
  -1   5   5   90.18    1.98 
   0   5   5    5.29    0.53 
   0   5   5    5.64    0.52 
   0   5   5    4.04    0.56 
   1   5   5    0.60    0.30 
   1   5   5    1.22    0.40 
   1   5   5    0.74    0.35 
   1   5   5    0.68    0.32 
   2   5   5  120.36    2.71 
   2   5   5  120.12    2.72 
   2   5   5  124.90    2.62 
   3   5   5    2.62    0.42 
   3   5   5    3.69    0.53 
   3   5   5    3.48    0.50 
   4   5   5   -0.10    0.34 
   5  -6  -5   69.21    2.20 
  -5   6   5   67.58    1.93 
  -5   6   5   68.18    1.82 
   4  -6  -5    8.93    0.75 
  -4   6   5    8.31    0.66 
  -4   6   5    8.34    0.63 
   3  -6  -5    1.66    0.49 
  -3   6   5    1.71    0.36 
  -3   6   5    2.80    0.43 
  -2   6   5   78.33    2.03 
  -2   6   5   77.47    1.91 
  -1   6   5    8.78    0.81 
  -1   6   5   11.14    0.71 
  -1   6   5    9.12    0.68 
   0   6   5    0.13    0.32 
   0   6   5    0.92    0.44 
   0   6   5    0.04    0.29 
   1   6   5    3.94    0.50 
   1   6   5    2.85    0.52 
   1   6   5    3.80    0.52 
   2   6   5   50.66    1.84 
   2   6   5   51.47    1.67 
   2   6   5   50.65    1.76 
   2   6   5   50.27    1.73 
   3   6   5    0.07    0.32 
  -4   7   5    0.90    0.36 
  -4   7   5    1.29    0.43 
  -3   7   5    7.39    0.71 
  -3   7   5    7.98    0.65 
  -2   7   5   50.47    1.66 
  -2   7   5   52.00    1.77 
  -1   7   5    0.66    0.43 
  -1   7   5    1.31    0.38 
  -1   7   5    1.82    0.44 
   0   7   5    1.11    0.41 
   0   7   5    0.58    0.41 
   0   7   5   -0.09    0.34 
   1   7   5    0.48    0.44 
   1   7   5    0.69    0.39 
   1   7   5    0.26    0.45 
   2   7  -6    0.84    0.45 
   1   7  -6   73.73    2.38 
   0   7  -6    0.08    0.38 
  -1   7  -6    4.37    0.66 
  -1   7  -6    5.35    0.48 
   1  -7   6    5.00    0.48 
  -2   7  -6   43.84    1.43 
  -2   7  -6   43.65    1.82 
   2  -7   6   44.03    1.67 
   2  -7   6   44.21    1.40 
  -3   7  -6   17.88    1.22 
  -3   7  -6   16.12    0.91 
   3  -7   6   16.32    1.07 
   3  -7   6   16.76    0.91 
   3   6  -6   -0.01    0.38 
   2   6  -6   14.06    1.00 
   1   6  -6   95.91    2.57 
   0   6  -6    0.14    0.37 
  -1   6  -6    8.56    0.56 
  -1   6  -6    8.89    0.81 
   1  -6   6    7.52    0.52 
  -2   6  -6   87.41    2.48 
  -2   6  -6   88.35    2.01 
   2  -6   6   89.88    1.97 
  -3   6  -6   -0.08    0.42 
  -3   6  -6    0.70    0.29 
   3  -6   6   -0.34    0.39 
   3  -6   6    0.18    0.24 
  -4   6  -6    0.72    0.33 
  -4   6  -6    0.46    0.49 
   4  -6   6    0.84    0.33 
   4  -6   6    0.35    0.35 
   4   5  -6    0.07    0.43 
   3   5  -6    1.06    0.40 
   2   5  -6   12.02    0.85 
   1   5  -6   88.78    2.27 
   0   5  -6    6.31    0.41 
   0   5  -6    6.59    0.63 
   0  -5   6    6.65    0.41 
  -1   5  -6   62.51    1.47 
  -1   5  -6   61.82    1.86 
   1  -5   6   61.01    1.39 
  -2   5  -6  218.76    4.20 
  -2   5  -6  219.18    3.52 
   2  -5   6  222.11    3.39 
  -3   5  -6    2.36    0.38 
  -3   5  -6    1.37    0.41 
   3  -5   6    1.65    0.44 
   3  -5   6    2.58    0.38 
  -4   5  -6   11.90    0.98 
  -4   5  -6   12.19    0.76 
   4  -5   6   12.08    0.86 
   4  -5   6   10.93    0.68 
  -5   5  -6    3.10    0.59 
  -5   5  -6    3.52    0.49 
   5  -5   6    3.73    0.64 
   5  -5   6    2.91    0.42 
   5   4  -6   82.00    2.62 
   4   4  -6    1.92    0.50 
   3   4  -6   21.88    1.12 
   2   4  -6   52.71    1.63 
   2   4  -6   51.38    1.36 
   1   4  -6   59.23    1.41 
   1   4  -6   59.09    1.65 
   0   4  -6    6.96    0.56 
   0   4  -6    6.82    0.40 
   0   4  -6    6.60    0.44 
   0  -4   6    6.93    0.39 
  -1   4  -6    5.81    0.41 
  -1   4  -6    6.54    0.42 
  -1   4  -6    5.33    0.56 
   1  -4   6    5.45    0.38 
  -2   4  -6  135.14    2.46 
  -2   4  -6  136.13    2.96 
  -2   4  -6  133.10    2.19 
   2  -4   6  130.99    2.32 
  -3   4  -6    2.74    0.54 
  -3   4  -6    2.15    0.36 
   3  -4   6    2.57    0.33 
  -4   4  -6   23.27    1.01 
  -4   4  -6   23.88    1.32 
   4  -4   6   24.01    0.95 
   4  -4   6   23.36    1.14 
  -5   4  -6    9.67    0.69 
   5  -4   6    9.56    0.66 
   5  -4   6    9.64    0.79 
   5   3  -6   63.22    1.61 
   4   3  -6    4.09    0.56 
   4   3  -6    4.89    0.45 
   4   3  -6    5.08    0.41 
   3   3  -6   46.01    1.50 
   3   3  -6   44.52    1.22 
   3   3  -6   44.95    1.10 
   2   3  -6  111.79    2.08 
   2   3  -6  110.39    2.35 
   1   3  -6    2.28    0.21 
   1   3  -6    2.71    0.34 
   1   3  -6    2.24    0.29 
  -1  -3   6    2.22    0.20 
   0   3  -6   16.89    0.76 
   0   3  -6   16.77    0.58 
   0   3  -6   16.72    0.50 
   0   3  -6   16.76    0.64 
   0  -3   6   17.01    0.56 
  -1   3  -6    1.34    0.24 
  -1   3  -6    1.88    0.37 
  -1   3  -6    1.28    0.21 
  -1   3  -6    1.28    0.22 
   1  -3   6    1.43    0.24 
  -2   3  -6  285.24    4.62 
  -2   3  -6  286.69    4.16 
  -2   3  -6  278.21    3.75 
  -2   3  -6  282.20    3.83 
   2  -3   6  277.19    3.93 
  -3   3  -6    0.48    0.37 
  -3   3  -6    0.38    0.25 
  -3   3  -6    0.04    0.23 
   3  -3   6    0.24    0.23 
  -4   3  -6   82.90    1.84 
  -4   3  -6   84.47    1.98 
   4  -3   6   84.05    2.21 
   4  -3   6   80.25    1.81 
  -5   3  -6   27.20    1.16 
   5  -3   6   29.20    1.31 
   5  -3   6   28.78    1.08 
  -6   3  -6    0.71    0.32 
   6  -3   6    0.33    0.28 
   6  -3   6   -0.31    0.38 
   6   2  -6    6.56    0.84 
   6   2  -6    8.24    0.61 
   5   2  -6   93.90    2.01 
   5   2  -6   92.21    2.81 
   4   2  -6    0.50    0.33 
   4   2  -6    0.30    0.21 
   4   2  -6    0.71    0.39 
   4   2  -6    0.27    0.21 
   3   2  -6  148.31    2.85 
   3   2  -6  151.52    3.29 
   3   2  -6  151.10    2.51 
   2   2  -6   65.74    1.39 
   2   2  -6   64.40    1.52 
   1   2  -6    1.95    0.26 
   1   2  -6    1.54    0.24 
   1   2  -6    1.80    0.19 
  -1  -2   6    1.62    0.16 
   0   2  -6   24.35    0.80 
   0   2  -6   23.46    0.73 
   0   2  -6   23.22    0.74 
   0  -2   6   24.25    0.66 
  -1   2  -6    6.10    0.47 
  -1   2  -6    5.45    0.36 
  -1   2  -6    5.73    0.42 
   1  -2   6    5.82    0.38 
  -2   2  -6  144.93    2.22 
  -2   2  -6  146.44    2.56 
   2  -2   6  147.75    2.35 
  -3   2  -6    1.68    0.29 
  -3   2  -6    1.44    0.28 
   3  -2   6    1.90    0.30 
  -4   2  -6   70.83    1.82 
  -4   2  -6   71.25    1.69 
   4  -2   6   72.13    1.94 
   4  -2   6   68.37    1.60 
  -5   2  -6   52.45    1.62 
  -5   2  -6   53.78    1.53 
   5  -2   6   54.00    1.76 
   5  -2   6   54.48    1.48 
  -6   2  -6    3.04    0.46 
   6  -2   6    2.84    0.37 
   6  -2   6    3.07    0.54 
   6   1  -6   12.18    1.01 
   5   1  -6   31.50    1.48 
   4   1  -6    0.48    0.17 
   4   1  -6    0.67    0.38 
   3   1  -6   11.98    0.55 
   3   1  -6   13.46    0.68 
   3   1  -6   11.29    0.81 
   2   1  -6  186.05    2.75 
   2   1  -6  182.04    2.44 
   2   1  -6  179.67    3.42 
   2   1  -6  185.40    2.77 
  -2  -1   6  183.72    2.30 
  -2  -1   6  183.03    2.46 
   1   1  -6   15.27    0.52 
   1   1  -6   14.28    0.52 
   1   1  -6   14.09    0.59 
  -1  -1   6   15.11    0.52 
  -1  -1   6   15.25    0.49 
   0   1  -6  294.79    4.04 
   0   1  -6  288.26    3.95 
   0   1  -6  286.72    3.95 
   0  -1   6  295.71    3.75 
  -1   1  -6    5.20    0.41 
  -1   1  -6    5.23    0.38 
   1  -1   6    5.16    0.29 
   1  -1   6    5.05    0.37 
  -2   1  -6   21.96    0.86 
  -2   1  -6   22.37    0.73 
   2  -1   6   23.68    0.65 
   2  -1   6   22.52    0.78 
  -3   1  -6    2.50    0.35 
   3  -1   6    2.41    0.28 
   3  -1   6    2.83    0.33 
  -4   1  -6   14.34    0.71 
  -4   1  -6   14.62    0.80 
   4  -1   6   16.09    0.84 
   4  -1   6   14.34    0.69 
   4  -1   6   15.70    0.69 
  -5   1  -6   44.82    1.37 
  -5   1  -6   44.32    1.47 
   5  -1   6   43.59    1.32 
   5  -1   6   44.34    1.28 
   5  -1   6   44.92    1.52 
  -6   1  -6    3.13    0.46 
  -6   1  -6    2.79    0.48 
   6  -1   6    3.20    0.44 
   6  -1   6    3.70    0.45 
   6   0  -6   33.73    1.60 
   5   0  -6   -0.04    0.33 
   4   0  -6    2.33    0.28 
   4   0  -6    1.94    0.43 
   3   0  -6   15.39    0.63 
   3   0  -6   15.72    0.88 
   2   0  -6  175.21    2.75 
   2   0  -6  167.12    2.50 
   2   0  -6  180.47    3.31 
  -2   0   6  175.68    2.62 
  -2   0   6  180.28    2.46 
   1   0  -6    6.19    0.43 
   1   0  -6    6.18    0.25 
  -1   0   6    6.09    0.41 
  -1   0   6    5.44    0.36 
   0   0  -6  312.23    4.51 
   0   0  -6  312.94    4.10 
   0   0   6  327.55    4.14 
   0   0   6  325.41    4.45 
  -1   0  -6   10.23    0.60 
  -1   0  -6   10.33    0.62 
   1   0   6   10.48    0.52 
   1   0   6   10.37    0.56 
   1   0   6   10.63    0.56 
   1   0   6   10.40    0.48 
  -2   0  -6    3.41    0.40 
  -2   0  -6    3.86    0.41 
   2   0   6    3.26    0.30 
   2   0   6    3.29    0.37 
   2   0   6    3.93    0.36 
  -3   0  -6   18.06    0.80 
  -3   0  -6   18.55    0.88 
   3   0   6   18.95    0.77 
   3   0   6   18.65    0.72 
  -4   0  -6   42.59    1.41 
   4   0   6   44.11    1.35 
   4   0   6   43.82    1.22 
   4   0   6   44.57    1.24 
  -5   0  -6   35.44    1.33 
  -5   0  -6   38.21    1.23 
   5   0   6   35.43    1.15 
   5   0   6   36.98    1.23 
  -6   0  -6    1.18    0.33 
  -6   0  -6    0.71    0.31 
   6   0   6    1.33    0.36 
   6   0   6    1.49    0.33 
   6  -1  -6   23.32    1.29 
   5  -1  -6    8.01    0.73 
   4  -1  -6   24.98    0.82 
   4  -1  -6   24.77    1.15 
   3  -1  -6   31.88    0.97 
   3  -1  -6   31.03    1.19 
  -3   1   6   32.23    0.87 
  -3   1   6   32.97    0.83 
   2  -1  -6   77.49    1.69 
   2  -1  -6   76.19    1.89 
  -2   1   6   76.47    1.56 
  -2   1   6   77.08    1.46 
   1  -1  -6   21.82    0.88 
   1  -1  -6   20.92    0.84 
  -1   1   6   20.66    0.81 
  -1   1   6   20.66    0.75 
   0  -1  -6  181.51    3.19 
   0   1   6  183.98    2.85 
   0   1   6  187.32    3.04 
  -1  -1  -6   20.71    0.91 
   1   1   6   19.22    0.83 
   1   1   6   18.88    0.72 
   1   1   6   19.55    0.76 
  -2  -1  -6   33.85    1.29 
  -2  -1  -6   34.80    1.20 
   2   1   6   35.27    1.02 
   2   1   6   35.34    1.06 
   2   1   6   34.10    1.13 
   2   1   6   33.82    1.12 
  -3  -1  -6   77.17    1.97 
  -3  -1  -6   76.68    1.90 
   3   1   6   75.65    1.78 
   3   1   6   75.84    1.71 
   3   1   6   75.65    1.67 
  -4  -1  -6   38.86    1.44 
   4   1   6   39.38    1.18 
   4   1   6   38.83    1.23 
  -5  -1  -6    2.01    0.41 
   5   1   6    2.75    0.39 
   5   1   6    1.95    0.34 
  -6  -1  -6    0.35    0.30 
   6   1   6    0.63    0.34 
   6  -2  -6   63.69    2.18 
   5  -2  -6   -0.07    0.31 
   4  -2  -6  101.46    2.51 
   3  -2  -6    0.17    0.25 
   3  -2  -6    1.34    0.35 
  -3   2   6    0.60    0.20 
  -3   2   6    0.25    0.20 
   2  -2  -6    0.97    0.28 
   2  -2  -6    0.95    0.32 
  -2   2   6    0.55    0.21 
  -2   2   6    0.92    0.25 
   1  -2  -6    5.28    0.42 
   1  -2  -6    4.80    0.51 
  -1   2   6    5.10    0.40 
  -1   2   6    4.91    0.42 
   0  -2  -6   61.64    1.68 
   0   2   6   61.53    1.47 
   0   2   6   60.88    1.59 
  -1  -2  -6   14.01    0.81 
   1   2   6   13.99    0.70 
   1   2   6   14.61    0.71 
   1   2   6   14.10    0.77 
  -2  -2  -6    1.74    0.44 
   2   2   6    1.83    0.35 
   2   2   6    1.33    0.33 
   2   2   6    2.05    0.33 
  -3  -2  -6  102.69    2.54 
  -3  -2  -6  101.95    2.31 
   3   2   6  100.07    2.24 
   3   2   6   99.26    2.24 
   3   2   6  103.69    2.12 
   3   2   6   98.77    2.12 
  -4  -2  -6    7.47    0.69 
   4   2   6    8.40    0.62 
   4   2   6    7.85    0.58 
   4   2   6    7.85    0.57 
  -5  -2  -6    5.32    0.61 
   5   2   6    6.17    0.58 
   5   2   6    6.46    0.53 
   6  -3  -6   20.23    1.23 
   5  -3  -6    1.46    0.38 
   4  -3  -6   96.51    2.45 
  -4   3   6  100.27    1.98 
  -4   3   6   98.66    1.84 
   3  -3  -6    0.99    0.35 
   3  -3  -6    1.99    0.37 
  -3   3   6    1.75    0.28 
  -3   3   6    1.68    0.28 
   2  -3  -6    3.24    0.40 
   2  -3  -6    2.82    0.42 
  -2   3   6    3.02    0.36 
  -2   3   6    3.54    0.35 
   1  -3  -6    0.73    0.22 
   1  -3  -6    1.28    0.38 
  -1   3   6    0.96    0.28 
  -1   3   6    1.33    0.27 
   0  -3  -6  181.89    3.31 
   0   3   6  175.87    3.21 
   0   3   6  182.82    2.99 
   0   3   6  179.51    3.24 
  -1  -3  -6    9.13    0.70 
   1   3   6    8.27    0.60 
   1   3   6    8.90    0.65 
   1   3   6    7.36    0.59 
   2   3   6    3.49    0.42 
   2   3   6    3.57    0.45 
   2   3   6    3.75    0.47 
   3   3   6   85.81    2.14 
   3   3   6   86.07    2.05 
   3   3   6   87.79    2.00 
  -4  -3  -6    1.51    0.44 
   4   3   6    1.42    0.40 
   4   3   6    0.57    0.30 
   4   3   6    1.23    0.33 
   4   3   6    1.01    0.33 
   5   3   6    0.46    0.33 
   6  -4  -6   18.79    1.17 
   5  -4  -6    3.42    0.53 
   4  -4  -6   87.16    2.30 
  -4   4   6   84.99    1.82 
  -4   4   6   87.42    1.95 
   3  -4  -6    1.40    0.34 
   3  -4  -6    0.82    0.34 
  -3   4   6    1.13    0.29 
  -3   4   6    0.85    0.24 
   2  -4  -6    0.14    0.28 
   2  -4  -6    0.01    0.33 
  -2   4   6    0.43    0.25 
  -2   4   6    0.13    0.24 
   1  -4  -6   27.83    1.21 
  -1   4   6   26.37    1.01 
  -1   4   6   29.56    1.09 
   0   4   6   58.13    1.68 
   0   4   6   60.02    1.59 
   0   4   6   59.31    1.74 
   1   4   6   -0.02    0.28 
   1   4   6    0.27    0.25 
   1   4   6    0.01    0.31 
   2   4   6    0.48    0.31 
   2   4   6    0.79    0.38 
   2   4   6   -0.13    0.30 
   3   4   6   83.03    2.07 
   3   4   6   81.87    2.12 
   3   4   6   83.44    2.22 
  -4  -4  -6    0.47    0.39 
   4   4   6    0.45    0.30 
   4   4   6    0.06    0.30 
   4   4   6    0.22    0.32 
   4   4   6    0.23    0.31 
   5  -5  -6    0.55    0.38 
  -5   5   6    0.69    0.31 
  -5   5   6   -0.09    0.28 
   4  -5  -6   62.78    1.93 
  -4   5   6   60.71    1.61 
  -4   5   6   63.69    1.73 
   3  -5  -6   22.52    1.15 
   3  -5  -6   23.32    1.06 
  -3   5   6   24.40    0.97 
  -3   5   6   25.24    1.03 
   2  -5  -6    8.80    0.77 
  -2   5   6    7.07    0.56 
  -2   5   6    6.93    0.59 
  -1   5   6   82.72    2.10 
  -1   5   6   85.84    1.99 
   0   5   6   34.84    1.39 
   0   5   6   34.40    1.25 
   0   5   6   34.44    1.32 
   1   5   6   12.66    0.87 
   1   5   6   12.28    0.78 
   1   5   6   12.12    0.85 
   2   5   6    0.46    0.36 
   2   5   6   -0.18    0.30 
   2   5   6    0.52    0.31 
   3   5   6   34.40    1.45 
   3   5   6   36.39    1.44 
   3   5   6   35.54    1.37 
   4  -6  -6   48.59    1.71 
  -4   6   6   50.45    1.55 
  -4   6   6   50.35    1.64 
   3  -6  -6    0.13    0.35 
  -3   6   6    0.34    0.28 
  -3   6   6    0.46    0.30 
   2  -6  -6    4.19    0.62 
  -2   6   6    3.67    0.51 
  -2   6   6    3.59    0.43 
  -1   6   6   44.31    1.58 
  -1   6   6   45.21    1.73 
  -1   6   6   46.87    1.52 
   0   6   6   13.60    0.95 
   0   6   6   14.38    0.93 
   0   6   6   14.79    0.86 
   1   6   6    4.51    0.60 
   1   6   6    2.90    0.57 
   1   6   6    3.72    0.51 
   2   6   6    1.57    0.37 
   2   6   6    1.85    0.47 
   2   6   6    1.46    0.46 
   3  -7  -6    0.44    0.42 
  -3   7   6    0.19    0.34 
  -3   7   6   -0.23    0.30 
  -2   7   6    5.76    0.65 
  -2   7   6    5.31    0.61 
  -1   7   6   34.41    1.40 
  -1   7   6   34.15    1.58 
  -1   7   6   31.34    1.43 
   0   7   6    0.58    0.36 
   0   7   6    0.54    0.39 
   0   7   6    0.89    0.36 
   1   7   6    7.78    0.83 
   1   7   6    6.86    0.74 
   1   7   6    7.57    0.74 
   2   7  -7    3.18    0.66 
   1   7  -7    5.83    0.75 
   0   7  -7   71.66    2.38 
  -1   7  -7    3.19    0.60 
  -1   7  -7    2.22    0.36 
  -2   7  -7    3.78    0.45 
  -2   7  -7    4.50    0.68 
   2  -7   7    4.49    0.49 
  -3   7  -7   85.26    2.71 
  -3   7  -7   85.74    2.24 
   3  -7   7   82.06    2.54 
   3  -7   7   82.25    2.11 
   3   6  -7    5.16    0.74 
   2   6  -7    9.48    0.89 
   1   6  -7   13.97    0.98 
   0   6  -7  102.19    2.70 
  -1   6  -7   -0.30    0.37 
  -1   6  -7    0.19    0.21 
   1  -6   7    0.31    0.24 
  -2   6  -7   25.49    1.06 
  -2   6  -7   28.95    1.41 
   2  -6   7   27.32    1.04 
  -3   6  -7   91.00    2.71 
  -3   6  -7   89.03    2.21 
   3  -6   7   89.46    2.51 
   3  -6   7   91.75    2.11 
  -4   6  -7    0.64    0.33 
  -4   6  -7   -0.29    0.45 
   4  -6   7    0.18    0.43 
   4  -6   7   -1.00    0.36 
   4   5  -7   51.14    2.02 
   3   5  -7    0.37    0.36 
   2   5  -7   16.99    1.03 
   1   5  -7   79.33    2.15 
   1   5  -7   77.36    1.84 
   0   5  -7   74.25    1.72 
   0   5  -7   76.26    2.13 
   0   5  -7   74.17    1.58 
   0  -5   7   71.34    1.48 
  -1   5  -7   24.49    1.17 
  -1   5  -7   24.66    0.90 
  -1   5  -7   24.96    0.90 
   1  -5   7   23.04    0.86 
  -2   5  -7    1.82    0.49 
  -2   5  -7    1.50    0.28 
   2  -5   7    2.33    0.33 
  -3   5  -7  108.70    2.90 
  -3   5  -7  111.70    2.41 
   3  -5   7  108.59    2.31 
  -4   5  -7    3.48    0.66 
  -4   5  -7    2.43    0.45 
   4  -5   7    2.63    0.54 
   4  -5   7    2.35    0.39 
  -5   5  -7   31.03    1.68 
  -5   5  -7   30.68    1.31 
   5  -5   7   31.12    1.23 
   5  -5   7   31.81    1.52 
   5   4  -7    0.95    0.48 
   4   4  -7   63.25    2.11 
   3   4  -7    0.37    0.32 
   3   4  -7    0.35    0.28 
   2   4  -7   97.43    2.03 
   2   4  -7   96.77    2.37 
   1   4  -7  122.87    2.29 
   1   4  -7  115.19    2.53 
   0   4  -7    1.82    0.28 
   0   4  -7    1.83    0.25 
   0   4  -7    1.44    0.37 
   0  -4   7    1.61    0.25 
  -1   4  -7   10.70    0.76 
  -1   4  -7    9.74    0.54 
  -1   4  -7   11.58    0.59 
   1  -4   7   11.53    0.55 
  -2   4  -7    0.47    0.21 
  -2   4  -7    0.09    0.35 
  -2   4  -7    0.30    0.19 
   2  -4   7    0.30    0.22 
  -3   4  -7  186.22    3.27 
  -3   4  -7  183.11    3.80 
   3  -4   7  181.82    3.09 
  -4   4  -7    0.59    0.49 
  -4   4  -7    0.20    0.27 
   4  -4   7    0.44    0.24 
   4  -4   7    0.42    0.34 
  -5   4  -7   64.43    1.91 
  -5   4  -7   66.83    2.46 
   5  -4   7   65.12    1.79 
   5  -4   7   66.93    2.18 
   4   3  -7   86.69    2.39 
   4   3  -7   85.91    1.91 
   3   3  -7    0.06    0.29 
   3   3  -7    0.12    0.23 
   2   3  -7  110.14    2.38 
   2   3  -7  111.41    2.12 
   1   3  -7  152.94    2.26 
   1   3  -7  153.88    2.62 
   1   3  -7  155.18    2.79 
   0   3  -7   15.31    0.52 
   0   3  -7   15.95    0.78 
   0   3  -7   15.96    0.68 
   0   3  -7   15.92    0.62 
   0  -3   7   15.76    0.60 
  -1   3  -7  119.12    2.51 
  -1   3  -7  119.27    1.96 
  -1   3  -7  117.35    2.09 
  -1   3  -7  123.25    2.23 
   1  -3   7  125.13    2.10 
  -2   3  -7    7.08    0.48 
  -2   3  -7    6.34    0.40 
  -2   3  -7    6.42    0.62 
  -2   3  -7    6.40    0.52 
   2  -3   7    6.63    0.47 
  -3   3  -7   71.55    1.64 
  -3   3  -7   73.14    1.80 
  -3   3  -7   73.53    2.15 
   3  -3   7   71.30    1.68 
  -4   3  -7    0.46    0.27 
  -4   3  -7    0.18    0.25 
   4  -3   7    0.38    0.33 
   4  -3   7    0.19    0.25 
  -5   3  -7   47.46    1.60 
  -5   3  -7   48.96    1.48 
   5  -3   7   46.89    1.74 
   5  -3   7   47.39    1.45 
   6   2  -7   37.20    1.82 
   5   2  -7   21.71    1.30 
   4   2  -7    4.46    0.54 
   4   2  -7    4.48    0.40 
   4   2  -7    3.82    0.63 
   3   2  -7   17.04    0.83 
   3   2  -7   18.21    0.74 
   2   2  -7   23.67    0.88 
   2   2  -7   23.84    0.83 
   1   2  -7  234.49    3.51 
   1   2  -7  230.91    3.44 
   1   2  -7  236.09    3.24 
  -1  -2   7  229.19    2.97 
   0   2  -7    0.30    0.21 
   0   2  -7   -0.05    0.17 
   0   2  -7    0.09    0.18 
   0  -2   7    0.09    0.16 
  -1   2  -7  165.53    2.63 
  -1   2  -7  172.44    2.80 
  -1   2  -7  168.12    2.96 
   1  -2   7  164.71    2.60 
  -2   2  -7   40.08    1.03 
  -2   2  -7   38.63    1.36 
  -2   2  -7   41.09    1.21 
   2  -2   7   40.81    1.11 
  -3   2  -7   52.11    1.48 
  -3   2  -7   50.32    1.35 
   3  -2   7   51.72    1.33 
  -4   2  -7    2.99    0.43 
  -4   2  -7    2.60    0.40 
   4  -2   7    3.86    0.52 
   4  -2   7    3.63    0.43 
  -5   2  -7   36.78    1.40 
  -5   2  -7   39.37    1.33 
   5  -2   7   38.21    1.49 
   5  -2   7   37.08    1.26 
  -6   2  -7   41.16    1.55 
  -6   2  -7   42.03    1.46 
   6  -2   7   42.39    1.41 
   6  -2   7   44.00    1.72 
   6   1  -7   59.85    2.25 
   5   1  -7   52.50    2.01 
   4   1  -7    7.92    0.49 
   4   1  -7    7.15    0.78 
   3   1  -7   31.92    1.03 
   3   1  -7   30.82    0.96 
   3   1  -7   29.53    1.33 
   2   1  -7  103.50    1.95 
   2   1  -7  101.75    1.84 
   1   1  -7  148.72    2.50 
   1   1  -7  148.77    2.29 
   1   1  -7  154.47    2.38 
  -1  -1   7  146.88    2.21 
  -1  -1   7  148.91    2.37 
   0   1  -7    7.90    0.48 
   0   1  -7    8.10    0.44 
   0   1  -7    8.27    0.50 
   0  -1   7    8.47    0.46 
  -1   1  -7  299.21    4.45 
  -1   1  -7  297.83    4.31 
  -1   1  -7  305.47    4.48 
   1  -1   7  295.39    3.82 
   1  -1   7  300.30    4.04 
  -2   1  -7   81.91    1.88 
  -2   1  -7   77.85    1.66 
   2  -1   7   80.39    1.48 
   2  -1   7   79.71    1.66 
  -3   1  -7    2.58    0.41 
   3  -1   7    2.72    0.31 
   3  -1   7    3.57    0.38 
  -4   1  -7   12.27    0.79 
  -4   1  -7   13.03    0.74 
   4  -1   7   12.92    0.80 
   4  -1   7   13.18    0.70 
   4  -1   7   12.10    0.62 
  -5   1  -7   17.38    0.89 
  -5   1  -7   16.15    0.91 
   5  -1   7   16.40    0.81 
   5  -1   7   17.09    0.95 
   5  -1   7   16.87    0.82 
  -6   1  -7   20.52    1.09 
  -6   1  -7   22.00    1.06 
   6  -1   7   20.17    0.94 
   6   0  -7   29.39    1.53 
   5   0  -7   65.53    2.16 
   4   0  -7    3.74    0.36 
   4   0  -7    3.44    0.57 
   3   0  -7  109.01    2.64 
   3   0  -7  110.99    2.10 
   2   0  -7   11.56    0.76 
   2   0  -7   13.06    0.63 
  -2   0   7   12.55    0.52 
  -2   0   7   12.43    0.56 
   1   0  -7  101.34    2.03 
   1   0  -7   98.42    1.46 
  -1   0   7   99.08    1.76 
  -1   0   7   99.09    1.94 
   0   0  -7    2.67    0.37 
   0   0  -7    3.07    0.25 
   0   0   7    2.98    0.33 
   0   0   7    2.84    0.35 
  -1   0  -7  268.64    4.29 
  -1   0  -7  261.61    4.06 
   1   0   7  258.28    3.72 
   1   0   7  264.13    3.99 
   1   0   7  259.83    3.68 
   1   0   7  260.31    3.96 
  -2   0  -7   80.34    1.88 
  -2   0  -7   80.81    2.03 
   2   0   7   82.47    1.85 
   2   0   7   82.14    1.72 
   2   0   7   81.49    1.64 
  -3   0  -7    0.41    0.32 
  -3   0  -7    0.23    0.26 
   3   0   7   -0.17    0.23 
   3   0   7    0.59    0.25 
  -4   0  -7   53.09    1.72 
   4   0   7   56.48    1.48 
   4   0   7   56.15    1.46 
  -5   0  -7    3.13    0.51 
  -5   0  -7    3.75    0.45 
   5   0   7    4.23    0.47 
   5   0   7    3.64    0.44 
   6  -1  -7   54.09    2.07 
   5  -1  -7   87.79    2.52 
   4  -1  -7   19.79    0.79 
   4  -1  -7   18.45    1.06 
   3  -1  -7  143.37    3.03 
   3  -1  -7  143.30    2.59 
   2  -1  -7   17.19    0.80 
   2  -1  -7   20.10    0.92 
  -2   1   7   18.90    0.70 
  -2   1   7   18.47    0.76 
   1  -1  -7   11.17    0.71 
   1  -1  -7   11.27    0.71 
  -1   1   7   13.71    0.64 
  -1   1   7   13.29    0.67 
   0  -1  -7   30.37    1.15 
   0   1   7   30.62    0.98 
   0   1   7   31.28    1.06 
  -1  -1  -7  185.62    3.37 
   1   1   7  186.41    3.25 
   1   1   7  185.88    3.05 
   1   1   7  187.68    3.00 
  -2  -1  -7   61.82    1.85 
  -2  -1  -7   61.31    1.72 
   2   1   7   60.81    1.65 
   2   1   7   62.58    1.51 
   2   1   7   59.48    1.52 
   2   1   7   61.69    1.62 
  -3  -1  -7    0.62    0.35 
  -3  -1  -7   -0.19    0.42 
   3   1   7    0.58    0.28 
   3   1   7    0.45    0.29 
   3   1   7    0.57    0.25 
  -4  -1  -7   40.70    1.54 
   4   1   7   42.85    1.32 
   4   1   7   43.01    1.32 
  -5  -1  -7    2.89    0.51 
   5   1   7    3.67    0.48 
   5   1   7    3.65    0.45 
   6  -2  -7   37.42    1.70 
   5  -2  -7   35.36    1.54 
   4  -2  -7    6.66    0.53 
   4  -2  -7    7.86    0.70 
   3  -2  -7  166.67    3.08 
   3  -2  -7  173.20    3.41 
  -3   2   7  174.02    2.69 
  -3   2   7  169.79    2.85 
   2  -2  -7    1.84    0.35 
   2  -2  -7    1.97    0.40 
  -2   2   7    2.54    0.33 
  -2   2   7    1.91    0.34 
  -1   2   7    2.86    0.37 
  -1   2   7    2.27    0.37 
   0  -2  -7   11.99    0.79 
   0   2   7   11.53    0.66 
   0   2   7   11.20    0.69 
  -1  -2  -7   97.23    2.31 
   1   2   7   96.90    2.02 
   1   2   7   92.98    2.17 
   1   2   7   96.82    2.12 
  -2  -2  -7   44.05    1.54 
   2   2   7   44.96    1.44 
   2   2   7   44.68    1.35 
   2   2   7   42.59    1.33 
  -3  -2  -7    0.97    0.43 
  -3  -2  -7    0.37    0.37 
   3   2   7    0.70    0.31 
   3   2   7    0.54    0.27 
   3   2   7    0.31    0.29 
   3   2   7    0.28    0.28 
  -4  -2  -7   96.60    2.56 
   4   2   7   96.31    2.14 
   4   2   7   89.38    2.23 
   4   2   7   93.81    2.20 
  -5  -2  -7   -0.01    0.31 
   5   2   7   -0.13    0.26 
   5   2   7    0.31    0.29 
   6  -3  -7    4.54    0.68 
   5  -3  -7   32.38    1.46 
   4  -3  -7   -0.05    0.30 
  -4   3   7    0.07    0.22 
  -4   3   7    0.18    0.22 
   3  -3  -7  146.32    2.97 
   3  -3  -7  147.36    3.04 
  -3   3   7  142.41    2.63 
  -3   3   7  142.89    2.49 
   2  -3  -7   22.07    0.96 
   2  -3  -7   22.14    1.06 
  -2   3   7   22.91    0.87 
  -2   3   7   21.81    0.90 
   1  -3  -7   16.09    0.92 
   1  -3  -7   15.09    0.75 
  -1   3   7   15.00    0.76 
  -1   3   7   16.98    0.84 
   0  -3  -7   89.92    2.27 
   0   3   7   88.68    2.14 
   0   3   7   90.71    2.15 
   0   3   7   89.54    1.99 
  -1  -3  -7   40.83    1.47 
   1   3   7   40.31    1.33 
   1   3   7   37.61    1.39 
   1   3   7   38.84    1.33 
  -2  -3  -7    7.39    0.70 
   2   3   7    7.67    0.66 
   2   3   7    7.66    0.64 
   2   3   7    7.89    0.63 
  -3  -3  -7    2.84    0.55 
   3   3   7    2.03    0.39 
   3   3   7    1.91    0.37 
   3   3   7    1.84    0.42 
  -4  -3  -7   41.55    1.74 
   4   3   7   46.15    1.49 
   4   3   7   44.08    1.55 
   4   3   7   44.20    1.54 
   4   3   7   44.28    1.56 
   5  -4  -7    1.13    0.40 
   4  -4  -7    0.27    0.34 
  -4   4   7    0.98    0.29 
  -4   4   7    1.01    0.33 
   3  -4  -7  102.56    2.54 
   3  -4  -7  103.27    2.45 
  -3   4   7  104.54    2.10 
  -3   4   7  102.19    2.26 
   2  -4  -7   18.17    0.88 
   2  -4  -7   18.00    1.03 
  -2   4   7   17.88    0.84 
  -2   4   7   18.54    0.90 
   1  -4  -7   14.07    0.93 
  -1   4   7   12.37    0.72 
  -1   4   7   11.76    0.77 
   0  -4  -7   67.71    2.02 
   0   4   7   65.87    1.76 
   0   4   7   65.70    1.93 
   0   4   7   65.45    1.88 
  -1  -4  -7   32.53    1.38 
   1   4   7   30.11    1.20 
   1   4   7   29.40    1.25 
   1   4   7   30.59    1.27 
   2   4   7    1.19    0.41 
   2   4   7    1.58    0.34 
   2   4   7    0.73    0.35 
  -3  -4  -7    0.51    0.44 
   3   4   7    0.31    0.31 
   3   4   7    0.33    0.34 
   3   4   7    0.17    0.33 
  -4  -4  -7   26.90    1.44 
   4   4   7   29.56    1.26 
   4   4   7   29.60    1.31 
   4   4   7   28.43    1.32 
   4   4   7   28.66    1.30 
   5  -5  -7    0.62    0.38 
   4  -5  -7   13.69    0.92 
  -4   5   7   16.45    0.87 
  -4   5   7   14.59    0.78 
   3  -5  -7   54.35    1.82 
   3  -5  -7   56.65    1.76 
  -3   5   7   55.76    1.57 
  -3   5   7   56.20    1.68 
   2  -5  -7    0.75    0.42 
  -2   5   7    0.20    0.31 
  -2   5   7    0.27    0.27 
   1  -5  -7   16.58    1.03 
  -1   5   7   15.10    0.83 
  -1   5   7   15.01    0.91 
   0  -5  -7   74.93    2.22 
   0   5   7   74.48    1.96 
   0   5   7   76.11    2.14 
   0   5   7   75.39    2.21 
   1   5   7    3.12    0.52 
   1   5   7    3.13    0.47 
   1   5   7    2.70    0.50 
   2   5   7    2.30    0.43 
   2   5   7    3.23    0.54 
   2   5   7    2.58    0.48 
   3   5   7    6.54    0.67 
   3   5   7    6.18    0.68 
   3   5   7    5.05    0.61 
  -4   6   7   17.56    0.97 
  -4   6   7   16.18    0.89 
   3  -6  -7   21.55    1.23 
  -3   6   7   22.66    1.12 
  -3   6   7   21.60    1.03 
   2  -6  -7    1.28    0.50 
  -2   6   7    1.69    0.42 
   1  -6  -7   14.92    1.06 
  -1   6   7   13.17    0.99 
  -1   6   7   13.90    0.89 
  -1   6   7   13.12    0.90 
   0   6   7   46.01    1.60 
   0   6   7   48.54    1.81 
   0   6   7   46.58    1.74 
   1   6   7    1.30    0.52 
   1   6   7    0.13    0.32 
   1   6   7    0.28    0.34 
   2   6   7    9.22    0.87 
   2   6   7    7.84    0.74 
   2   6   7    9.20    0.85 
   2  -7  -7    4.20    0.72 
  -2   7   7    3.61    0.56 
  -2   7   7    4.31    0.56 
   1  -7  -7    1.64    0.54 
  -1   7   7    1.14    0.51 
  -1   7   7    2.00    0.48 
  -1   7   7    1.43    0.43 
   0   7   7   35.23    1.47 
   0   7   7   31.89    1.56 
   0   7   7   31.76    1.52 
   1   7  -8    7.65    0.87 
   0   7  -8   13.77    1.09 
  -1   7  -8   41.62    1.86 
  -2   7  -8    1.06    0.50 
  -2   7  -8   -0.26    0.28 
   2  -7   8    0.30    0.29 
   3   6  -8   48.24    1.98 
   2   6  -8    3.25    0.62 
   1   6  -8   17.90    1.13 
   0   6  -8   20.91    1.20 
  -1   6  -8   20.46    1.23 
  -1   6  -8   20.96    0.90 
   1  -6   8   23.15    0.90 
  -2   6  -8   -0.17    0.41 
  -2   6  -8    0.09    0.24 
   2  -6   8    0.14    0.25 
  -3   6  -8    6.96    0.83 
  -3   6  -8    5.84    0.55 
   3  -6   8    6.31    0.58 
   4   5  -8    0.57    0.41 
   3   5  -8   81.02    2.44 
   2   5  -8   11.73    0.72 
   2   5  -8   12.43    0.91 
   1   5  -8   89.91    2.05 
   1   5  -8   86.60    2.35 
   0   5  -8   41.04    1.56 
   0   5  -8   42.91    1.29 
  -1   5  -8    8.79    0.78 
  -1   5  -8    8.50    0.56 
  -1   5  -8    8.89    0.57 
   1  -5   8    7.95    0.54 
  -2   5  -8   11.59    0.70 
  -2   5  -8   12.19    0.90 
   2  -5   8   11.85    0.67 
  -3   5  -8    2.77    0.57 
  -3   5  -8    3.78    0.47 
   3  -5   8    4.27    0.50 
  -4   5  -8   36.03    1.72 
  -4   5  -8   33.22    1.36 
   4  -5   8   35.05    1.30 
   4  -5   8   32.39    1.50 
   4   4  -8    0.01    0.28 
   4   4  -8   -0.20    0.42 
   3   4  -8   47.47    1.44 
   3   4  -8   49.09    1.71 
   2   4  -8    1.55    0.31 
   2   4  -8    1.05    0.35 
   1   4  -8   35.45    1.31 
   1   4  -8   35.38    1.15 
   0   4  -8  169.34    3.30 
   0   4  -8  171.12    2.93 
   0   4  -8  170.71    2.75 
   0  -4   8  168.11    2.61 
  -1   4  -8   20.71    1.04 
  -1   4  -8   21.00    0.84 
  -1   4  -8   19.84    0.72 
  -1   4  -8   19.86    0.81 
   1  -4   8   20.40    0.79 
  -2   4  -8  131.82    3.01 
  -2   4  -8  131.16    2.56 
  -2   4  -8  132.25    2.31 
  -2   4  -8  127.37    2.31 
   2  -4   8  132.21    2.43 
  -3   4  -8    0.42    0.25 
  -3   4  -8    0.55    0.26 
  -3   4  -8    0.25    0.41 
   3  -4   8   -0.05    0.25 
  -4   4  -8   22.47    1.34 
  -4   4  -8   20.44    1.03 
   4  -4   8   22.25    1.18 
   4  -4   8   21.13    0.98 
  -5   4  -8    1.84    0.69 
  -5   4  -8    0.59    0.27 
   5  -4   8    0.58    0.28 
   5  -4   8    0.58    0.42 
   5   3  -8   51.03    1.51 
   4   3  -8    6.24    0.51 
   4   3  -8    6.54    0.66 
   3   3  -8    4.43    0.52 
   3   3  -8    4.83    0.45 
   2   3  -8   21.55    0.97 
   2   3  -8   21.99    0.88 
   1   3  -8   46.91    1.28 
   1   3  -8   46.75    1.36 
   0   3  -8  132.51    2.38 
   0   3  -8  133.15    2.07 
   0   3  -8  133.16    2.56 
   0   3  -8  135.55    2.34 
   0  -3   8  134.82    2.20 
  -1   3  -8    1.04    0.27 
  -1   3  -8    0.98    0.26 
  -1   3  -8    0.34    0.29 
  -1   3  -8    0.85    0.25 
   1  -3   8    0.74    0.22 
  -2   3  -8   65.50    1.69 
  -2   3  -8   67.10    1.48 
  -2   3  -8   62.30    1.88 
  -2   3  -8   67.70    1.52 
   2  -3   8   67.87    1.58 
  -3   3  -8    5.70    0.52 
  -3   3  -8    5.23    0.49 
  -3   3  -8    5.01    0.65 
   3  -3   8    5.74    0.49 
  -4   3  -8   30.19    1.24 
  -4   3  -8   31.74    1.17 
   4  -3   8   31.50    1.16 
   4  -3   8   30.23    1.34 
  -5   3  -8    6.67    0.64 
  -5   3  -8    6.68    0.60 
   5  -3   8    6.27    0.57 
   5  -3   8    6.98    0.75 
   5   2  -8   66.76    2.42 
   4   2  -8    9.91    0.61 
   4   2  -8    8.47    0.92 
   3   2  -8   13.87    0.69 
   2   2  -8   65.04    1.56 
   2   2  -8   66.80    1.57 
   1   2  -8   53.99    1.39 
   1   2  -8   55.95    1.20 
   1   2  -8   52.95    1.31 
  -1  -2   8   53.22    1.12 
   0   2  -8   94.60    1.96 
   0   2  -8  100.05    1.99 
   0   2  -8  104.02    1.95 
   0  -2   8   99.29    1.80 
  -1   2  -8    2.98    0.36 
  -1   2  -8    3.86    0.38 
  -1   2  -8    3.94    0.48 
   1  -2   8    3.46    0.36 
  -2   2  -8  198.56    3.39 
  -2   2  -8  196.91    3.61 
  -2   2  -8  195.79    3.11 
   2  -2   8  194.84    3.12 
  -3   2  -8   36.54    1.29 
  -3   2  -8   38.37    1.22 
   3  -2   8   37.17    1.17 
  -4   2  -8   -0.18    0.29 
  -4   2  -8    0.41    0.27 
   4  -2   8    0.48    0.39 
   4  -2   8    0.62    0.27 
  -5   2  -8   29.02    1.18 
  -5   2  -8   30.67    1.32 
   5  -2   8   30.25    1.17 
   5  -2   8   29.37    1.35 
   6   1  -8    1.04    0.49 
   5   1  -8   51.13    2.10 
   4   1  -8   49.21    1.33 
   4   1  -8   47.16    1.89 
   3   1  -8    0.75    0.45 
   3   1  -8    0.34    0.25 
   2   1  -8  196.40    3.21 
   1   1  -8   19.09    0.74 
   1   1  -8   19.34    0.64 
   1   1  -8   18.96    0.81 
  -1  -1   8   19.30    0.68 
  -1  -1   8   19.70    0.73 
   0   1  -8   78.64    1.77 
   0   1  -8   80.11    1.56 
   0   1  -8   82.62    1.81 
   0  -1   8   77.02    1.61 
  -1   1  -8    0.41    0.29 
  -1   1  -8    0.45    0.27 
  -1   1  -8    0.48    0.28 
   1  -1   8    0.19    0.17 
   1  -1   8    0.26    0.23 
  -2   1  -8  160.86    3.06 
  -2   1  -8  162.56    2.81 
   2  -1   8  159.42    2.74 
   2  -1   8  157.27    2.46 
  -3   1  -8   74.10    1.94 
   3  -1   8   73.22    1.71 
  -4   1  -8    0.58    0.31 
   4  -1   8    0.71    0.36 
   4  -1   8    0.46    0.27 
  -5   1  -8   59.98    1.72 
  -5   1  -8   57.53    1.87 
   5  -1   8   57.87    1.62 
   6   0  -8    3.02    0.61 
   5   0  -8   63.72    2.17 
   4   0  -8   48.42    1.33 
   4   0  -8   45.85    1.80 
   3   0  -8    0.27    0.22 
   3   0  -8    0.72    0.38 
   2   0  -8  224.56    3.62 
   2   0  -8  234.42    4.18 
  -2   0   8  228.34    3.28 
  -2   0   8  223.64    3.44 
   1   0  -8   11.40    0.66 
  -1   0   8   11.17    0.61 
  -1   0   8   11.20    0.56 
   0   0  -8   14.50    0.75 
   0   0  -8   14.69    0.83 
   0   0   8   15.39    0.69 
   0   0   8   14.31    0.71 
   0   0   8   15.17    0.75 
  -1   0  -8   10.52    0.70 
  -1   0  -8   10.86    0.75 
   1   0   8   12.70    0.70 
   1   0   8   10.99    0.66 
   1   0   8   10.80    0.58 
   1   0   8   11.14    0.63 
  -2   0  -8  132.24    2.84 
  -2   0  -8  130.03    2.66 
   2   0   8  128.04    2.55 
   2   0   8  132.69    2.32 
   2   0   8  127.06    2.42 
  -3   0  -8   44.29    1.56 
   3   0   8   45.34    1.24 
   3   0   8   45.79    1.35 
  -4   0  -8    1.14    0.41 
   4   0   8    1.18    0.32 
   4   0   8    1.14    0.32 
  -5   0  -8   43.24    1.46 
  -5   0  -8   41.20    1.60 
   5   0   8   40.89    1.37 
   5   0   8   41.26    1.37 
   6  -1  -8   19.90    1.29 
   5  -1  -8   21.74    1.25 
   4  -1  -8   43.98    1.29 
   4  -1  -8   41.58    1.67 
   3  -1  -8    1.41    0.35 
   3  -1  -8    0.88    0.40 
   2  -1  -8  357.32    5.68 
   2  -1  -8  345.13    5.21 
  -2   1   8  356.93    4.80 
  -2   1   8  351.59    5.03 
   1  -1  -8    2.37    0.41 
  -1   1   8    2.47    0.36 
  -1   1   8    2.72    0.35 
   0  -1  -8    0.39    0.32 
   0   1   8    0.18    0.26 
   0   1   8    0.40    0.26 
  -1  -1  -8   89.25    2.19 
   1   1   8   90.69    1.95 
   1   1   8   88.16    1.95 
   1   1   8   89.55    2.12 
  -2  -1  -8   76.64    2.03 
  -2  -1  -8   72.97    2.21 
   2   1   8   75.83    1.94 
   2   1   8   75.70    1.83 
   2   1   8   74.88    1.76 
   2   1   8   76.81    1.95 
  -3  -1  -8   21.23    1.06 
  -3  -1  -8   19.05    1.09 
   3   1   8   20.96    0.89 
   3   1   8   20.62    0.92 
   3   1   8   18.93    0.96 
  -4  -1  -8    2.54    0.49 
   4   1   8    2.52    0.39 
   4   1   8    2.20    0.34 
  -5  -1  -8   76.75    2.35 
   5   1   8   75.39    1.99 
   5   1   8   76.30    1.96 
   6  -2  -8   39.90    1.81 
   5  -2  -8   26.32    1.35 
   4  -2  -8    7.80    0.58 
   4  -2  -8    7.11    0.71 
   3  -2  -8   20.17    1.06 
   3  -2  -8   19.23    0.95 
  -3   2   8   21.12    0.82 
  -3   2   8   19.88    0.86 
   2  -2  -8  180.74    3.50 
   2  -2  -8  183.71    3.44 
  -2   2   8  186.38    3.26 
  -2   2   8  187.03    3.03 
   1  -2  -8   72.50    1.91 
   1  -2  -8   76.12    2.02 
  -1   2   8   75.29    1.88 
  -1   2   8   74.64    1.75 
   0  -2  -8   -0.08    0.38 
   0   2   8    0.44    0.32 
   0   2   8    0.52    0.35 
   0   2   8    0.06    0.27 
  -1  -2  -8  167.51    3.34 
   1   2   8  171.55    3.15 
   1   2   8  170.25    3.11 
   1   2   8  170.12    3.28 
  -2  -2  -8   79.32    2.16 
   2   2   8   73.19    2.04 
   2   2   8   77.78    1.91 
   2   2   8   81.13    1.98 
  -3  -2  -8    7.29    0.73 
  -3  -2  -8    6.54    0.77 
   3   2   8    7.68    0.66 
   3   2   8    7.50    0.62 
   3   2   8    7.36    0.70 
   3   2   8    7.51    0.62 
  -4  -2  -8    6.32    0.72 
   4   2   8    7.24    0.65 
   4   2   8    7.90    0.69 
   4   2   8    7.12    0.64 
  -5  -2  -8   33.16    1.51 
   5   2   8   32.87    1.27 
   5   2   8   35.37    1.38 
   5  -3  -8    6.69    0.73 
   4  -3  -8    1.60    0.38 
   4  -3  -8    0.51    0.32 
   3  -3  -8   -0.16    0.29 
   3  -3  -8    0.30    0.31 
  -3   3   8    0.00    0.26 
  -3   3   8   -0.29    0.29 
   2  -3  -8  160.71    3.29 
   2  -3  -8  159.14    3.23 
  -2   3   8  165.42    3.10 
  -2   3   8  164.81    2.90 
   1  -3  -8    2.52    0.41 
   1  -3  -8    1.30    0.41 
  -1   3   8    1.78    0.35 
  -1   3   8    1.90    0.40 
   0  -3  -8    4.48    0.62 
   0   3   8    5.35    0.62 
   0   3   8    5.49    0.54 
   0   3   8    4.25    0.53 
  -1  -3  -8   85.71    2.34 
   1   3   8   85.55    2.22 
   1   3   8   85.14    2.15 
   1   3   8   84.24    2.05 
  -2  -3  -8   10.11    0.82 
   2   3   8    9.85    0.75 
   2   3   8    9.35    0.76 
   2   3   8    9.16    0.71 
  -3  -3  -8    1.24    0.50 
   3   3   8    1.48    0.42 
   3   3   8    2.28    0.45 
   3   3   8    1.74    0.39 
  -4  -3  -8    4.28    0.69 
   4   3   8    2.31    0.46 
   4   3   8    2.18    0.43 
   4   3   8    1.90    0.41 
   4   3   8    2.46    0.44 
   5  -4  -8    2.07    0.48 
   4  -4  -8    0.14    0.31 
  -4   4   8    0.50    0.33 
  -4   4   8    0.97    0.31 
   3  -4  -8   24.85    1.16 
   3  -4  -8   25.33    1.21 
  -3   4   8   25.03    1.02 
  -3   4   8   26.09    1.08 
   2  -4  -8  132.79    2.80 
   2  -4  -8  132.31    3.01 
  -2   4   8  130.38    2.62 
  -2   4   8  130.85    2.77 
   1  -4  -8    3.53    0.55 
  -1   4   8    3.48    0.47 
  -1   4   8    3.69    0.51 
   0  -4  -8   39.26    1.59 
   0   4   8   38.33    1.48 
   0   4   8   39.72    1.40 
   0   4   8   41.32    1.51 
  -1  -4  -8  133.67    3.07 
   1   4   8  131.43    3.01 
   1   4   8  135.05    2.83 
   1   4   8  130.92    2.97 
  -2  -4  -8    0.23    0.45 
   2   4   8    1.01    0.42 
   2   4   8    0.37    0.35 
   2   4   8    0.61    0.39 
  -3  -4  -8    1.01    0.49 
   3   4   8    0.20    0.29 
   3   4   8    0.49    0.33 
   3   4   8    0.48    0.36 
   4  -5  -8   12.38    0.92 
  -4   5   8   13.00    0.80 
  -4   5   8   12.74    0.77 
   3  -5  -8   20.42    1.15 
  -3   5   8   21.48    1.00 
  -3   5   8   21.67    1.06 
   2  -5  -8   67.45    2.18 
  -2   5   8   68.03    1.88 
  -2   5   8   67.47    1.96 
   1  -5  -8    1.02    0.53 
  -1   5   8    0.90    0.39 
  -1   5   8    1.35    0.43 
   0  -5  -8   10.86    0.94 
   0   5   8    9.25    0.84 
   0   5   8   10.57    0.84 
   0   5   8    9.62    0.76 
  -1  -5  -8   62.96    2.16 
   1   5   8   62.70    2.05 
   1   5   8   62.40    1.91 
   1   5   8   60.34    1.97 
  -2  -5  -8    1.04    0.56 
   2   5   8    1.69    0.42 
   2   5   8    0.84    0.47 
   2   5   8    0.63    0.40 
  -3  -5  -8    3.58    0.70 
   3   5   8    3.47    0.55 
   3   5   8    3.14    0.58 
   3   5   8    2.25    0.46 
   3  -6  -8   38.72    1.66 
  -3   6   8   37.82    1.45 
  -3   6   8   40.51    1.55 
   2  -6  -8    5.16    0.71 
  -2   6   8    7.04    0.66 
  -2   6   8    6.42    0.68 
   1  -6  -8    5.89    0.79 
  -1   6   8    5.94    0.70 
  -1   6   8    7.25    0.81 
  -1   6   8    6.44    0.68 
   0  -6  -8    0.35    0.48 
   0   6   8    0.14    0.35 
   0   6   8    1.03    0.52 
   0   6   8   -0.45    0.46 
  -1  -6  -8   59.36    2.21 
   1   6   8   62.71    2.11 
   1   6   8   58.77    1.93 
   1   6   8   60.03    2.15 
   2   6  -9   60.89    2.17 
   1   6  -9    2.05    0.46 
   0   6  -9   37.09    1.63 
  -1   6  -9   28.77    1.47 
  -1   6  -9   27.81    1.09 
  -2   6  -9    0.99    0.49 
  -2   6  -9    1.32    0.32 
   2  -6   9    2.49    0.44 
  -3   6  -9   14.72    1.14 
  -3   6  -9   15.78    0.92 
   3  -6   9   17.58    0.95 
   3   5  -9    1.09    0.34 
   3   5  -9    1.50    0.46 
   2   5  -9   46.02    1.73 
   2   5  -9   45.27    1.49 
   1   5  -9    0.41    0.32 
   1   5  -9    1.04    0.31 
   0   5  -9   24.13    1.22 
   0   5  -9   22.42    0.96 
  -1   5  -9   65.89    1.68 
  -1   5  -9   65.03    1.64 
  -1   5  -9   62.37    2.01 
   1  -5   9   63.35    1.57 
  -2   5  -9    0.55    0.40 
  -2   5  -9    0.08    0.28 
   2  -5   9    0.16    0.23 
  -3   5  -9   35.25    1.63 
  -3   5  -9   33.73    1.31 
   3  -5   9   34.53    1.26 
  -4   5  -9   -0.75    0.37 
  -4   5  -9    0.04    0.49 
   4  -5   9    0.07    0.35 
   4  -5   9    0.48    0.40 
   4   4  -9   24.44    1.09 
   3   4  -9    7.96    0.60 
   3   4  -9    7.75    0.70 
   2   4  -9   30.37    1.27 
   2   4  -9   32.43    1.17 
   1   4  -9   14.05    0.83 
   1   4  -9   13.62    0.74 
   0   4  -9   37.85    1.23 
   0   4  -9   39.81    1.41 
   0   4  -9   39.11    1.11 
  -1   4  -9   31.88    1.33 
  -1   4  -9   34.32    1.12 
  -1   4  -9   34.19    1.16 
  -1   4  -9   32.46    0.99 
   1  -4   9   33.96    1.07 
  -2   4  -9    2.35    0.40 
  -2   4  -9    2.29    0.50 
  -2   4  -9    2.62    0.36 
  -2   4  -9    2.59    0.35 
   2  -4   9    2.01    0.36 
  -3   4  -9   43.82    1.76 
  -3   4  -9   45.68    1.37 
  -3   4  -9   45.77    1.52 
   3  -4   9   46.48    1.45 
  -4   4  -9    0.76    0.33 
  -4   4  -9    0.71    0.31 
  -4   4  -9    0.42    0.45 
   4  -4   9    0.43    0.45 
   4  -4   9   -0.01    0.28 
   5   3  -9    1.72    0.37 
   4   3  -9   72.80    1.85 
   3   3  -9    7.61    0.57 
   2   3  -9    1.38    0.32 
   2   3  -9    1.64    0.34 
   1   3  -9   37.36    1.22 
   1   3  -9   38.10    1.24 
   0   3  -9    0.60    0.27 
   0   3  -9    0.91    0.23 
   0   3  -9    1.26    0.29 
   0  -3   9    0.81    0.22 
  -1   3  -9   66.55    1.60 
  -1   3  -9   64.53    1.46 
  -1   3  -9   66.50    1.81 
  -1   3  -9   69.25    1.69 
   1  -3   9   62.52    1.53 
  -2   3  -9    9.38    0.58 
  -2   3  -9   10.42    0.76 
  -2   3  -9    9.86    0.58 
  -2   3  -9    9.63    0.68 
   2  -3   9   10.39    0.64 
  -3   3  -9  139.26    3.18 
  -3   3  -9  136.71    2.88 
  -3   3  -9  140.10    2.67 
   3  -3   9  139.57    2.71 
  -4   3  -9    2.56    0.43 
  -4   3  -9    3.36    0.46 
  -4   3  -9    4.06    0.71 
   4  -3   9    3.08    0.57 
   4  -3   9    2.31    0.38 
  -5   3  -9    0.79    0.38 
  -5   3  -9    0.00    0.32 
   5  -3   9    0.21    0.44 
   5  -3   9    1.01    0.36 
   5   2  -9    0.57    0.28 
   5   2  -9    1.08    0.56 
   4   2  -9   88.81    2.02 
   3   2  -9   31.68    1.10 
   2   2  -9    0.37    0.27 
   1   2  -9   80.65    1.71 
   1   2  -9   77.50    1.83 
   1   2  -9   80.45    1.65 
   0   2  -9   10.39    0.62 
   0   2  -9    9.69    0.61 
   0   2  -9   10.18    0.58 
   0  -2   9    9.44    0.55 
  -1   2  -9   22.71    0.97 
  -1   2  -9   23.84    0.94 
  -1   2  -9   24.17    0.99 
   1  -2   9   24.04    0.90 
  -2   2  -9    0.53    0.30 
  -2   2  -9    0.54    0.35 
  -2   2  -9    0.11    0.22 
   2  -2   9    0.08    0.24 
  -3   2  -9   60.96    1.81 
   3  -2   9   60.84    1.62 
  -4   2  -9   16.99    0.99 
  -4   2  -9   17.48    0.90 
   4  -2   9   19.30    1.10 
   4  -2   9   15.75    0.84 
  -5   2  -9    0.48    0.36 
  -5   2  -9   -0.20    0.34 
   5  -2   9   -0.19    0.30 
   5  -2   9   -0.19    0.39 
   5   1  -9    8.28    0.91 
   4   1  -9   41.48    1.81 
   4   1  -9   44.60    1.33 
   3   1  -9    7.26    0.56 
   2   1  -9   17.87    0.83 
   1   1  -9  173.78    2.96 
   1   1  -9  172.51    3.03 
  -1  -1   9  171.94    2.71 
  -1  -1   9  167.92    2.81 
   0   1  -9   10.90    0.69 
   0   1  -9   11.63    0.71 
   0  -1   9   11.51    0.60 
  -1   1  -9   -0.02    0.25 
  -1   1  -9    0.85    0.33 
  -1   1  -9    0.01    0.23 
   1  -1   9    0.34    0.25 
  -2   1  -9    4.02    0.48 
  -2   1  -9    3.30    0.43 
   2  -1   9    3.66    0.41 
  -3   1  -9   53.33    1.74 
   3  -1   9   53.59    1.50 
  -4   1  -9    9.08    0.79 
   4  -1   9    9.83    0.69 
   4  -1   9    8.17    0.72 
  -5   1  -9    0.69    0.37 
  -5   1  -9    0.90    0.37 
   5  -1   9    0.23    0.27 
   5   0  -9   16.34    1.18 
   4   0  -9   23.35    0.96 
   4   0  -9   22.11    1.32 
   3   0  -9   36.54    1.24 
   3   0  -9   36.14    1.54 
   2   0  -9   -0.06    0.28 
   1   0  -9  289.18    4.57 
  -1   0   9  293.29    4.51 
  -1   0   9  294.99    4.11 
   0   0  -9    7.95    0.63 
   0   0  -9    8.46    0.69 
   0   0   9    7.51    0.61 
   0   0   9    8.41    0.58 
   0   0   9    8.68    0.64 
  -1   0  -9    3.58    0.51 
  -1   0  -9    5.17    0.55 
   1   0   9    5.03    0.49 
   1   0   9    4.44    0.42 
   1   0   9    4.82    0.52 
   1   0   9    4.98    0.48 
  -2   0  -9   57.71    1.69 
  -2   0  -9   55.70    1.85 
   2   0   9   57.02    1.60 
   2   0   9   57.76    1.68 
   2   0   9   59.73    1.44 
  -3   0  -9   32.57    1.42 
   3   0   9   34.19    1.11 
   3   0   9   34.10    1.21 
  -4   0  -9    0.92    0.38 
   4   0   9    1.23    0.39 
   4   0   9    1.28    0.31 
  -5   0  -9    3.91    0.62 
   5   0   9    3.48    0.48 
   6  -1  -9    0.33    0.48 
   5  -1  -9   37.33    1.67 
   4  -1  -9   44.85    1.78 
   4  -1  -9   45.62    1.41 
   3  -1  -9    2.14    0.43 
   3  -1  -9    0.90    0.43 
   2  -1  -9    1.73    0.36 
   2  -1  -9    2.07    0.45 
  -2   1   9    1.88    0.36 
  -2   1   9    1.69    0.31 
   1  -1  -9  136.25    2.87 
  -1   1   9  134.90    2.68 
  -1   1   9  137.09    2.51 
   0  -1  -9   12.20    0.82 
   0   1   9   13.01    0.74 
   0   1   9   12.96    0.79 
  -1  -1  -9    0.20    0.39 
   1   1   9    0.03    0.29 
   1   1   9    0.00    0.25 
   1   1   9    0.44    0.34 
  -2  -1  -9   68.50    1.97 
  -2  -1  -9   65.01    2.12 
   2   1   9   70.61    1.80 
   2   1   9   68.69    1.92 
   2   1   9   68.92    1.75 
   2   1   9   66.09    1.90 
  -3  -1  -9   52.59    1.73 
  -3  -1  -9   46.86    1.85 
   3   1   9   51.68    1.51 
   3   1   9   51.41    1.67 
   3   1   9   51.93    1.55 
  -4  -1  -9    0.03    0.39 
   4   1   9    0.53    0.34 
   4   1   9    0.31    0.29 
  -5  -1  -9    3.22    0.61 
   5   1   9    3.97    0.50 
   5   1   9    3.41    0.48 
   5  -2  -9   75.16    2.45 
   4  -2  -9    2.11    0.38 
   4  -2  -9    1.82    0.52 
   3  -2  -9    3.62    0.49 
   3  -2  -9    3.09    0.52 
   2  -2  -9   18.31    0.98 
   2  -2  -9   18.22    0.99 
  -2   2   9   18.05    0.93 
  -2   2   9   17.01    0.83 
   1  -2  -9  143.50    3.11 
  -1   2   9  146.17    2.78 
  -1   2   9  149.65    2.94 
   0  -2  -9    1.15    0.45 
   0   2   9    0.98    0.39 
   0   2   9   -0.55    0.32 
   0   2   9   -0.17    0.31 
  -1  -2  -9    6.25    0.65 
   1   2   9    4.57    0.52 
   1   2   9    6.61    0.60 
   1   2   9    6.88    0.64 
  -2  -2  -9   97.06    2.51 
   2   2   9   95.13    2.27 
   2   2   9   94.58    2.26 
   2   2   9   95.49    2.40 
  -3  -2  -9    5.77    0.72 
  -3  -2  -9    2.56    0.59 
   3   2   9    4.73    0.54 
   3   2   9    4.91    0.61 
   3   2   9    4.87    0.58 
   3   2   9    4.02    0.56 
  -4  -2  -9    1.87    0.50 
   4   2   9    2.40    0.44 
   4   2   9    3.49    0.48 
   4   2   9    2.44    0.46 
   5  -3  -9   65.16    2.29 
   4  -3  -9    1.53    0.45 
   4  -3  -9    1.12    0.38 
   3  -3  -9   18.54    1.04 
   3  -3  -9   19.29    1.04 
  -3   3   9   19.49    0.96 
  -3   3   9   17.76    0.88 
   2  -3  -9    7.74    0.67 
   2  -3  -9   10.11    0.81 
  -2   3   9    8.04    0.62 
  -2   3   9    9.07    0.69 
   1  -3  -9  108.12    2.69 
  -1   3   9  102.73    2.35 
  -1   3   9  103.17    2.53 
   0  -3  -9   12.39    0.94 
   0   3   9   11.97    0.84 
   0   3   9   12.16    0.82 
   0   3   9   12.02    0.81 
  -1  -3  -9   20.14    1.14 
   1   3   9   20.38    1.05 
   1   3   9   17.73    1.01 
   1   3   9   20.37    1.00 
  -2  -3  -9  119.23    2.92 
   2   3   9  117.38    2.61 
   2   3   9  115.02    2.80 
   2   3   9  115.05    2.70 
  -3  -3  -9    0.69    0.42 
  -3  -3  -9   -0.29    0.41 
   3   3   9    0.03    0.37 
   3   3   9    0.10    0.34 
   3   3   9    1.08    0.40 
   3   3   9    1.41    0.46 
  -4  -3  -9    7.38    0.84 
   4   3   9    7.95    0.75 
   4   3   9    7.17    0.75 
   4   3   9    5.94    0.70 
   4   3   9    7.00    0.69 
   5  -4  -9   78.78    2.53 
   4  -4  -9   -0.13    0.35 
   3  -4  -9   23.36    1.22 
   3  -4  -9   23.37    1.21 
  -3   4   9   26.00    1.14 
  -3   4   9   26.00    1.07 
   2  -4  -9   32.49    1.48 
  -2   4   9   35.11    1.40 
  -2   4   9   34.23    1.27 
   1  -4  -9   71.62    2.22 
  -1   4   9   72.90    1.94 
  -1   4   9   68.73    2.06 
   0  -4  -9   13.22    1.02 
   0   4   9   11.37    0.86 
   0   4   9   13.60    0.96 
   0   4   9   12.48    0.83 
  -1  -4  -9    5.93    0.72 
   1   4   9    6.16    0.68 
   1   4   9    6.10    0.63 
   1   4   9    6.46    0.70 
  -2  -4  -9   45.01    1.81 
   2   4   9   45.60    1.66 
   2   4   9   46.75    1.73 
   2   4   9   45.48    1.68 
  -3  -4  -9   -0.74    0.50 
   3   4   9   -0.83    0.43 
   3   4   9   -0.27    0.37 
   3   4   9    1.00    0.38 
   4  -5  -9    0.39    0.38 
  -4   5   9    0.04    0.26 
  -4   5   9    0.81    0.37 
   3  -5  -9   26.37    1.35 
  -3   5   9   27.52    1.19 
  -3   5   9   28.94    1.28 
   2  -5  -9   71.17    2.29 
  -2   5   9   70.43    2.00 
  -2   5   9   70.56    2.11 
   1  -5  -9   22.22    1.32 
  -1   5   9   25.23    1.33 
  -1   5   9   23.83    1.15 
  -1   5   9   23.18    1.23 
   0  -5  -9    8.87    0.87 
   0   5   9    8.89    0.75 
   0   5   9    7.54    0.79 
   0   5   9    8.64    0.86 
  -1  -5  -9    2.26    0.66 
   1   5   9    2.00    0.47 
   1   5   9    2.13    0.52 
   1   5   9    1.55    0.43 
  -2  -5  -9   54.20    2.09 
   2   5   9   52.87    1.94 
   2   5   9   52.45    1.79 
   2   5   9   53.38    1.92 
   3  -6  -9   29.03    1.52 
  -3   6   9   27.48    1.28 
  -3   6   9   27.40    1.33 
   2  -6  -9   40.07    1.79 
  -2   6   9   39.14    1.57 
  -2   6   9   39.85    1.66 
   1  -6  -9   10.17    1.00 
  -1   6   9   10.16    0.89 
  -1   6   9    9.07    0.94 
  -1   6   9    9.05    0.80 
   0  -6  -9   16.03    1.16 
   0   6   9   15.56    1.12 
   0   6   9   14.27    1.00 
   0   6   9   15.41    1.10 
   1   6 -10   36.03    1.62 
   1   6 -10   35.68    1.37 
   0   6 -10    0.20    0.28 
   0   6 -10    2.39    0.61 
  -1   6 -10   31.05    1.55 
  -1   6 -10   31.09    1.21 
  -2   6 -10   28.40    1.20 
  -2   6 -10   32.10    1.63 
   2  -6  10   29.40    1.17 
   3   5 -10   25.47    1.34 
   3   5 -10   26.11    1.18 
   2   5 -10   16.66    1.07 
   2   5 -10   17.54    0.94 
   1   5 -10   29.27    1.34 
   1   5 -10   28.68    1.16 
   0   5 -10    6.58    0.72 
   0   5 -10    4.78    0.50 
  -1   5 -10   21.81    0.97 
  -1   5 -10   23.00    0.98 
  -1   5 -10   25.29    1.27 
   1  -5  10   21.86    0.94 
  -2   5 -10   33.00    1.28 
  -2   5 -10   33.69    1.54 
   2  -5  10   34.42    1.26 
  -3   5 -10    1.92    0.56 
   3  -5  10    2.03    0.41 
   4   4 -10    0.28    0.30 
   3   4 -10   74.22    1.98 
   2   4 -10   45.87    1.59 
   2   4 -10   43.69    1.46 
   1   4 -10    0.82    0.30 
   1   4 -10   -0.11    0.26 
   0   4 -10   32.43    1.17 
   0   4 -10   32.31    1.29 
  -1   4 -10    0.34    0.26 
  -1   4 -10    0.38    0.33 
  -1   4 -10    0.26    0.28 
   1  -4  10   -0.13    0.22 
  -2   4 -10   31.05    1.43 
  -2   4 -10   31.32    1.11 
  -2   4 -10   32.01    1.27 
   2  -4  10   32.11    1.18 
  -3   4 -10    0.56    0.30 
  -3   4 -10    0.34    0.30 
  -3   4 -10    0.82    0.44 
   3  -4  10    1.27    0.36 
  -4   4 -10   57.56    2.20 
  -4   4 -10   54.46    1.85 
  -4   4 -10   57.83    1.71 
   4  -4  10   56.92    1.74 
   4  -4  10   57.06    2.16 
   4   3 -10    0.19    0.25 
   3   3 -10   57.87    1.66 
   2   3 -10   58.34    1.63 
   1   3 -10    3.39    0.44 
   0   3 -10   49.47    1.44 
   0   3 -10   48.50    1.39 
   0   3 -10   51.47    1.50 
   0  -3  10   50.05    1.29 
  -1   3 -10    4.27    0.48 
  -1   3 -10    5.80    0.55 
  -1   3 -10    5.45    0.51 
   1  -3  10    6.42    0.52 
  -2   3 -10    2.58    0.36 
  -2   3 -10    3.48    0.54 
  -2   3 -10    3.89    0.42 
  -2   3 -10    3.03    0.44 
   2  -3  10    3.61    0.45 
  -3   3 -10    0.94    0.33 
  -3   3 -10    1.61    0.47 
  -3   3 -10    1.38    0.36 
   3  -3  10    1.99    0.37 
  -4   3 -10   45.46    1.92 
  -4   3 -10   42.66    1.47 
  -4   3 -10   40.97    1.60 
   4  -3  10   40.75    1.45 
   5   2 -10    3.84    0.48 
   4   2 -10   22.95    1.01 
   3   2 -10   30.47    1.15 
   2   2 -10   21.80    0.96 
   1   2 -10    1.57    0.34 
   0   2 -10  105.91    2.22 
   0   2 -10  103.73    2.27 
   0  -2  10  102.58    2.03 
  -1   2 -10    4.32    0.49 
  -1   2 -10    3.52    0.42 
  -1   2 -10    4.01    0.45 
   1  -2  10    4.71    0.48 
  -2   2 -10    0.05    0.32 
  -2   2 -10    0.17    0.27 
  -2   2 -10    0.25    0.27 
   2  -2  10    0.52    0.25 
  -3   2 -10   10.71    0.81 
  -3   2 -10   12.76    0.93 
   3  -2  10   11.69    0.75 
  -4   2 -10   46.54    1.53 
  -4   2 -10   46.50    1.71 
   4  -2  10   44.92    1.49 
   5   1 -10    0.26    0.47 
   4   1 -10   34.87    1.72 
   4   1 -10   32.01    1.19 
   3   1 -10   47.30    1.48 
   2   1 -10   33.48    1.24 
   1   1 -10    2.75    0.39 
   1   1 -10    2.64    0.41 
  -1  -1  10    2.64    0.36 
   0   1 -10   89.88    2.21 
   0   1 -10   96.82    2.24 
   0  -1  10   95.72    2.01 
  -1   1 -10   14.42    0.81 
  -1   1 -10   13.07    0.84 
   1  -1  10   13.85    0.78 
  -2   1 -10    6.41    0.65 
  -2   1 -10    6.97    0.61 
   2  -1  10    5.95    0.55 
  -3   1 -10   32.68    1.44 
   3  -1  10   32.18    1.21 
  -4   1 -10   10.84    0.92 
   4  -1  10   12.55    0.80 
   5   0 -10   -0.37    0.44 
   4   0 -10   76.16    2.47 
   4   0 -10   73.48    1.92 
   3   0 -10   17.38    1.18 
   3   0 -10   17.92    0.92 
   2   0 -10    1.38    0.34 
   1   0 -10    8.99    0.67 
   1   0 -10    8.07    0.70 
  -1   0  10    8.39    0.64 
  -1   0  10    7.67    0.58 
  -1   0  10    8.23    0.60 
   0   0 -10   92.82    2.40 
   0   0 -10   90.63    2.29 
   0   0  10   94.60    2.19 
   0   0  10   90.80    2.05 
   0   0  10   88.76    2.15 
   0   0  10   93.34    2.02 
  -1   0 -10    1.23    0.42 
  -1   0 -10    1.98    0.42 
   1   0  10    2.02    0.41 
   1   0  10    1.66    0.37 
   1   0  10    2.51    0.39 
   1   0  10    1.46    0.36 
  -2   0 -10   18.20    1.08 
  -2   0 -10   16.39    0.94 
   2   0  10   17.62    0.80 
   2   0  10   16.94    0.90 
  -3   0 -10   28.18    1.41 
   3   0  10   28.22    1.20 
  -4   0 -10    9.95    0.91 
   4   0  10   10.53    0.77 
   5  -1 -10    9.25    0.91 
   4  -1 -10   74.93    2.48 
   4  -1 -10   76.27    2.00 
   3  -1 -10    0.48    0.34 
   3  -1 -10    0.18    0.35 
   2  -1 -10    0.18    0.30 
  -2   1  10    0.28    0.25 
  -2   1  10    0.59    0.32 
   1  -1 -10   29.67    1.25 
  -1   1  10   28.60    1.09 
  -1   1  10   28.22    1.17 
   0  -1 -10   72.58    2.12 
   0   1  10   76.61    1.92 
   0   1  10   76.31    2.00 
   0   1  10   73.46    1.87 
  -1  -1 -10    2.77    0.52 
  -1  -1 -10    3.31    0.57 
   1   1  10    3.00    0.48 
   1   1  10    2.94    0.49 
   1   1  10    3.62    0.45 
   1   1  10    3.20    0.51 
  -2  -1 -10   15.88    0.97 
  -2  -1 -10   16.82    1.14 
   2   1  10   15.65    0.84 
   2   1  10   14.72    0.93 
   2   1  10   15.41    0.92 
   2   1  10   14.84    0.85 
  -3  -1 -10   65.37    2.26 
   3   1  10   67.75    1.83 
   3   1  10   71.28    1.96 
   3   1  10   69.74    2.03 
  -4  -1 -10    2.54    0.57 
   4   1  10    3.15    0.49 
   4   1  10    3.35    0.44 
   5  -2 -10    5.96    0.78 
   4  -2 -10   79.22    2.49 
   4  -2 -10   79.94    2.16 
   3  -2 -10    1.35    0.39 
   3  -2 -10    0.99    0.44 
   2  -2 -10   27.62    1.26 
   2  -2 -10   28.35    1.29 
  -2   2  10   28.39    1.11 
  -2   2  10   29.60    1.19 
   1  -2 -10   18.59    1.05 
  -1   2  10   18.09    0.98 
  -1   2  10   18.24    0.92 
   0  -2 -10   26.99    1.28 
   0   2  10   25.73    1.12 
   0   2  10   26.86    1.16 
   0   2  10   25.08    1.23 
  -1  -2 -10    0.97    0.46 
   1   2  10    0.47    0.30 
   1   2  10    0.21    0.32 
   1   2  10    0.52    0.29 
  -2  -2 -10    6.64    0.82 
  -2  -2 -10    7.04    0.74 
   2   2  10    7.55    0.68 
   2   2  10    8.51    0.75 
   2   2  10    7.76    0.67 
   2   2  10    8.74    0.75 
  -3  -2 -10   41.21    1.84 
  -3  -2 -10   43.47    1.70 
   3   2  10   41.06    1.50 
   3   2  10   39.07    1.55 
   3   2  10   39.18    1.47 
   3   2  10   41.22    1.60 
  -4  -2 -10    1.40    0.51 
   4   2  10    1.13    0.42 
   4   2  10    1.31    0.38 
   5  -3 -10    1.07    0.50 
   4  -3 -10   62.78    2.15 
   4  -3 -10   61.11    1.95 
   3  -3 -10    0.51    0.35 
   3  -3 -10   -0.43    0.38 
  -3   3  10   -0.11    0.29 
  -3   3  10    0.66    0.32 
   2  -3 -10   16.75    1.04 
   2  -3 -10   17.58    1.01 
  -2   3  10   17.14    0.91 
  -2   3  10   18.76    1.01 
   1  -3 -10   69.80    2.15 
  -1   3  10   70.46    2.02 
  -1   3  10   68.74    1.92 
   0  -3 -10   19.64    1.18 
   0   3  10   20.86    1.04 
   0   3  10   20.69    1.13 
   0   3  10   21.87    1.11 
  -1  -3 -10   13.19    1.01 
   1   3  10   13.03    0.96 
   1   3  10   14.35    0.94 
   1   3  10   14.17    0.89 
  -2  -3 -10    7.74    0.82 
   2   3  10    9.00    0.74 
   2   3  10    9.29    0.80 
   2   3  10    9.49    0.81 
  -3  -3 -10   36.71    1.81 
  -3  -3 -10   38.24    1.69 
   3   3  10   37.95    1.58 
   3   3  10   36.50    1.48 
   3   3  10   38.57    1.63 
   3   3  10   35.44    1.48 
   4  -4 -10   34.68    1.64 
   3  -4 -10    0.60    0.42 
   3  -4 -10    1.18    0.45 
  -3   4  10   -0.35    0.31 
  -3   4  10    0.73    0.28 
   2  -4 -10   37.35    1.60 
  -2   4  10   36.52    1.48 
  -2   4  10   38.39    1.40 
   1  -4 -10   45.31    1.79 
  -1   4  10   46.72    1.72 
  -1   4  10   45.78    1.59 
   0  -4 -10    5.54    0.72 
   0   4  10    7.27    0.73 
   0   4  10    5.83    0.64 
   0   4  10    6.59    0.71 
  -1  -4 -10    3.29    0.60 
   1   4  10    3.66    0.56 
   1   4  10    3.45    0.60 
   1   4  10    3.84    0.60 
  -2  -4 -10   -0.18    0.52 
   2   4  10    2.30    0.52 
   2   4  10    1.24    0.51 
   2   4  10    1.48    0.44 
   3  -5 -10    5.63    0.68 
  -3   5  10    5.99    0.64 
  -3   5  10    6.43    0.66 
   2  -5 -10   30.90    1.53 
  -2   5  10   29.22    1.38 
  -2   5  10   27.60    1.26 
   1  -5 -10   35.41    1.68 
  -1   5  10   35.93    1.60 
  -1   5  10   34.63    1.44 
  -1   5  10   36.69    1.57 
   0  -5 -10    0.95    0.54 
   0   5  10    0.75    0.37 
   0   5  10    0.38    0.35 
   0   5  10    1.23    0.51 
  -1  -5 -10   27.32    1.54 
   1   5  10   29.05    1.37 
   1   5  10   26.51    1.42 
   1   5  10   29.89    1.46 
   2   5 -11   64.66    1.90 
   1   5 -11   36.67    1.51 
   1   5 -11   36.86    1.40 
   0   5 -11    0.12    0.35 
   0   5 -11   -0.02    0.32 
  -1   5 -11   36.73    1.60 
  -1   5 -11   41.39    1.38 
  -1   5 -11   41.32    1.41 
  -2   5 -11   14.71    0.89 
  -2   5 -11   14.77    1.06 
   2  -5  11   14.52    0.82 
   3   4 -11    3.00    0.50 
   2   4 -11   53.62    1.70 
   1   4 -11   55.56    1.68 
   0   4 -11    1.96    0.45 
  -1   4 -11   84.18    2.06 
  -1   4 -11   83.05    2.04 
  -1   4 -11   86.10    2.31 
   1  -4  11   81.75    1.95 
  -2   4 -11    6.26    0.60 
  -2   4 -11    6.58    0.71 
  -2   4 -11    7.02    0.56 
   2  -4  11    6.34    0.61 
  -3   4 -11    3.51    0.65 
  -3   4 -11    3.40    0.53 
  -3   4 -11    4.94    0.55 
   3  -4  11    4.22    0.54 
   4   3 -11    7.09    0.63 
   3   3 -11   11.65    0.78 
   2   3 -11   36.34    1.34 
   1   3 -11   69.93    1.89 
   0   3 -11    0.94    0.29 
   0   3 -11    1.14    0.27 
  -1   3 -11  115.19    2.59 
  -1   3 -11  113.88    2.55 
  -1   3 -11  116.06    2.48 
   1  -3  11  115.27    2.39 
  -2   3 -11    0.46    0.30 
  -2   3 -11   -0.17    0.38 
  -2   3 -11    0.74    0.26 
  -2   3 -11   -0.20    0.31 
   2  -3  11    0.63    0.29 
  -3   3 -11    6.81    0.72 
  -3   3 -11    3.51    0.54 
  -3   3 -11    4.23    0.50 
   3  -3  11    4.81    0.55 
  -4   3 -11   10.29    0.99 
  -4   3 -11    8.81    0.80 
  -4   3 -11   10.21    0.80 
   4  -3  11    8.66    0.74 
   4   2 -11    0.13    0.30 
   3   2 -11   36.12    1.32 
   2   2 -11   33.25    1.27 
   1   2 -11   21.93    1.03 
   0   2 -11    0.62    0.27 
   0   2 -11    0.77    0.34 
   0  -2  11    0.65    0.26 
  -1   2 -11   82.64    2.08 
  -1   2 -11   79.88    2.12 
   1  -2  11   75.32    1.89 
  -2   2 -11    3.51    0.54 
  -2   2 -11    3.30    0.46 
  -2   2 -11    3.07    0.50 
   2  -2  11    3.40    0.46 
  -3   2 -11    2.16    0.51 
  -3   2 -11    3.22    0.58 
   3  -2  11    2.15    0.40 
  -4   2 -11   32.24    1.53 
  -4   2 -11   35.61    1.41 
   4  -2  11   34.35    1.39 
   5   1 -11   10.22    0.74 
   5   1 -11    8.83    1.09 
   4   1 -11    0.51    0.32 
   3   1 -11  112.42    2.54 
   2   1 -11    8.33    0.68 
   1   1 -11    3.81    0.51 
   1   1 -11    3.20    0.46 
   0   1 -11    0.63    0.39 
   0   1 -11    0.81    0.34 
   0  -1  11    1.22    0.33 
  -1   1 -11  112.74    2.74 
  -1   1 -11  115.80    2.62 
   1  -1  11  115.23    2.44 
  -2   1 -11    8.06    0.76 
  -2   1 -11    9.69    0.73 
   2  -1  11    9.47    0.70 
  -3   1 -11    8.78    0.85 
   3  -1  11    7.94    0.69 
  -4   1 -11   47.57    1.90 
   4  -1  11   50.61    1.66 
   5   0 -11   12.24    1.17 
   4   0 -11    2.80    0.60 
   4   0 -11    2.18    0.46 
   3   0 -11  118.00    2.68 
   2   0 -11    6.15    0.61 
   1   0 -11    0.26    0.31 
   1   0 -11    0.04    0.37 
  -1   0  11   -0.28    0.34 
  -1   0  11    0.32    0.34 
  -1   0  11    0.16    0.27 
   0   0 -11    1.29    0.42 
   0   0 -11    1.61    0.44 
   0   0  11    1.80    0.38 
   0   0  11    1.39    0.37 
   0   0  11    1.42    0.38 
  -1   0 -11   38.60    1.59 
  -1   0 -11   38.12    1.49 
   1   0  11   40.35    1.47 
   1   0  11   40.45    1.38 
  -2   0 -11    5.95    0.63 
  -2   0 -11    5.48    0.71 
   2   0  11    5.05    0.55 
  -3   0 -11    4.44    0.70 
   3   0  11    5.94    0.62 
  -4   0 -11   52.91    2.11 
   4   0  11   52.40    1.73 
   5  -1 -11    3.81    0.68 
   4  -1 -11    1.04    0.48 
   4  -1 -11    1.67    0.42 
   3  -1 -11  140.61    3.49 
   3  -1 -11  141.06    3.10 
   2  -1 -11    1.94    0.43 
   1  -1 -11   16.08    0.97 
  -1   1  11   14.09    0.83 
  -1   1  11   16.03    0.92 
   0  -1 -11   52.17    1.80 
   0   1  11   53.29    1.77 
   0   1  11   54.27    1.62 
   0   1  11   54.16    1.63 
  -1  -1 -11   29.53    1.37 
  -1  -1 -11   30.22    1.51 
   1   1  11   30.73    1.32 
   1   1  11   29.46    1.30 
   1   1  11   28.72    1.22 
   1   1  11   29.59    1.18 
  -2  -1 -11    9.37    0.82 
  -2  -1 -11    7.54    0.87 
   2   1  11    8.35    0.79 
   2   1  11    9.21    0.69 
   2   1  11    7.45    0.69 
   2   1  11    8.86    0.75 
  -3  -1 -11   10.01    0.96 
   3   1  11   10.13    0.81 
   3   1  11   10.95    0.75 
  -4  -1 -11   20.53    1.44 
   4   1  11   22.16    1.09 
   4   1  11   19.92    1.10 
   4  -2 -11    3.84    0.67 
   4  -2 -11    3.77    0.53 
   3  -2 -11   63.33    2.22 
   3  -2 -11   65.68    2.04 
   2  -2 -11   10.42    0.84 
  -2   2  11    9.87    0.70 
  -2   2  11   10.01    0.76 
   1  -2 -11    2.45    0.52 
  -1   2  11    2.05    0.43 
  -1   2  11    2.49    0.43 
   0  -2 -11   74.89    2.23 
   0   2  11   78.07    2.06 
   0   2  11   72.26    2.14 
   0   2  11   76.80    2.09 
  -1  -2 -11   17.88    1.12 
   1   2  11   19.48    1.11 
   1   2  11   18.47    1.00 
   1   2  11   18.17    1.00 
  -2  -2 -11    4.65    0.64 
  -2  -2 -11    4.61    0.74 
   2   2  11    4.92    0.64 
   2   2  11    4.60    0.62 
   2   2  11    3.78    0.55 
   2   2  11    5.07    0.60 
  -3  -2 -11    8.15    0.93 
   3   2  11    8.71    0.80 
   3   2  11   10.22    0.84 
   3   2  11    9.04    0.75 
   3   2  11    8.43    0.78 
   4  -3 -11    0.68    0.45 
   4  -3 -11    1.15    0.37 
   3  -3 -11   54.18    1.88 
   3  -3 -11   50.42    1.93 
   2  -3 -11   -0.06    0.37 
  -2   3  11    0.72    0.39 
  -2   3  11    0.58    0.32 
   1  -3 -11   28.86    1.41 
  -1   3  11   27.62    1.32 
  -1   3  11   28.50    1.27 
   0  -3 -11   28.78    1.45 
   0   3  11   28.96    1.27 
   0   3  11   31.92    1.40 
   0   3  11   28.82    1.32 
  -1  -3 -11    0.25    0.41 
   1   3  11    0.20    0.32 
   1   3  11    0.10    0.37 
   1   3  11    0.15    0.34 
  -2  -3 -11    7.26    0.86 
   2   3  11    6.68    0.69 
   2   3  11    5.94    0.70 
   2   3  11    7.58    0.77 
   3  -4 -11   40.15    1.68 
  -3   4  11   40.28    1.59 
  -3   4  11   38.86    1.44 
   2  -4 -11   10.18    0.92 
  -2   4  11    9.13    0.76 
  -2   4  11    8.84    0.82 
   1  -4 -11   24.75    1.37 
  -1   4  11   25.19    1.24 
  -1   4  11   25.56    1.30 
   0  -4 -11   40.20    1.79 
   0   4  11   40.09    1.66 
   0   4  11   40.30    1.56 
   0   4  11   41.38    1.69 
  -1  -4 -11    3.10    0.70 
   1   4  11    1.84    0.51 
   1   4  11    2.82    0.55 
   1   4  11    3.83    0.63 
  -2  -4 -11   25.41    1.46 
   2   4  11   26.32    1.30 
   2   4  11   23.37    1.35 
   2   4  11   22.86    1.32 
   2  -5 -11    6.79    0.82 
  -2   5  11    6.28    0.71 
  -2   5  11    6.85    0.76 
   1  -5 -11    8.76    0.91 
  -1   5  11    6.53    0.76 
  -1   5  11    9.05    0.82 
  -1   5  11    7.25    0.84 
   0  -5 -11   25.59    1.50 
   0   5  11   25.77    1.43 
   0   5  11   26.20    1.41 
   0   5  11   24.66    1.31 
   1   5 -12   82.10    2.24 
   0   5 -12   15.99    0.94 
  -1   5 -12    2.91    0.47 
  -1   5 -12    2.97    0.53 
   2   4 -12    5.81    0.64 
   1   4 -12   39.85    1.48 
   0   4 -12   33.52    1.33 
  -1   4 -12    1.80    0.42 
  -1   4 -12    1.37    0.37 
   1  -4  12    1.06    0.35 
  -2   4 -12  108.14    2.83 
  -2   4 -12  104.76    2.34 
  -2   4 -12  101.62    2.56 
   2  -4  12  104.22    2.50 
   3   3 -12    5.45    0.59 
   2   3 -12   37.87    1.43 
   1   3 -12   13.86    0.87 
   0   3 -12    3.25    0.51 
  -1   3 -12    0.20    0.28 
  -1   3 -12    0.30    0.31 
   1  -3  12   -0.81    0.36 
  -2   3 -12  111.54    2.47 
  -2   3 -12  115.13    2.76 
   2  -3  12  108.76    2.51 
  -3   3 -12    0.40    0.39 
  -3   3 -12    2.14    0.46 
  -3   3 -12   -0.16    0.43 
   3  -3  12    0.03    0.38 
   4   2 -12    8.30    0.70 
   3   2 -12    3.83    0.52 
   2   2 -12   69.52    1.99 
   1   2 -12   12.50    0.84 
   0   2 -12    4.39    0.57 
   0   2 -12    6.55    0.64 
   0  -2  12    5.46    0.53 
  -1   2 -12    2.78    0.48 
  -1   2 -12    3.74    0.52 
   1  -2  12    3.19    0.48 
  -2   2 -12  128.99    2.82 
  -2   2 -12  130.63    3.05 
   2  -2  12  123.35    2.73 
  -3   2 -12    5.14    0.70 
   3  -2  12    7.15    0.67 
   4   1 -12   12.80    0.86 
   3   1 -12    1.59    0.41 
   2   1 -12   99.15    2.49 
   1   1 -12   18.26    1.02 
   0   1 -12    9.52    0.80 
   0   1 -12   11.06    0.81 
   0  -1  12    9.40    0.68 
  -1   1 -12    0.06    0.33 
  -1   1 -12    0.33    0.39 
   1  -1  12    0.86    0.37 
  -2   1 -12   41.93    1.56 
  -2   1 -12   42.97    1.75 
   2  -1  12   41.65    1.50 
  -3   1 -12    1.75    0.52 
   3  -1  12    0.83    0.35 
   4   0 -12    1.10    0.38 
   3   0 -12    5.20    0.61 
   2   0 -12  145.38    3.20 
   1   0 -12    3.72    0.61 
   1   0 -12    3.24    0.51 
  -1   0  12    3.12    0.49 
  -1   0  12    2.87    0.47 
  -1   0  12    2.78    0.46 
   0   0 -12   14.52    0.98 
   0   0 -12   13.14    0.91 
   0   0  12   14.34    0.93 
   0   0  12   14.13    0.90 
   0   0  12   13.23    0.83 
  -1   0 -12   32.18    1.52 
  -1   0 -12   30.60    1.36 
   1   0  12   32.97    1.37 
   1   0  12   28.39    1.26 
  -2   0 -12   60.20    2.19 
  -2   0 -12   61.98    2.02 
   2   0  12   63.02    1.88 
  -3   0 -12    6.47    0.80 
   3   0  12    7.34    0.71 
   4  -1 -12    0.07    0.32 
   4  -1 -12    0.88    0.53 
   3  -1 -12    3.36    0.52 
   2  -1 -12   85.76    2.39 
   1  -1 -12    0.36    0.35 
  -1   1  12    0.24    0.29 
  -1   1  12    1.00    0.33 
   0  -1 -12   12.77    0.92 
   0  -1 -12    9.35    0.92 
   0   1  12   13.22    0.90 
   0   1  12   11.09    0.82 
   0   1  12   11.55    0.78 
   0   1  12   11.24    0.81 
  -1  -1 -12   25.78    1.48 
  -1  -1 -12   26.05    1.32 
   1   1  12   26.71    1.32 
   1   1  12   28.76    1.33 
   1   1  12   25.50    1.19 
   1   1  12   25.26    1.16 
  -2  -1 -12   26.15    1.33 
  -2  -1 -12   26.22    1.48 
   2   1  12   22.57    1.18 
   2   1  12   24.98    1.27 
  -3  -1 -12    1.32    0.56 
   3   1  12    1.05    0.36 
   4  -2 -12    7.84    0.91 
   4  -2 -12    9.23    0.81 
   3  -2 -12    1.20    0.49 
   3  -2 -12    0.97    0.34 
   2  -2 -12   69.13    2.16 
  -2   2  12   67.70    2.02 
  -2   2  12   66.92    1.89 
   1  -2 -12    1.14    0.49 
  -1   2  12    1.04    0.37 
  -1   2  12   -0.21    0.33 
   0  -2 -12   26.80    1.37 
   0   2  12   26.36    1.31 
   0   2  12   27.37    1.21 
   0   2  12   27.87    1.26 
  -1  -2 -12   40.88    1.70 
   1   2  12   39.44    1.61 
   1   2  12   39.71    1.52 
   1   2  12   39.05    1.53 
  -2  -2 -12    6.85    0.76 
  -2  -2 -12    6.34    0.90 
   2   2  12    7.22    0.79 
   2   2  12    7.52    0.76 
   2   2  12    7.06    0.74 
   2   2  12    6.01    0.70 
   3  -3 -12    8.73    0.82 
   3  -3 -12    7.50    0.84 
   2  -3 -12   35.47    1.60 
  -2   3  12   36.24    1.43 
  -2   3  12   37.36    1.52 
   1  -3 -12    1.11    0.43 
  -1   3  12    1.61    0.44 
  -1   3  12    0.64    0.38 
   0  -3 -12   17.99    1.18 
   0   3  12   17.35    1.09 
   0   3  12   18.04    1.07 
   0   3  12   17.78    1.10 
  -1  -3 -12   42.16    1.81 
   1   3  12   43.06    1.65 
   1   3  12   42.78    1.69 
   1   3  12   44.12    1.78 
  -2  -3 -12    1.70    0.55 
   2   3  12    0.53    0.42 
   2   3  12    1.67    0.47 
   2   3  12    0.56    0.37 
   2  -4 -12   14.92    1.09 
  -2   4  12   17.95    1.08 
  -2   4  12   16.42    1.07 
   1  -4 -12    3.46    0.71 
  -1   4  12    3.09    0.59 
  -1   4  12    2.69    0.50 
  -1   4  12    3.93    0.60 
   0  -4 -12   11.61    1.02 
   0   4  12   11.54    0.90 
   0   4  12   10.57    0.92 
   0   4  12   10.61    0.94 
   1   4 -13   53.12    1.81 
   0   4 -13   11.77    0.86 
  -1   4 -13    0.48    0.35 
   2   3 -13    7.01    0.69 
   1   3 -13   50.97    1.76 
   0   3 -13    9.59    0.77 
  -1   3 -13    0.36    0.34 
  -1   3 -13   -0.41    0.34 
   1  -3  13   -0.50    0.29 
  -2   3 -13    0.93    0.39 
  -2   3 -13   -0.36    0.38 
   2  -3  13    0.71    0.38 
   3   2 -13    4.37    0.58 
   2   2 -13   10.54    0.83 
   1   2 -13   77.21    2.23 
   0   2 -13    1.54    0.44 
  -1   2 -13   18.95    1.11 
  -1   2 -13   19.34    1.07 
   1  -2  13   18.01    1.02 
  -2   2 -13    7.51    0.70 
  -2   2 -13    9.07    0.84 
   2  -2  13    8.62    0.75 
   3   1 -13    0.50    0.36 
   2   1 -13   19.01    1.09 
   1   1 -13   73.53    2.21 
   0   1 -13    1.88    0.48 
   0   1 -13    1.50    0.45 
   0  -1  13    0.71    0.40 
  -1   1 -13   10.40    0.84 
  -1   1 -13    8.95    0.83 
   1  -1  13    9.46    0.76 
  -2   1 -13   15.27    1.16 
  -2   1 -13   13.93    0.97 
   2  -1  13   14.70    0.97 
   3   0 -13    0.74    0.38 
   2   0 -13    2.18    0.47 
   1   0 -13   63.44    2.07 
   0   0 -13    1.78    0.50 
   0   0 -13    3.25    0.59 
   0   0  13    3.38    0.53 
   0   0  13    3.41    0.54 
  -1   0 -13   46.95    1.91 
  -1   0 -13   47.99    1.81 
   1   0  13   48.89    1.69 
  -2   0 -13   17.22    1.08 
  -2   0 -13   16.65    1.23 
   2   0  13   16.26    1.01 
   3  -1 -13   13.67    0.98 
   2  -1 -13   -0.49    0.42 
   1  -1 -13   51.74    1.88 
  -1   1  13   47.12    1.59 
  -1   1  13   49.58    1.72 
   0  -1 -13    0.55    0.47 
   0  -1 -13    0.11    0.38 
   0   1  13    0.08    0.40 
   0   1  13    0.21    0.32 
   0   1  13    0.66    0.39 
  -1  -1 -13   30.37    1.61 
  -1  -1 -13   30.19    1.44 
   1   1  13   27.27    1.41 
   1   1  13   31.02    1.36 
   1   1  13   29.75    1.40 
  -2  -1 -13   34.92    1.56 
  -2  -1 -13   37.24    1.80 
   2   1  13   34.17    1.48 
   2   1  13   34.63    1.58 
   3  -2 -13   12.93    0.97 
   2  -2 -13    4.41    0.65 
   1  -2 -13   20.89    1.23 
  -1   2  13   20.88    1.10 
  -1   2  13   19.18    1.16 
   0  -2 -13    6.49    0.77 
   0   2  13    5.21    0.60 
   0   2  13    5.10    0.69 
   0   2  13    5.62    0.67 
  -1  -2 -13   25.58    1.51 
  -1  -2 -13   23.41    1.34 
   1   2  13   24.65    1.35 
   1   2  13   24.96    1.25 
   1   2  13   23.59    1.31 
   1   2  13   25.94    1.29 
   2  -3 -13    4.01    0.66 
  -2   3  13    4.75    0.56 
  -2   3  13    5.15    0.66 
   1  -3 -13   12.11    1.02 
  -1   3  13   11.95    0.96 
  -1   3  13   10.92    0.86 
  -1   3  13   12.58    0.98 
   0  -3 -13   12.27    1.06 
   0   3  13    9.02    0.83 
   0   3  13    9.71    0.87 
   0   3  13    9.70    0.91 
   0   3 -14   93.45    2.55 
   2   2 -14    0.49    0.41 
   1   2 -14    5.23    0.64 
   0   2 -14   55.36    1.97 
  -1   2 -14    0.26    0.42 
  -1   2 -14    1.25    0.46 
   1  -2  14    0.19    0.33 
   2   1 -14   11.69    0.94 
   1   1 -14    0.97    0.42 
   0   1 -14   51.14    1.89 
   0   1 -14   48.27    1.87 
   0  -1  14   51.83    1.65 
  -1   1 -14    1.48    0.49 
  -1   1 -14    1.80    0.54 
   1  -1  14    2.42    0.53 
   2   0 -14   29.06    1.44 
   1   0 -14   -0.01    0.36 
   0   0 -14   24.91    1.37 
   0   0 -14   27.43    1.45 
   0   0  14   28.30    1.34 
   0   0  14   26.82    1.28 
  -1   0 -14    0.45    0.48 
  -1   0 -14    0.55    0.43 
   1   0  14    0.61    0.40 
   2  -1 -14   22.84    1.32 
   1  -1 -14   14.02    1.05 
   1  -1 -14   12.26    1.03 
  -1   1  14   12.20    0.90 
  -1   1  14   12.79    0.93 
   0  -1 -14   12.54    1.08 
   0  -1 -14   14.48    1.07 
   0   1  14   14.69    0.96 
   0   1  14   14.80    1.04 
   0   1  14   13.77    0.98 
  -1  -1 -14   14.22    1.08 
  -1  -1 -14   15.15    1.21 
   1   1  14   15.50    1.04 
   1   1  14   16.74    1.09 
   1  -2 -14   11.06    0.97 
  -1   2  14   10.91    0.82 
  -1   2  14   11.99    0.92 
  -1   2  14   12.70    0.94 
   0   0   0    0.00    0.00 
;
_shelx_hkl_checksum              33777
#END Tags that were not found in dictionaries
loop_
_space_group_symop_operation_xyz
'x, y, z'
'-x, -y, -z'
loop_
_atom_site_label
_atom_site_type_symbol
_atom_site_fract_x
_atom_site_fract_y
_atom_site_fract_z
_atom_site_U_iso_or_equiv
_atom_site_adp_type
_atom_site_occupancy
_atom_site_site_symmetry_order
_atom_site_calc_flag
_atom_site_refinement_flags_posn
_atom_site_refinement_flags_adp
_atom_site_refinement_flags_occupancy
_atom_site_disorder_assembly
_atom_site_disorder_group
Se1 Se 0.4277(11) 0.0775(14) 0.1564(6) 0.0155(7) Uani 0.54(4) 1 d D U P A 1
O1 O 0.3995(3) 0.0080(3) 0.29412(15) 0.0189(4) Uani 1 1 d D . . . .
O2 O 0.1583(3) 0.0363(3) 0.10649(15) 0.0164(4) Uani 1 1 d D . . . .
H2 H 0.127(5) 0.140(4) 0.082(3) 0.025 Uiso 1 1 d D U . . .
O3 O 0.520(3) 0.3015(16) 0.1708(13) 0.020(2) Uani 0.54(4) 1 d D U P A 1
O4 O 0.583(3) -0.067(3) 0.1095(12) 0.027(2) Uani 0.54(4) 1 d D U P A 1
O3A O 0.555(3) 0.271(2) 0.1557(17) 0.024(3) Uani 0.46(4) 1 d D U P A 2
O4A O 0.539(3) -0.121(3) 0.1099(15) 0.025(3) Uani 0.46(4) 1 d D U P A 2
Se1A Se 0.4308(12) 0.0586(16) 0.1546(6) 0.0141(8) Uani 0.46(4) 1 d D U P A 2
Se2 Se 0.13653(4) -0.00678(4) 0.35236(2) 0.01174(8) Uani 1 1 d D . . . .
O5 O 0.2426(3) -0.0211(3) 0.48265(15) 0.0144(4) Uani 1 1 d D . . . .
H5 H 0.290(5) -0.125(4) 0.485(2) 0.022 Uiso 1 1 d D U . . .
O6 O -0.0110(3) -0.2035(3) 0.30634(16) 0.0214(4) Uani 1 1 d . . . . .
O7 O 0.0444(3) 0.1923(3) 0.34129(16) 0.0209(4) Uani 1 1 d . . . . .
O8 O 0.0351(3) 0.3242(2) 0.03728(15) 0.0149(4) Uani 1 1 d . . . . .
O9 O 0.4039(3) 0.6696(3) 0.49697(15) 0.0173(4) Uani 1 1 d . . . . .
C1 C 0.1266(5) 0.3875(4) -0.0635(2) 0.0154(6) Uani 1 1 d . . . . .
H1A H 0.1353 0.2757 -0.1144 0.018 Uiso 1 1 calc R U . . .
H1B H 0.2810 0.4586 -0.0470 0.018 Uiso 1 1 calc R U . . .
C2 C 0.0269(5) 0.4853(4) 0.1153(2) 0.0148(6) Uani 1 1 d . . . . .
H2A H 0.1805 0.5570 0.1334 0.018 Uiso 1 1 calc R U . . .
H2B H -0.0320 0.4392 0.1839 0.018 Uiso 1 1 calc R U . . .
C3 C 0.4993(5) 0.5944(4) 0.4016(2) 0.0169(6) Uani 1 1 d . . . . .
H3A H 0.5604 0.7007 0.3582 0.020 Uiso 1 1 calc R U . . .
H3B H 0.3802 0.5098 0.3546 0.020 Uiso 1 1 calc R U . . .
C4 C 0.3133(5) 0.5170(4) 0.5619(2) 0.0169(6) Uani 1 1 d . . . . .
H4A H 0.1909 0.4310 0.5178 0.020 Uiso 1 1 calc R U . . .
H4B H 0.2492 0.5709 0.6268 0.020 Uiso 1 1 calc R U . . .
loop_
_atom_site_aniso_label
_atom_site_aniso_U_11
_atom_site_aniso_U_22
_atom_site_aniso_U_33
_atom_site_aniso_U_23
_atom_site_aniso_U_13
_atom_site_aniso_U_12
Se1 0.0169(10) 0.0194(14) 0.0146(9) 0.0063(7) 0.0069(7) 0.0129(8)
O1 0.0134(10) 0.0305(11) 0.0158(10) 0.0104(8) 0.0050(8) 0.0082(9)
O2 0.0188(10) 0.0111(9) 0.0200(10) 0.0044(8) -0.0016(8) 0.0044(8)
O3 0.013(4) 0.021(3) 0.028(4) 0.007(3) 0.003(3) 0.004(3)
O4 0.034(5) 0.030(5) 0.024(3) 0.005(4) 0.009(3) 0.024(4)
O3A 0.014(5) 0.020(4) 0.039(6) 0.013(4) 0.009(4) -0.002(4)
O4A 0.030(5) 0.022(5) 0.028(4) 0.003(4) 0.008(3) 0.019(4)
Se1A 0.0125(12) 0.0164(14) 0.0152(10) 0.0050(7) 0.0035(8) 0.0062(10)
Se2 0.01231(14) 0.01164(14) 0.01239(14) 0.00297(10) 0.00202(10) 0.00434(10)
O5 0.0171(10) 0.0135(9) 0.0141(10) 0.0025(8) 0.0014(8) 0.0072(8)
O6 0.0252(11) 0.0184(10) 0.0187(10) 0.0010(8) 0.0010(9) -0.0032(9)
O7 0.0252(11) 0.0177(10) 0.0233(11) 0.0073(8) 0.0027(9) 0.0125(9)
O8 0.0192(10) 0.0117(9) 0.0153(10) 0.0032(7) 0.0023(8) 0.0055(8)
O9 0.0217(11) 0.0136(9) 0.0195(10) 0.0050(8) 0.0061(8) 0.0086(8)
C1 0.0178(14) 0.0149(14) 0.0151(14) 0.0030(11) 0.0038(11) 0.0067(11)
C2 0.0195(15) 0.0133(13) 0.0128(13) 0.0001(10) 0.0023(11) 0.0059(11)
C3 0.0200(15) 0.0157(14) 0.0175(14) 0.0046(11) 0.0062(12) 0.0080(12)
C4 0.0184(15) 0.0155(14) 0.0188(14) 0.0054(11) 0.0053(11) 0.0052(12)
loop_
_atom_type_symbol
_atom_type_description
_atom_type_scat_dispersion_real
_atom_type_scat_dispersion_imag
_atom_type_scat_source
C C 0.0033 0.0016 'International Tables Vol C Tables 4.2.6.8 and 6.1.1.4'
H H 0.0000 0.0000 'International Tables Vol C Tables 4.2.6.8 and 6.1.1.4'
O O 0.0106 0.0060 'International Tables Vol C Tables 4.2.6.8 and 6.1.1.4'
Se Se -0.0929 2.2259 'International Tables Vol C Tables 4.2.6.8 and 6.1.1.4'
loop_
_geom_angle_atom_site_label_1
_geom_angle_atom_site_label_2
_geom_angle_atom_site_label_3
_geom_angle
_geom_angle_site_symmetry_3
O4 Se1 O3 119.9(7) .
O4 Se1 O2 114.9(7) .
O3 Se1 O2 111.6(7) .
O4 Se1 O1 102.8(7) .
O3 Se1 O1 104.4(7) .
O2 Se1 O1 100.1(4) .
Se2 O1 Se1A 122.8(3) .
Se2 O1 Se1 121.3(2) .
O3A Se1A O4A 122.7(8) .
O3A Se1A O2 112.6(8) .
O4A Se1A O2 109.6(8) .
O3A Se1A O1 106.8(8) .
O4A Se1A O1 101.9(8) .
O2 Se1A O1 100.1(4) .
O6 Se2 O7 121.70(10) .
O6 Se2 O5 110.85(10) .
O7 Se2 O5 109.45(9) .
O6 Se2 O1 107.53(10) .
O7 Se2 O1 108.26(10) .
O5 Se2 O1 95.90(9) .
C2 O8 C1 111.33(19) .
C4 O9 C3 111.0(2) .
O8 C1 C2 108.3(2) 2_565
O8 C2 C1 107.9(2) 2_565
O9 C3 C4 109.4(2) 2_666
O9 C4 C3 109.2(2) 2_666
loop_
_geom_bond_atom_site_label_1
_geom_bond_atom_site_label_2
_geom_bond_distance
_geom_bond_site_symmetry_2
Se1 O4 1.588(8) .
Se1 O3 1.601(8) .
Se1 O2 1.662(7) .
Se1 O1 1.797(7) .
O1 Se2 1.7709(19) .
O1 Se1A 1.785(8) .
O2 Se1A 1.676(7) .
O3A Se1A 1.584(9) .
O4A Se1A 1.595(9) .
Se2 O6 1.5921(19) .
Se2 O7 1.5928(18) .
Se2 O5 1.6871(18) .
O8 C2 1.457(3) .
O8 C1 1.458(3) .
O9 C4 1.447(3) .
O9 C3 1.447(3) .
C1 C2 1.505(3) 2_565
C2 C1 1.505(3) 2_565
C3 C4 1.514(3) 2_666
C4 C3 1.514(3) 2_666
loop_
_geom_hbond_atom_site_label_D
_geom_hbond_atom_site_label_H
_geom_hbond_atom_site_label_A
_geom_hbond_distance_DH
_geom_hbond_distance_HA
_geom_hbond_distance_DA
_geom_hbond_angle_DHA
_geom_hbond_site_symmetry_A
O2 H2 O8 0.85(3) 1.59(3) 2.436(2) 173(3) .
O5 H5 O9 0.83(3) 1.70(3) 2.524(2) 176(3) 1_545
