#------------------------------------------------------------------------------
#$Date: 2016-03-23 23:08:28 +0200 (Wed, 23 Mar 2016) $
#$Revision: 179502 $
#$URL: svn://www.crystallography.net/cod/cif/4/33/99/4339991.cif $
#------------------------------------------------------------------------------
#
# This file is available in the Crystallography Open Database (COD),
# http://www.crystallography.net/
#
# All data on this site have been placed in the public domain by the
# contributors.
#
data_4339991
loop_
_publ_author_name
'Richtera, Lukas'
'Jancik, Vojtech'
'Mart\'inez-Otero, Diego'
'Pokluda, Ales'
'Zak, Zdirad'
'Taraba, Jan'
'Touzin, Jiri'
_publ_section_title
;
 Taming the Oxidative Power of SeO3 in 1,4-Dioxane, Isolation of Two New
 Isomers of Mixed-Valence Selenium Oxides, and Two Unprecedented Cyclic
 Esters of Selenic Acid.
;
_journal_issue                   13
_journal_name_full               'Inorganic chemistry'
_journal_page_first              6569
_journal_page_last               6577
_journal_paper_doi               10.1021/ic500137z
_journal_volume                  53
_journal_year                    2014
_chemical_formula_moiety         'C4 H8 O5 Se'
_chemical_formula_sum            'C4 H8 O5 Se'
_chemical_formula_weight         215.06
_chemical_name_systematic
; 
 ? 
;
_space_group_crystal_system      triclinic
_space_group_IT_number           2
_space_group_name_Hall           '-P 1'
_space_group_name_H-M_alt        'P -1'
_symmetry_space_group_name_Hall  '-P 1'
_symmetry_space_group_name_H-M   'P -1'
_atom_sites_solution_hydrogens   geom
_atom_sites_solution_primary     direct
_atom_sites_solution_secondary   difmap
_audit_creation_method           SHELXL-2013
_cell_angle_alpha                118.799(5)
_cell_angle_beta                 93.758(4)
_cell_angle_gamma                105.026(4)
_cell_formula_units_Z            4
_cell_length_a                   7.3786(3)
_cell_length_b                   10.4307(6)
_cell_length_c                   10.6527(5)
_cell_measurement_reflns_used    9786
_cell_measurement_temperature    123(2)
_cell_measurement_theta_max      26.365
_cell_measurement_theta_min      3.266
_cell_volume                     676.11(7)
_computing_cell_refinement       '1.171.35.19 CrysAlis171'
_computing_data_collection       '1.169 CrysAlis169'
_computing_data_reduction        '1.171.35.19 CrysAlis171'
_computing_molecular_graphics    'Gretep and POV-Ray'
_computing_publication_material  'Bruker SHELXTL'
_computing_structure_refinement  'SHELXL-2013 (Sheldrick, 2013)'
_computing_structure_solution    'SHELXT (Sheldrick, 2013)'
_diffrn_ambient_temperature      123(2)
_diffrn_measured_fraction_theta_full 0.985
_diffrn_measured_fraction_theta_max 0.983
_diffrn_measurement_device_type  'KM4CCD/SAPPHIRE CCD'
_diffrn_measurement_method       '\w scans'
_diffrn_radiation_type           MoK\a
_diffrn_radiation_wavelength     0.71073
_diffrn_reflns_av_R_equivalents  0.0202
_diffrn_reflns_av_unetI/netI     0.0185
_diffrn_reflns_Laue_measured_fraction_full 0.985
_diffrn_reflns_Laue_measured_fraction_max 0.983
_diffrn_reflns_limit_h_max       9
_diffrn_reflns_limit_h_min       -9
_diffrn_reflns_limit_k_max       13
_diffrn_reflns_limit_k_min       -13
_diffrn_reflns_limit_l_max       13
_diffrn_reflns_limit_l_min       -13
_diffrn_reflns_number            9786
_diffrn_reflns_point_group_measured_fraction_full 0.985
_diffrn_reflns_point_group_measured_fraction_max 0.983
_diffrn_reflns_theta_full        25.242
_diffrn_reflns_theta_max         26.365
_diffrn_reflns_theta_min         3.266
_exptl_absorpt_coefficient_mu    5.516
_exptl_absorpt_correction_T_max  0.4319
_exptl_absorpt_correction_T_min  0.3828
_exptl_absorpt_correction_type   multi-scan
_exptl_absorpt_process_details   'Sadabs 2009/1, Sheldrick'
_exptl_crystal_colour            colourless
_exptl_crystal_density_diffrn    2.113
_exptl_crystal_description       prism
_exptl_crystal_F_000             424
_exptl_crystal_size_max          0.100
_exptl_crystal_size_mid          0.100
_exptl_crystal_size_min          0.050
_refine_diff_density_max         0.575
_refine_diff_density_min         -0.442
_refine_diff_density_rms         0.072
_refine_ls_extinction_method     none
_refine_ls_goodness_of_fit_ref   1.237
_refine_ls_hydrogen_treatment    constr
_refine_ls_matrix_type           full
_refine_ls_number_parameters     181
_refine_ls_number_reflns         2719
_refine_ls_number_restraints     0
_refine_ls_restrained_S_all      1.237
_refine_ls_R_factor_all          0.0234
_refine_ls_R_factor_gt           0.0218
_refine_ls_shift/su_max          0.000
_refine_ls_shift/su_mean         0.000
_refine_ls_structure_factor_coef Fsqd
_refine_ls_weighting_details
; 
 w=1/[\s^2^(Fo^2^)+(0.0150P)^2^+0.9032P] 
 where P=(Fo^2^+2Fc^2^)/3 
;
_refine_ls_weighting_scheme      calc
_refine_ls_wR_factor_gt          0.0546
_refine_ls_wR_factor_ref         0.0551
_reflns_Friedel_coverage         0.000
_reflns_number_gt                2573
_reflns_number_total             2719
_reflns_threshold_expression     'I > 2\s(I)'
_cod_data_source_file            ic500137z_si_002.cif
_cod_data_source_block           Compound5
_cod_depositor_comments
'Adding full bibliography for 4339987--4339996.cif.'
_cod_database_code               4339991
#BEGIN Tags that were not found in dictionaries:
_shelx_space_group_comment
; 
The symmetry employed for this shelxl refinement is uniquely defined 
by the following loop, which should always be used as a source of 
symmetry information in preference to the above space-group names. 
They are only intended as comments. 
;
_shelx_estimated_absorpt_t_min   0.608
_shelx_estimated_absorpt_t_max   0.770
_shelxl_version_number           2013-2
_shelx_res_file
; 
REM Solution 1  R1  0.093,  Alpha = 0.1352  in P-1 
REM C14 O4 Se2 
TITL test in P-1 
CELL  0.71073   7.3786  10.4307  10.6527  118.799   93.758  105.026 
ZERR    4.00   0.0003   0.0006   0.0005   0.005   0.004   0.004 
LATT 1 
  
SFAC C H O Se 
UNIT 16 32 20 4 
temp -150 
size 0.1 0.1 0.05 
  
L.S. 10 
PLAN  10 
BOND 
LIST 4 
fmap 2 
acta 
omit 3 -2 2 
omit -1 1 0 
eqiv $1 1+x, +y, +z 
eqiv $2 -1+x, +y, +z 
bind se2 o9 
bind se2 o10_$1 
bind se1 O5_$2 
WGHT    0.015000    0.903200 
FVAR       0.47406 
SE1   4    0.279463   -0.020671    0.227694    11.00000    0.01719    0.01577 = 
         0.01172    0.00774    0.00206    0.00390 
SE2   4    0.764527    0.533363    0.283117    11.00000    0.02336    0.01512 = 
         0.01160    0.00756    0.00208    0.00423 
O1    3    0.223501   -0.177115    0.071447    11.00000    0.01922    0.02001 = 
         0.02151    0.00018    0.00097    0.00308 
O2    3    0.271884   -0.030130    0.372485    11.00000    0.02036    0.05167 = 
         0.02390    0.02869    0.00872    0.01655 
O3    3    0.316299    0.139468    0.233443    11.00000    0.01600    0.02057 = 
         0.03751    0.01876    0.00525    0.00530 
O4    3    0.587582    0.011361    0.257994    11.00000    0.01346    0.01881 = 
         0.01446    0.01132    0.00462    0.00642 
O5    3    0.936373   -0.045322    0.203200    11.00000    0.01538    0.02251 = 
         0.01989    0.01470    0.00669    0.00955 
O6    3    0.761542    0.545626    0.139307    11.00000    0.02451    0.04248 = 
         0.01971    0.02318    0.00908    0.01706 
O7    3    0.683279    0.369970    0.270663    11.00000    0.02156    0.01836 = 
         0.03379    0.01548    0.00678    0.00513 
O8    3    0.842736    0.686506    0.442663    11.00000    0.01851    0.02008 = 
         0.01599    0.00237    0.00084    0.00515 
O9    3    0.463663    0.561572    0.283989    11.00000    0.01275    0.02149 = 
         0.01183    0.00768    0.00158    0.00597 
O10   3    0.069841    0.513902    0.282029    11.00000    0.01223    0.02252 = 
         0.01250    0.00891    0.00233    0.00488 
C1    1    0.671447    0.025043    0.142468    11.00000    0.01701    0.02072 = 
         0.01488    0.01310    0.00567    0.00742 
AFIX  23 
H1A   2    0.637041    0.104171    0.129369    11.00000   -1.20000 
H1B   2    0.620318   -0.075378    0.048183    11.00000   -1.20000 
AFIX   0 
C2    1    0.886748    0.071246    0.185820    11.00000    0.01827    0.02123 = 
         0.01955    0.01539    0.00599    0.00870 
AFIX  23 
H2A   2    0.945616    0.082460    0.109230    11.00000   -1.20000 
H2B   2    0.937633    0.172448    0.279350    11.00000   -1.20000 
AFIX   0 
C3    1    0.853516   -0.058025    0.317749    11.00000    0.01664    0.02334 = 
         0.01894    0.01625    0.00578    0.00694 
AFIX  23 
H3A   2    0.904120    0.043145    0.411326    11.00000   -1.20000 
H3B   2    0.890196   -0.135562    0.332295    11.00000   -1.20000 
AFIX   0 
C4    1    0.637846   -0.106308    0.276289    11.00000    0.01728    0.01936 = 
         0.02034    0.01462    0.00427    0.00634 
AFIX  23 
H4A   2    0.586344   -0.208132    0.183437    11.00000   -1.20000 
H4B   2    0.581082   -0.116179    0.354184    11.00000   -1.20000 
AFIX   0 
C5    1    0.317009    0.443004    0.152352    11.00000    0.01554    0.02090 = 
         0.01081    0.00506   -0.00002    0.00467 
AFIX  23 
H5A   2    0.281573    0.343380    0.149818    11.00000   -1.20000 
H5B   2    0.367394    0.427935    0.064121    11.00000   -1.20000 
AFIX   0 
C6    1    0.142435    0.492027    0.151923    11.00000    0.01463    0.02335 = 
         0.01177    0.00909    0.00253    0.00592 
AFIX  23 
H6A   2    0.177018    0.590067    0.151508    11.00000   -1.20000 
H6B   2    0.041551    0.411578    0.062368    11.00000   -1.20000 
AFIX   0 
C7    1    0.217130    0.631146    0.413990    11.00000    0.01621    0.02525 = 
         0.01032    0.00558    0.00072    0.00755 
AFIX  23 
H7A   2    0.166755    0.645785    0.502130    11.00000   -1.20000 
H7B   2    0.254025    0.731297    0.417527    11.00000   -1.20000 
AFIX   0 
C8    1    0.389987    0.579932    0.412792    11.00000    0.01749    0.02881 = 
         0.01223    0.01089    0.00316    0.00954 
AFIX  23 
H8A   2    0.490796    0.658204    0.503118    11.00000   -1.20000 
H8B   2    0.353381    0.480256    0.410168    11.00000   -1.20000 
AFIX   0 
HKLF 4 
  
REM  test in P-1 
REM R1 =  0.0218 for    2573 Fo > 4sig(Fo)  and  0.0234 for all    2719 data 
REM    181 parameters refined using      0 restraints 
  
END 
  
WGHT      0.0150      0.9031 
  
REM Highest difference peak  0.575,  deepest hole -0.442,  1-sigma level  0.072 
Q1    1   0.3493  0.1082  0.2927  11.00000  0.05    0.58 
Q2    1   0.2104 -0.1549  0.1613  11.00000  0.05    0.53 
Q3    1   0.8507  0.6553  0.3254  11.00000  0.05    0.51 
Q4    1   0.7147  0.4052  0.2011  11.00000  0.05    0.48 
Q5    1   0.1678 -0.2339  0.1217  11.00000  0.05    0.40 
Q6    1   0.3969  0.2321  0.3649  11.00000  0.05    0.38 
Q7    1   0.7700  0.5496  0.2154  11.00000  0.05    0.35 
Q8    1   0.4571  0.0196  0.2586  11.00000  0.05    0.34 
Q9    1   0.6471  0.2437  0.1203  11.00000  0.05    0.32 
Q10   1   0.7800  0.0519  0.1833  11.00000  0.05    0.32 
;
_shelx_res_checksum              21613
_shelx_hkl_file
; 
  -2   0   0 5418.26   86.19 
  -2   0   0 5340.87   75.69 
  -2   0   0 5156.88   83.59 
   2   0   0 5230.08   74.89 
   2   0   0 5244.17   73.99 
   2   0   0 5154.78   86.89 
  -3   0   0  133.59    5.30 
  -3   0   0  124.99    4.20 
  -3   0   0  131.39    5.10 
   3   0   0  132.09    5.40 
   3   0   0  135.89    4.40 
   3   0   0  135.09    4.30 
  -4   0   0  733.33   15.00 
  -4   0   0  698.63   18.20 
  -4   0   0  713.83   17.30 
   4   0   0  741.63   15.20 
   4   0   0  717.93   18.30 
   4   0   0  712.03   14.90 
  -5   0   0  128.69    5.80 
  -5   0   0  122.99    6.20 
   5   0   0  134.59    5.10 
   5   0   0  134.09    6.40 
   5   0   0  134.09    4.90 
  -6   0   0  346.97   11.80 
  -6   0   0  345.67   12.30 
   6   0   0  359.16    9.80 
   6   0   0  365.26   12.70 
   6   0   0  359.06   10.10 
  -7   0   0   16.70    2.50 
  -7   0   0   14.30    2.60 
   7   0   0   16.00    2.60 
   7   0   0   16.00    2.00 
  -8   0   0   21.70    3.00 
  -8   0   0   20.10    3.10 
   8   0   0   21.00    3.20 
   8  -1   0   21.10    2.50 
   8  -1   0   15.60    2.80 
  -8   1   0   22.10    3.20 
  -8   1   0   19.50    2.80 
   7  -1   0  403.56   14.60 
   7  -1   0  403.66   11.80 
  -7   1   0  412.46   14.20 
  -7   1   0  403.26   13.20 
   6  -1   0   11.90    1.60 
   6  -1   0   15.90    1.70 
   6  -1   0   14.00    2.20 
  -6   1   0   11.90    2.00 
  -6   1   0   14.40    2.30 
   5  -1   0  705.23   15.40 
   5  -1   0  682.53   15.10 
   5  -1   0  678.33   18.30 
  -5   1   0  663.23   18.20 
  -5   1   0  683.03   15.00 
  -5   1   0  654.73   16.90 
   4  -1   0   88.39    3.70 
   4  -1   0   88.89    3.80 
   4  -1   0   88.59    4.50 
  -4   1   0   84.89    4.10 
  -4   1   0   88.59    3.60 
  -4   1   0   76.99    4.60 
   3  -1   0 1013.00   19.30 
   3  -1   0 1040.40   20.60 
   3  -1   0 1027.50   22.90 
   3  -1   0 1027.50   19.40 
  -3   1   0  973.40   22.60 
  -3   1   0 1025.10   21.60 
  -3   1   0 1030.80   19.50 
   2  -1   0   25.80    1.50 
   2  -1   0   24.60    1.60 
   2  -1   0   23.80    1.80 
   2  -1   0   24.70    1.40 
  -2   1   0   26.00    1.50 
  -2   1   0   23.40    2.10 
  -2   1   0   23.70    1.60 
  -2   1   0   25.40    1.60 
  -1   1   0   11.50    1.00 
  -1  -1   0   44.10    2.10 
   1   1   0   47.30    2.10 
   1   1   0   46.50    1.60 
  -2  -1   0    7.90    1.00 
  -2  -1   0   10.20    1.10 
  -2  -1   0    8.70    0.70 
   2   1   0   10.10    0.80 
   2   1   0    9.10    0.80 
   2   1   0    8.20    1.10 
  -3  -1   0  516.05   13.30 
  -3  -1   0  508.55   10.90 
  -3  -1   0  537.95   13.50 
   3   1   0  534.25   11.20 
   3   1   0  518.35   11.30 
   3   1   0  521.25   13.90 
  -4  -1   0   53.39    3.40 
  -4  -1   0   54.59    3.40 
  -4  -1   0   51.69    2.30 
   4   1   0   54.99    2.60 
   4   1   0   53.59    3.50 
   4   1   0   52.79    2.60 
  -5  -1   0  238.88    8.90 
  -5  -1   0  248.08    9.30 
   5   1   0  247.88    7.20 
   5   1   0  238.18    7.30 
   5   1   0  252.87    9.40 
  -6  -1   0    6.50    1.60 
  -6  -1   0    1.00    1.40 
   6   1   0    3.70    1.50 
  -7  -1   0  290.47   11.90 
  -7  -1   0  295.37   11.40 
   7   1   0  311.97   12.40 
  -8  -1   0   25.30    3.60 
  -8  -1   0   19.70    3.20 
   8   1   0   17.00    3.10 
   9  -2   0   42.60    3.90 
  -9   2   0   55.99    4.90 
   8  -2   0   20.30    2.60 
   8  -2   0   22.60    3.30 
  -8   2   0   19.60    2.80 
   7  -2   0  221.68    9.90 
   7  -2   0  198.98    7.90 
   7  -2   0  217.48    7.90 
  -7   2   0  216.28    9.50 
  -7   2   0  202.48    8.40 
   6  -2   0  507.45   13.20 
   6  -2   0  519.65   16.00 
   6  -2   0  495.95   13.10 
  -6   2   0  509.45   12.90 
  -6   2   0  506.05   15.30 
  -6   2   0  488.55   14.10 
   5  -2   0  559.04   13.50 
   5  -2   0  572.44   16.00 
   5  -2   0  538.05   13.40 
  -5   2   0  539.65   14.40 
  -5   2   0  537.75   15.70 
  -5   2   0  557.54   13.30 
   4  -2   0 1064.79   23.90 
   4  -2   0 1041.70   21.20 
   4  -2   0 1011.60   20.20 
   4  -2   0  987.90   20.40 
  -4   2   0 1030.00   20.30 
  -4   2   0 1016.40   23.70 
  -4   2   0 1014.70   22.00 
   3  -2   0 1393.96   29.60 
   3  -2   0 1384.56   27.20 
   3  -2   0 1374.56   25.50 
   3  -2   0 1373.56   24.90 
  -3   2   0 1459.35   29.60 
  -3   2   0 1422.86   25.30 
  -3   2   0 1366.36   27.30 
   2  -2   0 3272.37   49.10 
   2  -2   0 3321.17   58.59 
   2  -2   0 3172.38   55.39 
  -2   2   0 3218.08   49.90 
  -2   2   0 3230.78   54.59 
  -2   2   0 3290.07   47.50 
   1  -2   0  273.07    7.10 
  -1   2   0  271.07    6.40 
  -1   2   0  294.37    5.80 
   0   2   0 9936.81  102.49 
   0   2   0 9999.00  102.49 
  -1  -2   0   83.39    3.30 
  -1  -2   0   89.49    3.60 
  -1  -2   0   82.29    3.50 
   1   2   0   84.09    2.90 
  -2  -2   0  632.24   14.30 
  -2  -2   0  629.74   15.10 
  -2  -2   0  634.54   15.10 
   2   2   0  639.94   12.50 
   2   2   0  617.64   12.90 
   2   2   0  651.63   15.50 
  -3  -2   0   77.19    3.10 
  -3  -2   0   83.99    4.00 
  -3  -2   0   77.69    4.00 
   3   2   0   75.39    4.00 
   3   2   0   74.99    3.00 
   3   2   0   77.09    2.90 
  -4  -2   0  419.96   12.30 
  -4  -2   0  406.16   12.10 
   4   2   0  409.76    9.90 
   4   2   0  436.36   12.80 
   4   2   0  408.76    9.80 
  -5  -2   0    2.30    1.20 
  -5  -2   0    1.70    1.20 
   5   2   0    3.70    1.30 
  -6  -2   0  375.86   12.90 
  -6  -2   0  401.76   13.40 
   6   2   0  391.46   13.70 
  -7  -2   0    3.50    1.90 
  -7  -2   0    0.00    1.50 
   7   2   0    3.30    1.70 
  -8  -2   0   37.50    4.30 
  -8  -2   0   37.30    4.30 
   8   2   0   33.30    4.20 
   9  -3   0   81.29    5.50 
  -9   3   0  104.59    6.60 
   8  -3   0  162.48    7.60 
   8  -3   0  167.08    9.30 
  -8   3   0  189.48    8.80 
   7  -3   0  335.27   12.80 
   7  -3   0  319.27   10.60 
  -7   3   0  320.67   10.20 
  -7   3   0  341.57   12.10 
   6  -3   0  328.17   12.10 
   6  -3   0  337.27   10.30 
  -6   3   0  345.07   11.80 
  -6   3   0  323.77    9.90 
  -6   3   0  335.87   10.50 
   5  -3   0  240.58    7.80 
   5  -3   0  238.88    9.30 
  -5   3   0  237.78    7.80 
  -5   3   0  248.88    9.30 
  -5   3   0  234.48    7.90 
   4  -3   0   71.49    3.60 
   4  -3   0   68.89    4.20 
   4  -3   0   76.69    3.40 
  -4   3   0   72.19    3.50 
  -4   3   0   75.99    4.50 
  -4   3   0   69.79    3.50 
   3  -3   0   27.40    2.30 
   3  -3   0   28.10    2.00 
   3  -3   0   29.10    2.00 
  -3   3   0   28.70    1.80 
  -3   3   0   26.30    1.90 
   2  -3   0   31.00    1.90 
   2  -3   0   32.50    2.00 
   2  -3   0   30.90    2.20 
  -2   3   0   31.00    1.90 
  -2   3   0   28.00    1.60 
  -2   3   0   32.60    1.70 
   1  -3   0   10.90    1.00 
   1  -3   0   10.50    1.20 
  -1   3   0    9.90    1.00 
  -1   3   0   10.70    0.80 
   0  -3   0   35.40    2.20 
   0  -3   0   33.20    2.10 
   0  -3   0   35.30    1.60 
   0   3   0   32.90    1.80 
   0   3   0   37.60    1.80 
  -1  -3   0  162.68    5.40 
  -1  -3   0  135.99    3.90 
  -1  -3   0  154.08    5.30 
  -1  -3   0  144.49    5.40 
   1   3   0  152.48    4.50 
  -2  -3   0   84.39    4.10 
  -2  -3   0   86.19    2.80 
  -2  -3   0   90.99    4.10 
  -2  -3   0   86.59    3.70 
   2   3   0   86.09    3.20 
   2   3   0   89.79    4.00 
  -3  -3   0  433.56   11.20 
  -3  -3   0  463.25   12.60 
  -3  -3   0  427.86   12.40 
   3   3   0  437.86   10.30 
   3   3   0  461.15   12.80 
  -4  -3   0    3.50    1.30 
  -4  -3   0    1.70    1.30 
   4   3   0    1.70    1.00 
  -5  -3   0  274.97   10.20 
  -5  -3   0  258.57    9.90 
   5   3   0  266.47   10.30 
  -6  -3   0   35.10    3.60 
  -6  -3   0   41.50    3.90 
   6   3   0   37.20    3.70 
  -7  -3   0  337.27   13.10 
  -7  -3   0  313.37   12.60 
   7   3   0  334.37   13.50 
   9  -4   0   57.49    5.70 
   9  -4   0   54.09    4.50 
  -9   4   0   65.69    5.30 
   8  -4   0   29.30    3.20 
   8  -4   0   30.60    3.80 
  -8   4   0   29.20    3.40 
   7  -4   0  371.36   13.90 
   7  -4   0  363.46   11.60 
  -7   4   0  383.46   13.00 
  -7   4   0  366.96   11.40 
   6  -4   0  259.37   10.20 
   6  -4   0  239.98    8.50 
  -6   4   0  224.68    9.40 
  -6   4   0  243.48    8.40 
   5  -4   0  489.65   12.90 
   5  -4   0  478.65   14.90 
   5  -4   0  477.95   12.50 
  -5   4   0  465.75   14.60 
  -5   4   0  469.25   12.50 
   4  -4   0  181.58    6.60 
   4  -4   0  187.68    7.60 
   4  -4   0  184.88    6.40 
  -4   4   0  179.68    6.00 
  -4   4   0  172.08    7.70 
  -4   4   0  176.88    6.30 
   3  -4   0 1356.36   29.20 
   3  -4   0 1323.07   27.20 
   3  -4   0 1325.17   24.30 
  -3   4   0 1270.17   25.70 
  -3   4   0 1293.87   24.70 
   2  -4   0  188.18    5.80 
   2  -4   0  183.88    6.60 
  -2   4   0  187.98    6.00 
   1  -4   0  570.74   12.10 
   1  -4   0  571.54   14.20 
  -1   4   0  565.84   12.70 
   0  -4   0 1320.67   27.10 
   0  -4   0 1326.17   27.20 
   0  -4   0 1268.47   22.80 
   0   4   0 1347.77   24.00 
   0   4   0 1363.46   24.00 
  -1  -4   0  843.62   19.30 
  -1  -4   0  784.92   15.10 
  -1  -4   0  853.61   19.00 
   1   4   0  866.61   16.40 
   1   4   0  862.01   16.60 
  -2  -4   0  884.61   20.40 
  -2  -4   0  900.21   20.20 
  -2  -4   0  846.82   19.60 
   2   4   0  885.21   17.20 
   2   4   0  880.71   20.30 
  -3  -4   0  588.34   14.80 
  -3  -4   0  607.84   16.00 
  -3  -4   0  612.44   16.10 
   3   4   0  630.54   16.30 
  -4  -4   0  608.54   16.70 
   4   4   0  619.74   17.20 
  -5  -4   0   27.30    3.10 
  -5  -4   0   28.10    3.00 
   5   4   0   28.80    3.00 
  -6  -4   0  296.07   11.70 
   6   4   0  289.17   11.90 
  -7  -4   0    2.80    2.20 
   9  -5   0    9.10    2.50 
   9  -5   0    4.50    1.70 
  -9   5   0   12.20    2.60 
   8  -5   0  280.07   12.20 
   8  -5   0  270.57   10.30 
  -8   5   0  271.57   10.10 
  -8   5   0  294.57   11.30 
   7  -5   0   40.90    3.50 
   7  -5   0   43.20    4.00 
  -7   5   0   46.70    3.60 
  -7   5   0   49.40    4.10 
   6  -5   0  255.87   10.40 
   6  -5   0  269.07    9.10 
  -6   5   0  258.97   10.30 
  -6   5   0  255.27    9.00 
   5  -5   0    5.30    1.50 
   5  -5   0    3.20    1.00 
   5  -5   0    2.70    1.00 
  -5   5   0    8.20    2.00 
  -5   5   0    2.10    1.10 
   4  -5   0    6.10    1.20 
   4  -5   0    7.80    1.40 
   4  -5   0    5.40    1.30 
  -4   5   0    8.10    1.30 
   3  -5   0    4.00    0.90 
   3  -5   0    5.40    1.10 
  -3   5   0    4.00    0.70 
  -3   5   0    2.80    1.00 
   2  -5   0   42.60    2.40 
   2  -5   0   41.90    2.80 
  -2   5   0   40.20    2.60 
   1  -5   0   49.70    3.10 
   1  -5   0   51.99    3.10 
   1  -5   0   49.80    2.40 
  -1   5   0   51.19    2.80 
   0  -5   0   64.79    3.60 
   0  -5   0   60.09    2.50 
   0  -5   0   65.59    3.60 
   0   5   0   64.29    3.10 
   0   5   0   64.69    3.00 
  -1  -5   0  411.96   11.90 
  -1  -5   0  409.26   11.70 
   1   5   0  420.36   10.10 
  -2  -5   0  318.87   10.30 
  -2  -5   0  323.07    9.90 
   2   5   0  318.87    8.40 
   2   5   0  329.67   10.00 
  -3  -5   0  432.66   13.10 
  -4  -5   0  256.17    9.80 
  -5  -5   0  152.08    7.70 
  -6  -5   0  187.58    9.40 
   8  -6   0    0.60    1.30 
   8  -6   0    1.50    1.70 
  -8   6   0    1.30    1.70 
  -8   6   0    2.60    1.60 
   7  -6   0  271.67    9.80 
   7  -6   0  259.27   11.40 
  -7   6   0  274.67   11.20 
  -7   6   0  271.77    9.80 
   6  -6   0   17.50    2.20 
   6  -6   0   25.10    3.00 
  -6   6   0   22.20    2.50 
  -6   6   0   24.60    3.20 
   5  -6   0  368.36   10.70 
   5  -6   0  339.67   12.60 
   5  -6   0  361.66   11.60 
  -5   6   0  366.56   11.10 
   4  -6   0   96.19    5.00 
   4  -6   0   89.59    4.40 
  -4   6   0   94.89    4.80 
   3  -6   0 1744.83   30.90 
   3  -6   0 1779.22   36.00 
  -3   6   0 1718.03   32.10 
   2  -6   0  176.58    5.80 
   2  -6   0  173.48    7.10 
  -2   6   0  188.58    6.60 
   1  -6   0 1891.81   32.50 
   1  -6   0 2036.40   39.30 
   1  -6   0 1974.90   39.20 
  -1   6   0 2039.20   34.90 
  -1   6   0 2041.90   35.50 
   0  -6   0  567.44   15.40 
   0  -6   0  588.94   15.60 
   0   6   0  599.14   13.90 
   0   6   0  581.44   13.50 
  -1  -6   0 1711.23   34.80 
  -1  -6   0 1680.13   34.40 
   1   6   0 1701.33   30.00 
  -2  -6   0  606.74   16.10 
  -2  -6   0  620.54   16.70 
  -3  -6   0  521.45   15.30 
  -4  -6   0  189.28    8.50 
  -5  -6   0   26.20    3.30 
   8  -7   0  115.69    7.50 
   8  -7   0  122.29    6.70 
  -8   7   0  121.49    6.70 
  -8   7   0  119.49    7.40 
   7  -7   0   21.80    2.80 
   7  -7   0   18.30    2.90 
  -7   7   0   21.00    2.80 
  -7   7   0   21.20    3.30 
   6  -7   0  146.49    6.60 
  -6   7   0  159.68    8.40 
  -6   7   0  149.09    7.00 
   5  -7   0    3.50    1.40 
   5  -7   0    4.60    1.20 
  -5   7   0    4.30    1.40 
   4  -7   0   33.70    2.60 
   4  -7   0   31.70    3.00 
  -4   7   0   26.80    2.60 
   3  -7   0   20.10    2.30 
   3  -7   0   20.90    1.90 
  -3   7   0   15.60    2.00 
   2  -7   0   26.80    2.00 
   2  -7   0   28.30    2.70 
  -2   7   0   31.80    2.70 
   1  -7   0   66.09    4.10 
  -1   7   0   59.59    3.50 
  -1   7   0   63.09    3.80 
   0  -7   0   83.89    4.70 
   0  -7   0   76.59    4.60 
   0   7   0   77.89    3.90 
  -1  -7   0  192.28    7.70 
  -1  -7   0  193.58    8.00 
  -2  -7   0  285.77   10.30 
  -2  -7   0  272.37    9.70 
  -3  -7   0   92.39    5.50 
  -4  -7   0  206.28    9.20 
   8  -8   0   35.80    3.70 
  -8   8   0   34.30    3.60 
  -8   8   0   36.20    4.30 
   7  -8   0  281.17   10.50 
  -7   8   0  322.67   13.10 
  -7   8   0  289.07   11.00 
   6  -8   0    1.60    1.40 
   6  -8   0    2.30    1.20 
  -6   8   0    4.30    1.80 
   5  -8   0  471.15   14.90 
   5  -8   0  447.26   12.70 
  -5   8   0  453.65   13.60 
   4  -8   0    7.70    1.80 
   4  -8   0    4.50    1.10 
  -4   8   0   10.00    1.90 
   3  -8   0 1374.86   30.90 
  -3   8   0 1352.26   27.90 
   2  -8   0    1.40    1.10 
  -2   8   0    1.30    1.20 
  -2   8   0    3.00    1.30 
   1  -8   0 1088.29   26.40 
  -1   8   0 1167.28   23.40 
   0  -8   0   12.30    1.90 
   0  -8   0   11.60    2.00 
  -1  -8   0  521.95   15.50 
  -1  -8   0  535.75   15.80 
  -2  -8   0   99.49    5.50 
  -2  -8   0   98.59    5.90 
  -3  -8   0  129.29    7.10 
  -4  -8   0    1.10    1.30 
   7  -9   0    5.90    1.50 
  -7   9   0    3.50    2.00 
  -7   9   0    6.60    2.90 
   6  -9   0  100.69    6.30 
   6  -9   0   92.39    5.30 
  -6   9   0   82.69    5.60 
   5  -9   0   18.00    2.20 
   5  -9   0   22.10    3.00 
  -5   9   0   20.90    2.80 
   4  -9   0   17.60    2.60 
  -4   9   0   15.40    2.40 
   3  -9   0    6.90    1.80 
  -3   9   0    4.20    1.50 
   2  -9   0    0.70    1.40 
  -2   9   0    0.00    1.30 
  -2   9   0    2.10    1.40 
   1  -9   0   77.39    5.10 
  -1   9   0   76.59    4.40 
   0  -9   0   51.29    4.30 
   0  -9   0   54.89    4.20 
  -1  -9   0   30.70    3.30 
  -1  -9   0   28.50    3.00 
  -2  -9   0  133.49    7.30 
   6 -10   0   51.89    4.70 
   6 -10   0   49.99    4.00 
  -6  10   0   45.30    4.30 
   5 -10   0  169.58    8.80 
  -5  10   0  168.68    8.20 
   4 -10   0   46.00    4.30 
  -4  10   0   46.00    4.20 
   3 -10   0  307.27   12.20 
  -3  10   0  330.07   11.60 
  -3  10   0  312.67   11.20 
   2 -10   0   91.39    6.00 
  -2  10   0   86.69    5.30 
   1 -10   0  288.37   11.50 
   0 -10   0   17.50    2.70 
  -1 -10   0  188.28    9.10 
  -1 -10   0  182.98    8.70 
   5 -11   0   14.20    2.70 
  -5  11   0    7.50    2.40 
   4 -11   0    2.50    1.60 
  -4  11   0    2.50    1.90 
  -4  11   0    3.80    1.70 
   3 -11   0    2.90    1.70 
  -3  11   0    4.30    1.80 
   2 -11   0   14.40    2.60 
   1 -11   0   37.70    4.10 
   0 -11   1  214.88    9.80 
   1 -11   1    6.90    2.10 
   2 -11   1  289.57   11.80 
  -3  11  -1   57.19    4.60 
   3 -11   1   57.79    4.90 
  -4  11  -1  268.67   10.50 
   4 -11   1  266.87   11.60 
  -5  11  -1   58.29    4.70 
   5 -11   1   63.39    5.30 
  -6  11  -1  160.18    8.40 
   6 -11   1  168.88    9.10 
  -2 -10   1   17.10    2.80 
  -1 -10   1   88.49    5.80 
  -1 -10   1   85.79    5.60 
   0 -10   1    2.00    1.40 
   1 -10   1   17.90    2.50 
  -2  10  -1   64.19    4.30 
   2 -10   1   58.09    4.70 
  -3  10  -1    1.20    1.30 
   3 -10   1    0.00    1.50 
  -4  10  -1    0.00    1.40 
   4 -10   1    0.00    1.40 
  -5  10  -1   66.99    4.80 
   5 -10   1   76.79    5.60 
  -6  10  -1    8.50    2.30 
   6 -10   1    7.30    2.30 
   6 -10   1    8.80    1.80 
  -7  10  -1  112.09    8.00 
   7 -10   1   84.89    5.50 
  -3  -9   1    1.10    1.60 
  -2  -9   1  150.18    7.30 
  -2  -9   1  154.38    7.70 
  -1  -9   1   14.90    2.30 
  -1  -9   1   12.50    2.20 
   0  -9   1  438.86   14.10 
   0  -9   1  449.95   14.30 
   1  -9   1   37.00    3.40 
  -2   9  -1  667.13   16.80 
   2  -9   1  666.43   18.70 
  -3   9  -1   14.30    2.00 
   3  -9   1   15.80    2.30 
  -4   9  -1  812.92   19.70 
   4  -9   1  820.92   22.00 
   4  -9   1  827.52   18.20 
  -5   9  -1    0.00    1.60 
   5  -9   1    2.30    1.20 
   5  -9   1    0.70    1.20 
  -6   9  -1  642.84   17.80 
   6  -9   1  651.33   16.90 
   6  -9   1  669.93   19.50 
  -7   9  -1   14.20    2.60 
  -7   9  -1   13.80    3.00 
   7  -9   1   15.10    2.50 
  -4  -8   1   27.30    3.20 
  -3  -8   1  160.18    7.80 
  -2  -8   1   23.70    2.60 
  -2  -8   1   21.00    2.60 
  -1  -8   1   79.79    4.90 
  -1  -8   1   84.09    4.90 
   0  -8   1   11.10    1.90 
   0  -8   1   11.10    1.90 
  -1   8  -1   87.89    4.50 
  -1   8  -1   86.49    4.30 
   1  -8   1   84.39    5.00 
  -2   8  -1   98.89    4.80 
   2  -8   1  102.69    5.50 
  -3   8  -1    3.20    1.30 
   3  -8   1    1.20    0.70 
   3  -8   1    4.50    1.70 
  -4   8  -1   62.89    4.00 
   4  -8   1   60.69    3.50 
   4  -8   1   62.19    4.30 
  -5   8  -1  114.29    5.90 
   5  -8   1  120.69    6.40 
   5  -8   1  124.09    5.60 
  -6   8  -1   19.60    3.30 
  -6   8  -1   28.70    3.00 
   6  -8   1   25.10    2.60 
  -7   8  -1   74.39    5.10 
  -7   8  -1   78.29    6.00 
   7  -8   1   78.49    5.00 
  -8   8  -1    1.30    1.80 
  -8   8  -1    3.00    1.80 
   8  -8   1    1.90    1.60 
  -5  -7   1   44.90    4.20 
  -4  -7   1  129.59    6.90 
  -3  -7   1  113.49    6.00 
  -2  -7   1  271.67    9.40 
  -2  -7   1  261.27    9.60 
  -1  -7   1  302.27   10.10 
  -1  -7   1  298.87   10.20 
   0   7  -1 1060.59   21.00 
   0  -7   1 1059.29   24.20 
   0  -7   1 1052.49   24.40 
  -1   7  -1  802.12   17.30 
   1  -7   1  771.12   19.60 
  -2   7  -1  902.81   19.10 
   2  -7   1  881.71   17.50 
   2  -7   1  886.51   21.50 
  -3   7  -1  340.87    9.90 
   3  -7   1  323.87    9.00 
   3  -7   1  335.27   11.00 
  -4   7  -1  889.51   19.90 
   4  -7   1  931.01   22.30 
   4  -7   1  902.01   19.10 
  -5   7  -1    3.90    1.30 
   5  -7   1    4.30    1.30 
   5  -7   1    3.60    1.20 
  -6   7  -1  726.03   18.20 
  -6   7  -1  737.03   21.20 
   6  -7   1  714.83   20.70 
   6  -7   1  745.33   17.90 
  -7   7  -1   17.90    2.90 
  -7   7  -1   17.60    2.40 
   7  -7   1   12.80    2.40 
   7  -7   1   10.50    2.00 
  -8   7  -1   92.29    5.80 
  -8   7  -1   91.49    6.30 
   8  -7   1   89.39    5.60 
   8  -7   1   89.69    6.40 
  -6  -6   1  182.98    9.30 
  -5  -6   1  107.99    6.40 
  -4  -6   1  254.27   10.00 
  -4  -6   1  261.97   10.00 
  -3  -6   1  132.79    6.40 
  -3  -6   1  139.49    6.40 
  -2  -6   1   22.00    2.20 
  -2  -6   1   19.50    2.00 
   1   6  -1   23.60    1.70 
  -1  -6   1   21.80    2.20 
  -1  -6   1   25.00    2.20 
   0   6  -1   66.89    3.20 
   0   6  -1   66.99    3.10 
   0  -6   1   69.39    3.90 
   0  -6   1   71.09    3.90 
  -1   6  -1  204.58    6.50 
   1  -6   1  198.58    5.60 
   1  -6   1  214.28    7.60 
  -2   6  -1   21.50    1.90 
  -2   6  -1   20.50    1.40 
   2  -6   1   18.20    1.50 
   2  -6   1   19.30    2.00 
  -3   6  -1   15.90    1.50 
  -3   6  -1   16.20    1.80 
   3  -6   1   17.30    1.90 
   3  -6   1   17.00    1.50 
  -4   6  -1  175.68    5.90 
  -4   6  -1  165.18    6.40 
   4  -6   1  170.98    6.90 
   4  -6   1  172.78    7.40 
   4  -6   1  177.38    6.20 
  -5   6  -1  255.77    8.80 
  -5   6  -1  279.87   11.00 
   5  -6   1  286.17    8.90 
   5  -6   1  262.67   10.20 
   5  -6   1  270.27    9.40 
  -6   6  -1   34.20    3.60 
  -6   6  -1   41.40    3.20 
   6  -6   1   41.60    3.20 
   6  -6   1   39.10    3.70 
  -7   6  -1  191.28    8.90 
  -7   6  -1  189.48    7.80 
   7  -6   1  186.18    7.90 
   7  -6   1  178.98    9.00 
  -8   6  -1    4.40    2.20 
  -8   6  -1    0.00    1.70 
   8  -6   1    0.00    1.40 
   8  -6   1    1.40    1.20 
  -9   6  -1  174.08    8.80 
   9  -6   1  149.59    9.10 
   9  -6   1  148.59    7.80 
  -6  -5   1   24.10    3.30 
  -6  -5   1   24.30    3.20 
  -5  -5   1  214.68    9.30 
  -5  -5   1  223.18    9.20 
  -4  -5   1  220.78    8.60 
  -4  -5   1  223.28    8.80 
   3   5  -1  822.22   20.10 
  -3  -5   1  830.32   20.10 
  -3  -5   1  790.22   18.90 
  -3  -5   1  836.02   20.10 
   2   5  -1  301.97    9.30 
  -2  -5   1  308.87    9.40 
  -2  -5   1  305.97    9.70 
  -2  -5   1  305.07    9.60 
   1   5  -1  768.42   15.30 
   1   5  -1  746.93   17.40 
   1   5  -1  794.32   15.40 
  -1  -5   1  754.02   18.00 
  -1  -5   1  768.32   18.00 
  -1  -5   1  761.42   17.80 
   0   5  -1 1385.06   24.60 
   0   5  -1 1381.06   24.60 
   0  -5   1 1430.26   28.30 
   0  -5   1 1306.17   22.90 
   0  -5   1 1405.06   28.20 
  -1   5  -1  490.15   11.30 
  -1   5  -1  500.15    9.80 
   1  -5   1  488.75   10.50 
   1  -5   1  488.05   13.10 
  -2   5  -1  655.73   12.80 
  -2   5  -1  644.64   14.20 
   2  -5   1  657.53   16.10 
   2  -5   1  646.64   13.50 
  -3   5  -1  599.24   13.90 
  -3   5  -1  618.94   12.80 
   3  -5   1  603.74   16.00 
   3  -5   1  625.84   13.60 
   3  -5   1  616.04   15.50 
  -4   5  -1  699.63   15.80 
  -4   5  -1  689.53   14.80 
   4  -5   1  705.43   15.60 
   4  -5   1  694.63   17.10 
   4  -5   1  697.23   18.30 
  -5   5  -1   30.40    3.30 
  -5   5  -1   33.70    2.70 
   5  -5   1   32.40    3.10 
   5  -5   1   32.40    2.50 
   5  -5   1   31.50    2.60 
  -6   5  -1  474.15   12.80 
  -6   5  -1  470.05   15.10 
   6  -5   1  466.55   15.20 
   6  -5   1  465.15   12.90 
  -7   5  -1   53.89    3.90 
  -7   5  -1   59.39    4.50 
   7  -5   1   51.29    4.50 
   7  -5   1   47.30    3.70 
  -8   5  -1   45.30    4.30 
  -8   5  -1   52.59    3.90 
   8  -5   1   42.50    4.50 
   8  -5   1   51.99    4.10 
  -9   5  -1    5.40    1.80 
   9  -5   1    2.80    1.40 
   9  -5   1    4.70    2.10 
   7   4  -1   13.20    2.80 
  -7  -4   1   19.10    3.20 
  -7  -4   1   15.80    2.70 
   6   4  -1  465.65   16.00 
  -6  -4   1  490.05   15.60 
  -6  -4   1  447.26   15.20 
   5   4  -1    5.20    1.50 
  -5  -4   1    4.70    1.40 
  -5  -4   1    7.80    2.00 
   4   4  -1  484.85   14.60 
  -4  -4   1  495.45   14.30 
  -4  -4   1  496.05   14.00 
   3   4  -1   44.90    3.00 
  -3  -4   1   41.60    2.90 
  -3  -4   1   42.50    3.00 
  -3  -4   1   39.80    2.50 
   2   4  -1   56.09    2.30 
   2   4  -1   56.99    3.10 
   2   4  -1   57.39    2.40 
  -2  -4   1   58.39    3.30 
  -2  -4   1   60.09    3.10 
  -2  -4   1   61.69    3.30 
   1   4  -1    8.90    0.80 
   1   4  -1    8.20    0.90 
   1   4  -1    8.50    0.60 
   1   4  -1   10.60    0.90 
  -1  -4   1   10.10    1.20 
  -1  -4   1    9.00    1.20 
  -1  -4   1    7.80    1.10 
   0   4  -1  129.59    4.20 
   0  -4   1  137.09    4.60 
   0  -4   1  133.99    5.00 
   0  -4   1  126.69    3.60 
   0  -4   1  134.59    5.10 
  -1   4  -1  225.68    5.30 
  -1   4  -1  214.58    6.20 
   1  -4   1  219.48    7.10 
   1  -4   1  222.48    5.70 
  -2   4  -1    4.50    0.70 
  -2   4  -1    5.00    0.80 
   2  -4   1    5.50    1.00 
   2  -4   1    5.00    0.90 
   2  -4   1    5.30    0.70 
  -3   4  -1  547.75   11.70 
  -3   4  -1  537.45   12.30 
  -3   4  -1  545.45   12.50 
   3  -4   1  547.65   14.50 
   3  -4   1  550.24   12.30 
   3  -4   1  552.84   13.70 
  -4   4  -1  240.08    7.00 
  -4   4  -1  252.37    9.40 
  -4   4  -1  233.28    7.10 
  -4   4  -1  243.78    7.40 
   4  -4   1  244.38    7.40 
   4  -4   1  235.58    8.70 
   4  -4   1  245.28    7.70 
  -5   4  -1  557.14   13.50 
  -5   4  -1  580.74   16.80 
  -5   4  -1  570.84   13.70 
   5  -4   1  571.34   16.30 
   5  -4   1  584.04   13.90 
   5  -4   1  561.34   14.30 
  -6   4  -1  237.88    8.10 
  -6   4  -1  242.18    9.90 
   6  -4   1  230.88    9.80 
   6  -4   1  238.78    8.50 
   6  -4   1  245.08    8.40 
  -7   4  -1  293.57    9.60 
  -7   4  -1  288.47   11.20 
   7  -4   1  286.27   11.60 
   7  -4   1  280.97    9.90 
  -8   4  -1  108.69    6.60 
   8  -4   1   96.19    6.70 
   8  -4   1   92.49    5.60 
  -9   4  -1  161.38    8.60 
   9  -4   1  135.59    8.70 
   9  -4   1  140.99    7.40 
   7   3  -1  138.59    8.20 
  -7  -3   1  134.59    7.60 
  -7  -3   1  133.19    7.60 
   6   3  -1   14.10    2.30 
  -6  -3   1   15.90    2.60 
  -6  -3   1   12.60    2.10 
   5   3  -1  211.08    8.90 
  -5  -3   1  217.08    8.40 
  -5  -3   1  208.78    8.70 
   4   3  -1  164.18    7.00 
  -4  -3   1  169.48    6.80 
  -4  -3   1  163.48    7.00 
   3   3  -1  824.32   15.80 
   3   3  -1  837.32   16.20 
   3   3  -1  849.81   20.10 
  -3  -3   1  838.92   18.50 
  -3  -3   1  863.61   19.60 
  -3  -3   1  879.51   19.90 
   2   3  -1  328.17    7.40 
   2   3  -1  339.87    9.80 
   2   3  -1  347.17    7.90 
  -2  -3   1  355.66    9.90 
  -2  -3   1  350.36    9.70 
  -2  -3   1  353.86    9.40 
   1   3  -1  242.28    5.80 
   1   3  -1  227.08    5.50 
   1   3  -1  232.28    7.00 
   1   3  -1  243.48    5.90 
  -1  -3   1  250.97    7.20 
  -1  -3   1  239.48    7.20 
  -1  -3   1  237.88    7.20 
   0   3  -1 1960.80   33.10 
   0  -3   1 2080.29   37.80 
   0  -3   1 2092.69   36.90 
   0  -3   1 2080.09   38.00 
  -1   3  -1  555.54   11.90 
  -1   3  -1  577.54   10.90 
   1  -3   1  554.84   13.40 
   1  -3   1  578.04   11.40 
  -2   3  -1  693.33   14.40 
  -2   3  -1  717.23   13.50 
   2  -3   1  720.13   14.10 
   2  -3   1  702.63   15.00 
   2  -3   1  699.63   16.40 
   2  -3   1  702.73   15.90 
  -3   3  -1 4673.43   65.79 
  -3   3  -1 4885.31   80.49 
  -3   3  -1 4647.44   75.19 
  -3   3  -1 4779.82   70.19 
   3  -3   1 4577.94   70.09 
   3  -3   1 4701.93   80.39 
   3  -3   1 4661.73   77.29 
   3  -3   1 4800.72   68.69 
  -4   3  -1  445.46   10.80 
  -4   3  -1  439.86   11.20 
  -4   3  -1  423.86   10.60 
  -4   3  -1  439.06   13.70 
   4  -3   1  446.76   11.20 
   4  -3   1  438.66   10.90 
   4  -3   1  452.85   12.80 
   4  -3   1  431.66   11.20 
  -5   3  -1  961.20   19.60 
  -5   3  -1  937.91   23.20 
  -5   3  -1  920.01   20.80 
   5  -3   1  945.41   20.00 
   5  -3   1  955.50   19.80 
   5  -3   1  962.40   23.30 
  -6   3  -1  280.37   10.60 
  -6   3  -1  280.27    8.60 
  -6   3  -1  271.47    9.20 
   6  -3   1  272.97   10.50 
   6  -3   1  276.87    9.00 
   6  -3   1  279.47    9.00 
  -7   3  -1  289.87   11.60 
   7  -3   1  279.27    9.70 
   7  -3   1  288.17    9.70 
   7  -3   1  300.47   11.70 
  -8   3  -1  119.19    7.10 
   8  -3   1  111.09    6.10 
   8  -3   1  118.89    6.00 
   8  -3   1  115.39    7.40 
  -9   3  -1   17.70    3.20 
   9  -3   1   12.50    2.50 
   8   2  -1  130.79    8.50 
  -8  -2   1  129.99    7.90 
  -8  -2   1  133.19    7.90 
   7   2  -1   17.20    2.80 
  -7  -2   1   19.30    3.00 
  -7  -2   1   18.80    2.90 
   6   2  -1  323.37   12.30 
  -6  -2   1  316.47   11.70 
  -6  -2   1  341.17   11.80 
   5   2  -1    2.50    1.30 
  -5  -2   1    0.00    1.00 
  -5  -2   1    0.20    1.10 
   4   2  -1  347.67    8.80 
   4   2  -1  354.86   11.40 
   4   2  -1  346.27    8.50 
  -4  -2   1  364.16   10.80 
  -4  -2   1  358.06   11.00 
   3   2  -1  134.99    4.20 
   3   2  -1  131.39    5.50 
   3   2  -1  135.19    4.10 
  -3  -2   1  131.29    5.20 
  -3  -2   1  128.99    5.40 
   2   2  -1  187.08    4.90 
   2   2  -1  187.58    6.40 
   2   2  -1  192.78    4.90 
  -2  -2   1  191.08    6.40 
  -2  -2   1  189.18    6.10 
  -2  -2   1  192.78    5.90 
   1   2  -1  165.48    5.40 
  -1  -2   1  170.68    5.30 
  -1  -2   1  174.38    5.50 
  -1  -2   1  172.48    5.40 
  -1   2  -1   23.80    1.10 
  -1   2  -1   21.90    1.20 
   1  -2   1   22.30    1.30 
   1  -2   1   23.40    1.40 
  -2   2  -1  250.57    6.20 
  -2   2  -1  248.88    6.60 
  -2   2  -1  248.38    6.40 
  -2   2  -1  243.88    8.40 
   2  -2   1  237.58    6.60 
   2  -2   1  252.27    6.40 
   2  -2   1  242.58    7.40 
   2  -2   1  250.47    6.90 
  -3   2  -1  128.49    4.40 
  -3   2  -1  127.89    4.30 
  -3   2  -1  119.09    5.60 
  -3   2  -1  127.79    4.50 
   3  -2   1  130.09    4.30 
   3  -2   1  122.49    4.40 
   3  -2   1  131.79    4.40 
   3  -2   1  128.79    5.20 
  -4   2  -1  415.96   11.00 
  -4   2  -1  385.66   12.40 
  -4   2  -1  412.26   10.00 
  -4   2  -1  426.96   10.30 
   4  -2   1  413.46   12.20 
   4  -2   1  418.06   10.30 
   4  -2   1  403.36   10.30 
  -5   2  -1   17.90    2.50 
  -5   2  -1   18.90    1.80 
  -5   2  -1   19.70    2.00 
   5  -2   1   15.50    1.70 
   5  -2   1   21.10    2.10 
   5  -2   1   19.10    2.30 
  -6   2  -1  453.85   14.90 
  -6   2  -1  453.15   11.80 
  -6   2  -1  461.45   13.20 
   6  -2   1  476.05   12.30 
   6  -2   1  448.36   12.10 
   6  -2   1  462.75   14.60 
  -7   2  -1   74.39    5.40 
  -7   2  -1   75.09    4.70 
   7  -2   1   75.69    4.30 
   7  -2   1   69.39    4.20 
   7  -2   1   75.39    5.30 
  -8   2  -1  157.78    8.60 
   8  -2   1  150.38    6.90 
   8  -2   1  147.99    8.60 
   8   1  -1    0.00    2.30 
  -8  -1   1    1.50    1.90 
  -8  -1   1    4.50    1.50 
   7   1  -1  164.98    8.50 
  -7  -1   1  146.69    7.70 
  -7  -1   1  144.79    7.70 
   6   1  -1   17.60    2.50 
   6   1  -1   16.90    1.90 
  -6  -1   1   14.30    2.30 
  -6  -1   1   15.20    2.20 
   5   1  -1  298.77    8.20 
   5   1  -1  314.87    8.70 
   5   1  -1  301.17   10.90 
  -5  -1   1  301.97   10.50 
  -5  -1   1  305.37   10.30 
   4   1  -1    1.70    0.80 
   4   1  -1    0.80    0.50 
   4   1  -1    0.10    0.60 
  -4  -1   1    1.60    0.60 
  -4  -1   1    1.80    0.90 
  -4  -1   1    2.40    1.10 
   3   1  -1 3527.05   63.59 
   3   1  -1 3682.93   53.69 
   3   1  -1 3522.85   53.09 
  -3  -1   1 3382.76   52.99 
  -3  -1   1 3603.24   61.69 
  -3  -1   1 3585.54   60.99 
   2   1  -1    0.00    0.40 
   2   1  -1    0.30    0.30 
   2   1  -1    0.20    0.70 
  -2  -1   1    0.70    0.60 
  -2  -1   1    0.50    0.70 
  -2  -1   1    0.40    0.50 
   1   1  -1 1712.23   25.30 
   1   1  -1 1745.73   20.90 
  -2   1  -1   37.40    1.90 
  -2   1  -1   40.30    2.60 
  -2   1  -1   38.10    2.00 
  -2   1  -1   40.20    2.10 
   2  -1   1   35.50    1.90 
   2  -1   1   39.20    2.40 
   2  -1   1   39.00    2.00 
  -3   1  -1 7248.17  112.59 
  -3   1  -1 7360.16   96.39 
  -3   1  -1 7081.79  114.19 
  -3   1  -1 7306.47  101.29 
   3  -1   1 7254.57   99.79 
   3  -1   1 7204.28  100.99 
   3  -1   1 7335.17  118.29 
  -4   1  -1   77.89    3.70 
  -4   1  -1   85.79    4.00 
  -4   1  -1   75.89    4.60 
  -4   1  -1   85.09    3.30 
   4  -1   1   83.69    3.50 
   4  -1   1   77.29    4.20 
   4  -1   1   87.49    3.60 
  -5   1  -1  643.24   16.50 
  -5   1  -1  638.44   18.00 
  -5   1  -1  675.13   14.40 
   5  -1   1  657.03   17.90 
   5  -1   1  673.23   14.80 
   5  -1   1  663.43   14.80 
  -6   1  -1  113.09    6.50 
  -6   1  -1  117.19    5.80 
   6  -1   1  116.19    5.00 
   6  -1   1  124.29    5.20 
   6  -1   1  116.69    6.30 
  -7   1  -1  100.59    6.60 
  -7   1  -1  112.19    6.00 
   7  -1   1  113.39    5.30 
   7  -1   1  107.49    6.50 
  -8   1  -1   80.59    6.20 
  -8   1  -1   80.39    5.50 
   8  -1   1   81.79    6.20 
   8   0  -1  130.29    8.30 
  -8   0   1  139.69    7.90 
  -8   0   1  134.29    7.50 
   7   0  -1   74.19    4.40 
   7   0  -1   83.79    5.80 
  -7   0   1   73.39    5.10 
  -7   0   1   74.19    5.20 
   6   0  -1  476.85   12.50 
   6   0  -1  481.35   15.50 
  -6   0   1  460.35   14.50 
  -6   0   1  477.95   14.30 
   5   0  -1   14.70    1.70 
   5   0  -1   13.60    1.40 
   5   0  -1   11.30    1.90 
  -5   0   1   13.40    1.50 
  -5   0   1   10.20    1.70 
  -5   0   1   15.00    1.90 
   4   0  -1  481.35   11.50 
   4   0  -1  479.95   11.20 
   4   0  -1  488.35   14.00 
  -4   0   1  481.05   13.50 
  -4   0   1  481.45   11.30 
  -4   0   1  472.55   13.10 
   3   0  -1    1.20    0.60 
   3   0  -1    1.60    0.70 
   3   0  -1    1.10    1.00 
   3   0  -1    0.70    0.60 
  -3   0   1    1.50    0.90 
  -3   0   1    1.00    0.90 
  -3   0   1    0.10    0.60 
   2   0  -1  308.97    9.30 
   2   0  -1  286.97    8.20 
   2   0  -1  307.67    7.70 
  -2   0   1  320.67    8.70 
  -2   0   1  306.37    8.50 
  -2   0   1  296.67    7.60 
   1   0  -1    9.10    1.00 
   1   0  -1    7.60    1.00 
  -1   0  -1   23.00    1.50 
  -1   0  -1   22.90    1.20 
   1   0   1   29.60    1.30 
   1   0   1   28.70    1.40 
  -2   0  -1  178.18    6.10 
  -2   0  -1  179.48    4.70 
  -2   0  -1  185.38    5.90 
  -2   0  -1  190.28    5.00 
   2   0   1  177.78    5.20 
   2   0   1  183.98    5.00 
  -3   0  -1  245.08    8.20 
  -3   0  -1  266.37    6.40 
  -3   0  -1  253.57    6.90 
  -3   0  -1  250.77    7.80 
   3   0   1  258.77    8.40 
   3   0   1  254.37    6.80 
   3   0   1  250.37    6.90 
  -4   0  -1  334.87   10.00 
  -4   0  -1  326.67    8.10 
  -4   0  -1  335.77   10.70 
   4   0   1  332.77    8.70 
   4   0   1  336.07   10.70 
   4   0   1  338.47    8.60 
  -5   0  -1   32.90    2.90 
  -5   0  -1   37.00    3.30 
   5   0   1   35.00    3.00 
   5   0   1   33.60    2.30 
   5   0   1   36.40    2.30 
  -6   0  -1  464.85   14.20 
  -6   0  -1  484.95   15.50 
   6   0   1  492.75   12.20 
   6   0   1  476.25   15.30 
   6   0   1  484.35   12.30 
  -7   0  -1   48.80    4.10 
  -7   0  -1   50.09    4.60 
   7   0   1   55.99    4.70 
  -8   0  -1  206.98   10.20 
  -8   0  -1  189.88    9.20 
   8   0   1  199.28   10.20 
   9  -1  -1    1.80    1.90 
  -9   1   1    6.00    2.30 
   8  -1  -1   65.39    4.60 
   8  -1  -1   72.19    6.00 
  -8   1   1   87.29    6.00 
  -8   1   1   75.09    5.30 
   7  -1  -1  304.17   12.20 
   7  -1  -1  284.27    9.80 
  -7   1   1  295.27   10.90 
  -7   1   1  311.67   11.60 
   6  -1  -1  281.57   10.90 
   6  -1  -1  267.07    8.80 
  -6   1   1  281.87   10.50 
  -6   1   1  274.97    9.80 
  -6   1   1  268.07    8.30 
   5  -1  -1 1222.68   23.60 
   5  -1  -1 1207.48   28.10 
  -5   1   1 1209.28   23.20 
  -5   1   1 1154.68   26.00 
  -5   1   1 1150.78   26.40 
   4  -1  -1  478.95   13.80 
   4  -1  -1  470.35   11.50 
   4  -1  -1  451.75   11.40 
  -4   1   1  465.85   12.70 
  -4   1   1  458.95   13.00 
  -4   1   1  449.95   11.20 
   3  -1  -1 7812.42  121.69 
   3  -1  -1 7111.59  114.19 
   3  -1  -1 7286.07  102.59 
  -3   1   1 7608.54  104.39 
  -3   1   1 7327.27  118.49 
  -3   1   1 7359.66  114.19 
   2  -1  -1  796.12   16.10 
   2  -1  -1  777.92   17.60 
   2  -1  -1  840.32   19.20 
  -2   1   1  798.52   18.00 
  -2   1   1  841.92   16.40 
   1  -1  -1 1490.75   22.60 
  -1   1   1 1514.35   20.30 
   0  -1  -1  890.21   15.30 
   0   1   1  924.01   13.60 
   0   1   1  929.31   13.80 
  -1  -1  -1 1163.58   24.80 
  -1  -1  -1 1244.28   24.50 
  -1  -1  -1 1265.67   21.30 
  -1  -1  -1 1314.47   20.40 
   1   1   1 1224.78   21.90 
   1   1   1 1229.18   21.30 
  -2  -1  -1   92.89    3.10 
  -2  -1  -1   84.39    3.90 
  -2  -1  -1   94.79    3.30 
  -2  -1  -1   86.49    3.80 
   2   1   1   89.99    3.10 
   2   1   1   85.29    3.30 
  -3  -1  -1 2764.02   49.40 
  -3  -1  -1 2853.21   42.20 
  -3  -1  -1 2716.83   48.80 
  -3  -1  -1 2654.03   47.00 
   3   1   1 2806.52   42.80 
   3   1   1 2652.33   42.90 
   3   1   1 2732.23   51.09 
  -4  -1  -1    2.60    1.10 
  -4  -1  -1    0.70    0.90 
   4   1   1    1.40    0.70 
   4   1   1    1.40    1.00 
   4   1   1    1.70    0.70 
  -5  -1  -1  293.47   10.40 
  -5  -1  -1  264.57    9.70 
   5   1   1  311.97   10.60 
   5   1   1  280.17    8.10 
   5   1   1  279.67    8.10 
  -6  -1  -1    5.70    1.80 
  -6  -1  -1    6.50    1.70 
   6   1   1    6.00    1.80 
  -7  -1  -1   36.70    4.00 
  -7  -1  -1   41.70    3.90 
   7   1   1   39.20    3.90 
  -8  -1  -1    1.40    1.70 
   8   1   1    1.70    1.80 
   9  -2  -1  104.59    6.30 
  -9   2   1  125.89    7.10 
   8  -2  -1  163.48    9.40 
   8  -2  -1  162.48    7.50 
  -8   2   1  189.88    8.60 
   7  -2  -1  313.97   12.50 
   7  -2  -1  301.57   10.30 
  -7   2   1  309.17   10.90 
  -7   2   1  333.37   11.70 
   6  -2  -1  266.27   10.80 
   6  -2  -1  270.57    9.00 
  -6   2   1  272.37   10.00 
  -6   2   1  267.37    8.50 
  -6   2   1  263.97    9.40 
   5  -2  -1  267.27   10.30 
   5  -2  -1  269.17    8.50 
  -5   2   1  281.27    9.20 
  -5   2   1  285.07    9.80 
  -5   2   1  266.87    8.30 
   4  -2  -1  142.59    5.30 
   4  -2  -1  142.09    6.70 
   4  -2  -1  150.58    5.60 
  -4   2   1  145.99    6.50 
  -4   2   1  148.69    5.50 
  -4   2   1  145.29    5.70 
   3  -2  -1  246.68    8.80 
   3  -2  -1  246.28    7.70 
   3  -2  -1  247.18    7.30 
  -3   2   1  253.57    7.40 
  -3   2   1  251.87    7.80 
   2  -2  -1   35.30    2.30 
   2  -2  -1   42.30    2.30 
   2  -2  -1   29.40    2.40 
  -2   2   1   33.40    2.00 
  -2   2   1   36.80    2.30 
   1  -2  -1   93.89    3.90 
   1  -2  -1  102.79    3.50 
   1  -2  -1   98.59    4.10 
  -1   2   1  104.39    3.80 
   0  -2  -1    4.90    0.90 
   0  -2  -1    6.90    1.00 
   0  -2  -1    5.50    0.60 
   0   2   1    6.00    0.80 
   0   2   1    6.10    0.90 
  -1  -2  -1  222.18    5.50 
  -1  -2  -1  233.28    5.20 
  -1  -2  -1  215.58    6.70 
  -1  -2  -1  216.28    7.00 
   1   2   1  215.88    6.10 
  -2  -2  -1   38.40    2.50 
  -2  -2  -1   39.50    2.10 
  -2  -2  -1   34.60    1.80 
  -2  -2  -1   40.60    1.90 
   2   2   1   35.60    1.70 
   2   2   1   32.90    2.00 
  -3  -2  -1   86.49    3.40 
  -3  -2  -1   87.69    4.30 
  -3  -2  -1   85.99    4.30 
   3   2   1   84.39    3.50 
   3   2   1   85.99    4.40 
   3   2   1   85.49    3.30 
  -4  -2  -1  665.53   17.30 
  -4  -2  -1  666.83   17.60 
   4   2   1  685.03   14.20 
   4   2   1  677.13   14.60 
   4   2   1  682.03   18.20 
  -5  -2  -1   38.90    3.30 
  -5  -2  -1   39.50    3.50 
   5   2   1   44.40    3.60 
  -6  -2  -1  776.42   21.20 
   6   2   1  734.13   21.30 
  -7  -2  -1    4.70    2.40 
   7   2   1    4.90    1.90 
   9  -3  -1    5.40    2.20 
   9  -3  -1    0.10    1.50 
  -9   3   1    0.00    1.70 
   8  -3  -1  118.39    7.60 
   8  -3  -1  110.69    6.20 
  -8   3   1  135.09    7.00 
   7  -3  -1  324.87   10.80 
   7  -3  -1  340.17   13.10 
  -7   3   1  343.57   10.60 
  -7   3   1  342.27   11.90 
   6  -3  -1  348.17   10.70 
   6  -3  -1  366.26   13.00 
  -6   3   1  351.96   12.00 
  -6   3   1  362.96   11.00 
  -6   3   1  345.37   10.50 
   5  -3  -1  571.44   14.40 
   5  -3  -1  581.64   14.70 
   5  -3  -1  611.24   17.30 
  -5   3   1  553.54   16.20 
  -5   3   1  593.74   14.50 
  -5   3   1  588.14   15.00 
   4  -3  -1  418.76   11.70 
   4  -3  -1  429.16   11.20 
   4  -3  -1  459.05   13.50 
  -4   3   1  421.66   11.60 
  -4   3   1  423.46   11.20 
  -4   3   1  418.06   13.00 
   3  -3  -1 1931.51   38.50 
   3  -3  -1 1858.31   32.00 
   3  -3  -1 1823.52   35.80 
  -3   3   1 1905.51   32.90 
  -3   3   1 1769.52   34.60 
   2  -3  -1  190.48    6.00 
   2  -3  -1  184.78    6.60 
  -2   3   1  189.78    6.20 
   1  -3  -1  750.42   17.40 
   1  -3  -1  757.12   14.90 
   1  -3  -1  736.73   17.10 
  -1   3   1  749.62   15.90 
   0  -3  -1  418.26   11.10 
   0  -3  -1  414.06   11.10 
   0  -3  -1  408.56    9.00 
   0   3   1  421.46    9.90 
   0   3   1  409.86    9.80 
  -1  -3  -1  964.90   20.80 
  -1  -3  -1  988.90   21.10 
  -1  -3  -1  927.11   17.30 
   1   3   1  983.20   18.50 
   1   3   1  920.51   17.50 
  -2  -3  -1   16.30    1.40 
  -2  -3  -1   17.50    1.80 
  -2  -3  -1   15.90    1.10 
   2   3   1   16.80    1.50 
  -3  -3  -1 1422.06   29.70 
   3   3   1 1386.66   30.30 
   3   3   1 1406.36   25.50 
  -4  -3  -1  239.88    9.00 
   4   3   1  240.58    9.30 
  -5  -3  -1  335.07   11.90 
   5   3   1  328.97   11.90 
  -6  -3  -1  105.99    6.60 
   6   3   1  101.09    6.50 
  -7  -3  -1   58.39    5.20 
   7   3   1   53.69    5.00 
   9  -4  -1  176.78   10.00 
   9  -4  -1  175.68    8.40 
  -9   4   1  204.38    9.20 
   8  -4  -1    8.70    2.40 
   8  -4  -1   12.60    2.40 
  -8   4   1   15.00    2.10 
  -8   4   1   13.10    2.70 
   7  -4  -1  200.98    7.90 
   7  -4  -1  185.88    9.20 
  -7   4   1  186.68    7.70 
  -7   4   1  205.28    8.70 
   6  -4  -1    1.20    1.10 
   6  -4  -1    5.60    1.70 
  -6   4   1    4.80    1.60 
  -6   4   1    5.00    1.60 
   5  -4  -1  104.99    6.00 
   5  -4  -1  107.09    5.00 
   5  -4  -1  104.79    5.00 
  -5   4   1  113.09    4.90 
  -5   4   1  102.99    5.00 
  -5   4   1  113.69    6.00 
   4  -4  -1   74.19    3.90 
   4  -4  -1   55.29    4.30 
   4  -4  -1   67.19    3.60 
  -4   4   1   64.99    3.70 
  -4   4   1   67.19    3.50 
   3  -4  -1   44.70    3.00 
   3  -4  -1   43.40    2.80 
  -3   4   1   38.20    2.30 
  -3   4   1   43.40    2.80 
   2  -4  -1    2.00    0.80 
   2  -4  -1    2.70    1.00 
  -2   4   1    3.70    1.10 
   1  -4  -1   12.60    1.50 
   1  -4  -1   12.40    1.20 
   1  -4  -1   13.30    1.60 
  -1   4   1   14.70    1.50 
  -1   4   1   11.90    1.50 
   0  -4  -1   17.90    1.80 
   0  -4  -1   20.40    1.80 
   0  -4  -1   18.60    1.20 
   0   4   1   16.80    1.50 
   0   4   1   21.00    1.70 
  -1  -4  -1    1.60    0.80 
  -1  -4  -1    1.70    0.80 
  -1  -4  -1    1.20    0.40 
   1   4   1    1.70    0.50 
   1   4   1    1.70    0.70 
  -2  -4  -1   20.10    1.80 
  -2  -4  -1   21.20    2.10 
   2   4   1   20.30    1.70 
  -3  -4  -1  283.07   10.00 
   3   4   1  285.67    9.90 
   3   4   1  298.77    8.20 
  -4  -4  -1  454.45   14.10 
   4   4   1  471.65   14.40 
  -5  -4  -1  181.68    8.40 
   5   4   1  191.68    8.60 
  -6  -4  -1  282.57   11.60 
   6   4   1  266.57   11.40 
   9  -5  -1    4.00    2.00 
   9  -5  -1    5.00    2.00 
  -9   5   1    4.00    1.80 
   8  -5  -1   45.80    4.80 
   8  -5  -1   52.59    4.20 
  -8   5   1   52.89    4.20 
  -8   5   1   62.09    4.60 
   7  -5  -1   44.90    4.60 
   7  -5  -1   59.49    4.10 
  -7   5   1   56.99    4.00 
  -7   5   1   55.59    4.40 
   6  -5  -1  328.37   10.40 
   6  -5  -1  326.97   12.30 
  -6   5   1  307.67   11.90 
  -6   5   1  329.17   10.60 
   5  -5  -1   37.30    3.60 
   5  -5  -1   40.50    3.20 
   5  -5  -1   38.80    3.00 
  -5   5   1   35.10    3.00 
   4  -5  -1  856.91   18.60 
   4  -5  -1  870.61   20.70 
  -4   5   1  800.42   18.90 
   3  -5  -1  372.66   10.10 
   3  -5  -1  368.86   11.50 
  -3   5   1  350.86    9.90 
  -3   5   1  376.06   10.60 
   2  -5  -1 1173.28   22.30 
   2  -5  -1 1139.79   25.80 
  -2   5   1 1188.88   23.80 
   1  -5  -1  639.04   16.50 
   1  -5  -1  656.53   16.70 
   1  -5  -1  643.14   14.10 
  -1   5   1  674.03   15.20 
  -1   5   1  661.53   15.00 
   0  -5  -1 1790.92   36.30 
   0  -5  -1 1852.51   36.70 
   0  -5  -1 1804.32   30.30 
   0   5   1 1859.81   32.10 
   0   5   1 1860.41   32.50 
  -1  -5  -1  437.16   12.50 
  -1  -5  -1  447.36   12.70 
   1   5   1  444.56   11.00 
  -2  -5  -1  547.75   15.00 
  -2  -5  -1  523.85   14.20 
   2   5   1  524.75   12.40 
  -3  -5  -1  333.57   11.40 
  -4  -5  -1  315.77   11.60 
  -5  -5  -1  168.58    8.30 
  -6  -5  -1   30.10    3.80 
   8  -6  -1    0.40    1.20 
   8  -6  -1    3.10    2.10 
  -8   6   1    0.10    1.70 
  -8   6   1    2.40    1.50 
   7  -6  -1  127.29    7.60 
   7  -6  -1  138.79    6.60 
  -7   6   1  128.69    7.50 
  -7   6   1  128.59    6.50 
   6  -6  -1    1.00    1.00 
   6  -6  -1    2.30    1.50 
  -6   6   1    0.80    1.30 
  -6   6   1    4.50    2.00 
   5  -6  -1  119.99    5.50 
   5  -6  -1  113.19    5.90 
  -5   6   1  105.29    5.60 
   4  -6  -1   57.89    4.00 
   4  -6  -1   53.89    3.50 
  -4   6   1   55.99    3.80 
   3  -6  -1   22.40    2.10 
   3  -6  -1   21.40    2.40 
  -3   6   1   21.10    2.40 
   2  -6  -1   39.10    3.10 
   2  -6  -1   39.90    2.60 
  -2   6   1   43.00    3.20 
   1  -6  -1   89.99    3.90 
   1  -6  -1   96.19    5.00 
   1  -6  -1   90.89    4.80 
  -1   6   1   88.69    4.40 
  -1   6   1   94.49    4.60 
   0  -6  -1   21.70    2.30 
   0  -6  -1   25.30    2.40 
   0   6   1   22.20    2.00 
  -1  -6  -1  140.89    6.50 
  -1  -6  -1  139.89    6.20 
   1   6   1  139.69    5.30 
  -2  -6  -1    7.80    1.70 
  -2  -6  -1    8.70    1.50 
  -3  -6  -1  190.78    8.30 
  -4  -6  -1   80.89    5.50 
  -5  -6  -1  127.59    7.50 
   8  -7  -1   45.70    4.00 
   8  -7  -1   46.90    4.80 
  -8   7   1   51.49    4.70 
  -8   7   1   49.20    4.40 
   7  -7  -1    5.80    1.70 
  -7   7   1    5.40    2.40 
  -7   7   1    3.20    1.60 
   6  -7  -1  742.03   20.00 
   6  -7  -1  717.33   17.80 
  -6   7   1  698.13   18.40 
   5  -7  -1   10.50    1.80 
   5  -7  -1    8.60    1.80 
  -5   7   1    9.30    1.90 
   4  -7  -1 1630.04   35.00 
   4  -7  -1 1613.34   30.30 
  -4   7   1 1586.24   31.80 
   3  -7  -1   12.30    1.60 
   3  -7  -1   11.70    2.00 
  -3   7   1    5.70    1.50 
   2  -7  -1 1381.46   31.20 
  -2   7   1 1471.85   28.30 
  -2   7   1 1408.26   28.40 
   1  -7  -1  102.29    5.40 
   1  -7  -1   96.49    5.40 
  -1   7   1   99.69    4.90 
  -1   7   1  103.39    5.10 
   0  -7  -1  903.11   22.70 
   0   7   1  954.90   19.80 
  -1  -7  -1   12.80    2.00 
  -1  -7  -1   10.40    1.80 
  -2  -7  -1  314.37   10.80 
  -2  -7  -1  313.07   11.40 
  -3  -7  -1   19.50    2.70 
  -4  -7  -1  119.99    7.00 
   8  -8  -1    6.80    2.10 
  -8   8   1    6.80    2.70 
  -8   8   1    5.90    2.30 
   7  -8  -1  145.19    7.10 
  -7   8   1  144.49    7.60 
  -7   8   1  144.89    9.20 
   6  -8  -1   17.10    2.70 
   6  -8  -1   15.30    2.20 
  -6   8   1   16.40    2.60 
   5  -8  -1   80.59    5.60 
   5  -8  -1   85.89    4.90 
  -5   8   1   91.39    5.40 
   4  -8  -1    0.80    1.30 
   4  -8  -1    2.10    1.00 
  -4   8   1    0.40    1.20 
   3  -8  -1    0.60    1.10 
  -3   8   1    0.00    1.30 
  -3   8   1    0.00    1.20 
   2  -8  -1  110.79    6.20 
  -2   8   1  111.79    5.70 
  -2   8   1  109.89    5.80 
   1  -8  -1   53.99    4.10 
  -1   8   1   52.99    3.60 
   0  -8  -1    6.80    1.70 
   0  -8  -1    7.60    1.70 
  -1  -8  -1   76.69    4.90 
  -1  -8  -1   76.89    5.10 
  -2  -8  -1    6.80    1.90 
  -3  -8  -1   73.99    5.40 
   7  -9  -1   42.40    3.90 
  -7   9   1   44.40    5.40 
  -7   9   1   49.40    4.40 
   6  -9  -1  505.35   16.90 
   6  -9  -1  493.95   14.40 
  -6   9   1  503.25   15.50 
   5  -9  -1   47.40    3.60 
   5  -9  -1   47.80    4.40 
  -5   9   1   48.90    4.10 
   4  -9  -1  564.44   17.80 
  -4   9   1  568.84   16.20 
   3  -9  -1   20.20    2.90 
  -3   9   1   21.00    2.90 
  -3   9   1   20.90    2.70 
   2  -9  -1  281.87   11.20 
  -2   9   1  292.67   10.20 
   1  -9  -1    4.20    1.50 
  -1   9   1    4.60    1.40 
   0  -9  -1  251.07   10.30 
   0  -9  -1  267.47   10.70 
  -1  -9  -1    7.80    1.90 
  -1  -9  -1    8.60    2.10 
  -2  -9  -1  267.17   11.30 
   6 -10  -1   24.90    3.50 
  -6  10   1   18.50    2.80 
   5 -10  -1    8.90    2.20 
  -5  10   1    7.40    2.20 
   4 -10  -1    1.70    1.60 
  -4  10   1    0.00    1.70 
  -4  10   1    1.00    1.60 
   3 -10  -1    0.50    1.50 
  -3  10   1    4.30    1.70 
   2 -10  -1   20.90    3.10 
  -2  10   1   26.50    3.00 
   1 -10  -1   21.70    3.00 
   0 -10  -1    0.60    1.50 
   0 -10  -1    4.50    1.80 
   2 -12   2   74.69    5.60 
   3 -12   2   96.49    6.60 
  -4  12  -2   46.70    4.40 
   4 -12   2   52.69    4.90 
  -1 -11   2    2.90    1.30 
   0 -11   2   45.00    4.20 
   1 -11   2   23.10    3.00 
   2 -11   2    6.70    1.80 
  -3  11  -2    0.50    1.30 
   3 -11   2    0.00    1.30 
  -4  11  -2   10.60    2.10 
   4 -11   2   19.10    3.00 
  -5  11  -2   11.90    2.40 
   5 -11   2   11.40    2.50 
  -6  11  -2   70.79    5.40 
   6 -11   2   79.49    5.90 
  -2 -10   2    6.40    1.90 
  -2 -10   2    9.30    1.90 
  -1 -10   2  346.47   12.40 
  -1 -10   2  335.87   12.10 
   0 -10   2    2.00    1.40 
   1 -10   2  350.26   12.40 
  -2  10  -2    2.00    1.40 
   2 -10   2    5.00    1.60 
  -3  10  -2  478.85   13.70 
   3 -10   2  467.85   15.20 
  -4  10  -2    9.10    2.00 
   4 -10   2   11.10    2.10 
  -5  10  -2  231.58    9.30 
   5 -10   2  238.08    8.40 
   5 -10   2  244.08   10.40 
  -6  10  -2    2.90    1.70 
   6 -10   2    4.60    1.50 
   6 -10   2    3.40    1.40 
  -7  10  -2  116.69    8.10 
   7 -10   2  126.89    6.60 
  -3  -9   2   30.40    3.30 
  -2  -9   2   99.99    5.70 
  -2  -9   2  107.49    6.10 
  -1  -9   2   81.29    5.10 
  -1  -9   2   79.49    4.90 
   0  -9   2   43.90    3.60 
   1  -9   2   25.00    2.70 
  -2   9  -2   22.30    2.40 
   2  -9   2   22.40    2.60 
  -3   9  -2    1.30    1.10 
   3  -9   2    0.10    1.10 
  -4   9  -2   14.60    2.20 
   4  -9   2   16.10    1.70 
   4  -9   2   17.20    2.40 
  -5   9  -2    4.80    1.60 
   5  -9   2    3.60    1.40 
   5  -9   2    4.80    1.20 
  -6   9  -2   66.79    4.70 
  -6   9  -2   74.39    6.10 
   6  -9   2   71.99    4.50 
  -7   9  -2   21.20    2.80 
  -7   9  -2   15.60    3.10 
   7  -9   2   14.60    2.50 
  -8   9  -2   95.59    6.20 
  -8   9  -2  100.79    7.10 
   8  -9   2   90.99    5.80 
  -4  -8   2   15.70    2.60 
  -3  -8   2  231.08    9.40 
  -2  -8   2  235.58    9.20 
  -2  -8   2  236.68    9.00 
  -1  -8   2  508.05   14.80 
  -1  -8   2  513.05   14.80 
   0  -8   2  376.76   12.00 
   0  -8   2  378.36   12.00 
  -1   8  -2  654.03   15.20 
   1  -8   2  659.03   17.60 
  -2   8  -2  160.68    6.20 
   2  -8   2  162.28    7.10 
  -3   8  -2 1168.78   24.00 
   3  -8   2 1181.18   22.50 
   3  -8   2 1203.28   27.30 
  -4   8  -2   84.69    4.60 
   4  -8   2   88.69    5.10 
   4  -8   2   87.09    4.20 
  -5   8  -2  314.07    9.30 
  -5   8  -2  302.97   10.20 
   5  -8   2  317.07   11.10 
   5  -8   2  312.17    9.70 
  -6   8  -2   28.30    3.70 
  -6   8  -2   30.90    3.00 
   6  -8   2   33.70    3.00 
  -7   8  -2  156.28    7.30 
  -7   8  -2  152.28    8.60 
   7  -8   2  145.09    7.00 
  -8   8  -2    4.00    1.60 
  -8   8  -2    3.50    2.00 
   8  -8   2    3.30    1.60 
  -5  -7   2   99.99    6.50 
  -5  -7   2  108.79    6.40 
  -4  -7   2  119.09    6.50 
  -4  -7   2  120.09    6.40 
  -3  -7   2  194.98    8.00 
  -3  -7   2  193.68    8.00 
  -2  -7   2  157.78    6.70 
  -2  -7   2  150.48    6.60 
  -2  -7   2  160.48    6.80 
  -1  -7   2  176.08    7.10 
  -1  -7   2  183.58    7.30 
   0   7  -2   17.90    1.50 
   0   7  -2   19.70    1.70 
   0  -7   2   19.20    2.10 
   0  -7   2   19.90    2.10 
  -1   7  -2   58.19    3.10 
   1  -7   2   57.99    3.60 
  -2   7  -2   67.29    3.50 
   2  -7   2   66.39    2.90 
   2  -7   2   66.39    4.00 
  -3   7  -2    0.30    0.60 
  -3   7  -2    2.50    1.00 
   3  -7   2    0.00    1.00 
   3  -7   2    0.20    0.60 
  -4   7  -2   15.70    1.90 
  -4   7  -2   13.80    1.60 
   4  -7   2   14.30    1.60 
   4  -7   2   15.00    2.00 
  -5   7  -2   17.10    2.90 
  -5   7  -2   18.40    2.00 
  -5   7  -2   17.90    2.20 
   5  -7   2   19.40    2.20 
   5  -7   2   21.80    2.50 
   5  -7   2   18.90    2.10 
  -6   7  -2   95.29    5.10 
  -6   7  -2   90.89    6.30 
   6  -7   2   85.59    5.50 
   6  -7   2   95.79    5.00 
  -7   7  -2    8.70    2.30 
  -7   7  -2   11.20    2.00 
   7  -7   2    9.40    1.90 
   7  -7   2    6.90    2.00 
  -8   7  -2  243.18   10.60 
  -8   7  -2  226.38    9.30 
   8  -7   2  219.48    9.10 
   8  -7   2  214.18   10.60 
  -6  -6   2  119.29    7.40 
  -5  -6   2    0.70    1.30 
  -5  -6   2    4.90    1.80 
  -4  -6   2  450.65   13.70 
  -4  -6   2  424.66   13.80 
  -3  -6   2  111.79    5.50 
  -3  -6   2  108.59    5.10 
  -3  -6   2  117.79    5.70 
  -2  -6   2  912.51   21.00 
  -2  -6   2  898.91   21.20 
  -2  -6   2  901.31   21.10 
  -1  -6   2  370.96   11.10 
  -1  -6   2  371.16   11.00 
  -1  -6   2  379.36   10.70 
   0   6  -2  965.00   18.90 
   0  -6   2  970.30   22.00 
   0  -6   2  982.30   22.00 
   0  -6   2  976.90   20.80 
  -1   6  -2  775.12   16.20 
  -1   6  -2  786.72   14.20 
   1  -6   2  769.42   18.60 
   1  -6   2  767.12   14.90 
  -2   6  -2    9.10    0.90 
  -2   6  -2    7.70    1.20 
   2  -6   2    8.70    1.30 
   2  -6   2    8.90    1.00 
  -3   6  -2 1798.12   29.30 
  -3   6  -2 1787.72   32.10 
   3  -6   2 1835.52   31.00 
   3  -6   2 1736.53   36.40 
   3  -6   2 1821.62   35.80 
  -4   6  -2   10.20    1.70 
  -4   6  -2    8.80    1.30 
   4  -6   2   10.50    1.60 
   4  -6   2   10.50    1.40 
   4  -6   2   10.90    1.60 
  -5   6  -2  257.77    8.50 
  -5   6  -2  257.27    8.10 
  -5   6  -2  263.57   10.70 
   5  -6   2  278.57    9.10 
   5  -6   2  249.68    9.60 
   5  -6   2  263.57    8.40 
  -6   6  -2  112.99    5.40 
  -6   6  -2  123.89    7.00 
  -6   6  -2  103.49    5.20 
   6  -6   2  117.69    5.50 
   6  -6   2  114.79    6.30 
  -7   6  -2  130.99    6.10 
  -7   6  -2  132.49    7.40 
   7  -6   2  126.79    7.20 
   7  -6   2  124.89    6.20 
  -8   6  -2    2.40    1.40 
  -8   6  -2    5.00    2.10 
   8  -6   2    0.00    1.60 
   8  -6   2    2.10    1.30 
  -7  -5   2  249.38   11.60 
  -6  -5   2   42.40    4.20 
  -5  -5   2  222.78    9.40 
  -5  -5   2  228.88    9.10 
  -4  -5   2   20.90    2.30 
  -4  -5   2   23.50    2.70 
   3   5  -2  198.48    7.70 
  -3  -5   2  212.28    7.60 
  -3  -5   2  213.38    7.90 
  -3  -5   2  197.18    7.10 
   2   5  -2   69.09    3.60 
   2   5  -2   68.59    2.70 
  -2  -5   2   71.89    3.70 
  -2  -5   2   74.89    3.90 
  -2  -5   2   70.89    3.70 
   1   5  -2   33.00    1.50 
   1   5  -2   34.60    1.80 
   1   5  -2   35.20    1.70 
   1   5  -2   31.80    2.00 
  -1  -5   2   37.40    2.40 
  -1  -5   2   36.70    2.30 
  -1  -5   2   36.40    2.40 
   0   5  -2   23.10    1.60 
   0   5  -2   23.00    1.20 
   0  -5   2   25.20    1.90 
   0  -5   2   26.50    1.70 
   0  -5   2   21.90    1.10 
   0  -5   2   26.10    2.00 
  -1   5  -2  108.59    3.30 
  -1   5  -2  104.19    3.90 
   1  -5   2  103.19    4.60 
   1  -5   2  106.09    3.40 
  -2   5  -2  198.88    5.40 
  -2   5  -2  199.68    6.20 
   2  -5   2  203.68    5.70 
   2  -5   2  188.98    6.80 
   2  -5   2  197.18    6.50 
  -3   5  -2   15.10    1.40 
  -3   5  -2   12.80    1.40 
   3  -5   2   13.10    1.40 
   3  -5   2   14.20    1.60 
   3  -5   2   11.50    1.20 
  -4   5  -2    2.60    0.90 
  -4   5  -2    1.90    1.60 
  -4   5  -2    3.50    1.00 
   4  -5   2    1.30    0.70 
   4  -5   2    3.40    1.00 
   4  -5   2    1.70    0.70 
   4  -5   2    1.70    0.80 
  -5   5  -2   28.80    2.40 
  -5   5  -2   31.20    3.30 
  -5   5  -2   32.30    2.40 
   5  -5   2   30.40    2.40 
   5  -5   2   31.30    2.70 
   5  -5   2   30.80    2.70 
  -6   5  -2  187.28    7.20 
  -6   5  -2  202.38    9.00 
  -6   5  -2  199.68    7.20 
   6  -5   2  186.78    8.40 
   6  -5   2  194.68    7.70 
   6  -5   2  192.68    7.30 
  -7   5  -2  156.48    6.60 
  -7   5  -2  157.38    8.20 
   7  -5   2  158.78    8.10 
   7  -5   2  158.58    6.90 
   7  -5   2  159.28    7.10 
  -8   5  -2  190.78    9.10 
   8  -5   2  174.18    7.80 
   8  -5   2  165.88    9.10 
  -9   5  -2  133.59    7.90 
   9  -5   2  110.29    7.70 
   9  -5   2  111.89    6.50 
   7   4  -2    0.00    1.80 
  -7  -4   2    3.80    2.00 
   6   4  -2  348.37   13.40 
  -6  -4   2  329.17   12.70 
  -6  -4   2  358.36   12.30 
   5   4  -2    4.40    1.40 
  -5  -4   2    5.10    1.40 
  -5  -4   2    6.10    1.90 
   4   4  -2  760.12   20.00 
  -4  -4   2  752.72   18.50 
  -4  -4   2  749.53   19.30 
   3   4  -2  222.68    8.10 
  -3  -4   2  217.88    7.60 
  -3  -4   2  220.68    7.20 
  -3  -4   2  215.58    8.00 
   2   4  -2  508.05   10.70 
   2   4  -2  508.95   10.70 
   2   4  -2  517.65   13.80 
  -2  -4   2  534.75   13.60 
  -2  -4   2  524.95   13.20 
  -2  -4   2  538.15   13.20 
   1   4  -2  647.54   13.10 
   1   4  -2  602.24   15.30 
   1   4  -2  667.73   12.90 
   1   4  -2  643.44   12.20 
  -1  -4   2  677.93   15.30 
  -1  -4   2  676.33   15.60 
  -1  -4   2  660.83   15.30 
   0   4  -2 1462.25   23.20 
   0   4  -2 1428.26   25.10 
   0  -4   2 1391.36   23.80 
   0  -4   2 1471.75   28.60 
   0  -4   2 1463.35   27.60 
   0  -4   2 1451.35   28.60 
  -1   4  -2 1048.40   19.70 
  -1   4  -2 1056.49   18.00 
   1  -4   2 1068.79   18.80 
   1  -4   2 1043.20   20.60 
   1  -4   2 1039.60   22.40 
  -2   4  -2   71.29    3.10 
  -2   4  -2   69.69    2.80 
   2  -4   2   73.09    3.40 
   2  -4   2   66.99    2.80 
   2  -4   2   71.99    3.10 
   2  -4   2   67.29    3.30 
  -3   4  -2  841.22   17.00 
  -3   4  -2  817.92   20.80 
  -3   4  -2  800.42   15.80 
   3  -4   2  819.72   18.60 
   3  -4   2  861.41   16.70 
   3  -4   2  816.52   19.10 
   3  -4   2  817.22   17.40 
  -4   4  -2  438.06   10.80 
  -4   4  -2  427.76   13.70 
  -4   4  -2  413.46   10.40 
  -4   4  -2  420.96   10.80 
   4  -4   2  441.56   11.50 
   4  -4   2  443.56   12.50 
   4  -4   2  452.25   10.90 
   4  -4   2  428.26   11.20 
  -5   4  -2   86.89    4.30 
  -5   4  -2   87.79    5.70 
  -5   4  -2   92.89    4.20 
   5  -4   2   92.79    5.00 
   5  -4   2   94.19    4.40 
   5  -4   2   97.19    4.60 
  -6   4  -2  539.75   13.70 
  -6   4  -2  528.95   16.40 
  -6   4  -2  547.25   13.50 
   6  -4   2  539.05   16.10 
   6  -4   2  519.55   13.70 
   6  -4   2  547.55   14.10 
  -7   4  -2   93.39    4.80 
  -7   4  -2   89.69    6.10 
   7  -4   2   94.79    5.10 
   7  -4   2   85.79    4.90 
   7  -4   2   88.09    5.70 
  -8   4  -2    3.30    1.90 
   8  -4   2    6.70    1.90 
   8  -4   2    2.60    1.60 
   8  -4   2    3.40    1.60 
   7   3  -2  283.57   12.30 
  -7  -3   2  273.07   11.60 
   6   3  -2   37.00    3.70 
  -6  -3   2   31.70    3.20 
  -6  -3   2   29.70    3.30 
   5   3  -2  136.89    7.00 
  -5  -3   2  135.39    6.70 
  -5  -3   2  140.29    6.30 
   4   3  -2   26.80    2.60 
  -4  -3   2   24.40    2.50 
  -4  -3   2   24.40    2.20 
   3   3  -2  218.58    5.80 
   3   3  -2  209.08    5.50 
   3   3  -2  218.28    8.00 
  -3  -3   2  224.18    7.20 
  -3  -3   2  219.68    7.80 
   2   3  -2   27.00    1.60 
   2   3  -2   27.40    2.10 
   2   3  -2   29.90    1.40 
  -2  -3   2   27.60    1.90 
  -2  -3   2   26.20    2.20 
  -2  -3   2   26.40    1.80 
   1   3  -2    9.90    1.10 
   1   3  -2   10.60    0.90 
   1   3  -2   10.00    0.70 
  -1  -3   2   11.30    1.30 
  -1  -3   2   10.90    1.20 
  -1  -3   2   11.40    1.10 
   0   3  -2  460.85    9.50 
   0  -3   2  471.05    9.70 
   0  -3   2  491.85   12.00 
   0  -3   2  486.55   11.30 
  -1   3  -2   94.39    3.10 
  -1   3  -2   89.89    3.30 
   1  -3   2  100.89    3.20 
   1  -3   2   95.09    3.80 
   1  -3   2   99.19    3.50 
  -2   3  -2   74.09    3.00 
  -2   3  -2   68.09    4.10 
  -2   3  -2   73.49    2.80 
   2  -3   2   69.59    3.00 
   2  -3   2   73.89    3.20 
   2  -3   2   71.59    2.90 
   2  -3   2   71.39    3.20 
  -3   3  -2  426.26    9.70 
  -3   3  -2  396.86   12.90 
  -3   3  -2  423.96   10.10 
   3  -3   2  438.06   10.90 
   3  -3   2  440.26   10.10 
   3  -3   2  433.16   11.80 
   3  -3   2  406.06   10.40 
  -4   3  -2    6.30    1.00 
  -4   3  -2    5.40    0.90 
  -4   3  -2    8.10    1.90 
  -4   3  -2    6.70    0.90 
   4  -3   2    5.30    1.10 
   4  -3   2    8.30    1.10 
   4  -3   2    5.90    1.10 
   4  -3   2    6.30    0.90 
  -5   3  -2  263.77   10.40 
  -5   3  -2  294.97    8.30 
  -5   3  -2  300.77    9.00 
  -5   3  -2  286.07    8.70 
   5  -3   2  284.57    8.80 
   5  -3   2  304.37   10.20 
   5  -3   2  294.27    8.60 
  -6   3  -2   44.80    3.00 
  -6   3  -2   48.60    3.30 
  -6   3  -2   44.00    4.10 
  -6   3  -2   46.20    3.40 
   6  -3   2   47.00    3.70 
   6  -3   2   48.10    3.20 
   6  -3   2   48.40    3.20 
  -7   3  -2  235.68   10.60 
   7  -3   2  242.28   10.20 
   7  -3   2  238.78    8.50 
   7  -3   2  237.28    8.50 
  -8   3  -2   21.20    3.50 
   8  -3   2   21.10    3.10 
   8  -3   2   25.40    2.80 
   8  -3   2   27.00    2.70 
   8   2  -2    6.10    2.40 
  -8  -2   2    7.70    2.40 
   7   2  -2   15.50    2.80 
  -7  -2   2   10.70    2.20 
  -7  -2   2    7.20    2.20 
   6   2  -2  257.67   10.80 
  -6  -2   2  261.87   10.00 
  -6  -2   2  259.57   10.30 
   5   2  -2   26.10    2.80 
   5   2  -2   29.50    2.20 
  -5  -2   2   24.50    2.70 
  -5  -2   2   24.80    2.60 
   4   2  -2  740.33   15.30 
   4   2  -2  745.63   19.20 
   4   2  -2  721.13   14.70 
  -4  -2   2  709.03   14.70 
  -4  -2   2  724.33   18.40 
  -4  -2   2  738.33   17.50 
   3   2  -2   65.19    2.80 
   3   2  -2   66.39    3.80 
   3   2  -2   62.99    2.40 
  -3  -2   2   60.69    3.10 
  -3  -2   2   62.79    3.70 
   2   2  -2 1230.98   26.60 
   2   2  -2 1239.28   21.90 
  -2  -2   2 1247.88   25.50 
  -2  -2   2 1203.28   24.30 
   1   2  -2    1.70    0.70 
   1   2  -2    2.50    0.60 
   1   2  -2    2.40    0.40 
  -1  -2   2    4.70    1.20 
  -1  -2   2    3.80    0.50 
   0   2  -2 9736.33   73.19 
   0   2  -2 9397.26   70.19 
  -1   2  -2   17.80    1.70 
  -1   2  -2   13.50    1.00 
   1  -2   2   15.10    1.00 
   1  -2   2   14.10    1.10 
  -2   2  -2 2141.19   41.50 
  -2   2  -2 2207.68   33.90 
  -2   2  -2 2230.98   35.50 
   2  -2   2 2214.38   35.10 
   2  -2   2 2164.28   35.80 
  -3   2  -2   17.30    1.50 
  -3   2  -2   22.60    1.70 
  -3   2  -2   20.60    2.70 
   3  -2   2   26.20    1.90 
   3  -2   2   20.50    2.10 
  -4   2  -2 1089.49   25.10 
  -4   2  -2 1109.59   20.60 
  -4   2  -2 1068.19   20.50 
  -4   2  -2 1103.69   23.00 
   4  -2   2 1076.59   20.90 
   4  -2   2 1097.39   25.00 
   4  -2   2 1053.29   21.20 
  -5   2  -2  139.89    5.60 
  -5   2  -2  140.69    5.00 
  -5   2  -2  130.19    7.00 
  -5   2  -2  148.49    5.80 
   5  -2   2  140.39    5.40 
   5  -2   2  140.79    5.40 
   5  -2   2  146.09    6.50 
  -6   2  -2  632.24   16.80 
  -6   2  -2  623.04   18.80 
   6  -2   2  669.43   18.60 
   6  -2   2  650.63   15.30 
   6  -2   2  657.23   15.50 
  -7   2  -2   81.29    4.90 
  -7   2  -2   77.39    5.70 
   7  -2   2   80.99    4.40 
   7  -2   2   77.79    4.50 
   7  -2   2   85.69    5.60 
  -8   2  -2   24.20    3.70 
   8  -2   2   21.60    2.60 
   8  -2   2   23.30    3.20 
   8   1  -2    8.80    2.30 
  -8  -1   2   15.60    2.90 
   7   1  -2  389.56   14.50 
  -7  -1   2  369.16   13.30 
  -7  -1   2  373.26   13.20 
   6   1  -2   16.80    2.40 
   6   1  -2   12.90    1.80 
  -6  -1   2   13.00    2.10 
  -6  -1   2   12.80    2.10 
   5   1  -2  342.17   12.10 
   5   1  -2  352.96    9.70 
  -5  -1   2  355.86   11.20 
  -5  -1   2  330.17   11.30 
   4   1  -2    2.50    0.80 
   4   1  -2    0.10    1.00 
   4   1  -2    2.30    0.70 
  -4  -1   2    2.20    0.70 
  -4  -1   2    4.30    1.10 
  -4  -1   2    3.10    1.10 
   3   1  -2  601.04   16.10 
   3   1  -2  610.94   13.00 
  -3  -1   2  566.74   12.60 
  -3  -1   2  587.64   14.20 
  -3  -1   2  573.94   15.00 
   2   1  -2   51.59    2.30 
   2   1  -2   50.19    3.00 
  -2  -1   2   49.20    2.30 
  -2  -1   2   41.90    2.20 
  -2  -1   2   48.80    3.00 
   1   1  -2   44.00    1.80 
   1   1  -2   43.00    1.80 
   0   1  -2    0.90    0.40 
   0   1  -2    0.20    0.30 
   0  -1   2    0.00    0.30 
  -1   1  -2   64.59    2.20 
  -1   1  -2   57.89    2.70 
   1  -1   2   55.69    2.40 
   1  -1   2   60.89    2.30 
  -2   1  -2   29.90    2.20 
  -2   1  -2   32.70    1.60 
  -2   1  -2   32.20    1.70 
   2  -1   2   30.20    1.80 
   2  -1   2   31.00    1.70 
  -3   1  -2  308.97    8.50 
  -3   1  -2  338.27    7.90 
  -3   1  -2  329.77   10.00 
  -3   1  -2  338.17    8.20 
   3  -1   2  330.77    8.30 
   3  -1   2  320.47    8.50 
  -4   1  -2  152.08    5.90 
  -4   1  -2  158.18    6.70 
  -4   1  -2  160.58    4.90 
  -4   1  -2  155.28    5.30 
   4  -1   2  151.88    6.50 
   4  -1   2  151.78    5.40 
   4  -1   2  149.69    5.20 
  -5   1  -2   92.19    4.60 
  -5   1  -2  103.09    5.00 
  -5   1  -2   98.89    5.60 
   5  -1   2   99.19    5.40 
   5  -1   2  104.29    4.50 
   5  -1   2  103.49    4.40 
  -6   1  -2   49.30    4.40 
  -6   1  -2   45.20    3.50 
   6  -1   2   42.90    3.80 
   6  -1   2   48.60    3.10 
   6  -1   2   44.10    2.90 
  -7   1  -2  179.28    9.20 
   7  -1   2  196.18    7.20 
   7  -1   2  190.58    9.10 
   7  -1   2  190.38    7.30 
  -8   1  -2   15.40    2.90 
   8  -1   2   16.70    2.90 
   8   0  -2   12.20    2.70 
  -8   0   2    1.60    1.50 
   7   0  -2   35.30    3.10 
   7   0  -2   40.90    4.10 
  -7   0   2   32.30    3.30 
  -7   0   2   31.80    3.50 
   6   0  -2  190.48    7.00 
   6   0  -2  205.48    9.10 
  -6   0   2  178.58    8.00 
  -6   0   2  178.48    8.00 
   5   0  -2  199.98    8.50 
   5   0  -2  194.68    6.80 
  -5   0   2  192.68    7.70 
  -5   0   2  195.48    6.50 
  -5   0   2  182.28    7.70 
   4   0  -2  746.03   17.90 
   4   0  -2  847.52   20.90 
   4   0  -2  817.12   17.10 
  -4   0   2  744.83   18.70 
  -4   0   2  814.42   19.30 
  -4   0   2  810.12   16.60 
   3   0  -2 1067.69   24.50 
   3   0  -2 1022.70   22.40 
   3   0  -2 1087.39   20.40 
  -3   0   2  979.30   22.50 
  -3   0   2 1104.09   23.20 
  -3   0   2 1051.99   20.10 
   2   0  -2 2030.70   33.50 
   2   0  -2 2170.78   40.70 
   2   0  -2 2027.10   38.10 
  -2   0   2 2027.80   33.70 
  -2   0   2 2043.90   38.30 
  -2   0   2 1997.80   38.30 
   1   0  -2  524.85   13.00 
   1   0  -2  508.25   10.70 
   1   0  -2  519.35   10.20 
  -1   0   2  526.95   11.20 
  -1   0   2  493.75   12.20 
  -1   0   2  553.14   11.00 
   0   0  -2 8353.46   75.29 
   0   0  -2 8449.75   90.19 
   0   0   2 8826.22   81.29 
  -1   0  -2   28.80    1.40 
  -1   0  -2   24.30    1.70 
  -1   0  -2   26.90    2.10 
  -1   0  -2   25.00    1.50 
   1   0   2   23.80    1.40 
   1   0   2   26.60    1.50 
  -2   0  -2  888.31   18.60 
  -2   0  -2  795.62   19.10 
  -2   0  -2  890.01   15.80 
   2   0   2  861.21   16.40 
   2   0   2  856.81   16.80 
  -3   0  -2   14.70    1.00 
  -3   0  -2   15.80    1.10 
  -3   0  -2   16.80    1.80 
  -3   0  -2   15.80    1.40 
   3   0   2   16.20    1.30 
   3   0   2   18.10    1.40 
  -4   0  -2  415.96   12.40 
  -4   0  -2  402.66   10.30 
  -4   0  -2  416.06    9.40 
   4   0   2  408.66   12.50 
   4   0   2  409.56   10.30 
   4   0   2  408.26   10.10 
  -5   0  -2  270.47   10.00 
   5   0   2  250.77    9.70 
   5   0   2  257.17    7.80 
   5   0   2  252.37    7.70 
  -6   0  -2  379.56   13.40 
   6   0   2  357.06   10.20 
   6   0   2  365.06   12.90 
   6   0   2  369.46   10.40 
  -7   0  -2   16.10    2.80 
   7   0   2   15.90    2.60 
  -8   0  -2   24.40    3.60 
   8   0   2   29.90    3.70 
   9  -1  -2  121.89    8.30 
   8  -1  -2   87.19    5.30 
   8  -1  -2   85.19    6.50 
  -8   1   2  112.49    6.40 
  -8   1   2   90.89    5.80 
   7  -1  -2  286.37   12.10 
   7  -1  -2  300.97   10.00 
  -7   1   2  295.27   10.90 
  -7   1   2  316.97   11.40 
   6  -1  -2  141.99    6.10 
   6  -1  -2  153.58    7.70 
  -6   1   2  152.48    5.80 
  -6   1   2  149.99    6.90 
  -6   1   2  149.59    7.00 
   5  -1  -2  224.88    7.70 
   5  -1  -2  233.88    9.50 
  -5   1   2  225.08    7.50 
  -5   1   2  239.58    8.60 
  -5   1   2  224.58    8.50 
   4  -1  -2  177.18    6.30 
   4  -1  -2  180.78    7.70 
   4  -1  -2  177.08    6.20 
  -4   1   2  173.78    6.10 
  -4   1   2  170.68    6.80 
  -4   1   2  177.58    6.90 
   3  -1  -2   99.49    4.30 
   3  -1  -2   96.19    4.80 
   3  -1  -2  138.69    6.10 
  -3   1   2  110.29    5.00 
  -3   1   2  124.69    4.80 
  -3   1   2  123.99    5.20 
   2  -1  -2    0.20    0.60 
   2  -1  -2    0.70    0.90 
  -2   1   2    1.10    0.80 
  -2   1   2    0.90    0.70 
   1  -1  -2   34.30    2.50 
   1  -1  -2   37.50    1.60 
   1  -1  -2   39.60    1.80 
   1  -1  -2   36.80    2.00 
  -1   1   2   38.60    2.00 
  -1   1   2   36.90    2.00 
   0  -1  -2  520.95   10.00 
   0  -1  -2  546.45   13.30 
   0  -1  -2  502.65   12.50 
   0  -1  -2  514.05   10.90 
   0   1   2  512.95   11.10 
   0   1   2  536.15   11.30 
  -1  -1  -2  381.86    8.60 
  -1  -1  -2  357.06   10.10 
  -1  -1  -2  384.76   10.10 
  -1  -1  -2  380.66    7.90 
   1   1   2  376.66    9.00 
  -2  -1  -2   35.20    2.40 
  -2  -1  -2   33.50    1.90 
  -2  -1  -2   36.50    2.00 
  -2  -1  -2   38.00    1.80 
   2   1   2   30.40    2.00 
   2   1   2   37.70    1.90 
  -3  -1  -2  521.85   13.80 
  -3  -1  -2  519.35   11.20 
  -3  -1  -2  487.85   10.60 
  -3  -1  -2  506.55   12.10 
   3   1   2  517.25   11.40 
   3   1   2  517.85   11.90 
  -4  -1  -2  145.99    6.60 
  -4  -1  -2  151.08    5.40 
   4   1   2  146.49    5.30 
   4   1   2  148.29    5.20 
   4   1   2  154.68    6.70 
  -5  -1  -2  206.78    8.50 
   5   1   2  193.38    6.50 
   5   1   2  182.98    8.30 
   5   1   2  187.58    6.30 
  -6  -1  -2    2.70    1.70 
   6   1   2    8.50    2.00 
  -7  -1  -2  322.67   13.20 
   7   1   2  327.07   12.90 
   9  -2  -2   43.60    3.90 
   8  -2  -2    1.10    1.20 
   8  -2  -2    0.00    1.70 
  -8   2   2    0.00    1.60 
   7  -2  -2  383.66   14.20 
   7  -2  -2  382.16   11.80 
  -7   2   2  404.16   12.90 
  -7   2   2  390.76   12.60 
  -7   2   2  380.46   11.20 
   6  -2  -2  232.58    8.40 
   6  -2  -2  235.18   10.10 
  -6   2   2  244.78    9.00 
  -6   2   2  243.08    9.20 
  -6   2   2  245.98    8.10 
   5  -2  -2  560.84   16.40 
   5  -2  -2  531.35   13.60 
   5  -2  -2  535.05   14.00 
  -5   2   2  522.75   15.00 
  -5   2   2  531.25   13.40 
  -5   2   2  540.45   14.50 
   4  -2  -2  740.73   16.60 
   4  -2  -2  724.63   17.90 
   4  -2  -2  823.42   20.30 
  -4   2   2  763.22   16.80 
  -4   2   2  723.53   18.50 
  -4   2   2  751.02   18.10 
   3  -2  -2  649.14   16.50 
   3  -2  -2  712.53   15.10 
   3  -2  -2  703.33   18.20 
  -3   2   2  649.04   16.20 
  -3   2   2  707.43   15.40 
   2  -2  -2 1162.98   25.30 
   2  -2  -2 1214.38   22.00 
  -2   2   2 1179.28   23.90 
  -2   2   2 1204.48   23.00 
   1  -2  -2    7.80    1.10 
   1  -2  -2    6.80    0.80 
   1  -2  -2    9.80    1.00 
   1  -2  -2    7.20    0.70 
  -1   2   2    7.70    1.00 
  -1   2   2    7.60    1.00 
   0  -2  -2 3294.97   50.09 
   0  -2  -2 3331.67   47.90 
   0  -2  -2 3434.76   58.39 
   0  -2  -2 3499.55   59.29 
   0   2   2 3507.65   52.69 
   0   2   2 3392.76   51.49 
  -1  -2  -2   45.40    2.70 
  -1  -2  -2   48.60    2.10 
  -1  -2  -2   47.80    2.70 
  -1  -2  -2   50.19    1.90 
   1   2   2   44.10    2.50 
  -2  -2  -2  597.14   14.70 
  -2  -2  -2  605.84   15.50 
  -2  -2  -2  644.74   12.30 
  -2  -2  -2  623.74   12.80 
   2   2   2  622.24   13.50 
  -3  -2  -2  269.37    7.20 
  -3  -2  -2  270.67    7.10 
  -3  -2  -2  253.17    9.00 
   3   2   2  258.37    7.10 
   3   2   2  249.58    7.60 
  -4  -2  -2  163.78    7.20 
   4   2   2  171.08    7.30 
   4   2   2  160.18    5.70 
  -5  -2  -2    0.00    1.20 
   5   2   2    2.20    1.00 
  -6  -2  -2  188.98    9.00 
   6   2   2  181.28    8.80 
  -7  -2  -2    9.00    2.40 
   7   2   2   11.40    2.40 
   9  -3  -2   14.80    2.40 
   9  -3  -2   12.30    3.00 
   8  -3  -2  162.38    9.20 
   8  -3  -2  166.08    7.50 
  -8   3   2  173.08    8.00 
   7  -3  -2   95.99    6.50 
   7  -3  -2   89.39    5.10 
  -7   3   2   99.79    5.20 
  -7   3   2   98.79    5.70 
   6  -3  -2  273.47    9.30 
   6  -3  -2  277.87   11.40 
  -6   3   2  303.87    9.80 
  -6   3   2  282.97   10.40 
  -6   3   2  284.07    9.30 
   5  -3  -2   81.79    5.30 
   5  -3  -2   78.49    4.30 
   5  -3  -2   79.79    4.30 
  -5   3   2   79.99    4.80 
  -5   3   2   80.29    4.20 
  -5   3   2   77.59    4.30 
   4  -3  -2   74.89    3.90 
   4  -3  -2   69.69    4.80 
   4  -3  -2   77.79    4.10 
  -4   3   2   77.79    4.10 
  -4   3   2   76.49    4.00 
   3  -3  -2   20.70    2.10 
   3  -3  -2   19.10    1.80 
  -3   3   2   20.10    1.70 
  -3   3   2   20.70    2.10 
   2  -3  -2    5.10    1.10 
   2  -3  -2    6.10    1.00 
  -2   3   2    4.50    1.20 
   1  -3  -2    9.30    1.20 
   1  -3  -2    8.00    1.40 
   1  -3  -2    8.30    0.60 
   1  -3  -2    8.60    1.00 
  -1   3   2    7.50    1.10 
  -1   3   2    8.70    1.20 
   0  -3  -2  204.08    6.90 
   0  -3  -2  203.28    7.10 
   0  -3  -2  193.88    5.60 
   0   3   2  202.18    6.00 
   0   3   2  201.38    6.30 
  -1  -3  -2  663.23   12.30 
  -1  -3  -2  659.23   16.40 
  -1  -3  -2  670.83   13.30 
  -1  -3  -2  646.84   16.00 
   1   3   2  641.04   13.30 
   1   3   2  698.23   14.50 
  -2  -3  -2  194.78    5.20 
  -2  -3  -2  180.08    5.40 
  -2  -3  -2  174.88    6.40 
  -2  -3  -2  188.68    7.10 
   2   3   2  184.68    6.10 
  -3  -3  -2  448.06   13.20 
   3   3   2  437.36   11.10 
  -4  -3  -2   51.89    3.90 
   4   3   2   52.89    3.10 
   4   3   2   51.49    3.80 
  -5  -3  -2  130.59    6.90 
   5   3   2  122.19    6.60 
  -6  -3  -2  195.88    9.40 
   6   3   2  187.78    9.20 
   9  -4  -2   43.80    4.90 
   9  -4  -2   43.80    4.10 
  -9   4   2   57.59    4.60 
   8  -4  -2    1.00    1.50 
   8  -4  -2    2.50    1.40 
  -8   4   2    3.30    1.60 
  -8   4   2    6.10    1.90 
   7  -4  -2  390.66   14.60 
   7  -4  -2  397.26   12.10 
  -7   4   2  390.46   12.10 
  -7   4   2  397.16   13.20 
   6  -4  -2  160.88    6.80 
   6  -4  -2  169.18    8.30 
  -6   4   2  157.08    7.60 
  -6   4   2  164.38    6.90 
   5  -4  -2  127.89    7.50 
   5  -4  -2  148.29    6.10 
   5  -4  -2  148.19    6.40 
  -5   4   2  140.59    6.10 
  -5   4   2  146.09    6.00 
   4  -4  -2  528.65   15.00 
   4  -4  -2  537.85   13.50 
  -4   4   2  533.45   14.00 
  -4   4   2  546.85   14.00 
   3  -4  -2  583.24   15.80 
   3  -4  -2  580.34   13.90 
  -3   4   2  588.94   14.50 
  -3   4   2  576.34   14.30 
   2  -4  -2  577.34   13.20 
   2  -4  -2  567.54   15.60 
  -2   4   2  585.44   14.10 
  -2   4   2  601.54   14.30 
   1  -4  -2  633.14   12.30 
   1  -4  -2  689.03   16.90 
   1  -4  -2  721.73   14.40 
   1  -4  -2  716.83   17.40 
  -1   4   2  702.23   15.60 
  -1   4   2  684.23   15.40 
   0  -4  -2  846.52   16.60 
   0  -4  -2  896.81   20.40 
   0  -4  -2  872.31   20.50 
   0   4   2  881.21   17.60 
   0   4   2  851.81   18.10 
  -1  -4  -2 1307.67   23.20 
  -1  -4  -2 1326.97   28.30 
  -1  -4  -2 1327.17   28.30 
   1   4   2 1382.76   25.20 
  -2  -4  -2  327.87   10.80 
  -2  -4  -2  311.87    9.80 
   2   4   2  326.97    8.90 
  -3  -4  -2  824.12   21.40 
   3   4   2  863.21   18.20 
  -4  -4  -2   75.49    5.10 
   4   4   2   83.79    5.10 
  -5  -4  -2   76.99    5.40 
   5   4   2   77.39    5.30 
  -6  -4  -2  130.49    7.90 
   8  -5  -2   84.39    5.30 
   8  -5  -2   72.09    6.30 
  -8   5   2   83.79    5.30 
  -8   5   2   90.79    5.90 
   7  -5  -2   85.39    6.30 
   7  -5  -2   90.49    5.20 
  -7   5   2   90.99    5.20 
  -7   5   2   87.59    5.90 
   6  -5  -2  277.77    9.40 
  -6   5   2  264.47    9.50 
  -6   5   2  260.37   10.90 
   5  -5  -2  120.29    6.10 
   5  -5  -2  126.29    5.70 
  -5   5   2  115.69    5.80 
   4  -5  -2   97.29    4.70 
   4  -5  -2   92.29    5.20 
  -4   5   2   87.09    4.80 
   3  -5  -2    4.70    1.40 
   3  -5  -2    6.60    1.30 
  -3   5   2    7.60    1.40 
  -3   5   2    6.60    1.40 
   2  -5  -2   10.20    1.40 
   2  -5  -2    9.00    1.70 
  -2   5   2    7.70    1.30 
  -2   5   2   10.10    1.60 
   1  -5  -2   11.60    1.70 
   1  -5  -2   16.70    2.00 
   1  -5  -2   14.00    1.40 
  -1   5   2   11.10    1.60 
  -1   5   2   13.90    1.90 
   0  -5  -2  152.68    6.50 
   0  -5  -2  144.29    6.50 
   0   5   2  150.28    5.70 
   0   5   2  152.18    5.40 
  -1  -5  -2  177.58    7.20 
  -1  -5  -2  166.68    6.80 
   1   5   2  164.68    6.00 
  -2  -5  -2  219.98    8.20 
   2   5   2  236.48    7.50 
  -3  -5  -2   57.89    4.20 
  -4  -5  -2  164.48    8.10 
  -5  -5  -2   41.70    4.30 
   8  -6  -2   11.70    2.20 
  -8   6   2   12.50    2.60 
  -8   6   2    7.40    2.30 
   7  -6  -2  369.96   11.80 
  -7   6   2  364.26   13.70 
  -7   6   2  340.67   11.90 
   6  -6  -2    3.50    1.40 
   6  -6  -2    2.10    1.50 
  -6   6   2    2.30    1.50 
   5  -6  -2  332.87   11.70 
   5  -6  -2  329.47   10.40 
  -5   6   2  310.07   10.70 
   4  -6  -2    8.40    1.70 
   4  -6  -2    9.10    1.90 
  -4   6   2    9.60    2.00 
   3  -6  -2 1324.77   30.20 
   3  -6  -2 1320.97   25.90 
  -3   6   2 1351.66   27.40 
   2  -6  -2    0.20    1.10 
   2  -6  -2    0.00    0.80 
  -2   6   2    3.50    1.30 
  -2   6   2    0.00    1.00 
   1  -6  -2 1330.97   29.00 
   1  -6  -2 1315.97   29.50 
  -1   6   2 1274.07   26.00 
  -1   6   2 1344.17   26.10 
   0  -6  -2   26.00    2.70 
   0  -6  -2   25.10    2.60 
   0   6   2   19.50    2.10 
  -1  -6  -2  804.32   20.20 
  -1  -6  -2  747.13   19.70 
   1   6   2  785.92   17.40 
  -2  -6  -2  132.89    6.30 
  -2  -6  -2  137.69    6.90 
  -3  -6  -2  208.48    9.20 
  -4  -6  -2   36.20    3.80 
   8  -7  -2  120.89    6.70 
  -8   7   2  127.89    7.00 
  -8   7   2  134.09    8.00 
   7  -7  -2    8.30    1.80 
  -7   7   2    5.40    2.40 
  -7   7   2    4.40    1.50 
   6  -7  -2  176.68    8.30 
   6  -7  -2  162.28    7.20 
  -6   7   2  162.48    7.60 
   5  -7  -2    1.80    1.10 
   5  -7  -2    0.00    1.20 
  -5   7   2    0.00    1.30 
   4  -7  -2   26.80    3.10 
   4  -7  -2   25.00    2.50 
  -4   7   2   24.80    2.80 
   3  -7  -2    5.30    1.60 
   3  -7  -2    5.30    1.30 
  -3   7   2    5.00    1.70 
  -3   7   2    7.00    1.80 
   2  -7  -2    5.60    1.70 
  -2   7   2    2.90    1.40 
  -2   7   2    2.30    1.50 
   1  -7  -2   41.20    3.60 
   1  -7  -2   40.10    3.50 
  -1   7   2   43.00    3.20 
   0  -7  -2   86.59    5.20 
   0  -7  -2   89.09    5.30 
   0   7   2   81.89    4.50 
  -1  -7  -2   30.70    3.30 
  -1  -7  -2   36.50    3.20 
  -2  -7  -2  184.28    8.50 
  -3  -7  -2   19.00    2.80 
   7  -8  -2  287.27   10.60 
  -7   8   2  294.07   11.20 
  -7   8   2  279.97   13.40 
   6  -8  -2   79.39    5.00 
   6  -8  -2   86.39    5.90 
  -6   8   2   76.79    5.40 
   5  -8  -2  295.67   10.20 
   5  -8  -2  312.37   12.10 
  -5   8   2  295.17   10.90 
   4  -8  -2   41.90    3.30 
   4  -8  -2   44.20    4.00 
  -4   8   2   39.30    3.60 
  -4   8   2   38.90    3.90 
   3  -8  -2  658.93   19.50 
  -3   8   2  698.43   18.30 
  -3   8   2  690.43   18.00 
   2  -8  -2   19.90    2.70 
  -2   8   2   17.10    2.50 
   1  -8  -2  562.54   16.90 
   1  -8  -2  549.15   17.10 
  -1   8   2  576.04   14.90 
   0  -8  -2    0.00    1.50 
   0  -8  -2    1.50    1.30 
   0   8   2    1.50    0.90 
  -1  -8  -2  181.28    8.30 
  -1  -8  -2  189.08    8.80 
  -2  -8  -2   21.10    3.00 
   6  -9  -2   12.30    2.20 
   6  -9  -2    8.10    2.30 
  -6   9   2    8.90    2.50 
   5  -9  -2   16.90    3.00 
  -5   9   2   14.60    2.80 
  -5   9   2   10.40    2.30 
   4  -9  -2    3.80    1.70 
  -4   9   2    3.80    1.90 
  -4   9   2    3.30    1.80 
   3  -9  -2    0.00    1.70 
  -3   9   2    1.90    1.30 
  -3   9   2    2.70    1.70 
   2  -9  -2    2.20    1.50 
  -2   9   2    3.20    1.50 
   1  -9  -2   33.10    3.70 
  -1   9   2   32.10    3.10 
   0  -9  -2   72.19    5.20 
   0  -9  -2   69.09    5.30 
  -1  -9  -2    5.10    1.70 
  -1  -9  -2    2.80    1.50 
   5 -10  -2  136.19    8.30 
  -5  10   2  134.09    7.60 
  -5  10   2  135.59    8.10 
   4 -10  -2   21.10    3.10 
  -4  10   2   21.90    3.50 
  -4  10   2   25.10    3.30 
   3 -10  -2  331.07   13.60 
  -3  10   2  347.07   12.70 
   2 -10  -2   42.00    4.40 
  -2  10   2   39.90    3.70 
   1 -10  -2  325.27   13.00 
   1 -12   3    5.40    1.80 
   2 -12   3    1.00    1.70 
   3 -12   3    2.80    1.80 
  -4  12  -3   17.60    2.70 
   4 -12   3   17.20    2.80 
  -5  12  -3   48.10    4.40 
   5 -12   3   45.10    4.70 
  -1 -11   3    2.30    1.50 
   0 -11   3  401.66   13.90 
   1 -11   3    3.60    1.60 
   2 -11   3  545.65   17.10 
  -3  11  -3    2.20    1.40 
   3 -11   3    0.00    1.30 
  -4  11  -3  290.07   10.40 
   4 -11   3  273.87   11.40 
  -5  11  -3    2.50    1.80 
   5 -11   3    0.00    1.40 
  -6  11  -3  161.48    7.90 
  -6  11  -3  159.58   10.00 
   6 -11   3  164.98    8.60 
  -2 -10   3    1.50    1.30 
  -2 -10   3    3.00    1.50 
  -1 -10   3   59.39    4.50 
   0 -10   3    0.00    1.10 
   1 -10   3    5.60    1.60 
  -2  10  -3    2.60    1.30 
   2 -10   3    2.60    1.30 
  -3  10  -3   27.60    2.80 
   3 -10   3   30.20    3.20 
  -4  10  -3   81.49    4.90 
   4 -10   3   78.29    5.40 
  -5  10  -3   90.89    5.30 
   5 -10   3   89.59    4.60 
   5 -10   3   94.69    5.90 
  -6  10  -3    0.90    2.10 
  -6  10  -3    4.30    1.90 
   6 -10   3    1.90    1.10 
  -7  10  -3   29.60    4.00 
  -7  10  -3   22.70    3.00 
   7 -10   3   26.50    3.00 
  -3  -9   3  116.99    6.40 
  -2  -9   3  155.58    7.20 
  -2  -9   3  153.68    7.30 
  -1  -9   3  100.89    5.60 
  -1  -9   3   97.89    5.50 
   0  -9   3  404.96   13.00 
  -1   9  -3  333.67    9.80 
   1  -9   3  340.07   11.60 
  -2   9  -3  257.37    8.40 
   2  -9   3  254.57    9.80 
  -3   9  -3  377.66   11.00 
   3  -9   3  360.66   12.30 
  -4   9  -3  219.78    8.00 
   4  -9   3  213.38    7.10 
   4  -9   3  209.28    8.90 
  -5   9  -3   57.59    4.10 
   5  -9   3   62.19    3.70 
   5  -9   3   67.09    4.60 
  -6   9  -3  396.26   11.60 
  -6   9  -3  396.16   12.40 
  -6   9  -3  388.96   14.90 
   6  -9   3  397.76   11.80 
  -7   9  -3    5.00    2.20 
  -7   9  -3    1.90    1.40 
   7  -9   3    1.30    1.20 
  -8   9  -3   85.99    5.70 
  -8   9  -3   94.89    6.80 
   8  -9   3   85.69    5.50 
  -5  -8   3   94.99    6.50 
  -4  -8   3  203.88    9.10 
  -3  -8   3  139.39    6.70 
  -3  -8   3  132.29    6.60 
  -2  -8   3   53.99    3.70 
  -2  -8   3   47.70    3.60 
  -2  -8   3   52.09    3.70 
  -1  -8   3    3.40    1.20 
  -1  -8   3    3.80    1.20 
  -1  -8   3    5.60    1.30 
   0  -8   3   39.80    3.20 
  -1   8  -3   37.60    2.60 
   1  -8   3   38.90    3.10 
  -2   8  -3    5.40    1.20 
   2  -8   3    4.70    1.30 
  -3   8  -3   22.40    2.20 
  -3   8  -3   20.30    1.70 
   3  -8   3   19.80    2.30 
   3  -8   3   20.60    1.70 
  -4   8  -3  126.99    5.00 
  -4   8  -3  127.99    5.70 
   4  -8   3  132.59    5.20 
   4  -8   3  129.89    6.30 
  -5   8  -3  163.48    6.30 
  -5   8  -3  170.58    8.90 
  -5   8  -3  165.08    6.90 
   5  -8   3  175.28    6.50 
   5  -8   3  176.08    7.50 
  -6   8  -3   33.80    3.00 
  -6   8  -3   36.80    4.10 
  -6   8  -3   35.60    3.20 
   6  -8   3   39.90    3.10 
  -7   8  -3   80.39    6.00 
  -7   8  -3   80.39    5.00 
   7  -8   3   77.19    4.80 
  -8   8  -3    4.60    1.70 
  -8   8  -3    6.00    2.30 
   8  -8   3    5.70    2.00 
  -5  -7   3  111.89    6.80 
  -4  -7   3   35.50    3.50 
  -4  -7   3   39.10    3.30 
  -3  -7   3  498.85   14.70 
  -3  -7   3  516.75   14.40 
  -3  -7   3  485.45   14.10 
  -2  -7   3   43.70    3.20 
  -2  -7   3   45.20    3.20 
  -2  -7   3   47.10    3.30 
  -1  -7   3  570.44   15.20 
  -1  -7   3  555.04   14.50 
  -1  -7   3  547.75   14.80 
   0   7  -3  407.76   10.30 
   0  -7   3  414.36   12.30 
   0  -7   3  428.56   11.20 
  -1   7  -3  749.82   16.10 
  -1   7  -3  747.53   14.10 
   1  -7   3  731.23   18.40 
  -2   7  -3  249.58    7.70 
  -2   7  -3  242.58    6.60 
   2  -7   3  249.78    6.80 
   2  -7   3  244.68    8.70 
  -3   7  -3  885.21   19.20 
  -3   7  -3  921.41   17.50 
   3  -7   3  910.81   21.70 
   3  -7   3  924.41   18.20 
  -4   7  -3  464.15   11.30 
  -4   7  -3  441.96   12.20 
  -4   7  -3  471.45   15.50 
   4  -7   3  473.85   13.50 
   4  -7   3  468.85   11.60 
  -5   7  -3   13.10    1.90 
  -5   7  -3   17.00    3.00 
  -5   7  -3   14.30    1.90 
   5  -7   3   15.10    1.90 
   5  -7   3   13.30    1.70 
   5  -7   3   14.60    1.90 
  -6   7  -3  538.05   13.60 
  -6   7  -3  533.45   17.20 
  -6   7  -3  534.65   14.10 
   6  -7   3  522.55   16.30 
   6  -7   3  528.65   14.00 
  -7   7  -3    0.30    1.60 
  -7   7  -3    0.90    1.20 
  -7   7  -3    5.00    1.80 
   7  -7   3    1.60    1.30 
   7  -7   3    2.80    1.60 
  -8   7  -3   21.70    3.50 
  -8   7  -3   20.80    2.70 
   8  -7   3   21.80    2.80 
   8  -7   3   17.50    2.90 
  -6  -6   3  234.78   10.80 
  -5  -6   3    1.90    1.80 
  -4  -6   3  343.27   12.00 
  -4  -6   3  342.97   11.20 
  -3  -6   3   25.50    2.60 
  -3  -6   3   27.50    2.40 
  -3  -6   3   28.80    2.50 
  -2  -6   3   92.19    4.40 
  -2  -6   3   93.09    4.60 
  -2  -6   3   95.19    4.70 
   1   6  -3    1.90    0.50 
   1   6  -3    1.80    0.50 
  -1  -6   3    3.50    1.10 
  -1  -6   3    1.30    0.70 
  -1  -6   3    1.40    0.70 
   0   6  -3  112.89    3.60 
   0   6  -3  116.99    4.20 
   0  -6   3  117.09    4.50 
   0  -6   3  117.79    5.10 
  -1   6  -3  235.38    6.90 
  -1   6  -3  237.08    6.00 
   1  -6   3  232.38    8.00 
   1  -6   3  233.48    6.20 
   1  -6   3  236.68    6.60 
  -2   6  -3    4.00    0.80 
  -2   6  -3    2.50    0.70 
   2  -6   3    3.20    0.70 
   2  -6   3    3.30    1.00 
   2  -6   3    3.90    0.60 
  -3   6  -3  109.89    4.60 
  -3   6  -3  113.09    4.20 
   3  -6   3  110.69    5.00 
   3  -6   3  111.59    4.70 
   3  -6   3  118.59    5.20 
   3  -6   3  116.09    4.30 
  -4   6  -3  217.78    6.80 
  -4   6  -3  217.88    7.20 
  -4   6  -3  216.58    9.40 
   4  -6   3  226.38    7.90 
   4  -6   3  229.98    7.90 
   4  -6   3  218.18    7.00 
   4  -6   3  215.08    7.90 
  -5   6  -3  457.65   15.00 
  -5   6  -3  428.76   11.30 
  -5   6  -3  433.86   11.80 
   5  -6   3  447.86   11.70 
   5  -6   3  436.46   13.40 
   5  -6   3  455.25   12.60 
  -6   6  -3  305.97    9.60 
  -6   6  -3  311.77   12.00 
  -6   6  -3  289.37    9.40 
   6  -6   3  304.07   11.10 
   6  -6   3  296.37   10.20 
   6  -6   3  307.17    9.60 
  -7   6  -3  155.98    6.90 
  -7   6  -3  165.08    6.80 
  -7   6  -3  159.48    8.40 
   7  -6   3  154.58    6.90 
   7  -6   3  160.78    8.00 
   7  -6   3  164.38    7.50 
  -8   6  -3   59.69    4.20 
  -8   6  -3   69.89    5.50 
   8  -6   3   59.99    4.50 
   8  -6   3   57.09    4.30 
   8  -6   3   57.89    5.00 
  -7  -5   3   62.09    5.40 
  -6  -5   3   38.40    4.10 
  -5  -5   3  174.08    8.30 
   4   5  -3   19.30    2.40 
  -4  -5   3   19.30    2.40 
  -4  -5   3   17.20    2.10 
   3   5  -3  692.23   18.70 
   3   5  -3  712.73   14.50 
  -3  -5   3  743.23   17.60 
  -3  -5   3  746.93   18.40 
   2   5  -3  153.88    4.70 
   2   5  -3  145.49    6.10 
   2   5  -3  163.48    4.70 
  -2  -5   3  161.78    5.80 
  -2  -5   3  166.48    6.20 
  -2  -5   3  162.18    6.40 
   1   5  -3  452.15    9.90 
   1   5  -3  466.05    9.90 
   1   5  -3  471.35   10.50 
  -1  -5   3  493.35   12.30 
  -1  -5   3  468.75   12.20 
  -1  -5   3  505.05   12.80 
   0   5  -3 1211.78   20.70 
   0   5  -3 1186.28   20.20 
   0   5  -3 1181.48   21.80 
   0  -5   3 1182.28   25.20 
   0  -5   3 1185.28   23.80 
   0  -5   3 1162.58   20.50 
  -1   5  -3  815.72   16.40 
  -1   5  -3  831.22   15.00 
   1  -5   3  818.32   16.90 
   1  -5   3  794.92   15.50 
   1  -5   3  775.42   18.70 
  -2   5  -3  439.86   10.60 
  -2   5  -3  430.96    9.70 
   2  -5   3  454.55   11.10 
   2  -5   3  437.96   10.00 
   2  -5   3  426.26   11.90 
   2  -5   3  438.86   11.30 
  -3   5  -3 1525.35   33.80 
  -3   5  -3 1544.95   27.80 
  -3   5  -3 1511.15   26.10 
   3  -5   3 1537.55   31.20 
   3  -5   3 1550.14   28.20 
   3  -5   3 1544.55   31.40 
   3  -5   3 1546.25   27.20 
  -4   5  -3  289.07    8.60 
  -4   5  -3  300.87    8.30 
  -4   5  -3  298.67   11.20 
   4  -5   3  299.77    9.00 
   4  -5   3  307.77    9.30 
   4  -5   3  296.67    9.60 
   4  -5   3  305.37    8.50 
  -5   5  -3   18.70    2.70 
  -5   5  -3   19.60    1.90 
  -5   5  -3   21.50    2.10 
   5  -5   3   19.90    2.00 
   5  -5   3   17.40    2.00 
   5  -5   3   21.10    2.30 
  -6   5  -3  151.08    6.00 
  -6   5  -3  136.39    6.00 
  -6   5  -3  140.29    7.90 
   6  -5   3  134.69    6.20 
   6  -5   3  146.49    6.90 
   6  -5   3  135.59    6.00 
  -7   5  -3   85.69    5.90 
  -7   5  -3   74.79    4.30 
  -7   5  -3   71.69    4.50 
   7  -5   3   76.69    4.50 
   7  -5   3   77.19    5.30 
   7  -5   3   76.89    4.80 
  -8   5  -3    8.90    2.20 
   8  -5   3    8.80    1.70 
   8  -5   3    7.60    2.30 
   8  -5   3    9.20    2.00 
   7   4  -3   31.70    3.90 
  -7  -4   3   30.50    3.90 
   6   4  -3  158.58    8.40 
  -6  -4   3  165.68    8.30 
   5   4  -3   20.60    2.80 
  -5  -4   3   24.80    3.00 
  -5  -4   3   28.60    2.60 
   4   4  -3  282.07   10.50 
  -4  -4   3  284.17   10.30 
  -4  -4   3  293.57    9.20 
   3   4  -3   30.10    2.70 
   3   4  -3   30.60    2.00 
  -3  -4   3   31.70    2.80 
  -3  -4   3   34.20    2.30 
   2   4  -3   91.09    3.30 
   2   4  -3   88.79    4.40 
   2   4  -3   93.89    3.20 
  -2  -4   3   94.09    3.80 
  -2  -4   3   95.59    4.50 
   1   4  -3   96.99    3.00 
   1   4  -3   99.19    3.30 
  -1  -4   3  101.69    3.90 
  -1  -4   3  106.79    4.50 
  -1  -4   3  104.49    4.40 
   0   4  -3   37.20    1.80 
   0   4  -3   35.60    1.80 
   0  -4   3   39.70    2.30 
   0  -4   3   40.00    2.50 
   0  -4   3   38.10    2.10 
  -1   4  -3  304.97    8.10 
  -1   4  -3  328.77    7.50 
   1  -4   3  316.07    8.10 
   1  -4   3  318.57    7.70 
   1  -4   3  338.77    8.50 
   1  -4   3  316.17    9.30 
  -2   4  -3  119.19    5.90 
  -2   4  -3  121.59    4.00 
  -2   4  -3  116.89    4.20 
   2  -4   3  115.49    4.30 
   2  -4   3  116.19    4.70 
   2  -4   3  116.09    4.10 
  -3   4  -3   60.89    4.40 
  -3   4  -3   67.69    3.10 
  -3   4  -3   68.39    3.10 
   3  -4   3   66.59    3.10 
   3  -4   3   67.79    3.30 
   3  -4   3   63.89    3.40 
   3  -4   3   69.69    3.30 
  -4   4  -3  416.46   10.30 
  -4   4  -3  403.36   13.40 
  -4   4  -3  427.96   10.50 
   4  -4   3  409.46   10.90 
   4  -4   3  417.26   10.50 
   4  -4   3  431.46   12.30 
  -5   4  -3   38.00    3.80 
  -5   4  -3   42.70    2.70 
  -5   4  -3   42.10    2.90 
   5  -4   3   47.30    2.90 
   5  -4   3   46.00    3.00 
   5  -4   3   41.10    3.20 
  -6   4  -3  425.86   14.70 
  -6   4  -3  436.46   11.90 
  -6   4  -3  438.26   11.50 
   6  -4   3  413.16   12.00 
   6  -4   3  426.36   13.80 
   6  -4   3  440.26   11.80 
  -7   4  -3   22.80    3.50 
  -7   4  -3   23.30    2.80 
   7  -4   3   26.50    2.70 
   7  -4   3   24.80    3.00 
   7  -4   3   27.20    2.70 
  -8   4  -3   49.50    4.80 
   8  -4   3   44.70    4.40 
   8  -4   3   42.60    3.60 
   8  -4   3   44.50    3.60 
   8   3  -3    3.50    2.00 
  -8  -3   3    3.80    2.20 
   7   3  -3  207.48   10.40 
  -7  -3   3  199.78    9.70 
   6   3  -3   35.70    3.80 
  -6  -3   3   35.40    3.70 
   5   3  -3  122.29    6.60 
  -5  -3   3  114.99    5.50 
  -5  -3   3  111.19    6.10 
   4   3  -3   32.90    2.40 
   4   3  -3   37.30    3.90 
  -4  -3   3   46.50    3.00 
   3   3  -3 1022.50   19.20 
   3   3  -3 1005.80   18.90 
   3   3  -3 1013.10   23.80 
  -3  -3   3 1021.60   23.40 
  -3  -3   3  987.80   21.40 
   2   3  -3   68.29    2.70 
   2   3  -3   68.89    2.80 
   2   3  -3   72.79    3.70 
  -2  -3   3   71.59    3.90 
  -2  -3   3   66.49    2.90 
   1   3  -3 1292.37   22.20 
   1   3  -3 1289.67   21.70 
  -1  -3   3 1301.57   25.40 
  -1  -3   3 1335.17   26.80 
   0   3  -3    0.00    0.70 
   0   3  -3    0.00    0.70 
   0  -3   3    3.40    1.40 
   0  -3   3    0.90    0.70 
  -1   3  -3 1425.56   30.40 
  -1   3  -3 1511.75   24.40 
   1  -3   3 1509.55   25.30 
   1  -3   3 1485.55   25.90 
  -2   3  -3   98.99    4.90 
  -2   3  -3  103.39    3.60 
  -2   3  -3  102.89    3.70 
   2  -3   3  107.19    3.90 
   2  -3   3  103.29    3.80 
  -3   3  -3 1788.92   36.90 
  -3   3  -3 1857.21   30.30 
  -3   3  -3 1908.41   31.80 
   3  -3   3 1820.42   32.00 
   3  -3   3 1874.51   31.50 
  -4   3  -3   23.50    3.10 
  -4   3  -3   24.70    2.10 
  -4   3  -3   20.70    2.10 
   4  -3   3   30.50    2.50 
   4  -3   3   25.00    2.20 
   4  -3   3   28.30    2.30 
  -5   3  -3   72.19    3.80 
  -5   3  -3   77.89    3.60 
  -5   3  -3   69.69    4.90 
   5  -3   3   74.59    3.70 
   5  -3   3   75.19    3.90 
   5  -3   3   70.59    4.40 
  -6   3  -3    5.00    2.20 
  -6   3  -3    6.10    1.60 
   6  -3   3    5.00    1.40 
   6  -3   3    6.60    1.40 
   6  -3   3    9.40    1.80 
  -7   3  -3  124.29    7.60 
   7  -3   3  126.29    5.80 
   7  -3   3  125.39    5.80 
   7  -3   3  126.69    7.00 
  -8   3  -3   37.90    4.40 
   8  -3   3   42.70    4.20 
   8  -3   3   34.70    3.30 
   8  -3   3   44.50    3.50 
   8   2  -3   34.30    4.30 
  -8  -2   3   35.90    4.00 
   7   2  -3   89.39    6.40 
  -7  -2   3   82.09    5.70 
   6   2  -3  344.87   12.90 
  -6  -2   3  333.37   12.20 
   5   2  -3  108.09    6.00 
   5   2  -3   99.19    4.50 
  -5  -2   3  105.89    5.10 
  -5  -2   3   93.09    5.60 
   4   2  -3  508.05   11.90 
   4   2  -3  496.75   14.80 
  -4  -2   3  473.25   11.40 
  -4  -2   3  472.95   14.20 
  -4  -2   3  501.85   12.90 
   3   2  -3   12.90    1.30 
   3   2  -3   14.50    1.90 
  -3  -2   3    9.70    1.60 
  -3  -2   3   13.00    1.20 
   2   2  -3   88.49    3.20 
   2   2  -3   84.99    3.30 
   2   2  -3   95.69    4.40 
  -2  -2   3   88.69    4.50 
  -2  -2   3   90.69    3.20 
   1   2  -3   50.59    2.10 
   1   2  -3   49.99    2.10 
  -1  -2   3   56.99    3.10 
   0   2  -3    9.70    0.90 
   0   2  -3    7.90    0.90 
   0   2  -3   14.40    1.40 
   0  -2   3   11.90    1.50 
   0  -2   3    9.20    1.00 
  -1   2  -3   28.60    1.60 
  -1   2  -3   28.90    1.80 
   1  -2   3   30.00    1.70 
   1  -2   3   30.50    1.70 
  -2   2  -3   78.89    3.00 
  -2   2  -3   72.09    3.60 
   2  -2   3   69.99    3.00 
   2  -2   3   69.89    3.10 
  -3   2  -3   38.70    2.20 
  -3   2  -3   38.30    2.90 
  -3   2  -3   39.60    2.10 
   3  -2   3   43.10    2.40 
   3  -2   3   39.00    2.30 
  -4   2  -3  267.47    7.20 
  -4   2  -3  262.47    9.50 
  -4   2  -3  255.47    7.50 
   4  -2   3  261.47    9.10 
   4  -2   3  252.97    7.70 
   4  -2   3  262.17    7.60 
  -5   2  -3   29.60    3.10 
  -5   2  -3   30.40    2.50 
  -5   2  -3   33.70    2.10 
   5  -2   3   29.40    2.20 
   5  -2   3   31.70    2.40 
   5  -2   3   30.60    2.80 
  -6   2  -3  433.86   11.80 
  -6   2  -3  406.76   14.50 
   6  -2   3  430.16   11.70 
   6  -2   3  417.86   11.50 
   6  -2   3  425.56   13.90 
  -7   2  -3   21.80    3.50 
   7  -2   3   20.60    2.20 
   7  -2   3   22.50    2.30 
   7  -2   3   19.80    2.80 
  -8   2  -3  110.09    7.60 
   8  -2   3   96.19    5.60 
   8  -2   3  108.09    7.00 
   8   1  -3    5.90    2.20 
  -8  -1   3    3.80    1.90 
   7   1  -3  175.08    9.00 
  -7  -1   3  165.08    8.20 
   6   1  -3  154.68    6.20 
   6   1  -3  151.18    7.70 
  -6  -1   3  146.09    7.30 
  -6  -1   3  141.69    6.70 
   5   1  -3   53.49    3.20 
   5   1  -3   53.99    4.10 
  -5  -1   3   49.00    3.00 
  -5  -1   3   53.99    3.60 
  -5  -1   3   50.29    3.90 
   4   1  -3  386.76   11.30 
   4   1  -3  435.56   13.50 
   4   1  -3  430.16   10.80 
  -4  -1   3  416.86   11.60 
  -4  -1   3  417.66   10.60 
  -4  -1   3  441.16   12.70 
   3   1  -3 1292.87   29.00 
   3   1  -3 1381.26   23.80 
   3   1  -3 1147.59   26.00 
  -3  -1   3 1336.57   23.80 
  -3  -1   3 1258.17   26.00 
  -3  -1   3 1303.97   27.40 
   2   1  -3  723.63   14.40 
   2   1  -3  723.83   14.00 
   2   1  -3  679.33   16.60 
  -2  -1   3  689.43   15.60 
  -2  -1   3  779.42   14.50 
  -2  -1   3  745.43   14.80 
  -2  -1   3  742.73   17.50 
   1   1  -3 1689.33   28.30 
   1   1  -3 1735.93   27.20 
  -1  -1   3 1733.13   28.60 
  -1  -1   3 1692.73   32.30 
   0   1  -3 1138.59   22.80 
   0   1  -3 1157.98   19.50 
   0   1  -3 1164.78   20.70 
   0  -1   3 1180.68   20.90 
  -1   1  -3 1191.38   20.20 
  -1   1  -3 1140.19   24.00 
  -1   1  -3 1206.38   21.40 
  -1   1  -3 1199.28   24.70 
   1  -1   3 1239.38   21.90 
   1  -1   3 1173.08   21.20 
  -2   1  -3   12.50    1.10 
  -2   1  -3   12.20    1.50 
  -2   1  -3   10.80    1.40 
   2  -1   3   12.10    1.30 
   2  -1   3   12.00    1.20 
  -3   1  -3 1983.40   32.80 
  -3   1  -3 1923.11   38.80 
  -3   1  -3 2061.89   37.60 
  -3   1  -3 2013.10   32.30 
   3  -1   3 2031.80   33.40 
   3  -1   3 1946.61   33.90 
  -4   1  -3    4.00    1.40 
  -4   1  -3    3.70    1.00 
   4  -1   3    4.60    1.00 
   4  -1   3    3.00    1.10 
   4  -1   3    3.60    0.80 
  -5   1  -3  207.28    8.70 
  -5   1  -3  202.88    6.90 
   5  -1   3  206.98    7.00 
   5  -1   3  199.58    8.40 
   5  -1   3  197.58    6.70 
  -6   1  -3    3.20    1.90 
  -6   1  -3    2.40    1.40 
   6  -1   3    1.30    1.00 
   6  -1   3    0.70    0.90 
   6  -1   3    2.50    1.10 
  -7   1  -3   35.60    4.20 
   7  -1   3   41.90    3.10 
   7  -1   3   37.00    2.90 
   7  -1   3   37.00    3.80 
  -8   1  -3   27.60    4.20 
   8  -1   3   25.40    3.50 
   8   0  -3   55.89    5.30 
   8   0  -3   61.19    4.30 
  -8   0   3   59.89    4.80 
   7   0  -3  320.97   10.30 
   7   0  -3  322.37   12.90 
  -7   0   3  312.87   11.60 
   6   0  -3  275.67    9.00 
   6   0  -3  268.37   11.00 
  -6   0   3  276.57    8.60 
  -6   0   3  275.77    9.90 
  -6   0   3  258.07   10.10 
   5   0  -3  240.08    7.80 
   5   0  -3  239.48    9.70 
  -5   0   3  226.68    8.80 
  -5   0   3  235.58    7.50 
  -5   0   3  223.88    8.30 
   4   0  -3  181.78    7.70 
   4   0  -3  173.08    6.00 
   4   0  -3  144.59    6.20 
  -4   0   3  163.98    6.30 
  -4   0   3  166.98    5.90 
  -4   0   3  164.08    7.00 
   3   0  -3   93.39    4.70 
   3   0  -3  103.79    5.20 
   3   0  -3  103.69    4.10 
  -3   0   3  102.99    4.30 
  -3   0   3   97.89    4.10 
  -3   0   3   94.49    4.80 
   2   0  -3   17.90    1.20 
   2   0  -3   18.70    1.40 
   2   0  -3   17.50    2.30 
  -2   0   3   17.10    1.50 
  -2   0   3   16.50    1.70 
  -2   0   3   19.40    2.10 
   1   0  -3   71.29    2.80 
   1   0  -3   75.59    3.90 
   1   0  -3   72.09    2.60 
   1   0  -3   72.39    2.80 
  -1   0   3   76.49    3.00 
  -1   0   3   74.79    2.90 
   0   0  -3   17.30    1.30 
   0   0  -3   17.10    1.90 
   0   0  -3   16.20    1.30 
   0   0  -3   16.70    1.10 
   0   0   3   16.30    1.30 
  -1   0  -3  239.98    8.20 
  -1   0  -3  243.08    7.50 
  -1   0  -3  250.17    6.50 
  -1   0  -3  254.47    6.10 
   1   0   3  243.28    6.80 
  -2   0  -3    2.90    0.70 
  -2   0  -3    4.00    0.90 
  -2   0  -3    3.90    0.70 
   2   0   3    3.40    0.80 
   2   0   3    3.60    0.80 
  -3   0  -3   38.70    2.10 
  -3   0  -3   40.50    2.20 
  -3   0  -3   37.40    2.80 
  -3   0  -3   38.80    1.90 
   3   0   3   40.20    2.40 
   3   0   3   40.20    2.30 
  -4   0  -3  544.05   15.40 
  -4   0  -3  547.15   12.40 
   4   0   3  555.24   12.70 
   4   0   3  531.25   13.00 
  -5   0  -3   59.39    3.40 
   5   0   3   59.69    3.30 
   5   0   3   52.59    3.20 
   5   0   3   61.79    4.20 
  -6   0  -3  669.83   19.40 
   6   0   3  639.14   19.20 
   6   0   3  635.94   15.40 
   6   0   3  636.74   15.20 
  -7   0  -3    0.60    1.60 
   7   0   3    2.80    1.60 
   9  -1  -3    0.00    1.10 
   9  -1  -3    1.70    2.10 
  -9   1   3    0.00    1.40 
   8  -1  -3   29.00    4.10 
   8  -1  -3   32.90    3.10 
  -8   1   3   35.60    3.50 
   7  -1  -3   70.59    4.40 
   7  -1  -3   64.59    5.30 
  -7   1   3   69.79    4.80 
   6  -1  -3  459.95   12.60 
   6  -1  -3  456.55   15.60 
  -6   1   3  470.85   13.60 
  -6   1   3  455.25   13.80 
  -6   1   3  454.65   12.20 
   5  -1  -3   16.40    1.80 
   5  -1  -3   12.90    1.70 
   5  -1  -3   17.10    2.50 
  -5   1   3   12.60    1.90 
  -5   1   3   18.30    2.20 
  -5   1   3   14.70    1.80 
   4  -1  -3  921.91   22.70 
   4  -1  -3  857.51   20.30 
   4  -1  -3  882.91   18.50 
  -4   1   3  877.51   18.40 
  -4   1   3  844.42   20.20 
  -4   1   3  806.02   20.30 
   3  -1  -3  971.20   22.70 
   3  -1  -3  994.80   19.80 
  -3   1   3 1038.20   20.30 
  -3   1   3  989.90   22.20 
   2  -1  -3  145.09    6.10 
   2  -1  -3  143.49    4.40 
   2  -1  -3  143.19    4.80 
  -2   1   3  144.59    5.30 
  -2   1   3  143.69    5.20 
  -2   1   3  156.68    5.10 
   1  -1  -3 1340.57   29.50 
   1  -1  -3 1408.56   23.00 
   1  -1  -3 1413.36   24.60 
   1  -1  -3 1430.66   27.80 
  -1   1   3 1458.75   25.60 
  -1   1   3 1428.16   25.50 
   0  -1  -3  115.59    3.90 
   0  -1  -3  111.09    4.40 
   0  -1  -3  120.09    5.20 
   0  -1  -3  108.09    3.30 
   0   1   3  114.39    3.90 
   0   1   3  111.49    4.10 
  -1  -1  -3 1343.27   23.40 
  -1  -1  -3 1254.47   26.80 
  -1  -1  -3 1325.17   21.80 
  -1  -1  -3 1365.16   27.70 
   1   1   3 1318.37   24.20 
  -2  -1  -3  103.29    3.80 
  -2  -1  -3  106.79    3.50 
  -2  -1  -3   99.79    4.60 
  -2  -1  -3  101.29    4.20 
   2   1   3   92.19    4.00 
  -3  -1  -3 1615.24   27.20 
  -3  -1  -3 1668.33   28.50 
  -3  -1  -3 1575.74   33.10 
   3   1   3 1657.23   28.40 
   3   1   3 1613.54   29.10 
  -4  -1  -3   37.50    2.50 
  -4  -1  -3   40.50    3.20 
  -4  -1  -3   36.40    2.50 
   4   1   3   39.20    2.40 
   4   1   3   37.20    2.60 
  -5  -1  -3  245.68    9.80 
  -5  -1  -3  234.58    7.70 
   5   1   3  236.18    9.70 
   5   1   3  245.18    7.90 
  -6  -1  -3   36.30    3.70 
   6   1   3   28.90    3.40 
  -7  -1  -3    3.20    1.70 
   7   1   3    4.40    2.10 
   9  -2  -3  142.89    7.20 
   8  -2  -3    6.10    1.70 
   8  -2  -3    5.00    2.20 
  -8   2   3    7.30    2.00 
   7  -2  -3  177.88    7.30 
   7  -2  -3  154.98    8.70 
  -7   2   3  178.38    7.80 
  -7   2   3  183.68    7.70 
  -7   2   3  167.78    6.90 
   6  -2  -3   18.70    2.20 
   6  -2  -3   17.20    3.10 
  -6   2   3   21.80    2.50 
  -6   2   3   19.70    2.50 
  -6   2   3   13.90    2.20 
   5  -2  -3   13.20    1.90 
   5  -2  -3    8.90    2.10 
   5  -2  -3    8.80    1.60 
  -5   2   3   11.50    1.80 
  -5   2   3    8.60    1.60 
  -5   2   3    9.10    1.70 
   4  -2  -3    7.70    1.40 
   4  -2  -3   11.40    1.50 
  -4   2   3   10.10    1.70 
  -4   2   3    6.70    1.40 
   3  -2  -3   17.00    1.70 
   3  -2  -3   19.10    2.10 
  -3   2   3   20.70    2.00 
  -3   2   3   20.60    1.90 
   2  -2  -3   28.40    2.50 
   2  -2  -3   27.30    1.60 
   2  -2  -3   29.80    1.90 
  -2   2   3   27.10    2.20 
  -2   2   3   27.40    2.00 
   1  -2  -3   18.50    1.10 
   1  -2  -3   16.80    1.30 
   1  -2  -3   17.90    1.90 
   1  -2  -3   17.00    1.50 
  -1   2   3   19.40    1.60 
  -1   2   3   16.50    1.50 
   0  -2  -3    1.90    0.60 
   0  -2  -3    2.00    1.00 
   0  -2  -3    1.60    0.40 
   0  -2  -3    0.40    0.60 
   0   2   3    1.50    0.70 
   0   2   3    1.90    0.70 
  -1  -2  -3   32.50    2.40 
  -1  -2  -3   35.60    1.60 
  -1  -2  -3   34.50    1.90 
  -1  -2  -3   29.90    2.30 
   1   2   3   33.00    2.20 
  -2  -2  -3   13.20    1.70 
  -2  -2  -3   11.90    1.00 
  -2  -2  -3   12.50    1.30 
  -2  -2  -3   11.90    1.10 
   2   2   3    9.60    1.30 
  -3  -2  -3  429.86    9.90 
  -3  -2  -3  439.66   10.40 
  -3  -2  -3  411.66   12.70 
   3   2   3  416.76   10.90 
  -4  -2  -3  461.95   14.00 
   4   2   3  446.36   11.70 
  -5  -2  -3  267.77   10.40 
   5   2   3  264.37    8.40 
   5   2   3  245.38   10.20 
  -6  -2  -3  176.18    9.00 
   6   2   3  176.78    8.80 
   9  -3  -3    4.80    2.20 
   9  -3  -3    0.20    1.20 
   8  -3  -3   45.50    5.00 
   8  -3  -3   51.89    4.00 
  -8   3   3   49.80    3.80 
   7  -3  -3   47.90    3.70 
   7  -3  -3   50.89    4.70 
  -7   3   3   46.00    3.80 
  -7   3   3   48.40    3.60 
   6  -3  -3  350.26   13.00 
   6  -3  -3  329.97   10.40 
  -6   3   3  330.87   10.90 
  -6   3   3  339.27   11.40 
  -6   3   3  328.37   10.40 
   5  -3  -3   44.20    3.30 
   5  -3  -3   48.80    3.30 
  -5   3   3   46.10    3.30 
  -5   3   3   47.50    3.80 
  -5   3   3   45.50    3.40 
   4  -3  -3  658.03   17.50 
   4  -3  -3  669.73   15.80 
  -4   3   3  667.83   16.90 
  -4   3   3  678.73   16.10 
   3  -3  -3  655.43   14.80 
   3  -3  -3  646.44   17.30 
  -3   3   3  631.14   15.90 
  -3   3   3  671.03   15.60 
   2  -3  -3  359.56    8.20 
   2  -3  -3  344.37   11.40 
   2  -3  -3  359.56    9.30 
  -2   3   3  357.66   10.00 
  -2   3   3  366.16   10.10 
   1  -3  -3  525.15   10.40 
   1  -3  -3  514.35   13.80 
   1  -3  -3  544.35   14.70 
   1  -3  -3  513.85   11.80 
  -1   3   3  542.35   12.70 
  -1   3   3  541.95   12.70 
   0  -3  -3 1168.98   25.40 
   0  -3  -3 1172.98   21.60 
   0  -3  -3 1213.88   26.50 
   0  -3  -3 1204.88   19.90 
   0   3   3 1216.48   23.10 
   0   3   3 1201.38   22.50 
  -1  -3  -3  167.08    6.60 
  -1  -3  -3  168.58    5.20 
  -1  -3  -3  164.88    6.50 
   1   3   3  158.98    5.90 
  -2  -3  -3  258.27    9.00 
  -2  -3  -3  246.08    8.30 
  -2  -3  -3  253.07    7.00 
   2   3   3  235.88    7.80 
  -3  -3  -3  331.27   11.10 
   3   3   3  327.27    9.50 
  -4  -3  -3  213.98    9.10 
   4   3   3  226.58    7.50 
  -5  -3  -3  128.49    7.00 
   5   3   3  116.59    6.80 
  -6  -3  -3   34.60    3.90 
   6   3   3   30.90    3.70 
   8  -4  -3    0.10    1.10 
   8  -4  -3    1.90    2.00 
  -8   4   3    1.20    1.50 
   7  -4  -3   93.69    5.30 
  -7   4   3   89.99    5.70 
  -7   4   3   89.79    5.10 
   6  -4  -3   18.10    2.20 
  -6   4   3   21.70    2.90 
  -6   4   3   20.40    2.60 
   5  -4  -3   50.89    3.50 
   5  -4  -3   53.29    3.90 
  -5   4   3   48.50    3.60 
  -5   4   3   53.59    3.60 
   4  -4  -3   19.80    2.10 
   4  -4  -3   17.80    2.30 
  -4   4   3   13.90    1.70 
  -4   4   3   17.90    2.30 
   3  -4  -3   65.79    3.60 
   3  -4  -3   65.19    4.20 
  -3   4   3   62.19    3.90 
  -3   4   3   65.29    3.90 
  -3   4   3   63.79    3.60 
   2  -4  -3    0.60    1.10 
   2  -4  -3    2.60    0.90 
   2  -4  -3    2.10    0.50 
  -2   4   3    0.70    0.90 
  -2   4   3    2.00    1.20 
   1  -4  -3    5.10    1.20 
   1  -4  -3    5.60    1.50 
   1  -4  -3    4.60    0.90 
  -1   4   3    5.80    1.30 
  -1   4   3    2.80    1.10 
   0  -4  -3    1.90    1.00 
   0  -4  -3    2.50    1.10 
   0  -4  -3    1.30    0.60 
   0   4   3    0.40    0.70 
   0   4   3    0.60    0.80 
  -1  -4  -3   76.19    4.20 
  -1  -4  -3   68.49    4.20 
   1   4   3   81.39    3.90 
  -2  -4  -3    0.00    0.90 
  -2  -4  -3    0.00    1.00 
   2   4   3    0.70    0.80 
  -3  -4  -3  402.96   13.10 
   3   4   3  392.16   10.90 
  -4  -4  -3  128.29    7.00 
   4   4   3  118.79    6.50 
  -5  -4  -3  170.08    8.60 
   5   4   3  167.98    8.40 
   8  -5  -3    2.80    1.30 
  -8   5   3    6.00    1.80 
  -8   5   3    6.40    1.90 
   7  -5  -3    3.50    1.60 
  -7   5   3    8.30    1.90 
  -7   5   3    5.10    1.80 
   6  -5  -3  313.37   11.20 
   6  -5  -3  315.47   10.40 
  -6   5   3  315.47   12.30 
  -6   5   3  302.97   10.60 
   5  -5  -3    1.10    1.20 
   5  -5  -3    3.10    1.20 
  -5   5   3    0.80    1.20 
   4  -5  -3 1011.40   25.10 
   4  -5  -3 1040.10   21.90 
  -4   5   3 1006.20   22.70 
  -4   5   3 1035.40   23.10 
   3  -5  -3    4.40    1.20 
   3  -5  -3    7.40    1.70 
  -3   5   3    1.80    1.40 
  -3   5   3    1.90    1.10 
   2  -5  -3 1129.19   22.30 
   2  -5  -3 1132.09   26.60 
  -2   5   3 1139.49   23.80 
  -2   5   3 1117.69   23.50 
   1  -5  -3    4.60    1.30 
   1  -5  -3    3.00    1.30 
   1  -5  -3    1.10    0.70 
  -1   5   3    0.60    0.90 
  -1   5   3    1.00    0.90 
   0  -5  -3 1314.97   29.20 
   0  -5  -3 1312.47   29.50 
   0   5   3 1368.06   26.00 
  -1  -5  -3    0.00    1.00 
  -1  -5  -3    0.00    1.10 
   1   5   3    0.60    0.90 
  -2  -5  -3  395.96   12.40 
  -2  -5  -3  417.96   13.20 
   2   5   3  423.66   11.50 
  -3  -5  -3   87.09    5.50 
  -4  -5  -3  145.69    7.80 
  -5  -5  -3   63.89    5.30 
   8  -6  -3    0.00    1.40 
  -8   6   3    6.40    2.20 
  -8   6   3    0.00    1.60 
   7  -6  -3  181.38    7.80 
  -7   6   3  170.68    7.90 
  -7   6   3  168.48    9.10 
   6  -6  -3  109.89    5.80 
   6  -6  -3  112.89    6.50 
  -6   6   3  104.89    5.90 
   5  -6  -3  103.99    6.20 
   5  -6  -3   97.29    5.20 
  -5   6   3   95.89    5.50 
   4  -6  -3    6.50    1.30 
   4  -6  -3    5.00    1.70 
  -4   6   3    5.30    1.50 
  -4   6   3    5.10    1.50 
   3  -6  -3    4.40    1.20 
   3  -6  -3    7.50    1.90 
  -3   6   3    7.00    1.70 
  -3   6   3    9.20    1.90 
   2  -6  -3    1.00    1.10 
   2  -6  -3    1.10    0.80 
  -2   6   3    2.30    1.50 
  -2   6   3    3.50    1.30 
   1  -6  -3   23.40    2.70 
   1  -6  -3   20.90    2.60 
  -1   6   3   23.80    2.40 
  -1   6   3   22.50    2.40 
   0  -6  -3    6.40    1.50 
   0  -6  -3    8.80    1.70 
   0   6   3    8.20    1.50 
  -1  -6  -3   70.79    4.50 
  -1  -6  -3   61.99    4.50 
   1   6   3   71.09    4.00 
  -2  -6  -3    2.80    1.30 
  -3  -6  -3  118.79    6.80 
  -4  -6  -3   73.79    5.50 
   7  -7  -3   68.39    4.70 
  -7   7   3   63.89    4.90 
  -7   7   3   72.39    6.40 
   6  -7  -3  256.67    9.60 
   6  -7  -3  254.67   10.80 
  -6   7   3  256.57   10.00 
   5  -7  -3  110.79    5.70 
   5  -7  -3   99.49    6.40 
  -5   7   3  102.59    5.80 
   4  -7  -3  551.14   14.70 
   4  -7  -3  557.94   17.60 
  -4   7   3  584.14   16.00 
  -4   7   3  552.14   16.20 
   3  -7  -3   81.69    5.70 
   3  -7  -3   88.69    4.70 
  -3   7   3   88.59    5.20 
  -3   7   3   78.59    5.20 
   2  -7  -3  498.85   16.00 
  -2   7   3  515.25   14.20 
  -2   7   3  483.85   14.00 
   1  -7  -3    3.70    1.40 
   1  -7  -3    3.50    1.50 
  -1   7   3    3.80    1.40 
   0  -7  -3  461.45   14.90 
   0  -7  -3  464.25   14.90 
   0   7   3  484.85   13.10 
  -1  -7  -3    8.00    1.90 
  -1  -7  -3   12.60    2.10 
   1   7   3    9.50    1.70 
  -2  -7  -3  323.07   12.40 
  -3  -7  -3   25.00    3.20 
   7  -8  -3   36.80    3.70 
  -7   8   3   42.30    4.10 
   6  -8  -3   74.79    5.60 
   6  -8  -3   71.29    4.80 
  -6   8   3   64.49    4.90 
   5  -8  -3    6.50    2.10 
   5  -8  -3    8.70    1.70 
  -5   8   3    7.60    2.10 
  -5   8   3   10.60    2.20 
   4  -8  -3   17.80    3.00 
  -4   8   3   14.70    2.60 
  -4   8   3   16.70    2.70 
   3  -8  -3   11.20    2.50 
  -3   8   3    9.50    2.40 
  -3   8   3    6.00    2.00 
   2  -8  -3    2.10    1.60 
  -2   8   3    1.50    1.20 
   1  -8  -3   17.90    3.00 
   1  -8  -3   20.80    2.70 
  -1   8   3   21.40    2.50 
   0  -8  -3    1.60    1.30 
   0  -8  -3    1.70    1.40 
   0   8   3    5.40    1.60 
  -1  -8  -3   62.79    4.80 
  -1  -8  -3   73.99    5.40 
   5  -9  -3   61.19    5.50 
  -5   9   3   61.59    5.50 
  -5   9   3   63.29    4.90 
   4  -9  -3  171.78    9.50 
  -4   9   3  185.08    8.50 
  -4   9   3  186.28    9.10 
   3  -9  -3   78.49    6.10 
  -3   9   3   75.29    5.50 
   2  -9  -3  174.18    9.30 
  -2   9   3  181.88    8.10 
   1  -9  -3   16.20    2.90 
  -1   9   3   17.00    2.50 
   0  -9  -3  201.98    9.90 
   0  -9  -3  206.38    9.80 
   0 -12   4   11.40    2.30 
   1 -12   4  342.17   13.10 
   2 -12   4    2.30    1.50 
  -3  12  -4  383.16   12.40 
   3 -12   4  369.26   13.90 
  -4  12  -4    0.10    1.50 
   4 -12   4    3.00    1.80 
  -5  12  -4  237.38    9.90 
   5 -12   4  246.68   11.10 
  -2 -11   4   54.69    4.60 
  -1 -11   4   40.80    3.90 
   0 -11   4   61.49    4.70 
   1 -11   4    0.30    1.40 
  -2  11  -4    3.00    1.50 
   2 -11   4    0.90    1.40 
  -3  11  -4   12.70    2.10 
   3 -11   4   10.10    2.10 
  -4  11  -4   13.00    2.20 
   4 -11   4    9.70    2.20 
  -5  11  -4    2.90    1.40 
   5 -11   4    6.70    2.10 
  -6  11  -4  109.19    7.90 
  -6  11  -4  112.99    6.40 
   6 -11   4  108.09    5.50 
  -2 -10   4   85.69    5.40 
  -1 -10   4  330.57   11.90 
   0 -10   4  266.67   10.40 
   1 -10   4  261.37   10.10 
  -2  10  -4  205.88    7.60 
   2 -10   4  196.68    8.60 
  -3  10  -4  442.56   12.70 
   3 -10   4  447.46   14.40 
  -4  10  -4  114.79    5.80 
   4 -10   4  113.39    6.40 
  -5  10  -4  202.48   10.70 
  -5  10  -4  201.68    8.20 
   5 -10   4  205.08    7.40 
   5 -10   4  220.68    9.50 
  -6  10  -4   68.59    6.00 
  -6  10  -4   81.39    5.10 
   6 -10   4   80.79    4.50 
  -7  10  -4  134.09    6.60 
  -7  10  -4  131.09    8.30 
  -7  10  -4  133.69    7.10 
   7 -10   4  141.79    6.70 
  -4  -9   4   12.90    2.50 
  -3  -9   4   69.49    4.90 
  -2  -9   4   39.90    3.40 
  -2  -9   4   38.80    3.40 
  -2  -9   4   37.60    3.40 
  -1  -9   4   88.49    5.10 
   0  -9   4   32.10    3.00 
  -1   9  -4    0.00    0.80 
   1  -9   4    0.40    1.00 
  -2   9  -4    5.10    1.30 
   2  -9   4    3.40    1.40 
  -3   9  -4   10.40    1.70 
   3  -9   4    9.60    1.80 
  -4   9  -4    2.00    1.30 
  -4   9  -4    1.80    0.80 
   4  -9   4    2.50    1.30 
   4  -9   4    3.90    1.10 
  -5   9  -4    1.60    1.10 
  -5   9  -4    0.00    1.80 
  -5   9  -4    0.00    1.10 
   5  -9   4    0.60    0.80 
   5  -9   4    1.80    1.30 
  -6   9  -4  106.69    5.20 
  -6   9  -4  103.29    5.60 
  -6   9  -4  102.89    7.10 
   6  -9   4  103.19    5.20 
  -7   9  -4   41.10    4.50 
  -7   9  -4   40.70    3.60 
  -7   9  -4   40.70    3.70 
   7  -9   4   39.10    3.30 
  -5  -8   4    5.20    2.20 
  -4  -8   4   87.39    5.70 
  -3  -8   4    7.70    1.60 
  -2  -8   4  465.65   13.60 
  -2  -8   4  459.05   13.90 
  -2  -8   4  480.55   13.80 
  -1  -8   4   19.00    2.20 
  -1  -8   4   18.40    2.00 
   0   8  -4 1153.08   22.40 
   0  -8   4 1123.59   25.90 
  -1   8  -4   78.09    3.80 
   1  -8   4   73.89    4.40 
  -2   8  -4  416.86    9.70 
  -2   8  -4  429.06   11.20 
   2  -8   4  417.16   10.00 
   2  -8   4  407.86   12.70 
  -3   8  -4  696.13   16.20 
  -3   8  -4  694.13   14.50 
   3  -8   4  696.83   15.00 
   3  -8   4  690.63   18.30 
  -4   8  -4  224.48    7.90 
  -4   8  -4  233.88   10.70 
  -4   8  -4  234.28    7.20 
   4  -8   4  233.78    7.40 
   4  -8   4  238.98    9.00 
  -5   8  -4  239.38    8.50 
  -5   8  -4  248.58   11.00 
  -5   8  -4  233.88    7.80 
   5  -8   4  242.68    9.30 
   5  -8   4  244.08    8.00 
  -6   8  -4  248.18    8.60 
  -6   8  -4  263.17   11.30 
  -6   8  -4  248.28    9.00 
   6  -8   4  260.37    8.80 
  -7   8  -4  148.59    6.80 
  -7   8  -4  147.99    6.80 
  -7   8  -4  141.19    8.20 
   7  -8   4  141.49    6.60 
  -8   8  -4    0.10    1.90 
  -8   8  -4    2.00    1.60 
   8  -8   4    2.70    1.50 
  -6  -7   4   14.40    2.90 
  -5  -7   4  184.88    9.10 
  -4  -7   4   16.90    2.60 
  -3  -7   4  105.69    5.60 
  -2  -7   4    0.20    0.90 
  -2  -7   4    0.00    1.00 
  -2  -7   4    1.30    0.90 
   1   7  -4   53.39    2.70 
  -1  -7   4   57.39    3.30 
  -1  -7   4   53.89    3.30 
  -1  -7   4   47.90    3.40 
   0   7  -4    0.30    0.50 
   0   7  -4    2.20    0.80 
   0  -7   4    0.00    1.00 
   0  -7   4    0.70    0.60 
  -1   7  -4   10.40    1.40 
  -1   7  -4   12.70    1.20 
   1  -7   4   11.80    1.00 
   1  -7   4   11.20    1.70 
  -2   7  -4   79.69    3.30 
  -2   7  -4   87.49    3.90 
   2  -7   4   84.29    3.40 
   2  -7   4   77.49    4.30 
  -3   7  -4   21.80    2.00 
  -3   7  -4   21.10    1.80 
   3  -7   4   25.70    2.40 
   3  -7   4   28.30    2.50 
   3  -7   4   24.70    1.90 
  -4   7  -4    2.00    1.10 
  -4   7  -4    2.20    2.00 
  -4   7  -4    0.80    0.70 
   4  -7   4    4.60    1.00 
   4  -7   4    4.20    1.10 
   4  -7   4    0.90    1.00 
   4  -7   4    3.10    0.90 
  -5   7  -4   56.89    3.50 
  -5   7  -4   54.79    4.80 
  -5   7  -4   56.79    3.40 
   5  -7   4   53.29    3.90 
   5  -7   4   57.29    3.80 
   5  -7   4   53.69    3.30 
  -6   7  -4   97.69    4.90 
  -6   7  -4   95.29    6.30 
  -6   7  -4   88.49    4.80 
   6  -7   4   89.49    5.40 
   6  -7   4   97.79    5.40 
   6  -7   4   95.59    4.80 
  -7   7  -4  152.98    8.40 
  -7   7  -4  151.98    6.90 
  -7   7  -4  155.28    6.80 
   7  -7   4  155.78    6.90 
   7  -7   4  147.99    7.70 
   7  -7   4  153.88    7.30 
  -8   7  -4   76.29    5.90 
  -8   7  -4   72.99    4.90 
  -8   7  -4   69.49    4.90 
   8  -7   4   70.19    5.50 
   8  -7   4   73.29    4.80 
   8  -7   4   73.29    5.10 
  -6  -6   4  124.79    7.70 
  -5  -6   4   24.70    3.30 
  -4  -6   4  459.25   14.50 
  -3  -6   4   11.10    1.80 
   2   6  -4  914.91   17.10 
  -2  -6   4  915.51   20.70 
  -2  -6   4  931.61   21.50 
   1   6  -4   60.39    2.60 
   1   6  -4   64.79    2.90 
  -1  -6   4   62.79    3.30 
  -1  -6   4   64.89    3.80 
  -1  -6   4   66.49    3.50 
   0   6  -4 2235.98   34.70 
   0   6  -4 2199.78   37.20 
   0   6  -4 2243.48   35.80 
   0  -6   4 2280.77   41.00 
   0  -6   4 2330.67   43.00 
  -1   6  -4  350.96    9.30 
  -1   6  -4  352.46    8.30 
   1  -6   4  359.86    9.10 
   1  -6   4  345.97   10.70 
   1  -6   4  360.86    9.70 
   1  -6   4  348.87    8.40 
  -2   6  -4  511.65   11.10 
  -2   6  -4  495.85   12.20 
   2  -6   4  509.95   11.50 
   2  -6   4  508.45   12.60 
   2  -6   4  518.35   12.60 
   2  -6   4  501.25   13.70 
  -3   6  -4  528.45   13.00 
  -3   6  -4  555.14   12.30 
  -3   6  -4  557.54   16.80 
   3  -6   4  558.24   14.30 
   3  -6   4  547.75   12.60 
   3  -6   4  570.34   14.80 
   3  -6   4  554.84   13.50 
  -4   6  -4  621.14   14.60 
  -4   6  -4  602.34   18.40 
  -4   6  -4  602.24   13.90 
   4  -6   4  643.34   16.40 
   4  -6   4  630.94   14.20 
   4  -6   4  642.34   16.30 
   4  -6   4  628.54   15.20 
  -5   6  -4   32.80    2.60 
  -5   6  -4   34.20    2.60 
  -5   6  -4   29.80    3.60 
   5  -6   4   33.80    2.80 
   5  -6   4   32.20    2.50 
   5  -6   4   29.40    2.70 
  -6   6  -4  496.35   13.20 
  -6   6  -4  509.75   13.50 
  -6   6  -4  530.15   16.90 
   6  -6   4  503.25   15.50 
   6  -6   4  505.55   13.40 
   6  -6   4  522.75   14.20 
  -7   6  -4   31.00    3.90 
  -7   6  -4   30.00    2.80 
  -7   6  -4   25.30    2.90 
   7  -6   4   25.00    2.90 
   7  -6   4   25.80    2.80 
   7  -6   4   30.00    3.40 
  -8   6  -4    7.40    1.80 
  -8   6  -4   10.10    2.60 
   8  -6   4    8.80    2.20 
   8  -6   4    5.40    1.40 
   8  -6   4    8.20    1.70 
  -7  -5   4  268.47   12.10 
  -6  -5   4    5.60    2.00 
   5   5  -4  139.89    5.70 
   5   5  -4  135.99    7.30 
  -5  -5   4  140.79    7.50 
   4   5  -4    6.00    1.50 
   4   5  -4    5.70    1.10 
  -4  -5   4    4.00    1.50 
   3   5  -4  178.78    5.70 
   3   5  -4  159.38    7.20 
  -3  -5   4  187.78    7.60 
  -3  -5   4  183.38    6.30 
   2   5  -4    1.90    0.60 
  -2  -5   4    0.80    1.00 
  -2  -5   4    1.10    0.60 
   1   5  -4   48.00    2.30 
   1   5  -4   49.90    2.00 
  -1  -5   4   56.59    3.20 
   0   5  -4   44.90    2.10 
   0   5  -4   46.30    2.20 
   0  -5   4   49.00    2.70 
   0  -5   4   43.00    2.40 
   0  -5   4   50.39    3.10 
  -1   5  -4   57.69    2.90 
  -1   5  -4   60.79    2.60 
   1  -5   4   62.89    3.00 
   1  -5   4   61.19    3.40 
   1  -5   4   63.59    3.00 
   1  -5   4   59.99    2.60 
  -2   5  -4  138.49    5.00 
  -2   5  -4  142.59    6.90 
  -2   5  -4  145.09    4.70 
   2  -5   4  144.99    5.70 
   2  -5   4  138.09    4.70 
   2  -5   4  143.29    4.70 
   2  -5   4  143.49    5.10 
  -3   5  -4  319.37   11.30 
  -3   5  -4  309.07    8.40 
  -3   5  -4  320.77    8.80 
   3  -5   4  316.07    9.60 
   3  -5   4  321.17    8.90 
   3  -5   4  320.27    8.50 
  -4   5  -4    5.20    1.80 
  -4   5  -4    7.50    1.20 
  -4   5  -4    7.20    1.10 
   4  -5   4    5.90    1.10 
   4  -5   4    9.20    1.40 
   4  -5   4    5.80    1.20 
  -5   5  -4  163.28    8.20 
  -5   5  -4  155.08    6.10 
  -5   5  -4  177.98    6.20 
   5  -5   4  166.68    7.20 
   5  -5   4  169.98    6.50 
   5  -5   4  170.68    6.20 
  -6   5  -4    6.30    1.60 
  -6   5  -4    6.60    2.20 
  -6   5  -4    5.30    1.30 
   6  -5   4    4.00    1.20 
   6  -5   4    2.50    1.30 
   6  -5   4    5.00    1.30 
  -7   5  -4  200.48   10.10 
  -7   5  -4  203.38    7.50 
  -7   5  -4  206.58    8.10 
   7  -5   4  203.88    7.90 
   7  -5   4  198.38    9.10 
   7  -5   4  196.58    8.00 
  -8   5  -4   15.10    2.90 
   8  -5   4   13.10    2.20 
   8  -5   4    9.60    1.90 
   8  -5   4   10.90    2.50 
   7   4  -4    3.70    1.50 
   7   4  -4    4.30    1.60 
  -7  -4   4    0.40    1.70 
   6   4  -4  251.27   11.00 
   6   4  -4  257.67    8.80 
  -6  -4   4  250.87   10.80 
   5   4  -4    3.70    1.00 
   5   4  -4    5.90    1.80 
  -5  -4   4    6.30    1.70 
   4   4  -4 1065.79   20.70 
   4   4  -4 1076.29   26.30 
  -4  -4   4 1076.59   25.60 
   3   4  -4    5.10    1.30 
   3   4  -4    4.50    1.00 
  -3  -4   4    2.40    0.80 
  -3  -4   4    5.60    1.70 
   2   4  -4  825.42   15.80 
   2   4  -4  821.92   15.80 
  -2  -4   4  868.11   20.20 
  -2  -4   4  828.02   18.00 
   1   4  -4    2.00    0.50 
   1   4  -4    4.80    0.70 
  -1  -4   4    0.90    1.20 
   0   4  -4 2095.79   32.40 
   0   4  -4 2111.59   33.60 
   0  -4   4 2039.70   33.80 
   0  -4   4 2048.00   39.20 
  -1   4  -4   43.70    2.20 
  -1   4  -4   41.20    3.10 
   1  -4   4   43.70    2.20 
   1  -4   4   44.10    2.20 
   1  -4   4   41.00    2.30 
  -2   4  -4  532.85   12.10 
  -2   4  -4  529.15   15.00 
  -2   4  -4  550.04   11.60 
   2  -4   4  548.35   12.30 
   2  -4   4  535.55   11.90 
  -3   4  -4   83.19    5.10 
  -3   4  -4   83.09    3.70 
  -3   4  -4   90.39    3.80 
   3  -4   4   94.39    3.90 
  -4   4  -4 1080.49   21.00 
  -4   4  -4 1000.50   25.10 
  -4   4  -4 1051.29   20.60 
   4  -4   4 1067.79   21.60 
   4  -4   4 1087.19   24.50 
   4  -4   4 1085.19   21.00 
  -5   4  -4   12.30    1.80 
  -5   4  -4   11.10    2.60 
  -5   4  -4   13.90    1.80 
   5  -4   4   20.00    2.20 
   5  -4   4   15.10    1.70 
   5  -4   4   14.80    1.90 
  -6   4  -4  685.33   21.00 
  -6   4  -4  737.83   16.50 
  -6   4  -4  715.93   16.70 
   6  -4   4  719.93   16.90 
   6  -4   4  698.83   17.10 
   6  -4   4  748.73   19.90 
  -7   4  -4    1.40    1.60 
  -7   4  -4    4.40    1.60 
   7  -4   4    3.90    1.30 
   7  -4   4    4.00    1.50 
   7  -4   4    5.50    1.70 
  -8   4  -4    5.40    2.30 
   8  -4   4    2.50    1.60 
   8  -4   4    6.70    1.70 
   8  -4   4    5.50    1.90 
   8   3  -4   26.10    4.10 
  -8  -3   4   27.40    3.60 
   7   3  -4  290.47   12.30 
  -7  -3   4  266.17   11.60 
   6   3  -4    2.70    1.50 
  -6  -3   4    6.20    1.90 
   5   3  -4  140.69    7.40 
  -5  -3   4  134.49    7.00 
   4   3  -4   18.30    2.40 
   4   3  -4   18.40    1.70 
   4   3  -4   15.90    1.70 
  -4  -3   4   16.60    2.30 
   3   3  -4  303.97    8.00 
   3   3  -4  296.77   10.30 
   3   3  -4  299.47    8.00 
  -3  -3   4  295.57   10.20 
  -3  -3   4  304.77    8.30 
   2   3  -4   52.49    2.40 
   2   3  -4   51.99    2.30 
  -2  -3   4   51.59    3.50 
  -2  -3   4   53.69    2.20 
   1   3  -4   47.60    2.20 
   1   3  -4   46.10    2.10 
  -1  -3   4   50.79    3.20 
  -1  -3   4   47.30    1.90 
   0   3  -4   42.40    2.10 
   0   3  -4   41.40    2.30 
   0   3  -4   41.70    2.20 
   0  -3   4   43.60    2.10 
   0  -3   4   44.50    2.60 
  -1   3  -4   37.90    2.10 
  -1   3  -4   37.50    2.20 
   1  -3   4   40.00    2.10 
   1  -3   4   45.10    2.60 
  -2   3  -4   22.60    2.00 
  -2   3  -4   22.30    1.60 
   2  -3   4   19.80    1.60 
   2  -3   4   22.10    1.60 
  -3   3  -4  153.48    6.50 
  -3   3  -4  155.58    5.30 
  -3   3  -4  156.38    5.20 
   3  -3   4  158.78    5.30 
   3  -3   4  153.18    5.50 
  -4   3  -4    2.90    1.30 
  -4   3  -4    3.90    0.90 
  -4   3  -4    2.90    0.90 
   4  -3   4    2.10    0.80 
   4  -3   4    3.50    1.00 
  -5   3  -4   35.90    2.80 
  -5   3  -4   38.60    2.40 
  -5   3  -4   33.80    3.50 
   5  -3   4   39.30    3.20 
   5  -3   4   37.80    2.70 
   5  -3   4   42.00    2.80 
  -6   3  -4    3.20    1.20 
  -6   3  -4    1.80    1.60 
   6  -3   4    2.60    1.00 
   6  -3   4    3.80    1.20 
   6  -3   4    6.60    1.60 
  -7   3  -4  173.98    9.20 
  -7   3  -4  174.98    7.40 
   7  -3   4  174.68    7.20 
   7  -3   4  176.78    7.10 
   7  -3   4  179.28    8.60 
  -8   3  -4   16.50    3.20 
   8  -3   4   19.70    3.00 
   8  -3   4   14.30    2.30 
   8  -3   4   13.80    2.20 
   8   2  -4    4.30    2.10 
  -8  -2   4    3.70    1.90 
   7   2  -4   14.40    2.80 
  -7  -2   4   16.70    2.90 
   6   2  -4  264.07   11.20 
  -6  -2   4  262.77   10.50 
   5   2  -4   31.20    3.30 
   5   2  -4   34.70    2.50 
  -5  -2   4   32.00    3.20 
  -5  -2   4   29.70    2.30 
   4   2  -4  800.92   16.90 
   4   2  -4  720.13   18.20 
   4   2  -4  817.82   21.30 
  -4  -2   4  790.32   20.00 
  -4  -2   4  801.92   17.90 
   3   2  -4  663.63   14.20 
   3   2  -4  648.14   13.90 
  -3  -2   4  693.13   17.50 
  -3  -2   4  668.43   13.60 
  -3  -2   4  676.33   14.90 
   2   2  -4   16.40    1.30 
   2   2  -4   15.80    1.30 
  -2  -2   4   16.50    1.10 
  -2  -2   4   16.10    2.10 
   1   2  -4 1788.32   28.70 
   1   2  -4 1808.32   29.90 
  -1  -2   4 1789.62   34.30 
  -1  -2   4 1812.62   30.00 
   0   2  -4  452.85   10.20 
   0   2  -4  435.36   10.60 
   0   2  -4  451.15    9.70 
   0  -2   4  453.05   10.20 
  -1   2  -4 1035.70   18.10 
  -1   2  -4  993.90   19.00 
  -1   2  -4  972.90   21.00 
   1  -2   4 1019.50   19.30 
  -2   2  -4  422.06   11.70 
  -2   2  -4  433.56    9.70 
   2  -2   4  438.16   10.50 
   2  -2   4  431.76   10.20 
  -3   2  -4  239.88    6.70 
  -3   2  -4  231.88    8.30 
  -3   2  -4  247.28    6.90 
  -3   2  -4  236.08    8.00 
   3  -2   4  236.38    7.30 
   3  -2   4  239.48    7.10 
  -4   2  -4  943.51   22.40 
  -4   2  -4  882.31   18.30 
  -4   2  -4  943.41   18.40 
   4  -2   4  933.21   18.90 
   4  -2   4  916.81   19.30 
  -5   2  -4   26.40    3.10 
  -5   2  -4   28.40    2.40 
   5  -2   4   28.70    2.40 
   5  -2   4   27.50    2.70 
   5  -2   4   28.40    2.30 
  -6   2  -4  570.74   14.20 
  -6   2  -4  541.95   17.70 
   6  -2   4  560.74   14.10 
   6  -2   4  573.24   17.30 
   6  -2   4  565.94   14.40 
  -7   2  -4    1.20    1.90 
  -7   2  -4    1.90    1.40 
   7  -2   4    1.20    1.10 
   7  -2   4    4.00    1.20 
   7  -2   4    4.50    1.80 
  -8   2  -4   13.20    3.00 
   8  -2   4   10.40    1.90 
   8  -2   4   12.30    2.10 
   8   1  -4  123.59    8.10 
  -8  -1   4  133.29    7.50 
   7   1  -4  139.19    6.20 
   7   1  -4  130.29    8.00 
  -7  -1   4  141.49    7.40 
   6   1  -4  120.29    5.40 
   6   1  -4  120.29    7.00 
  -6  -1   4  124.79    6.60 
   5   1  -4   17.50    1.90 
   5   1  -4   20.50    2.70 
  -5  -1   4   17.90    2.30 
  -5  -1   4   17.60    1.90 
   4   1  -4  138.69    6.10 
   4   1  -4  151.78    7.20 
   4   1  -4  154.78    5.60 
  -4  -1   4  141.19    6.60 
  -4  -1   4  158.18    5.60 
  -4  -1   4  141.39    5.60 
   3   1  -4   66.99    3.30 
   3   1  -4   75.69    4.80 
  -3  -1   4   84.69    3.50 
  -3  -1   4   84.19    5.30 
  -3  -1   4   94.69    4.20 
  -3  -1   4   63.79    3.60 
   2   1  -4   18.40    1.80 
   2   1  -4   16.50    1.30 
   2   1  -4   19.00    1.30 
  -2  -1   4   17.00    1.50 
  -2  -1   4   13.00    1.20 
  -2  -1   4   15.90    1.80 
  -2  -1   4   17.60    1.30 
   1   1  -4    1.50    0.60 
   1   1  -4    1.90    0.80 
   1   1  -4    6.60    2.10 
   1   1  -4    1.50    0.40 
  -1  -1   4    1.30    0.50 
  -1  -1   4    4.70    1.20 
   0   1  -4   47.50    2.30 
   0   1  -4   51.69    3.20 
   0   1  -4   46.80    2.10 
   0   1  -4   46.80    2.30 
   0  -1   4   50.99    2.40 
  -1   1  -4  105.19    3.90 
  -1   1  -4  107.29    3.60 
  -1   1  -4  108.39    4.30 
  -1   1  -4  109.69    5.00 
   1  -1   4  106.69    4.00 
  -2   1  -4  105.19    5.10 
  -2   1  -4  105.39    4.60 
  -2   1  -4  108.99    3.80 
  -2   1  -4  107.49    4.10 
   2  -1   4  102.59    4.20 
   2  -1   4  105.29    4.00 
  -3   1  -4  322.97    8.40 
  -3   1  -4  350.06   10.00 
  -3   1  -4  325.47   10.30 
   3  -1   4  311.37    9.00 
   3  -1   4  331.27    8.80 
  -4   1  -4    3.00    0.70 
  -4   1  -4    4.80    1.40 
  -4   1  -4    4.20    1.00 
   4  -1   4    4.40    1.10 
   4  -1   4    2.30    0.90 
  -5   1  -4  150.48    7.30 
  -5   1  -4  140.69    5.70 
   5  -1   4  142.39    5.60 
   5  -1   4  145.29    7.00 
   5  -1   4  141.59    5.80 
  -6   1  -4   29.30    2.60 
  -6   1  -4   30.20    3.40 
   6  -1   4   30.20    3.30 
   6  -1   4   30.10    2.50 
   6  -1   4   28.30    2.50 
  -7   1  -4  337.67   13.70 
   7  -1   4  343.37   10.70 
   7  -1   4  323.07   13.00 
   8   0  -4   21.30    3.50 
   8   0  -4   16.70    2.30 
  -8   0   4   15.40    2.70 
   7   0  -4  156.28    6.70 
   7   0  -4  158.28    8.60 
  -7   0   4  163.88    7.80 
   6   0  -4   91.09    6.20 
   6   0  -4   95.29    4.80 
  -6   0   4  102.19    4.80 
  -6   0   4   84.89    5.30 
   5   0  -4  199.38    7.90 
   5   0  -4  225.98    7.60 
   5   0  -4  214.98    9.60 
  -5   0   4  226.08    7.80 
  -5   0   4  215.88    8.50 
  -5   0   4  229.98    7.60 
   4   0  -4  243.68    7.70 
   4   0  -4  240.18    8.50 
  -4   0   4  232.88    8.80 
  -4   0   4  251.07    7.90 
  -4   0   4  247.88    8.00 
   3   0  -4 1435.86   24.40 
   3   0  -4 1384.16   29.80 
   3   0  -4 1434.56   25.60 
  -3   0   4 1409.06   26.00 
  -3   0   4 1365.26   28.30 
  -3   0   4 1367.16   29.30 
  -3   0   4 1445.56   26.50 
   2   0  -4    9.60    1.10 
   2   0  -4    9.30    1.00 
   2   0  -4    6.90    1.50 
  -2   0   4    8.90    1.10 
  -2   0   4    8.40    1.20 
  -2   0   4   10.40    1.30 
   1   0  -4 1330.47   22.30 
   1   0  -4 1325.17   23.40 
   1   0  -4 1320.07   28.80 
   1   0  -4 1311.07   26.00 
  -1   0   4 1315.27   24.20 
  -1   0   4 1319.97   24.00 
   0   0  -4 1275.47   23.50 
   0   0  -4 1329.47   28.80 
   0   0  -4 1316.47   22.00 
   0   0  -4 1334.27   26.40 
   0   0   4 1361.36   24.40 
  -1   0  -4  403.66    8.80 
  -1   0  -4  382.06   12.00 
  -1   0  -4  400.66    9.50 
  -1   0  -4  404.76   10.80 
   1   0   4  391.36   10.00 
  -2   0  -4  831.82   19.80 
  -2   0  -4  876.11   17.20 
  -2   0  -4  884.01   20.30 
  -2   0  -4  869.11   16.10 
   2   0   4  836.42   17.80 
  -3   0  -4  287.17    9.80 
  -3   0  -4  298.87    7.70 
  -3   0  -4  297.67    8.30 
  -3   0  -4  292.77    8.90 
   3   0   4  290.27    8.20 
   3   0   4  293.97    8.50 
  -4   0  -4  323.07    9.10 
  -4   0  -4  290.87   10.70 
  -4   0  -4  313.87    8.60 
   4   0   4  315.07    9.10 
   4   0   4  313.27    8.80 
  -5   0  -4    0.50    0.90 
  -5   0  -4    0.00    0.90 
  -5   0  -4    1.50    1.40 
   5   0   4    1.60    1.10 
   5   0   4    1.60    0.80 
   5   0   4    0.90    0.90 
  -6   0  -4  145.59    8.00 
  -6   0  -4  148.79    6.30 
   6   0   4  147.89    7.90 
   6   0   4  146.99    6.30 
  -7   0  -4    9.30    2.20 
   7   0   4    9.10    2.20 
   8  -1  -4  133.39    8.50 
   8  -1  -4  137.99    6.70 
  -8   1   4  154.48    7.60 
   7  -1  -4   25.90    2.90 
   7  -1  -4   24.80    3.60 
  -7   1   4   26.10    3.20 
  -7   1   4   27.10    2.80 
   6  -1  -4  276.27   11.60 
   6  -1  -4  270.37    9.10 
  -6   1   4  277.47    9.00 
  -6   1   4  267.47    9.90 
   5  -1  -4   26.50    2.30 
   5  -1  -4   22.80    2.40 
  -5   1   4   21.10    2.60 
  -5   1   4   27.10    2.50 
  -5   1   4   26.70    2.60 
   4  -1  -4   89.69    4.20 
   4  -1  -4   81.09    4.70 
  -4   1   4   79.79    4.40 
  -4   1   4   88.39    4.70 
  -4   1   4   86.99    4.30 
   3  -1  -4    9.20    1.20 
   3  -1  -4    8.80    1.50 
   3  -1  -4    8.30    1.10 
  -3   1   4    6.00    1.20 
  -3   1   4    7.10    1.10 
  -3   1   4    6.80    1.20 
   2  -1  -4    0.00    0.60 
   2  -1  -4    1.10    1.10 
   2  -1  -4    0.00    0.50 
  -2   1   4    0.00    0.80 
  -2   1   4    0.00    0.80 
  -2   1   4    0.00    0.60 
   1  -1  -4    6.60    0.90 
   1  -1  -4    8.00    1.00 
   1  -1  -4    7.70    0.80 
   1  -1  -4    9.60    1.70 
  -1   1   4    7.80    1.10 
  -1   1   4    4.40    1.00 
   0  -1  -4   92.29    5.00 
   0  -1  -4   96.09    3.20 
   0  -1  -4   97.09    4.10 
   0  -1  -4  100.79    3.70 
   0   1   4   91.89    3.90 
  -1  -1  -4  354.66   11.10 
  -1  -1  -4  358.26    8.90 
  -1  -1  -4  353.66   10.30 
  -1  -1  -4  356.26    8.10 
   1   1   4  354.96    9.40 
  -2  -1  -4  212.98    5.80 
  -2  -1  -4  207.28    7.40 
  -2  -1  -4  205.98    7.60 
  -2  -1  -4  209.58    6.30 
   2   1   4  195.68    6.60 
  -3  -1  -4  313.37    8.00 
  -3  -1  -4  306.47    8.50 
  -3  -1  -4  298.97   10.30 
   3   1   4  302.47    8.90 
  -4  -1  -4   59.59    3.30 
  -4  -1  -4   58.99    3.20 
  -4  -1  -4   56.89    4.10 
   4   1   4   61.59    3.50 
  -5  -1  -4  111.59    6.30 
   5   1   4  107.89    5.00 
   5   1   4  107.39    6.30 
  -6  -1  -4  210.18    9.90 
   6   1   4  207.18    9.70 
  -7  -1  -4  220.68   11.00 
   7   1   4  206.88   10.30 
   8  -2  -4   26.10    3.00 
   8  -2  -4   25.30    3.80 
  -8   2   4   26.70    2.90 
   7  -2  -4  317.67   10.50 
   7  -2  -4  319.67   13.20 
  -7   2   4  324.07   11.20 
  -7   2   4  316.87   10.40 
   6  -2  -4   90.69    4.90 
  -6   2   4   96.49    4.90 
  -6   2   4   82.49    5.00 
   5  -2  -4  140.69    6.00 
   5  -2  -4  149.49    6.50 
  -5   2   4  137.69    6.40 
  -5   2   4  137.59    6.50 
  -5   2   4  150.78    6.20 
   4  -2  -4  400.56   11.30 
   4  -2  -4  432.96   13.10 
  -4   2   4  426.96   12.60 
  -4   2   4  431.36   11.80 
   3  -2  -4  982.70   23.40 
   3  -2  -4  962.00   18.40 
   3  -2  -4  984.00   19.80 
  -3   2   4  977.30   20.60 
  -3   2   4  994.30   21.80 
  -3   2   4  937.31   20.50 
   2  -2  -4  415.86    9.40 
   2  -2  -4  414.16   13.10 
   2  -2  -4  421.36   10.40 
  -2   2   4  434.16   11.20 
  -2   2   4  428.36   11.20 
   1  -2  -4  734.03   15.30 
   1  -2  -4  754.02   17.50 
   1  -2  -4  746.23   19.20 
   1  -2  -4  725.83   13.80 
  -1   2   4  740.33   16.20 
  -1   2   4  732.33   16.10 
   0  -2  -4  903.41   17.50 
   0  -2  -4  895.61   16.10 
   0  -2  -4  872.51   20.20 
   0  -2  -4  914.31   21.80 
   0   2   4  895.81   18.60 
   0   2   4  876.71   17.90 
  -1  -2  -4  597.34   15.70 
  -1  -2  -4  592.64   11.70 
  -1  -2  -4  580.84   15.40 
  -1  -2  -4  597.74   13.00 
   1   2   4  578.44   13.80 
  -2  -2  -4  161.98    6.60 
  -2  -2  -4  174.48    5.60 
  -2  -2  -4  162.98    6.90 
  -2  -2  -4  176.28    5.10 
   2   2   4  178.78    6.20 
  -3  -2  -4  551.44   16.00 
  -3  -2  -4  586.74   13.40 
   3   2   4  597.14   14.10 
  -4  -2  -4    1.60    1.30 
   4   2   4    4.00    1.20 
  -5  -2  -4  100.69    6.20 
   5   2   4  100.59    4.90 
   5   2   4   89.89    5.80 
  -6  -2  -4   66.09    5.40 
   6   2   4   64.89    5.20 
   8  -3  -4   56.49    4.30 
  -8   3   4   57.89    4.20 
   7  -3  -4   46.80    3.70 
  -7   3   4   47.20    3.70 
   6  -3  -4  260.17    9.10 
  -6   3   4  256.37    9.20 
  -6   3   4  261.97    9.90 
  -6   3   4  274.67    9.80 
   5  -3  -4  111.39    5.80 
   5  -3  -4  115.69    5.40 
  -5   3   4  115.49    5.80 
  -5   3   4  111.29    5.50 
   4  -3  -4   98.49    4.70 
   4  -3  -4  104.39    5.50 
  -4   3   4   95.49    5.00 
  -4   3   4   97.39    5.10 
   3  -3  -4    0.50    0.60 
   3  -3  -4    4.50    1.60 
   3  -3  -4    2.50    0.90 
  -3   3   4    2.70    1.20 
  -3   3   4    0.00    1.00 
  -3   3   4    3.70    1.40 
   2  -3  -4    8.20    1.10 
   2  -3  -4    8.00    1.80 
   2  -3  -4    6.70    0.80 
  -2   3   4    5.50    1.20 
  -2   3   4    5.80    1.30 
   1  -3  -4    3.40    0.60 
   1  -3  -4    3.20    1.50 
   1  -3  -4    4.10    0.90 
   1  -3  -4    3.30    1.10 
  -1   3   4    3.60    1.10 
  -1   3   4    5.00    1.10 
   0  -3  -4  162.98    6.50 
   0  -3  -4  169.38    5.50 
   0  -3  -4  166.38    7.20 
   0   3   4  163.08    5.60 
   0   3   4  163.68    6.20 
  -1  -3  -4   39.80    3.00 
  -1  -3  -4   42.50    2.40 
  -1  -3  -4   41.10    3.10 
   1   3   4   39.30    2.70 
  -2  -3  -4  180.68    7.60 
  -2  -3  -4  182.38    5.90 
  -2  -3  -4  173.08    7.10 
   2   3   4  192.28    6.70 
  -3  -3  -4    2.60    1.40 
   3   3   4    2.60    1.00 
  -4  -3  -4   70.69    5.10 
   4   3   4   78.69    4.20 
  -5  -3  -4   23.40    3.10 
   5   3   4   19.10    2.80 
   8  -4  -4   17.00    2.50 
  -8   4   4   13.30    2.50 
   7  -4  -4  340.87   11.30 
  -7   4   4  352.66   11.40 
   6  -4  -4   10.50    1.90 
   6  -4  -4    9.20    1.90 
  -6   4   4    9.50    2.30 
  -6   4   4   12.20    2.00 
   5  -4  -4  207.78    8.80 
   5  -4  -4  202.18    7.80 
  -5   4   4  200.18    8.00 
  -5   4   4  216.48    8.40 
   4  -4  -4    3.40    1.40 
   4  -4  -4    3.50    1.20 
   4  -4  -4    6.50    1.20 
  -4   4   4    7.40    1.60 
  -4   4   4    4.70    1.50 
  -4   4   4    5.20    1.50 
   3  -4  -4  867.01   22.60 
   3  -4  -4  878.41   19.00 
   3  -4  -4  879.61   16.80 
  -3   4   4  875.71   20.50 
  -3   4   4  866.01   20.00 
  -3   4   4  918.91   20.40 
   2  -4  -4   10.80    2.00 
   2  -4  -4   10.00    1.30 
  -2   4   4    5.10    1.40 
  -2   4   4    6.00    1.50 
   1  -4  -4  559.04   16.30 
   1  -4  -4  543.95   15.20 
   1  -4  -4  561.94   12.90 
  -1   4   4  569.44   13.70 
  -1   4   4  551.54   13.90 
   0  -4  -4    3.80    0.90 
   0  -4  -4    5.30    1.40 
   0  -4  -4    5.50    1.50 
   0   4   4    4.10    1.30 
   0   4   4    3.70    1.00 
  -1  -4  -4  420.76   13.10 
  -1  -4  -4  423.26   13.10 
   1   4   4  447.96   11.80 
  -2  -4  -4    0.20    1.00 
  -2  -4  -4    0.20    1.00 
   2   4   4    0.60    1.00 
  -3  -4  -4  379.86   13.10 
   3   4   4  390.86   11.20 
  -4  -4  -4    2.40    1.50 
  -5  -4  -4  122.39    7.40 
   8  -5  -4   90.39    5.60 
  -8   5   4   94.29    5.80 
   7  -5  -4   14.80    2.30 
  -7   5   4   13.30    2.40 
  -7   5   4   12.00    2.30 
   6  -5  -4  194.58    8.80 
   6  -5  -4  194.48    7.90 
  -6   5   4  186.28    8.00 
   5  -5  -4    0.30    1.00 
   5  -5  -4    1.30    1.60 
  -5   5   4    5.00    1.70 
   4  -5  -4   38.50    3.60 
   4  -5  -4   35.20    2.90 
  -4   5   4   34.90    3.00 
  -4   5   4   34.50    3.30 
  -4   5   4   35.70    3.20 
   3  -5  -4   64.39    4.80 
   3  -5  -4   63.59    3.80 
  -3   5   4   59.69    4.10 
  -3   5   4   64.59    4.40 
   2  -5  -4    1.20    0.80 
   2  -5  -4    5.10    1.80 
  -2   5   4    1.30    1.20 
  -2   5   4    3.00    1.30 
   1  -5  -4   20.80    2.60 
   1  -5  -4   19.10    2.20 
   1  -5  -4   18.40    1.70 
  -1   5   4   15.90    2.00 
  -1   5   4   15.40    2.00 
   0  -5  -4  122.59    6.40 
   0  -5  -4  122.29    6.30 
   0   5   4  131.19    5.70 
  -1  -5  -4    1.60    1.20 
  -1  -5  -4    0.00    1.10 
   1   5   4    0.00    0.90 
  -2  -5  -4  129.49    6.70 
   2   5   4  128.19    5.70 
  -3  -5  -4    1.10    1.30 
  -4  -5  -4  141.49    7.90 
   8  -6  -4   36.50    3.60 
  -8   6   4   33.40    3.70 
   7  -6  -4  237.38    9.40 
  -7   6   4  244.28   11.40 
  -7   6   4  247.08    9.80 
   6  -6  -4  106.19    6.40 
   6  -6  -4  106.19    5.70 
  -6   6   4   94.09    5.80 
   5  -6  -4  192.68    7.80 
   5  -6  -4  197.18    9.20 
  -5   6   4  186.58    8.60 
  -5   6   4  195.38    8.20 
   4  -6  -4  121.29    5.80 
   4  -6  -4  121.19    7.10 
  -4   6   4  122.19    6.30 
  -4   6   4  112.89    6.50 
   3  -6  -4  426.96   14.80 
   3  -6  -4  427.36   12.20 
  -3   6   4  423.66   13.30 
  -3   6   4  434.36   13.00 
   2  -6  -4   65.89    3.80 
   2  -6  -4   64.39    4.90 
  -2   6   4   63.59    4.30 
  -2   6   4   60.69    4.10 
   1  -6  -4  401.86   13.00 
   1  -6  -4  400.66   13.80 
  -1   6   4  397.56   11.80 
   0  -6  -4   14.70    2.20 
   0  -6  -4   15.90    2.50 
   0   6   4   18.30    2.40 
  -1  -6  -4  291.07   11.10 
  -1  -6  -4  306.17   11.40 
   1   6   4  311.47   10.00 
  -2  -6  -4    3.80    1.50 
  -3  -6  -4  175.58    8.90 
   7  -7  -4    0.00    1.20 
   6  -7  -4   13.10    2.10 
   6  -7  -4   13.10    2.60 
  -6   7   4   15.90    2.70 
  -6   7   4   15.60    2.40 
   5  -7  -4   10.10    2.00 
   5  -7  -4    6.50    2.10 
  -5   7   4    7.10    2.00 
  -5   7   4    9.20    2.30 
   4  -7  -4    8.20    1.80 
   4  -7  -4   10.40    2.20 
  -4   7   4    7.90    1.90 
  -4   7   4    6.40    2.20 
   3  -7  -4   49.99    4.60 
  -3   7   4   41.20    3.90 
  -3   7   4   43.50    3.90 
   2  -7  -4    6.20    2.00 
  -2   7   4    5.30    1.40 
   1  -7  -4   20.00    2.80 
   1  -7  -4   21.00    2.90 
  -1   7   4   16.80    2.40 
   0  -7  -4  102.49    6.20 
   0  -7  -4  110.49    6.50 
   0   7   4  105.79    5.50 
  -1  -7  -4    1.10    1.20 
  -1  -7  -4    0.80    1.30 
   1   7   4    3.40    1.30 
  -2  -7  -4  178.48    8.90 
   6  -8  -4  105.29    6.10 
   6  -8  -4  112.19    7.40 
  -6   8   4  113.79    6.60 
   5  -8  -4  172.88    7.70 
   5  -8  -4  167.48    9.30 
  -5   8   4  165.08    8.80 
  -5   8   4  183.98    8.40 
   4  -8  -4   39.60    4.40 
  -4   8   4   35.70    3.80 
  -4   8   4   33.80    4.00 
   3  -8  -4  345.57   14.10 
  -3   8   4  368.36   12.60 
  -3   8   4  344.47   12.10 
   2  -8  -4   29.00    3.90 
  -2   8   4   28.70    3.30 
   1  -8  -4  370.66   13.50 
   1  -8  -4  363.46   14.00 
  -1   8   4  377.96   12.20 
   0  -8  -4   42.50    4.20 
   0  -8  -4   40.30    4.20 
   0   8   4   38.90    3.50 
   3  -9  -4    6.00    2.20 
  -3   9   4    7.00    2.10 
   0 -12   5    1.30    1.50 
   1 -12   5    4.80    1.80 
   2 -12   5    6.10    2.00 
  -3  12  -5   17.70    2.50 
   3 -12   5   18.40    3.00 
  -4  12  -5   70.09    4.80 
   4 -12   5   70.99    5.60 
  -5  12  -5   56.69    4.40 
  -5  12  -5   45.30    5.50 
   5 -12   5   48.40    4.50 
  -2 -11   5  252.47   10.50 
  -1 -11   5   90.49    5.80 
   0 -11   5  471.45   15.40 
   1 -11   5  112.59    6.40 
  -2  11  -5  339.47   10.70 
   2 -11   5  326.17   12.20 
  -3  11  -5  130.49    6.20 
   3 -11   5  122.69    6.90 
  -4  11  -5  159.48    7.20 
   4 -11   5  151.88    7.90 
  -5  11  -5   74.19    4.90 
  -5  11  -5   66.49    6.20 
   5 -11   5   71.09    5.30 
  -6  11  -5  129.79    8.50 
  -6  11  -5  129.19    6.70 
   6 -11   5  128.19    6.10 
  -2 -10   5   98.99    5.90 
  -1 -10   5    8.80    1.90 
   0 -10   5    5.60    1.70 
  -1  10  -5    2.60    1.10 
   1 -10   5    0.00    1.10 
  -2  10  -5   10.00    1.70 
   2 -10   5   11.70    1.90 
  -3  10  -5   52.19    3.60 
   3 -10   5   47.80    3.90 
  -4  10  -5   67.09    4.30 
   4 -10   5   64.99    3.60 
   4 -10   5   61.59    4.60 
  -5  10  -5   76.69    6.20 
  -5  10  -5   75.79    4.10 
  -5  10  -5   66.49    4.50 
   5 -10   5   72.09    5.10 
   5 -10   5   67.29    4.00 
  -6  10  -5    5.20    2.00 
  -6  10  -5    0.00    1.10 
  -6  10  -5    4.00    2.40 
   6 -10   5    0.10    0.90 
  -7  10  -5   43.90    4.10 
  -7  10  -5   41.30    3.60 
  -7  10  -5   42.70    4.70 
   7 -10   5   45.80    3.70 
  -4  -9   5  102.39    6.40 
  -3  -9   5  438.66   14.00 
  -2  -9   5   88.29    5.00 
  -2  -9   5   89.79    5.30 
  -1  -9   5  283.47   10.40 
   0   9  -5  193.08    6.70 
   0  -9   5  197.88    8.20 
  -1   9  -5  388.66   10.80 
   1  -9   5  383.36   12.50 
  -2   9  -5  158.28    6.20 
   2  -9   5  150.48    7.00 
  -3   9  -5  762.72   17.70 
  -3   9  -5  776.12   16.00 
   3  -9   5  755.82   16.30 
   3  -9   5  733.83   19.80 
  -4   9  -5  192.78    7.60 
  -4   9  -5  203.28   10.00 
  -4   9  -5  199.28    6.80 
   4  -9   5  203.58    8.60 
   4  -9   5  206.38    6.90 
  -5   9  -5  270.37   11.90 
  -5   9  -5  268.27    9.40 
  -5   9  -5  275.77    8.70 
   5  -9   5  268.47   10.40 
   5  -9   5  272.87    8.70 
  -6   9  -5  260.67    8.80 
  -6   9  -5  248.08    9.30 
  -6   9  -5  256.77   11.80 
   6  -9   5  257.87    8.90 
  -7   9  -5  109.29    6.00 
  -7   9  -5  115.09    6.00 
  -7   9  -5  106.59    7.30 
   7  -9   5  116.99    6.00 
  -5  -8   5   15.40    3.10 
  -4  -8   5  337.37   12.40 
  -3  -8   5   87.79    5.40 
  -2  -8   5  128.89    6.00 
  -1  -8   5    2.90    1.10 
  -1  -8   5    2.10    0.90 
   0   8  -5   38.20    2.50 
   0  -8   5   39.00    3.20 
  -1   8  -5    0.40    0.60 
  -1   8  -5    0.00    0.80 
   1  -8   5    1.30    1.00 
  -2   8  -5    0.80    0.80 
  -2   8  -5    1.60    0.80 
   2  -8   5    1.50    1.00 
   2  -8   5    0.50    0.60 
  -3   8  -5   46.60    2.80 
  -3   8  -5   49.60    3.30 
   3  -8   5   49.99    3.60 
   3  -8   5   52.49    2.90 
   3  -8   5   52.59    3.70 
  -4   8  -5   92.79    4.70 
  -4   8  -5   89.99    6.30 
  -4   8  -5   89.79    4.30 
   4  -8   5  104.49    5.30 
   4  -8   5   90.99    4.30 
   4  -8   5   96.49    5.20 
  -5   8  -5  110.89    7.10 
  -5   8  -5   95.69    4.80 
  -5   8  -5  104.19    5.20 
   5  -8   5  112.19    5.80 
   5  -8   5  109.79    5.00 
  -6   8  -5  175.58    7.00 
  -6   8  -5  178.88    9.30 
  -6   8  -5  178.28    7.20 
   6  -8   5  172.78    7.70 
   6  -8   5  172.78    7.00 
  -7   8  -5   89.59    5.20 
  -7   8  -5   89.89    5.20 
  -7   8  -5   89.99    6.60 
   7  -8   5   77.79    5.40 
   7  -8   5   89.09    5.10 
  -8   8  -5  106.89    7.30 
  -8   8  -5   96.39    6.00 
  -8   8  -5   91.99    5.70 
   8  -8   5  106.39    5.90 
   8  -8   5   91.69    6.00 
  -6  -7   5   33.90    4.30 
  -5  -7   5  167.28    8.70 
  -4  -7   5    1.80    1.50 
  -3  -7   5  753.62   19.90 
  -2  -7   5    1.70    1.00 
   1   7  -5  871.11   16.80 
   1   7  -5  867.01   17.80 
  -1  -7   5  901.41   20.50 
   0   7  -5  192.88    6.20 
   0   7  -5  185.48    5.60 
   0  -7   5  187.18    6.50 
   0  -7   5  192.68    7.50 
  -1   7  -5 1344.67   24.10 
  -1   7  -5 1322.47   24.80 
  -1   7  -5 1302.67   22.60 
   1  -7   5 1284.97   28.30 
   1  -7   5 1252.97   25.30 
   1  -7   5 1295.87   23.20 
  -2   7  -5  245.58    7.00 
  -2   7  -5  249.58    7.70 
   2  -7   5  249.78    7.10 
   2  -7   5  247.88    8.10 
   2  -7   5  246.48    8.80 
  -3   7  -5 1944.01   31.70 
  -3   7  -5 1912.91   40.90 
  -3   7  -5 1860.51   33.90 
   3  -7   5 1863.91   38.20 
   3  -7   5 1844.02   34.10 
   3  -7   5 1945.01   32.70 
  -4   7  -5  261.07    8.00 
  -4   7  -5  252.37    8.30 
  -4   7  -5  270.77   11.20 
   4  -7   5  257.47    8.90 
   4  -7   5  255.77    8.60 
   4  -7   5  265.87    8.00 
  -5   7  -5  171.08    8.90 
  -5   7  -5  186.08    6.90 
  -5   7  -5  181.08    6.70 
   5  -7   5  178.68    7.50 
   5  -7   5  184.98    6.70 
   5  -7   5  180.38    7.30 
  -6   7  -5  170.08    6.80 
  -6   7  -5  165.58    8.90 
  -6   7  -5  167.48    6.80 
   6  -7   5  174.38    6.90 
   6  -7   5  176.48    7.40 
   6  -7   5  165.48    7.70 
  -7   7  -5   97.89    5.30 
  -7   7  -5   89.49    6.50 
  -7   7  -5   90.49    5.40 
   7  -7   5   92.69    5.60 
   7  -7   5   95.49    6.00 
   7  -7   5  101.39    5.50 
  -8   7  -5   22.50    2.90 
  -8   7  -5   23.70    3.80 
   8  -7   5   19.00    3.00 
   8  -7   5   18.80    2.60 
   8  -7   5   20.50    2.70 
  -6  -6   5  128.59    7.80 
  -5  -6   5    1.60    1.80 
   4   6  -5  276.37    8.20 
  -4  -6   5  282.57   10.80 
   3   6  -5   42.20    2.50 
  -3  -6   5   49.50    3.80 
   2   6  -5  109.19    4.10 
  -2  -6   5  115.19    5.60 
   1   6  -5   16.90    1.40 
  -1  -6   5   22.70    2.20 
   0   6  -5   22.70    1.60 
   0   6  -5   24.30    1.50 
   0  -6   5   20.70    1.70 
   0  -6   5   26.80    2.00 
  -1   6  -5   18.90    1.50 
  -1   6  -5   19.20    1.70 
  -1   6  -5   19.60    1.50 
   1  -6   5   20.80    1.80 
   1  -6   5   21.70    1.70 
   1  -6   5   20.10    1.50 
  -2   6  -5   71.99    3.60 
  -2   6  -5   84.69    5.20 
  -2   6  -5   74.29    3.30 
   2  -6   5   75.99    3.60 
   2  -6   5   73.69    3.30 
  -3   6  -5    5.30    1.10 
  -3   6  -5    4.50    1.00 
  -3   6  -5    6.30    2.20 
   3  -6   5    7.50    1.10 
   3  -6   5    6.40    1.20 
  -4   6  -5  354.66   10.00 
  -4   6  -5  351.16    9.70 
  -4   6  -5  349.96   12.90 
   4  -6   5  365.16    9.90 
   4  -6   5  363.46   10.40 
   4  -6   5  353.76   11.00 
  -5   6  -5    5.50    1.40 
  -5   6  -5   12.80    2.50 
  -5   6  -5    8.00    1.40 
   5  -6   5   10.20    1.70 
   5  -6   5    5.30    1.30 
   5  -6   5    8.10    1.30 
  -6   6  -5  472.45   12.70 
  -6   6  -5  474.85   16.00 
  -6   6  -5  476.35   12.70 
   6  -6   5  474.55   13.40 
   6  -6   5  450.75   12.70 
   6  -6   5  459.15   14.60 
  -7   6  -5   16.90    2.40 
  -7   6  -5   20.60    3.40 
  -7   6  -5   16.60    2.10 
   7  -6   5   19.50    2.70 
   7  -6   5   19.00    2.60 
   7  -6   5   20.90    2.40 
  -8   6  -5   72.49    6.10 
   8  -6   5   60.39    5.10 
   8  -6   5   62.09    4.50 
   8  -6   5   68.29    4.80 
  -7  -5   5  121.39    7.70 
   6   5  -5  139.89    6.30 
  -6  -5   5  143.69    8.10 
   5   5  -5  277.47   11.20 
   5   5  -5  281.07    8.80 
  -5  -5   5  278.37   11.40 
   4   5  -5   23.50    2.80 
   4   5  -5   24.60    2.10 
  -4  -5   5   24.80    3.00 
   3   5  -5 1679.03   28.60 
  -3  -5   5 1747.43   36.30 
   2   5  -5   13.00    1.00 
   2   5  -5   14.40    1.30 
  -2  -5   5   12.10    1.90 
   1   5  -5 2713.23   42.00 
   1   5  -5 2798.82   41.40 
  -1  -5   5 2685.93   49.90 
  -1  -5   5 2655.23   42.10 
   0   5  -5    2.10    0.60 
   0   5  -5    1.70    0.60 
   0  -5   5    1.80    0.60 
   0  -5   5    1.00    1.00 
  -1   5  -5 1861.11   38.00 
  -1   5  -5 1931.71   32.20 
  -1   5  -5 1907.11   30.90 
   1  -5   5 1860.71   32.40 
   1  -5   5 1911.91   36.10 
   1  -5   5 1938.21   31.80 
  -2   5  -5   18.50    1.60 
  -2   5  -5   17.80    2.30 
  -2   5  -5   19.90    1.60 
   2  -5   5   19.00    1.70 
   2  -5   5   18.40    1.40 
   2  -5   5   21.10    1.60 
  -3   5  -5 1389.16   24.50 
  -3   5  -5 1371.66   25.60 
  -3   5  -5 1341.27   30.30 
   3  -5   5 1355.56   26.00 
   3  -5   5 1387.76   25.20 
  -4   5  -5   14.50    2.00 
  -4   5  -5   20.00    3.10 
  -4   5  -5   17.00    2.00 
   4  -5   5   23.60    2.00 
   4  -5   5   18.70    2.00 
  -5   5  -5   22.80    2.10 
  -5   5  -5   16.60    2.80 
  -5   5  -5   20.30    2.10 
   5  -5   5   19.30    2.00 
   5  -5   5   20.10    2.30 
   5  -5   5   20.50    2.20 
  -6   5  -5   18.60    3.30 
  -6   5  -5   12.40    2.40 
  -6   5  -5   23.90    2.60 
   6  -5   5   23.90    2.50 
   6  -5   5   16.30    2.60 
   6  -5   5   20.10    3.00 
  -7   5  -5  110.49    5.80 
  -7   5  -5  111.89    7.60 
   7  -5   5  121.69    6.70 
   7  -5   5  106.79    5.70 
   7  -5   5  110.29    5.60 
  -8   5  -5    1.90    1.60 
  -8   5  -5    0.00    2.40 
   8  -5   5    2.40    1.50 
   8  -5   5    2.80    1.70 
   8  -5   5    1.70    1.30 
   7   4  -5  106.19    7.50 
   7   4  -5  109.09    5.80 
  -7  -4   5  110.79    7.20 
   6   4  -5  284.47   12.00 
   6   4  -5  286.17    9.50 
  -6  -4   5  290.57   11.80 
   5   4  -5   77.69    4.20 
   5   4  -5   74.29    5.50 
  -5  -4   5   82.39    5.50 
   4   4  -5  363.36   12.80 
   4   4  -5  390.36   10.00 
  -4  -4   5  371.26   12.70 
   3   4  -5   18.20    1.50 
   3   4  -5   16.00    1.50 
  -3  -4   5   17.10    2.30 
   2   4  -5   62.19    2.60 
   2   4  -5   59.79    2.80 
  -2  -4   5   63.19    4.10 
   1   4  -5   27.20    1.70 
   1   4  -5   26.90    1.60 
  -1  -4   5   29.30    2.70 
  -1  -4   5   25.40    1.40 
   0   4  -5    1.30    0.60 
   0   4  -5    0.20    0.70 
   0   4  -5    0.60    0.60 
   0  -4   5    2.40    1.00 
   0  -4   5    1.90    0.60 
  -1   4  -5   82.29    3.90 
  -1   4  -5   84.29    3.40 
  -1   4  -5   87.09    3.50 
   1  -4   5   86.39    3.50 
   1  -4   5   88.19    3.50 
   1  -4   5   85.49    3.60 
  -2   4  -5  133.69    5.80 
  -2   4  -5  133.79    4.70 
   2  -4   5  142.39    5.00 
   2  -4   5  133.19    4.80 
  -3   4  -5   51.39    2.90 
  -3   4  -5   48.80    3.50 
  -3   4  -5   53.09    2.80 
   3  -4   5   53.99    3.00 
   3  -4   5   58.19    3.00 
  -4   4  -5  293.57   10.70 
  -4   4  -5  297.87    8.60 
  -4   4  -5  305.67    8.50 
   4  -4   5  291.87    8.90 
   4  -4   5  302.77    8.70 
  -5   4  -5    0.00    1.80 
  -5   4  -5    3.60    1.20 
  -5   4  -5    2.60    1.10 
   5  -4   5    1.80    0.90 
   5  -4   5    3.60    1.20 
   5  -4   5    2.70    1.00 
  -6   4  -5  437.16   12.10 
  -6   4  -5  438.36   15.40 
   6  -4   5  442.66   14.40 
   6  -4   5  428.86   12.00 
   6  -4   5  429.56   12.40 
  -7   4  -5    4.60    1.60 
  -7   4  -5    6.20    2.40 
   7  -4   5    5.70    1.80 
   7  -4   5    3.70    1.20 
   7  -4   5    4.50    1.50 
  -8   4  -5   81.09    6.90 
  -8   4  -5   84.49    5.60 
   8  -4   5   81.69    5.10 
   8  -4   5   83.39    5.10 
   8  -4   5   84.59    6.20 
   8   3  -5   32.30    4.50 
   8   3  -5   39.50    3.70 
  -8  -3   5   45.60    4.70 
   7   3  -5  194.18    7.90 
   7   3  -5  203.58   10.30 
  -7  -3   5  188.38    9.40 
   6   3  -5  230.78    8.30 
   6   3  -5  233.38   10.70 
  -6  -3   5  233.78   10.10 
   5   3  -5  102.29    4.80 
   5   3  -5  106.09    6.40 
  -5  -3   5   97.79    5.90 
   4   3  -5  385.56   10.10 
   4   3  -5  370.66   10.10 
  -4  -3   5  390.06   12.60 
   3   3  -5 1291.77   23.20 
   3   3  -5 1291.47   23.60 
  -3  -3   5 1316.57   28.90 
   2   3  -5  372.56    9.00 
   2   3  -5  375.66    9.10 
  -2  -3   5  374.06    8.50 
  -2  -3   5  383.36   11.80 
   1   3  -5 1964.20   31.50 
   1   3  -5 1959.00   32.60 
  -1  -3   5 2044.50   33.00 
  -1  -3   5 1955.00   37.80 
   0   3  -5  909.11   19.20 
   0   3  -5  956.10   18.20 
   0   3  -5  937.21   17.40 
   0  -3   5  892.01   20.10 
   0  -3   5  977.40   18.20 
  -1   3  -5  498.35   12.80 
  -1   3  -5  517.05   11.80 
  -1   3  -5  531.25   11.20 
   1  -3   5  538.25   11.90 
  -2   3  -5  460.05   11.20 
  -2   3  -5  443.06   12.40 
  -2   3  -5  473.25   10.60 
   2  -3   5  474.45   11.00 
   2  -3   5  467.15   11.20 
  -3   3  -5  896.71   17.30 
  -3   3  -5  861.71   17.50 
  -3   3  -5  834.82   20.70 
   3  -3   5  882.91   18.40 
   3  -3   5  871.61   18.00 
  -4   3  -5  192.78    8.10 
  -4   3  -5  184.58    6.50 
  -4   3  -5  202.68    6.30 
   4  -3   5  200.18    6.70 
   4  -3   5  194.78    6.80 
  -5   3  -5  124.39    4.80 
  -5   3  -5  111.99    6.40 
  -5   3  -5  116.79    5.00 
   5  -3   5  105.69    5.10 
   5  -3   5  113.09    6.00 
   5  -3   5  113.79    5.10 
  -6   3  -5   50.89    3.60 
  -6   3  -5   52.69    4.60 
   6  -3   5   49.90    3.50 
   6  -3   5   60.39    4.40 
   6  -3   5   53.29    3.50 
  -7   3  -5  148.89    8.80 
  -7   3  -5  156.58    7.00 
   7  -3   5  152.88    6.70 
   7  -3   5  159.18    8.20 
   7  -3   5  149.09    6.70 
   8   2  -5   33.90    4.60 
  -8  -2   5   35.90    4.00 
   7   2  -5  291.27   12.80 
  -7  -2   5  301.77   11.70 
   6   2  -5  290.77   11.90 
   6   2  -5  281.07    9.10 
  -6  -2   5  281.17   11.00 
   5   2  -5  278.07    8.80 
   5   2  -5  292.87    8.80 
   5   2  -5  299.67   11.60 
  -5  -2   5  287.17   10.60 
   4   2  -5  148.39    6.20 
   4   2  -5  148.89    5.50 
   4   2  -5  149.49    5.60 
  -4  -2   5  151.98    6.90 
   3   2  -5  133.49    4.80 
   3   2  -5  127.99    5.80 
   3   2  -5  125.69    4.70 
  -3  -2   5  147.89    6.40 
  -3  -2   5  138.09    4.40 
   2   2  -5    3.80    1.10 
   2   2  -5    8.10    1.00 
  -2  -2   5   11.60    1.90 
   1   2  -5    0.70    0.60 
   1   2  -5    0.70    0.50 
  -1  -2   5    0.50    0.80 
  -1  -2   5    0.70    0.50 
   0   2  -5    4.10    1.00 
   0   2  -5    3.00    0.70 
   0   2  -5    3.30    0.70 
   0  -2   5    3.80    1.40 
  -1   2  -5    3.70    1.20 
  -1   2  -5    0.00    0.50 
  -1   2  -5    0.80    0.60 
  -1   2  -5    0.50    0.50 
   1  -2   5    0.00    0.50 
  -2   2  -5   33.30    2.40 
  -2   2  -5   36.30    2.10 
  -2   2  -5   33.90    2.80 
  -2   2  -5   37.80    2.30 
   2  -2   5   37.10    2.30 
   2  -2   5   32.20    2.20 
  -3   2  -5   10.20    1.60 
  -3   2  -5   10.30    1.70 
  -3   2  -5    8.70    1.20 
  -3   2  -5    9.20    1.30 
   3  -2   5   11.00    1.40 
   3  -2   5    8.50    1.10 
  -4   2  -5  393.26   10.30 
  -4   2  -5  413.66   10.20 
  -4   2  -5  404.26   12.80 
   4  -2   5  393.26   10.90 
   4  -2   5  416.56   10.80 
  -5   2  -5   23.50    2.20 
  -5   2  -5   15.10    2.40 
   5  -2   5   19.30    2.10 
   5  -2   5   21.00    2.00 
  -6   2  -5  484.65   12.90 
  -6   2  -5  491.25   16.40 
   6  -2   5  471.75   12.90 
   6  -2   5  485.35   13.30 
   6  -2   5  495.35   15.90 
  -7   2  -5   10.80    2.70 
  -7   2  -5   13.70    2.40 
   7  -2   5   15.70    2.00 
   7  -2   5   15.10    2.70 
   7  -2   5   16.40    2.00 
   8   1  -5   18.60    3.70 
  -8  -1   5   22.70    3.40 
   7   1  -5   15.90    2.20 
   7   1  -5   15.00    2.90 
  -7  -1   5   14.30    2.50 
   6   1  -5  582.44   14.50 
   6   1  -5  574.44   18.40 
  -6  -1   5  550.34   16.60 
  -6  -1   5  587.34   14.60 
   5   1  -5  105.79    4.90 
   5   1  -5  105.59    5.40 
   5   1  -5  111.99    5.00 
  -5  -1   5  111.59    5.20 
  -5  -1   5  111.59    5.90 
   4   1  -5 1124.69   22.00 
   4   1  -5 1105.49   21.20 
   4   1  -5 1084.29   25.30 
  -4  -1   5 1106.59   25.40 
  -4  -1   5 1126.39   21.80 
  -4  -1   5 1085.29   22.40 
   3   1  -5  416.46   10.40 
   3   1  -5  434.56   10.10 
   3   1  -5  392.06   12.50 
  -3  -1   5  442.16   11.00 
  -3  -1   5  405.26   12.40 
  -3  -1   5  428.96   10.50 
   2   1  -5  336.47    8.60 
   2   1  -5  331.87    8.20 
   2   1  -5  327.57   10.60 
  -2  -1   5  342.77    8.60 
  -2  -1   5  319.47   10.10 
   1   1  -5 1309.87   23.80 
   1   1  -5 1334.87   22.60 
   1   1  -5 1298.97   28.50 
   1   1  -5 1316.17   25.60 
  -1  -1   5 1332.17   24.20 
  -1  -1   5 1315.77   27.00 
   0   1  -5 1160.68   23.90 
   0   1  -5 1181.58   20.60 
   0   1  -5 1166.88   21.80 
   0   1  -5 1215.08   26.60 
   0  -1   5 1179.88   22.20 
  -1   1  -5  949.90   18.50 
  -1   1  -5  937.91   17.40 
  -1   1  -5  928.11   20.50 
  -1   1  -5  933.31   22.80 
   1  -1   5  942.31   18.90 
  -2   1  -5  351.96   11.50 
  -2   1  -5  348.07    9.10 
  -2   1  -5  337.37    8.50 
  -2   1  -5  347.17   10.30 
   2  -1   5  340.37    9.40 
  -3   1  -5 1194.58   21.80 
  -3   1  -5 1191.78   22.80 
  -3   1  -5 1206.58   26.20 
  -3   1  -5 1145.59   26.10 
   3  -1   5 1163.18   23.40 
   3  -1   5 1211.08   22.70 
  -4   1  -5  176.88    6.20 
  -4   1  -5  183.58    6.60 
  -4   1  -5  175.08    7.70 
   4  -1   5  182.68    6.50 
   4  -1   5  189.48    6.70 
  -5   1  -5  255.27   10.30 
  -5   1  -5  253.97    8.40 
  -5   1  -5  249.68    8.00 
   5  -1   5  239.38    8.30 
   5  -1   5  239.68    8.10 
  -6   1  -5   16.40    2.20 
  -6   1  -5   18.90    2.80 
  -6   1  -5   17.90    2.20 
   6  -1   5   16.60    2.00 
   6  -1   5   19.10    2.20 
   6  -1   5   17.80    2.50 
  -7   1  -5   34.70    4.20 
  -7   1  -5   36.70    3.50 
   7  -1   5   37.00    4.10 
   7  -1   5   42.90    3.40 
   8   0  -5    4.60    2.10 
   8   0  -5    2.20    1.40 
  -8   0   5    1.10    1.50 
   7   0  -5  199.28    7.90 
   7   0  -5  211.48   10.30 
  -7   0   5  204.18    8.90 
   6   0  -5   88.49    4.70 
  -6   0   5   75.89    5.20 
  -6   0   5   76.99    4.70 
   5   0  -5   61.19    3.70 
   5   0  -5   57.09    4.00 
  -5   0   5   54.59    4.00 
  -5   0   5   57.79    3.80 
   4   0  -5   39.30    3.00 
   4   0  -5   51.69    4.10 
  -4   0   5   55.69    4.00 
  -4   0   5   56.99    3.60 
   3   0  -5   52.39    3.60 
   3   0  -5   49.10    2.80 
   3   0  -5   44.70    2.50 
  -3   0   5   46.20    3.30 
  -3   0   5   48.50    3.00 
  -3   0   5   47.60    2.80 
   2   0  -5   10.60    1.10 
   2   0  -5   10.20    1.90 
   2   0  -5   12.10    1.30 
  -2   0   5    9.20    1.40 
  -2   0   5   12.50    1.60 
  -2   0   5   11.50    1.30 
   1   0  -5   31.50    1.90 
   1   0  -5   32.70    2.90 
   1   0  -5   34.00    2.00 
   1   0  -5   33.10    1.80 
  -1   0   5   33.60    2.10 
   0   0  -5   54.49    2.50 
   0   0  -5   57.99    3.00 
   0   0  -5   63.69    4.30 
   0   0  -5   57.19    2.80 
   0   0   5   60.19    3.00 
  -1   0  -5   25.90    1.60 
  -1   0  -5   26.10    1.90 
  -1   0  -5   25.20    2.80 
  -1   0  -5   27.20    2.10 
   1   0   5   26.40    2.00 
  -2   0  -5   43.70    2.60 
  -2   0  -5   46.00    2.30 
  -2   0  -5   48.80    3.40 
  -2   0  -5   46.90    3.10 
   2   0   5   42.60    2.70 
  -3   0  -5  302.37    8.50 
  -3   0  -5  282.67   10.00 
  -3   0  -5  296.47    8.00 
   3   0   5  293.47    8.90 
  -4   0  -5  255.47    7.60 
  -4   0  -5  265.57    8.20 
  -4   0  -5  244.48    9.70 
   4   0   5  251.77    8.30 
  -5   0  -5  250.17    8.30 
  -5   0  -5  247.88    8.00 
  -5   0  -5  246.38   10.30 
   5   0   5  244.58    8.10 
   5   0   5  242.98    8.50 
  -6   0  -5  107.89    6.90 
   6   0   5  101.09    6.50 
   6   0   5  104.49    5.30 
   8  -1  -5   63.49    4.40 
  -8   1   5   59.79    4.70 
   7  -1  -5   17.40    2.20 
  -7   1   5   18.50    2.40 
  -7   1   5   17.10    2.50 
   6  -1  -5  882.51   19.80 
  -6   1   5  854.41   21.80 
  -6   1   5  861.21   20.00 
   5  -1  -5   66.29    3.90 
   5  -1  -5   69.29    4.30 
  -5   1   5   60.09    4.30 
  -5   1   5   61.09    4.00 
   4  -1  -5 1501.85   28.50 
   4  -1  -5 1521.25   32.70 
   4  -1  -5 1518.65   27.00 
  -4   1   5 1545.65   29.40 
  -4   1   5 1494.75   32.20 
  -4   1   5 1541.95   29.10 
   3  -1  -5  426.46   10.20 
   3  -1  -5  425.16   13.40 
   3  -1  -5  417.26   10.90 
  -3   1   5  435.96   11.80 
  -3   1   5  432.16   12.50 
  -3   1   5  440.96   11.50 
   2  -1  -5  780.22   20.10 
   2  -1  -5  757.62   15.90 
   2  -1  -5  740.33   14.80 
  -2   1   5  761.02   16.80 
  -2   1   5  735.13   18.20 
  -2   1   5  775.22   16.60 
   1  -1  -5  812.22   16.60 
   1  -1  -5  783.92   21.00 
   1  -1  -5  826.22   15.30 
   1  -1  -5  812.62   18.50 
  -1   1   5  806.62   17.40 
  -1   1   5  811.92   17.30 
   0  -1  -5 2027.70   33.60 
   0  -1  -5 1970.50   40.70 
   0  -1  -5 1997.50   38.20 
   0  -1  -5 1984.80   31.40 
   0   1   5 2014.70   35.10 
  -1  -1  -5  290.07    7.20 
  -1  -1  -5  307.57   10.40 
  -1  -1  -5  278.67    8.00 
  -1  -1  -5  281.77    9.30 
   1   1   5  298.87    8.60 
  -2  -1  -5  570.64   12.00 
  -2  -1  -5  568.24   13.10 
  -2  -1  -5  565.24   15.30 
  -2  -1  -5  566.84   15.50 
   2   1   5  553.24   13.80 
  -3  -1  -5  235.58    6.90 
  -3  -1  -5  236.58    9.10 
  -3  -1  -5  242.38    7.50 
   3   1   5  254.67    8.10 
  -4  -1  -5  164.88    6.10 
  -4  -1  -5  156.98    7.50 
   4   1   5  157.48    6.40 
  -5  -1  -5   63.49    4.80 
   5   1   5   64.69    4.00 
  -6  -1  -5    8.80    2.20 
   6   1   5   12.80    2.40 
   8  -2  -5    1.00    1.40 
  -8   2   5    3.00    1.70 
  -8   2   5    4.90    1.80 
   7  -2  -5  104.39    5.70 
  -7   2   5  115.69    6.10 
  -7   2   5  106.99    5.70 
   6  -2  -5    0.00    1.10 
  -6   2   5    1.30    1.30 
  -6   2   5    2.90    1.40 
   5  -2  -5   64.59    4.40 
   5  -2  -5   65.19    4.00 
   5  -2  -5   67.79    3.80 
  -5   2   5   69.99    4.30 
  -5   2   5   65.99    4.50 
   4  -2  -5   21.70    1.90 
   4  -2  -5   21.70    2.50 
   4  -2  -5   22.50    2.20 
  -4   2   5   19.80    2.30 
  -4   2   5   20.30    2.40 
  -4   2   5   17.80    2.10 
   3  -2  -5   61.89    3.00 
   3  -2  -5   64.89    3.50 
   3  -2  -5   65.99    4.40 
  -3   2   5   65.79    3.80 
  -3   2   5   61.89    3.90 
  -3   2   5   60.69    3.80 
   2  -2  -5    0.00    0.70 
   2  -2  -5    0.00    1.30 
   2  -2  -5    1.00    0.60 
   2  -2  -5    0.00    0.70 
  -2   2   5    0.60    1.00 
  -2   2   5    1.20    0.90 
   1  -2  -5   47.00    4.00 
   1  -2  -5   44.80    2.20 
   1  -2  -5   44.60    3.00 
   1  -2  -5   42.70    2.60 
  -1   2   5   44.50    3.10 
  -1   2   5   44.90    3.10 
   0  -2  -5   42.40    3.60 
   0  -2  -5   44.90    2.10 
   0  -2  -5   48.20    3.10 
   0  -2  -5   43.60    2.50 
   0   2   5   45.10    2.90 
  -1  -2  -5   97.09    4.90 
  -1  -2  -5  102.59    5.40 
  -1  -2  -5  101.19    4.10 
   1   2   5   97.69    4.60 
  -2  -2  -5    1.30    0.70 
  -2  -2  -5    3.00    1.20 
  -2  -2  -5    2.20    0.90 
   2   2   5    3.90    1.20 
  -3  -2  -5  384.26   12.70 
  -3  -2  -5  399.96   10.60 
   3   2   5  386.76   11.20 
  -4  -2  -5   65.29    4.70 
   4   2   5   63.59    4.10 
  -5  -2  -5  223.18   10.10 
   5   2   5  213.18    9.80 
   5   2   5  213.98    8.00 
   8  -3  -5   61.59    4.50 
  -8   3   5   57.29    4.50 
   7  -3  -5    5.60    1.50 
  -7   3   5   12.00    2.10 
  -7   3   5    7.40    1.90 
   6  -3  -5  667.43   18.40 
   6  -3  -5  634.54   16.70 
  -6   3   5  668.63   17.10 
  -6   3   5  659.63   18.30 
   5  -3  -5    9.60    1.60 
   5  -3  -5    7.10    1.40 
   5  -3  -5    9.10    1.80 
  -5   3   5   12.10    2.20 
  -5   3   5    6.90    1.70 
  -5   3   5    8.20    1.70 
   4  -3  -5 1145.69   23.60 
   4  -3  -5 1140.19   21.80 
   4  -3  -5 1155.68   27.30 
  -4   3   5 1162.58   24.90 
  -4   3   5 1119.09   24.40 
  -4   3   5 1165.98   25.90 
   3  -3  -5    4.90    1.20 
   3  -3  -5    1.80    0.70 
   3  -3  -5    0.30    1.30 
  -3   3   5    1.30    1.10 
  -3   3   5    0.00    0.90 
  -3   3   5    1.10    1.10 
   2  -3  -5  800.12   19.70 
   2  -3  -5  829.32   15.60 
   2  -3  -5  812.42   17.40 
   2  -3  -5  809.12   21.70 
  -2   3   5  845.92   18.60 
  -2   3   5  828.32   18.80 
   1  -3  -5    8.90    1.40 
   1  -3  -5    6.00    1.00 
   1  -3  -5    5.80    1.90 
  -1   3   5    7.30    1.30 
  -1   3   5    6.50    1.40 
   0  -3  -5 1368.56   31.00 
   0  -3  -5 1351.16   29.10 
   0  -3  -5 1343.37   25.00 
   0   3   5 1381.36   26.60 
  -1  -3  -5   13.10    1.50 
  -1  -3  -5   14.40    1.90 
  -1  -3  -5   12.80    2.10 
   1   3   5   13.90    1.80 
  -2  -3  -5  394.86   12.50 
  -2  -3  -5  410.66   13.00 
   2   3   5  405.46   11.70 
  -3  -3  -5   23.10    2.80 
   3   3   5   24.70    2.40 
  -4  -3  -5  130.59    7.20 
   4   3   5  127.29    5.90 
  -5  -3  -5   24.90    3.30 
   5   3   5   16.10    2.60 
   8  -4  -5    6.50    1.70 
  -8   4   5    5.50    1.80 
   7  -4  -5  156.58    7.30 
  -7   4   5  156.78    7.40 
   6  -4  -5  104.09    5.60 
   6  -4  -5  104.19    6.10 
  -6   4   5   97.49    5.70 
   5  -4  -5  106.69    4.90 
   5  -4  -5  109.29    6.40 
   5  -4  -5  104.99    5.50 
  -5   4   5  101.39    5.70 
  -5   4   5  113.99    6.00 
  -5   4   5  107.99    5.90 
   4  -4  -5   17.20    2.10 
   4  -4  -5   13.30    2.50 
   4  -4  -5   13.40    1.50 
  -4   4   5   14.90    2.20 
  -4   4   5   16.70    2.20 
  -4   4   5   13.40    2.10 
   3  -4  -5   10.40    1.60 
   3  -4  -5   10.70    2.20 
  -3   4   5   11.00    1.90 
  -3   4   5    5.50    1.30 
   2  -4  -5   10.10    1.80 
   2  -4  -5    9.10    2.10 
   2  -4  -5    9.40    1.40 
  -2   4   5    8.10    1.60 
  -2   4   5    9.70    1.80 
   1  -4  -5   12.20    1.40 
   1  -4  -5    8.60    1.60 
   1  -4  -5   11.40    2.30 
  -1   4   5   11.40    1.80 
  -1   4   5   13.20    1.70 
   0  -4  -5    4.40    1.00 
   0  -4  -5    2.90    1.40 
   0  -4  -5    2.90    1.40 
   0   4   5    2.90    1.20 
  -1  -4  -5   58.99    4.20 
  -1  -4  -5   62.79    4.40 
   1   4   5   64.19    3.80 
  -2  -4  -5    2.90    1.50 
   2   4   5    3.30    1.20 
  -3  -4  -5  243.48   10.20 
   3   4   5  248.08    8.80 
  -4  -4  -5   68.49    5.30 
   7  -5  -5   76.29    5.10 
  -7   5   5   78.79    5.30 
   6  -5  -5  137.99    7.40 
   6  -5  -5  126.89    6.40 
  -6   5   5  128.09    6.90 
  -6   5   5  132.09    6.80 
   5  -5  -5  154.68    8.00 
   5  -5  -5  158.68    6.90 
  -5   5   5  147.79    7.10 
  -5   5   5  142.29    7.50 
   4  -5  -5  298.87   11.90 
   4  -5  -5  285.87    9.70 
  -4   5   5  308.07   10.30 
  -4   5   5  289.87   10.40 
  -4   5   5  293.97   10.70 
   3  -5  -5  250.07    8.50 
   3  -5  -5  236.78   10.50 
  -3   5   5  247.38    9.20 
  -3   5   5  243.98    9.40 
   2  -5  -5  422.46   14.70 
   2  -5  -5  413.36   11.50 
   2  -5  -5  423.76   13.20 
  -2   5   5  407.46   12.40 
  -2   5   5  427.36   12.50 
   1  -5  -5   46.80    3.00 
   1  -5  -5   48.40    3.70 
   1  -5  -5   49.99    4.40 
  -1   5   5   47.30    3.60 
   0  -5  -5  677.33   19.40 
   0  -5  -5  669.33   18.60 
   0   5   5  672.03   16.80 
  -1  -5  -5    1.50    1.10 
  -1  -5  -5    0.40    1.10 
   1   5   5    0.50    1.00 
  -2  -5  -5  318.87   12.20 
   2   5   5  330.67   10.80 
  -3  -5  -5   17.70    2.80 
   7  -6  -5   50.09    4.20 
  -7   6   5   46.30    4.50 
   6  -6  -5  104.99    6.70 
   6  -6  -5  103.59    5.70 
  -6   6   5   93.99    6.40 
  -6   6   5   94.99    5.80 
   5  -6  -5    8.90    1.80 
   5  -6  -5   14.00    2.60 
  -5   6   5    7.90    2.60 
  -5   6   5    8.10    2.10 
   4  -6  -5   75.59    4.60 
   4  -6  -5   72.49    5.60 
  -4   6   5   67.89    5.30 
  -4   6   5   76.79    5.20 
   3  -6  -5   12.80    2.60 
   3  -6  -5    9.10    1.70 
  -3   6   5    9.00    2.10 
  -3   6   5    8.00    1.90 
   2  -6  -5   34.70    3.90 
  -2   6   5   29.40    3.10 
  -2   6   5   28.80    3.10 
   1  -6  -5   14.60    2.70 
   1  -6  -5   15.60    2.40 
  -1   6   5   15.30    2.20 
   0  -6  -5    0.10    1.40 
   0  -6  -5    0.00    1.50 
   0   6   5    1.10    1.10 
  -1  -6  -5  109.19    6.50 
  -1  -6  -5  103.09    6.30 
   1   6   5  113.79    5.80 
  -2  -6  -5    1.20    1.40 
   6  -7  -5   28.40    3.20 
   6  -7  -5   28.00    3.60 
  -6   7   5   26.50    3.60 
  -6   7   5   22.90    3.10 
   5  -7  -5  177.48    7.80 
   5  -7  -5  166.28    9.30 
  -5   7   5  195.28    8.70 
  -5   7   5  183.38    9.30 
   4  -7  -5  194.88    8.10 
   4  -7  -5  186.68    9.90 
  -4   7   5  203.68    9.30 
  -4   7   5  193.58    8.80 
   3  -7  -5  213.08   10.60 
  -3   7   5  211.58    9.40 
  -3   7   5  228.38    9.30 
   2  -7  -5  393.16   15.10 
  -2   7   5  400.16   12.90 
   1  -7  -5   44.50    4.10 
   1  -7  -5   45.90    4.60 
  -1   7   5   43.00    3.80 
   0  -7  -5  303.97   12.60 
   0  -7  -5  320.87   12.30 
   0   7   5  347.57   11.40 
  -1  -7  -5   38.40    4.00 
   1   7   5   32.60    3.20 
   4  -8  -5   32.70    4.40 
  -4   8   5   30.90    4.10 
  -4   8   5   34.70    3.90 
   3  -8  -5   25.60    3.80 
  -3   8   5   25.10    3.20 
   2  -8  -5   11.90    2.70 
  -2   8   5   14.60    2.50 
   2 -13   6    3.00    1.90 
  -3  13  -6    5.60    1.90 
   3 -13   6    8.10    2.40 
  -1 -12   6  328.67   12.80 
   0 -12   6  174.78    8.80 
   1 -12   6  459.35   15.50 
  -2  12  -6   82.99    4.80 
   2 -12   6   83.29    5.80 
  -3  12  -6  486.25   14.10 
   3 -12   6  455.85   15.80 
  -4  12  -6   28.50    3.30 
   4 -12   6   29.40    3.50 
  -5  12  -6  230.48   11.90 
  -5  12  -6  221.88    9.30 
   5 -12   6  219.78   10.30 
  -1 -11   6   64.99    4.90 
   0 -11   6   60.79    4.70 
   1 -11   6    3.80    1.60 
  -2  11  -6    0.20    1.30 
   2 -11   6    0.00    1.40 
  -3  11  -6    2.90    1.60 
   3 -11   6    0.30    1.30 
  -4  11  -6    9.30    3.00 
  -4  11  -6    6.20    1.60 
   4 -11   6    2.70    1.70 
  -5  11  -6   13.00    2.80 
  -5  11  -6    9.90    2.00 
   5 -11   6   13.50    2.50 
   5 -11   6   13.70    1.80 
  -6  11  -6  161.58    7.70 
  -6  11  -6  166.08    9.70 
   6 -11   6  158.58    6.90 
   0 -10   6  571.14   16.90 
  -1  10  -6  141.99    5.90 
   1 -10   6  134.69    6.90 
  -2  10  -6  341.07   10.40 
   2 -10   6  322.67   11.70 
  -3  10  -6  315.37   10.30 
   3 -10   6  325.97   11.70 
  -4  10  -6  198.58    7.80 
  -4  10  -6  201.08    7.00 
  -4  10  -6  194.18   10.20 
   4 -10   6  191.58    8.70 
   4 -10   6  197.78    7.00 
  -5  10  -6  239.38   11.50 
  -5  10  -6  247.48    8.20 
  -5  10  -6  231.38    8.90 
   5 -10   6  242.28    8.30 
   5 -10   6  230.88   10.00 
  -6  10  -6  152.58    6.70 
  -6  10  -6  149.49    7.10 
  -6  10  -6  144.19    8.90 
   6 -10   6  151.48    6.60 
  -7  10  -6  193.78    8.50 
  -7  10  -6  201.48    8.30 
  -7  10  -6  212.18   10.70 
   7 -10   6  198.18    8.20 
  -4  -9   6   12.10    2.50 
  -3  -9   6   64.69    4.60 
   0   9  -6   63.59    3.50 
   0  -9   6   64.59    4.50 
  -1   9  -6    0.70    1.00 
   1  -9   6    2.00    1.10 
  -2   9  -6   13.40    1.80 
  -2   9  -6   11.50    1.40 
   2  -9   6   13.90    2.10 
  -3   9  -6   23.20    3.40 
  -3   9  -6   17.30    1.70 
  -3   9  -6   21.80    2.30 
   3  -9   6   19.80    1.80 
   3  -9   6   20.90    2.40 
  -4   9  -6   67.99    5.60 
  -4   9  -6   65.29    3.70 
  -4   9  -6   69.89    4.10 
   4  -9   6   68.79    3.70 
   4  -9   6   66.59    4.50 
   4  -9   6   67.59    4.60 
  -5   9  -6  122.89    7.60 
  -5   9  -6  108.09    5.60 
  -5   9  -6  115.89    5.40 
   5  -9   6  111.19    5.20 
   5  -9   6  117.49    6.10 
  -6   9  -6  196.18    7.60 
  -6   9  -6  187.98    7.80 
  -6   9  -6  189.58    9.90 
   6  -9   6  185.68    7.40 
   6  -9   6  184.38    8.40 
  -7   9  -6  165.48    9.30 
  -7   9  -6  160.18    7.40 
  -7   9  -6  162.28    7.40 
   7  -9   6  167.58    8.10 
   7  -9   6  165.48    7.40 
  -5  -8   6    3.00    2.20 
  -4  -8   6  132.49    7.30 
  -3  -8   6    1.10    1.30 
  -2  -8   6  469.05   14.10 
   1   8  -6   36.90    2.50 
   1   8  -6   37.00    2.30 
  -1  -8   6   36.80    2.90 
   0   8  -6 1896.61   31.30 
   0   8  -6 1924.01   33.80 
  -1   8  -6   75.39    3.40 
  -1   8  -6   80.39    4.00 
  -2   8  -6 1520.55   26.80 
  -2   8  -6 1561.64   29.20 
   2  -8   6 1542.05   27.60 
   2  -8   6 1564.94   29.90 
  -3   8  -6  300.47    8.50 
  -3   8  -6  292.37    9.20 
  -3   8  -6  290.07   12.00 
   3  -8   6  304.27    8.60 
   3  -8   6  289.07    9.50 
  -4   8  -6  847.12   19.10 
  -4   8  -6  875.01   18.20 
  -4   8  -6  846.92   23.60 
   4  -8   6  834.52   19.60 
   4  -8   6  844.02   18.30 
  -5   8  -6  192.68    9.40 
  -5   8  -6  178.58    7.10 
  -5   8  -6  178.28    6.90 
   5  -8   6  173.28    7.40 
   5  -8   6  188.08    6.90 
  -6   8  -6  452.25   12.70 
  -6   8  -6  433.86   15.90 
  -6   8  -6  433.66   12.80 
   6  -8   6  435.36   12.50 
   6  -8   6  458.95   13.60 
  -7   8  -6  109.79    7.50 
  -7   8  -6  103.29    5.70 
  -7   8  -6  116.09    6.10 
   7  -8   6  112.19    5.80 
   7  -8   6  117.39    6.40 
  -6  -7   6    0.20    1.90 
  -5  -7   6  160.48    8.80 
  -4  -7   6   56.49    4.60 
   3   7  -6  193.78    6.30 
  -3  -7   6  196.88    8.60 
   2   7  -6    2.30    0.70 
  -2  -7   6    0.20    1.10 
   1   7  -6   96.19    4.00 
  -1  -7   6  110.69    5.30 
   0   7  -6   63.99    3.00 
   0  -7   6   60.79    3.50 
  -1   7  -6   10.40    1.20 
  -1   7  -6   10.90    1.20 
  -1   7  -6    9.10    1.30 
   1  -7   6   10.60    1.30 
  -2   7  -6   47.30    2.70 
  -2   7  -6   46.10    4.20 
  -2   7  -6   46.00    2.90 
   2  -7   6   44.10    2.60 
   2  -7   6   44.40    2.90 
  -3   7  -6  208.08    9.40 
  -3   7  -6  207.38    6.80 
  -3   7  -6  214.38    7.30 
   3  -7   6  218.28    7.40 
   3  -7   6  212.08    6.90 
  -4   7  -6   29.00    2.50 
  -4   7  -6   32.20    3.70 
  -4   7  -6   30.20    2.50 
   4  -7   6   32.90    2.40 
   4  -7   6   35.10    2.70 
   4  -7   6   29.40    2.50 
  -5   7  -6  243.58   10.80 
  -5   7  -6  250.87    8.50 
  -5   7  -6  252.37    8.40 
   5  -7   6  261.47    9.00 
   5  -7   6  253.07    9.40 
   5  -7   6  254.27    8.40 
  -6   7  -6   28.60    2.80 
  -6   7  -6   32.30    3.80 
  -6   7  -6   29.90    2.70 
   6  -7   6   31.50    3.00 
   6  -7   6   27.20    2.90 
   6  -7   6   27.70    2.60 
  -7   7  -6  222.88    8.50 
  -7   7  -6  228.78    8.90 
  -7   7  -6  223.28   11.00 
   7  -7   6  216.68    8.50 
   7  -7   6  218.68    9.70 
   7  -7   6  228.98    9.20 
  -6  -6   6  106.29    7.30 
   5   6  -6   83.79    4.40 
  -5  -6   6   81.39    6.00 
   4   6  -6  624.24   14.00 
  -4  -6   6  582.34   18.00 
   3   6  -6   81.59    3.70 
  -3  -6   6   80.79    5.20 
   2   6  -6 1238.28   22.30 
  -2  -6   6 1219.18   27.90 
   1   6  -6    3.20    0.80 
   1   6  -6    2.40    0.60 
  -1  -6   6    2.90    1.40 
   0   6  -6 3961.60   57.49 
   0   6  -6 3792.62   55.29 
   0  -6   6 3791.22   57.69 
   0  -6   6 3655.83   66.29 
  -1   6  -6    0.10    0.60 
  -1   6  -6    0.20    1.30 
  -1   6  -6    0.00    0.60 
   1  -6   6    0.00    1.00 
   1  -6   6    0.00    0.60 
  -2   6  -6 1747.73   32.10 
  -2   6  -6 1897.41   32.40 
  -2   6  -6 1826.12   38.00 
  -2   6  -6 1824.12   30.60 
   2  -6   6 1815.52   32.30 
   2  -6   6 1872.21   31.50 
  -3   6  -6   23.50    2.00 
  -3   6  -6   23.60    3.00 
  -3   6  -6   18.90    1.90 
   3  -6   6   26.20    2.30 
   3  -6   6   24.50    2.00 
  -4   6  -6  865.61   18.30 
  -4   6  -6  842.02   22.60 
  -4   6  -6  840.72   18.70 
   4  -6   6  919.31   18.80 
   4  -6   6  858.21   19.10 
  -5   6  -6   35.50    2.80 
  -5   6  -6   29.90    3.70 
  -5   6  -6   33.00    2.70 
   5  -6   6   32.90    3.00 
   5  -6   6   36.00    2.90 
   5  -6   6   39.40    2.80 
  -6   6  -6  572.04   14.70 
  -6   6  -6  561.14   18.40 
  -6   6  -6  562.54   14.50 
   6  -6   6  556.04   16.90 
   6  -6   6  543.55   14.40 
   6  -6   6  572.44   15.30 
  -7   6  -6   21.10    3.70 
  -7   6  -6   19.70    2.80 
   7  -6   6   27.70    3.00 
   7  -6   6   26.10    3.10 
   7  -6   6   18.20    2.40 
   7   5  -6  245.48    9.30 
  -7  -5   6  255.17   11.80 
   6   5  -6   13.10    2.20 
  -6  -5   6   19.90    3.20 
   5   5  -6  250.77    8.30 
  -5  -5   6  242.58   10.60 
   4   5  -6  114.29    4.90 
  -4  -5   6  111.89    6.40 
   3   5  -6  337.17    8.90 
  -3  -5   6  329.67   11.70 
   2   5  -6    2.00    0.80 
   2   5  -6    0.80    0.40 
  -2  -5   6    0.00    1.20 
   1   5  -6   34.80    2.00 
   1   5  -6   33.90    2.10 
  -1  -5   6   35.30    1.80 
  -1  -5   6   34.20    3.10 
   0   5  -6   39.20    2.50 
   0   5  -6   41.00    2.40 
   0   5  -6   45.30    2.40 
   0  -5   6   43.60    2.30 
   0  -5   6   45.70    3.20 
  -1   5  -6   40.40    2.60 
  -1   5  -6   35.30    2.20 
  -1   5  -6   40.50    2.40 
   1  -5   6   38.00    2.50 
   1  -5   6   41.90    2.40 
  -2   5  -6    1.20    1.00 
  -2   5  -6    0.00    0.60 
  -2   5  -6    0.00    0.60 
   2  -5   6    0.60    0.60 
   2  -5   6    0.30    0.60 
  -3   5  -6  211.18    6.80 
  -3   5  -6  217.38    6.90 
  -3   5  -6  217.58    8.40 
   3  -5   6  215.78    7.00 
   3  -5   6  212.78    7.20 
  -4   5  -6    3.50    1.10 
  -4   5  -6    2.50    1.00 
  -4   5  -6    5.70    1.90 
   4  -5   6    5.50    1.30 
   4  -5   6    2.20    1.00 
  -5   5  -6  148.29    6.00 
  -5   5  -6  145.79    7.80 
  -5   5  -6  139.49    5.60 
   5  -5   6  132.49    5.90 
   5  -5   6  129.49    5.70 
   5  -5   6  133.79    6.60 
  -6   5  -6    1.00    1.80 
  -6   5  -6    4.00    1.30 
  -6   5  -6    0.80    1.10 
   6  -5   6    0.40    1.00 
   6  -5   6    0.00    1.00 
   6  -5   6    0.40    1.30 
  -7   5  -6  221.98   11.30 
  -7   5  -6  238.28    9.00 
   7  -5   6  244.28    9.00 
   7  -5   6  221.78    8.60 
   7  -5   6  238.48   10.30 
   7   4  -6  101.89    5.70 
  -7  -4   6   98.89    6.90 
   6   4  -6  344.57   10.70 
  -6  -4   6  337.27   12.90 
   5   4  -6  199.18    7.30 
  -5  -4   6  195.28    9.00 
   4   4  -6 1140.49   22.20 
  -4  -4   6 1149.98   27.10 
   3   4  -6  499.85   11.60 
   3   4  -6  496.15   11.70 
  -3  -4   6  517.25   15.20 
   2   4  -6  346.57    8.80 
   2   4  -6  349.27    8.80 
  -2  -4   6  357.96   11.70 
   1   4  -6  582.24   12.70 
   1   4  -6  591.44   13.00 
  -1  -4   6  608.84   12.70 
  -1  -4   6  595.54   15.80 
   0   4  -6 1489.25   25.10 
   0   4  -6 1516.95   26.30 
   0   4  -6 1413.56   28.20 
   0  -4   6 1412.36   29.30 
   0  -4   6 1488.05   26.00 
  -1   4  -6  229.08    6.80 
  -1   4  -6  213.88    7.10 
  -1   4  -6  223.68    6.40 
   1  -4   6  224.08    6.70 
  -2   4  -6  762.52   18.40 
  -2   4  -6  752.92   15.60 
  -2   4  -6  756.52   16.30 
   2  -4   6  776.12   16.20 
   2  -4   6  783.42   16.60 
  -3   4  -6  165.68    7.00 
  -3   4  -6  168.78    6.20 
  -3   4  -6  165.18    5.80 
   3  -4   6  172.28    6.00 
   3  -4   6  171.48    6.20 
  -4   4  -6  714.43   19.20 
  -4   4  -6  723.13   16.00 
  -4   4  -6  693.23   15.90 
   4  -4   6  732.93   16.70 
   4  -4   6  721.93   16.30 
  -5   4  -6    7.60    1.50 
  -5   4  -6    7.90    1.40 
  -5   4  -6    8.10    1.80 
   5  -4   6   11.40    1.70 
   5  -4   6    8.40    1.40 
  -6   4  -6  530.35   13.90 
  -6   4  -6  540.95   17.70 
   6  -4   6  520.15   14.40 
   6  -4   6  532.65   14.10 
   6  -4   6  535.45   16.70 
  -7   4  -6   11.40    2.70 
  -7   4  -6    7.40    1.80 
   7  -4   6   13.80    2.00 
   7  -4   6   10.10    1.70 
   7  -4   6   10.80    2.30 
   7   3  -6  155.88    7.00 
  -7  -3   6  156.38    8.30 
   6   3  -6  207.88    7.90 
  -6  -3   6  201.38    9.30 
   5   3  -6   49.60    3.30 
   5   3  -6   50.89    3.20 
  -5  -3   6   52.39    4.20 
   4   3  -6  183.58    7.50 
   4   3  -6  189.08    6.50 
   4   3  -6  192.48    6.50 
  -4  -3   6  193.38    8.30 
   3   3  -6   94.29    4.00 
   3   3  -6   98.29    4.00 
  -3  -3   6   89.59    5.30 
   2   3  -6    2.40    0.80 
   2   3  -6    2.90    0.70 
  -2  -3   6    2.80    0.60 
  -2  -3   6    4.70    1.50 
   1   3  -6   16.60    1.50 
   1   3  -6   16.80    2.80 
  -1  -3   6   22.40    2.50 
   0   3  -6    3.10    0.80 
   0   3  -6    2.70    0.50 
   0   3  -6    5.40    0.90 
   0  -3   6    3.90    0.80 
   0  -3   6    3.70    1.10 
  -1   3  -6   45.40    2.70 
  -1   3  -6   40.40    2.60 
  -1   3  -6   44.40    2.40 
   1  -3   6   50.29    2.70 
  -2   3  -6   53.69    3.20 
  -2   3  -6   58.89    2.90 
  -2   3  -6   49.60    2.90 
   2  -3   6   56.59    3.00 
  -3   3  -6  367.86   11.80 
  -3   3  -6  364.76   11.40 
  -3   3  -6  386.36   10.30 
  -3   3  -6  353.06    9.50 
   3  -3   6  357.86    9.90 
   3  -3   6  379.26   10.20 
  -4   3  -6   49.40    2.80 
  -4   3  -6   46.50    3.20 
  -4   3  -6   48.20    3.70 
  -4   3  -6   46.80    3.00 
   4  -3   6   46.80    3.00 
   4  -3   6   50.19    3.20 
  -5   3  -6  328.97   12.00 
  -5   3  -6  318.17    9.40 
   5  -3   6  307.27    9.90 
   5  -3   6  319.77    9.80 
  -6   3  -6   81.19    4.60 
  -6   3  -6   81.49    5.90 
   6  -3   6   83.69    5.60 
   6  -3   6   86.29    4.70 
   6  -3   6   87.59    4.90 
  -7   3  -6  417.46   16.00 
  -7   3  -6  404.56   12.40 
   7  -3   6  419.26   15.20 
   7  -3   6  393.86   12.20 
   7  -3   6  405.66   12.60 
   8   2  -6    8.00    1.90 
  -8  -2   6    7.40    2.40 
   7   2  -6  157.18    7.00 
  -7  -2   6  151.68    8.00 
   6   2  -6  250.97    8.60 
   6   2  -6  263.67    9.00 
  -6  -2   6  259.77   10.30 
   5   2  -6  133.09    6.50 
   5   2  -6  135.19    5.70 
   5   2  -6  139.09    5.70 
  -5  -2   6  134.19    6.90 
   4   2  -6  315.57   11.00 
   4   2  -6  329.67    9.20 
   4   2  -6  337.17    9.40 
  -4  -2   6  323.47   11.30 
   3   2  -6 1223.48   22.30 
   3   2  -6 1245.98   23.10 
   3   2  -6 1178.28   26.90 
  -3  -2   6 1222.38   27.40 
  -3  -2   6 1217.38   22.80 
   2   2  -6   33.30    2.10 
   2   2  -6   38.50    3.00 
   2   2  -6   38.60    2.30 
  -2  -2   6   34.40    2.10 
  -2  -2   6   34.70    2.80 
   1   2  -6 1757.52   30.30 
   1   2  -6 1765.22   28.90 
   1   2  -6 1716.73   35.60 
  -1  -2   6 1754.72   30.50 
  -1  -2   6 1756.12   34.40 
   0   2  -6  909.81   17.30 
   0   2  -6  900.71   18.20 
   0   2  -6  934.81   22.10 
   0   2  -6  896.41   19.50 
   0  -2   6  926.51   18.40 
  -1   2  -6  748.33   19.00 
  -1   2  -6  730.03   14.70 
  -1   2  -6  725.43   17.10 
  -1   2  -6  721.63   15.70 
   1  -2   6  754.32   16.00 
  -2   2  -6 1018.10   19.70 
  -2   2  -6 1028.10   23.20 
  -2   2  -6 1073.99   20.90 
  -2   2  -6 1040.50   25.20 
   2  -2   6 1094.79   21.20 
  -3   2  -6  710.63   18.20 
  -3   2  -6  720.83   15.20 
  -3   2  -6  737.43   19.30 
  -3   2  -6  744.33   16.20 
   3  -2   6  699.93   16.30 
  -4   2  -6  705.23   19.10 
  -4   2  -6  723.03   15.50 
  -4   2  -6  723.93   16.60 
  -4   2  -6  724.03   15.80 
   4  -2   6  694.13   16.60 
   4  -2   6  734.13   16.40 
  -5   2  -6   96.59    4.70 
  -5   2  -6   98.99    6.00 
  -5   2  -6  103.89    5.10 
   5  -2   6   96.99    4.80 
   5  -2   6  103.19    5.10 
  -6   2  -6  299.17    9.70 
  -6   2  -6  297.47   12.20 
  -6   2  -6  302.77   10.10 
   6  -2   6  289.57    9.90 
   6  -2   6  293.87    9.70 
   6  -2   6  312.37   12.10 
  -7   2  -6   26.40    2.90 
  -7   2  -6   27.10    2.90 
  -7   2  -6   32.70    4.10 
   7  -2   6   28.50    2.80 
   7  -2   6   27.40    3.60 
   7  -2   6   27.10    2.80 
   8   1  -6  219.98    8.90 
  -8  -1   6  220.78   10.00 
   7   1  -6   10.30    2.00 
   7   1  -6   10.00    1.80 
  -7  -1   6    9.20    2.20 
   6   1  -6  269.87    9.20 
   6   1  -6  270.07    9.10 
  -6  -1   6  267.27   10.40 
  -6  -1   6  281.57    9.40 
   5   1  -6    6.10    1.70 
   5   1  -6    7.20    1.40 
   5   1  -6   11.70    1.60 
  -5  -1   6    5.80    1.70 
  -5  -1   6    4.20    1.90 
   4   1  -6   97.09    5.30 
   4   1  -6   98.09    4.40 
   4   1  -6  100.29    4.40 
  -4  -1   6   95.99    4.30 
  -4  -1   6   89.29    4.70 
  -4  -1   6   87.59    5.30 
   3   1  -6   27.50    3.80 
  -3  -1   6   35.10    3.10 
  -3  -1   6   45.30    4.30 
   2   1  -6   25.70    1.90 
   2   1  -6   23.20    2.60 
   2   1  -6   23.30    1.70 
  -2  -1   6   22.20    1.80 
  -2  -1   6   23.10    2.20 
   1   1  -6   19.70    1.40 
   1   1  -6   20.40    1.70 
   1   1  -6   22.70    1.60 
   1   1  -6   23.40    2.70 
  -1  -1   6   21.50    1.80 
   0   1  -6    4.50    0.80 
   0   1  -6    2.60    1.30 
   0   1  -6    4.30    0.90 
   0   1  -6    4.30    0.80 
   0  -1   6    5.10    1.00 
  -1   1  -6  102.29    4.50 
  -1   1  -6   98.69    4.20 
  -1   1  -6   93.59    5.60 
  -1   1  -6  100.29    3.80 
   1  -1   6  108.29    4.40 
  -2   1  -6  319.07   10.00 
  -2   1  -6  310.57    8.80 
  -2   1  -6  309.07    8.20 
  -2   1  -6  323.87   11.30 
   2  -1   6  300.27    9.10 
  -3   1  -6  411.76   12.70 
  -3   1  -6  419.16   10.40 
  -3   1  -6  428.86   11.10 
   3  -1   6  428.76   11.50 
  -4   1  -6  298.27   10.90 
  -4   1  -6  306.07    8.70 
  -4   1  -6  302.27    9.30 
   4  -1   6  300.37    9.50 
  -5   1  -6  249.78    8.70 
  -5   1  -6  252.77    8.20 
  -5   1  -6  261.47   10.50 
   5  -1   6  255.37    8.80 
  -6   1  -6  246.28   10.90 
  -6   1  -6  244.18    8.70 
   6  -1   6  246.08    8.90 
   6  -1   6  246.38   10.80 
   6  -1   6  229.28    8.40 
   8   0  -6   16.10    2.50 
   8   0  -6   15.00    2.40 
  -8   0   6   14.90    2.70 
   7   0  -6  176.18    7.40 
   7   0  -6  165.38    7.10 
  -7   0   6  171.78    8.10 
  -7   0   6  174.98    7.50 
   6   0  -6   58.29    3.80 
   6   0  -6   59.29    3.90 
  -6   0   6   62.69    4.00 
  -6   0   6   54.29    4.30 
   5   0  -6  168.48    6.70 
   5   0  -6  164.58    7.40 
   5   0  -6  173.18    6.50 
  -5   0   6  159.48    7.60 
  -5   0   6  160.88    6.50 
  -5   0   6  169.08    6.90 
   4   0  -6  146.09    5.30 
   4   0  -6  122.49    6.50 
   4   0  -6  135.59    5.50 
  -4   0   6  125.99    5.80 
  -4   0   6  129.69    6.50 
  -4   0   6  127.79    5.50 
   3   0  -6 2237.68   45.80 
   3   0  -6 2309.07   38.60 
   3   0  -6 2269.37   36.50 
  -3   0   6 2332.27   39.30 
  -3   0   6 2291.57   44.10 
  -3   0   6 2322.87   40.00 
   2   0  -6   74.19    3.50 
   2   0  -6   74.59    3.20 
   2   0  -6   64.29    4.70 
  -2   0   6   71.89    4.10 
  -2   0   6   72.39    3.60 
   1   0  -6 2657.23   47.70 
   1   0  -6 2695.13   52.19 
   1   0  -6 2637.14   40.70 
   1   0  -6 2712.13   42.80 
  -1   0   6 2647.24   44.00 
   0   0  -6  742.53   20.50 
   0   0  -6  732.13   17.50 
   0   0  -6  739.33   14.70 
   0   0  -6  765.42   16.00 
   0   0   6  756.42   16.50 
  -1   0  -6 1071.29   20.70 
  -1   0  -6 1017.60   25.80 
  -1   0  -6 1050.69   19.10 
  -1   0  -6 1041.30   23.10 
   1   0   6 1036.80   21.40 
  -2   0  -6  579.64   16.10 
  -2   0  -6  542.35   15.10 
  -2   0  -6  546.15   13.10 
  -2   0  -6  549.15   12.10 
   2   0   6  542.95   13.80 
  -3   0  -6  703.13   15.60 
  -3   0  -6  667.23   17.90 
  -3   0  -6  676.73   14.50 
   3   0   6  642.54   16.00 
  -4   0  -6  149.88    5.70 
  -4   0  -6  154.38    6.10 
  -4   0  -6  151.18    7.40 
   4   0   6  164.18    6.50 
  -5   0  -6  109.19    6.50 
  -5   0  -6  109.59    5.40 
   5   0   6  120.09    5.60 
  -6   0  -6   86.09    6.20 
   6   0   6   85.19    6.00 
   6   0   6   87.19    5.00 
   8  -1  -6  114.19    6.10 
   8  -1  -6  123.19    6.30 
  -8   1   6  122.79    6.90 
   7  -1  -6   12.30    2.10 
   7  -1  -6   13.50    2.10 
  -7   1   6    9.10    2.20 
  -7   1   6    9.60    2.40 
   6  -1  -6  227.68    8.60 
   6  -1  -6  241.48    8.40 
  -6   1   6  245.48    9.80 
  -6   1   6  230.78    8.90 
   5  -1  -6    9.90    1.60 
   5  -1  -6    8.50    1.80 
   5  -1  -6    8.30    1.50 
  -5   1   6    9.10    1.70 
  -5   1   6    8.60    2.20 
  -5   1   6    7.70    1.60 
   4  -1  -6   79.49    3.80 
   4  -1  -6   81.99    5.20 
   4  -1  -6   81.59    4.20 
  -4   1   6   76.99    4.40 
  -4   1   6   73.89    4.50 
  -4   1   6   77.59    4.80 
   3  -1  -6    0.10    0.60 
   3  -1  -6    3.30    1.60 
   3  -1  -6    2.40    1.00 
  -3   1   6    1.20    1.00 
  -3   1   6    1.40    1.20 
  -3   1   6    1.00    1.10 
   2  -1  -6   25.30    3.10 
   2  -1  -6   21.30    1.60 
   2  -1  -6   24.30    2.00 
   2  -1  -6   23.90    1.90 
  -2   1   6   22.90    2.20 
  -2   1   6   21.60    2.10 
   1  -1  -6   94.39    4.00 
   1  -1  -6   84.49    5.50 
   1  -1  -6   92.69    3.50 
   1  -1  -6   91.89    4.20 
  -1   1   6   84.09    4.30 
   0  -1  -6   91.69    4.00 
   0  -1  -6   88.49    4.40 
   0  -1  -6   90.99    5.80 
   0  -1  -6   92.29    3.50 
   0   1   6   93.89    4.40 
  -1  -1  -6    0.00    0.50 
  -1  -1  -6    0.00    0.70 
  -1  -1  -6    1.00    1.30 
  -1  -1  -6    0.10    1.00 
   1   1   6    0.60    0.80 
  -2  -1  -6  367.26    9.90 
  -2  -1  -6  357.36   11.90 
  -2  -1  -6  353.16   11.60 
   2   1   6  357.96   10.60 
  -3  -1  -6   35.20    2.50 
  -3  -1  -6   31.20    3.10 
   3   1   6   29.90    2.60 
  -4  -1  -6  188.88    8.40 
   4   1   6  174.28    7.30 
  -5  -1  -6   37.00    3.90 
   5   1   6   41.20    3.20 
   8  -2  -6   50.79    4.10 
   8  -2  -6   50.49    4.00 
  -8   2   6   44.90    4.10 
  -8   2   6   64.39    4.70 
   7  -2  -6  334.37   11.30 
   7  -2  -6  357.36   11.20 
  -7   2   6  350.36   11.70 
  -7   2   6  350.26   12.40 
   6  -2  -6    5.60    1.70 
   6  -2  -6    3.20    1.20 
   6  -2  -6    2.60    1.40 
  -6   2   6    1.50    1.70 
  -6   2   6    5.20    1.70 
  -6   2   6    2.60    1.40 
   5  -2  -6  509.85   13.00 
   5  -2  -6  497.55   13.90 
   5  -2  -6  530.55   15.90 
  -5   2   6  506.05   14.30 
  -5   2   6  531.15   15.70 
  -5   2   6  501.15   14.40 
   4  -2  -6    0.00    1.00 
   4  -2  -6    0.00    0.80 
   4  -2  -6    0.60    1.30 
  -4   2   6    0.00    1.10 
  -4   2   6    0.00    1.40 
  -4   2   6    1.10    1.10 
   3  -2  -6 2029.30   42.40 
   3  -2  -6 1969.60   32.60 
   3  -2  -6 2029.80   35.20 
  -3   2   6 2046.50   37.00 
  -3   2   6 2054.59   39.90 
  -3   2   6 2013.90   37.50 
   2  -2  -6    4.40    0.80 
   2  -2  -6    4.00    1.60 
   2  -2  -6    6.30    1.20 
   2  -2  -6    6.20    1.20 
  -2   2   6    5.80    1.40 
  -2   2   6    4.70    1.40 
   1  -2  -6 1142.19   22.40 
   1  -2  -6 1109.29   28.10 
   1  -2  -6 1169.48   25.40 
   1  -2  -6 1157.98   20.40 
  -1   2   6 1172.18   23.70 
   0  -2  -6    1.70    0.70 
   0  -2  -6    0.00    0.90 
   0  -2  -6    0.00    1.60 
   0   2   6    1.60    1.00 
  -1  -2  -6  322.37    9.00 
  -1  -2  -6  321.47   11.40 
  -1  -2  -6  307.07   10.60 
   1   2   6  300.27    9.60 
  -2  -2  -6    9.80    1.70 
  -2  -2  -6   11.20    1.60 
  -2  -2  -6   12.30    2.00 
   2   2   6   11.80    1.80 
  -3  -2  -6  321.17   11.70 
   3   2   6  327.17   10.30 
  -4  -2  -6    1.20    1.20 
   4   2   6    2.90    1.20 
  -5  -2  -6  116.39    7.00 
   5   2   6  102.89    5.60 
   8  -3  -6  122.39    6.20 
   8  -3  -6  114.69    6.30 
  -8   3   6  119.69    6.60 
   7  -3  -6    9.80    1.90 
   7  -3  -6   12.60    2.00 
  -7   3   6    7.30    2.00 
  -7   3   6    6.80    1.90 
  -7   3   6   11.50    2.20 
   6  -3  -6  163.08    6.70 
   6  -3  -6  162.18    7.80 
   6  -3  -6  147.49    7.00 
  -6   3   6  166.28    7.50 
  -6   3   6  168.98    8.20 
  -6   3   6  159.38    7.40 
   5  -3  -6   22.60    2.30 
   5  -3  -6   26.90    3.00 
   5  -3  -6   32.60    2.90 
  -5   3   6   30.90    3.10 
  -5   3   6   21.90    2.90 
  -5   3   6   29.10    3.20 
   4  -3  -6   33.90    2.50 
   4  -3  -6   38.30    3.80 
   4  -3  -6   32.30    2.80 
  -4   3   6   36.90    3.40 
  -4   3   6   37.70    3.20 
  -4   3   6   34.40    3.30 
   3  -3  -6   71.89    3.90 
   3  -3  -6   70.89    5.20 
   3  -3  -6   67.59    3.20 
  -3   3   6   66.09    4.40 
  -3   3   6   71.89    4.40 
  -3   3   6   65.39    4.40 
   2  -3  -6    0.70    0.80 
   2  -3  -6    0.70    1.50 
   2  -3  -6    0.10    1.00 
  -2   3   6    0.40    0.90 
  -2   3   6    0.00    1.00 
   1  -3  -6   72.99    4.30 
   1  -3  -6   77.59    3.80 
   1  -3  -6   74.09    5.30 
  -1   3   6   74.09    4.00 
  -1   3   6   71.49    4.30 
   0  -3  -6  133.09    5.30 
   0  -3  -6  131.39    6.20 
   0  -3  -6  138.49    7.30 
   0   3   6  135.59    6.00 
  -1  -3  -6    8.50    1.20 
  -1  -3  -6   10.30    1.90 
  -1  -3  -6    6.80    1.50 
   1   3   6    7.30    1.40 
  -2  -3  -6  173.58    7.90 
   2   3   6  176.38    7.10 
  -3  -3  -6    2.00    1.50 
   3   3   6    0.00    1.20 
  -4  -3  -6  161.68    8.50 
   4   3   6  163.28    7.10 
   7  -4  -6  259.37   10.20 
   7  -4  -6  285.47    9.70 
  -7   4   6  283.57   10.70 
  -7   4   6  283.57   10.80 
   6  -4  -6   94.09    4.90 
   6  -4  -6  100.89    5.60 
   6  -4  -6   89.89    6.10 
  -6   4   6   93.49    5.60 
  -6   4   6   85.09    5.80 
   5  -4  -6  329.57   12.50 
   5  -4  -6  310.37   10.70 
  -5   4   6  333.47   11.80 
  -5   4   6  309.67   11.10 
  -5   4   6  310.97   11.40 
   4  -4  -6  126.59    7.10 
   4  -4  -6  117.19    5.70 
  -4   4   6  118.39    6.20 
  -4   4   6  110.19    6.20 
  -4   4   6  108.39    6.20 
   3  -4  -6  581.64   14.60 
   3  -4  -6  554.34   17.90 
  -3   4   6  565.54   15.70 
  -3   4   6  575.04   15.60 
   2  -4  -6  100.79    6.40 
   2  -4  -6  101.09    4.70 
   2  -4  -6   91.59    5.20 
  -2   4   6   87.29    5.10 
  -2   4   6  104.49    5.20 
   1  -4  -6  326.57   12.90 
   1  -4  -6  336.57   11.30 
   1  -4  -6  327.37    9.60 
  -1   4   6  333.87   10.60 
  -1   4   6  330.57   10.10 
   0  -4  -6   85.99    5.70 
   0  -4  -6   82.59    4.00 
   0  -4  -6   79.49    5.00 
   0   4   6   72.69    4.60 
  -1  -4  -6  329.87   11.50 
  -1  -4  -6  307.17   11.80 
   1   4   6  326.17   10.50 
  -2  -4  -6    2.90    1.50 
   2   4   6    2.50    1.20 
  -3  -4  -6  322.97   12.60 
   3   4   6  330.97   11.00 
   7  -5  -6   15.00    2.40 
  -7   5   6   13.90    2.70 
   6  -5  -6   22.30    3.10 
   6  -5  -6   19.40    2.60 
  -6   5   6   21.10    3.00 
  -6   5   6   22.40    3.10 
   5  -5  -6   27.90    2.90 
   5  -5  -6   30.20    3.60 
  -5   5   6   23.80    3.00 
  -5   5   6   27.50    3.40 
   4  -5  -6   15.70    2.80 
   4  -5  -6   19.80    2.40 
  -4   5   6   21.60    2.90 
  -4   5   6   23.50    2.60 
  -4   5   6   14.60    2.60 
   3  -5  -6   64.49    5.30 
   3  -5  -6   59.49    3.90 
  -3   5   6   58.39    4.50 
  -3   5   6   53.69    4.40 
   2  -5  -6    2.80    1.80 
   2  -5  -6    5.00    1.40 
   2  -5  -6    4.20    1.50 
  -2   5   6    3.00    1.30 
  -2   5   6    5.70    1.60 
   1  -5  -6   32.00    3.70 
   1  -5  -6   35.80    3.30 
  -1   5   6   32.70    3.20 
   0  -5  -6  153.18    8.00 
   0  -5  -6  138.89    7.20 
   0   5   6  136.19    6.60 
  -1  -5  -6   13.50    2.40 
  -1  -5  -6   10.40    2.10 
   1   5   6   11.70    2.10 
  -2  -5  -6  153.38    8.10 
   2   5   6  155.98    7.10 
   6  -6  -6  142.69    8.20 
   6  -6  -6  134.99    7.00 
  -6   6   6  134.89    7.70 
  -6   6   6  135.49    7.40 
   5  -6  -6  132.19    6.80 
   5  -6  -6  139.39    8.20 
  -5   6   6  137.39    7.80 
  -5   6   6  139.59    7.50 
   4  -6  -6  119.49    6.10 
   4  -6  -6  111.19    7.40 
  -4   6   6  107.19    6.70 
  -4   6   6  109.99    6.60 
   3  -6  -6  256.97    9.30 
   3  -6  -6  256.47   12.10 
  -3   6   6  266.97   10.30 
  -3   6   6  270.27   10.50 
   2  -6  -6  128.59    8.00 
  -2   6   6  132.89    6.90 
   1  -6  -6  382.66   14.70 
   1  -6  -6  369.76   13.20 
  -1   6   6  381.76   12.30 
   0  -6  -6  142.69    7.50 
   0  -6  -6  136.19    7.80 
   0   6   6  123.09    6.60 
  -1  -6  -6  336.87   13.20 
   1   6   6  344.37   11.60 
   4  -7  -6   23.40    2.80 
   4  -7  -6   21.90    3.80 
  -4   7   6   26.80    3.50 
  -4   7   6   23.30    3.30 
   3  -7  -6   19.50    3.30 
  -3   7   6   23.10    3.40 
   2  -7  -6    6.50    2.40 
  -2   7   6    7.50    2.00 
   1  -7  -6   37.90    4.30 
   1  -7  -6   36.70    3.90 
  -1   7   6   36.50    3.70 
   2 -13   7  262.87   11.50 
   1 -12   7    9.70    2.20 
  -2  12  -7    0.00    1.40 
   2 -12   7    0.80    1.70 
  -3  12  -7    5.40    1.90 
   3 -12   7    4.50    1.80 
  -4  12  -7   31.70    4.50 
  -4  12  -7   36.00    3.40 
   4 -12   7   29.80    3.70 
  -5  12  -7   46.70    5.30 
  -5  12  -7   44.80    3.90 
  -1  11  -7  148.59    6.40 
  -2  11  -7  323.97   10.40 
   2 -11   7  300.47   11.80 
  -3  11  -7  160.68    9.40 
  -3  11  -7  165.08    7.10 
   3 -11   7  155.78    8.00 
  -4  11  -7  213.68   10.90 
  -4  11  -7  202.58    8.30 
  -5  11  -7   92.09    7.00 
  -5  11  -7   96.29    5.50 
  -5  11  -7   89.29    4.80 
   5 -11   7   86.99    4.80 
  -6  11  -7  115.99    8.00 
  -6  11  -7  116.39    5.90 
   6 -11   7  110.69    5.70 
   0  10  -7    7.30    1.40 
  -1  10  -7    1.40    1.20 
  -2  10  -7    0.00    1.20 
  -3  10  -7   11.10    1.80 
  -3  10  -7   11.30    2.60 
  -3  10  -7   11.80    1.60 
  -4  10  -7   37.70    3.20 
  -4  10  -7   40.00    4.50 
  -4  10  -7   35.50    2.80 
   4 -10   7   34.80    2.70 
   4 -10   7   31.60    3.40 
  -5  10  -7   48.80    5.20 
  -5  10  -7   44.90    3.60 
  -5  10  -7   46.10    3.40 
   5 -10   7   48.60    4.20 
   5 -10   7   48.20    3.30 
  -6  10  -7   45.00    5.00 
  -6  10  -7   44.50    3.60 
  -6  10  -7   49.00    3.80 
   6 -10   7   51.59    3.70 
   6 -10   7   47.50    4.20 
  -4  -9   7   59.89    5.10 
  -3  -9   7  406.96   14.00 
   0   9  -7  132.79    5.70 
   0   9  -7  139.59    5.00 
  -1   9  -7  364.56   10.60 
  -1   9  -7  357.66    9.50 
  -2   9  -7  213.08    7.60 
  -2   9  -7  200.28    6.70 
   2  -9   7  201.68    7.90 
  -3   9  -7  866.71   19.80 
  -3   9  -7  880.91   18.20 
  -3   9  -7  857.11   24.10 
   3  -9   7  872.61   18.50 
   3  -9   7  871.01   20.30 
  -4   9  -7  138.39    8.10 
  -4   9  -7  139.99    5.80 
  -4   9  -7  134.39    6.10 
   4  -9   7  137.99    6.50 
   4  -9   7  138.39    5.70 
  -5   9  -7  376.16   14.60 
  -5   9  -7  375.16   11.50 
  -5   9  -7  380.96   11.10 
   5  -9   7  377.76   11.10 
   5  -9   7  372.36   12.10 
  -6   9  -7  104.59    5.80 
  -6   9  -7  114.39    5.70 
  -6   9  -7  109.89    7.40 
   6  -9   7  109.79    6.20 
   6  -9   7  105.79    5.40 
  -7   9  -7  157.08    7.40 
  -7   9  -7  163.08    9.30 
  -7   9  -7  157.68    7.40 
   7  -9   7  149.69    7.00 
  -5  -8   7    7.70    2.40 
  -4  -8   7  163.38    8.60 
  -3  -8   7   67.79    5.00 
   2   8  -7   61.19    3.20 
  -2  -8   7   59.79    4.30 
   1   8  -7   82.99    3.70 
  -1  -8   7   77.69    4.70 
   0   8  -7   10.00    1.50 
   0   8  -7    9.80    1.30 
  -1   8  -7   20.60    1.80 
  -1   8  -7   17.40    1.90 
  -1   8  -7   14.40    1.70 
  -2   8  -7   37.60    2.50 
  -2   8  -7   34.70    2.60 
  -2   8  -7   33.20    3.50 
  -2   8  -7   35.20    2.70 
   2  -8   7   32.50    2.30 
   2  -8   7   34.60    2.70 
  -3   8  -7    7.70    1.40 
  -3   8  -7    9.80    2.40 
  -3   8  -7    9.40    1.60 
   3  -8   7    8.60    1.60 
   3  -8   7    8.30    1.30 
  -4   8  -7  154.28    6.10 
  -4   8  -7  141.59    7.90 
  -4   8  -7  155.08    6.40 
   4  -8   7  156.88    6.60 
   4  -8   7  151.48    6.00 
  -5   8  -7    4.70    1.50 
  -5   8  -7    3.50    1.10 
  -5   8  -7    3.00    1.90 
   5  -8   7    2.60    1.40 
   5  -8   7    3.70    1.10 
  -6   8  -7  234.78    8.60 
  -6   8  -7  225.38    8.50 
  -6   8  -7  218.18   10.70 
   6  -8   7  222.48    8.40 
   6  -8   7  225.08    9.00 
  -7   8  -7   14.20    2.40 
  -7   8  -7   19.20    2.70 
  -7   8  -7   19.30    3.50 
   7  -8   7   19.00    2.50 
  -6  -7   7   20.70    3.70 
  -5  -7   7  189.38    9.80 
   4   7  -7    2.90    1.00 
  -4  -7   7    0.10    1.60 
   3   7  -7 1191.68   22.30 
  -3  -7   7 1181.38   28.80 
   2   7  -7   36.90    2.40 
  -2  -7   7   34.80    3.40 
   1   7  -7 1754.72   29.20 
  -1  -7   7 1655.73   35.40 
   0   7  -7    8.00    1.10 
   0   7  -7    9.60    1.30 
   0  -7   7    8.30    1.70 
  -1   7  -7 1218.58   22.90 
  -1   7  -7 1181.98   22.10 
   1  -7   7 1170.68   23.00 
  -2   7  -7   10.30    1.50 
  -2   7  -7    8.60    1.30 
  -2   7  -7    7.40    1.70 
  -2   7  -7    9.20    1.40 
   2  -7   7   12.00    1.60 
   2  -7   7    9.40    1.20 
  -3   7  -7 1672.53   29.20 
  -3   7  -7 1629.44   30.60 
  -3   7  -7 1598.14   35.10 
   3  -7   7 1636.34   29.70 
   3  -7   7 1617.24   30.40 
  -4   7  -7   39.70    4.00 
  -4   7  -7   41.30    3.00 
  -4   7  -7   42.50    3.00 
   4  -7   7   43.20    3.10 
   4  -7   7   41.00    2.90 
  -5   7  -7  293.17    9.40 
  -5   7  -7  274.67   11.60 
  -5   7  -7  297.27    9.40 
   5  -7   7  292.97    9.30 
   5  -7   7  286.97   10.50 
   5  -7   7  286.77    9.70 
  -6   7  -7   63.09    4.10 
  -6   7  -7   60.29    4.30 
  -6   7  -7   65.09    5.90 
   6  -7   7   61.09    4.10 
   6  -7   7   53.09    4.40 
   6  -7   7   65.19    4.50 
  -7   7  -7  100.99    5.40 
  -7   7  -7   95.19    7.40 
  -7   7  -7   92.29    5.60 
   7  -7   7  107.69    5.90 
   7  -7   7  100.29    6.20 
   7  -7   7   92.09    5.30 
   6   6  -7  187.58    7.70 
  -6  -6   7  191.08    9.80 
   5   6  -7    0.50    1.00 
  -5  -6   7    0.50    1.70 
   4   6  -7  199.48    7.10 
  -4  -6   7  206.68    9.40 
   3   6  -7    3.10    1.00 
  -3  -6   7    2.00    1.30 
   2   6  -7   69.59    3.40 
  -2  -6   7   67.99    4.70 
   1   6  -7  218.88    6.50 
   1   6  -7  225.98    6.70 
  -1  -6   7  226.98    9.10 
   0   6  -7    7.90    1.10 
   0   6  -7    6.80    1.00 
   0  -6   7    7.40    1.00 
   0  -6   7    7.90    1.70 
  -1   6  -7    1.80    0.80 
  -1   6  -7    2.30    0.80 
   1  -6   7    1.90    0.90 
   1  -6   7    1.30    1.00 
  -2   6  -7   89.79    4.80 
  -2   6  -7   93.49    4.10 
  -2   6  -7   93.49    4.30 
   2  -6   7   93.39    4.10 
   2  -6   7   97.39    4.30 
  -3   6  -7   48.00    3.70 
  -3   6  -7   53.89    3.20 
  -3   6  -7   49.30    3.00 
  -3   6  -7   50.89    3.20 
   3  -6   7   53.69    3.30 
   3  -6   7   54.09    3.10 
  -4   6  -7  208.28    7.20 
  -4   6  -7  205.68    8.90 
  -4   6  -7  193.28    7.10 
   4  -6   7  209.68    7.50 
   4  -6   7  205.48    7.20 
  -5   6  -7    1.00    1.00 
  -5   6  -7    0.00    1.10 
  -5   6  -7    1.30    1.50 
   5  -6   7    3.00    1.10 
   5  -6   7    1.50    1.20 
   5  -6   7    1.50    1.20 
  -6   6  -7  339.97   10.70 
  -6   6  -7  359.36   13.80 
  -6   6  -7  342.17   10.70 
   6  -6   7  339.77   12.40 
   6  -6   7  341.27   11.10 
   6  -6   7  329.77   10.70 
  -7   6  -7   19.80    2.70 
  -7   6  -7   14.80    3.30 
   7  -6   7   22.10    2.60 
   7  -6   7   19.40    2.50 
   7  -6   7   20.30    2.80 
   7   5  -7   98.99    5.80 
  -7  -5   7  103.09    7.00 
   6   5  -7  136.59    6.50 
  -6  -5   7  142.19    8.00 
   5   5  -7  314.17    9.80 
  -5  -5   7  321.27   12.30 
   4   5  -7  212.08    7.20 
  -4  -5   7  218.08    9.40 
   3   5  -7 1792.52   30.70 
  -3  -5   7 1833.42   38.40 
   2   5  -7  222.98    6.60 
   2   5  -7  214.98    6.80 
  -2  -5   7  228.78    9.10 
   1   5  -7 2007.10   32.70 
   1   5  -7 1979.90   33.70 
  -1  -5   7 2019.60   33.60 
  -1  -5   7 1987.40   39.90 
   0   5  -7  207.78    6.40 
   0   5  -7  217.28    6.70 
   0  -5   7  202.98    7.70 
   0  -5   7  209.68    6.30 
  -1   5  -7  721.93   15.60 
  -1   5  -7  667.03   16.50 
  -1   5  -7  723.33   14.80 
   1  -5   7  731.43   15.60 
   1  -5   7  692.33   16.80 
  -2   5  -7   25.40    2.10 
  -2   5  -7   24.40    2.40 
  -2   5  -7   24.20    2.10 
   2  -5   7   27.00    2.10 
  -3   5  -7 1288.07   25.60 
  -3   5  -7 1317.47   29.00 
  -3   5  -7 1323.67   24.20 
   3  -5   7 1339.67   25.20 
   3  -5   7 1296.07   25.40 
  -4   5  -7    3.70    1.80 
  -4   5  -7   13.60    1.80 
  -4   5  -7    9.30    1.60 
  -4   5  -7    7.80    1.50 
   4  -5   7   10.50    2.00 
   4  -5   7    9.20    1.70 
  -5   5  -7  226.08    7.80 
  -5   5  -7  217.38    9.70 
  -5   5  -7  216.08    7.60 
   5  -5   7  213.28    7.80 
   5  -5   7  212.08    8.00 
  -6   5  -7    2.50    1.20 
  -6   5  -7    1.60    1.50 
   6  -5   7    4.00    1.40 
   6  -5   7    4.30    1.40 
   6  -5   7    4.30    1.50 
  -7   5  -7  100.69    5.70 
  -7   5  -7  107.29    7.50 
   7  -5   7   94.09    5.50 
   7  -5   7   98.59    5.40 
   7  -5   7   98.99    6.60 
   7   4  -7  123.19    6.40 
  -7  -4   7  128.99    7.60 
   6   4  -7  151.68    6.70 
  -6  -4   7  149.09    8.00 
   5   4  -7   66.39    4.00 
  -5  -4   7   61.29    4.80 
   4   4  -7   99.89    4.40 
   4   4  -7  104.09    4.60 
  -4  -4   7   96.29    5.90 
   3   4  -7  102.19    4.20 
   3   4  -7   93.49    4.20 
  -3  -4   7  105.39    5.80 
   2   4  -7   33.50    2.20 
   2   4  -7   34.40    2.20 
  -2  -4   7   33.80    3.20 
   1   4  -7   46.80    2.50 
   1   4  -7   43.30    2.50 
  -1  -4   7   40.00    3.10 
  -1  -4   7   45.10    2.40 
   0   4  -7    6.00    2.00 
   0   4  -7   15.70    1.50 
   0  -4   7   17.90    2.50 
   0  -4   7    9.60    2.20 
  -1   4  -7    7.40    1.10 
  -1   4  -7    5.30    1.00 
  -1   4  -7    4.50    0.80 
   1  -4   7    5.50    1.00 
  -2   4  -7  101.59    4.50 
  -2   4  -7  108.69    4.90 
  -2   4  -7  105.19    4.30 
   2  -4   7  106.39    4.60 
  -3   4  -7   10.60    1.80 
  -3   4  -7    8.20    1.30 
  -3   4  -7    8.00    1.30 
   3  -4   7    9.20    1.40 
   3  -4   7   11.70    1.50 
  -4   4  -7  286.57   10.40 
  -4   4  -7  291.57    8.60 
  -4   4  -7  282.77    9.20 
  -4   4  -7  279.27    8.80 
   4  -4   7  294.37    9.20 
   4  -4   7  283.37    9.00 
  -5   4  -7    1.50    1.00 
  -5   4  -7    2.80    1.20 
  -5   4  -7    0.00    1.40 
  -5   4  -7    3.40    1.20 
   5  -4   7    3.10    1.40 
   5  -4   7    1.30    1.10 
  -6   4  -7  386.66   11.70 
  -6   4  -7  406.96   12.30 
  -6   4  -7  433.96   15.20 
   6  -4   7  401.76   12.30 
   6  -4   7  389.96   11.90 
   6  -4   7  412.66   14.30 
  -7   4  -7    7.20    2.80 
  -7   4  -7    4.90    1.60 
  -7   4  -7    3.70    1.30 
   7  -4   7    3.70    1.40 
   7  -4   7    3.20    1.30 
   7  -4   7    6.40    1.80 
   7   3  -7   84.99    5.20 
  -7  -3   7   76.39    5.70 
   6   3  -7  290.77    9.80 
  -6  -3   7  292.37   11.50 
   5   3  -7   43.50    3.10 
   5   3  -7   44.10    3.90 
   5   3  -7   50.09    3.40 
  -5  -3   7   47.50    4.00 
   4   3  -7  481.95   14.40 
   4   3  -7  476.55   12.20 
   4   3  -7  490.75   12.10 
  -4  -3   7  475.55   14.90 
   3   3  -7  849.22   17.30 
   3   3  -7  830.82   21.30 
   3   3  -7  876.31   17.90 
  -3  -3   7  840.32   21.70 
   2   3  -7  114.39    4.40 
   2   3  -7  108.09    4.30 
   2   3  -7  111.59    5.70 
  -2  -3   7  102.09    5.40 
  -2  -3   7  112.89    4.20 
   1   3  -7 1268.77   23.40 
   1   3  -7 1255.47   22.50 
  -1  -3   7 1203.98   26.60 
  -1  -3   7 1242.48   23.40 
   0   3  -7  704.13   15.20 
   0   3  -7  687.73   18.20 
   0   3  -7  706.83   14.50 
   0  -3   7  699.73   15.20 
   0  -3   7  657.33   16.80 
  -1   3  -7  584.04   12.50 
  -1   3  -7  557.94   14.20 
  -1   3  -7  571.14   16.20 
  -1   3  -7  553.84   13.30 
   1  -3   7  582.84   13.50 
  -2   3  -7  357.76    9.50 
  -2   3  -7  370.96   10.10 
  -2   3  -7  389.56   12.80 
  -2   3  -7  368.86   11.00 
   2  -3   7  383.16   10.40 
  -3   3  -7  955.20   19.40 
  -3   3  -7  945.71   24.30 
  -3   3  -7  951.10   22.80 
  -3   3  -7 1002.80   20.40 
   3  -3   7 1015.00   20.70 
  -4   3  -7  128.29    5.40 
  -4   3  -7  133.09    6.60 
  -4   3  -7  135.59    5.30 
  -4   3  -7  138.09    5.80 
   4  -3   7  142.49    5.80 
   4  -3   7  132.19    5.80 
  -5   3  -7  255.97   10.50 
  -5   3  -7  252.47    8.50 
  -5   3  -7  261.47    8.90 
   5  -3   7  245.18    8.90 
   5  -3   7  255.77    8.70 
  -6   3  -7   29.10    3.70 
  -6   3  -7   25.20    2.70 
  -6   3  -7   25.70    2.80 
   6  -3   7   35.80    3.10 
   6  -3   7   31.40    2.90 
   6  -3   7   35.40    3.60 
   7   2  -7  139.59    6.70 
  -7  -2   7  137.19    7.50 
   6   2  -7   36.20    3.20 
   6   2  -7   39.90    3.10 
  -6  -2   7   43.20    3.90 
   5   2  -7   63.19    3.70 
   5   2  -7   64.59    3.80 
   5   2  -7   70.49    4.70 
  -5  -2   7   64.69    4.70 
   4   2  -7   66.19    4.50 
   4   2  -7   69.39    5.60 
  -4  -2   7   84.99    5.90 
   3   2  -7   59.59    4.30 
   3   2  -7   59.29    3.20 
   3   2  -7   59.79    3.20 
  -3  -2   7   58.69    3.10 
  -3  -2   7   53.99    4.10 
   2   2  -7    5.50    1.10 
   2   2  -7    0.40    0.70 
   2   2  -7    1.20    1.70 
  -2  -2   7    1.70    0.80 
  -2  -2   7    1.80    1.30 
   1   2  -7   42.50    3.50 
   1   2  -7   41.50    2.50 
   1   2  -7   43.70    2.40 
  -1  -2   7   39.40    2.40 
  -1  -2   7   40.20    3.00 
   0   2  -7  131.49    4.70 
   0   2  -7  134.69    4.90 
   0   2  -7  131.39    5.10 
   0   2  -7  133.79    6.70 
   0  -2   7  132.49    5.10 
  -1   2  -7   51.29    3.00 
  -1   2  -7   56.59    4.40 
  -1   2  -7   50.79    2.70 
  -1   2  -7   53.69    3.10 
   1  -2   7   51.69    3.10 
  -2   2  -7  102.59    4.50 
  -2   2  -7  101.09    4.20 
  -2   2  -7   99.99    4.90 
  -2   2  -7   98.89    6.10 
   2  -2   7  105.49    4.70 
  -3   2  -7  151.08    5.90 
  -3   2  -7  148.09    6.70 
  -3   2  -7  147.89    5.50 
   3  -2   7  149.59    6.10 
  -4   2  -7  145.89    7.10 
  -4   2  -7  140.19    5.70 
  -4   2  -7  148.69    6.10 
   4  -2   7  146.59    6.10 
  -5   2  -7  141.69    7.40 
  -5   2  -7  137.49    5.90 
  -5   2  -7  141.99    6.30 
   5  -2   7  138.59    6.40 
  -6   2  -7  123.89    5.90 
  -6   2  -7  122.69    6.10 
  -6   2  -7  130.29    7.70 
   6  -2   7  122.79    7.30 
   6  -2   7  120.49    6.10 
   8   1  -7   45.50    4.00 
  -8  -1   7   51.09    4.40 
   7   1  -7    5.90    1.50 
   7   1  -7    4.40    1.70 
  -7  -1   7    5.60    1.90 
   6   1  -7  556.14   14.40 
   6   1  -7  539.65   14.50 
  -6  -1   7  522.55   16.40 
   5   1  -7    4.40    1.20 
   5   1  -7    1.30    1.00 
   5   1  -7    2.40    1.70 
  -5  -1   7    3.80    1.60 
   4   1  -7  993.50   25.50 
   4   1  -7 1035.80   21.30 
   4   1  -7 1068.19   20.50 
  -4  -1   7 1022.20   21.30 
  -4  -1   7  988.80   24.90 
   3   1  -7  397.76   10.10 
   3   1  -7  409.06   10.80 
   3   1  -7  393.36   13.40 
  -3  -1   7  398.46   12.70 
  -3  -1   7  394.16   10.70 
   2   1  -7  718.53   20.10 
   2   1  -7  736.63   16.10 
   2   1  -7  733.23   15.10 
  -2  -1   7  731.13   16.20 
  -2  -1   7  748.83   18.50 
   1   1  -7  717.53   14.70 
   1   1  -7  710.43   15.60 
   1   1  -7  739.03   20.20 
  -1  -1   7  713.33   16.00 
   0   1  -7 2650.43   48.10 
   0   1  -7 2645.14   40.80 
   0   1  -7 2686.33   43.20 
   0   1  -7 2677.23   52.99 
   0  -1   7 2611.04   44.10 
  -1   1  -7  349.96    8.90 
  -1   1  -7  350.36   10.50 
  -1   1  -7  345.87    9.60 
  -1   1  -7  332.57   12.70 
   1  -1   7  365.36   10.10 
  -2   1  -7 1122.39   24.90 
  -2   1  -7 1110.99   27.30 
  -2   1  -7 1081.29   20.80 
  -2   1  -7 1127.39   22.30 
   2  -1   7 1103.69   22.90 
  -3   1  -7  292.27    8.90 
  -3   1  -7  282.97   10.10 
  -3   1  -7  288.37    8.30 
   3  -1   7  276.47    9.10 
  -4   1  -7  193.88    8.60 
  -4   1  -7  207.08    7.40 
  -4   1  -7  199.08    6.80 
   4  -1   7  198.78    7.60 
  -5   1  -7  115.59    6.70 
  -5   1  -7  115.69    5.60 
   5  -1   7  116.89    5.70 
  -6   1  -7   16.60    2.60 
  -6   1  -7   10.50    1.90 
   6  -1   7   13.70    2.50 
   6  -1   7   11.30    1.90 
   8   0  -7    6.10    1.70 
  -8   0   7    2.70    1.90 
   7   0  -7  174.38    7.40 
   7   0  -7  158.08    7.30 
  -7   0   7  172.28    8.40 
  -7   0   7  178.58    7.70 
   6   0  -7   58.79    4.30 
   6   0  -7   61.69    4.30 
  -6   0   7   54.19    4.80 
  -6   0   7   62.49    4.40 
   5   0  -7  135.29    7.10 
   5   0  -7  140.79    5.90 
   5   0  -7  135.89    6.10 
  -5   0   7  131.69    6.10 
  -5   0   7  143.89    6.50 
  -5   0   7  136.39    7.20 
   4   0  -7   54.09    3.20 
   4   0  -7   49.20    4.20 
   4   0  -7   56.49    3.40 
  -4   0   7   53.19    3.40 
  -4   0   7   52.69    3.80 
  -4   0   7   47.10    4.00 
   3   0  -7   36.10    3.60 
   3   0  -7   39.20    2.40 
   3   0  -7   37.30    2.70 
  -3   0   7   39.50    3.20 
  -3   0   7   37.40    2.80 
   2   0  -7   45.20    2.90 
   2   0  -7   48.90    4.20 
   2   0  -7   44.90    2.50 
  -2   0   7   44.70    3.00 
  -2   0   7   47.50    3.40 
   1   0  -7  133.59    7.30 
   1   0  -7  142.09    5.40 
   1   0  -7  138.79    4.80 
   1   0  -7  138.89    5.40 
  -1   0   7  136.89    5.50 
   0   0  -7  239.98    7.70 
   0   0  -7  257.27    7.00 
   0   0  -7  250.77   10.70 
   0   0  -7  248.08    8.30 
   0   0   7  250.07    8.10 
  -1   0  -7  127.89    4.60 
  -1   0  -7  132.89    5.80 
  -1   0  -7  140.59    5.30 
  -1   0  -7  129.49    7.40 
   1   0   7  127.39    5.60 
  -2   0  -7    3.10    1.10 
  -2   0  -7    2.70    1.60 
  -2   0  -7    3.50    1.10 
  -2   0  -7    3.20    0.80 
   2   0   7    2.90    1.10 
  -3   0  -7  223.08    9.00 
  -3   0  -7  235.68    7.90 
   3   0   7  225.18    8.30 
  -4   0  -7   31.60    3.40 
  -4   0  -7   34.10    2.80 
   4   0   7   28.50    2.80 
  -5   0  -7  171.28    8.70 
   5   0   7  183.78    7.70 
   8  -1  -7   83.49    5.30 
   8  -1  -7   96.29    5.60 
  -8   1   7   92.79    6.00 
  -8   1   7   84.49    5.50 
   7  -1  -7   10.60    2.00 
   7  -1  -7   12.30    2.20 
  -7   1   7   12.00    2.30 
  -7   1   7   10.20    2.30 
   6  -1  -7  831.72   19.10 
   6  -1  -7  860.81   22.30 
   6  -1  -7  812.72   20.00 
  -6   1   7  846.82   20.60 
  -6   1   7  852.51   22.70 
   5  -1  -7   17.20    2.20 
   5  -1  -7   17.70    2.50 
   5  -1  -7   13.80    1.80 
  -5   1   7   14.00    2.20 
  -5   1   7   11.80    2.20 
  -5   1   7   16.80    2.70 
   4  -1  -7 1534.05   34.40 
   4  -1  -7 1518.65   29.60 
   4  -1  -7 1544.75   27.50 
  -4   1   7 1498.15   30.50 
  -4   1   7 1539.85   30.20 
  -4   1   7 1585.74   33.80 
   3  -1  -7   15.50    1.80 
   3  -1  -7   16.70    2.80 
   3  -1  -7   14.30    1.50 
  -3   1   7    9.50    2.00 
  -3   1   7   13.30    2.10 
  -3   1   7   12.10    1.90 
   2  -1  -7 1081.99   27.40 
   2  -1  -7 1076.69   21.60 
   2  -1  -7 1055.99   20.00 
  -2   1   7 1096.09   22.70 
   1  -1  -7   68.19    3.80 
   1  -1  -7   68.49    3.60 
   1  -1  -7   80.19    5.60 
   1  -1  -7   70.59    3.20 
  -1   1   7   70.09    4.00 
   0  -1  -7 1710.43   39.80 
   0  -1  -7 1831.12   32.10 
   0  -1  -7 1810.02   29.70 
   0  -1  -7 1800.12   36.10 
   0   1   7 1855.81   33.50 
  -1  -1  -7   25.20    2.20 
  -1  -1  -7   26.30    2.50 
  -1  -1  -7   22.30    3.00 
   1   1   7   27.40    2.50 
  -2  -1  -7  629.44   17.90 
  -2  -1  -7  612.64   17.20 
  -2  -1  -7  622.54   14.80 
   2   1   7  624.84   15.80 
  -3  -1  -7   21.50    2.10 
  -3  -1  -7   20.20    2.50 
   3   1   7   22.00    2.40 
  -4  -1  -7  135.29    7.30 
   4   1   7  147.59    6.70 
  -5  -1  -7   33.30    3.80 
   5   1   7   35.40    3.20 
   7  -2  -7  192.18    7.90 
   7  -2  -7  185.18    8.20 
  -7   2   7  192.78    9.10 
  -7   2   7  188.48    8.40 
   6  -2  -7    2.10    1.50 
   6  -2  -7    2.20    1.60 
   6  -2  -7    2.20    1.50 
  -6   2   7    4.00    1.70 
  -6   2   7    0.00    1.60 
  -6   2   7    1.20    1.40 
   5  -2  -7  112.19    6.60 
   5  -2  -7  118.99    5.30 
   5  -2  -7  115.09    5.80 
  -5   2   7  124.59    6.80 
  -5   2   7  115.79    6.20 
  -5   2   7  110.29    6.10 
   4  -2  -7   21.50    3.00 
   4  -2  -7   19.70    2.20 
   4  -2  -7   21.20    1.90 
  -4   2   7   23.60    2.70 
  -4   2   7   16.70    2.30 
  -4   2   7   17.60    2.50 
   3  -2  -7    1.60    1.10 
   3  -2  -7    3.20    1.50 
   3  -2  -7    4.10    0.90 
  -3   2   7    3.70    1.20 
  -3   2   7    1.90    1.60 
  -3   2   7    2.40    1.40 
   2  -2  -7   25.90    1.90 
   2  -2  -7   25.20    2.30 
   2  -2  -7   24.20    3.30 
  -2   2   7   26.40    2.60 
  -2   2   7   20.50    2.40 
   1  -2  -7   44.00    4.30 
   1  -2  -7   44.50    3.20 
   1  -2  -7   47.10    3.00 
  -1   2   7   41.20    3.20 
   0  -2  -7   79.29    5.60 
   0  -2  -7   72.79    4.30 
   0  -2  -7   77.99    3.90 
   0   2   7   72.39    4.30 
  -1  -2  -7   53.49    3.90 
  -1  -2  -7   53.29    4.40 
  -1  -2  -7   56.19    3.30 
   1   2   7   57.99    3.80 
  -2  -2  -7    1.60    1.40 
  -2  -2  -7    1.70    1.10 
   2   2   7    2.20    1.30 
  -3  -2  -7  207.58    9.20 
   3   2   7  211.88    8.30 
  -4  -2  -7   45.40    4.30 
   4   2   7   43.00    3.60 
   7  -3  -7   61.29    4.60 
   7  -3  -7   66.69    4.40 
  -7   3   7   72.29    5.30 
  -7   3   7   65.99    4.90 
  -7   3   7   54.99    4.70 
   6  -3  -7  382.46   11.50 
   6  -3  -7  400.66   13.90 
   6  -3  -7  385.76   12.50 
  -6   3   7  402.36   14.20 
  -6   3   7  388.06   13.10 
  -6   3   7  393.56   13.00 
   5  -3  -7  100.99    6.10 
   5  -3  -7   90.79    4.60 
   5  -3  -7   90.19    5.20 
  -5   3   7   81.99    5.60 
  -5   3   7  100.79    5.90 
  -5   3   7   84.49    5.50 
   4  -3  -7  450.25   12.80 
   4  -3  -7  452.35   15.40 
  -4   3   7  428.86   13.70 
  -4   3   7  435.16   13.40 
  -4   3   7  449.26   14.10 
   3  -3  -7   89.99    6.20 
   3  -3  -7   88.89    4.60 
  -3   3   7   87.69    5.20 
  -3   3   7   80.59    5.10 
  -3   3   7   89.09    5.20 
   2  -3  -7  324.27   10.80 
   2  -3  -7  324.07    9.80 
   2  -3  -7  317.97   12.90 
  -2   3   7  334.27   10.50 
  -2   3   7  313.67   10.50 
   1  -3  -7    0.00    1.70 
   1  -3  -7    2.10    0.90 
   1  -3  -7    2.40    1.00 
  -1   3   7    4.10    1.20 
   0  -3  -7  643.74   15.30 
   0  -3  -7  652.73   17.70 
   0  -3  -7  645.04   19.70 
   0   3   7  657.53   16.70 
  -1  -3  -7    2.80    0.90 
  -1  -3  -7    1.20    1.20 
  -1  -3  -7    0.00    1.50 
   1   3   7    2.20    1.40 
  -2  -3  -7  345.97   12.70 
   2   3   7  360.96   11.50 
  -3  -3  -7    0.00    1.30 
   3   3   7    0.00    1.20 
   7  -4  -7   39.30    3.40 
   7  -4  -7   46.30    4.10 
  -7   4   7   40.70    4.10 
  -7   4   7   40.40    4.10 
   6  -4  -7   29.50    3.20 
   6  -4  -7   28.20    3.50 
  -6   4   7   28.20    3.60 
  -6   4   7   28.00    3.30 
   5  -4  -7   16.00    2.30 
   5  -4  -7   13.00    2.70 
  -5   4   7   11.80    2.30 
  -5   4   7   11.20    2.40 
  -5   4   7   11.50    2.20 
   4  -4  -7   39.90    4.30 
   4  -4  -7   39.40    3.30 
  -4   4   7   40.20    3.70 
  -4   4   7   29.80    3.40 
  -4   4   7   42.20    3.90 
   3  -4  -7   10.40    2.70 
   3  -4  -7    8.10    1.70 
  -3   4   7    7.10    2.00 
  -3   4   7   13.00    2.30 
  -3   4   7    9.60    2.10 
   2  -4  -7    1.90    0.90 
   2  -4  -7    2.80    1.40 
   2  -4  -7    4.10    1.80 
  -2   4   7    1.50    1.20 
  -2   4   7    1.50    1.30 
   1  -4  -7   17.80    3.00 
   1  -4  -7   18.30    2.40 
   1  -4  -7   14.60    1.70 
  -1   4   7   17.50    2.40 
   0  -4  -7    1.70    1.50 
   0  -4  -7    0.30    1.40 
   0   4   7    0.70    1.20 
  -1  -4  -7  147.69    7.40 
  -1  -4  -7  149.39    8.00 
   1   4   7  145.39    6.90 
  -2  -4  -7   15.00    2.60 
   2   4   7   16.90    2.30 
   6  -5  -7   64.19    4.70 
   6  -5  -7   62.09    5.30 
  -6   5   7   60.09    5.10 
  -6   5   7   62.59    5.10 
   5  -5  -7  152.88    8.60 
   5  -5  -7  147.29    7.20 
  -5   5   7  147.69    7.70 
  -5   5   7  137.29    7.90 
   4  -5  -7  182.58    7.90 
   4  -5  -7  188.78    9.90 
  -4   5   7  207.28    8.80 
  -4   5   7  195.48    8.90 
  -4   5   7  190.88    8.90 
   3  -5  -7  214.78    8.30 
   3  -5  -7  211.88   10.80 
  -3   5   7  221.58    9.30 
  -3   5   7  205.88    9.10 
   2  -5  -7  369.86   11.20 
   2  -5  -7  359.86   14.70 
  -2   5   7  381.46   12.00 
  -2   5   7  363.36   12.30 
   1  -5  -7   95.19    5.90 
   1  -5  -7   92.69    6.80 
  -1   5   7   88.79    5.60 
   0  -5  -7  386.36   13.50 
   0  -5  -7  380.76   14.70 
   0   5   7  380.66   12.50 
  -1  -5  -7  129.79    7.30 
   1   5   7  119.89    6.50 
   4  -6  -7   18.10    3.30 
   4  -6  -7   24.90    2.90 
  -4   6   7   28.70    3.80 
   3  -6  -7   15.90    3.30 
   3  -6  -7   14.90    2.30 
  -3   6   7   14.90    2.50 
  -3   6   7   14.10    2.60 
   2  -6  -7   27.20    4.20 
  -2   6   7   18.40    2.80 
   1  -6  -7   22.80    3.00 
   1  -6  -7   19.70    3.30 
  -1   6   7   17.90    2.80 
  -2  12  -8   86.99    5.10 
  -3  12  -8  255.77    9.60 
  -4  12  -8   55.99    4.30 
  -1  11  -8    4.80    1.50 
  -2  11  -8   45.60    3.50 
  -3  11  -8   27.90    2.90 
  -4  11  -8   46.80    3.80 
  -4  11  -8   46.70    3.30 
  -5  11  -8   45.60    3.90 
  -5  11  -8   44.20    4.90 
  -5  11  -8   44.90    3.50 
   5 -11   8   45.00    3.30 
   5 -11   8   46.80    4.20 
   0  10  -8  571.54   14.70 
  -1  10  -8   86.89    4.10 
  -1  10  -8   84.49    4.70 
  -2  10  -8  569.64   13.50 
  -2  10  -8  563.04   14.90 
  -3  10  -8  120.09    5.90 
  -3  10  -8  121.29    5.30 
   3 -10   8  120.39    6.30 
   3 -10   8  122.59    5.20 
  -4  10  -8  286.77   12.20 
  -4  10  -8  281.57    9.10 
  -4  10  -8  267.17    9.60 
   4 -10   8  279.27   10.30 
   4 -10   8  278.47    9.10 
  -5  10  -8   85.79    5.10 
  -5  10  -8   77.49    6.30 
  -5  10  -8   81.59    4.70 
   5 -10   8   87.19    5.40 
   5 -10   8   85.39    4.70 
  -6  10  -8  167.48    7.30 
  -6  10  -8  172.68    9.60 
  -6  10  -8  166.18    7.50 
   6 -10   8  160.28    7.10 
   6 -10   8  154.48    7.80 
  -4  -9   8    2.20    1.80 
  -3  -9   8  112.69    6.70 
   1   9  -8   58.19    3.50 
   1   9  -8   52.99    3.10 
   0   9  -8   59.89    3.60 
   0   9  -8   55.09    3.20 
  -1   9  -8    9.20    1.30 
  -1   9  -8    9.20    1.50 
  -2   9  -8   55.49    3.60 
  -2   9  -8   44.30    3.20 
  -2   9  -8   55.49    3.20 
  -3   9  -8   98.89    4.80 
  -3   9  -8   97.09    4.60 
  -3   9  -8   89.09    4.90 
   3  -9   8   95.09    4.60 
   3  -9   8   93.09    5.00 
  -4   9  -8   59.79    3.90 
  -4   9  -8   59.29    3.70 
  -4   9  -8   51.89    4.70 
   4  -9   8   55.79    3.50 
   4  -9   8   57.59    4.00 
  -5   9  -8  160.48    6.70 
  -5   9  -8  143.19    6.60 
  -5   9  -8  149.99    8.50 
   5  -9   8  151.38    6.50 
   5  -9   8  150.78    7.00 
  -6   9  -8   47.70    3.90 
  -6   9  -8   56.39    5.20 
  -6   9  -8   56.59    4.10 
   6  -9   8   52.89    3.80 
   6  -9   8   49.80    4.10 
  -5  -8   8    0.00    1.80 
  -4  -8   8  150.08    8.30 
   3   8  -8    6.60    1.20 
  -3  -8   8    4.60    1.70 
   2   8  -8  309.37    8.80 
  -2  -8   8  290.47   11.30 
   1   8  -8    3.70    1.10 
   0   8  -8 1896.61   32.10 
  -1   8  -8    0.00    0.80 
  -1   8  -8    1.70    1.00 
  -2   8  -8 1285.67   25.80 
  -2   8  -8 1343.77   25.60 
  -2   8  -8 1330.47   24.60 
   2  -8   8 1275.27   25.90 
  -3   8  -8   22.60    2.30 
  -3   8  -8   19.70    2.20 
  -3   8  -8   22.40    2.20 
  -3   8  -8   28.90    3.20 
   3  -8   8   25.30    2.40 
   3  -8   8   22.70    2.20 
  -4   8  -8  354.66   10.90 
  -4   8  -8  352.26   12.90 
  -4   8  -8  354.16   10.80 
  -4   8  -8  351.36   10.50 
   4  -8   8  349.47   11.00 
   4  -8   8  365.76   10.60 
  -5   8  -8   80.09    5.90 
  -5   8  -8   70.69    4.40 
  -5   8  -8   71.19    4.40 
   5  -8   8   79.89    4.80 
   5  -8   8   75.29    4.40 
  -6   8  -8  249.18    9.40 
  -6   8  -8  259.07   11.90 
  -6   8  -8  255.57    9.20 
   6  -8   8  250.87    9.10 
   6  -8   8  245.58    9.60 
   5   7  -8  184.68    7.10 
  -5  -7   8  171.18    9.20 
   4   7  -8   75.59    4.10 
  -4  -7   8   65.99    5.40 
   3   7  -8  212.38    7.00 
  -3  -7   8  209.58    9.60 
   2   7  -8   19.90    1.90 
  -2  -7   8   19.90    2.70 
   1   7  -8   13.80    1.50 
  -1  -7   8   10.20    1.80 
   0   7  -8  118.39    4.70 
   0   7  -8  115.19    4.80 
   0  -7   8  120.49    6.40 
  -1   7  -8   20.80    1.90 
  -1   7  -8   19.00    1.80 
   1  -7   8   17.00    1.70 
  -2   7  -8    3.10    1.00 
  -2   7  -8    1.70    1.00 
   2  -7   8    4.30    1.10 
  -3   7  -8  105.29    5.00 
  -3   7  -8  106.89    5.70 
  -3   7  -8  114.39    5.10 
  -3   7  -8  104.89    4.80 
   3  -7   8  108.49    5.10 
   3  -7   8  106.29    4.90 
  -4   7  -8   15.40    1.90 
  -4   7  -8   13.70    2.30 
  -4   7  -8   12.10    1.90 
  -4   7  -8   16.20    1.90 
   4  -7   8   16.00    1.90 
   4  -7   8   15.30    1.90 
  -5   7  -8  170.38    8.70 
  -5   7  -8  158.38    6.70 
  -5   7  -8  154.48    6.60 
   5  -7   8  161.88    6.70 
   5  -7   8  153.18    6.90 
  -6   7  -8   18.80    2.20 
  -6   7  -8   15.00    3.00 
  -6   7  -8   17.10    2.50 
   6  -7   8   14.00    2.10 
   6  -7   8   19.70    2.40 
   6  -7   8   17.20    2.40 
   6   6  -8  113.19    5.90 
  -6  -6   8  111.69    7.30 
   5   6  -8  192.68    7.40 
  -5  -6   8  185.58    9.40 
   4   6  -8  409.56   11.00 
  -4  -6   8  386.46   13.90 
   3   6  -8  318.67    9.10 
  -3  -6   8  323.27   12.00 
   2   6  -8  499.95   12.10 
  -2  -6   8  518.25   15.80 
   1   6  -8  148.49    5.20 
   1   6  -8  138.09    5.30 
  -1  -6   8  140.49    7.00 
   0   6  -8 2177.68   35.50 
   0   6  -8 2192.98   36.70 
   0  -6   8 2107.49   36.50 
   0  -6   8 2150.48   42.20 
  -1   6  -8    2.90    0.90 
  -1   6  -8    2.70    0.90 
   1  -6   8    5.80    1.10 
   1  -6   8    4.60    0.90 
  -2   6  -8  845.72   17.70 
  -2   6  -8  857.21   18.50 
   2  -6   8  863.21   18.60 
  -3   6  -8   12.40    1.60 
  -3   6  -8   14.20    1.90 
  -3   6  -8    8.40    2.20 
  -3   6  -8   16.10    1.90 
   3  -6   8   10.20    1.90 
   3  -6   8   16.90    1.90 
  -4   6  -8  217.78    7.70 
  -4   6  -8  214.38    7.70 
  -4   6  -8  224.58    9.30 
  -4   6  -8  223.48    8.10 
   4  -6   8  225.38    8.20 
   4  -6   8  228.78    7.90 
  -5   6  -8   14.40    2.10 
  -5   6  -8   12.20    2.30 
  -5   6  -8   17.00    2.40 
  -5   6  -8   16.60    3.00 
   5  -6   8   20.80    2.40 
   5  -6   8   15.40    2.10 
  -6   6  -8  222.58    8.90 
  -6   6  -8  222.48    8.50 
  -6   6  -8  233.38   10.80 
  -6   6  -8  231.98    8.40 
   6  -6   8  218.18    9.70 
   6  -6   8  212.38    8.40 
   6  -6   8  227.88    8.90 
   6   5  -8  188.98    7.70 
  -6  -5   8  180.78    9.30 
   5   5  -8  130.49    5.90 
  -5  -5   8  134.29    7.40 
   4   5  -8  155.28    6.10 
  -4  -5   8  160.58    7.90 
   3   5  -8   76.29    3.70 
   3   5  -8   78.59    3.80 
  -3  -5   8   77.39    5.10 
   2   5  -8   19.40    1.80 
   2   5  -8   19.50    1.60 
  -2  -5   8   16.00    2.50 
   1   5  -8    1.70    0.70 
   1   5  -8    3.00    0.90 
  -1  -5   8    6.20    1.90 
   0   5  -8   35.10    2.40 
   0   5  -8   34.90    2.50 
   0  -5   8   35.50    2.30 
   0  -5   8   36.80    2.90 
  -1   5  -8   31.30    2.40 
  -1   5  -8   30.80    2.20 
   1  -5   8   31.00    2.30 
   1  -5   8   32.10    2.60 
  -2   5  -8    5.50    1.30 
  -2   5  -8    5.80    1.30 
  -2   5  -8    4.30    1.10 
   2  -5   8    5.80    1.30 
  -3   5  -8  286.07    8.60 
  -3   5  -8  285.67    9.90 
  -3   5  -8  271.47    8.90 
   3  -5   8  290.47    9.10 
  -4   5  -8    0.60    1.00 
  -4   5  -8    3.60    1.30 
  -4   5  -8    1.70    1.60 
  -4   5  -8    0.90    1.00 
   4  -5   8    3.60    1.20 
   4  -5   8    1.30    1.10 
  -5   5  -8  363.26   13.00 
  -5   5  -8  348.17   10.50 
  -5   5  -8  351.66   11.10 
  -5   5  -8  336.47   10.50 
   5  -5   8  358.26   11.20 
   5  -5   8  352.76   10.80 
  -6   5  -8   19.50    2.40 
  -6   5  -8   24.00    2.70 
  -6   5  -8   22.70    3.50 
   6  -5   8   23.30    2.70 
   6  -5   8   21.10    2.90 
   6  -5   8   20.40    2.50 
   7   4  -8  200.58    8.50 
  -7  -4   8  191.48    9.60 
   6   4  -8  175.58    7.50 
  -6  -4   8  172.08    8.60 
   5   4  -8  239.78    9.70 
   5   4  -8  246.18    8.40 
  -5  -4   8  234.88   10.00 
   4   4  -8  439.96   11.60 
   4   4  -8  452.05   11.70 
   4   4  -8  458.85   14.30 
  -4  -4   8  423.56   14.40 
   3   4  -8  379.56   10.20 
   3   4  -8  386.86   10.20 
  -3  -4   8  381.46   13.00 
   2   4  -8  330.77    9.00 
   2   4  -8  342.97    9.20 
  -2  -4   8  323.87   11.50 
   1   4  -8  189.28    6.20 
   1   4  -8  190.38    6.50 
  -1  -4   8  194.78    6.30 
  -1  -4   8  198.28    7.70 
   0   4  -8 1596.74   28.70 
   0   4  -8 1613.64   27.60 
   0  -4   8 1512.75   32.10 
   0  -4   8 1592.24   28.90 
  -1   4  -8   41.50    2.60 
  -1   4  -8   40.40    2.80 
   1  -4   8   45.10    2.80 
  -2   4  -8  653.83   16.70 
  -2   4  -8  694.93   18.90 
  -2   4  -8  650.33   14.70 
  -2   4  -8  663.93   15.60 
   2  -4   8  673.33   15.70 
  -3   4  -8  311.37   11.90 
  -3   4  -8  303.07    9.00 
  -3   4  -8  304.77   10.40 
  -3   4  -8  314.27    9.50 
   3  -4   8  315.87    9.70 
  -4   4  -8  220.68    7.70 
  -4   4  -8  226.48    9.20 
  -4   4  -8  235.78    7.70 
  -4   4  -8  231.78    8.20 
   4  -4   8  229.78    8.30 
  -5   4  -8   86.69    5.70 
  -5   4  -8   87.49    4.60 
  -5   4  -8   89.59    4.90 
   5  -4   8   88.19    4.80 
   5  -4   8   85.19    4.90 
  -6   4  -8  170.68    7.60 
  -6   4  -8  184.88    7.60 
  -6   4  -8  189.98    9.50 
   6  -4   8  187.48    7.90 
   6  -4   8  191.48    9.20 
   6  -4   8  190.08    7.80 
   7   3  -8   44.70    3.80 
  -7  -3   8   47.80    4.50 
   6   3  -8  184.88    7.80 
  -6  -3   8  190.58    8.90 
   5   3  -8   42.90    3.10 
   5   3  -8   45.00    3.20 
   5   3  -8   45.90    4.00 
  -5  -3   8   41.10    3.90 
   4   3  -8   71.99    3.90 
   4   3  -8   75.49    5.00 
   4   3  -8   73.69    3.90 
  -4  -3   8   71.69    5.10 
   3   3  -8   48.50    4.60 
   3   3  -8   64.69    3.80 
   3   3  -8   72.39    3.60 
  -3  -3   8   53.99    4.80 
   2   3  -8    7.40    1.20 
   2   3  -8    7.40    1.30 
   2   3  -8    9.20    2.10 
  -2  -3   8    4.10    1.40 
  -2  -3   8    9.10    1.20 
   1   3  -8    8.00    1.30 
   1   3  -8   11.30    2.50 
   1   3  -8   14.50    1.50 
  -1  -3   8    9.40    1.90 
  -1  -3   8    7.60    1.60 
   0   3  -8    2.50    0.80 
   0   3  -8    1.50    0.70 
   0   3  -8    5.00    1.80 
   0  -3   8    3.20    0.90 
  -1   3  -8   66.09    4.70 
  -1   3  -8   59.89    3.20 
  -1   3  -8   59.29    3.40 
   1  -3   8   64.49    3.50 
  -2   3  -8  144.79    5.80 
  -2   3  -8  144.59    6.10 
  -2   3  -8  151.08    7.80 
  -2   3  -8  142.59    5.40 
   2  -3   8  140.89    5.90 
  -3   3  -8  410.76   12.70 
  -3   3  -8  388.36   10.60 
  -3   3  -8  419.96   11.40 
   3  -3   8  410.56   11.60 
  -4   3  -8  155.28    6.20 
  -4   3  -8  154.98    7.40 
  -4   3  -8  163.78    6.60 
   4  -3   8  155.58    6.70 
  -5   3  -8  272.67   11.00 
  -5   3  -8  272.17    9.00 
  -5   3  -8  269.27    9.50 
   5  -3   8  271.77    9.50 
  -6   3  -8  147.09    7.00 
  -6   3  -8  148.39    6.70 
  -6   3  -8  156.68    8.50 
   6  -3   8  153.88    7.10 
   7   2  -8  177.98    7.80 
   7   2  -8  168.98    7.30 
  -7  -2   8  165.48    8.60 
   6   2  -8   80.79    4.80 
   6   2  -8   78.29    4.70 
  -6  -2   8   74.19    5.30 
   5   2  -8  137.19    6.00 
   5   2  -8  130.59    7.20 
   5   2  -8  131.09    5.90 
  -5  -2   8  133.49    7.20 
   4   2  -8  257.27    8.30 
   4   2  -8  251.37   10.30 
   4   2  -8  256.07    8.00 
  -4  -2   8  242.18   10.20 
   3   2  -8  824.12   22.10 
   3   2  -8  820.22   17.00 
   3   2  -8  826.92   17.90 
  -3  -2   8  823.32   17.90 
  -3  -2   8  816.32   21.30 
   2   2  -8  182.18    8.50 
   2   2  -8  181.98    6.50 
   2   2  -8  185.08    6.10 
  -2  -2   8  194.98    7.90 
  -2  -2   8  189.78    6.60 
   1   2  -8 1035.10   19.80 
   1   2  -8 1041.40   21.00 
   1   2  -8 1064.39   26.30 
  -1  -2   8 1033.50   23.70 
  -1  -2   8 1009.60   21.10 
   0   2  -8  659.53   19.50 
   0   2  -8  662.83   14.20 
   0   2  -8  647.94   15.00 
   0  -2   8  644.74   15.10 
  -1   2  -8  526.75   14.20 
  -1   2  -8  538.95   13.30 
  -1   2  -8  534.85   12.40 
  -1   2  -8  553.64   17.60 
   1  -2   8  559.44   13.70 
  -2   2  -8  436.76   12.70 
  -2   2  -8  419.26   15.30 
  -2   2  -8  424.46   10.80 
  -2   2  -8  430.76   11.60 
   2  -2   8  438.86   12.00 
  -3   2  -8  719.23   18.80 
  -3   2  -8  717.43   16.70 
  -3   2  -8  705.93   15.60 
   3  -2   8  702.03   17.20 
  -4   2  -8  211.58    9.00 
  -4   2  -8  218.08    7.50 
  -4   2  -8  217.08    8.00 
   4  -2   8  213.78    8.10 
  -5   2  -8  123.59    7.00 
  -5   2  -8  120.89    5.60 
  -5   2  -8  111.99    5.80 
   5  -2   8  119.39    6.00 
   7   1  -8   30.80    3.40 
   7   1  -8   31.30    3.10 
  -7  -1   8   22.40    3.70 
   6   1  -8  153.58    6.90 
   6   1  -8  147.99    6.70 
  -6  -1   8  144.89    7.90 
   5   1  -8    8.20    1.50 
   5   1  -8    4.90    1.80 
   5   1  -8   12.00    2.50 
  -5  -1   8    5.90    2.10 
   4   1  -8   67.59    5.00 
   4   1  -8   69.69    4.00 
   4   1  -8   72.79    3.90 
  -4  -1   8   71.39    5.00 
  -4  -1   8   70.49    4.00 
   3   1  -8    9.90    1.40 
   3   1  -8    5.60    1.70 
   3   1  -8   10.10    1.40 
  -3  -1   8    9.20    1.90 
  -3  -1   8   10.30    1.60 
   2   1  -8   32.80    2.40 
   2   1  -8   28.70    3.30 
   2   1  -8   32.90    2.20 
  -2  -1   8   30.70    2.60 
  -2  -1   8   33.30    3.00 
   1   1  -8  130.99    7.40 
   1   1  -8  125.89    5.10 
   1   1  -8  120.89    4.60 
  -1  -1   8  121.39    5.30 
   0   1  -8   45.90    2.90 
   0   1  -8   44.80    2.60 
   0   1  -8   41.50    4.10 
   0  -1   8   41.90    3.00 
  -1   1  -8    1.40    0.80 
  -1   1  -8    5.50    2.10 
  -1   1  -8    1.30    0.90 
  -1   1  -8    2.10    1.00 
   1  -1   8    2.70    1.20 
  -2   1  -8  314.57    9.50 
  -2   1  -8  315.77   10.50 
  -2   1  -8  305.87    8.60 
  -2   1  -8  311.47   12.50 
   2  -1   8  315.27   10.00 
  -3   1  -8  142.19    6.80 
  -3   1  -8  131.29    5.80 
  -3   1  -8  134.99    5.30 
   3  -1   8  135.89    6.10 
  -4   1  -8  184.18    8.50 
  -4   1  -8  193.18    7.40 
   4  -1   8  192.78    7.80 
  -5   1  -8   58.59    4.10 
  -5   1  -8   61.29    4.90 
   5  -1   8   60.99    4.20 
   7   0  -8  266.67    9.70 
   7   0  -8  254.87    9.70 
  -7   0   8  257.47   10.90 
  -7   0   8  259.67   10.30 
   6   0  -8    4.30    1.90 
   6   0  -8    7.00    1.90 
   6   0  -8    4.10    1.50 
  -6   0   8    3.70    1.70 
  -6   0   8    4.60    1.90 
   5   0  -8  414.66   12.30 
   5   0  -8  410.86   11.60 
   5   0  -8  427.06   14.40 
  -5   0   8  429.76   13.10 
  -5   0   8  419.66   14.50 
   4   0  -8    3.00    1.70 
   4   0  -8    2.10    1.10 
   4   0  -8    0.10    0.90 
  -4   0   8    0.00    1.80 
  -4   0   8    0.40    0.90 
   3   0  -8 1785.02   32.30 
   3   0  -8 1697.43   39.00 
   3   0  -8 1719.33   29.90 
  -3   0   8 1785.62   33.00 
  -3   0   8 1796.12   36.90 
   2   0  -8    6.10    2.20 
  -2   0   8    4.40    1.40 
  -2   0   8    5.50    1.70 
   1   0  -8 1363.26   26.20 
   1   0  -8 1385.26   33.30 
   1   0  -8 1366.56   24.50 
  -1   0   8 1386.06   27.20 
   0   0  -8   20.70    3.40 
   0   0  -8   27.40    1.90 
   0   0  -8   24.10    2.20 
   0   0   8   23.70    2.40 
  -1   0  -8  368.96   10.40 
  -1   0  -8  358.76   11.40 
  -1   0  -8  348.27   13.60 
  -1   0  -8  359.46    9.30 
   1   0   8  370.46   10.90 
  -2   0  -8  174.18    7.50 
  -2   0  -8  163.78    8.30 
  -2   0  -8  164.68    6.50 
   2   0   8  165.38    6.90 
  -3   0  -8  266.97    9.00 
  -3   0  -8  278.07   10.50 
   3   0   8  269.27    9.60 
  -4   0  -8   68.99    4.40 
  -4   0  -8   70.39    5.20 
   4   0   8   77.49    4.80 
   7  -1  -8   32.40    3.10 
   7  -1  -8   27.80    3.10 
  -7   1   8   28.40    3.60 
  -7   1   8   27.40    3.20 
   6  -1  -8  129.49    7.20 
   6  -1  -8  124.09    6.10 
   6  -1  -8  122.09    6.40 
  -6   1   8  126.39    6.70 
  -6   1   8  133.49    7.60 
   5  -1  -8   64.49    4.30 
   5  -1  -8   65.39    3.90 
   5  -1  -8   69.79    5.10 
  -5   1   8   66.89    5.10 
  -5   1   8   58.69    4.30 
  -5   1   8   59.99    4.50 
   4  -1  -8   27.40    3.40 
   4  -1  -8   32.90    2.50 
   4  -1  -8   30.80    2.70 
  -4   1   8   25.60    2.80 
  -4   1   8   27.20    3.20 
  -4   1   8   28.70    3.10 
   3  -1  -8   10.00    1.40 
   3  -1  -8   10.10    1.60 
   3  -1  -8   10.90    2.50 
  -3   1   8    9.90    2.00 
  -3   1   8    9.60    1.90 
   2  -1  -8    1.20    0.80 
   2  -1  -8    1.70    0.80 
   2  -1  -8    0.50    1.70 
  -2   1   8    1.40    1.10 
   1  -1  -8  157.08    5.30 
   1  -1  -8  156.18    8.70 
   1  -1  -8  149.79    6.00 
  -1   1   8  149.09    6.60 
   0  -1  -8   95.89    5.00 
   0  -1  -8   90.89    6.50 
   0  -1  -8   99.19    4.60 
   0   1   8   97.79    5.00 
  -1  -1  -8    3.50    1.40 
  -1  -1  -8    4.80    1.20 
  -1  -1  -8    3.40    1.50 
   1   1   8    1.10    1.20 
  -2  -1  -8  205.58    8.70 
  -2  -1  -8  207.98    7.50 
   2   1   8  199.08    8.20 
  -3  -1  -8   72.09    5.00 
  -3  -1  -8   65.39    4.10 
   3   1   8   68.59    4.50 
  -4  -1  -8  207.28    9.70 
   4   1   8  206.38    8.70 
   7  -2  -8  298.87   11.10 
   7  -2  -8  294.07   10.40 
  -7   2   8  312.57   12.60 
  -7   2   8  301.37   11.40 
   6  -2  -8   72.89    5.00 
   6  -2  -8   77.29    4.70 
   6  -2  -8   78.69    5.60 
  -6   2   8   81.39    6.00 
  -6   2   8   83.69    5.40 
  -6   2   8   62.89    4.90 
   5  -2  -8  419.56   12.90 
   5  -2  -8  424.26   11.70 
   5  -2  -8  428.26   15.00 
  -5   2   8  397.36   13.30 
  -5   2   8  462.25   14.90 
  -5   2   8  397.26   13.00 
   4  -2  -8   44.70    3.50 
   4  -2  -8   56.09    4.70 
   4  -2  -8   48.80    3.10 
  -4   2   8   40.80    3.80 
  -4   2   8   51.79    4.30 
  -4   2   8   46.40    3.90 
   3  -2  -8 1028.80   27.30 
   3  -2  -8 1020.70   21.90 
  -3   2   8 1007.00   23.00 
  -3   2   8 1019.10   24.90 
   2  -2  -8   20.80    2.10 
   2  -2  -8   14.90    2.80 
  -2   2   8   14.50    2.20 
   1  -2  -8  641.44   15.50 
   1  -2  -8  622.24   20.30 
  -1   2   8  663.03   16.70 
   0  -2  -8    7.30    1.70 
   0  -2  -8    4.50    1.20 
   0  -2  -8    2.60    1.70 
   0   2   8    3.70    1.30 
  -1  -2  -8  253.87    9.90 
  -1  -2  -8  271.57    8.70 
  -1  -2  -8  257.57   11.10 
   1   2   8  260.57    9.50 
  -2  -2  -8   30.60    3.20 
   2   2   8   35.90    3.30 
  -3  -2  -8  191.48    9.10 
   3   2   8  196.08    8.30 
   6  -3  -8   34.60    3.00 
   6  -3  -8   32.70    3.70 
   6  -3  -8   30.10    3.20 
  -6   3   8   28.30    3.50 
  -6   3   8   30.30    3.90 
  -6   3   8   26.60    3.40 
   5  -3  -8   54.09    4.10 
   5  -3  -8   49.30    4.60 
  -5   3   8   48.90    4.20 
  -5   3   8   52.89    4.40 
  -5   3   8   42.10    4.00 
   4  -3  -8    8.90    1.60 
   4  -3  -8   16.40    2.90 
  -4   3   8   10.70    2.20 
  -4   3   8   14.20    2.20 
  -4   3   8   13.00    2.50 
   3  -3  -8   10.20    2.60 
   3  -3  -8   12.50    1.80 
  -3   3   8   12.30    2.40 
  -3   3   8   15.80    2.50 
  -3   3   8    8.30    2.10 
   2  -3  -8    0.80    1.10 
   2  -3  -8    3.90    2.10 
  -2   3   8    0.70    1.30 
   1  -3  -8   55.39    3.60 
   1  -3  -8   45.50    4.80 
  -1   3   8   51.19    4.00 
   0  -3  -8  118.59    5.40 
   0  -3  -8  108.39    7.20 
   0  -3  -8  113.19    6.10 
   0   3   8  112.59    5.90 
  -1  -3  -8    0.10    1.50 
  -1  -3  -8    1.10    1.40 
   1   3   8    2.20    1.20 
  -2  -3  -8  148.19    7.70 
   2   3   8  146.39    7.10 
   6  -4  -8   85.29    6.20 
   6  -4  -8   74.99    5.30 
  -6   4   8   69.19    5.60 
   5  -4  -8  166.98    9.10 
   5  -4  -8  168.58    7.80 
  -5   4   8  159.48    8.30 
  -5   4   8  158.58    8.20 
  -5   4   8  176.48    8.60 
   4  -4  -8   65.99    5.70 
   4  -4  -8   61.69    4.30 
  -4   4   8   62.29    5.00 
  -4   4   8   57.89    4.70 
  -4   4   8   58.39    4.80 
   3  -4  -8  391.56   12.20 
   3  -4  -8  412.06   15.80 
  -3   4   8  407.86   13.40 
  -3   4   8  404.86   13.50 
  -3   4   8  431.96   14.00 
   2  -4  -8   72.59    6.30 
   2  -4  -8   82.69    4.60 
  -2   4   8   78.89    5.30 
   1  -4  -8  431.26   14.10 
   1  -4  -8  446.56   12.50 
   1  -4  -8  426.46   16.50 
  -1   4   8  439.56   13.70 
   0  -4  -8   89.49    5.70 
   0  -4  -8   90.19    6.60 
   0   4   8   91.59    5.70 
  -1  -4  -8  295.27   11.70 
   1   4   8  299.67   11.00 
   4  -5  -8    5.90    2.40 
   4  -5  -8   10.40    2.00 
  -4   5   8   11.60    2.40 
  -4   5   8   15.40    2.80 
  -4   5   8    9.90    2.40 
   3  -5  -8    3.20    1.50 
   3  -5  -8    0.00    2.40 
  -3   5   8    1.00    1.50 
  -3   5   8    0.00    1.70 
   2  -5  -8    9.70    2.80 
   2  -5  -8   10.80    1.90 
  -2   5   8    2.80    1.60 
   1  -5  -8   45.30    5.00 
   1  -5  -8   49.90    4.30 
  -1   5   8   38.50    4.00 
  -1  12  -9   34.70    3.10 
  -2  12  -9    3.80    1.60 
  -3  12  -9    1.40    1.40 
  -4  12  -9   41.10    3.70 
   0  11  -9  108.99    5.50 
  -1  11  -9  201.88    8.00 
  -2  11  -9  147.49    6.80 
  -3  11  -9  230.08    9.00 
  -3  11  -9  235.88    8.10 
  -4  11  -9   68.99    4.20 
  -4  11  -9   56.49    4.30 
   4 -11   9   64.49    4.00 
  -5  11  -9   82.99    4.80 
  -5  11  -9   63.59    4.70 
   5 -11   9   79.29    5.30 
   5 -11   9   77.29    4.60 
   0  10  -9    3.30    1.30 
   0  10  -9    1.40    0.90 
  -1  10  -9    3.40    1.30 
  -1  10  -9    3.80    1.20 
  -2  10  -9   16.70    2.00 
  -2  10  -9   16.40    2.10 
  -3  10  -9    8.20    1.90 
  -3  10  -9    4.50    1.50 
  -3  10  -9    6.30    1.40 
  -4  10  -9   82.39    4.70 
  -4  10  -9   90.59    5.20 
  -4  10  -9   87.39    5.00 
   4 -10   9   82.39    5.10 
   4 -10   9   80.29    4.50 
  -5  10  -9    5.00    1.80 
  -5  10  -9    8.30    1.90 
  -5  10  -9    6.90    1.80 
   5 -10   9    5.40    1.40 
   5 -10   9   12.50    2.30 
  -4  -9   9    1.80    1.90 
  -3  -9   9  407.26   14.70 
   2   9  -9    3.90    1.10 
   1   9  -9  584.84   14.00 
   0   9  -9    9.40    1.50 
  -1   9  -9  264.97    8.30 
  -1   9  -9  275.17    9.20 
  -2   9  -9    0.00    1.00 
  -2   9  -9    2.40    1.20 
  -2   9  -9    1.40    0.90 
  -3   9  -9  669.13   16.90 
  -3   9  -9  683.43   16.60 
  -3   9  -9  694.53   16.00 
   3  -9   9  660.43   16.80 
  -4   9  -9    1.30    1.20 
  -4   9  -9    3.50    1.30 
  -4   9  -9    2.50    1.30 
   4  -9   9    2.50    1.30 
   4  -9   9    2.70    1.10 
  -5   9  -9  254.27    9.70 
  -5   9  -9  258.47   11.40 
  -5   9  -9  264.47    9.60 
  -5   9  -9  262.87    9.40 
   5  -9   9  259.37    9.80 
   5  -9   9  268.27    9.30 
  -6   9  -9   10.20    2.10 
  -6   9  -9    9.70    2.70 
  -6   9  -9   11.60    2.30 
  -6   9  -9   15.80    2.30 
   6  -9   9   13.50    2.20 
   6  -9   9   14.80    2.40 
  -5  -8   9   10.90    2.70 
   4   8  -9  101.19    4.90 
  -4  -8   9   84.89    6.40 
   3   8  -9    5.30    1.10 
  -3  -8   9    2.20    1.70 
   2   8  -9   24.80    2.20 
  -2  -8   9   17.90    2.70 
   1   8  -9  112.89    4.90 
   0   8  -9    5.00    1.20 
  -1   8  -9    0.00    0.90 
  -1   8  -9    0.20    0.80 
  -2   8  -9   41.00    3.10 
  -2   8  -9   44.00    3.10 
  -2   8  -9   40.30    3.00 
   2  -8   9   42.60    3.10 
  -3   8  -9   24.30    2.30 
  -3   8  -9   24.20    2.50 
  -3   8  -9   20.10    2.30 
   3  -8   9   24.90    2.40 
  -4   8  -9   63.39    4.10 
  -4   8  -9   69.39    4.20 
  -4   8  -9   63.19    4.00 
   4  -8   9   65.69    4.20 
   4  -8   9   65.69    4.00 
  -5   8  -9    1.50    2.00 
  -5   8  -9    2.70    1.40 
  -5   8  -9    2.30    1.30 
  -5   8  -9    3.50    1.50 
   5  -8   9    5.50    1.70 
   5  -8   9    2.90    1.40 
  -6   8  -9  144.29    6.70 
  -6   8  -9  133.19    6.90 
  -6   8  -9  127.49    6.60 
  -6   8  -9  145.89    8.50 
   6  -8   9  145.39    7.10 
   6  -8   9  140.99    6.60 
   5   7  -9   90.59    5.00 
  -5  -7   9   82.29    6.20 
   4   7  -9   92.79    4.70 
  -4  -7   9   79.69    6.00 
   3   7  -9  630.14   14.80 
  -3  -7   9  626.24   18.80 
   2   7  -9  181.18    6.50 
  -2  -7   9  189.88    8.70 
   1   7  -9  621.74   14.10 
   1   7  -9  588.74   13.90 
  -1  -7   9  608.14   17.90 
   0   7  -9  228.68    7.40 
   0   7  -9  218.08    7.30 
   0  -7   9  214.78    9.20 
  -1   7  -9  298.67    9.00 
  -1   7  -9  292.27    8.80 
   1  -7   9  289.17    8.80 
  -2   7  -9   13.30    1.80 
  -2   7  -9   13.40    1.70 
   2  -7   9   14.60    1.80 
  -3   7  -9 1051.59   21.50 
  -3   7  -9 1066.69   22.50 
  -3   7  -9 1052.89   22.50 
   3  -7   9 1074.29   22.80 
  -4   7  -9   24.90    3.00 
  -4   7  -9   22.50    2.60 
  -4   7  -9   26.70    2.60 
  -4   7  -9   26.50    2.70 
   4  -7   9   23.90    2.50 
   4  -7   9   24.90    2.60 
  -5   7  -9  371.86   13.50 
  -5   7  -9  355.56   11.10 
  -5   7  -9  342.97   11.30 
  -5   7  -9  360.56   11.20 
   5  -7   9  351.06   11.10 
   5  -7   9  358.36   11.60 
  -6   7  -9    6.40    2.00 
  -6   7  -9   14.30    3.10 
  -6   7  -9    8.80    2.10 
   6  -7   9   10.20    2.10 
   6  -7   9   10.40    2.10 
   6   6  -9   61.09    4.30 
  -6  -6   9   61.89    5.40 
   5   6  -9   26.80    2.60 
  -5  -6   9   25.00    3.30 
   4   6  -9   36.30    2.90 
  -4  -6   9   36.20    3.80 
   3   6  -9   32.80    2.50 
  -3  -6   9   28.30    3.40 
   2   6  -9   30.50    2.40 
   2   6  -9   30.40    2.20 
  -2  -6   9   29.90    3.30 
   1   6  -9   69.29    3.70 
   1   6  -9   65.69    3.50 
  -1  -6   9   71.69    4.90 
   0   6  -9    4.10    1.30 
   0   6  -9    3.30    0.90 
   0  -6   9    2.50    0.90 
   0  -6   9    0.10    1.10 
  -1   6  -9    1.60    0.80 
  -1   6  -9    0.20    0.80 
   1  -6   9    0.70    0.80 
   1  -6   9    0.50    1.10 
  -2   6  -9   52.69    3.40 
  -2   6  -9   53.99    3.30 
   2  -6   9   55.09    3.50 
  -3   6  -9   22.50    2.20 
  -3   6  -9   17.40    2.10 
   3  -6   9   22.90    2.30 
  -4   6  -9  113.39    6.20 
  -4   6  -9  111.49    5.20 
  -4   6  -9  106.69    5.20 
  -4   6  -9  102.69    5.40 
   4  -6   9  113.59    5.50 
  -5   6  -9   14.20    1.90 
  -5   6  -9   13.00    2.00 
  -5   6  -9   10.40    2.10 
  -5   6  -9   13.50    2.60 
   5  -6   9    8.80    1.70 
   5  -6   9   10.30    2.00 
  -6   6  -9  237.28    9.00 
  -6   6  -9  258.77   11.40 
  -6   6  -9  239.38    9.40 
   6  -6   9  238.88   10.50 
   6  -6   9  238.78    9.50 
   6  -6   9  234.98    9.10 
   6   5  -9  116.39    6.00 
  -6  -5   9  113.99    7.10 
   5   5  -9   73.79    5.20 
   5   5  -9   68.59    4.30 
  -5  -5   9   65.19    5.00 
   4   5  -9  243.28   10.10 
   4   5  -9  242.18    8.10 
  -4  -5   9  231.48   10.00 
   3   5  -9  430.96   11.30 
   3   5  -9  449.06   11.50 
  -3  -5   9  441.96   14.60 
   2   5  -9  164.98    6.00 
   2   5  -9  159.88    5.90 
  -2  -5   9  163.08    7.80 
   1   5  -9  482.45   12.10 
   1   5  -9  477.35   11.80 
  -1  -5   9  460.45   14.30 
   0   5  -9  331.17    9.40 
   0   5  -9  313.27    9.10 
   0  -5   9  310.77   10.60 
   0  -5   9  310.67    9.10 
  -1   5  -9  350.56   10.20 
  -1   5  -9  363.66    9.70 
   1  -5   9  348.87   10.10 
   1  -5   9  346.27   11.10 
  -2   5  -9   42.50    2.90 
  -2   5  -9   41.00    3.00 
   2  -5   9   41.70    3.00 
  -3   5  -9  815.12   17.70 
  -3   5  -9  863.41   23.00 
  -3   5  -9  792.42   18.70 
   3  -5   9  812.92   18.90 
  -4   5  -9    2.70    1.30 
  -4   5  -9    4.20    1.40 
  -4   5  -9    1.40    1.10 
  -4   5  -9    0.60    1.40 
   4  -5   9    1.90    1.00 
  -5   5  -9  187.68    7.80 
  -5   5  -9  184.58    7.50 
  -5   5  -9  188.78    9.00 
   5  -5   9  196.48    7.90 
  -6   5  -9   10.70    2.10 
  -6   5  -9    8.80    2.40 
  -6   5  -9    7.60    1.60 
   6  -5   9    9.30    1.80 
   6   4  -9    2.70    1.30 
  -6  -4   9    3.60    1.90 
   5   4  -9   22.10    2.50 
   5   4  -9   21.10    3.00 
  -5  -4   9   23.60    3.10 
   4   4  -9   17.50    2.70 
   4   4  -9   19.90    2.20 
   4   4  -9   14.00    1.70 
  -4  -4   9   12.30    2.40 
   3   4  -9   30.40    3.40 
   3   4  -9   28.50    2.40 
   3   4  -9   28.10    2.30 
  -3  -4   9   25.50    3.30 
   2   4  -9   22.30    2.60 
   2   4  -9   25.30    2.40 
   2   4  -9   21.00    3.40 
  -2  -4   9   18.50    3.20 
   1   4  -9    0.90    0.90 
   1   4  -9    2.10    1.60 
   1   4  -9    1.40    0.90 
  -1  -4   9    0.00    0.70 
  -1  -4   9    1.70    1.30 
   0   4  -9   42.80    3.20 
   0   4  -9   41.00    3.20 
   0   4  -9   44.60    4.10 
   0  -4   9   47.60    3.10 
   0  -4   9   50.69    3.70 
  -1   4  -9   19.80    2.00 
  -1   4  -9   23.90    3.10 
  -1   4  -9   17.90    1.90 
   1  -4   9   16.50    1.90 
  -2   4  -9   72.59    5.30 
  -2   4  -9   63.39    3.80 
  -2   4  -9   64.39    3.50 
   2  -4   9   65.79    3.80 
  -3   4  -9  119.59    5.20 
  -3   4  -9  124.89    5.70 
  -3   4  -9  120.59    6.00 
   3  -4   9  126.89    5.80 
  -4   4  -9   78.59    4.30 
  -4   4  -9   79.99    4.60 
  -4   4  -9   83.09    5.10 
   4  -4   9   81.59    4.70 
  -5   4  -9  111.79    5.80 
  -5   4  -9  110.49    5.50 
  -5   4  -9  113.69    6.60 
   5  -4   9  110.39    5.80 
   7   3  -9   34.40    3.50 
  -7  -3   9   36.20    4.00 
   6   3  -9   93.09    5.30 
   6   3  -9   88.19    5.10 
  -6  -3   9   97.79    6.20 
   5   3  -9   52.69    4.80 
   5   3  -9   62.59    4.00 
   5   3  -9   60.59    3.90 
  -5  -3   9   55.49    4.80 
   4   3  -9  374.16   10.70 
   4   3  -9  354.96   10.30 
   4   3  -9  374.36   13.50 
  -4  -3   9  361.86   13.30 
   3   3  -9  259.97    8.30 
   3   3  -9  263.67   10.80 
   3   3  -9  261.27    8.10 
  -3  -3   9  268.57   10.60 
   2   3  -9  388.26   10.30 
   2   3  -9  375.86   13.50 
   2   3  -9  398.46   10.80 
  -2  -3   9  386.76   12.80 
  -2  -3   9  401.66   10.80 
   1   3  -9  234.38    7.70 
   1   3  -9  229.58    7.30 
  -1  -3   9  228.78    8.90 
  -1  -3   9  237.28    7.70 
   0   3  -9 1215.48   29.80 
   0   3  -9 1218.48   24.10 
   0   3  -9 1225.98   23.00 
   0  -3   9 1211.58   24.50 
  -1   3  -9  118.39    7.20 
  -1   3  -9  116.59    4.80 
  -1   3  -9  109.59    5.10 
   1  -3   9  117.99    5.20 
  -2   3  -9  420.36   15.70 
  -2   3  -9  409.06   10.80 
  -2   3  -9  413.26   11.60 
   2  -3   9  419.06   11.90 
  -3   3  -9  196.98    7.40 
  -3   3  -9  189.98    8.00 
  -3   3  -9  196.38    6.90 
   3  -3   9  198.88    7.70 
  -4   3  -9   79.69    4.60 
  -4   3  -9   75.59    4.30 
  -4   3  -9   74.79    5.00 
   4  -3   9   78.99    4.70 
  -5   3  -9   82.59    4.80 
  -5   3  -9   86.59    5.10 
  -5   3  -9   84.49    5.80 
   5  -3   9   90.59    5.30 
   7   2  -9  119.59    6.30 
   7   2  -9  124.09    6.60 
  -7  -2   9  120.19    7.30 
   6   2  -9   13.10    2.00 
   6   2  -9   14.00    2.20 
  -6  -2   9   11.40    2.80 
   5   2  -9   96.49    6.30 
   5   2  -9   98.29    5.20 
   5   2  -9  103.09    5.10 
  -5  -2   9   97.79    6.50 
   4   2  -9   25.10    3.40 
   4   2  -9   40.00    3.00 
   4   2  -9   32.80    2.80 
  -4  -2   9   28.20    3.90 
   3   2  -9   38.40    3.90 
   3   2  -9   37.30    2.60 
   3   2  -9   36.20    2.70 
  -3  -2   9   34.30    3.40 
  -3  -2   9   37.20    2.90 
   2   2  -9   10.70    2.20 
   2   2  -9   13.00    1.60 
   2   2  -9   10.50    1.40 
  -2  -2   9   11.40    1.60 
  -2  -2   9   12.10    2.10 
   1   2  -9   37.40    2.50 
   1   2  -9   36.20    3.80 
   1   2  -9   39.90    2.80 
  -1  -2   9   33.20    2.60 
  -1  -2   9   38.20    3.30 
   0   2  -9  115.49    7.20 
   0   2  -9  118.89    5.20 
   0   2  -9  116.59    4.80 
   0  -2   9  115.29    5.20 
  -1   2  -9   62.99    3.70 
  -1   2  -9   65.29    5.40 
  -1   2  -9   64.59    3.40 
   1  -2   9   61.19    3.80 
  -2   2  -9    0.70    0.90 
  -2   2  -9    0.40    0.80 
  -2   2  -9    4.60    2.20 
   2  -2   9    1.70    1.00 
  -3   2  -9  157.88    6.10 
  -3   2  -9  161.58    7.40 
  -3   2  -9  159.38    6.70 
   3  -2   9  157.78    7.00 
  -4   2  -9   31.20    3.20 
  -4   2  -9   23.50    2.50 
  -4   2  -9   25.70    2.50 
   4  -2   9   26.40    2.90 
  -5   2  -9   97.09    5.40 
  -5   2  -9   98.39    6.30 
   5  -2   9   93.59    5.60 
   7   1  -9    8.90    1.80 
  -7  -1   9    4.60    2.10 
   6   1  -9  149.39    7.00 
   6   1  -9  148.39    8.00 
   6   1  -9  144.99    6.70 
  -6  -1   9  143.79    8.10 
   5   1  -9    0.00    1.00 
   5   1  -9    3.60    1.90 
   5   1  -9    0.00    1.20 
  -5  -1   9    0.00    1.60 
   4   1  -9  702.03   15.90 
   4   1  -9  704.43   16.90 
   4   1  -9  682.13   20.60 
  -4  -1   9  700.33   20.20 
   3   1  -9    4.40    1.10 
   3   1  -9    4.70    1.90 
   3   1  -9    0.70    1.00 
  -3  -1   9    1.00    1.40 
  -3  -1   9    1.30    1.10 
   2   1  -9  646.44   15.70 
   2   1  -9  641.64   20.10 
   2   1  -9  653.63   14.60 
  -2  -1   9  675.83   16.20 
  -2  -1   9  676.93   18.20 
   1   1  -9   12.70    1.70 
   1   1  -9   17.70    3.00 
   1   1  -9   15.80    1.60 
  -1  -1   9   14.30    1.90 
   0   1  -9 1313.97   25.90 
   0   1  -9 1318.07   24.20 
   0   1  -9 1356.76   33.40 
   0  -1   9 1314.17   26.80 
  -1   1  -9   17.10    1.80 
  -1   1  -9   16.90    3.10 
  -1   1  -9   19.10    2.00 
   1  -1   9   18.60    2.10 
  -2   1  -9  480.85   14.30 
  -2   1  -9  474.85   12.90 
  -2   1  -9  478.05   16.70 
  -2   1  -9  460.85   11.80 
   2  -1   9  492.75   13.60 
  -3   1  -9   31.50    3.20 
  -3   1  -9   33.80    2.90 
   3  -1   9   36.20    3.10 
  -4   1  -9  139.59    7.60 
  -4   1  -9  150.08    6.80 
   4  -1   9  142.49    6.80 
   7   0  -9  167.98    7.70 
   7   0  -9  165.48    7.90 
  -7   0   9  188.08    9.40 
   6   0  -9    2.50    1.20 
   6   0  -9    1.70    1.20 
   6   0  -9    3.10    1.40 
  -6   0   9    1.70    1.80 
   5   0  -9   89.69    4.80 
   5   0  -9   83.09    6.00 
   5   0  -9   92.59    5.20 
  -5   0   9   89.09    6.20 
   4   0  -9   12.20    2.50 
   4   0  -9    8.20    1.60 
   4   0  -9   11.50    1.70 
  -4   0   9    8.10    1.90 
  -4   0   9    7.50    1.70 
   3   0  -9    4.50    1.00 
   3   0  -9    3.90    1.20 
   3   0  -9    6.50    2.30 
  -3   0   9    4.70    1.60 
  -3   0   9    4.50    1.40 
   2   0  -9   29.50    3.80 
   2   0  -9   29.60    2.50 
   2   0  -9   32.40    2.40 
  -2   0   9   32.40    3.30 
  -2   0   9   25.10    2.60 
   1   0  -9   36.90    2.80 
   1   0  -9   35.10    2.40 
   1   0  -9   39.30    4.30 
  -1   0   9   38.40    3.10 
   0   0  -9   50.69    5.10 
   0   0  -9   53.79    3.50 
   0   0  -9   59.99    3.20 
   0   0   9   58.69    3.90 
  -1   0  -9   37.90    2.90 
  -1   0  -9   33.80    4.10 
   1   0   9   38.70    3.20 
  -2   0  -9   17.30    2.30 
  -2   0  -9   13.00    1.80 
   2   0   9   16.90    2.30 
  -3   0  -9  126.79    6.80 
  -3   0  -9  126.99    5.90 
   3   0   9  116.69    6.20 
   6  -1  -9  196.18    8.70 
   6  -1  -9  206.58    9.80 
   6  -1  -9  203.28    8.10 
  -6   1   9  206.38   10.20 
   5  -1  -9   67.49    4.60 
   5  -1  -9   66.99    5.50 
   5  -1  -9   77.09    4.40 
  -5   1   9   67.29    5.60 
  -5   1   9   67.59    4.90 
   4  -1  -9  456.75   11.80 
   4  -1  -9  437.06   15.80 
   4  -1  -9  432.16   12.80 
  -4   1   9  428.16   13.30 
  -4   1   9  446.16   14.80 
   3  -1  -9   38.40    2.60 
   3  -1  -9   38.90    3.10 
   3  -1  -9   38.00    4.00 
  -3   1   9   37.90    3.40 
  -3   1   9   41.30    3.70 
   2  -1  -9  235.98    8.30 
   2  -1  -9  246.38   11.60 
  -2   1   9  247.18    9.10 
  -2   1   9  241.18    9.80 
   1  -1  -9    5.70    2.30 
   1  -1  -9    8.50    1.50 
  -1   1   9    5.80    1.60 
   0  -1  -9  505.55   13.20 
   0  -1  -9  461.35   17.30 
   0   1   9  507.65   14.20 
  -1  -1  -9    0.70    1.00 
  -1  -1  -9    0.90    1.70 
   1   1   9    4.40    1.50 
  -2  -1  -9  339.97   12.20 
  -2  -1  -9  346.17   10.70 
   2   1   9  341.47   11.50 
  -3  -1  -9    0.10    1.40 
   3   1   9    2.00    1.30 
   6  -2  -9    5.00    1.80 
   6  -2  -9    2.30    1.30 
   6  -2  -9    3.20    1.50 
  -6   2   9    4.10    2.00 
   5  -2  -9   13.60    2.30 
   5  -2  -9   11.60    1.70 
   5  -2  -9   10.00    2.40 
  -5   2   9    7.80    2.00 
  -5   2   9   13.50    2.50 
  -5   2   9    9.40    2.20 
   4  -2  -9    2.50    1.30 
   4  -2  -9    3.90    1.80 
  -4   2   9    4.50    1.70 
  -4   2   9    1.50    1.40 
   3  -2  -9    3.20    1.30 
   3  -2  -9    1.10    1.70 
  -3   2   9    5.10    1.80 
  -3   2   9    1.50    1.60 
   2  -2  -9   15.80    3.20 
   2  -2  -9   17.30    2.20 
  -2   2   9   13.90    2.40 
   1  -2  -9   19.50    3.50 
   1  -2  -9   25.90    2.40 
  -1   2   9   23.70    2.80 
   0  -2  -9    3.70    1.20 
   0  -2  -9    3.80    2.30 
   0   2   9    4.80    1.70 
  -1  -2  -9  129.59    5.90 
  -1  -2  -9  122.79    6.60 
  -1  -2  -9  125.99    7.80 
   1   2   9  125.39    6.50 
  -2  -2  -9   63.99    4.80 
   2   2   9   57.39    4.60 
   5  -3  -9   47.90    4.70 
   5  -3  -9   46.80    4.00 
  -5   3   9   40.00    4.30 
  -5   3   9   52.89    4.80 
  -5   3   9   41.90    4.30 
   4  -3  -9  249.18   11.50 
   4  -3  -9  241.98    9.30 
  -4   3   9  232.78   10.00 
  -4   3   9  241.38   10.50 
   3  -3  -9   73.59    6.10 
   3  -3  -9   77.79    4.70 
  -3   3   9   62.69    5.00 
  -3   3   9   74.39    5.40 
   2  -3  -9  188.78    7.60 
   2  -3  -9  186.08   10.30 
  -2   3   9  188.88    8.50 
   1  -3  -9   45.60    3.40 
   1  -3  -9   36.20    4.50 
  -1   3   9   37.90    3.80 
   0  -3  -9  257.37    9.10 
   0  -3  -9  249.58   12.20 
   0   3   9  255.77    9.90 
   3  -4  -9    2.40    2.60 
   3  -4  -9    0.00    1.40 
  -3   4   9    0.00    1.50 
  -3   4   9    3.20    2.30 
   2  -4  -9    1.80    1.30 
   2  -4  -9    4.50    2.30 
  -1  12 -10   42.40    3.60 
  -2  12 -10  247.78    9.80 
   0  11 -10    0.00    1.20 
  -1  11 -10   10.20    2.10 
  -1  11 -10   10.70    1.70 
  -2  11 -10   64.09    3.90 
  -2  11 -10   58.99    4.30 
  -3  11 -10   56.49    3.80 
  -3  11 -10   54.29    4.10 
  -4  11 -10    0.70    1.40 
  -4  11 -10    1.30    1.00 
  -4  11 -10    1.50    1.20 
   1  10 -10    0.00    1.10 
   0  10 -10  480.25   12.40 
   0  10 -10  457.05   13.30 
  -1  10 -10    8.30    1.80 
  -1  10 -10   10.50    1.70 
  -2  10 -10  363.76   11.50 
  -2  10 -10  346.27   10.50 
  -3  10 -10    5.10    1.40 
  -3  10 -10    6.40    1.50 
  -3  10 -10    3.20    1.40 
  -4  10 -10  136.49    6.50 
  -4  10 -10  134.49    6.60 
  -4  10 -10  124.99    6.10 
   4 -10  10  126.39    6.50 
  -5  10 -10    1.20    1.30 
  -5  10 -10    2.40    1.20 
  -5  10 -10    0.00    1.60 
   5 -10  10    2.30    1.40 
   5 -10  10    0.60    1.20 
  -4  -9  10    9.30    2.80 
   3   9 -10   86.39    4.40 
  -3  -9  10   73.09    5.90 
   2   9 -10    0.00    1.00 
   1   9 -10    9.90    1.70 
   0   9 -10    3.80    1.10 
  -1   9 -10   10.00    1.50 
  -2   9 -10    2.80    1.10 
  -2   9 -10    1.30    1.10 
  -2   9 -10    0.60    1.00 
  -3   9 -10   47.40    3.60 
  -3   9 -10   53.69    3.70 
  -3   9 -10   58.19    4.00 
   3  -9  10   56.89    3.90 
  -4   9 -10    5.30    1.60 
  -4   9 -10    3.90    1.40 
  -4   9 -10    0.30    1.00 
   4  -9  10    2.90    1.40 
  -5   9 -10   86.19    5.20 
  -5   9 -10   86.29    5.30 
  -5   9 -10   88.39    5.40 
   5  -9  10   95.09    5.60 
   5  -9  10   97.39    5.30 
   4   8 -10  129.49    5.80 
  -4  -8  10  123.09    7.60 
   3   8 -10  163.68    6.50 
  -3  -8  10  153.98    8.40 
   2   8 -10   93.49    4.60 
  -2  -8  10   89.89    6.00 
   1   8 -10  180.78    6.70 
   0   8 -10  703.93   16.20 
   0   8 -10  681.33   15.90 
  -1   8 -10   88.69    4.50 
  -1   8 -10   83.49    4.50 
  -2   8 -10  352.06   10.30 
  -2   8 -10  347.17   10.70 
   2  -8  10  354.16   10.70 
  -3   8 -10   72.19    4.20 
  -3   8 -10   74.29    4.40 
  -3   8 -10   67.69    4.20 
   3  -8  10   61.99    4.10 
  -4   8 -10   69.59    4.40 
  -4   8 -10   67.79    4.20 
  -4   8 -10   70.69    4.50 
   4  -8  10   66.69    4.40 
  -5   8 -10    7.30    2.00 
  -5   8 -10    9.30    1.80 
  -5   8 -10    7.20    1.90 
   5  -8  10    8.50    1.90 
   5  -8  10   16.60    2.30 
   5   7 -10   28.20    2.90 
  -5  -7  10   33.10    3.80 
   4   7 -10   75.69    4.40 
  -4  -7  10   79.59    5.80 
   3   7 -10   34.60    2.90 
  -3  -7  10   42.00    4.20 
   2   7 -10    2.20    1.00 
  -2  -7  10    2.70    1.70 
   1   7 -10    1.50    0.70 
   1   7 -10    2.30    1.20 
  -1  -7  10    2.10    1.80 
   0   7 -10   19.20    2.00 
   0   7 -10   14.60    1.90 
   0  -7  10   19.90    2.80 
  -1   7 -10   12.80    1.80 
  -1   7 -10   13.00    1.80 
   1  -7  10   13.40    1.70 
  -2   7 -10   11.10    1.80 
  -2   7 -10   11.50    1.70 
   2  -7  10   10.40    1.70 
  -3   7 -10  142.39    6.20 
  -3   7 -10  132.59    6.20 
   3  -7  10  147.09    6.40 
  -4   7 -10    1.30    1.10 
  -4   7 -10    1.70    1.30 
  -4   7 -10    2.60    1.20 
   4  -7  10    1.70    1.10 
  -5   7 -10  180.58    7.90 
  -5   7 -10  178.48    7.50 
  -5   7 -10  183.18    7.70 
   5  -7  10  190.68    8.00 
   5   6 -10  173.58    8.90 
   5   6 -10  184.08    7.50 
  -5  -6  10  176.88    9.00 
   4   6 -10   97.49    6.20 
   4   6 -10  104.19    5.20 
  -4  -6  10   92.49    6.20 
   3   6 -10  323.97    9.70 
  -3  -6  10  323.57   12.40 
   2   6 -10  204.18    7.00 
   2   6 -10  187.98    6.80 
  -2  -6  10  196.98    9.20 
   1   6 -10  172.98    6.50 
   1   6 -10  170.58    6.40 
  -1  -6  10  169.98    8.10 
   0   6 -10  974.20   20.80 
   0   6 -10  976.80   20.00 
   0  -6  10  954.20   23.70 
  -1   6 -10   56.19    3.60 
  -1   6 -10   53.59    3.40 
   1  -6  10   57.49    3.90 
   1  -6  10   54.69    3.40 
  -2   6 -10  350.96   10.60 
  -2   6 -10  347.87   10.10 
   2  -6  10  347.47   10.60 
  -3   6 -10  266.77   11.40 
  -3   6 -10  246.08    8.40 
  -3   6 -10  238.58    8.70 
   3  -6  10  240.58    8.80 
  -4   6 -10   31.00    2.80 
  -4   6 -10   28.60    2.90 
  -4   6 -10   32.30    2.90 
   4  -6  10   28.60    2.90 
  -5   6 -10   38.50    3.20 
  -5   6 -10   35.20    3.30 
  -5   6 -10   35.00    3.30 
  -5   6 -10   31.80    3.50 
   5  -6  10   38.00    3.40 
   6   5 -10   78.39    5.00 
  -6  -5  10   68.39    5.50 
   5   5 -10   25.60    2.60 
   5   5 -10   24.80    3.30 
  -5  -5  10   21.30    3.00 
   4   5 -10   76.59    4.30 
   4   5 -10   75.19    5.60 
  -4  -5  10   68.79    5.30 
   3   5 -10   18.80    1.90 
   3   5 -10   18.70    2.00 
   3   5 -10   20.20    2.90 
  -3  -5  10   17.80    2.90 
   2   5 -10    5.50    1.20 
   2   5 -10    6.30    1.30 
   2   5 -10    4.80    1.80 
  -2  -5  10    6.00    1.80 
   1   5 -10    8.40    1.70 
   1   5 -10    9.70    2.80 
   1   5 -10    8.30    1.90 
  -1  -5  10    6.60    1.80 
   0   5 -10   15.70    1.90 
   0   5 -10   16.90    2.70 
   0   5 -10   16.70    1.90 
   0  -5  10   13.30    1.80 
   0  -5  10   14.60    2.20 
  -1   5 -10   29.40    2.50 
  -1   5 -10   33.70    3.70 
  -1   5 -10   33.70    2.70 
   1  -5  10   30.50    2.50 
   1  -5  10   29.90    2.90 
  -2   5 -10   60.99    3.70 
  -2   5 -10   59.79    3.80 
  -2   5 -10   68.59    5.50 
   2  -5  10   60.69    3.80 
  -3   5 -10  165.88    7.00 
  -3   5 -10  168.68    6.60 
   3  -5  10  172.88    7.10 
  -4   5 -10   34.00    2.90 
  -4   5 -10   31.30    2.80 
  -4   5 -10   33.00    3.00 
   4  -5  10   31.10    3.00 
  -5   5 -10   84.39    5.20 
  -5   5 -10   90.69    5.90 
  -5   5 -10   90.89    5.10 
   6   4 -10    2.90    1.50 
  -6  -4  10    3.60    2.00 
   5   4 -10  225.98    8.30 
   5   4 -10  207.88    8.00 
   5   4 -10  222.28   10.20 
  -5  -4  10  212.78    9.90 
   4   4 -10  136.99    5.90 
   4   4 -10  126.69    7.50 
   4   4 -10  131.79    5.80 
  -4  -4  10  124.99    7.40 
   3   4 -10  301.97    9.30 
   3   4 -10  305.77    9.20 
   3   4 -10  294.47   11.90 
  -3  -4  10  297.67   11.70 
   2   4 -10  223.68    7.50 
   2   4 -10  230.18    7.90 
   2   4 -10  227.38   10.00 
  -2  -4  10  230.08    9.60 
   1   4 -10  250.27    7.90 
   1   4 -10  240.88    8.20 
   1   4 -10  246.58   10.40 
  -1  -4  10  243.88    9.60 
  -1  -4  10  238.88    8.10 
   0   4 -10  430.76   11.00 
   0   4 -10  380.26   14.10 
   0   4 -10  395.16   11.30 
   0  -4  10  393.76   11.30 
   0  -4  10  393.56   12.80 
  -1   4 -10  169.98    6.40 
  -1   4 -10  165.58    6.70 
  -1   4 -10  181.88    9.10 
   1  -4  10  167.68    6.80 
  -2   4 -10   84.99    4.20 
  -2   4 -10   85.39    6.40 
  -2   4 -10   76.79    4.40 
   2  -4  10   76.69    4.40 
  -3   4 -10  463.95   12.40 
  -3   4 -10  478.85   13.30 
   3  -4  10  469.95   13.40 
  -4   4 -10    7.30    1.60 
  -4   4 -10    7.00    1.50 
   4  -4  10    8.30    1.70 
  -5   4 -10   55.99    3.90 
  -5   4 -10   55.09    4.70 
  -5   4 -10   59.49    4.30 
   6   3 -10   70.09    4.70 
   6   3 -10   59.49    4.40 
  -6  -3  10   64.69    5.40 
   5   3 -10   25.60    2.70 
   5   3 -10   16.60    3.70 
   5   3 -10   29.80    2.90 
  -5  -3  10   25.40    4.20 
   4   3 -10   67.69    5.50 
   4   3 -10   64.79    3.90 
   4   3 -10   66.49    4.00 
  -4  -3  10   68.79    5.40 
   3   3 -10   13.90    1.80 
   3   3 -10   16.90    2.20 
  -3  -3  10   11.30    2.80 
   2   3 -10    3.50    1.90 
   2   3 -10    3.70    1.20 
   2   3 -10    6.30    1.20 
  -2  -3  10    2.80    1.00 
  -2  -3  10    4.40    1.80 
   1   3 -10    9.70    1.40 
   1   3 -10   11.40    1.70 
   1   3 -10   11.60    2.50 
  -1  -3  10   10.60    1.90 
  -1  -3  10    8.70    1.60 
   0   3 -10   43.60    2.90 
   0   3 -10   43.60    3.10 
   0   3 -10   43.80    4.50 
   0  -3  10   46.00    3.70 
   0  -3  10   47.50    3.30 
  -1   3 -10    0.00    2.20 
  -1   3 -10    0.00    0.90 
  -1   3 -10    2.00    1.00 
   1  -3  10    1.40    1.10 
  -2   3 -10  118.09    5.60 
  -2   3 -10  115.19    7.80 
  -2   3 -10  113.89    5.10 
   2  -3  10  119.49    5.80 
  -3   3 -10   32.80    3.00 
  -3   3 -10   31.60    2.80 
   3  -3  10   35.30    3.10 
  -4   3 -10   62.89    4.60 
  -4   3 -10   57.59    4.10 
  -4   3 -10   61.39    3.90 
   4  -3  10   58.39    4.30 
   6   2 -10    5.70    1.80 
   6   2 -10    1.50    1.20 
   6   2 -10    1.60    1.90 
  -6  -2  10    6.30    2.10 
   5   2 -10  254.07    8.90 
   5   2 -10  251.97    9.30 
   5   2 -10  264.47   11.40 
  -5  -2  10  238.18   11.20 
   4   2 -10    0.00    1.00 
   4   2 -10    2.50    1.30 
   4   2 -10    1.20    1.60 
  -4  -2  10    2.90    1.80 
   3   2 -10  481.55   16.60 
   3   2 -10  443.96   12.50 
   3   2 -10  459.05   12.00 
  -3  -2  10  477.15   15.50 
   2   2 -10    4.90    1.20 
   2   2 -10    4.60    1.00 
   2   2 -10    6.00    2.30 
  -2  -2  10    4.00    1.30 
  -2  -2  10    3.60    1.80 
   1   2 -10  491.15   17.00 
   1   2 -10  456.05   12.40 
   1   2 -10  450.65   11.60 
  -1  -2  10  453.85   14.30 
  -1  -2  10  441.76   12.80 
   0   2 -10    0.00    1.00 
   0   2 -10    1.90    2.00 
   0   2 -10    1.30    0.90 
   0  -2  10    0.00    1.00 
  -1   2 -10  251.07   12.10 
  -1   2 -10  247.18    8.50 
  -1   2 -10  241.98    7.80 
   1  -2  10  237.18    8.70 
  -2   2 -10   21.00    2.30 
  -2   2 -10   21.00    2.10 
  -2   2 -10   25.50    4.00 
   2  -2  10   18.60    2.40 
  -3   2 -10  292.37    9.30 
  -3   2 -10  303.57   10.20 
   3  -2  10  311.07   10.70 
  -4   2 -10   12.30    2.00 
  -4   2 -10   13.20    2.40 
   4  -2  10   11.00    2.10 
   6   1 -10   74.79    5.00 
   6   1 -10   70.09    4.70 
   6   1 -10   75.59    5.90 
  -6  -1  10   73.59    6.00 
   5   1 -10   10.90    1.90 
   5   1 -10   13.00    2.70 
   5   1 -10   12.90    2.00 
  -5  -1  10   11.90    2.40 
   4   1 -10   27.70    2.70 
   4   1 -10   24.20    3.70 
   4   1 -10   29.10    2.60 
  -4  -1  10   22.30    3.30 
   3   1 -10   13.00    2.80 
   3   1 -10   11.30    1.60 
   3   1 -10    8.80    1.50 
  -3  -1  10    8.80    1.80 
  -3  -1  10   11.80    2.40 
   2   1 -10    3.30    1.90 
   2   1 -10    1.60    1.00 
   2   1 -10    0.00    1.00 
  -2  -1  10    0.20    1.50 
  -2  -1  10    0.00    1.20 
   1   1 -10   42.30    4.50 
   1   1 -10   33.10    2.50 
   1   1 -10   30.80    2.70 
  -1  -1  10   29.30    2.80 
  -1  -1  10   36.20    3.40 
   0   1 -10   49.90    5.10 
   0   1 -10   52.49    3.10 
   0   1 -10   52.39    3.50 
   0  -1  10   51.79    3.70 
  -1   1 -10    4.80    2.00 
  -1   1 -10    6.10    1.40 
   1  -1  10    4.80    1.40 
  -2   1 -10   98.99    5.20 
   2  -1  10   95.79    5.50 
  -3   1 -10   33.60    3.10 
   3  -1  10   27.50    3.10 
   6   0 -10   68.59    4.90 
   6   0 -10   75.29    5.70 
   6   0 -10   63.89    4.40 
  -6   0  10   69.59    5.90 
   5   0 -10  163.58    8.90 
   5   0 -10  157.18    6.80 
   5   0 -10  163.68    7.50 
  -5   0  10  173.58    9.20 
   4   0 -10   71.09    4.50 
   4   0 -10   81.89    6.10 
   4   0 -10   75.39    4.20 
  -4   0  10   66.59    4.80 
  -4   0  10   78.59    5.70 
   3   0 -10  456.25   13.10 
   3   0 -10  458.65   11.90 
   3   0 -10  471.75   16.70 
  -3   0  10  441.96   14.90 
  -3   0  10  453.95   13.60 
   2   0 -10   32.70    2.80 
   2   0 -10   30.90    2.50 
   2   0 -10   35.80    4.30 
  -2   0  10   27.10    3.00 
  -2   0  10   34.40    3.50 
   1   0 -10  556.14   19.30 
   1   0 -10  529.85   14.30 
  -1   0  10  551.74   15.10 
   0   0 -10    5.60    1.50 
   0   0 -10    1.80    2.30 
   0   0  10    5.20    1.70 
  -1   0 -10  277.37    9.40 
  -1   0 -10  249.58   12.30 
   1   0  10  285.17   10.10 
  -2   0 -10   40.50    3.30 
   2   0  10   37.30    3.50 
   5  -1 -10    9.00    2.40 
   5  -1 -10    8.90    2.00 
   5  -1 -10   11.70    1.90 
  -5   1  10   12.90    2.70 
  -5   1  10    7.00    2.10 
   4  -1 -10    7.40    1.50 
   4  -1 -10    9.10    2.40 
   4  -1 -10    5.60    1.50 
  -4   1  10    4.70    1.50 
  -4   1  10    3.80    1.90 
   3  -1 -10    3.60    1.70 
   3  -1 -10    3.20    1.20 
  -3   1  10    2.40    1.50 
  -3   1  10    1.90    1.80 
   2  -1 -10    0.50    1.10 
   2  -1 -10    2.20    2.00 
  -2   1  10    3.60    1.80 
  -2   1  10    1.90    1.50 
   1  -1 -10   24.00    3.70 
   1  -1 -10   24.00    2.50 
  -1   1  10   23.60    2.90 
   0  -1 -10   49.99    3.60 
   0  -1 -10   48.70    5.40 
   0   1  10   52.79    4.10 
  -1  -1 -10   18.50    2.30 
  -1  -1 -10   18.30    3.10 
   1   1  10   16.90    2.50 
   4  -2 -10   66.49    5.80 
   4  -2 -10   61.09    4.40 
  -4   2  10   63.49    5.00 
  -4   2  10   69.99    5.30 
   3  -2 -10  361.36   15.00 
   3  -2 -10  352.86   11.60 
  -3   2  10  355.36   12.60 
  -3   2  10  367.56   13.50 
   2  -2 -10   26.00    3.90 
   2  -2 -10   32.30    3.00 
  -2   2  10   42.20    4.10 
  -2   2  10   30.20    3.40 
   1  -2 -10  462.75   13.20 
   1  -2 -10  431.76   17.50 
  -1   2  10  464.55   14.30 
   0  -2 -10   27.10    4.20 
   0  -2 -10   29.00    2.80 
   0  11 -11    3.60    1.70 
   0  11 -11    4.40    1.40 
  -1  11 -11  356.66   11.80 
  -1  11 -11  359.16   10.90 
  -2  11 -11    1.90    1.60 
  -2  11 -11    1.50    1.30 
  -3  11 -11  356.06   11.10 
  -3  11 -11  354.86   12.00 
   2  10 -11   12.40    2.00 
   1  10 -11    4.60    1.60 
   0  10 -11    0.00    1.00 
  -1  10 -11   14.80    2.20 
  -1  10 -11   16.60    2.10 
  -2  10 -11   28.50    2.90 
  -2  10 -11   29.00    2.80 
  -3  10 -11    0.00    1.10 
  -3  10 -11    0.20    1.30 
  -3  10 -11    1.40    1.10 
  -4  10 -11   41.10    3.50 
  -4  10 -11   40.00    3.60 
   4 -10  11   41.10    3.60 
   3   9 -11  206.98    7.80 
  -3  -9  11  195.28   10.00 
   2   9 -11  112.49    5.40 
   1   9 -11  346.77   10.40 
   0   9 -11  174.58    6.80 
  -1   9 -11  194.88    7.60 
  -1   9 -11  196.78    7.40 
  -2   9 -11   84.19    4.90 
  -2   9 -11   81.79    4.70 
  -2   9 -11   77.49    4.60 
  -3   9 -11  553.84   15.20 
  -3   9 -11  531.55   14.90 
  -3   9 -11  548.25   14.40 
   3  -9  11  538.55   15.00 
  -4   9 -11    3.10    1.50 
  -4   9 -11    5.70    1.60 
  -4   9 -11    4.80    1.70 
   4  -9  11   10.30    2.10 
   4   8 -11   42.00    3.50 
  -4  -8  11   43.20    4.60 
   3   8 -11    6.00    1.50 
  -3  -8  11    7.50    2.30 
   2   8 -11    3.70    1.40 
  -2  -8  11    0.80    2.00 
   1   8 -11    3.10    1.20 
   0   8 -11    0.00    1.00 
   0   8 -11    0.20    1.20 
  -1   8 -11    3.40    1.30 
  -1   8 -11    2.90    1.20 
  -2   8 -11   24.10    2.60 
  -2   8 -11   24.20    2.60 
   2  -8  11   23.40    2.50 
  -3   8 -11    9.20    1.90 
  -3   8 -11    9.60    1.90 
  -3   8 -11   10.30    2.10 
   3  -8  11    5.00    1.60 
  -4   8 -11   43.70    3.70 
  -4   8 -11   43.20    3.50 
  -4   8 -11   43.00    3.50 
   4  -8  11   43.20    3.70 
   4   7 -11  277.57    9.50 
  -4  -7  11  274.27   11.70 
   3   7 -11   66.99    4.00 
  -3  -7  11   70.09    5.60 
   2   7 -11  312.97    9.60 
  -2  -7  11  297.37   12.10 
   1   7 -11  172.68    6.70 
   1   7 -11  179.98    6.80 
  -1  -7  11  169.88    8.60 
   0   7 -11  524.15   13.80 
   0   7 -11  521.95   13.50 
  -1   7 -11  178.58    7.00 
  -1   7 -11  182.38    7.20 
  -2   7 -11  149.59    6.40 
  -2   7 -11  143.19    6.50 
   2  -7  11  152.88    6.50 
  -3   7 -11  623.54   15.60 
  -3   7 -11  634.44   16.40 
   3  -7  11  623.94   16.40 
  -4   7 -11   12.50    2.10 
  -4   7 -11    9.20    1.90 
  -4   7 -11    7.20    1.70 
   4  -7  11    8.30    1.80 
   5   6 -11   57.39    5.10 
   5   6 -11   53.49    4.00 
  -5  -6  11   51.99    4.80 
   4   6 -11    3.90    1.10 
   4   6 -11   10.30    2.50 
  -4  -6  11    4.10    1.90 
   3   6 -11    7.30    2.10 
   3   6 -11    1.10    0.90 
  -3  -6  11    2.10    1.90 
   2   6 -11    1.10    0.80 
   2   6 -11    1.50    1.20 
   2   6 -11    4.10    2.10 
  -2  -6  11    1.00    2.00 
   1   6 -11    0.70    1.00 
   1   6 -11    0.00    0.90 
  -1  -6  11    0.90    1.40 
   0   6 -11   29.90    3.70 
   0   6 -11   39.20    3.50 
   0   6 -11   31.80    4.90 
   0  -6  11   39.90    4.20 
  -1   6 -11   12.90    1.90 
  -1   6 -11   12.80    1.90 
  -1   6 -11   18.80    3.00 
   1  -6  11   15.10    2.00 
   1  -6  11   15.60    2.30 
  -2   6 -11   38.40    3.20 
  -2   6 -11   46.20    4.80 
  -2   6 -11   34.80    3.10 
   2  -6  11   33.90    3.00 
  -3   6 -11  144.09    6.60 
  -3   6 -11  141.49    6.30 
   3  -6  11  146.29    6.70 
  -4   6 -11   58.99    4.10 
  -4   6 -11   57.79    4.20 
  -4   6 -11   62.79    4.20 
   4  -6  11   60.39    4.30 
   5   5 -11    2.20    1.60 
   5   5 -11    6.30    1.80 
  -5  -5  11    2.40    1.80 
   4   5 -11  441.36   15.70 
   4   5 -11  430.46   12.30 
   4   5 -11  412.96   12.10 
  -4  -5  11  436.56   15.40 
   3   5 -11   52.99    3.50 
   3   5 -11   55.29    3.50 
   3   5 -11   53.49    4.80 
  -3  -5  11   57.99    5.00 
   2   5 -11  543.85   17.80 
   2   5 -11  563.84   13.80 
   2   5 -11  546.75   14.20 
  -2  -5  11  549.25   17.40 
   1   5 -11   88.49    6.10 
   1   5 -11   84.19    4.50 
   1   5 -11   84.19    4.40 
  -1  -5  11   79.39    5.30 
   0   5 -11  910.51   25.00 
   0   5 -11  921.41   20.50 
   0   5 -11  933.61   19.70 
   0  -5  11  912.71   20.60 
   0  -5  11  896.31   22.90 
  -1   5 -11   48.60    3.60 
  -1   5 -11   52.99    5.00 
  -1   5 -11   49.20    3.40 
   1  -5  11   52.19    3.50 
   1  -5  11   53.49    4.10 
  -2   5 -11  241.78    8.30 
  -2   5 -11  267.77   12.20 
  -2   5 -11  224.38    8.50 
   2  -5  11  232.08    8.70 
  -3   5 -11  154.58    6.50 
  -3   5 -11  151.38    6.90 
   3  -5  11  163.28    7.10 
  -4   5 -11   42.90    3.50 
  -4   5 -11   45.00    3.70 
   4  -5  11   49.50    3.90 
   5   4 -11   62.09    4.30 
   5   4 -11   65.19    4.40 
   5   4 -11   66.09    5.80 
  -5  -4  11   65.79    5.50 
   4   4 -11   36.00    3.00 
   4   4 -11   30.00    2.70 
  -4  -4  11   25.50    4.00 
   3   4 -11   27.90    3.70 
   3   4 -11   25.20    2.50 
   3   4 -11   27.50    2.50 
  -3  -4  11   29.80    3.60 
   2   4 -11    8.30    2.50 
   2   4 -11    8.60    3.00 
  -2  -4  11   14.00    3.10 
   1   4 -11    1.80    0.90 
   1   4 -11    4.60    1.20 
   1   4 -11    3.50    2.00 
  -1  -4  11    0.70    1.10 
  -1  -4  11    3.10    1.80 
   0   4 -11    8.20    1.50 
   0   4 -11    7.20    1.60 
   0   4 -11    7.50    2.40 
   0  -4  11    9.90    2.00 
   0  -4  11    6.50    1.60 
  -1   4 -11   46.40    3.50 
  -1   4 -11   50.49    5.20 
  -1   4 -11   43.70    3.10 
   1  -4  11   48.20    3.50 
  -2   4 -11    0.30    1.10 
  -2   4 -11    2.40    1.20 
  -2   4 -11    3.00    2.40 
   2  -4  11    1.80    1.20 
  -3   4 -11  229.58    8.70 
  -3   4 -11  210.98    7.90 
   3  -4  11  215.28    8.60 
   5   3 -11    1.40    1.10 
   5   3 -11    4.50    1.50 
   5   3 -11    3.50    1.90 
  -5  -3  11    0.00    1.80 
   4   3 -11  482.45   13.10 
   4   3 -11  493.15   13.70 
   4   3 -11  486.95   17.30 
  -4  -3  11  480.95   16.90 
   3   3 -11    7.60    1.80 
   3   3 -11    8.90    2.40 
   3   3 -11    8.80    1.60 
  -3  -3  11    3.20    1.80 
   2   3 -11  484.85   13.40 
   2   3 -11  489.95   17.40 
   2   3 -11  484.15   12.60 
  -2  -3  11  508.65   16.00 
   1   3 -11   15.00    1.80 
   1   3 -11   14.20    2.00 
   1   3 -11   12.90    2.60 
  -1  -3  11    9.00    1.60 
  -1  -3  11   13.80    2.40 
   0   3 -11  719.23   22.80 
   0   3 -11  700.13   16.00 
   0   3 -11  688.73   17.00 
   0  -3  11  681.13   19.10 
   0  -3  11  703.93   17.40 
  -1   3 -11    0.00    2.30 
  -1   3 -11    6.10    1.50 
  -1   3 -11    5.10    1.30 
   1  -3  11    3.60    1.20 
  -2   3 -11  224.38   11.90 
  -2   3 -11  225.08    8.40 
  -2   3 -11  222.48    7.80 
   2  -3  11  224.18    8.80 
  -3   3 -11   14.80    2.00 
  -3   3 -11   15.50    2.20 
   5   2 -11   58.09    4.10 
   5   2 -11   63.79    4.30 
   5   2 -11   53.59    5.20 
  -5  -2  11   47.30    4.90 
   4   2 -11    0.00    1.90 
   4   2 -11    0.00    1.20 
   4   2 -11    0.00    1.00 
  -4  -2  11    4.00    2.40 
   3   2 -11    9.90    2.90 
   3   2 -11   11.20    1.80 
   3   2 -11    8.70    1.50 
  -3  -2  11    9.40    2.30 
   2   2 -11   13.60    2.80 
   2   2 -11   16.30    1.90 
   2   2 -11   10.80    1.90 
  -2  -2  11   16.30    2.70 
  -2  -2  11   11.60    1.90 
   1   2 -11   10.10    1.70 
   1   2 -11   12.30    2.80 
   1   2 -11    7.70    1.60 
  -1  -2  11   10.90    2.30 
  -1  -2  11    7.90    1.60 
   0   2 -11    6.00    2.90 
   0   2 -11    0.90    1.00 
   0   2 -11    0.20    0.90 
   0  -2  11    2.20    1.10 
  -1   2 -11   41.60    3.40 
  -1   2 -11   54.89    5.70 
  -1   2 -11   45.50    3.20 
   1  -2  11   48.90    3.90 
  -2   2 -11    5.80    1.60 
   2  -2  11    4.10    1.50 
   5   1 -11   96.09    5.30 
   5   1 -11  105.29    7.10 
   5   1 -11   97.99    5.70 
  -5  -1  11  108.19    7.30 
   4   1 -11  301.57    9.70 
   4   1 -11  283.97   10.20 
   4   1 -11  305.67   13.10 
  -4  -1  11  308.27   12.70 
   3   1 -11  129.79    8.00 
   3   1 -11  114.29    5.80 
   3   1 -11  123.09    5.40 
  -3  -1  11   98.69    5.90 
  -3  -1  11  118.09    7.10 
   2   1 -11  208.18    8.00 
   2   1 -11  224.78   11.10 
   2   1 -11  210.18    7.40 
  -2  -1  11  206.78    8.40 
  -2  -1  11  203.78    9.40 
   1   1 -11   44.80    3.10 
   1   1 -11   45.30    3.40 
   1   1 -11   48.10    5.20 
  -1  -1  11   46.40    4.20 
  -1  -1  11   42.50    3.70 
   0   1 -11  337.87   14.90 
   0   1 -11  338.77   10.80 
   0  -1  11  348.37   11.50 
  -1   1 -11   10.50    1.80 
  -1   1 -11   15.00    3.50 
   1  -1  11   16.80    2.30 
  -2   1 -11  238.88    9.00 
   4   0 -11    1.10    1.20 
   4   0 -11    4.20    1.30 
   4   0 -11    3.20    2.30 
  -4   0  11    0.00    1.70 
  -4   0  11    0.00    1.80 
   3   0 -11    0.00    0.90 
   3   0 -11    0.20    1.30 
   3   0 -11    0.00    2.00 
  -3   0  11    0.00    1.70 
  -3   0  11    0.00    1.30 
   2   0 -11    8.00    2.70 
   2   0 -11    8.30    1.50 
  -2   0  11    7.80    2.30 
  -2   0  11    6.20    1.80 
   1   0 -11   25.40    4.10 
   1   0 -11   34.50    3.10 
  -1   0  11   32.70    3.30 
   0   0 -11    3.90    1.40 
   0   0 -11    2.20    2.30 
   0   0  11    7.80    1.70 
  -1   0 -11  117.09    5.90 
  -1   0 -11  104.89    7.90 
   3  -1 -11  115.99    8.00 
   3  -1 -11  116.19    6.10 
  -3   1  11  102.09    6.50 
  -3   1  11  119.59    7.20 
   2  -1 -11  151.38    7.00 
   2  -1 -11  165.08    9.80 
  -2   1  11  158.48    8.30 
  -2   1  11  149.69    7.60 
   1  -1 -11   90.19    7.40 
   1  -1 -11   87.99    5.10 
  -1   1  11   91.89    5.90 
   1  10 -12  132.69    6.10 
   0  10 -12  253.07    8.90 
  -1  10 -12   84.99    4.90 
  -2  10 -12  184.28    7.60 
  -2  10 -12  184.68    8.10 
   2   9 -12   40.80    3.30 
   1   9 -12    8.30    1.70 
   0   9 -12    3.00    1.20 
  -1   9 -12    9.30    1.50 
  -1   9 -12    9.50    1.80 
  -2   9 -12   16.50    2.20 
  -2   9 -12   17.90    2.30 
  -3   9 -12  114.59    6.10 
  -3   9 -12  106.09    5.90 
  -3   9 -12  109.59    5.80 
   3   8 -12  241.48    8.70 
  -3  -8  12  241.58   11.00 
   2   8 -12   76.19    4.50 
  -2  -8  12   76.69    5.90 
   1   8 -12  372.36   11.20 
   0   8 -12  315.27   10.40 
   0   8 -12  322.07   10.20 
  -1   8 -12  230.58    8.60 
  -1   8 -12  233.78    8.50 
  -2   8 -12  252.27    9.40 
  -2   8 -12  258.57    9.10 
  -3   8 -12  314.37   10.70 
   3  -8  12  297.67   10.60 
   3   7 -12   30.80    2.80 
   3   7 -12   24.90    3.60 
  -3  -7  12   24.40    3.40 
   2   7 -12   39.50    3.10 
   2   7 -12   33.30    4.10 
  -2  -7  12   34.80    4.10 
   1   7 -12    6.40    1.40 
   1   7 -12    3.90    1.50 
  -1  -7  12    8.00    2.30 
   0   7 -12    3.70    1.30 
   0   7 -12    4.70    1.40 
  -1   7 -12   28.20    4.30 
  -1   7 -12   31.70    3.00 
  -1   7 -12   25.80    3.00 
  -2   7 -12   74.69    4.50 
  -2   7 -12   67.59    4.50 
  -2   7 -12   87.59    6.70 
   2  -7  12   70.69    4.50 
  -3   7 -12   95.59    5.70 
  -3   7 -12  101.49    5.50 
   3  -7  12  113.39    5.90 
   4   6 -12   45.40    4.70 
   4   6 -12   42.50    3.50 
  -4  -6  12   48.10    4.90 
   3   6 -12  430.06   15.80 
   3   6 -12  407.96   12.00 
   3   6 -12  423.66   12.10 
  -3  -6  12  421.16   15.40 
   2   6 -12   60.49    5.30 
   2   6 -12   64.39    4.00 
   2   6 -12   67.59    4.10 
  -2  -6  12   64.89    5.40 
   1   6 -12  555.34   18.80 
   1   6 -12  598.64   15.30 
   1   6 -12  596.94   14.90 
  -1  -6  12  574.84   18.10 
   0   6 -12  245.48    8.90 
   0   6 -12  256.37    8.70 
   0   6 -12  238.48   11.30 
   0  -6  12  241.08   10.20 
  -1   6 -12  312.47   13.30 
  -1   6 -12  300.77   10.30 
  -1   6 -12  322.57   10.10 
   1  -6  12  300.87   10.20 
  -2   6 -12  106.49    7.80 
  -2   6 -12   99.39    5.50 
  -2   6 -12  106.69    5.70 
   2  -6  12  107.69    5.70 
  -3   6 -12  364.16   11.10 
  -3   6 -12  345.57   11.60 
   3  -6  12  345.57   11.60 
   4   5 -12   67.59    4.20 
   4   5 -12   67.19    5.80 
   4   5 -12   67.19    4.40 
  -4  -5  12   66.29    5.50 
   3   5 -12   12.10    2.60 
   3   5 -12    7.10    3.30 
  -3  -5  12   24.60    4.00 
   2   5 -12    3.50    1.20 
   2   5 -12    4.40    2.20 
   2   5 -12    2.00    1.00 
  -2  -5  12    4.40    1.90 
   1   5 -12    8.70    2.80 
   1   5 -12   14.60    2.90 
   1   5 -12   11.60    2.70 
  -1  -5  12   15.10    3.40 
   0   5 -12   41.70    4.70 
   0   5 -12   48.80    3.60 
   0   5 -12   48.30    3.40 
   0  -5  12   45.90    3.50 
   0  -5  12   45.20    4.10 
  -1   5 -12    1.40    1.10 
  -1   5 -12    4.40    2.60 
  -1   5 -12    2.20    1.10 
   1  -5  12    4.00    1.80 
   1  -5  12    0.00    1.00 
  -2   5 -12  107.99    8.00 
  -2   5 -12   93.69    5.30 
  -2   5 -12   94.09    5.00 
   2  -5  12   98.49    5.40 
  -3   5 -12    3.20    1.30 
  -3   5 -12    0.00    1.30 
   3  -5  12    2.30    1.20 
   4   4 -12    0.00    1.20 
   4   4 -12    0.00    1.80 
  -4  -4  12    0.00    2.20 
   3   4 -12  444.36   12.90 
   3   4 -12  443.26   12.40 
   3   4 -12  446.16   17.00 
  -3  -4  12  465.95   16.40 
   2   4 -12    3.90    1.60 
   2   4 -12    2.00    2.10 
   2   4 -12    3.30    1.40 
  -2  -4  12    0.00    1.80 
   1   4 -12  492.35   13.10 
   1   4 -12  484.25   13.70 
   1   4 -12  503.25   18.40 
  -1  -4  12  483.25   15.90 
   0   4 -12    0.00    1.00 
   0   4 -12    1.30    1.10 
   0   4 -12    0.30    2.00 
   0  -4  12    0.50    1.30 
   0  -4  12    2.50    1.70 
  -1   4 -12  235.48    9.10 
  -1   4 -12  273.17   13.30 
  -1   4 -12  260.97    8.70 
   1  -4  12  254.87    9.50 
   1  -4  12  252.47   10.40 
  -2   4 -12    1.00    1.20 
  -2   4 -12    0.00    3.10 
  -2   4 -12    1.50    1.10 
   2  -4  12    0.00    1.30 
   4   3 -12   26.00    3.90 
   4   3 -12   26.90    2.90 
   4   3 -12   25.50    2.90 
  -4  -3  12   31.20    4.10 
   3   3 -12   22.90    2.50 
   3   3 -12   22.20    3.60 
   3   3 -12   19.40    2.20 
  -3  -3  12   24.30    3.50 
   2   3 -12    0.00    1.00 
   2   3 -12    0.00    2.40 
   2   3 -12    0.80    0.90 
  -2  -3  12    1.30    1.70 
   1   3 -12    8.00    1.60 
   1   3 -12    5.00    2.10 
   1   3 -12    3.10    1.20 
  -1  -3  12    5.40    2.10 
  -1  -3  12    4.40    1.70 
   0   3 -12   41.30    3.30 
   0   3 -12   49.80    5.30 
   0   3 -12   44.50    3.20 
   0  -3  12   41.40    3.60 
   0  -3  12   43.90    4.00 
  -1   3 -12    2.00    1.30 
  -1   3 -12    0.00    2.60 
  -1   3 -12    0.00    1.30 
   1  -3  12    0.00    1.20 
   4   2 -12   97.09    7.10 
   4   2 -12   95.39    5.20 
   4   2 -12   94.49    5.50 
  -4  -2  12   93.19    6.90 
   3   2 -12  217.08   10.90 
   3   2 -12  188.48    8.00 
   3   2 -12  199.48    7.50 
  -3  -2  12  201.38   10.00 
   2   2 -12   65.79    5.90 
   2   2 -12   56.79    4.00 
   2   2 -12   54.39    3.60 
  -2  -2  12   60.49    5.00 
  -2  -2  12   57.29    4.40 
   1   2 -12  400.26   12.30 
   1   2 -12  421.16   16.80 
   1   2 -12  387.26   11.30 
  -1  -2  12  398.16   14.20 
  -1  -2  12  408.16   12.90 
   0   2 -12   31.60    4.70 
   0   2 -12   23.70    2.40 
   0   2 -12   31.00    3.00 
   0  -2  12   26.80    3.00 
  -1   2 -12  306.97   14.70 
  -1   2 -12  312.07   10.70 
   1  -2  12  305.67   11.10 
   3   1 -12   23.90    2.40 
   3   1 -12   27.80    2.90 
   3   1 -12   28.00    4.00 
  -3  -1  12   25.40    3.00 
  -3  -1  12   30.50    3.80 
   2   1 -12    0.00    1.20 
   2   1 -12    1.10    1.10 
   2   1 -12    5.00    2.50 
  -2  -1  12    1.50    2.00 
  -2  -1  12    0.00    1.40 
   1   1 -12    2.40    2.50 
   1   1 -12    0.00    1.10 
  -1  -1  12    1.40    1.50 
  -1  -1  12    0.70    2.00 
   1   8 -13    5.30    1.50 
   0   8 -13   15.50    2.20 
   0   8 -13   18.90    2.30 
  -1   8 -13   18.10    2.40 
  -1   8 -13   20.50    3.60 
   2   7 -13  356.26   11.10 
   2   7 -13  341.27   14.30 
   2   7 -13  345.07   11.00 
  -2  -7  13  352.76   14.10 
   1   7 -13  156.58    9.10 
   1   7 -13  142.89    6.60 
   1   7 -13  154.98    6.90 
  -1  -7  13  155.38    8.70 
   0   7 -13  602.14   16.10 
   0   7 -13  585.54   20.00 
  -1   7 -13   95.59    7.20 
  -1   7 -13   92.89    5.40 
   2   6 -13    9.40    3.50 
   2   6 -13   15.90    2.60 
  -2  -6  13   13.80    3.60 
   1   6 -13    5.80    1.60 
   1   6 -13    7.90    2.70 
  -1  -6  13    2.70    1.70 
   0   6 -13   23.00    3.20 
   0   6 -13   12.00    3.30 
   0   6 -13   26.90    3.60 
   0  -6  13   21.50    3.70 
  -1   6 -13   51.19    6.10 
  -1   6 -13   39.10    3.60 
  -1   6 -13   44.30    3.60 
   1  -6  13   44.20    3.70 
   2   5 -13  369.96   11.30 
   2   5 -13  363.86   11.70 
   2   5 -13  360.66   15.40 
  -2  -5  13  374.86   14.40 
   1   5 -13    6.80    2.00 
   1   5 -13    6.00    2.70 
   1   5 -13    9.50    2.20 
  -1  -5  13    3.80    1.90 
   0   5 -13  492.15   13.60 
   0   5 -13  520.75   19.50 
   0   5 -13  500.95   14.50 
   0  -5  13  498.35   16.50 
   2   4 -13   20.30    2.40 
   2   4 -13   19.60    2.50 
   2   4 -13   20.10    3.50 
  -2  -4  13   16.90    3.00 
   1   4 -13   12.20    2.00 
   1   4 -13    8.20    1.50 
   1   4 -13    7.90    2.60 
  -1  -4  13    9.70    2.40 
;
_shelx_hkl_checksum              79205
#END Tags that were not found in dictionaries
loop_
_space_group_symop_operation_xyz
'x, y, z'
'-x, -y, -z'
loop_
_atom_site_label
_atom_site_type_symbol
_atom_site_fract_x
_atom_site_fract_y
_atom_site_fract_z
_atom_site_U_iso_or_equiv
_atom_site_adp_type
_atom_site_occupancy
_atom_site_site_symmetry_order
_atom_site_calc_flag
_atom_site_refinement_flags_posn
_atom_site_refinement_flags_adp
Se1 Se 0.27946(4) -0.02067(3) 0.22769(3) 0.01503(8) Uani 1 1 d . .
Se2 Se 0.76453(4) 0.53336(3) 0.28312(3) 0.01699(8) Uani 1 1 d . .
O1 O 0.2235(3) -0.1771(2) 0.0714(2) 0.0260(4) Uani 1 1 d . .
O2 O 0.2719(3) -0.0301(3) 0.3725(2) 0.0266(5) Uani 1 1 d . .
O3 O 0.3163(3) 0.1395(2) 0.2334(2) 0.0232(4) Uani 1 1 d . .
O4 O 0.5876(2) 0.0114(2) 0.25799(18) 0.0140(4) Uani 1 1 d . .
O5 O 0.9364(2) -0.0453(2) 0.20320(19) 0.0167(4) Uani 1 1 d . .
O6 O 0.7615(3) 0.5456(3) 0.1393(2) 0.0241(4) Uani 1 1 d . .
O7 O 0.6833(3) 0.3700(2) 0.2707(2) 0.0240(4) Uani 1 1 d . .
O8 O 0.8427(3) 0.6865(2) 0.4427(2) 0.0218(4) Uani 1 1 d . .
O9 O 0.4637(2) 0.5616(2) 0.28399(18) 0.0158(4) Uani 1 1 d . .
O10 O 0.0698(2) 0.5139(2) 0.28203(18) 0.0160(4) Uani 1 1 d . .
C1 C 0.6714(4) 0.0250(3) 0.1425(3) 0.0154(5) Uani 1 1 d . .
H1A H 0.6370 0.1042 0.1294 0.018 Uiso 1 1 calc R U
H1B H 0.6203 -0.0754 0.0482 0.018 Uiso 1 1 calc R U
C2 C 0.8867(4) 0.0712(3) 0.1858(3) 0.0169(5) Uani 1 1 d . .
H2A H 0.9456 0.0825 0.1092 0.020 Uiso 1 1 calc R U
H2B H 0.9376 0.1724 0.2794 0.020 Uiso 1 1 calc R U
C3 C 0.8535(4) -0.0580(3) 0.3177(3) 0.0171(5) Uani 1 1 d . .
H3A H 0.9041 0.0431 0.4113 0.020 Uiso 1 1 calc R U
H3B H 0.8902 -0.1356 0.3323 0.020 Uiso 1 1 calc R U
C4 C 0.6378(4) -0.1063(3) 0.2763(3) 0.0170(5) Uani 1 1 d . .
H4A H 0.5863 -0.2081 0.1834 0.020 Uiso 1 1 calc R U
H4B H 0.5811 -0.1162 0.3542 0.020 Uiso 1 1 calc R U
C5 C 0.3170(4) 0.4430(3) 0.1524(3) 0.0177(5) Uani 1 1 d . .
H5A H 0.2816 0.3434 0.1498 0.021 Uiso 1 1 calc R U
H5B H 0.3674 0.4279 0.0641 0.021 Uiso 1 1 calc R U
C6 C 0.1424(4) 0.4920(3) 0.1519(3) 0.0167(5) Uani 1 1 d . .
H6A H 0.1770 0.5901 0.1515 0.020 Uiso 1 1 calc R U
H6B H 0.0416 0.4116 0.0624 0.020 Uiso 1 1 calc R U
C7 C 0.2171(4) 0.6311(3) 0.4140(3) 0.0189(6) Uani 1 1 d . .
H7A H 0.1668 0.6458 0.5021 0.023 Uiso 1 1 calc R U
H7B H 0.2540 0.7313 0.4175 0.023 Uiso 1 1 calc R U
C8 C 0.3900(4) 0.5799(3) 0.4128(3) 0.0190(6) Uani 1 1 d . .
H8A H 0.4908 0.6582 0.5031 0.023 Uiso 1 1 calc R U
H8B H 0.3534 0.4803 0.4102 0.023 Uiso 1 1 calc R U
loop_
_atom_site_aniso_label
_atom_site_aniso_U_11
_atom_site_aniso_U_22
_atom_site_aniso_U_33
_atom_site_aniso_U_23
_atom_site_aniso_U_13
_atom_site_aniso_U_12
Se1 0.01719(14) 0.01577(15) 0.01172(12) 0.00774(10) 0.00206(9) 0.00390(10)
Se2 0.02336(15) 0.01512(15) 0.01160(13) 0.00756(11) 0.00208(10) 0.00423(11)
O1 0.0192(10) 0.0200(11) 0.0215(10) 0.0002(8) 0.0010(8) 0.0031(8)
O2 0.0204(10) 0.0517(14) 0.0239(10) 0.0287(10) 0.0087(8) 0.0165(10)
O3 0.0160(9) 0.0206(11) 0.0375(11) 0.0188(9) 0.0053(8) 0.0053(8)
O4 0.0135(8) 0.0188(10) 0.0145(8) 0.0113(7) 0.0046(7) 0.0064(7)
O5 0.0154(9) 0.0225(10) 0.0199(9) 0.0147(8) 0.0067(7) 0.0095(8)
O6 0.0245(10) 0.0425(13) 0.0197(9) 0.0232(9) 0.0091(8) 0.0171(9)
O7 0.0216(10) 0.0184(10) 0.0338(11) 0.0155(9) 0.0068(8) 0.0051(8)
O8 0.0185(9) 0.0201(10) 0.0160(9) 0.0024(8) 0.0008(7) 0.0051(8)
O9 0.0127(8) 0.0215(10) 0.0118(8) 0.0077(7) 0.0016(7) 0.0060(7)
O10 0.0122(8) 0.0225(10) 0.0125(8) 0.0089(8) 0.0023(7) 0.0049(8)
C1 0.0170(12) 0.0207(14) 0.0149(12) 0.0131(11) 0.0057(9) 0.0074(11)
C2 0.0183(13) 0.0212(14) 0.0195(12) 0.0154(11) 0.0060(10) 0.0087(11)
C3 0.0166(13) 0.0233(14) 0.0189(12) 0.0163(11) 0.0058(10) 0.0069(11)
C4 0.0173(13) 0.0194(14) 0.0203(12) 0.0146(11) 0.0043(10) 0.0063(11)
C5 0.0155(12) 0.0209(14) 0.0108(11) 0.0051(10) 0.0000(9) 0.0047(11)
C6 0.0146(12) 0.0233(14) 0.0118(11) 0.0091(11) 0.0025(9) 0.0059(11)
C7 0.0162(13) 0.0253(15) 0.0103(11) 0.0056(11) 0.0007(9) 0.0076(11)
C8 0.0175(13) 0.0288(16) 0.0122(12) 0.0109(11) 0.0032(10) 0.0095(12)
loop_
_atom_type_symbol
_atom_type_description
_atom_type_scat_dispersion_real
_atom_type_scat_dispersion_imag
_atom_type_scat_source
C C 0.0033 0.0016 'International Tables Vol C Tables 4.2.6.8 and 6.1.1.4'
H H 0.0000 0.0000 'International Tables Vol C Tables 4.2.6.8 and 6.1.1.4'
O O 0.0106 0.0060 'International Tables Vol C Tables 4.2.6.8 and 6.1.1.4'
Se Se -0.0929 2.2259 'International Tables Vol C Tables 4.2.6.8 and 6.1.1.4'
loop_
_geom_angle_atom_site_label_1
_geom_angle_atom_site_label_2
_geom_angle_atom_site_label_3
_geom_angle
_geom_angle_site_symmetry_3
O3 Se1 O2 121.32(11) .
O3 Se1 O1 118.90(11) .
O2 Se1 O1 119.35(12) .
O3 Se1 O4 91.59(8) .
O2 Se1 O4 91.00(8) .
O1 Se1 O4 94.03(8) .
O3 Se1 O5 86.88(8) 1_455
O2 Se1 O5 88.11(8) 1_455
O1 Se1 O5 88.45(8) 1_455
O4 Se1 O5 177.50(6) 1_455
O7 Se2 O6 120.87(11) .
O7 Se2 O8 118.77(11) .
O6 Se2 O8 120.32(11) .
O7 Se2 O9 91.55(8) .
O6 Se2 O9 87.81(8) .
O8 Se2 O9 88.78(8) .
O7 Se2 O10 90.66(8) 1_655
O6 Se2 O10 90.88(8) 1_655
O8 Se2 O10 90.34(8) 1_655
O9 Se2 O10 177.78(7) 1_655
C4 O4 C1 109.70(18) .
C4 O4 Se1 114.16(14) .
C1 O4 Se1 113.28(13) .
C2 O5 C3 109.22(18) .
C5 O9 C8 109.36(19) .
C5 O9 Se2 114.60(14) .
C8 O9 Se2 115.20(13) .
C7 O10 C6 110.24(19) .
C7 O10 Se2 115.84(14) 1_455
C6 O10 Se2 116.44(13) 1_455
O4 C1 C2 108.84(19) .
O5 C2 C1 109.7(2) .
O5 C3 C4 110.00(19) .
O4 C4 C3 108.5(2) .
O9 C5 C6 109.3(2) .
O10 C6 C5 109.30(19) .
O10 C7 C8 109.1(2) .
O9 C8 C7 109.0(2) .
loop_
_geom_bond_atom_site_label_1
_geom_bond_atom_site_label_2
_geom_bond_distance
_geom_bond_site_symmetry_2
Se1 O3 1.5911(19) .
Se1 O2 1.5959(18) .
Se1 O1 1.5960(19) .
Se1 O4 2.1887(17) .
Se1 O5 2.4605(17) 1_455
Se2 O7 1.589(2) .
Se2 O6 1.5967(18) .
Se2 O8 1.5972(18) .
Se2 O9 2.3138(17) .
Se2 O10 2.3140(17) 1_655
O4 C4 1.463(3) .
O4 C1 1.463(3) .
O5 C2 1.444(3) .
O5 C3 1.446(3) .
O9 C5 1.450(3) .
O9 C8 1.454(3) .
O10 C7 1.452(3) .
O10 C6 1.455(3) .
O10 Se2 2.3140(17) 1_455
C1 C2 1.504(3) .
C3 C4 1.503(3) .
C5 C6 1.505(3) .
C7 C8 1.504(3) .
