#------------------------------------------------------------------------------
#$Date: 2016-03-23 23:36:17 +0200 (Wed, 23 Mar 2016) $
#$Revision: 179508 $
#$URL: svn://www.crystallography.net/cod/cif/4/34/05/4340521.cif $
#------------------------------------------------------------------------------
#
# This file is available in the Crystallography Open Database (COD),
# http://www.crystallography.net/
#
# All data on this site have been placed in the public domain by the
# contributors.
#
data_4340521
loop_
_publ_author_name
'Lin, Xinsong'
'Tabassum, Danisa'
'Rudyk, Brent W.'
'Mar, Arthur'
_publ_section_title
;
 Manganese-Substituted Rare-Earth Zinc Arsenides RE1-yMnxZn2-xAs2 (RE =
 Eu-Lu) and RE2-yMnxZn4-xAs4 (RE = La-Nd, Sm, Gd).
;
_journal_issue                   16
_journal_name_full               'Inorganic chemistry'
_journal_page_first              8431
_journal_page_last               8441
_journal_paper_doi               10.1021/ic501053v
_journal_volume                  53
_journal_year                    2014
_chemical_formula_structural     'Pr1.25 Mn0.95 Zn3.05 As4'
_chemical_formula_sum            'As4 Mn0.95 Pr1.25 Zn3.05'
_chemical_formula_weight         727.39
_chemical_name_common
'praseodymium manganese zinc arsenide (1.3/0.9/3.1/4)'
_chemical_name_systematic
'praseodymium manganese zinc arsenide (1.3/0.9/3.1/4)'
_space_group_crystal_system      trigonal
_space_group_IT_number           164
_space_group_name_Hall           '-P 3 2"'
_space_group_name_H-M_alt        'P -3 m 1'
_symmetry_space_group_name_Hall  '-P 3 2"'
_symmetry_space_group_name_H-M   'P -3 m 1'
_atom_sites_solution_primary     direct
_atom_sites_solution_secondary   difmap
_audit_creation_method           SHELXL-2013
_cell_angle_alpha                90
_cell_angle_beta                 90
_cell_angle_gamma                120
_cell_formula_units_Z            1
_cell_length_a                   4.1533(4)
_cell_length_b                   4.1533(4)
_cell_length_c                   13.5629(13)
_cell_measurement_reflns_used    1667
_cell_measurement_temperature    296(2)
_cell_measurement_theta_max      30.89
_cell_measurement_theta_min      3.00
_cell_volume                     202.61(3)
_computing_cell_refinement       'Bruker SAINT 8.32B (Bruker, 2011)'
_computing_data_collection       'Bruker APEX 2 (Bruker, 2008)'
_computing_data_reduction        'Bruker SAINT 8.32B'
_computing_molecular_graphics    'ATOMS 5.1 (Dowty, 1999)'
_computing_publication_material  'Bruker SHELXTL'
_computing_structure_refinement  'Bruker SHELXTL'
_computing_structure_solution    'Bruker SHELXTL'
_diffrn_ambient_temperature      296(2)
_diffrn_measured_fraction_theta_full 0.994
_diffrn_measured_fraction_theta_max 0.989
_diffrn_measurement_device_type  'Bruker PLATFORM/SMART APEX II CCD'
_diffrn_measurement_method       '\w scans'
_diffrn_radiation_type           MoK\a
_diffrn_radiation_wavelength     0.71073
_diffrn_reflns_av_R_equivalents  0.0344
_diffrn_reflns_av_unetI/netI     0.0169
_diffrn_reflns_Laue_measured_fraction_full 0.994
_diffrn_reflns_Laue_measured_fraction_max 0.989
_diffrn_reflns_limit_h_max       6
_diffrn_reflns_limit_h_min       -6
_diffrn_reflns_limit_k_max       6
_diffrn_reflns_limit_k_min       -6
_diffrn_reflns_limit_l_max       20
_diffrn_reflns_limit_l_min       -20
_diffrn_reflns_number            2844
_diffrn_reflns_point_group_measured_fraction_full 0.994
_diffrn_reflns_point_group_measured_fraction_max 0.989
_diffrn_reflns_theta_full        25.242
_diffrn_reflns_theta_max         33.188
_diffrn_reflns_theta_min         3.004
_diffrn_source                   'fine-focus sealed tube'
_exptl_absorpt_coefficient_mu    33.807
_exptl_absorpt_correction_T_max  0.3696
_exptl_absorpt_correction_T_min  0.2474
_exptl_absorpt_correction_type   numerical
_exptl_absorpt_process_details   'Bruker SHELXTL 6.12 (Sheldrick, 2001)'
_exptl_crystal_colour            black
_exptl_crystal_density_diffrn    5.961
_exptl_crystal_description       irregular
_exptl_crystal_F_000             321
_exptl_crystal_size_max          0.067
_exptl_crystal_size_mid          0.067
_exptl_crystal_size_min          0.036
_refine_diff_density_max         2.247
_refine_diff_density_min         -4.065
_refine_diff_density_rms         0.419
_refine_ls_extinction_method     none
_refine_ls_goodness_of_fit_ref   1.164
_refine_ls_hydrogen_treatment    undef
_refine_ls_matrix_type           full
_refine_ls_number_parameters     22
_refine_ls_number_reflns         353
_refine_ls_number_restraints     0
_refine_ls_restrained_S_all      1.164
_refine_ls_R_factor_all          0.0393
_refine_ls_R_factor_gt           0.0328
_refine_ls_shift/su_max          0.000
_refine_ls_shift/su_mean         0.000
_refine_ls_structure_factor_coef Fsqd
_refine_ls_weighting_details
'w=1/[\s^2^(Fo^2^)+(0.0368P)^2^+4.8002P] where P=(Fo^2^+2Fc^2^)/3'
_refine_ls_weighting_scheme      calc
_refine_ls_wR_factor_gt          0.0934
_refine_ls_wR_factor_ref         0.0971
_reflns_Friedel_coverage         0.000
_reflns_number_gt                324
_reflns_number_total             353
_reflns_threshold_expression     'I > 2\s(I)'
_cod_data_source_file            ic501053v_si_003.cif
_cod_data_source_block           Pr(Mn,Zn)4As4
_cod_depositor_comments
'Adding full bibliography for 4340510--4340524.cif.'
_cod_original_cell_volume        202.61(4)
_cod_database_code               4340521
#BEGIN Tags that were not found in dictionaries:
_shelx_space_group_comment
;
The symmetry employed for this shelxl refinement is uniquely defined
by the following loop, which should always be used as a source of
symmetry information in preference to the above space-group names.
They are only intended as comments.
;
_shelx_estimated_absorpt_t_min   0.210
_shelx_estimated_absorpt_t_max   0.376
_shelxl_version_number           2013-4
_shelx_res_file
;
TITL Pr1.3Mn0.9Zn3.1As4 P-3m1 lsf final refinement
CELL 0.71073   4.1533   4.1533  13.5629  90.000  90.000 120.000
ZERR    1.00   0.0004   0.0004   0.0013   0.000   0.000   0.000
LATT  1
SYMM -Y, X-Y, Z
SYMM -X+Y, -X, Z
SYMM Y, X, -Z
SYMM X-Y, -Y, -Z
SYMM -X, -X+Y, -Z
SFAC MN ZN AS PR
UNIT 0.95 3.05 4 1.25
TEMP 23
SIZE 0.036 0.067 0.067

L.S. 4
ACTA

WGHT    0.036800    4.800200
FVAR       0.14126   0.52310
PR1   4    0.000000    0.000000    0.500000     0.02107    0.03795    0.03795 =
         0.02882    0.00000    0.00000    0.01897
PR2   4    0.000000    0.000000    0.000000    10.08333    0.01394    0.01394 =
         0.01618    0.00000    0.00000    0.00697
ZN1   2    0.333333    0.666667    0.333076    20.16667    0.01485    0.01485 =
         0.03472    0.00000    0.00000    0.00743
ZN2   2    0.333333    0.666667    0.801741    10.16667    0.01782    0.01782 =
         0.01499    0.00000    0.00000    0.00891
MN    1    0.333333    0.666667    0.408744   -20.16667    0.02532    0.02532 =
         0.06335    0.00000    0.00000    0.01266
AS1   3    0.333333    0.666667    0.130557    10.16667    0.00949    0.00949 =
         0.01110    0.00000    0.00000    0.00475
AS2   3    0.333333    0.666667    0.616903    10.16667    0.01736    0.01736 =
         0.01389    0.00000    0.00000    0.00868
HKLF 4

REM  Pr1.3Mn0.9Zn3.1As4 P-3m1 lsf final refinement
REM R1 =  0.0328 for     324 Fo > 4sig(Fo)  and  0.0393 for all     353 data
REM     22 parameters refined using      0 restraints

END

WGHT      0.0383      4.4972

REM Highest difference peak  2.247,  deepest hole -4.065,  1-sigma level  0.419
Q1    1   0.3333  0.6667  0.9498  10.16667  0.05    0.96
Q2    1  -0.2121 -0.4241  0.0522  10.50000  0.05    0.91
Q3    1   0.2512  0.7488  0.7886  10.50000  0.05    0.85
Q4    1   0.1957  0.3914  0.8718  10.50000  0.05    0.80
Q5    1   0.3333  0.6667 -0.0087  10.16667  0.05    0.73
Q6    1   0.1747  0.3493  0.3609  10.50000  0.05    0.69
Q7    1   0.0208  0.5104  0.3720  10.50000  0.05    0.64
Q8    1   0.5049  0.4951  0.4385  10.50000  0.05    0.63
Q9    1   0.1149  0.2299  0.4990  10.50000  0.05    0.59
Q10   1   0.4809  0.5191  0.1786  10.50000  0.05    0.57
Q11   1   0.3844  0.4175  0.3993  11.00000  0.05    0.57
Q12   1   0.6039  0.6108  0.7680  11.00000  0.05    0.57
Q13   1   0.1394  0.2788  0.1365  10.50000  0.05    0.56
Q14   1   0.2161  0.4322  0.4713  10.50000  0.05    0.56
Q15   1   0.4073  0.3458  0.0226  11.00000  0.05    0.56
Q16   1   0.5000  0.5000  0.5000  10.25000  0.05    0.54
Q17   1  -0.0339  0.4830  0.3139  10.50000  0.05    0.53
Q18   1   0.5367  0.4633  0.0378  10.50000  0.05    0.52
Q19   1   0.6183  0.7188  0.8248  11.00000  0.05    0.52
Q20   1   0.2152  0.4305  0.0151  10.50000  0.05    0.50
;
_shelx_res_checksum              82934
_shelx_hkl_file
;
   0  -1 -20   10.25    1.79
   1  -1 -20    6.65    1.09
  -1   0 -20    6.05    1.09
   0   0 -20    0.99    0.73
   1  -2 -19   -0.44    0.64
   2  -2 -19    9.65    1.18
  -1  -1 -19    0.58    1.17
   0  -1 -19    8.09    1.13
   1  -1 -19    5.43    0.99
   2  -1 -19    0.00    0.62
  -2   0 -19    8.73    1.76
  -1   0 -19    5.95    1.04
   0   0 -19    0.26    0.61
   1   0 -19   10.35    1.21
  -2   1 -19    0.99    0.78
  -1   1 -19    9.96    1.79
   0   1 -19    5.35    1.35
   1   1 -19   -0.72    0.85
  -1   2 -19   -0.06    0.95
   1  -3 -18   28.49    2.98
   0  -2 -18   -0.60    0.59
   1  -2 -18    2.34    0.62
   2  -2 -18   34.31    1.48
  -1  -1 -18    2.48    1.22
   0  -1 -18   37.36    1.83
   1  -1 -18    0.14    0.55
   2  -1 -18    2.19    0.73
   3  -1 -18   30.05    2.85
  -2   0 -18   30.62    2.89
  -1   0 -18   -0.17    0.67
   0   0 -18    2.52    0.75
   1   0 -18   39.22    2.62
   2   0 -18    0.85    0.94
  -3   1 -18    0.63    1.05
  -2   1 -18    0.54    0.71
  -1   1 -18   36.79    1.87
   0   1 -18    0.17    0.85
   1   1 -18    1.49    1.01
  -2   2 -18   -0.83    0.96
  -1   2 -18    3.30    1.20
   0   2 -18   32.17    2.53
   0  -3 -17   -0.06    1.10
   1  -3 -17   14.86    1.50
   2  -3 -17    5.05    0.94
   3  -3 -17    0.62    0.61
  -1  -2 -17   16.45    1.58
   0  -2 -17    7.79    1.06
   1  -2 -17    2.54    0.58
   2  -2 -17   19.14    1.23
   3  -2 -17    5.59    0.99
  -2  -1 -17    5.37    1.58
  -1  -1 -17    2.05    1.07
   0  -1 -17   21.85    1.54
   1  -1 -17    8.58    1.06
   2  -1 -17    2.89    0.74
   3  -1 -17   15.67    1.48
  -2   0 -17   18.48    1.60
  -1   0 -17    9.46    1.16
   0   0 -17    2.28    0.69
   1   0 -17   20.11    1.47
   2   0 -17    3.98    1.23
  -3   1 -17    4.45    1.04
  -2   1 -17    3.37    0.90
  -1   1 -17   23.45    1.53
   0   1 -17    8.89    1.51
   1   1 -17    0.98    0.87
   2   1 -17   14.17    1.99
  -3   2 -17   15.70    1.54
  -2   2 -17    4.02    1.37
  -1   2 -17    1.42    1.00
   0   2 -17   17.21    2.10
   1   2 -17    3.63    1.23
  -2   3 -17   15.70    2.23
  -1   3 -17    4.00    1.25
   0   3 -17    0.45    1.04
   0  -3 -16   36.85    1.97
   1  -3 -16    0.52    0.63
   2  -3 -16    3.06    0.81
   3  -3 -16   31.37    1.78
  -2  -2 -16   26.99    3.01
  -1  -2 -16    2.27    0.83
   0  -2 -16    1.95    0.68
   1  -2 -16   58.67    1.76
   2  -2 -16    1.68    0.64
   3  -2 -16    3.24    0.82
  -2  -1 -16    1.32    1.15
  -1  -1 -16   53.75    3.24
   0  -1 -16    1.74    0.50
   1  -1 -16    4.80    0.64
   2  -1 -16   56.52    2.15
   3  -1 -16    0.25    0.57
  -3   0 -16   32.23    3.23
  -2   0 -16    1.25    0.71
  -1   0 -16    4.08    0.81
   0   0 -16   69.82    2.29
   1   0 -16    2.54    0.66
   2   0 -16    3.76    0.75
   3   0 -16   37.29    2.73
  -3   1 -16    1.77    0.85
  -2   1 -16   54.11    3.23
  -1   1 -16    1.67    0.60
   0   1 -16    4.13    1.08
   1   1 -16   53.72    2.93
   2   1 -16   -0.11    0.75
  -4   2 -16   30.21    3.13
  -3   2 -16   -0.36    0.63
  -2   2 -16    3.65    1.25
  -1   2 -16   52.82    3.08
   0   2 -16    1.05    0.90
   1   2 -16    0.18    0.83
   2   2 -16   31.76    2.54
  -3   3 -16   35.01    2.83
  -2   3 -16    0.63    0.90
  -1   3 -16    4.21    1.25
   0   3 -16   33.75    2.56
  -2   4 -16   27.08    2.87
   1  -4 -15    1.63    0.81
   2  -4 -15   31.18    1.96
   3  -4 -15    1.99    1.16
  -1  -3 -15    3.21    0.99
   0  -3 -15   40.25    2.01
   1  -3 -15    1.56    0.70
   2  -3 -15    3.72    0.83
   3  -3 -15   39.90    1.90
   4  -3 -15    1.08    0.94
  -2  -2 -15   30.84    2.20
  -1  -2 -15    0.83    0.74
   0  -2 -15    7.31    0.98
   1  -2 -15   65.90    1.81
   2  -2 -15    0.63    0.56
   3  -2 -15    3.39    0.76
   4  -2 -15   32.96    1.94
  -3  -1 -15    0.56    1.26
  -2  -1 -15    4.33    0.95
  -1  -1 -15   69.08    1.89
   0  -1 -15    2.65    0.51
   1  -1 -15   10.78    0.84
   2  -1 -15   61.74    2.22
   3  -1 -15    2.25    0.68
   4  -1 -15    2.31    1.15
  -3   0 -15   37.73    3.05
  -2   0 -15    0.74    0.67
  -1   0 -15   10.65    1.11
   0   0 -15   79.56    2.38
   1   0 -15    2.09    0.55
   2   0 -15    7.41    0.97
   3   0 -15   35.61    2.62
  -4   1 -15    0.77    0.78
  -3   1 -15    6.08    1.05
  -2   1 -15   64.54    2.36
  -1   1 -15    1.35    0.60
   0   1 -15   11.33    1.04
   1   1 -15   63.88    3.11
   2   1 -15    0.75    0.88
   3   1 -15    2.41    1.18
  -4   2 -15   31.10    2.11
  -3   2 -15    0.93    0.66
  -2   2 -15    6.47    0.97
  -1   2 -15   66.52    3.34
   0   2 -15    0.87    0.83
   1   2 -15    3.76    1.19
   2   2 -15   32.08    2.46
  -3   3 -15   38.69    2.82
  -2   3 -15    0.87    0.90
  -1   3 -15    3.04    1.14
   0   3 -15   38.74    2.58
  -3   4 -15    0.88    1.07
  -2   4 -15   35.00    1.84
   0  -4 -14    0.34    0.80
   1  -4 -14   20.53    1.75
   2  -4 -14    3.14    0.87
   3  -4 -14   -0.02    0.59
  -1  -3 -14   21.15    1.84
   0  -3 -14    4.34    0.94
   1  -3 -14    0.01    0.50
   2  -3 -14   35.28    1.77
   3  -3 -14    5.96    0.92
   4  -3 -14    0.78    0.62
  -2  -2 -14    3.66    1.00
  -1  -2 -14    0.62    0.63
   0  -2 -14   44.07    1.87
   1  -2 -14    8.75    0.79
   2  -2 -14    0.65    0.51
   3  -2 -14   28.10    1.53
   4  -2 -14    2.98    0.79
  -3  -1 -14    0.52    0.80
  -2  -1 -14   32.04    1.86
  -1  -1 -14   10.36    0.88
   0  -1 -14    0.22    0.36
   1  -1 -14   55.56    1.94
   2  -1 -14    7.64    0.93
   3  -1 -14    0.54    0.52
   4  -1 -14   20.19    1.60
  -3   0 -14    6.04    1.59
  -2   0 -14   -0.24    0.51
  -1   0 -14   53.22    1.97
   0   0 -14   10.53    1.01
   1   0 -14    0.29    0.43
   2   0 -14   42.97    1.75
   3   0 -14    4.59    1.21
  -4   1 -14    0.34    0.68
  -3   1 -14   33.86    1.81
  -2   1 -14    7.83    1.00
  -1   1 -14    1.09    0.50
   0   1 -14   56.65    1.85
   1   1 -14    8.30    1.36
   2   1 -14   -1.21    0.62
   3   1 -14   23.01    2.38
  -4   2 -14    5.85    1.02
  -3   2 -14   -0.60    0.50
  -2   2 -14   40.98    1.80
  -1   2 -14    6.04    1.26
   0   2 -14   -0.54    0.59
   1   2 -14   30.41    2.24
   2   2 -14    2.10    1.08
  -4   3 -14   17.15    2.25
  -3   3 -14    4.96    1.33
  -2   3 -14    0.49    0.57
  -1   3 -14   33.18    1.59
   0   3 -14    5.62    1.29
  -3   4 -14   23.07    2.54
  -2   4 -14    5.46    0.94
  -1   4 -14    0.65    0.94
   0  -4 -13    2.60    0.91
   1  -4 -13    6.99    1.12
   2  -4 -13    1.81    0.71
   3  -4 -13    3.69    0.83
   4  -4 -13    5.79    0.98
  -1  -3 -13    8.81    1.04
   0  -3 -13    2.72    0.77
   1  -3 -13    4.21    0.85
   2  -3 -13   10.44    0.90
   3  -3 -13    1.91    0.57
   4  -3 -13    3.57    0.81
  -2  -2 -13    3.61    0.98
  -1  -2 -13    6.25    0.99
   0  -2 -13   10.40    1.10
   1  -2 -13    2.72    0.50
   2  -2 -13    5.84    0.83
   3  -2 -13    9.98    1.04
   4  -2 -13    1.27    0.62
  -3  -1 -13    1.74    0.86
  -2  -1 -13   11.37    1.23
  -1  -1 -13    1.68    0.49
   0  -1 -13    9.34    0.75
   1  -1 -13   11.50    1.03
   2  -1 -13    1.79    0.56
   3  -1 -13    4.66    0.76
   4  -1 -13    5.84    0.93
  -4   0 -13    5.51    1.61
  -3   0 -13    2.89    1.19
  -2   0 -13    6.46    0.92
  -1   0 -13   12.53    0.84
   0   0 -13    2.46    0.44
   1   0 -13    9.24    0.90
   2   0 -13    9.91    0.99
   3   0 -13    0.90    0.80
   4   0 -13    2.32    1.06
  -4   1 -13    2.83    0.84
  -3   1 -13    9.01    1.10
  -2   1 -13    1.99    0.65
  -1   1 -13    9.45    0.96
   0   1 -13   12.77    1.00
   1   1 -13    2.03    0.81
   2   1 -13    3.73    1.06
   3   1 -13    5.76    1.40
  -4   2 -13    1.49    0.74
  -3   2 -13    4.98    0.84
  -2   2 -13   13.89    1.17
  -1   2 -13    1.62    0.51
   0   2 -13    7.38    1.25
   1   2 -13    7.44    1.29
   2   2 -13   -0.18    0.79
  -4   3 -13    9.01    1.12
  -3   3 -13    0.90    0.90
  -2   3 -13    5.22    0.80
  -1   3 -13    9.38    0.99
   0   3 -13    1.28    0.81
  -4   4 -13    0.58    0.93
  -3   4 -13    7.58    1.04
  -2   4 -13    0.84    0.63
  -1   4 -13    2.32    1.04
   0   4 -13    7.11    1.48
   3  -5 -12   20.41    2.42
   0  -4 -12    8.97    1.30
   1  -4 -12   37.13    1.93
   2  -4 -12    2.49    0.78
   3  -4 -12   11.31    1.20
   4  -4 -12   26.17    1.66
  -1  -3 -12   35.86    1.64
   0  -3 -12    4.49    0.85
   1  -3 -12   23.72    1.52
   2  -3 -12   54.77    1.61
   3  -3 -12    6.30    0.85
   4  -3 -12   14.70    1.35
  -3  -2 -12   23.95    1.96
  -2  -2 -12    4.38    0.97
  -1  -2 -12   23.97    1.69
   0  -2 -12   72.06    2.34
   1  -2 -12   10.17    0.79
   2  -2 -12   28.58    1.35
   3  -2 -12   55.08    1.96
   4  -2 -12    3.67    0.74
   5  -2 -12    7.98    1.61
  -3  -1 -12   13.73    1.44
  -2  -1 -12   54.15    2.13
  -1  -1 -12   11.71    0.87
   0  -1 -12   41.87    1.27
   1  -1 -12   97.08    2.53
   2  -1 -12   10.09    0.94
   3  -1 -12   21.47    1.33
   4  -1 -12   34.15    1.68
  -4   0 -12   23.80    2.69
  -3   0 -12    4.38    0.84
  -2   0 -12   31.30    1.21
  -1   0 -12   99.34    2.03
   0   0 -12   14.37    0.80
   1   0 -12   40.14    1.52
   2   0 -12   71.25    2.13
   3   0 -12    6.66    0.85
   4   0 -12    7.65    1.47
  -4   1 -12   15.70    1.46
  -3   1 -12   54.33    2.09
  -2   1 -12    9.49    1.07
  -1   1 -12   40.57    1.61
   0   1 -12   95.23    3.53
   1   1 -12    9.63    0.87
   2   1 -12   22.69    1.81
   3   1 -12   37.03    2.51
  -5   2 -12   18.16    2.37
  -4   2 -12    2.25    0.73
  -3   2 -12   23.73    1.46
  -2   2 -12   76.26    2.26
  -1   2 -12   11.05    0.95
   0   2 -12   30.71    1.32
   1   2 -12   53.09    2.64
   2   2 -12    2.81    0.99
  -5   3 -12    8.91    1.69
  -4   3 -12   33.42    1.73
  -3   3 -12    3.58    1.09
  -2   3 -12   21.89    1.43
  -1   3 -12   53.24    1.89
   0   3 -12    6.44    0.83
  -4   4 -12    8.59    1.63
  -3   4 -12   33.18    1.72
  -2   4 -12    4.78    0.84
  -1   4 -12   13.56    1.79
   0   4 -12   26.58    2.50
  -3   5 -12    9.72    1.71
  -2   5 -12   20.70    2.38
   2  -5 -11   -0.49    0.82
   3  -5 -11   21.81    1.77
   4  -5 -11    0.13    0.93
  -1  -4 -11    0.18    1.09
   0  -4 -11    0.06    0.64
   1  -4 -11   39.66    1.95
   2  -4 -11   -0.34    0.45
   3  -4 -11   -0.15    0.44
   4  -4 -11   28.76    1.69
   5  -4 -11   -0.93    0.78
  -2  -3 -11    1.47    1.26
  -1  -3 -11   37.85    1.59
   0  -3 -11    1.09    0.57
   1  -3 -11    0.44    0.47
   2  -3 -11   60.98    1.66
   3  -3 -11    0.27    0.43
   4  -3 -11   -0.38    0.44
   5  -3 -11   22.04    1.69
  -3  -2 -11   22.16    1.89
  -2  -2 -11   -0.37    0.63
  -1  -2 -11    0.62    0.42
   0  -2 -11   90.81    2.57
   1  -2 -11    0.27    0.31
   2  -2 -11    1.28    0.46
   3  -2 -11   62.36    2.06
   4  -2 -11    0.08    0.48
   5  -2 -11   -0.68    0.78
  -4  -1 -11   -0.13    0.87
  -3  -1 -11   -0.76    0.60
  -2  -1 -11   61.28    2.22
  -1  -1 -11    0.49    0.37
   0  -1 -11    3.57    0.47
   1  -1 -11  123.87    2.85
   2  -1 -11    0.30    0.37
   3  -1 -11    0.96    0.44
   4  -1 -11   40.94    1.75
  -4   0 -11   23.34    2.68
  -3   0 -11    0.36    0.43
  -2   0 -11    1.30    0.44
  -1   0 -11  126.26    2.30
   0   0 -11    0.46    0.29
   1   0 -11    3.29    0.60
   2   0 -11   92.29    2.33
   3   0 -11    0.23    0.42
   4   0 -11    0.19    0.77
  -4   1 -11   -0.22    0.57
  -3   1 -11   66.24    2.22
  -2   1 -11    0.09    0.47
  -1   1 -11    2.98    0.60
   0   1 -11  124.42    2.07
   1   1 -11    0.53    0.37
   2   1 -11    0.42    0.59
   3   1 -11   36.25    2.42
  -5   2 -11   23.90    1.81
  -4   2 -11    0.41    0.56
  -3   2 -11    0.30    0.49
  -2   2 -11   91.13    2.44
  -1   2 -11    0.19    0.28
   0   2 -11    1.60    0.47
   1   2 -11   68.25    1.91
   2   2 -11   -0.64    0.61
  -5   3 -11    0.18    0.66
  -4   3 -11   40.93    1.81
  -3   3 -11   -0.22    0.63
  -2   3 -11    0.76    0.49
  -1   3 -11   69.01    2.06
   0   3 -11    0.10    0.46
   1   3 -11    0.41    0.68
  -4   4 -11   -0.15    0.80
  -3   4 -11   41.67    1.84
  -2   4 -11    0.13    0.50
  -1   4 -11    0.08    0.76
   0   4 -11   31.48    2.36
   1   4 -11   -0.10    0.97
  -4   5 -11   -0.23    0.97
  -3   5 -11   -0.72    0.97
  -2   5 -11   27.46    2.67
   1  -5 -10   14.05    1.53
   2  -5 -10   30.73    1.94
   3  -5 -10    5.77    0.95
   4  -5 -10   11.71    1.26
  -1  -4 -10   12.03    1.48
   0  -4 -10   38.10    2.01
   1  -4 -10   13.47    1.30
   2  -4 -10   24.35    1.71
   3  -4 -10   48.20    2.80
   4  -4 -10    7.89    1.01
   5  -4 -10   11.34    1.18
  -2  -3 -10   27.74    2.98
  -1  -3 -10   12.49    1.07
   0  -3 -10   37.17    1.73
   1  -3 -10   86.72    2.58
   2  -3 -10   26.82    1.25
   3  -3 -10   36.22    1.55
   4  -3 -10   48.68    1.93
   5  -3 -10    6.26    1.33
  -3  -2 -10    5.74    1.10
  -2  -2 -10   29.13    1.76
  -1  -2 -10   89.72    2.12
   0  -2 -10   38.51    1.21
   1  -2 -10   73.37    1.68
   2  -2 -10  116.27    2.71
   3  -2 -10   25.43    1.27
   4  -2 -10   23.39    1.90
   5  -2 -10   35.01    2.50
  -4  -1 -10    8.48    1.35
  -3  -1 -10   53.42    2.20
  -2  -1 -10   25.71    1.43
  -1  -1 -10   72.15    1.69
   0  -1 -10  159.92    2.62
   1  -1 -10   54.60    1.70
   2  -1 -10   72.10    1.99
   3  -1 -10   88.29    2.37
   4  -1 -10   11.83    1.58
   5  -1 -10   15.03    1.98
  -4   0 -10    8.35    1.20
  -3   0 -10   37.54    1.33
  -2   0 -10  118.29    2.28
  -1   0 -10   57.27    1.40
   0   0 -10  112.52    1.96
   1   0 -10  161.71    3.20
   2   0 -10   39.82    1.43
   3   0 -10   36.02    1.45
   4   0 -10   38.59    2.46
  -5   1 -10   12.87    2.01
  -4   1 -10   49.34    2.07
  -3   1 -10   26.20    1.39
  -2   1 -10   69.78    2.10
  -1   1 -10  160.41    3.25
   0   1 -10   58.81    1.26
   1   1 -10   74.12    1.45
   2   1 -10   85.02    3.32
   3   1 -10   11.73    1.55
  -5   2 -10    4.63    0.97
  -4   2 -10   29.29    1.57
  -3   2 -10   86.14    2.49
  -2   2 -10   37.03    1.49
  -1   2 -10   74.26    1.53
   0   2 -10  119.03    2.59
   1   2 -10   26.09    1.19
   2   2 -10   28.95    1.87
  -5   3 -10   30.86    1.90
  -4   3 -10   11.42    1.13
  -3   3 -10   38.61    1.57
  -2   3 -10   88.82    2.43
  -1   3 -10   25.97    1.26
   0   3 -10   37.30    1.49
   1   3 -10   50.93    2.54
   2   3 -10    5.07    1.22
  -5   4 -10   10.38    1.85
  -4   4 -10   42.29    2.77
  -3   4 -10   13.26    1.20
  -2   4 -10   28.09    1.53
  -1   4 -10   48.70    2.77
   0   4 -10    9.77    1.50
   1   4 -10   10.85    1.62
  -4   5 -10   12.38    1.96
  -3   5 -10   30.81    2.72
  -2   5 -10    4.33    1.27
  -1   5 -10   13.03    1.97
   1  -5  -9    3.02    0.88
   2  -5  -9   18.83    1.62
   3  -5  -9    1.77    0.97
   4  -5  -9    4.40    0.82
  -1  -4  -9    4.20    1.02
   0  -4  -9   23.68    1.82
   1  -4  -9    0.75    0.54
   2  -4  -9    5.12    0.83
   3  -4  -9   26.62    2.06
   4  -4  -9    1.08    0.52
   5  -4  -9    2.89    0.75
  -2  -3  -9   22.65    1.80
  -1  -3  -9    0.59    0.51
   0  -3  -9    5.84    0.85
   1  -3  -9   48.00    1.83
   2  -3  -9    2.35    0.50
   3  -3  -9    8.64    0.88
   4  -3  -9   26.80    1.98
   5  -3  -9    0.61    0.79
  -3  -2  -9    0.44    0.76
  -2  -2  -9    7.04    0.79
  -1  -2  -9   49.33    1.51
   0  -2  -9    3.06    0.46
   1  -2  -9   11.56    0.74
   2  -2  -9   59.82    1.75
   3  -2  -9    2.57    0.51
   4  -2  -9    6.60    1.19
   5  -2  -9   19.98    2.15
  -4  -1  -9    2.76    0.97
  -3  -1  -9   27.95    1.71
  -2  -1  -9    2.48    0.51
  -1  -1  -9   10.88    0.74
   0  -1  -9   76.14    1.61
   1  -1  -9    5.26    0.60
   2  -1  -9   11.15    0.86
   3  -1  -9   48.01    2.31
   4  -1  -9    1.92    0.79
   5  -1  -9    2.17    1.09
  -5   0  -9   14.02    2.28
  -4   0  -9    0.33    0.67
  -3   0  -9    7.28    0.70
  -2   0  -9   56.46    1.46
  -1   0  -9    5.27    0.50
   0   0  -9   13.55    0.90
   1   0  -9   80.78    1.95
   2   0  -9    3.13    0.51
   3   0  -9    7.79    1.17
   4   0  -9   23.79    1.88
  -5   1  -9    4.40    1.42
  -4   1  -9   30.09    1.56
  -3   1  -9    2.27    0.46
  -2   1  -9   10.94    0.67
  -1   1  -9   79.91    1.23
   0   1  -9    6.70    0.48
   1   1  -9   11.59    0.62
   2   1  -9   48.57    1.50
   3   1  -9    1.83    0.80
  -5   2  -9   -0.56    0.58
  -4   2  -9    7.23    0.94
  -3   2  -9   46.96    1.75
  -2   2  -9    3.97    0.48
  -1   2  -9   11.29    0.65
   0   2  -9   60.75    1.67
   1   2  -9    1.89    0.49
   2   2  -9    5.98    1.07
  -5   3  -9   22.21    1.70
  -4   3  -9    1.14    0.54
  -3   3  -9    7.20    0.82
  -2   3  -9   50.20    1.74
  -1   3  -9    2.52    0.55
   0   3  -9    8.29    0.84
   1   3  -9   29.38    1.91
   2   3  -9    0.78    0.84
  -5   4  -9    2.47    1.18
  -4   4  -9   23.26    2.38
  -3   4  -9    0.38    0.53
  -2   4  -9    7.12    0.88
  -1   4  -9   33.25    2.27
   0   4  -9    0.11    0.50
   1   4  -9    2.34    0.98
  -4   5  -9    4.48    0.94
  -3   5  -9   17.23    2.12
  -2   5  -9   -0.19    0.81
  -1   5  -9    4.39    1.37
   1  -5  -8   19.21    1.64
   2  -5  -8    3.76    0.82
   3  -5  -8    3.16    1.18
   4  -5  -8   21.58    1.66
   5  -5  -8    2.93    1.21
  -1  -4  -8   17.56    1.65
   0  -4  -8    2.69    0.77
   1  -4  -8    2.04    0.52
   2  -4  -8   40.49    1.79
   3  -4  -8    4.89    1.10
   4  -4  -8    0.57    0.49
   5  -4  -8   18.34    2.11
  -2  -3  -8    1.49    0.77
  -1  -3  -8    1.33    0.51
   0  -3  -8   52.53    1.56
   1  -3  -8    9.74    1.08
   2  -3  -8    2.20    0.47
   3  -3  -8   52.56    1.77
   4  -3  -8    4.04    0.95
   5  -3  -8    1.41    0.86
  -3  -2  -8    0.28    0.71
  -2  -2  -8   43.27    1.47
  -1  -2  -8   10.36    0.81
   0  -2  -8    3.58    0.45
   1  -2  -8   95.28    1.81
   2  -2  -8   11.27    0.85
   3  -2  -8    2.12    0.69
   4  -2  -8   41.48    2.34
   5  -2  -8    2.71    1.00
  -4  -1  -8   19.40    1.74
  -3  -1  -8    4.39    0.86
  -2  -1  -8    2.03    0.47
  -1  -1  -8   93.95    1.80
   0  -1  -8   19.52    0.76
   1  -1  -8    5.50    0.56
   2  -1  -8   89.76    2.13
   3  -1  -8    7.32    1.03
   4  -1  -8    1.41    0.70
   5  -1  -8   22.36    2.20
  -5   0  -8    1.05    1.21
  -4   0  -8    1.09    0.66
  -3   0  -8   53.58    1.48
  -2   0  -8   12.20    0.76
  -1   0  -8    5.24    0.47
   0   0  -8  132.86    2.55
   1   0  -8   19.77    0.60
   2   0  -8    3.40    0.43
   3   0  -8   51.55    2.42
   4   0  -8    3.42    0.95
  -5   1  -8   16.42    2.28
  -4   1  -8    3.88    0.59
  -3   1  -8    2.37    0.45
  -2   1  -8   91.65    1.71
  -1   1  -8   20.32    0.55
   0   1  -8    4.61    0.40
   1   1  -8   95.65    1.59
   2   1  -8    8.65    0.73
   3   1  -8    2.55    0.54
  -5   2  -8    0.77    0.66
  -4   2  -8   35.69    1.67
  -3   2  -8    7.47    0.84
  -2   2  -8    3.65    0.47
  -1   2  -8   94.20    1.67
   0   2  -8   13.02    0.89
   1   2  -8    3.50    0.42
   2   2  -8   45.71    2.18
   3   2  -8    2.44    0.94
  -5   3  -8    2.04    0.75
  -4   3  -8    1.61    0.56
  -3   3  -8   53.79    1.48
  -2   3  -8    7.92    0.83
  -1   3  -8    2.06    0.51
   0   3  -8   56.06    1.32
   1   3  -8    5.31    0.66
   2   3  -8    2.71    0.94
  -5   4  -8   18.36    1.55
  -4   4  -8    2.99    1.06
  -3   4  -8    2.94    0.67
  -2   4  -8   41.32    1.66
  -1   4  -8    4.82    0.73
   0   4  -8    0.96    0.51
   1   4  -8   18.66    1.93
  -5   5  -8    0.06    1.01
  -4   5  -8   21.50    1.62
  -3   5  -8    2.44    1.06
  -2   5  -8    1.94    0.97
  -1   5  -8   18.29    1.42
   0   5  -8    1.62    1.00
   0  -5  -7    4.23    0.98
   1  -5  -7    3.47    0.81
   2  -5  -7    4.34    0.86
   3  -5  -7    5.04    1.31
   4  -5  -7    4.56    0.81
   5  -5  -7    2.00    0.71
  -1  -4  -7    5.23    1.05
   0  -4  -7    5.57    0.92
   1  -4  -7    6.79    0.92
   2  -4  -7    5.93    0.84
   3  -4  -7    5.88    0.75
   4  -4  -7    6.47    0.84
   5  -4  -7    2.40    0.97
  -2  -3  -7    3.43    0.88
  -1  -3  -7    8.17    0.82
   0  -3  -7    5.01    0.60
   1  -3  -7   10.51    0.96
   2  -3  -7   12.33    0.87
   3  -3  -7    3.24    0.57
   4  -3  -7    6.83    1.17
   5  -3  -7    4.60    1.11
  -3  -2  -7    5.73    0.99
  -2  -2  -7    4.55    0.65
  -1  -2  -7   11.36    0.82
   0  -2  -7   18.27    0.74
   1  -2  -7    5.17    0.52
   2  -2  -7   14.73    0.85
   3  -2  -7   12.50    1.35
   4  -2  -7    3.47    0.89
   5  -2  -7    4.87    1.13
  -4  -1  -7    2.20    0.86
  -3  -1  -7    6.91    1.00
  -2  -1  -7   13.43    0.85
  -1  -1  -7    4.94    0.46
   0  -1  -7   19.19    0.72
   1  -1  -7   22.51    0.87
   2  -1  -7    3.77    0.68
   3  -1  -7   11.54    1.26
   4  -1  -7    6.61    1.14
   5  -1  -7    3.17    1.02
  -5   0  -7    2.20    0.90
  -4   0  -7    5.69    0.91
  -3   0  -7    5.50    0.60
  -2   0  -7   14.77    0.59
  -1   0  -7   20.43    0.71
   0   0  -7    4.98    0.52
   1   0  -7   20.36    0.57
   2   0  -7   15.64    0.75
   3   0  -7    5.30    0.61
   4   0  -7    4.01    0.94
  -5   1  -7    4.77    0.93
  -4   1  -7    6.97    0.73
  -3   1  -7   11.59    0.77
  -2   1  -7    5.65    0.46
  -1   1  -7   20.87    0.51
   0   1  -7   21.22    0.66
   1   1  -7    5.65    0.41
   2   1  -7   10.85    0.79
   3   1  -7    8.09    0.79
  -5   2  -7    3.39    0.82
  -4   2  -7    4.23    0.73
  -3   2  -7   11.63    0.98
  -2   2  -7   15.01    0.76
  -1   2  -7    4.86    0.41
   0   2  -7   15.95    0.67
   1   2  -7   11.33    0.63
   2   2  -7    4.38    0.91
   3   2  -7    4.11    1.05
  -5   3  -7    3.58    0.83
  -4   3  -7    6.58    0.87
  -3   3  -7    6.88    0.64
  -2   3  -7   11.90    0.96
  -1   3  -7   11.88    0.92
   0   3  -7    5.19    0.50
   1   3  -7    6.41    0.72
   2   3  -7    5.93    1.17
  -5   4  -7    3.69    0.87
  -4   4  -7    5.85    1.25
  -3   4  -7    7.84    0.90
  -2   4  -7    5.33    0.73
  -1   4  -7    6.09    0.79
   0   4  -7    5.21    0.74
   1   4  -7    2.19    0.98
  -5   5  -7    2.50    1.23
  -4   5  -7    3.30    0.81
  -3   5  -7    2.35    1.06
  -2   5  -7    3.68    1.20
  -1   5  -7    3.50    0.80
   0   5  -7    2.61    0.74
   3  -6  -6    8.77    1.71
   0  -5  -6   34.47    2.07
   1  -5  -6   13.55    1.37
   2  -5  -6   11.37    1.24
   3  -5  -6   58.14    3.21
   4  -5  -6   13.87    1.88
   5  -5  -6    7.13    1.00
  -1  -4  -6   13.18    1.43
   0  -4  -6   16.33    1.40
   1  -4  -6   99.51    2.82
   2  -4  -6   27.69    1.40
   3  -4  -6   25.31    1.22
   4  -4  -6   74.83    3.15
   5  -4  -6   15.93    1.86
  -2  -3  -6   11.36    1.30
  -1  -3  -6   97.01    2.81
   0  -3  -6   35.99    1.21
   1  -3  -6   44.86    1.62
   2  -3  -6  192.67    3.52
   3  -3  -6   37.72    1.92
   4  -3  -6   22.55    1.69
   5  -3  -6   51.85    2.87
  -3  -2  -6   57.54    3.41
  -2  -2  -6   27.87    1.18
  -1  -2  -6   45.16    1.33
   0  -2  -6  278.25    3.64
   1  -2  -6   67.85    1.57
   2  -2  -6   67.44    1.31
   3  -2  -6  197.68    5.16
   4  -2  -6   25.04    1.78
   5  -2  -6   11.05    1.54
  -4  -1  -6   14.33    1.46
  -3  -1  -6   22.71    1.44
  -2  -1  -6  196.60    3.08
  -1  -1  -6   67.41    1.36
   0  -1  -6   99.24    1.65
   1  -1  -6  412.53    5.99
   2  -1  -6   67.54    1.31
   3  -1  -6   47.13    1.32
   4  -1  -6   94.12    3.55
   5  -1  -6   13.53    1.73
  -5   0  -6    7.89    1.18
  -4   0  -6   77.80    2.57
  -3   0  -6   35.89    1.18
  -2   0  -6   65.53    1.13
  -1   0  -6  411.05    4.91
   0   0  -6  105.56    2.04
   1   0  -6   97.62    1.41
   2   0  -6  269.56    4.09
   3   0  -6   36.30    1.24
   4   0  -6   17.25    1.16
  -5   1  -6   14.26    1.08
  -4   1  -6   22.07    1.11
  -3   1  -6  194.08    3.01
  -2   1  -6   64.82    1.32
  -1   1  -6   97.67    1.26
   0   1  -6  415.66    4.69
   1   1  -6   68.66    0.99
   2   1  -6   46.21    1.34
   3   1  -6  103.62    2.38
   4   1  -6   15.67    1.77
  -5   2  -6   57.02    2.23
  -4   2  -6   27.20    1.40
  -3   2  -6   44.66    1.17
  -2   2  -6  279.73    3.66
  -1   2  -6   67.39    1.26
   0   2  -6   65.38    1.23
   1   2  -6  198.00    3.13
   2   2  -6   27.02    1.74
   3   2  -6   13.10    1.60
   4   2  -6   31.51    2.68
  -5   3  -6   11.01    1.19
  -4   3  -6   99.06    2.72
  -3   3  -6   36.20    1.19
  -2   3  -6   45.80    1.18
  -1   3  -6  194.79    2.80
   0   3  -6   33.90    0.99
   1   3  -6   24.02    1.11
   2   3  -6   62.80    2.90
   3   3  -6    9.89    1.66
  -5   4  -6   15.00    1.41
  -4   4  -6   18.34    2.00
  -3   4  -6  101.24    2.66
  -2   4  -6   28.21    1.33
  -1   4  -6   22.91    1.23
   0   4  -6   75.78    2.14
   1   4  -6   14.10    1.16
  -5   5  -6   40.62    2.84
  -4   5  -6   14.70    1.38
  -3   5  -6   12.25    1.74
  -2   5  -6   57.60    2.07
  -1   5  -6   12.35    1.18
   0   5  -6    5.22    0.88
   3  -6  -5    9.30    1.74
   0  -5  -5    7.95    1.17
   1  -5  -5   15.96    1.45
   2  -5  -5    0.18    0.52
   3  -5  -5    9.60    1.05
   4  -5  -5   13.74    1.83
   5  -5  -5   -0.22    0.70
  -2  -4  -5    3.72    1.57
  -1  -4  -5   18.23    1.61
   0  -4  -5    0.13    0.49
   1  -4  -5    9.42    1.01
   2  -4  -5   39.95    1.60
   3  -4  -5    0.53    0.38
   4  -4  -5    8.73    1.31
   5  -4  -5   14.90    1.79
  -3  -3  -5    9.27    1.96
  -2  -3  -5    0.13    0.59
  -1  -3  -5    8.52    1.02
   0  -3  -5   51.94    1.43
   1  -3  -5    3.95    0.61
   2  -3  -5   11.01    0.78
   3  -3  -5   52.81    2.30
   4  -3  -5    0.52    0.64
   5  -3  -5    7.26    1.26
  -3  -2  -5    6.62    1.53
  -2  -2  -5   40.68    1.36
  -1  -2  -5    4.30    0.54
   0  -2  -5   11.05    0.53
   1  -2  -5  120.30    2.20
   2  -2  -5    7.53    0.49
   3  -2  -5   11.22    0.71
   4  -2  -5   34.44    2.03
   5  -2  -5    1.29    0.73
  -4  -1  -5   15.76    1.47
  -3  -1  -5    0.51    0.54
  -2  -1  -5   10.73    0.55
  -1  -1  -5  117.65    1.61
   0  -1  -5   12.96    0.54
   1  -1  -5   11.94    0.58
   2  -1  -5  117.62    1.98
   3  -1  -5    3.46    0.46
   4  -1  -5    9.56    0.83
   5  -1  -5   12.78    1.66
  -5   0  -5    0.01    0.65
  -4   0  -5    7.64    1.00
  -3   0  -5   56.37    1.45
  -2   0  -5    7.59    0.42
  -1   0  -5   11.24    0.52
   0   0  -5  204.33    2.43
   1   0  -5   14.04    0.52
   2   0  -5   10.49    0.62
   3   0  -5   55.18    1.56
   4   0  -5    1.21    0.47
  -5   1  -5   16.01    1.12
  -4   1  -5    1.61    0.43
  -3   1  -5   10.11    0.69
  -2   1  -5  115.34    1.86
  -1   1  -5   14.01    0.38
   0   1  -5   11.58    0.45
   1   1  -5  120.24    1.62
   2   1  -5    4.03    0.50
   3   1  -5    8.72    0.80
   4   1  -5   18.67    1.92
  -6   2  -5   -0.48    0.88
  -5   2  -5    6.41    0.95
  -4   2  -5   39.88    1.28
  -3   2  -5    3.73    0.44
  -2   2  -5   10.93    0.44
  -1   2  -5  122.94    1.79
   0   2  -5    7.26    0.45
   1   2  -5   10.39    0.58
   2   2  -5   37.59    2.00
   3   2  -5   -0.27    0.66
   4   2  -5    2.79    1.12
  -6   3  -5    9.81    1.29
  -5   3  -5    0.34    0.52
  -4   3  -5    8.13    0.89
  -3   3  -5   58.47    1.46
  -2   3  -5    4.78    0.46
  -1   3  -5   11.76    0.67
   0   3  -5   58.83    1.61
   1   3  -5    1.75    0.45
   2   3  -5    7.36    1.28
   3   3  -5    8.95    1.59
  -6   4  -5    4.49    1.38
  -5   4  -5   17.48    1.49
  -4   4  -5    1.07    0.51
  -3   4  -5    7.47    0.88
  -2   4  -5   40.76    1.20
  -1   4  -5    1.29    0.47
   0   4  -5    9.23    0.88
   1   4  -5   16.96    1.25
  -5   5  -5    7.84    1.64
  -4   5  -5   18.92    1.51
  -3   5  -5    1.72    1.00
  -2   5  -5    6.71    0.90
  -1   5  -5   14.67    1.22
   0   5  -5    1.18    0.57
  -3   6  -5   10.80    2.03
   2  -6  -4    5.76    1.45
   3  -6  -4    3.79    1.28
   0  -5  -4    7.17    1.09
   1  -5  -4    6.62    0.99
   2  -5  -4   58.65    2.17
   3  -5  -4   11.28    1.11
   5  -5  -4   39.56    2.53
  -2  -4  -4    4.77    1.13
  -1  -4  -4    4.98    0.98
   0  -4  -4   80.54    2.55
   1  -4  -4   19.96    1.37
   2  -4  -4   19.50    1.15
   3  -4  -4  106.87    2.52
   4  -4  -4   17.76    1.73
   5  -4  -4    7.29    1.27
  -3  -3  -4    3.57    1.05
  -2  -3  -4   59.87    2.31
  -1  -3  -4   18.62    1.37
   0  -3  -4   25.98    0.99
   1  -3  -4  212.98    3.91
   2  -3  -4   33.31    1.14
   3  -3  -4   25.86    1.02
   4  -3  -4  107.12    3.77
   5  -3  -4   12.47    1.58
   6  -3  -4    3.72    1.16
  -3  -2  -4   11.24    1.28
  -2  -2  -4   19.59    1.08
  -1  -2  -4  213.55    3.19
   0  -2  -4   48.99    1.41
   1  -2  -4   54.89    1.25
   2  -2  -4  314.20    4.43
   3  -2  -4   34.86    1.12
   4  -2  -4   18.72    1.03
   5  -2  -4   65.43    3.04
   6  -2  -4    8.70    1.58
  -4  -1  -4    8.79    1.14
  -3  -1  -4  110.51    2.27
  -2  -1  -4   35.43    0.84
  -1  -1  -4   53.66    0.92
   0  -1  -4  490.13    5.49
   1  -1  -4   76.80    2.03
   2  -1  -4   53.60    1.17
   3  -1  -4  215.40    3.52
   4  -1  -4   18.70    1.11
   5  -1  -4    4.99    1.06
  -5   0  -4   37.59    1.99
  -4   0  -4   13.81    1.26
  -3   0  -4   23.96    0.94
  -2   0  -4  307.82    3.34
  -1   0  -4   72.96    1.23
   0   0  -4   94.89    1.27
   1   0  -4  495.60    6.27
   2   0  -4   46.51    1.17
   3   0  -4   24.57    1.04
   4   0  -4   83.88    2.21
   5   0  -4    8.38    1.44
  -5   1  -4    5.84    0.74
  -4   1  -4  107.18    2.23
  -3   1  -4   31.49    1.02
  -2   1  -4   50.90    1.10
  -1   1  -4  479.24    4.57
   0   1  -4   74.45    1.11
   1   1  -4   54.61    0.93
   2   1  -4  215.05    2.65
   3   1  -4   22.61    1.09
   4   1  -4    5.46    1.22
  -6   2  -4   28.25    2.71
  -5   2  -4   11.13    0.93
  -4   2  -4   16.46    0.92
  -3   2  -4  212.61    3.10
  -2   2  -4   46.74    1.10
  -1   2  -4   54.26    0.88
   0   2  -4  309.80    3.58
   1   2  -4   33.12    0.86
   2   2  -4   17.93    0.92
   3   2  -4   66.13    2.94
   4   2  -4    6.67    1.44
  -6   3  -4    1.33    0.81
  -5   3  -4   61.12    2.27
  -4   3  -4   21.55    1.24
  -3   3  -4   26.80    1.00
  -2   3  -4  213.06    2.53
  -1   3  -4   34.52    0.94
   0   3  -4   24.90    1.06
   1   3  -4  107.85    2.36
   2   3  -4   13.02    1.59
   3   3  -4    1.87    1.04
  -6   4  -4    6.85    1.62
  -5   4  -4    4.72    0.84
  -4   4  -4   87.33    2.47
  -3   4  -4   18.72    1.19
  -2   4  -4   18.78    0.89
  -1   4  -4  111.46    2.56
   0   4  -4   14.13    1.08
   1   4  -4    6.19    0.79
  -5   5  -4    7.52    1.56
  -4   5  -4    4.77    0.87
  -3   5  -4   60.06    3.21
  -2   5  -4   11.87    1.11
  -1   5  -4    4.85    0.79
   0   5  -4   37.42    1.70
  -4   6  -4    6.82    1.69
  -3   6  -4    2.56    0.83
   2  -6  -3    2.01    0.77
   3  -6  -3    0.57    0.60
   0  -5  -3    2.21    0.62
   1  -5  -3    0.86    0.58
   2  -5  -3   20.13    1.48
   3  -5  -3    1.89    0.78
   5  -5  -3   13.73    1.77
  -2  -4  -3    1.66    0.91
  -1  -4  -3    0.29    0.61
   0  -4  -3   23.01    1.57
   1  -4  -3    2.24    0.55
   2  -4  -3    1.18    0.44
   5  -4  -3    2.10    0.84
   6  -4  -3    7.75    1.52
  -3  -3  -3    0.63    0.85
  -2  -3  -3   18.52    1.57
  -1  -3  -3    3.80    0.74
   0  -3  -3    1.60    0.37
   1  -3  -3   54.41    1.58
   3  -3  -3    2.31    0.60
   4  -3  -3   32.36    1.76
   5  -3  -3    3.20    0.96
   6  -3  -3    0.74    0.89
  -4  -2  -3    8.73    2.06
  -3  -2  -3    4.13    0.94
  -2  -2  -3    1.26    0.43
  -1  -2  -3   54.78    1.32
   0  -2  -3    2.99    0.36
   1  -2  -3    2.43    0.29
   3  -2  -3    3.67    0.65
   4  -2  -3    0.52    0.56
   5  -2  -3   17.94    1.25
   6  -2  -3    1.89    0.97
  -4  -1  -3    0.82    0.64
  -3  -1  -3   30.88    1.19
  -2  -1  -3    3.79    0.35
  -1  -1  -3    1.76    0.21
   0  -1  -3  119.17    1.62
   1  -1  -3    2.82    0.40
   2  -1  -3    1.46    0.27
   3  -1  -3   50.99    1.41
   4  -1  -3    2.47    0.52
   5  -1  -3    0.48    0.51
  -5   0  -3   11.55    1.31
  -4   0  -3    2.38    0.68
  -3   0  -3    1.41    0.30
  -2   0  -3   75.50    1.16
  -1   0  -3    2.29    0.20
   0   0  -3    2.84    0.21
   1   0  -3  116.22    1.79
   2   0  -3    2.86    0.36
   3   0  -3    1.55    0.39
   4   0  -3   25.70    1.23
   5   0  -3    1.66    0.97
  -5   1  -3    1.28    0.49
  -4   1  -3   31.23    1.16
  -3   1  -3    2.47    0.39
  -2   1  -3    1.79    0.28
  -1   1  -3  115.65    1.33
   0   1  -3    2.34    0.16
   1   1  -3    1.62    0.20
   2   1  -3   51.91    1.36
   3   1  -3    3.37    0.53
   4   1  -3    1.29    0.86
  -6   2  -3   10.05    1.01
  -5   2  -3    3.35    0.59
  -4   2  -3    1.15    0.39
  -3   2  -3   53.19    1.26
  -2   2  -3    2.76    0.27
  -1   2  -3    1.81    0.21
   0   2  -3   74.59    1.22
   1   2  -3    2.92    0.32
   2   2  -3    0.60    0.33
   3   2  -3   21.22    1.96
   4   2  -3    3.33    1.13
  -6   3  -3   -0.24    0.65
  -5   3  -3   17.07    1.43
  -4   3  -3    4.29    0.70
  -3   3  -3    1.13    0.30
  -2   3  -3   53.11    1.02
  -1   3  -3    3.02    0.36
   0   3  -3    1.45    0.39
   1   3  -3   30.99    1.20
   2   3  -3    3.13    0.90
   3   3  -3    0.10    0.90
  -6   4  -3    2.51    0.82
  -5   4  -3   -0.14    0.55
  -4   4  -3   25.24    1.31
  -3   4  -3    3.61    0.66
  -2   4  -3    1.77    0.37
  -1   4  -3   31.09    1.31
   0   4  -3    3.41    0.59
   1   4  -3    0.39    0.44
   2   4  -3    8.44    1.52
  -5   5  -3    1.44    0.96
  -4   5  -3   -0.01    0.54
  -3   5  -3   16.03    1.26
  -2   5  -3    2.25    0.64
  -1   5  -3    1.13    0.57
   0   5  -3   13.65    1.20
  -4   6  -3    1.21    1.26
  -3   6  -3    0.26    0.65
  -2   6  -3    8.91    1.13
   2  -6  -2    0.00    0.61
   3  -6  -2    0.76    0.64
   0  -5  -2    1.46    0.68
   1  -5  -2    0.46    0.75
   2  -5  -2   37.21    2.38
   3  -5  -2    2.51    0.90
  -2  -4  -2    0.96    0.90
  -1  -4  -2    0.91    0.51
   0  -4  -2   49.17    1.87
   1  -4  -2    6.22    0.78
   2  -4  -2    0.98    0.43
   4  -4  -2    5.24    1.02
   6  -4  -2   21.94    2.36
  -3  -3  -2   -0.44    0.73
  -2  -3  -2   41.08    1.50
  -1  -3  -2    6.23    0.84
   0  -3  -2    3.07    0.57
   1  -3  -2  115.61    1.98
   3  -3  -2    2.34    0.65
   4  -3  -2   67.25    2.59
   5  -3  -2    1.97    0.86
   6  -3  -2    1.46    0.90
  -4  -2  -2   19.32    2.63
  -3  -2  -2    3.06    0.82
  -2  -2  -2    1.95    0.46
  -1  -2  -2  117.85    2.03
   0  -2  -2   24.55    0.75
   1  -2  -2    2.77    0.46
   3  -2  -2   14.56    1.16
   4  -2  -2    2.81    0.73
   5  -2  -2   38.14    1.59
   6  -2  -2    1.45    0.96
  -4  -1  -2    0.88    0.66
  -3  -1  -2   67.16    1.66
  -2  -1  -2   14.88    0.58
  -1  -1  -2    2.72    0.22
   0  -1  -2  264.89    2.99
   2  -1  -2    2.40    0.42
   3  -1  -2  114.92    3.12
   4  -1  -2    6.57    0.72
   5  -1  -2    1.38    0.57
  -5   0  -2   27.40    1.76
  -4   0  -2    3.85    0.57
  -3   0  -2    1.30    0.30
  -2   0  -2  161.37    1.97
  -1   0  -2   44.00    0.67
   0   0  -2    5.68    0.29
   1   0  -2  262.75    3.50
   2   0  -2   23.82    0.81
   3   0  -2    1.68    0.40
   4   0  -2   48.84    1.63
   5   0  -2   -0.05    0.79
  -5   1  -2    1.20    0.48
  -4   1  -2   65.84    1.65
  -3   1  -2   13.21    0.55
  -2   1  -2    3.16    0.22
  -1   1  -2  253.05    2.56
   0   1  -2   45.41    0.73
   1   1  -2    3.34    0.33
   2   1  -2  114.93    2.17
   3   1  -2    5.63    0.99
   4   1  -2    0.82    0.81
  -6   2  -2   21.44    1.41
  -5   2  -2    2.48    0.54
  -4   2  -2    1.34    0.39
  -3   2  -2  114.45    2.01
  -2   2  -2   23.07    0.52
  -1   2  -2    3.15    0.23
   0   2  -2  162.66    2.06
   1   2  -2   13.20    0.66
   2   2  -2    2.73    0.75
   3   2  -2   37.88    2.26
   4   2  -2    0.57    1.00
  -6   3  -2    0.29    0.67
  -5   3  -2   39.12    1.43
  -4   3  -2    4.46    0.54
  -3   3  -2    1.96    0.33
  -2   3  -2  115.12    1.42
  -1   3  -2   12.74    0.60
   0   3  -2    1.97    0.41
   1   3  -2   64.00    1.74
   2   3  -2    1.30    0.47
   3   3  -2    1.12    0.97
  -6   4  -2    2.84    0.87
  -5   4  -2    0.19    0.54
  -4   4  -2   49.67    1.81
  -3   4  -2    5.59    0.58
  -2   4  -2    1.61    0.37
  -1   4  -2   68.46    1.88
   0   4  -2    3.02    0.55
   1   4  -2    0.76    0.44
   2   4  -2   22.35    2.27
  -5   5  -2    0.44    0.93
  -4   5  -2    1.88    0.71
  -3   5  -2   38.68    1.68
  -2   5  -2    3.62    0.70
  -1   5  -2    2.47    0.60
   0   5  -2   28.32    1.53
  -4   6  -2    1.99    1.26
  -3   6  -2    1.11    0.72
  -2   6  -2   17.73    1.48
   2  -6  -1    2.51    0.80
   3  -6  -1    5.96    1.47
   0  -5  -1    3.43    0.85
   1  -5  -1    4.30    0.81
   2  -5  -1    5.04    0.82
   3  -5  -1    3.97    0.73
   4  -5  -1    4.58    1.09
  -2  -4  -1    0.84    0.88
  -1  -4  -1    4.26    0.69
   0  -4  -1    5.11    0.78
   1  -4  -1   10.27    0.94
   2  -4  -1    6.53    0.73
   4  -4  -1    6.29    1.09
   5  -4  -1    6.19    1.27
  -3  -3  -1    4.60    1.10
  -2  -3  -1    6.15    0.77
  -1  -3  -1    9.84    1.01
   0  -3  -1    6.19    0.73
   1  -3  -1   13.02    0.66
   3  -3  -1    7.14    0.97
   4  -3  -1    8.06    1.15
   5  -3  -1    3.52    1.00
   6  -3  -1    3.57    1.15
  -4  -2  -1    2.79    1.34
  -3  -2  -1    6.96    1.03
  -2  -2  -1    7.45    0.71
  -1  -2  -1   13.06    0.70
   0  -2  -1   31.73    0.79
   1  -2  -1    5.63    0.71
   3  -2  -1   22.18    1.27
   4  -2  -1    6.90    0.98
   5  -2  -1    5.43    1.13
   6  -2  -1    1.84    0.66
  -4  -1  -1    5.66    1.42
  -3  -1  -1    9.41    0.75
  -2  -1  -1   22.14    0.65
  -1  -1  -1    5.77    0.29
   0  -1  -1   26.03    0.58
   2  -1  -1    5.47    0.60
   3  -1  -1   10.60    1.02
   4  -1  -1   12.02    1.29
   5  -1  -1    3.20    0.65
  -5   0  -1    3.89    0.86
  -4   0  -1    7.76    0.71
  -3   0  -1    6.11    0.46
  -2   0  -1   16.32    0.51
  -1   0  -1   53.52    0.75
   1   0  -1   25.00    0.93
   2   0  -1   29.97    1.35
   3   0  -1    6.38    0.63
   4   0  -1    6.67    0.76
   5   0  -1    4.85    1.31
  -5   1  -1    5.20    0.72
  -4   1  -1    8.47    0.70
  -3   1  -1   21.02    0.65
  -2   1  -1    5.55    0.35
  -1   1  -1   26.02    0.37
   0   1  -1   54.51    0.70
   1   1  -1    6.10    0.39
   2   1  -1   12.77    0.68
   3   1  -1   10.87    1.32
   4   1  -1    5.47    1.14
  -6   2  -1    3.08    0.69
  -5   2  -1    4.67    0.66
  -4   2  -1    6.13    0.63
  -3   2  -1   12.38    0.52
  -2   2  -1   32.43    0.64
  -1   2  -1    5.24    0.26
   0   2  -1   16.51    0.51
   1   2  -1   21.57    1.31
   2   2  -1    7.30    1.05
   3   2  -1    5.67    1.13
   4   2  -1    2.27    1.11
  -6   3  -1    3.93    0.91
  -5   3  -1    6.30    0.75
  -4   3  -1   11.17    0.81
  -3   3  -1    5.15    0.39
  -2   3  -1   13.52    0.45
  -1   3  -1   21.35    0.62
   0   3  -1    5.82    0.52
   1   3  -1    9.46    1.22
   2   3  -1    5.07    1.13
   3   3  -1    3.81    1.20
  -6   4  -1    1.82    0.82
  -5   4  -1    5.39    0.92
  -4   4  -1    7.22    0.87
  -3   4  -1   11.30    0.68
  -2   4  -1    5.60    0.59
  -1   4  -1    7.20    0.64
   0   4  -1    7.48    0.80
   1   4  -1    3.44    0.62
   2   4  -1    2.78    1.13
  -5   5  -1    3.05    1.15
  -4   5  -1    4.69    0.85
  -3   5  -1    5.80    0.84
  -2   5  -1    6.52    0.85
  -1   5  -1    5.24    0.78
   0   5  -1    4.66    0.77
  -4   6  -1    2.19    1.32
  -3   6  -1    5.23    0.98
  -2   6  -1    1.82    0.70
   2  -6   0    0.64    0.68
   3  -6   0   75.90    3.82
   0  -5   0    1.70    0.75
   1  -5   0  123.58    3.34
   2  -5   0    1.85    0.57
   3  -5   0    2.00    0.59
   5  -5   0    0.56    0.91
  -2  -4   0    0.40    0.83
  -1  -4   0  126.97    2.78
   0  -4   0    5.48    0.66
   1  -4   0    7.42    0.80
   2  -4   0  317.80    5.27
   3  -4   0    7.25    0.75
   4  -4   0    3.03    0.91
   5  -4   0  120.96    4.35
  -3  -3   0   75.54    2.90
  -2  -3   0    4.46    0.68
  -1  -3   0    9.15    0.75
   0  -3   0  440.97    6.85
   1  -3   0   17.22    0.66
   2  -3   0   17.06    1.16
   3  -3   0  423.37    6.47
   4  -3   0    8.77    1.16
   5  -3   0    2.11    0.86
   6  -3   0   69.37    3.58
  -4  -2   0    1.12    1.20
  -3  -2   0    1.57    0.70
  -2  -2   0  319.22    4.54
  -1  -2   0   18.07    0.73
   0  -2   0   29.59    0.72
   1  -2   0  933.12   12.52
   3  -2   0   19.02    1.28
   4  -2   0  315.06    7.17
   5  -2   0    3.61    1.10
   6  -2   0    0.85    0.67
  -4  -1   0  126.89    4.95
  -3  -1   0    7.64    0.69
  -2  -1   0   18.09    0.64
  -1  -1   0  966.67   10.26
   0  -1   0   55.52    0.86
   2  -1   0  920.35   16.60
   3  -1   0   17.67    1.20
   4  -1   0    7.55    1.09
   5  -1   0  127.69    3.06
  -5   0   0    0.82    0.67
  -4   0   0    4.69    0.57
  -3   0   0  438.97    4.73
  -2   0   0   29.11    0.68
  -1   0   0   55.80    0.65
   1   0   0   57.10    1.49
   2   0   0   30.52    1.36
   3   0   0  440.34    8.90
   4   0   0    3.96    0.62
   5   0   0    1.48    1.00
  -5   1   0  121.39    2.66
  -4   1   0    6.93    0.65
  -3   1   0   17.45    0.62
  -2   1   0  939.66   11.06
  -1   1   0   56.14    0.55
   0   1   0   56.50    1.11
   1   1   0  947.08   12.21
   2   1   0   18.62    0.75
   3   1   0    7.77    1.20
   4   1   0  131.63    4.50
  -6   2   0    0.40    0.54
  -5   2   0    2.29    0.53
  -4   2   0  318.80    4.55
  -3   2   0   17.83    0.60
  -2   2   0   28.73    0.48
  -1   2   0  970.01    7.58
   0   2   0   28.55    0.98
   1   2   0   17.92    0.87
   2   2   0  313.93    7.26
   3   2   0    2.18    0.90
   4   2   0   -0.16    0.90
  -6   3   0   75.43    2.79
  -5   3   0    2.63    0.55
  -4   3   0    7.46    0.68
  -3   3   0  438.68    4.21
  -2   3   0   17.76    0.46
  -1   3   0   17.04    0.54
   0   3   0  440.64    6.69
   1   3   0    7.08    0.79
   2   3   0    2.83    0.93
   3   3   0   74.92    3.66
  -6   4   0    0.11    0.66
  -5   4   0  125.77    3.38
  -4   4   0    4.96    0.75
  -3   4   0    8.03    0.46
  -2   4   0  315.32    4.26
  -1   4   0    8.06    0.67
   0   4   0    4.08    0.53
   1   4   0  125.49    2.91
   2   4   0    0.59    0.57
  -5   5   0    0.35    0.85
  -4   5   0  125.63    3.19
  -3   5   0    3.06    0.68
  -2   5   0    3.19    0.67
  -1   5   0  123.91    2.98
   0   5   0    1.09    0.55
  -4   6   0    0.23    1.27
  -3   6   0   79.36    3.39
  -2   6   0    0.19    0.58
   2  -6   1    3.26    0.90
   3  -6   1    4.64    1.37
   0  -5   1    4.25    0.91
   1  -5   1    4.26    0.80
   2  -5   1    6.60    0.91
   3  -5   1    5.64    1.24
   5  -5   1    0.59    0.89
  -2  -4   1    3.18    0.99
  -1  -4   1    4.68    0.71
   0  -4   1    9.26    0.80
   1  -4   1    9.25    0.72
   2  -4   1    5.41    0.71
   3  -4   1   11.54    0.92
   4  -4   1    7.75    1.26
   5  -4   1    5.72    1.26
   6  -4   1    1.93    1.14
  -3  -3   1    4.33    1.11
  -2  -3   1    6.30    0.84
  -1  -3   1    7.16    0.71
   0  -3   1    6.37    0.60
   1  -3   1   20.67    0.77
   2  -3   1   11.59    0.80
   3  -3   1    6.79    0.66
   4  -3   1   10.23    1.32
   5  -3   1    3.15    0.98
   6  -3   1    2.19    1.17
  -4  -2   1    4.02    1.04
  -3  -2   1    6.11    1.03
  -2  -2   1    5.54    0.63
  -1  -2   1   20.61    0.63
   0  -2   1   17.52    0.78
   1  -2   1    5.21    0.43
   2  -2   1   30.84    1.28
   3  -2   1   15.04    1.31
   4  -2   1    5.18    1.00
   5  -2   1    7.50    1.29
   6  -2   1    3.61    1.25
  -4  -1   1    5.38    0.92
  -3  -1   1   11.29    0.80
  -2  -1   1   12.41    0.57
  -1  -1   1    5.77    0.33
   0  -1   1   55.35    0.90
   1  -1   1   26.34    0.92
   2  -1   1    6.08    0.69
   3  -1   1   21.06    1.36
   4  -1   1    6.74    1.08
   5  -1   1    5.43    1.18
  -5   0   1    3.34    0.83
  -4   0   1    6.59    0.67
  -3   0   1    7.02    0.49
  -2   0   1   31.10    0.57
  -1   0   1   25.91    0.42
   1   0   1   54.04    0.95
   2   0   1   15.70    0.54
   3   0   1    5.64    0.94
   4   0   1    6.78    1.20
   5   0   1    3.72    1.14
  -5   1   1    4.58    0.67
  -4   1   1    9.63    0.75
  -3   1   1   13.53    0.61
  -2   1   1    5.60    0.34
  -1   1   1   54.26    0.54
   0   1   1   25.99    0.58
   1   1   1    6.97    0.53
   2   1   1   21.72    0.66
   3   1   1    8.58    1.20
   4   1   1    5.73    1.26
  -6   2   1    3.03    0.86
  -5   2   1    4.86    0.68
  -4   2   1    6.48    0.63
  -3   2   1   20.56    0.54
  -2   2   1   15.68    0.37
  -1   2   1    5.90    0.24
   0   2   1   33.17    1.04
   1   2   1   11.79    0.80
   2   2   1    6.24    0.72
   3   2   1    5.12    1.17
   4   2   1    2.98    1.17
  -6   3   1    4.42    0.78
  -5   3   1    5.50    0.71
  -4   3   1    7.83    0.70
  -3   3   1    6.88    0.36
  -2   3   1   21.11    0.50
  -1   3   1   11.85    0.48
   0   3   1    6.59    0.73
   1   3   1   11.12    0.98
   2   3   1    6.29    1.21
   3   3   1    6.23    1.40
  -6   4   1    2.36    0.87
  -5   4   1    6.23    0.78
  -4   4   1    8.25    0.77
  -3   4   1    8.28    0.44
  -2   4   1    6.37    0.61
  -1   4   1    9.87    0.72
   0   4   1    6.91    0.64
   1   4   1    5.59    0.78
   2   4   1    3.07    0.74
  -5   5   1    2.87    0.80
  -4   5   1    6.28    0.93
  -3   5   1    5.05    0.65
  -2   5   1    6.04    0.71
  -1   5   1    4.46    0.63
   0   5   1    3.09    0.69
  -4   6   1    3.04    1.18
  -3   6   1    4.13    0.90
  -2   6   1    2.55    0.78
   2  -6   2   20.87    1.70
   3  -6   2    1.66    1.08
   0  -5   2   26.85    1.95
   1  -5   2    1.79    0.66
   2  -5   2    1.64    0.59
   3  -5   2   40.17    2.54
   5  -5   2    1.58    0.94
  -2  -4   2   21.14    2.65
  -1  -4   2    0.93    0.67
   0  -4   2    3.47    0.71
   1  -4   2   64.34    2.05
   2  -4   2    2.21    0.51
   3  -4   2    3.64    0.90
   4  -4   2   49.01    2.58
   5  -4   2    0.73    0.84
   6  -4   2   -1.11    0.86
  -3  -3   2    1.33    0.83
  -2  -3   2    2.61    0.60
  -1  -3   2   66.52    1.71
   0  -3   2    1.59    0.38
   1  -3   2   13.14    0.67
   2  -3   2  114.73    1.85
   3  -3   2    2.01    0.47
   4  -3   2    4.04    1.02
   5  -3   2   33.86    2.27
   6  -3   2    0.62    1.09
  -4  -2   2    1.92    0.91
  -3  -2   2   36.76    1.84
  -2  -2   2    1.25    0.43
  -1  -2   2   14.22    0.79
   0  -2   2  163.87    2.36
   1  -2   2    3.73    0.30
   2  -2   2   23.49    0.73
   3  -2   2  113.40    3.40
   4  -2   2    2.09    0.76
   5  -2   2    2.56    1.01
   6  -2   2   16.79    2.08
  -4  -1   2    1.07    0.66
  -3  -1   2    4.39    0.54
  -2  -1   2  117.28    1.68
  -1  -1   2    3.06    0.25
   0  -1   2   45.31    1.05
   1  -1   2  261.45    3.61
   2  -1   2    3.62    0.32
   3  -1   2   14.27    1.30
   4  -1   2   62.20    2.78
   5  -1   2    1.13    0.90
  -5   0   2    1.10    0.66
  -4   0   2   47.81    1.46
  -3   0   2    2.32    0.41
  -2   0   2   22.94    0.58
  -1   0   2  263.92    2.64
   0   0   2    5.47    0.22
   1   0   2   44.84    0.89
   2   0   2  162.87    2.56
   3   0   2    1.82    0.74
   4   0   2    2.67    0.91
   5   0   2   24.49    2.34
  -5   1   2    1.89    0.64
  -4   1   2    4.97    0.48
  -3   1   2  114.86    1.74
  -2   1   2    2.76    0.20
  -1   1   2   46.10    0.58
   0   1   2  259.84    3.00
   1   1   2    2.73    0.33
   2   1   2   13.06    0.75
   3   1   2   67.58    2.77
   4   1   2    0.70    0.85
  -6   2   2    0.21    0.65
  -5   2   2   38.91    1.42
  -4   2   2    1.29    0.32
  -3   2   2   13.77    0.49
  -2   2   2  161.81    1.44
  -1   2   2    2.07    0.21
   0   2   2   24.08    0.89
   1   2   2  114.25    2.37
   2   2   2    1.06    0.44
   3   2   2    3.20    0.97
   4   2   2   22.10    2.40
  -6   3   2    1.18    0.58
  -5   3   2    2.59    0.54
  -4   3   2   65.32    1.70
  -3   3   2    1.58    0.22
  -2   3   2   13.95    0.43
  -1   3   2  112.73    2.02
   0   3   2    0.71    0.41
   1   3   2    5.90    0.74
   2   3   2   35.02    2.25
   3   3   2   -1.07    0.79
  -6   4   2   19.90    1.69
  -5   4   2    1.67    0.55
  -4   4   2    3.38    0.57
  -3   4   2   67.18    1.03
  -2   4   2    1.45    0.39
  -1   4   2    6.21    0.59
   0   4   2   47.40    1.78
   1   4   2    0.35    0.53
   2   4   2    1.18    1.11
  -5   5   2   25.12    1.78
  -3   5   2    2.25    0.52
  -2   5   2   38.03    1.34
  -1   5   2    0.22    0.42
   0   5   2    1.95    0.54
  -3   6   2    1.59    0.86
  -2   6   2    1.53    0.69
   2  -6   3   11.38    1.92
   3  -6   3    0.45    0.92
   0  -5   3   14.16    1.45
   1  -5   3    1.23    0.66
   2  -5   3    3.80    0.79
   3  -5   3   17.00    1.94
   5  -5   3    2.32    1.09
  -2  -4   3    9.73    1.98
  -1  -4   3    1.58    0.70
   0  -4   3    1.78    0.63
   1  -4   3   31.83    1.47
   2  -4   3    0.62    0.43
   3  -4   3    2.97    0.88
   4  -4   3   23.65    2.18
   5  -4   3    0.85    0.92
   6  -4   3    2.20    1.14
  -3  -3   3   -0.05    0.75
  -2  -3   3    3.65    0.65
  -1  -3   3   32.53    1.23
   0  -3   3    0.87    0.36
   1  -3   3    3.16    0.38
   2  -3   3   53.19    1.46
   3  -3   3    1.52    0.44
   4  -3   3    4.05    1.05
   5  -3   3   20.25    2.07
   6  -3   3   -0.74    0.99
  -4  -2   3    1.32    0.82
  -3  -2   3   17.76    1.49
  -2  -2   3    1.58    0.45
  -1  -2   3    3.82    0.47
   0  -2   3   73.52    1.79
   1  -2   3    1.26    0.20
   2  -2   3    3.10    0.33
   3  -2   3   53.29    2.24
   4  -2   3    1.38    0.75
   5  -2   3    3.37    1.03
   6  -2   3    8.45    1.62
  -4  -1   3    1.01    0.62
  -3  -1   3    3.59    0.51
  -2  -1   3   53.43    1.06
  -1  -1   3    1.78    0.22
   0  -1   3    2.65    0.24
   1  -1   3  116.92    1.83
   2  -1   3    1.76    0.31
   3  -1   3    3.08    0.73
   4  -1   3   32.36    2.07
   5  -1   3    0.26    0.88
  -5   0   3    2.43    1.13
  -4   0   3   24.26    1.06
  -3   0   3    0.98    0.34
  -2   0   3    2.97    0.28
  -1   0   3  115.85    1.39
   0   0   3    2.57    0.23
   1   0   3    2.79    0.28
   2   0   3   75.73    1.49
   3   0   3   -0.25    0.57
   4   0   3    3.08    0.89
   5   0   3   13.50    1.82
  -5   1   3    0.26    0.51
  -4   1   3    3.14    0.52
  -3   1   3   51.29    1.11
  -2   1   3    2.11    0.20
  -1   1   3    2.65    0.18
   0   1   3  117.22    1.56
   1   1   3    1.83    0.31
   2   1   3    2.71    0.45
   3   1   3   34.13    1.99
   4   1   3    1.56    0.93
  -6   2   3    3.13    0.86
  -5   2   3   18.21    1.45
  -4   2   3    0.93    0.32
  -3   2   3    3.10    0.29
  -2   2   3   73.85    0.84
  -1   2   3    2.48    0.26
   0   2   3    2.50    0.33
   1   2   3   52.27    1.51
   2   2   3    1.62    0.46
   3   2   3    1.50    0.89
  -6   3   3    0.07    0.64
  -5   3   3    1.86    0.52
  -4   3   3   28.84    0.97
  -3   3   3    1.23    0.23
  -2   3   3    3.15    0.26
  -1   3   3   53.44    1.30
   0   3   3    0.99    0.41
   1   3   3    3.49    0.63
   2   3   3   18.43    1.88
   3   3   3   -0.25    0.90
  -6   4   3   10.04    1.44
  -5   4   3    0.07    0.45
  -4   4   3    3.33    0.47
  -3   4   3   30.69    0.73
  -2   4   3    1.08    0.32
  -1   4   3    2.46    0.43
   0   4   3   23.93    1.29
   1   4   3    0.71    0.56
   2   4   3    1.01    1.07
  -5   5   3   12.68    1.36
  -3   5   3    2.76    0.53
  -2   5   3   17.24    1.05
  -1   5   3    0.84    0.45
   0   5   3    2.26    0.55
  -3   6   3    0.60    0.58
  -2   6   3    1.76    0.70
   3  -6   4    2.36    1.22
   0  -5   4   38.52    2.02
   1  -5   4    5.81    0.95
   2  -5   4   12.45    1.19
   3  -5   4   62.84    3.17
   5  -5   4    6.16    1.40
  -1  -4   4    4.73    0.92
   0  -4   4   15.22    1.32
   1  -4   4  113.06    2.87
   2  -4   4   17.73    1.13
   3  -4   4   17.47    1.73
   4  -4   4   78.09    3.41
   5  -4   4    4.55    1.21
   6  -4   4    6.21    1.55
  -3  -3   4    2.02    0.91
  -2  -3   4   12.16    1.02
  -1  -3   4  111.67    2.29
   0  -3   4   23.35    0.95
   1  -3   4   33.34    1.29
   2  -3   4  211.01    3.68
   3  -3   4   26.49    1.16
   4  -3   4   15.23    1.74
   5  -3   4   54.71    3.03
   6  -3   4    2.99    1.29
  -4  -2   4    6.11    1.17
  -3  -2   4   58.00    2.25
  -2  -2   4   17.61    1.02
  -1  -2   4   33.59    1.09
   0  -2   4  308.99    5.00
   1  -2   4   51.15    1.34
   2  -2   4   44.62    1.05
   3  -2   4  210.60    5.35
   4  -2   4   18.73    1.80
   5  -2   4   11.11    1.61
  -4  -1   4    5.53    0.94
  -3  -1   4   18.18    1.34
  -2  -1   4  215.01    2.63
  -1  -1   4   54.99    0.91
   0  -1   4   75.73    1.17
   1  -1   4  473.57    6.59
   2  -1   4   55.38    1.29
   3  -1   4   30.49    1.76
   4  -1   4  106.86    3.75
   5  -1   4    4.97    1.28
  -5   0   4    4.62    1.34
  -4   0   4   81.60    1.95
  -3   0   4   26.71    0.97
  -2   0   4   47.26    0.91
  -1   0   4  488.67    4.77
   0   0   4   96.23    1.37
   1   0   4   76.31    1.12
   2   0   4  310.71    4.54
   3   0   4   22.27    1.63
   4   0   4   11.45    1.48
   5   0   4   38.93    2.64
  -5   1   4    5.81    0.96
  -4   1   4   21.10    1.06
  -3   1   4  210.39    3.18
  -2   1   4   54.48    1.05
  -1   1   4   74.52    1.09
   0   1   4  487.06    5.33
   1   1   4   54.00    1.27
   2   1   4   33.30    1.14
   3   1   4  114.52    3.79
   4   1   4    4.74    1.22
  -6   2   4    4.10    1.37
  -5   2   4   57.91    2.23
  -4   2   4   17.76    0.85
  -3   2   4   35.06    0.77
  -2   2   4  312.52    2.92
  -1   2   4   53.11    0.96
   0   2   4   48.19    1.09
   1   2   4  210.79    3.68
   2   2   4   17.33    1.06
   3   2   4   10.54    1.54
  -6   3   4    2.41    0.82
  -5   3   4   11.12    1.20
  -4   3   4  109.56    1.97
  -3   3   4   26.23    0.63
  -2   3   4   33.55    0.70
  -1   3   4  214.38    3.14
   0   3   4   24.86    1.15
   1   3   4   18.52    1.24
   2   3   4   62.25    2.99
   3   3   4    2.17    1.15
  -6   4   4   27.06    2.97
  -5   4   4    4.11    0.73
  -4   4   4   16.59    0.91
  -3   4   4  110.70    1.64
  -2   4   4   19.90    0.84
  -1   4   4   22.20    1.28
   0   4   4   81.14    2.37
   1   4   4    6.81    0.96
   2   4   4    6.22    1.58
  -5   5   4   38.88    2.81
  -4   5   4    5.53    0.79
  -3   5   4   12.14    0.93
  -2   5   4   60.87    1.69
  -1   5   4    5.79    0.68
   0   5   4    8.79    0.88
  -3   6   4    3.01    0.81
  -2   6   4    5.13    1.18
   3  -6   5    5.90    1.52
   0  -5   5    0.15    0.70
   1  -5   5   19.38    1.56
   2  -5   5   10.35    1.72
   3  -5   5    0.00    0.79
   4  -5   5   15.94    1.90
   5  -5   5    4.40    1.26
  -1  -4   5   14.53    1.41
   0  -4   5    8.87    1.07
   1  -4   5    2.52    0.65
   2  -4   5   39.42    1.57
   3  -4   5   10.51    1.38
   4  -4   5   -0.07    0.70
   5  -4   5   14.64    1.95
  -3  -3   5   10.19    2.00
  -2  -3   5    8.57    0.89
  -1  -3   5    1.81    0.47
   0  -3   5   58.77    1.90
   1  -3   5   10.65    0.89
   2  -3   5    4.83    0.59
   3  -3   5   56.15    1.71
   4  -3   5    9.21    1.43
   5  -3   5   -0.57    0.86
   6  -3   5    5.09    1.50
  -4  -2   5    5.08    1.08
  -3  -2   5    0.00    0.57
  -2  -2   5   38.09    1.31
  -1  -2   5   10.78    0.72
   0  -2   5    8.97    0.56
   1  -2   5  116.86    2.28
   2  -2   5   11.48    0.57
   3  -2   5    5.34    1.01
   4  -2   5   41.11    2.41
   5  -2   5    8.21    1.45
  -4  -1   5   16.53    1.47
  -3  -1   5    9.10    0.98
  -2  -1   5    4.03    0.39
  -1  -1   5  119.53    1.57
   0  -1   5   11.07    0.45
   1  -1   5   15.04    0.58
   2  -1   5  119.00    2.23
   3  -1   5   10.03    1.23
   4  -1   5    0.87    0.75
   5  -1   5   15.42    1.93
  -5   0   5    6.11    1.46
  -4   0   5   -0.06    0.39
  -3   0   5   55.97    1.43
  -2   0   5   11.72    0.54
  -1   0   5   14.39    0.47
   0   0   5  203.21    2.12
   1   0   5   11.82    0.44
   2   0   5    7.71    0.57
   3   0   5   55.60    2.46
   4   0   5    7.13    1.25
   5   0   5    0.47    0.98
  -5   1   5   18.03    1.52
  -4   1   5    9.11    0.78
  -3   1   5    5.23    0.53
  -2   1   5  118.55    1.65
  -1   1   5   11.58    0.54
   0   1   5   14.02    0.48
   1   1   5  117.71    1.82
   2   1   5   11.27    0.79
   3   1   5    1.91    0.81
   4   1   5   17.88    2.03
  -5   2   5    0.17    0.47
  -4   2   5   40.14    1.33
  -3   2   5   10.56    0.56
  -2   2   5    6.84    0.35
  -1   2   5  119.66    1.62
   0   2   5   11.38    0.61
   1   2   5    4.38    0.57
   2   2   5   39.76    1.48
   3   2   5    5.23    1.27
  -6   3   5    8.17    1.21
  -5   3   5    7.88    1.06
  -4   3   5    1.30    0.44
  -3   3   5   56.90    1.26
  -2   3   5   10.66    0.51
  -1   3   5    3.50    0.46
   0   3   5   57.06    1.70
   1   3   5    9.01    0.91
   2   3   5    1.37    0.88
   3   3   5   10.46    1.83
  -6   4   5   -1.52    1.00
  -5   4   5   14.87    1.49
  -4   4   5    7.82    0.81
  -3   4   5    0.76    0.32
  -2   4   5   39.31    1.06
  -1   4   5   10.18    0.96
   0   4   5    0.88    0.50
   1   4   5   16.64    1.38
  -5   5   5    0.50    0.73
  -4   5   5   14.89    1.45
  -3   5   5    8.97    0.82
  -2   5   5    0.44    0.45
  -1   5   5   15.96    1.06
   0   5   5    5.45    0.99
  -3   6   5    7.74    1.06
   3  -6   6    6.03    1.55
   0  -5   6    7.20    1.15
   1  -5   6   14.96    1.42
   2  -5   6   59.95    3.25
   3  -5   6   13.96    1.91
   4  -5   6   12.93    1.80
  -1  -4   6   13.90    1.42
   0  -4   6   75.41    2.50
   1  -4   6   21.40    1.46
   2  -4   6   28.55    2.06
   3  -4   6  102.61    3.71
   4  -4   6   15.31    1.78
   5  -4   6   12.32    1.87
  -2  -3   6   58.41    2.31
  -1  -3   6   22.33    1.41
   0  -3   6   33.13    1.49
   1  -3   6  192.13    3.72
   2  -3   6   44.51    2.21
   3  -3   6   37.27    1.45
   4  -3   6   95.29    3.78
   5  -3   6   12.79    1.96
  -3  -2   6   12.68    1.30
  -2  -2   6   27.29    1.13
  -1  -2   6  198.62    3.03
   0  -2   6   64.63    1.28
   1  -2   6   66.87    1.64
   2  -2   6  273.42    6.45
   3  -2   6   45.95    2.26
   4  -2   6   22.57    2.09
   5  -2   6   57.71    3.11
  -4  -1   6   15.50    1.43
  -3  -1   6   98.76    2.71
  -2  -1   6   46.93    1.04
  -1  -1   6   68.73    1.39
   0  -1   6  418.03    5.77
   1  -1   6   98.00    1.84
   2  -1   6   66.59    1.60
   3  -1   6  190.40    5.05
   4  -1   6   23.01    2.05
   5  -1   6   13.17    1.84
  -5   0   6   32.44    3.10
  -4   0   6   18.61    1.07
  -3   0   6   33.98    1.14
  -2   0   6  272.20    3.18
  -1   0   6   99.26    1.64
   0   0   6  105.92    1.31
   1   0   6  413.02    4.71
   2   0   6   65.20    1.56
   3   0   6   35.39    2.01
   4   0   6   77.13    3.29
   5   0   6    4.30    1.37
  -5   1   6   10.81    1.20
  -4   1   6  100.38    2.21
  -3   1   6   44.50    1.28
  -2   1   6   66.65    1.18
  -1   1   6  414.83    5.05
   0   1   6   98.58    1.47
   1   1   6   67.84    1.30
   2   1   6  193.26    3.47
   3   1   6   22.13    1.99
   4   1   6   15.26    1.92
  -5   2   6   14.58    1.36
  -4   2   6   28.64    1.15
  -3   2   6  193.89    2.60
  -2   2   6   66.02    1.25
  -1   2   6   68.85    1.14
   0   2   6  276.68    3.61
   1   2   6   46.35    1.45
   2   2   6   27.91    1.28
   3   2   6   59.85    3.04
  -5   3   6   59.83    2.38
  -4   3   6   22.71    1.15
  -3   3   6   36.24    1.03
  -2   3   6  190.18    3.14
  -1   3   6   46.31    1.24
   0   3   6   33.59    1.34
   1   3   6   99.46    2.55
   2   3   6   13.19    1.77
  -5   4   6   14.31    1.49
  -4   4   6   76.29    2.58
  -3   4   6   21.28    0.86
  -2   4   6   27.17    1.04
  -1   4   6  100.04    2.17
   0   4   6   17.86    1.34
   1   4   6   12.60    1.23
  -5   5   6    6.01    1.15
  -4   5   6   13.94    1.45
  -3   5   6   56.36    1.69
  -2   5   6   11.67    1.10
  -1   5   6   12.53    1.12
   0   5   6   31.97    2.59
  -3   6   6    8.39    1.11
   0  -5   7    2.98    0.92
   1  -5   7    3.74    0.91
   2  -5   7    5.72    1.41
   3  -5   7    4.83    1.29
   4  -5   7    2.78    1.02
   5  -5   7    1.79    1.09
  -1  -4   7    2.51    0.91
   0  -4   7    6.15    0.97
   1  -4   7    6.92    0.93
   2  -4   7    5.00    1.14
   3  -4   7    8.07    1.34
   4  -4   7    4.37    1.13
   5  -4   7    3.10    1.21
  -2  -3   7    6.26    1.03
  -1  -3   7    7.98    0.99
   0  -3   7    5.69    0.80
   1  -3   7   13.14    1.02
   2  -3   7   12.43    1.43
   3  -3   7    6.40    0.77
   4  -3   7    6.79    1.27
   5  -3   7    3.36    1.27
  -3  -2   7    2.45    0.76
  -2  -2   7    4.64    0.63
  -1  -2   7   12.69    0.79
   0  -2   7   13.52    0.98
   1  -2   7    6.19    0.64
   2  -2   7   12.40    1.32
   3  -2   7   10.88    1.35
   4  -2   7    2.93    1.01
   5  -2   7    3.95    1.24
  -4  -1   7    3.33    0.90
  -3  -1   7    7.78    0.94
  -2  -1   7   11.67    0.81
  -1  -1   7    5.77    0.50
   0  -1   7   21.99    0.67
   1  -1   7   20.52    0.80
   2  -1   7    4.86    0.57
   3  -1   7   12.94    1.40
   4  -1   7    5.73    1.21
   5  -1   7    3.42    1.22
  -5   0   7    2.85    0.87
  -4   0   7    3.93    0.60
  -3   0   7    5.68    0.61
  -2   0   7   16.80    0.66
  -1   0   7   19.40    0.72
   0   0   7    5.29    0.31
   1   0   7   22.77    0.67
   2   0   7   14.48    0.84
   3   0   7    5.32    1.08
   4   0   7    3.75    1.12
   5   0   7    3.76    1.41
  -5   1   7    3.72    0.70
  -4   1   7    6.70    0.70
  -3   1   7   10.05    0.74
  -2   1   7    5.13    0.41
  -1   1   7   20.06    0.76
   0   1   7   20.43    0.60
   1   1   7    5.55    0.46
   2   1   7   12.16    0.88
   3   1   7    9.36    1.39
   4   1   7    3.56    1.26
  -5   2   7    3.32    0.64
  -4   2   7    5.30    0.65
  -3   2   7   12.78    0.65
  -2   2   7   14.02    0.68
  -1   2   7    5.24    0.37
   0   2   7   16.17    0.73
   1   2   7   10.17    0.83
   2   2   7    5.96    0.74
   3   2   7    4.40    1.21
  -5   3   7    6.07    1.00
  -4   3   7    5.78    0.70
  -3   3   7    4.90    0.51
  -2   3   7   13.08    0.88
  -1   3   7   11.61    0.73
   0   3   7    4.94    0.59
   1   3   7    8.78    0.93
   2   3   7    2.41    1.06
  -5   4   7    2.86    0.88
  -4   4   7    6.21    0.76
  -3   4   7    5.58    0.68
  -2   4   7    4.67    0.78
  -1   4   7    9.15    1.05
   0   4   7    5.30    0.82
   1   4   7    2.21    0.76
  -5   5   7    2.35    0.92
  -4   5   7    2.24    0.87
  -3   5   7    4.79    0.97
  -2   5   7    3.48    0.67
  -1   5   7    3.75    1.24
   0   5   7    4.60    1.43
   0  -5   8    3.13    1.35
   1  -5   8   22.23    1.73
   2  -5   8    2.69    1.26
   3  -5   8    1.59    1.01
   4  -5   8   18.59    2.07
  -1  -4   8   22.01    1.78
   0  -4   8    1.00    0.70
   1  -4   8    4.73    0.81
   2  -4   8   39.96    2.50
   3  -4   8    3.23    1.04
   4  -4   8    4.49    1.17
   5  -4   8   15.19    2.03
  -2  -3   8    1.69    0.77
  -1  -3   8    4.67    0.83
   0  -3   8   52.86    1.93
   1  -3   8    3.58    0.63
   2  -3   8   10.76    1.42
   3  -3   8   53.10    1.82
   4  -3   8    1.12    0.91
   5  -3   8    3.22    1.29
  -3  -2   8    2.96    0.82
  -2  -2   8   44.68    1.59
  -1  -2   8    2.56    0.63
   0  -2   8   13.26    1.01
   1  -2   8   93.73    2.15
   2  -2   8    4.36    0.65
   3  -2   8    7.89    0.84
   4  -2   8   39.24    2.46
   5  -2   8    1.97    1.16
  -4  -1   8   20.37    1.67
  -3  -1   8    2.10    0.63
  -2  -1   8    8.88    0.77
  -1  -1   8   93.46    1.78
   0  -1   8    4.95    0.40
   1  -1   8   21.69    0.71
   2  -1   8   95.53    2.12
   3  -1   8    2.31    0.85
   4  -1   8    3.60    1.10
   5  -1   8   19.53    2.17
  -5   0   8    0.23    1.04
  -4   0   8    2.74    0.72
  -3   0   8   54.08    1.50
  -2   0   8    3.02    0.37
  -1   0   8   20.06    0.78
   0   0   8  128.74    1.65
   1   0   8    5.37    0.43
   2   0   8   14.53    0.89
   3   0   8   53.46    2.54
   4   0   8    2.07    1.03
  -5   1   8   19.94    1.31
  -4   1   8    1.39    0.45
  -3   1   8    7.98    0.57
  -2   1   8   92.69    1.58
  -1   1   8    4.90    0.48
   0   1   8   19.77    0.63
   1   1   8   96.05    1.69
   2   1   8    2.43    0.51
   3   1   8    4.07    1.07
   4   1   8   19.90    2.30
  -5   2   8    2.87    0.64
  -4   2   8   40.66    1.43
  -3   2   8    2.47    0.38
  -2   2   8   12.50    0.80
  -1   2   8   92.93    1.93
   0   2   8    3.27    0.42
   1   2   8    8.64    0.80
   2   2   8   42.35    1.62
   3   2   8   -0.09    0.88
  -5   3   8    0.98    0.55
  -4   3   8    3.14    0.58
  -3   3   8   52.48    1.33
  -2   3   8    1.48    0.42
  -1   3   8    6.70    0.83
   0   3   8   53.49    1.46
   1   3   8    0.88    0.52
   2   3   8    3.95    1.12
  -5   4   8   19.71    1.75
  -4   4   8    1.51    0.54
  -3   4   8    4.17    0.63
  -2   4   8   39.52    1.75
  -1   4   8    1.99    0.65
   0   4   8    3.88    1.10
   1   4   8   14.44    1.98
  -5   5   8    2.01    1.45
  -4   5   8   19.80    1.79
  -3   5   8    1.71    0.74
  -2   5   8    2.68    0.57
  -1   5   8   20.23    2.36
   1  -5   9    3.19    1.33
   2  -5   9    1.39    1.06
   3  -5   9   18.46    2.22
   4  -5   9    2.69    1.14
  -1  -4   9    5.05    1.06
   0  -4   9    0.60    0.65
   1  -4   9   30.20    1.59
   2  -4   9    5.82    1.33
   3  -4   9   -0.73    0.81
   4  -4   9   23.02    2.20
   5  -4   9    1.80    1.16
  -2  -3   9    0.19    0.73
  -1  -3   9   30.18    1.65
   0  -3   9    7.86    0.95
   1  -3   9    1.87    0.58
   2  -3   9   50.49    2.63
   3  -3   9    6.25    0.82
   4  -3   9    0.20    0.89
   5  -3   9   16.15    2.15
  -3  -2   9   20.49    2.43
  -2  -2   9    4.88    0.89
  -1  -2   9    2.57    0.67
   0  -2   9   58.84    1.87
   1  -2   9   11.13    0.88
   2  -2   9    2.68    0.57
   3  -2   9   48.24    1.69
   4  -2   9    5.76    1.31
   5  -2   9   -0.09    0.99
  -4  -1   9    5.22    0.96
  -3  -1   9    1.20    0.58
  -2  -1   9   47.66    1.41
  -1  -1   9   12.27    0.71
   0  -1   9    6.09    0.49
   1  -1   9   79.98    1.49
   2  -1   9   11.08    0.88
   3  -1   9    1.77    0.77
   4  -1   9   23.51    2.25
   5  -1   9    4.65    1.31
  -4   0   9   22.70    1.64
  -3   0   9    6.95    0.69
  -2   0   9    3.62    0.49
  -1   0   9   80.08    1.63
   0   0   9   14.18    0.51
   1   0   9    5.70    0.47
   2   0   9   63.01    1.71
   3   0   9    9.94    1.42
   4   0   9   -0.56    0.83
  -5   1   9    4.27    0.72
  -4   1   9    0.80    0.45
  -3   1   9   46.17    1.18
  -2   1   9   10.30    0.74
  -1   1   9    5.91    0.55
   0   1   9   79.33    1.38
   1   1   9   11.39    0.68
   2   1   9    2.45    0.51
   3   1   9   30.02    2.13
   4   1   9    4.46    1.43
  -5   2   9   16.38    1.20
  -4   2   9    7.82    0.81
  -3   2   9    2.39    0.41
  -2   2   9   60.14    1.55
  -1   2   9   10.96    0.79
   0   2   9    3.93    0.45
   1   2   9   45.48    1.31
   2   2   9    7.76    0.91
   3   2   9    0.71    0.98
  -5   3   9   -0.21    0.48
  -4   3   9   26.24    1.36
  -3   3   9    7.52    0.74
  -2   3   9    1.41    0.45
  -1   3   9   46.82    1.81
   0   3   9    7.64    1.01
   1   3   9    1.57    0.56
   2   3   9   18.48    2.05
  -5   4   9    4.16    0.82
  -4   4   9    0.40    0.64
  -3   4   9   25.76    1.34
  -2   4   9    5.66    0.88
  -1   4   9    0.74    0.56
   0   4   9   26.42    2.57
   1   4   9    4.68    1.34
  -4   5   9    5.00    1.09
  -3   5   9    0.55    0.68
  -2   5   9   18.76    1.25
  -1   5   9    3.62    1.31
   1  -5  10   12.79    2.13
   2  -5  10    7.71    1.70
   3  -5  10   35.33    2.64
   4  -5  10   12.34    1.85
  -1  -4  10   13.24    1.51
   0  -4  10    8.92    1.19
   1  -4  10   46.70    2.95
   2  -4  10   27.32    2.27
   3  -4  10   13.84    1.82
   4  -4  10   36.03    2.48
   5  -4  10    9.36    1.76
  -2  -3  10    5.38    1.53
  -1  -3  10   48.66    2.14
   0  -3  10   34.27    1.66
   1  -3  10   28.06    1.41
   2  -3  10   84.79    3.55
   3  -3  10   37.80    1.63
   4  -3  10    8.68    1.51
   5  -3  10   31.63    2.90
  -3  -2  10   23.88    2.64
  -2  -2  10   29.76    1.63
  -1  -2  10   25.46    1.47
   0  -2  10  123.48    2.89
   1  -2  10   73.74    1.99
   2  -2  10   36.73    1.47
   3  -2  10   86.48    3.32
   4  -2  10   28.79    2.46
   5  -2  10    7.37    1.59
  -4  -1  10   13.40    1.43
  -3  -1  10   12.42    1.21
  -2  -1  10   89.93    2.01
  -1  -1  10   73.05    1.63
   0  -1  10   57.35    1.79
   1  -1  10  163.80    2.55
   2  -1  10   75.39    1.98
   3  -1  10   23.98    1.78
   4  -1  10   51.47    2.84
   5  -1  10   11.56    1.89
  -4   0  10   39.07    1.92
  -3   0  10   38.47    1.33
  -2   0  10   38.60    1.24
  -1   0  10  163.37    2.64
   0   0  10  112.34    1.58
   1   0  10   57.32    1.26
   2   0  10  120.32    2.60
   3   0  10   42.91    2.32
   4   0  10    9.12    1.63
  -5   1  10   11.41    1.06
  -4   1  10   10.85    0.92
  -3   1  10   88.67    1.72
  -2   1  10   73.76    1.72
  -1   1  10   55.16    1.42
   0   1  10  162.57    3.29
   1   1  10   72.75    1.53
   2   1  10   25.37    1.23
   3   1  10   53.40    2.76
   4   1  10   13.72    1.98
  -5   2  10   32.04    1.61
  -4   2  10   28.21    1.32
  -3   2  10   25.87    1.07
  -2   2  10  121.57    2.39
  -1   2  10   74.63    1.78
   0   2  10   38.24    1.54
   1   2  10   87.82    1.89
   2   2  10   27.34    1.49
   3   2  10    4.63    1.34
  -5   3  10    6.84    0.92
  -4   3  10   50.58    1.76
  -3   3  10   35.07    1.34
  -2   3  10   25.80    1.19
  -1   3  10   89.34    2.63
   0   3  10   34.56    1.71
   1   3  10   11.03    1.65
  -5   4  10    9.96    1.36
  -4   4  10    8.93    1.19
  -3   4  10   53.19    1.76
  -2   4  10   26.56    1.65
  -1   4  10   11.30    1.26
   0   4  10   39.36    2.77
   1   4  10   13.49    1.98
  -4   5  10   13.69    1.56
  -3   5  10    6.27    1.05
  -2   5  10   32.27    1.53
  -1   5  10   11.55    1.96
   2  -5  11   26.71    2.77
   3  -5  11   -1.38    0.96
  -1  -4  11    0.45    0.80
   0  -4  11   34.50    1.88
   1  -4  11   -0.78    0.85
   2  -4  11   -0.61    0.82
   3  -4  11   36.68    2.66
   4  -4  11   -0.76    0.77
  -2  -3  11   22.19    2.62
  -1  -3  11    0.19    0.65
   0  -3  11    0.34    0.56
   1  -3  11   65.75    3.21
   2  -3  11    0.72    0.87
   3  -3  11    0.07    0.50
   4  -3  11   38.58    2.52
   5  -3  11    0.46    1.09
  -3  -2  11    0.05    1.02
  -2  -2  11   -0.06    0.65
  -1  -2  11   64.27    2.23
   0  -2  11    1.32    0.57
   1  -2  11    0.39    0.45
   2  -2  11   89.64    2.39
   3  -2  11    0.34    0.68
   4  -2  11    0.30    0.82
   5  -2  11   21.50    2.44
  -4  -1  11   -1.14    0.84
  -3  -1  11   35.80    1.78
  -2  -1  11   -0.11    0.37
  -1  -1  11    0.13    0.49
   0  -1  11  123.08    2.90
   1  -1  11    3.00    0.43
   2  -1  11    0.51    0.45
   3  -1  11   60.65    2.74
   4  -1  11    0.13    0.94
  -4   0  11    0.22    0.60
  -3   0  11   -0.21    0.48
  -2   0  11   92.21    2.04
  -1   0  11    3.24    0.49
   0   0  11    0.19    0.30
   1   0  11  130.56    2.12
   2   0  11    1.78    0.52
   3   0  11   -0.07    0.72
   4   0  11   34.15    2.57
  -5   1  11    1.79    1.16
  -4   1  11   35.59    1.47
  -3   1  11    0.24    0.37
  -2   1  11   -0.06    0.33
  -1   1  11  128.34    2.37
   0   1  11    3.74    0.61
   1   1  11    0.27    0.32
   2   1  11   66.27    1.96
   3   1  11   -0.54    0.84
   4   1  11    2.89    1.30
  -5   2  11    0.11    0.52
  -4   2  11   -0.20    0.42
  -3   2  11   64.68    1.76
  -2   2  11    0.76    0.39
  -1   2  11    0.31    0.35
   0   2  11   90.36    2.54
   1   2  11    0.29    0.49
   2   2  11   -0.54    0.46
   3   2  11   25.00    2.46
  -5   3  11   21.08    1.46
  -4   3  11    0.33    0.59
  -3   3  11    0.37    0.41
  -2   3  11   61.77    1.83
  -1   3  11    0.27    0.47
   0   3  11    0.41    0.51
   1   3  11   36.19    2.55
  -5   4  11   -1.10    1.04
  -4   4  11   25.21    1.95
  -3   4  11   -0.33    0.45
  -2   4  11    0.60    0.57
  -1   4  11   38.74    2.01
   0   4  11    0.93    0.86
   1   4  11    0.65    0.99
  -4   5  11   -0.22    1.12
  -3   5  11   17.92    1.66
  -2   5  11    1.16    0.76
   2  -5  12   18.29    2.43
   3  -5  12    8.85    1.83
   0  -4  12   25.97    1.89
   1  -4  12   15.85    2.14
   2  -4  12    2.51    1.21
   3  -4  12   35.32    1.78
   4  -4  12    9.87    1.65
  -1  -3  12   11.71    1.34
   0  -3  12    4.85    0.89
   1  -3  12   51.36    2.98
   2  -3  12   21.24    2.22
   3  -3  12    4.38    0.83
   4  -3  12   32.30    2.43
  -2  -2  12    4.75    0.93
  -1  -2  12   53.67    2.11
   0  -2  12   30.96    1.51
   1  -2  12   10.08    1.57
   2  -2  12   73.73    2.19
   3  -2  12   19.48    1.90
   4  -2  12    5.22    1.30
  -3  -1  12   31.58    2.56
  -2  -1  12   23.35    1.61
  -1  -1  12   10.04    1.07
   0  -1  12  102.92    2.63
   1  -1  12   42.96    1.47
   2  -1  12   10.50    0.95
   3  -1  12   52.86    2.57
   4  -1  12   13.41    1.88
  -4   0  12    9.84    1.24
  -3   0  12    4.36    0.83
  -2   0  12   75.53    1.88
  -1   0  12   43.32    1.33
   0   0  12   15.85    1.14
   1   0  12  101.35    1.86
   2   0  12   31.48    1.40
   3   0  12    5.90    1.23
   4   0  12   28.26    2.51
  -4   1  12   33.72    1.86
  -3   1  12   22.99    1.18
  -2   1  12    9.99    0.82
  -1   1  12  100.39    2.11
   0   1  12   42.28    1.63
   1   1  12   10.29    1.00
   2   1  12   57.19    1.87
   3   1  12   13.70    1.80
  -5   2  12    9.87    1.25
  -4   2  12    3.87    0.86
  -3   2  12   54.07    1.67
  -2   2  12   29.53    1.21
  -1   2  12   10.72    1.05
   0   2  12   80.06    2.43
   1   2  12   21.29    1.53
  -4   3  12   12.49    1.39
  -3   3  12    4.74    0.66
  -2   3  12   52.86    1.73
  -1   3  12   21.73    1.58
   0   3  12    4.66    0.88
   1   3  12   29.16    2.36
  -4   4  12   24.28    1.97
  -3   4  12   13.06    1.14
  -2   4  12    4.10    0.90
  -1   4  12   32.70    2.01
   0   4  12    9.29    1.76
  -3   5  12   18.31    2.31
   0  -4  13    5.37    1.10
   1  -4  13   -0.07    1.05
   2  -4  13    4.17    1.46
   3  -4  13    8.80    1.13
   4  -4  13    1.97    1.13
  -1  -3  13    0.37    0.79
   0  -3  13    0.70    0.63
   1  -3  13    9.29    1.68
   2  -3  13    1.07    1.03
   3  -3  13    1.88    0.70
   4  -3  13    8.84    1.63
  -2  -2  13    0.45    0.71
  -1  -2  13    8.80    1.12
   0  -2  13    5.54    0.88
   1  -2  13    1.65    1.02
   2  -2  13   10.95    1.04
   3  -2  13    4.77    1.19
   4  -2  13    1.08    0.98
  -3  -1  13    7.66    1.59
  -2  -1  13    5.22    0.92
  -1  -1  13    2.45    0.70
   0  -1  13   12.30    1.11
   1  -1  13   10.38    1.58
   2  -1  13    2.16    0.60
   3  -1  13    8.39    1.33
   4  -1  13    3.79    1.37
  -4   0  13    2.51    0.85
  -3   0  13    1.17    0.64
  -2   0  13   11.20    0.89
  -1   0  13    8.34    0.75
   0   0  13    2.79    0.60
   1   0  13   11.44    1.51
   2   0  13    8.64    0.90
   3   0  13    1.45    0.94
   4   0  13    7.09    1.56
  -4   1  13    8.19    1.14
  -3   1  13    4.53    0.67
  -2   1  13    2.20    0.50
  -1   1  13   10.75    0.84
   0   1  13    7.57    0.90
   1   1  13    2.40    0.84
   2   1  13    8.90    1.40
  -4   2  13   -0.12    0.56
  -3   2  13    7.64    0.81
  -2   2  13    6.38    0.72
  -1   2  13    1.68    0.60
   0   2  13   10.21    1.12
   1   2  13    3.72    0.82
  -4   3  13    2.92    0.88
  -3   3  13    2.44    0.58
  -2   3  13    7.10    0.83
  -1   3  13    5.98    0.98
   0   3  13    0.94    0.66
   1   3  13    5.34    1.39
  -4   4  13    4.96    1.07
  -3   4  13    3.69    0.73
  -2   4  13    0.24    0.69
  -1   4  13    9.02    1.27
   0   4  13    2.63    1.18
   1  -4  14    0.32    1.13
   2  -4  14    4.37    1.44
   3  -4  14   21.70    1.68
  -1  -3  14    1.27    0.85
   0  -3  14    4.88    0.96
   1  -3  14   33.90    2.63
   2  -3  14    1.21    0.63
   3  -3  14    3.47    0.84
   4  -3  14   23.25    2.44
  -2  -2  14    4.17    1.01
  -1  -2  14   34.51    1.85
   0  -2  14   -0.05    0.55
   1  -2  14   10.01    1.78
   2  -2  14   42.49    1.73
   3  -2  14    0.28    0.90
   4  -2  14    2.54    1.20
  -3  -1  14   16.80    2.31
  -2  -1  14   -0.53    0.57
  -1  -1  14    7.74    1.06
   0  -1  14   54.90    2.00
   1  -1  14    0.25    0.82
   2  -1  14    7.16    0.87
   3  -1  14   31.32    2.14
   4  -1  14   -0.08    1.13
  -3   0  14    4.80    0.88
  -2   0  14   45.38    1.52
  -1   0  14    0.56    0.51
   0   0  14    9.49    1.00
   1   0  14   56.81    2.84
   2   0  14    0.45    0.71
   4   0  14   17.75    2.20
  -4   1  14   16.27    1.61
  -3   1  14    0.04    0.44
  -2   1  14    7.51    0.77
  -1   1  14   51.29    1.58
   0   1  14    0.12    0.48
   1   1  14    6.19    1.25
   2   1  14   29.38    2.24
  -4   2  14    3.08    0.88
  -3   2  14   32.35    1.40
  -2   2  14   -0.40    0.37
  -1   2  14    6.34    0.94
   0   2  14   38.94    1.85
   1   2  14    0.78    0.78
  -4   3  14    0.29    0.74
  -3   3  14    5.20    0.75
  -2   3  14   28.76    1.67
  -1   3  14    0.70    0.61
   0   3  14    4.49    0.95
   1   3  14   16.48    2.27
  -3   4  14   -0.31    0.53
  -2   4  14    4.26    0.96
  -1   4  14   20.79    1.87
   2  -4  15   36.97    3.01
   3  -4  15    2.82    0.90
  -1  -3  15    0.60    0.81
   0  -3  15   42.14    3.08
   1  -3  15    4.39    1.46
   2  -3  15    1.05    0.69
   3  -3  15   42.19    1.95
   4  -3  15    2.86    1.27
  -2  -2  15   33.41    2.26
  -1  -2  15    5.69    1.06
   0  -2  15    1.63    0.71
   1  -2  15   63.18    3.55
   2  -2  15    5.53    1.44
   3  -2  15    0.27    0.86
   4  -2  15   30.13    2.66
  -2  -1  15    1.44    0.74
  -1  -1  15   66.94    2.41
   0  -1  15   10.12    1.10
   1  -1  15    2.81    1.12
   2  -1  15   62.99    3.23
   4  -1  15    1.68    1.32
  -3   0  15   34.56    2.80
  -2   0  15    6.87    0.99
  -1   0  15    2.26    0.69
   0   0  15   80.49    2.43
   1   0  15   11.72    1.70
   2   0  15    1.10    0.90
  -4   1  15    2.48    1.29
  -3   1  15    0.59    0.64
  -2   1  15   63.05    2.02
  -1   1  15   11.05    0.91
   0   1  15    1.77    0.64
   1   1  15   64.51    3.27
   2   1  15    4.43    1.26
  -4   2  15   31.20    2.21
  -3   2  15    3.63    0.69
  -2   2  15    0.19    0.45
  -1   2  15   58.94    2.30
   0   2  15    5.99    0.98
   1   2  15    1.79    0.92
  -4   3  15    0.78    0.75
  -3   3  15   37.49    1.92
  -2   3  15    4.25    0.89
  -1   3  15    1.71    0.75
   0   3  15   41.60    2.20
   1   3  15    2.09    1.10
  -3   4  15    0.63    0.97
  -2   4  15   26.42    2.80
  -1   4  15    1.54    1.43
   0  -3  16   29.77    3.16
   1  -3  16    0.31    1.25
   2  -3  16    0.77    1.19
   3  -3  16   31.93    2.41
  -2  -2  16   27.57    3.09
  -1  -2  16    2.46    0.89
   0  -2  16    0.59    1.12
   1  -2  16   55.01    3.39
   2  -2  16    1.44    1.25
  -2  -1  16    0.81    0.83
  -1  -1  16   59.16    2.37
   0  -1  16    3.44    1.28
   1  -1  16    0.91    0.94
   2  -1  16   51.67    3.06
  -3   0  16   29.28    2.95
  -2   0  16    3.43    0.82
  -1   0  16    0.64    0.63
   0   0  16   70.18    2.33
   1   0  16    3.77    1.17
   2   0  16    0.98    0.87
  -3   1  16    0.79    0.72
  -2   1  16   55.61    1.81
  -1   1  16    3.73    0.64
   0   1  16    1.16    0.61
   1   1  16   57.41    3.18
   2   1  16    0.20    0.93
  -3   2  16    0.76    0.53
  -2   2  16    0.78    0.52
  -1   2  16   51.48    2.19
   0   2  16    1.89    0.77
   1   2  16   -0.19    0.80
  -3   3  16   29.97    1.62
  -2   3  16    0.87    0.70
  -1   3  16    0.16    0.67
   0   3  16   31.25    2.24
   1  -3  17    4.93    1.59
   2  -3  17   14.89    2.36
  -1  -2  17    5.15    1.04
   0  -2  17   16.90    2.42
   1  -2  17    1.15    1.16
   2  -2  17    5.64    1.62
  -2  -1  17   11.36    1.41
  -1  -1  17    1.63    0.81
   0  -1  17    7.19    1.62
   1  -1  17   18.81    2.28
   2  -1  17    2.26    1.19
  -2   0  17    4.06    0.92
  -1   0  17   23.60    1.72
   0   0  17    3.82    1.25
   1   0  17    4.25    1.31
   2   0  17   15.32    2.06
  -3   1  17   12.73    2.05
  -2   1  17    1.63    0.72
  -1   1  17    6.26    0.99
   0   1  17   22.05    2.37
   1   1  17    0.42    0.83
   2   1  17    5.50    1.39
  -3   2  17    5.68    0.85
  -2   2  17   16.36    1.24
  -1   2  17    0.59    0.62
   0   2  17    4.11    1.32
   1   2  17   11.04    1.91
  -3   3  17    0.45    0.74
  -2   3  17    5.38    1.03
  -1   3  17   14.17    1.57
  -1  -2  18    0.37    1.06
   0  -2  18   30.57    3.15
   1  -2  18    2.05    1.37
   2  -2  18   -1.37    1.00
  -2  -1  18   26.23    2.86
  -1  -1  18    0.61    0.83
   0  -1  18    1.53    1.08
   1  -1  18   37.61    2.88
   2  -1  18    1.68    1.07
  -2   0  18    0.46    0.71
  -1   0  18   38.72    1.96
   0   0  18    1.96    1.01
   1   0  18   -0.36    0.84
   2   0  18   26.26    2.77
  -2   1  18    0.97    0.73
  -1   1  18    0.75    0.68
   0   1  18   38.22    2.80
   1   1  18    0.83    0.98
  -3   2  18   -0.73    0.69
  -2   2  18   28.87    1.67
  -1   2  18    0.85    0.72
   0   2  18    0.54    0.98
   1   2  18   15.98    2.23
  -1   3  18   14.22    2.35
   1  -2  19   -0.40    1.16
   2  -2  19    3.01    1.37
  -1  -1  19    0.32    0.80
   0  -1  19    4.60    1.54
   1  -1  19    6.68    1.62
   2  -1  19   -0.24    0.95
  -2   0  19    5.13    1.07
  -1   0  19    8.28    1.20
   0   0  19   -0.31    0.87
   1   0  19    7.50    1.64
   2   0  19    5.79    1.64
  -2   1  19    0.67    0.78
  -1   1  19    4.18    0.98
   0   1  19    9.20    1.86
   1   1  19    0.40    0.99
  -2   2  19    6.93    1.19
  -1   2  19   -0.04    0.70
   1  -1  20    6.40    1.75
   0   0  20    0.07    1.01
   1   0  20    3.01    1.37
  -1   1  20    5.42    1.53
   0   0   0    0.00    0.00
;
_shelx_hkl_checksum              27830
#END Tags that were not found in dictionaries
loop_
_space_group_symop_operation_xyz
'x, y, z'
'-y, x-y, z'
'-x+y, -x, z'
'y, x, -z'
'x-y, -y, -z'
'-x, -x+y, -z'
'-x, -y, -z'
'y, -x+y, -z'
'x-y, x, -z'
'-y, -x, z'
'-x+y, y, z'
'x, x-y, z'
loop_
_atom_site_label
_atom_site_type_symbol
_atom_site_fract_x
_atom_site_fract_y
_atom_site_fract_z
_atom_site_U_iso_or_equiv
_atom_site_adp_type
_atom_site_occupancy
_atom_site_site_symmetry_order
_atom_site_calc_flag
_atom_site_refinement_flags_posn
_atom_site_refinement_flags_adp
_atom_site_refinement_flags_occupancy
Pr1 Pr 0.0000 0.0000 0.5000 0.035(2) Uani 0.253(8) 12 d S T .
Pr2 Pr 0.0000 0.0000 0.0000 0.0147(3) Uani 1 12 d S T P
Zn1 Zn 0.3333 0.6667 0.3331(3) 0.0215(11) Uani 0.523(10) 6 d S T P
Zn2 Zn 0.3333 0.6667 0.80174(13) 0.0169(4) Uani 1 6 d S T P
Mn Mn 0.3333 0.6667 0.4087(7) 0.038(2) Uani 0.477(10) 6 d S T P
As1 As 0.3333 0.6667 0.13056(9) 0.0100(3) Uani 1 6 d S T P
As2 As 0.3333 0.6667 0.61690(11) 0.0162(3) Uani 1 6 d S T P
loop_
_atom_site_aniso_label
_atom_site_aniso_U_11
_atom_site_aniso_U_22
_atom_site_aniso_U_33
_atom_site_aniso_U_23
_atom_site_aniso_U_13
_atom_site_aniso_U_12
Pr1 0.038(2) 0.038(2) 0.029(3) 0.000 0.000 0.0190(12)
Pr2 0.0139(3) 0.0139(3) 0.0162(5) 0.000 0.000 0.00697(16)
Zn1 0.0149(11) 0.0149(11) 0.035(2) 0.000 0.000 0.0074(5)
Zn2 0.0178(5) 0.0178(5) 0.0150(7) 0.000 0.000 0.0089(3)
Mn 0.0253(19) 0.0253(19) 0.063(6) 0.000 0.000 0.0127(9)
As1 0.0095(4) 0.0095(4) 0.0111(6) 0.000 0.000 0.00475(18)
As2 0.0174(4) 0.0174(4) 0.0139(6) 0.000 0.000 0.0087(2)
loop_
_atom_type_symbol
_atom_type_description
_atom_type_scat_dispersion_real
_atom_type_scat_dispersion_imag
_atom_type_scat_source
Mn Mn 0.3368 0.7283 'International Tables Vol C Tables 4.2.6.8 and 6.1.1.4'
Zn Zn 0.2839 1.4301 'International Tables Vol C Tables 4.2.6.8 and 6.1.1.4'
As As 0.0499 2.0058 'International Tables Vol C Tables 4.2.6.8 and 6.1.1.4'
Pr Pr -0.2180 2.8214 'International Tables Vol C Tables 4.2.6.8 and 6.1.1.4'
loop_
_geom_angle_atom_site_label_1
_geom_angle_atom_site_label_2
_geom_angle_atom_site_label_3
_geom_angle
_geom_angle_site_symmetry_1
_geom_angle_site_symmetry_3
Mn Pr1 Mn 180.0 7_666 1_445
Mn Pr1 Mn 100.6(2) 7_666 7_556
Mn Pr1 Mn 79.4(2) 1_445 7_556
Mn Pr1 Mn 79.4(2) 7_666 .
Mn Pr1 Mn 100.6(2) 1_445 .
Mn Pr1 Mn 180.0 7_556 .
Mn Pr1 Mn 100.6(2) 7_666 7_566
Mn Pr1 Mn 79.4(2) 1_445 7_566
Mn Pr1 Mn 100.6(2) 7_556 7_566
Mn Pr1 Mn 79.4(2) . 7_566
Mn Pr1 Mn 79.4(2) 7_666 1_545
Mn Pr1 Mn 100.6(2) 1_445 1_545
Mn Pr1 Mn 79.4(2) 7_556 1_545
Mn Pr1 Mn 100.6(2) . 1_545
Mn Pr1 Mn 180.0(3) 7_566 1_545
Mn Pr1 As2 51.42(7) 7_666 .
Mn Pr1 As2 128.58(7) 1_445 .
Mn Pr1 As2 119.23(17) 7_556 .
Mn Pr1 As2 60.77(17) . .
Mn Pr1 As2 51.42(7) 7_566 .
Mn Pr1 As2 128.58(7) 1_545 .
Mn Pr1 As2 128.58(7) 7_666 7_556
Mn Pr1 As2 51.42(7) 1_445 7_556
Mn Pr1 As2 60.77(17) 7_556 7_556
Mn Pr1 As2 119.23(17) . 7_556
Mn Pr1 As2 128.58(7) 7_566 7_556
Mn Pr1 As2 51.42(7) 1_545 7_556
As2 Pr1 As2 180.0 . 7_556
Mn Pr1 As2 60.77(17) 7_666 7_666
Mn Pr1 As2 119.23(17) 1_445 7_666
Mn Pr1 As2 128.58(7) 7_556 7_666
Mn Pr1 As2 51.42(7) . 7_666
Mn Pr1 As2 128.58(7) 7_566 7_666
Mn Pr1 As2 51.42(7) 1_545 7_666
As2 Pr1 As2 87.50(4) . 7_666
As2 Pr1 As2 92.50(3) 7_556 7_666
Mn Pr1 As2 119.23(17) 7_666 1_445
Mn Pr1 As2 60.77(17) 1_445 1_445
Mn Pr1 As2 51.42(7) 7_556 1_445
Mn Pr1 As2 128.58(7) . 1_445
Mn Pr1 As2 51.42(7) 7_566 1_445
Mn Pr1 As2 128.58(7) 1_545 1_445
As2 Pr1 As2 92.50(3) . 1_445
As2 Pr1 As2 87.50(3) 7_556 1_445
As2 Pr1 As2 180.0 7_666 1_445
Mn Pr1 As2 128.58(7) 7_666 7_566
Mn Pr1 As2 51.42(7) 1_445 7_566
Mn Pr1 As2 128.58(7) 7_556 7_566
Mn Pr1 As2 51.42(7) . 7_566
Mn Pr1 As2 60.77(17) 7_566 7_566
Mn Pr1 As2 119.23(17) 1_545 7_566
As2 Pr1 As2 87.50(3) . 7_566
As2 Pr1 As2 92.50(3) 7_556 7_566
As2 Pr1 As2 92.50(3) 7_666 7_566
As2 Pr1 As2 87.50(3) 1_445 7_566
Mn Pr1 As2 51.42(7) 7_666 1_545
Mn Pr1 As2 128.58(7) 1_445 1_545
Mn Pr1 As2 51.42(7) 7_556 1_545
Mn Pr1 As2 128.58(7) . 1_545
Mn Pr1 As2 119.23(17) 7_566 1_545
Mn Pr1 As2 60.77(17) 1_545 1_545
As2 Pr1 As2 92.50(3) . 1_545
As2 Pr1 As2 87.50(3) 7_556 1_545
As2 Pr1 As2 87.50(3) 7_666 1_545
As2 Pr1 As2 92.50(3) 1_445 1_545
As2 Pr1 As2 180.00(5) 7_566 1_545
As1 Pr2 As1 88.32(3) 7 7_665
As1 Pr2 As1 91.68(3) 7 1_445
As1 Pr2 As1 180.00(4) 7_665 1_445
As1 Pr2 As1 88.32(3) 7 7_565
As1 Pr2 As1 88.32(3) 7_665 7_565
As1 Pr2 As1 91.68(3) 1_445 7_565
As1 Pr2 As1 91.68(3) 7 1_545
As1 Pr2 As1 91.68(3) 7_665 1_545
As1 Pr2 As1 88.32(3) 1_445 1_545
As1 Pr2 As1 180.00(4) 7_565 1_545
As1 Pr2 As1 180.0 7 .
As1 Pr2 As1 91.68(3) 7_665 .
As1 Pr2 As1 88.32(3) 1_445 .
As1 Pr2 As1 91.68(3) 7_565 .
As1 Pr2 As1 88.32(3) 1_545 .
As1 Pr2 Zn2 44.679(12) 7 1_444
As1 Pr2 Zn2 95.28(3) 7_665 1_444
As1 Pr2 Zn2 84.72(3) 1_445 1_444
As1 Pr2 Zn2 44.680(12) 7_565 1_444
As1 Pr2 Zn2 135.320(12) 1_545 1_444
As1 Pr2 Zn2 135.321(12) . 1_444
As1 Pr2 Zn2 135.321(12) 7 7_666
As1 Pr2 Zn2 84.72(3) 7_665 7_666
As1 Pr2 Zn2 95.28(3) 1_445 7_666
As1 Pr2 Zn2 135.320(12) 7_565 7_666
As1 Pr2 Zn2 44.680(12) 1_545 7_666
As1 Pr2 Zn2 44.679(12) . 7_666
Zn2 Pr2 Zn2 180.00(4) 1_444 7_666
As1 Pr2 Zn2 95.28(3) 7 1_554
As1 Pr2 Zn2 44.679(12) 7_665 1_554
As1 Pr2 Zn2 135.321(12) 1_445 1_554
As1 Pr2 Zn2 44.680(12) 7_565 1_554
As1 Pr2 Zn2 135.320(12) 1_545 1_554
As1 Pr2 Zn2 84.72(3) . 1_554
Zn2 Pr2 Zn2 70.39(3) 1_444 1_554
Zn2 Pr2 Zn2 109.61(3) 7_666 1_554
As1 Pr2 Zn2 84.72(3) 7 7_556
As1 Pr2 Zn2 135.321(12) 7_665 7_556
As1 Pr2 Zn2 44.679(12) 1_445 7_556
As1 Pr2 Zn2 135.320(12) 7_565 7_556
As1 Pr2 Zn2 44.680(12) 1_545 7_556
As1 Pr2 Zn2 95.28(3) . 7_556
Zn2 Pr2 Zn2 109.61(3) 1_444 7_556
Zn2 Pr2 Zn2 70.39(3) 7_666 7_556
Zn2 Pr2 Zn2 180.00(4) 1_554 7_556
As1 Pr2 Zn2 44.680(12) 7 1_544
As1 Pr2 Zn2 44.680(12) 7_665 1_544
As1 Pr2 Zn2 135.320(12) 1_445 1_544
As1 Pr2 Zn2 95.28(3) 7_565 1_544
As1 Pr2 Zn2 84.72(3) 1_545 1_544
As1 Pr2 Zn2 135.321(12) . 1_544
Zn2 Pr2 Zn2 70.39(3) 1_444 1_544
Zn2 Pr2 Zn2 109.61(3) 7_666 1_544
Zn2 Pr2 Zn2 70.39(3) 1_554 1_544
Zn2 Pr2 Zn2 109.61(3) 7_556 1_544
As1 Pr2 Zn2 135.320(12) 7 7_566
As1 Pr2 Zn2 135.320(12) 7_665 7_566
As1 Pr2 Zn2 44.680(12) 1_445 7_566
As1 Pr2 Zn2 84.72(3) 7_565 7_566
As1 Pr2 Zn2 95.28(3) 1_545 7_566
As1 Pr2 Zn2 44.679(12) . 7_566
Zn2 Pr2 Zn2 109.61(3) 1_444 7_566
Zn2 Pr2 Zn2 70.39(3) 7_666 7_566
Zn2 Pr2 Zn2 109.61(3) 1_554 7_566
Zn2 Pr2 Zn2 70.39(3) 7_556 7_566
Zn2 Pr2 Zn2 180.00(4) 1_544 7_566
Mn Zn1 As2 74.20(11) . 7_666
Mn Zn1 As2 74.20(11) . 7_676
As2 Zn1 As2 112.88(9) 7_666 7_676
Mn Zn1 As2 74.20(11) . 7_566
As2 Zn1 As2 112.88(9) 7_666 7_566
As2 Zn1 As2 112.88(9) 7_676 7_566
Mn Zn1 As1 180.0 . .
As2 Zn1 As1 105.80(11) 7_666 .
As2 Zn1 As1 105.80(11) 7_676 .
As2 Zn1 As1 105.80(11) 7_566 .
Mn Zn1 Zn2 127.33(7) . 7_666
As2 Zn1 Zn2 53.12(5) 7_666 7_666
As2 Zn1 Zn2 123.21(7) 7_676 7_666
As2 Zn1 Zn2 123.21(7) 7_566 7_666
As1 Zn1 Zn2 52.67(7) . 7_666
Mn Zn1 Zn2 127.33(7) . 7_566
As2 Zn1 Zn2 123.21(7) 7_666 7_566
As2 Zn1 Zn2 123.21(7) 7_676 7_566
As2 Zn1 Zn2 53.12(5) 7_566 7_566
As1 Zn1 Zn2 52.67(7) . 7_566
Zn2 Zn1 Zn2 87.05(11) 7_666 7_566
Mn Zn1 Zn2 127.33(7) . 7_676
As2 Zn1 Zn2 123.21(7) 7_666 7_676
As2 Zn1 Zn2 53.12(5) 7_676 7_676
As2 Zn1 Zn2 123.21(7) 7_566 7_676
As1 Zn1 Zn2 52.67(7) . 7_676
Zn2 Zn1 Zn2 87.05(11) 7_666 7_676
Zn2 Zn1 Zn2 87.05(11) 7_566 7_676
Mn Zn1 Pr1 46.65(6) . 1_665
As2 Zn1 Pr1 57.54(6) 7_666 1_665
As2 Zn1 Pr1 57.54(6) 7_676 1_665
As2 Zn1 Pr1 120.85(16) 7_566 1_665
As1 Zn1 Pr1 133.35(6) . 1_665
Zn2 Zn1 Pr1 97.31(2) 7_666 1_665
Zn2 Zn1 Pr1 173.97(13) 7_566 1_665
Zn2 Zn1 Pr1 97.31(2) 7_676 1_665
Mn Zn1 Pr1 46.65(6) . 1_565
As2 Zn1 Pr1 120.85(16) 7_666 1_565
As2 Zn1 Pr1 57.54(6) 7_676 1_565
As2 Zn1 Pr1 57.54(6) 7_566 1_565
As1 Zn1 Pr1 133.35(6) . 1_565
Zn2 Zn1 Pr1 173.97(13) 7_666 1_565
Zn2 Zn1 Pr1 97.31(2) 7_566 1_565
Zn2 Zn1 Pr1 97.31(2) 7_676 1_565
Pr1 Zn1 Pr1 78.06(9) 1_665 1_565
Mn Zn1 Pr1 46.65(6) . .
As2 Zn1 Pr1 57.54(6) 7_666 .
As2 Zn1 Pr1 120.85(16) 7_676 .
As2 Zn1 Pr1 57.54(6) 7_566 .
As1 Zn1 Pr1 133.35(6) . .
Zn2 Zn1 Pr1 97.31(2) 7_666 .
Zn2 Zn1 Pr1 97.31(2) 7_566 .
Zn2 Zn1 Pr1 173.97(13) 7_676 .
Pr1 Zn1 Pr1 78.06(9) 1_665 .
Pr1 Zn1 Pr1 78.06(9) 1_565 .
As2 Zn2 As1 110.95(4) . 7_666
As2 Zn2 As1 110.95(4) . 7_676
As1 Zn2 As1 107.95(5) 7_666 7_676
As2 Zn2 As1 110.95(4) . 7_566
As1 Zn2 As1 107.95(5) 7_666 7_566
As1 Zn2 As1 107.95(5) 7_676 7_566
As2 Zn2 Zn1 52.67(7) . 7_666
As1 Zn2 Zn1 58.28(7) 7_666 7_666
As1 Zn2 Zn1 126.03(2) 7_676 7_666
As1 Zn2 Zn1 126.03(2) 7_566 7_666
As2 Zn2 Zn1 52.67(7) . 7_566
As1 Zn2 Zn1 126.03(2) 7_666 7_566
As1 Zn2 Zn1 126.03(2) 7_676 7_566
As1 Zn2 Zn1 58.28(7) 7_566 7_566
Zn1 Zn2 Zn1 87.05(11) 7_666 7_566
As2 Zn2 Zn1 52.67(7) . 7_676
As1 Zn2 Zn1 126.03(2) 7_666 7_676
As1 Zn2 Zn1 58.28(7) 7_676 7_676
As1 Zn2 Zn1 126.03(2) 7_566 7_676
Zn1 Zn2 Zn1 87.05(11) 7_666 7_676
Zn1 Zn2 Zn1 87.05(11) 7_566 7_676
As2 Zn2 Pr2 138.275(19) . 1_666
As1 Zn2 Pr2 54.71(3) 7_666 1_666
As1 Zn2 Pr2 54.71(3) 7_676 1_666
As1 Zn2 Pr2 110.77(6) 7_566 1_666
Zn1 Zn2 Pr2 100.83(6) 7_666 1_666
Zn1 Zn2 Pr2 169.05(8) 7_566 1_666
Zn1 Zn2 Pr2 100.83(6) 7_676 1_666
As2 Zn2 Pr2 138.275(19) . 1_566
As1 Zn2 Pr2 110.77(6) 7_666 1_566
As1 Zn2 Pr2 54.71(3) 7_676 1_566
As1 Zn2 Pr2 54.71(3) 7_566 1_566
Zn1 Zn2 Pr2 169.05(8) 7_666 1_566
Zn1 Zn2 Pr2 100.83(6) 7_566 1_566
Zn1 Zn2 Pr2 100.83(6) 7_676 1_566
Pr2 Zn2 Pr2 70.39(3) 1_666 1_566
As2 Zn2 Pr2 138.275(19) . 1_556
As1 Zn2 Pr2 54.71(3) 7_666 1_556
As1 Zn2 Pr2 110.77(6) 7_676 1_556
As1 Zn2 Pr2 54.71(3) 7_566 1_556
Zn1 Zn2 Pr2 100.83(6) 7_666 1_556
Zn1 Zn2 Pr2 100.83(6) 7_566 1_556
Zn1 Zn2 Pr2 169.05(8) 7_676 1_556
Pr2 Zn2 Pr2 70.39(3) 1_666 1_556
Pr2 Zn2 Pr2 70.39(3) 1_566 1_556
Zn1 Mn As2 81.7(2) . 7_666
Zn1 Mn As2 81.7(2) . 7_566
As2 Mn As2 117.98(11) 7_666 7_566
Zn1 Mn As2 81.7(2) . 7_676
As2 Mn As2 117.98(11) 7_666 7_676
As2 Mn As2 117.97(11) 7_566 7_676
Zn1 Mn Pr1 117.30(17) . 1_565
As2 Mn Pr1 161.0(4) 7_666 1_565
As2 Mn Pr1 68.05(6) 7_566 1_565
As2 Mn Pr1 68.05(6) 7_676 1_565
Zn1 Mn Pr1 117.30(17) . 1_665
As2 Mn Pr1 68.05(6) 7_666 1_665
As2 Mn Pr1 161.0(4) 7_566 1_665
As2 Mn Pr1 68.05(6) 7_676 1_665
Pr1 Mn Pr1 100.6(2) 1_565 1_665
Zn1 Mn Pr1 117.30(17) . .
As2 Mn Pr1 68.05(6) 7_666 .
As2 Mn Pr1 68.05(6) 7_566 .
As2 Mn Pr1 161.0(4) 7_676 .
Pr1 Mn Pr1 100.6(2) 1_565 .
Pr1 Mn Pr1 100.6(2) 1_665 .
Zn1 Mn As2 180.0 . .
As2 Mn As2 98.3(2) 7_666 .
As2 Mn As2 98.3(2) 7_566 .
As2 Mn As2 98.3(2) 7_676 .
Pr1 Mn As2 62.70(17) 1_565 .
Pr1 Mn As2 62.70(17) 1_665 .
Pr1 Mn As2 62.70(17) . .
Zn2 As1 Zn2 107.95(5) 7_666 7_676
Zn2 As1 Zn2 107.95(5) 7_666 7_566
Zn2 As1 Zn2 107.95(5) 7_676 7_566
Zn2 As1 Zn1 69.05(4) 7_666 .
Zn2 As1 Zn1 69.05(4) 7_676 .
Zn2 As1 Zn1 69.05(4) 7_566 .
Zn2 As1 Pr2 80.61(3) 7_666 .
Zn2 As1 Pr2 164.51(6) 7_676 .
Zn2 As1 Pr2 80.61(3) 7_566 .
Zn1 As1 Pr2 126.44(2) . .
Zn2 As1 Pr2 164.51(6) 7_666 1_565
Zn2 As1 Pr2 80.61(3) 7_676 1_565
Zn2 As1 Pr2 80.61(3) 7_566 1_565
Zn1 As1 Pr2 126.44(2) . 1_565
Pr2 As1 Pr2 88.32(3) . 1_565
Zn2 As1 Pr2 80.61(3) 7_666 1_665
Zn2 As1 Pr2 80.61(3) 7_676 1_665
Zn2 As1 Pr2 164.51(6) 7_566 1_665
Zn1 As1 Pr2 126.44(2) . 1_665
Pr2 As1 Pr2 88.32(3) . 1_665
Pr2 As1 Pr2 88.32(3) 1_565 1_665
Mn As2 Mn 117.98(11) 7_666 7_566
Mn As2 Mn 117.98(11) 7_666 7_676
Mn As2 Mn 117.97(11) 7_566 7_676
Mn As2 Zn1 24.1(2) 7_666 7_666
Mn As2 Zn1 121.01(5) 7_566 7_666
Mn As2 Zn1 121.01(5) 7_676 7_666
Mn As2 Zn1 121.01(5) 7_666 7_676
Mn As2 Zn1 121.01(5) 7_566 7_676
Mn As2 Zn1 24.1(2) 7_676 7_676
Zn1 As2 Zn1 112.88(9) 7_666 7_676
Mn As2 Zn1 121.01(5) 7_666 7_566
Mn As2 Zn1 24.1(2) 7_566 7_566
Mn As2 Zn1 121.01(5) 7_676 7_566
Zn1 As2 Zn1 112.88(9) 7_666 7_566
Zn1 As2 Zn1 112.88(9) 7_676 7_566
Mn As2 Zn2 98.3(2) 7_666 .
Mn As2 Zn2 98.3(2) 7_566 .
Mn As2 Zn2 98.3(2) 7_676 .
Zn1 As2 Zn2 74.20(11) 7_666 .
Zn1 As2 Zn2 74.20(11) 7_676 .
Zn1 As2 Zn2 74.20(11) 7_566 .
Mn As2 Mn 81.7(2) 7_666 .
Mn As2 Mn 81.7(2) 7_566 .
Mn As2 Mn 81.7(2) 7_676 .
Zn1 As2 Mn 105.80(11) 7_666 .
Zn1 As2 Mn 105.80(11) 7_676 .
Zn1 As2 Mn 105.80(11) 7_566 .
Zn2 As2 Mn 180.0 . .
Mn As2 Pr1 60.53(12) 7_666 .
Mn As2 Pr1 60.53(12) 7_566 .
Mn As2 Pr1 138.3(2) 7_676 .
Zn1 As2 Pr1 75.45(7) 7_666 .
Zn1 As2 Pr1 162.32(12) 7_676 .
Zn1 As2 Pr1 75.45(7) 7_566 .
Zn2 As2 Pr1 123.47(3) . .
Mn As2 Pr1 56.53(3) . .
Mn As2 Pr1 138.3(2) 7_666 1_565
Mn As2 Pr1 60.53(12) 7_566 1_565
Mn As2 Pr1 60.53(12) 7_676 1_565
Zn1 As2 Pr1 162.32(12) 7_666 1_565
Zn1 As2 Pr1 75.45(7) 7_676 1_565
Zn1 As2 Pr1 75.45(7) 7_566 1_565
Zn2 As2 Pr1 123.47(3) . 1_565
Mn As2 Pr1 56.53(3) . 1_565
Pr1 As2 Pr1 92.50(3) . 1_565
Mn As2 Pr1 60.53(12) 7_666 1_665
Mn As2 Pr1 138.3(2) 7_566 1_665
Mn As2 Pr1 60.53(12) 7_676 1_665
Zn1 As2 Pr1 75.45(7) 7_666 1_665
Zn1 As2 Pr1 75.45(7) 7_676 1_665
Zn1 As2 Pr1 162.32(12) 7_566 1_665
Zn2 As2 Pr1 123.47(3) . 1_665
Mn As2 Pr1 56.53(3) . 1_665
Pr1 As2 Pr1 92.50(3) . 1_665
Pr1 As2 Pr1 92.50(3) 1_565 1_665
loop_
_geom_bond_atom_site_label_1
_geom_bond_atom_site_label_2
_geom_bond_distance
_geom_bond_site_symmetry_2
Pr1 Mn 2.698(4) 7_666
Pr1 Mn 2.698(4) 1_445
Pr1 Mn 2.698(4) 7_556
Pr1 Mn 2.698(4) .
Pr1 Mn 2.699(4) 7_566
Pr1 Mn 2.699(4) 1_545
Pr1 As2 2.8747(9) .
Pr1 As2 2.8747(9) 7_556
Pr1 As2 2.8747(9) 7_666
Pr1 As2 2.8747(9) 1_445
Pr1 As2 2.8747(9) 7_566
Pr1 As2 2.8747(9) 1_545
Pr2 As1 2.9808(8) 7
Pr2 As1 2.9808(8) 7_665
Pr2 As1 2.9808(8) 1_445
Pr2 As1 2.9808(8) 7_565
Pr2 As1 2.9808(8) 1_545
Pr2 As1 2.9809(8) .
Pr2 Zn2 3.6029(13) 1_444
Pr2 Zn2 3.6029(13) 7_666
Pr2 Zn2 3.6029(13) 1_554
Pr2 Zn2 3.6029(13) 7_556
Pr2 Zn2 3.6029(13) 1_544
Pr2 Zn2 3.6029(13) 7_566
Zn1 Mn 1.026(9) .
Zn1 As2 2.4920(14) 7_666
Zn1 As2 2.4920(13) 7_676
Zn1 As2 2.4920(13) 7_566
Zn1 As1 2.747(5) .
Zn1 Zn2 3.016(3) 7_666
Zn1 Zn2 3.016(3) 7_566
Zn1 Zn2 3.016(3) 7_676
Zn1 Pr1 3.298(3) 1_665
Zn1 Pr1 3.298(3) 1_565
Zn2 As2 2.507(2) .
Zn2 As1 2.5677(8) 7_666
Zn2 As1 2.5677(8) 7_676
Zn2 As1 2.5677(8) 7_566
Zn2 Zn1 3.016(3) 7_666
Zn2 Zn1 3.016(3) 7_566
Zn2 Zn1 3.016(3) 7_676
Zn2 Pr2 3.6029(13) 1_666
Zn2 Pr2 3.6028(13) 1_566
Zn2 Pr2 3.6028(13) 1_556
Mn As2 2.4230(14) 7_666
Mn As2 2.4230(14) 7_566
Mn As2 2.4230(14) 7_676
Mn Pr1 2.698(4) 1_565
Mn Pr1 2.698(4) 1_665
Mn As2 2.823(9) .
As1 Zn2 2.5677(8) 7_666
As1 Zn2 2.5677(8) 7_676
As1 Zn2 2.5677(8) 7_566
As1 Pr2 2.9808(8) 1_565
As1 Pr2 2.9808(8) 1_665
As2 Mn 2.4230(14) 7_666
As2 Mn 2.4230(14) 7_566
As2 Mn 2.4230(14) 7_676
As2 Zn1 2.4920(13) 7_666
As2 Zn1 2.4920(14) 7_676
As2 Zn1 2.4920(14) 7_566
As2 Pr1 2.8747(9) 1_565
As2 Pr1 2.8747(9) 1_665
