#------------------------------------------------------------------------------
#$Date: 2016-03-23 23:36:17 +0200 (Wed, 23 Mar 2016) $
#$Revision: 179508 $
#$URL: svn://www.crystallography.net/cod/cif/4/34/05/4340523.cif $
#------------------------------------------------------------------------------
#
# This file is available in the Crystallography Open Database (COD),
# http://www.crystallography.net/
#
# All data on this site have been placed in the public domain by the
# contributors.
#
data_4340523
loop_
_publ_author_name
'Lin, Xinsong'
'Tabassum, Danisa'
'Rudyk, Brent W.'
'Mar, Arthur'
_publ_section_title
;
 Manganese-Substituted Rare-Earth Zinc Arsenides RE1-yMnxZn2-xAs2 (RE =
 Eu-Lu) and RE2-yMnxZn4-xAs4 (RE = La-Nd, Sm, Gd).
;
_journal_issue                   16
_journal_name_full               'Inorganic chemistry'
_journal_page_first              8431
_journal_page_last               8441
_journal_paper_doi               10.1021/ic501053v
_journal_volume                  53
_journal_year                    2014
_chemical_formula_structural     'Sm1.24 Mn0.87 Zn3.13 As4'
_chemical_formula_sum            'As4 Mn0.87 Sm1.24 Zn3.13'
_chemical_formula_weight         738.52
_chemical_name_common
'samarium manganese zinc arsenide (1.2/0.9/3.1/4)'
_chemical_name_systematic
'samarium manganese zinc arsenide (1.2/0.9/3.1/4)'
_space_group_crystal_system      trigonal
_space_group_IT_number           164
_space_group_name_Hall           '-P 3 2"'
_space_group_name_H-M_alt        'P -3 m 1'
_symmetry_space_group_name_Hall  '-P 3 2"'
_symmetry_space_group_name_H-M   'P -3 m 1'
_atom_sites_solution_primary     direct
_atom_sites_solution_secondary   difmap
_audit_creation_method           SHELXL-2013
_cell_angle_alpha                90
_cell_angle_beta                 90
_cell_angle_gamma                120
_cell_formula_units_Z            1
_cell_length_a                   4.1240(19)
_cell_length_b                   4.1240(19)
_cell_length_c                   13.507(6)
_cell_measurement_reflns_used    156
_cell_measurement_temperature    296(2)
_cell_measurement_theta_max      20.16
_cell_measurement_theta_min      6.04
_cell_volume                     198.94(16)
_computing_cell_refinement       'Bruker SAINT 8.32B (Bruker, 2011)'
_computing_data_collection       'Bruker APEX 2 (Bruker, 2008)'
_computing_data_reduction        'Bruker SAINT 8.32B'
_computing_molecular_graphics    'ATOMS 5.1 (Dowty, 1999)'
_computing_publication_material  'Bruker SHELXTL'
_computing_structure_refinement  'Bruker SHELXTL'
_computing_structure_solution    'Bruker SHELXTL'
_diffrn_ambient_temperature      296(2)
_diffrn_measured_fraction_theta_full 1.000
_diffrn_measured_fraction_theta_max 1.000
_diffrn_measurement_device_type  'Bruker PLATFORM/SMART APEX II CCD'
_diffrn_measurement_method       '\w scans'
_diffrn_radiation_type           MoK\a
_diffrn_radiation_wavelength     0.71073
_diffrn_reflns_av_R_equivalents  0.1590
_diffrn_reflns_av_unetI/netI     0.0794
_diffrn_reflns_Laue_measured_fraction_full 1.000
_diffrn_reflns_Laue_measured_fraction_max 1.000
_diffrn_reflns_limit_h_max       6
_diffrn_reflns_limit_h_min       -6
_diffrn_reflns_limit_k_max       6
_diffrn_reflns_limit_k_min       -6
_diffrn_reflns_limit_l_max       20
_diffrn_reflns_limit_l_min       -20
_diffrn_reflns_number            2802
_diffrn_reflns_point_group_measured_fraction_full 1.000
_diffrn_reflns_point_group_measured_fraction_max 1.000
_diffrn_reflns_theta_full        25.242
_diffrn_reflns_theta_max         32.961
_diffrn_reflns_theta_min         1.508
_diffrn_source                   'fine-focus sealed tube'
_exptl_absorpt_coefficient_mu    36.044
_exptl_absorpt_correction_T_max  0.6530
_exptl_absorpt_correction_T_min  0.5492
_exptl_absorpt_correction_type   numerical
_exptl_absorpt_process_details   'Bruker SHELXTL 6.12 (Sheldrick, 2001)'
_exptl_crystal_colour            black
_exptl_crystal_density_diffrn    6.164
_exptl_crystal_description       irregular
_exptl_crystal_F_000             325
_exptl_crystal_size_max          0.021
_exptl_crystal_size_mid          0.021
_exptl_crystal_size_min          0.020
_refine_diff_density_max         2.556
_refine_diff_density_min         -3.655
_refine_diff_density_rms         0.546
_refine_ls_extinction_method     none
_refine_ls_goodness_of_fit_ref   1.062
_refine_ls_hydrogen_treatment    undef
_refine_ls_matrix_type           full
_refine_ls_number_parameters     22
_refine_ls_number_reflns         352
_refine_ls_number_restraints     0
_refine_ls_restrained_S_all      1.062
_refine_ls_R_factor_all          0.1008
_refine_ls_R_factor_gt           0.0511
_refine_ls_shift/su_max          0.001
_refine_ls_shift/su_mean         0.000
_refine_ls_structure_factor_coef Fsqd
_refine_ls_weighting_details
'w=1/[\s^2^(Fo^2^)+(0.0608P)^2^+5.9190P] where P=(Fo^2^+2Fc^2^)/3'
_refine_ls_weighting_scheme      calc
_refine_ls_wR_factor_gt          0.1329
_refine_ls_wR_factor_ref         0.1530
_reflns_Friedel_coverage         0.000
_reflns_number_gt                224
_reflns_number_total             352
_reflns_threshold_expression     'I > 2\s(I)'
_cod_data_source_file            ic501053v_si_003.cif
_cod_data_source_block           Sm(Mn,Zn)4As4
_cod_depositor_comments
'Adding full bibliography for 4340510--4340524.cif.'
_cod_original_cell_volume        198.9(2)
_cod_database_code               4340523
#BEGIN Tags that were not found in dictionaries:
_shelx_space_group_comment
;
The symmetry employed for this shelxl refinement is uniquely defined
by the following loop, which should always be used as a source of
symmetry information in preference to the above space-group names.
They are only intended as comments.
;
_shelx_estimated_absorpt_t_min   0.518
_shelx_estimated_absorpt_t_max   0.533
_shelxl_version_number           2013-4
_shelx_res_file
;
TITL Sm1.2Mn0.9Zn3.1As4 P-3m1 lsf final refinement
CELL 0.71073   4.1240   4.1240  13.5068  90.000  90.000 120.000
ZERR    1.00   0.0019   0.0019   0.0060   0.000   0.000   0.000
LATT  1
SYMM -Y, X-Y, Z
SYMM -X+Y, -X, Z
SYMM Y, X, -Z
SYMM X-Y, -Y, -Z
SYMM -X, -X+Y, -Z
SFAC MN ZN AS SM
UNIT 0.87 3.13 4 1.24
TEMP 23
SIZE 0.02 0.021 0.021

L.S. 4
ACTA

WGHT    0.060800    5.919000
FVAR       0.14062   0.56404
SM1   4    0.000000    0.000000    0.500000     0.02000    0.03107    0.03107 =
         0.03231    0.00000    0.00000    0.01554
SM2   4    0.000000    0.000000    0.000000    10.08333    0.02326    0.02326 =
         0.02129    0.00000    0.00000    0.01163
ZN1   2    0.333333    0.666667    0.332369    20.16667    0.01589    0.01589 =
         0.04153    0.00000    0.00000    0.00794
ZN2   2    0.333333    0.666667    0.803505    10.16667    0.02072    0.02072 =
         0.01750    0.00000    0.00000    0.01036
MN    1    0.333333    0.666667    0.408619   -20.16667    0.02576    0.02576 =
         0.05167    0.00000    0.00000    0.01288
AS1   3    0.333333    0.666667    0.127143    10.16667    0.01412    0.01412 =
         0.01144    0.00000    0.00000    0.00706
AS2   3    0.333333    0.666667    0.618487    10.16667    0.02117    0.02117 =
         0.01347    0.00000    0.00000    0.01058
HKLF 4

REM  Sm1.2Mn0.9Zn3.1As4 P-3m1 lsf final refinement
REM R1 =  0.0511 for     224 Fo > 4sig(Fo)  and  0.1008 for all     352 data
REM     22 parameters refined using      0 restraints

END

WGHT      0.0797      3.3257

REM Highest difference peak  2.556,  deepest hole -3.655,  1-sigma level  0.546
Q1    1   0.0000  1.0000  0.8173  10.16667  0.05    2.01
Q2    1   0.4584  0.7292  0.4332  10.50000  0.05    1.87
Q3    1   0.3333  0.6667  0.2653  10.16667  0.05    1.80
Q4    1   0.3333  0.6667  0.0291  10.16667  0.05    1.61
Q5    1   0.0447  0.5224  0.0329  10.50000  0.05    1.56
Q6    1   0.3333  0.6667  0.0776  10.16667  0.05    1.50
Q7    1   0.2296  0.2296  0.5000  10.50000  0.05    1.35
Q8    1   0.2084  0.7916  0.4659  10.50000  0.05    1.33
Q9    1   0.0727  0.5363  0.2768  10.50000  0.05    1.24
Q10   1   0.5509  0.6017  0.5370  11.00000  0.05    1.20
Q11   1   0.2614  0.5228  0.8173  10.50000  0.05    1.19
Q12   1   0.1137  0.2274  0.1159  10.50000  0.05    1.15
Q13   1   0.1925  0.8075  0.2646  10.50000  0.05    1.02
Q14   1   0.3333  0.6667  0.8449  10.16667  0.05    1.02
Q15   1   0.0000  0.0000  0.3248  10.16667  0.05    1.00
Q16   1   0.3333  0.6667  0.5117  10.16667  0.05    0.99
Q17   1   0.2131  0.2305  0.0432  11.00000  0.05    0.97
Q18   1   0.6825  0.7399  0.4103  11.00000  0.05    0.97
Q19   1   0.0000 -0.3163  0.0000  10.50000  0.05    0.95
Q20   1   0.6996  0.7461  0.3279  11.00000  0.05    0.94
;
_shelx_res_checksum              59839
_shelx_hkl_file
;
   0  -1 -20   20.25   10.72
  -1   0 -20   -0.40    8.25
   0   0 -20   -2.29    5.67
   1   0 -20   15.83   10.49
  -1   1 -20    9.66    8.67
   1  -2 -19    4.24    6.74
  -1  -1 -19    6.32    9.00
   0  -1 -19    6.65    6.29
   1  -1 -19    1.94    6.38
   2  -1 -19   -4.46    6.29
  -1   0 -19   -1.05    5.60
   0   0 -19    0.23    5.13
   1   0 -19    8.22    6.48
   2   0 -19   -8.61    8.55
  -2   1 -19    1.89    5.72
  -1   1 -19    0.86    5.03
   0   1 -19    7.14    5.59
   1   1 -19    1.30    6.43
  -2   2 -19   -1.39    8.04
   1  -3 -18   15.69   11.72
   0  -2 -18   -1.16    6.51
   1  -2 -18   -7.82    5.46
   2  -2 -18   22.51    7.88
  -1  -1 -18    7.04    8.40
   0  -1 -18   27.48    7.49
   1  -1 -18    0.94    4.98
   2  -1 -18   -1.74    4.63
  -2   0 -18   23.68   11.00
  -1   0 -18   -3.46    4.36
   0   0 -18    7.72    5.44
   1   0 -18   45.02    6.61
   2   0 -18   -4.36    5.85
  -2   1 -18    1.07    5.24
  -1   1 -18   32.20    6.52
   0   1 -18    1.16    4.75
   1   1 -18    4.59    5.84
   2   1 -18   27.10   11.70
  -2   2 -18    2.79    5.31
  -1   2 -18    5.14    7.02
   0   2 -18   12.39    6.99
   0  -3 -17   -8.49    9.19
   1  -3 -17    5.71    6.78
   2  -3 -17    2.86    8.85
   3  -3 -17    6.45   10.23
  -1  -2 -17    0.72    8.15
   0  -2 -17    2.00    5.66
   1  -2 -17   -0.13    4.96
   2  -2 -17    6.44    5.92
   3  -2 -17    3.38    6.18
  -2  -1 -17    7.87    8.82
  -1  -1 -17    3.28    5.08
   0  -1 -17   10.38    5.80
   1  -1 -17   14.21    5.32
   2  -1 -17   -3.51    4.81
   3  -1 -17   -1.11    6.24
  -2   0 -17    2.18    7.19
  -1   0 -17    8.93    5.16
   0   0 -17    5.54    4.97
   1   0 -17    7.20    4.28
   2   0 -17    3.33    4.62
   3   0 -17   14.04   10.63
  -3   1 -17   21.24   10.55
  -2   1 -17   -1.82    4.38
  -1   1 -17   11.90    4.74
   0   1 -17    8.02    4.81
   1   1 -17    3.19    5.08
   2   1 -17    1.48    6.57
  -3   2 -17   11.08    6.33
  -2   2 -17    4.86    5.34
  -1   2 -17    1.02    6.12
   0   2 -17   10.67    5.97
   1   2 -17    1.62    6.60
  -3   3 -17    9.84   10.01
  -2   3 -17    5.15    8.83
  -1   3 -17   12.48    9.44
   0   3 -17   -5.37    6.33
   0  -3 -16   48.69   13.09
   1  -3 -16   -1.50    5.48
   2  -3 -16    5.84    8.93
   3  -3 -16   38.81    8.89
  -2  -2 -16   19.10   10.32
  -1  -2 -16   -3.81    6.82
   0  -2 -16   -3.63    4.82
   1  -2 -16   70.76    9.35
   2  -2 -16    5.67    5.36
   3  -2 -16    3.91    5.70
  -2  -1 -16   12.23    7.55
  -1  -1 -16   60.84    8.50
   0  -1 -16   -2.92    4.07
   1  -1 -16    8.69    3.73
   2  -1 -16   73.96    9.27
   3  -1 -16    0.96    5.40
  -3   0 -16   43.54   12.42
  -2   0 -16   -0.21    4.04
  -1   0 -16    0.30    3.94
   0   0 -16   91.25    9.72
   1   0 -16    1.38    3.39
   2   0 -16    0.39    4.10
   3   0 -16   25.43    8.11
  -3   1 -16    4.30    7.73
  -2   1 -16   60.39    7.76
  -1   1 -16    4.17    4.12
   0   1 -16    2.77    3.43
   1   1 -16   64.13    8.74
   2   1 -16   -1.83    5.68
  -3   2 -16    0.54    5.04
  -2   2 -16    3.52    4.54
  -1   2 -16   61.48    7.96
   0   2 -16    5.83    4.93
   1   2 -16   -2.87    5.10
  -3   3 -16   21.92    6.76
  -2   3 -16   -1.96    7.38
  -1   3 -16    3.86    5.81
   0   3 -16   30.70    8.21
   1  -4 -15   -4.95    8.70
   2  -4 -15   12.42   10.71
   3  -4 -15    3.17   10.80
   0  -3 -15   24.39   10.84
   1  -3 -15    0.63    5.45
   2  -3 -15   -2.52    4.80
   3  -3 -15   26.81    7.43
  -2  -2 -15    8.86   10.00
  -1  -2 -15    6.33    7.66
   0  -2 -15    0.25    4.57
   1  -2 -15   57.78    8.01
   2  -2 -15   -0.10    4.43
   3  -2 -15   -2.69    4.57
   4  -2 -15   20.78    7.50
  -3  -1 -15    6.38    9.97
  -2  -1 -15   -4.60    5.77
  -1  -1 -15   24.38    6.09
   0  -1 -15   12.35    4.72
   1  -1 -15    6.94    3.63
   2  -1 -15   37.08    6.75
   3  -1 -15    0.79    4.89
  -3   0 -15    9.49    8.57
  -2   0 -15    2.71    4.09
  -1   0 -15   -0.43    3.62
   0   0 -15   57.78    7.50
   1   0 -15    0.38    3.14
   2   0 -15    5.23    4.85
   3   0 -15   26.52    7.86
  -3   1 -15   -2.68    6.59
  -2   1 -15   38.29    6.25
  -1   1 -15    3.94    3.69
   0   1 -15    1.42    3.02
   1   1 -15   46.94    7.48
   2   1 -15   -1.15    5.24
  -4   2 -15   13.65   10.24
  -3   2 -15    7.09    4.96
  -2   2 -15    1.46    4.02
  -1   2 -15   45.55    5.53
   0   2 -15    6.64    4.94
   1   2 -15   -3.06    4.89
   2   2 -15   10.49   11.01
  -4   3 -15    1.12    6.15
  -3   3 -15   16.38    6.47
  -2   3 -15    1.38    7.29
  -1   3 -15   -0.36    5.21
   0   3 -15   15.66    6.71
  -2   4 -15   30.63   11.50
  -1   4 -15    4.08    6.60
   1  -4 -14   12.27    9.24
   2  -4 -14   -2.61    8.44
   3  -4 -14   -4.43    5.84
   0  -3 -14    5.34    8.18
   1  -3 -14    2.96    5.14
   2  -3 -14   41.02    7.72
   3  -3 -14   -1.54    5.08
   4  -3 -14   -3.78    5.28
  -2  -2 -14   -0.76    7.69
  -1  -2 -14    4.25    7.75
   0  -2 -14   41.70    6.66
   1  -2 -14    8.07    6.16
   2  -2 -14    3.17    4.21
   3  -2 -14   32.86    6.57
   4  -2 -14    2.06    6.06
  -3  -1 -14    5.44    9.04
  -2  -1 -14   24.12    8.85
  -1  -1 -14    1.73    4.01
   0  -1 -14   -2.81    3.10
   1  -1 -14   57.70    7.13
   2  -1 -14   -2.38    3.71
   3  -1 -14   -3.12    4.36
   4  -1 -14   22.33   10.81
  -3   0 -14   -2.68    6.72
  -2   0 -14    1.57    3.64
  -1   0 -14   67.93    7.60
   0   0 -14    5.70    2.98
   1   0 -14    3.43    3.12
   2   0 -14   37.01    6.63
   3   0 -14   -1.25    5.00
  -4   1 -14    5.62    9.44
  -3   1 -14   38.84   10.34
  -2   1 -14    1.63    3.48
  -1   1 -14    4.44    3.28
   0   1 -14   57.82    6.07
   1   1 -14    1.59    3.27
   2   1 -14    5.06    5.54
   3   1 -14   27.38   11.82
  -4   2 -14   -0.77    8.38
  -3   2 -14    1.15    4.68
  -2   2 -14   37.99    6.44
  -1   2 -14    2.10    2.96
   0   2 -14   -4.84    3.66
   1   2 -14   29.54    6.53
   2   2 -14   -2.98    7.90
  -4   3 -14   23.09    7.09
  -3   3 -14   -1.94    4.64
  -2   3 -14    2.35    6.12
  -1   3 -14   48.74    7.90
   0   3 -14    4.62    5.36
   1   3 -14    5.20    9.45
  -3   4 -14   11.60    9.47
  -2   4 -14   -0.24    5.70
  -1   4 -14    2.92    5.84
   0  -4 -13   18.54    9.26
   1  -4 -13   -2.84    7.51
   2  -4 -13    3.79    7.53
   3  -4 -13    6.95    6.28
   4  -4 -13    9.97    7.31
   0  -3 -13    4.24    7.24
   1  -3 -13   11.17    5.22
   2  -3 -13   -0.42    4.24
   3  -3 -13    1.19    4.78
   4  -3 -13    2.14    5.53
  -2  -2 -13   -0.34    7.03
  -1  -2 -13   11.48    7.57
   0  -2 -13    3.19    3.97
   1  -2 -13    1.52    3.59
   2  -2 -13    8.72    4.26
   3  -2 -13    3.35    4.45
   4  -2 -13    0.95    5.39
  -3  -1 -13   -0.28    7.89
  -2  -1 -13   10.07    6.24
  -1  -1 -13   -4.16    3.37
   0  -1 -13   14.30    4.42
   1  -1 -13   14.91    4.27
   2  -1 -13    0.96    3.52
   3  -1 -13    9.67    5.29
   4  -1 -13   19.72    9.91
  -4   0 -13    7.69    9.87
  -3   0 -13    4.40    6.53
  -2   0 -13    2.08    3.62
  -1   0 -13    6.88    3.72
   0   0 -13   -1.12    2.42
   1   0 -13   13.30    3.54
   2   0 -13   13.89    5.06
   3   0 -13   -1.83    4.50
   4   0 -13    1.56    9.37
  -4   1 -13   -3.73    7.63
  -3   1 -13    0.61    4.27
  -2   1 -13    0.53    3.02
  -1   1 -13   17.37    4.29
   0   1 -13    7.18    3.08
   1   1 -13   -0.56    2.78
   2   1 -13    0.87    4.57
   3   1 -13   -6.05    7.78
  -4   2 -13    3.66    7.86
  -3   2 -13    5.87    4.60
  -2   2 -13    9.01    4.44
  -1   2 -13    1.37    2.74
   0   2 -13    7.83    4.06
   1   2 -13    8.50    4.72
   2   2 -13   -2.94    7.41
  -4   3 -13    5.09    5.73
  -3   3 -13    1.50    4.52
  -2   3 -13    6.79    4.67
  -1   3 -13   10.89    5.02
   0   3 -13   -0.20    4.87
   1   3 -13    1.00    8.47
  -4   4 -13    3.45    9.58
  -3   4 -13   -2.38    7.93
  -2   4 -13   -5.25    4.97
  -1   4 -13    5.48    5.76
   0   4 -13   -1.37    8.87
   3  -5 -12   15.98   10.81
   0  -4 -12   11.86    8.46
   1  -4 -12    7.63    7.99
   2  -4 -12    5.89    5.14
   3  -4 -12   12.61    6.03
   4  -4 -12   27.07   13.02
   0  -3 -12    1.65    6.49
   1  -3 -12   22.68    7.69
   2  -3 -12   41.05    6.87
   3  -3 -12    6.85    4.94
   4  -3 -12   17.43    6.57
   5  -3 -12   12.49    7.62
  -2  -2 -12    0.70    6.83
  -1  -2 -12   11.80    7.33
   0  -2 -12   54.09    6.76
   1  -2 -12    9.91    4.12
   2  -2 -12   20.58    5.08
   3  -2 -12   49.52    7.39
   4  -2 -12   -0.26    4.21
   5  -2 -12   19.30   11.65
  -3  -1 -12   11.50    8.61
  -2  -1 -12   53.44   10.30
  -1  -1 -12   10.38    3.87
   0  -1 -12   45.84    4.56
   1  -1 -12  103.18    8.31
   2  -1 -12    5.55    3.77
   3  -1 -12   29.91    5.08
   4  -1 -12   26.03    6.93
  -4   0 -12   12.32    6.65
  -3   0 -12    5.41    6.84
  -2   0 -12   30.94    5.17
  -1   0 -12  102.99    8.26
   0   0 -12   16.35    3.28
   1   0 -12   44.74    5.84
   2   0 -12   47.74    6.77
   3   0 -12    6.22    4.29
   4   0 -12   10.46    7.08
  -4   1 -12   19.18    9.70
  -3   1 -12   63.49    7.44
  -2   1 -12    5.54    3.40
  -1   1 -12   36.98    4.22
   0   1 -12   92.24    6.38
   1   1 -12   10.48    3.26
   2   1 -12   18.10    5.42
   3   1 -12    5.98    5.62
  -4   2 -12    5.08    7.66
  -3   2 -12   20.36    5.22
  -2   2 -12   66.54    6.91
  -1   2 -12   16.34    3.24
   0   2 -12   41.48    6.03
   1   2 -12   45.40    6.75
   2   2 -12    1.01    5.06
   3   2 -12    7.71   10.73
  -4   3 -12   19.05    6.33
  -3   3 -12    1.83    4.17
  -2   3 -12   20.50    4.21
  -1   3 -12   37.06    6.56
   0   3 -12    0.05    4.29
   1   3 -12   17.09   10.02
  -4   4 -12    6.60    6.03
  -3   4 -12   22.25    9.60
  -2   4 -12    3.27    4.94
  -1   4 -12   16.29    5.90
   0   4 -12    8.78    9.35
  -3   5 -12   -3.84    8.99
  -2   5 -12   12.11    7.35
   3  -5 -11    3.98    9.92
   0  -4 -11   -5.80    6.30
   2  -4 -11    2.19    7.27
   3  -4 -11   -2.66    6.82
   4  -4 -11   13.93    6.77
   5  -4 -11    0.64    8.97
  -2  -3 -11    0.64    7.80
   0  -3 -11    4.24    6.43
   1  -3 -11   -0.66    3.41
   2  -3 -11   31.71    5.77
   3  -3 -11   -0.25    3.98
   4  -3 -11   -1.31    3.75
   5  -3 -11   11.47    5.78
  -3  -2 -11   10.62    9.78
  -2  -2 -11    5.61    6.65
  -1  -2 -11    0.28    5.34
   0  -2 -11   54.23    6.45
   1  -2 -11    0.57    3.20
   2  -2 -11   -4.71    2.87
   3  -2 -11   35.97    5.09
   4  -2 -11   -3.08    3.61
   5  -2 -11   -0.85    5.92
  -3  -1 -11    6.77    6.97
  -2  -1 -11   19.13    6.63
  -1  -1 -11    2.56    3.13
   0  -1 -11    1.52    2.04
   1  -1 -11   67.19    6.42
   2  -1 -11    2.23    2.67
   3  -1 -11   -0.10    2.94
   4  -1 -11   13.19    5.82
   5  -1 -11    5.14    9.53
  -4   0 -11    4.16    5.50
  -3   0 -11    3.67    6.03
  -2   0 -11    5.09    3.04
  -1   0 -11   85.09    7.28
   0   0 -11    0.07    1.86
   1   0 -11    2.19    2.82
   2   0 -11   67.33    6.19
   3   0 -11    2.39    3.58
   4   0 -11    1.50    5.84
  -4   1 -11    6.92    7.54
  -3   1 -11   43.89    6.10
  -2   1 -11    1.47    2.90
  -1   1 -11    3.43    2.28
   0   1 -11   92.54    6.15
   1   1 -11   -1.14    1.89
   2   1 -11   -3.32    2.75
   3   1 -11   28.32    7.09
   4   1 -11   -6.70    9.56
  -5   2 -11   -4.94    7.80
  -4   2 -11   -4.32    5.93
  -3   2 -11    0.13    3.39
  -2   2 -11   67.84    6.90
  -1   2 -11    3.22    2.28
   0   2 -11   -1.83    2.84
   1   2 -11   51.01    5.41
   2   2 -11   -0.70    4.64
   3   2 -11    0.98    6.66
  -5   3 -11   -2.10    8.60
  -4   3 -11   18.93    5.68
  -3   3 -11    7.18    4.17
  -2   3 -11    2.30    2.82
  -1   3 -11   40.04    6.24
   0   3 -11    5.25    3.95
   1   3 -11    1.18    5.25
   2   3 -11   15.72    7.84
  -5   4 -11   -1.19    9.58
  -4   4 -11   -4.72    5.01
  -3   4 -11   22.27    6.81
  -2   4 -11   -0.38    4.33
  -1   4 -11    0.13    4.43
   0   4 -11    0.09    7.98
   1   4 -11   -0.15    9.33
  -3   5 -11   -1.35    5.64
  -2   5 -11   17.05    7.15
   3  -5 -10    8.06    9.70
   4  -5 -10    8.96    7.07
  -1  -4 -10    5.54    8.72
   0  -4 -10   40.95   10.59
   2  -4 -10   14.71    7.97
   3  -4 -10   52.06    7.99
   4  -4 -10    3.15    5.52
   5  -4 -10    4.86    7.29
  -2  -3 -10   16.24    9.61
  -1  -3 -10    7.22    6.32
   0  -3 -10   28.11    8.06
   1  -3 -10   84.10    7.86
   2  -3 -10   35.09    5.75
   3  -3 -10   26.07    5.74
   4  -3 -10   25.05    6.39
   5  -3 -10    2.49    5.02
  -3  -2 -10    1.09    8.73
  -2  -2 -10   12.96    7.24
  -1  -2 -10   74.78   11.36
   0  -2 -10   49.84    5.73
   1  -2 -10   88.88    7.21
   2  -2 -10  116.14    7.07
   3  -2 -10   28.93    4.53
   4  -2 -10   19.62    4.64
   5  -2 -10   11.47    6.64
  -4  -1 -10   10.02   10.41
  -3  -1 -10   40.20    7.17
  -2  -1 -10   19.06    6.87
  -1  -1 -10   83.57    6.92
   0  -1 -10  182.80    6.67
   1  -1 -10   71.07    6.34
   2  -1 -10   87.31    6.06
   3  -1 -10   78.02    6.93
   4  -1 -10   15.22    5.87
   5  -1 -10    7.92    7.00
  -4   0 -10    3.03    5.14
  -3   0 -10   37.53    8.93
  -2   0 -10  120.65    7.73
  -1   0 -10   78.85    6.60
   0   0 -10  121.27    6.18
   1   0 -10  178.65    6.77
   2   0 -10   35.17    4.32
   3   0 -10   50.92    5.80
   4   0 -10   32.87    7.97
  -5   1 -10   20.08   10.08
  -4   1 -10   47.72   11.50
  -3   1 -10   27.37    4.97
  -2   1 -10   81.21    6.70
  -1   1 -10  172.66    6.88
   0   1 -10   76.87    5.45
   1   1 -10   78.59    4.82
   2   1 -10   81.13    6.70
   3   1 -10   13.37    5.54
   4   1 -10   10.12    7.37
  -5   2 -10   -0.06    8.85
  -4   2 -10   17.85    5.32
  -3   2 -10   98.73    8.57
  -2   2 -10   41.52    4.41
  -1   2 -10   82.52    5.56
   0   2 -10  101.60    6.29
   1   2 -10   39.80    4.76
   2   2 -10   11.82    5.88
   3   2 -10   28.09    8.32
  -5   3 -10   62.24   14.31
  -4   3 -10   20.27    5.78
  -3   3 -10   48.18    6.66
  -2   3 -10   86.20    6.40
  -1   3 -10   26.21    5.13
   0   3 -10   40.93    5.20
   1   3 -10   54.28    8.57
   2   3 -10    1.86    5.97
  -5   4 -10   15.09    6.81
  -4   4 -10   24.52    6.31
  -3   4 -10   16.36    5.83
  -2   4 -10   29.92    6.19
  -1   4 -10   39.67    5.63
   0   4 -10   21.12    6.24
   1   4 -10   15.04    7.04
  -4   5 -10    3.47    8.22
  -3   5 -10   17.41    6.83
  -2   5 -10    3.22    5.62
  -1   5 -10   15.17   11.17
   2  -5  -9   19.09    8.96
   3  -5  -9    1.87    5.37
   4  -5  -9    1.20    5.85
  -1  -4  -9   -7.39    7.57
   0  -4  -9    6.71    6.92
   2  -4  -9    0.24    3.63
   3  -4  -9    8.08    4.90
   4  -4  -9   -0.86    4.79
   5  -4  -9    0.61    6.46
  -2  -3  -9    9.94    8.18
  -1  -3  -9    1.66    5.70
   0  -3  -9    4.06    5.38
   1  -3  -9   26.52    4.59
   2  -3  -9   -3.72    2.83
   3  -3  -9    9.96    4.21
   4  -3  -9   20.73    5.62
   5  -3  -9    1.08    5.93
  -3  -2  -9    6.15    7.96
  -2  -2  -9    5.48    4.20
  -1  -2  -9    9.34    5.66
   0  -2  -9    3.18    2.30
   1  -2  -9   14.85    2.62
   2  -2  -9   47.54    5.56
   3  -2  -9    0.50    2.93
   4  -2  -9    3.09    3.33
   5  -2  -9   10.25    6.40
  -4  -1  -9   -6.63    7.89
  -3  -1  -9   10.78    5.14
  -2  -1  -9   -3.77    3.94
  -1  -1  -9   16.19    3.53
   0  -1  -9   53.61    4.43
   1  -1  -9    5.86    1.85
   2  -1  -9   12.95    2.75
   3  -1  -9   39.07    4.75
   4  -1  -9    3.38    4.18
   5  -1  -9    4.77    5.90
  -4   0  -9   -1.81    4.59
  -3   0  -9   17.08    7.11
  -2   0  -9   36.26    4.58
  -1   0  -9    1.47    1.64
   0   0  -9   22.20    2.78
   1   0  -9   61.91    4.39
   2   0  -9   -1.86    2.11
   3   0  -9   12.71    3.61
   4   0  -9   14.21    6.36
  -5   1  -9   -4.86    8.16
  -4   1  -9   14.19    7.69
  -3   1  -9    0.37    3.07
  -2   1  -9    5.69    2.93
  -1   1  -9   64.83    4.54
   0   1  -9    0.96    1.57
   1   1  -9   12.98    2.95
   2   1  -9   24.79    4.29
   3   1  -9    1.26    4.42
   4   1  -9    4.24    6.38
  -5   2  -9   -0.50    8.25
  -4   2  -9    8.95    4.76
  -3   2  -9   34.59    5.44
  -2   2  -9    2.21    2.33
  -1   2  -9   17.14    2.52
   0   2  -9   43.76    4.18
   1   2  -9    1.42    2.53
   2   2  -9    4.04    4.24
   3   2  -9   13.33    6.65
  -5   3  -9   14.64    9.05
  -4   3  -9   -2.06    3.97
  -3   3  -9    7.57    3.96
  -2   3  -9   35.23    3.66
  -1   3  -9    0.06    2.38
   0   3  -9    4.68    3.00
   1   3  -9   13.50    5.35
   2   3  -9   -4.44    5.59
  -5   4  -9    4.69    6.02
  -4   4  -9    8.71    5.17
  -3   4  -9    3.73    4.31
  -2   4  -9   10.86    3.78
  -1   4  -9   19.29    4.55
   0   4  -9   -0.33    4.48
   1   4  -9    8.71    6.76
  -4   5  -9   -1.82    8.15
  -3   5  -9   11.13    5.57
  -2   5  -9    3.25    4.55
  -1   5  -9    3.35    6.06
   1  -5  -8    1.10    7.11
   2  -5  -8    9.29    8.29
   3  -5  -8   -0.42    5.25
   4  -5  -8    7.69    6.01
  -1  -4  -8   21.84    9.21
   0  -4  -8    3.21    6.69
   1  -4  -8   -2.95    4.49
   2  -4  -8   53.01    9.86
   3  -4  -8    2.57    4.12
   4  -4  -8   -2.34    4.48
   5  -4  -8    9.97    6.07
  -2  -3  -8   -0.30    6.88
  -1  -3  -8   -4.67    4.54
   0  -3  -8   43.63    7.89
   2  -3  -8    4.60    2.97
   3  -3  -8   43.26    6.45
   4  -3  -8    0.50    3.94
   5  -3  -8   -3.42    5.22
  -3  -2  -8    5.79    8.02
  -2  -2  -8   22.91    7.74
  -1  -2  -8    0.91    3.80
   0  -2  -8    7.02    2.29
   1  -2  -8   95.98    6.60
   2  -2  -8    5.76    2.79
   3  -2  -8    1.50    3.17
   4  -2  -8   40.66    7.21
   5  -2  -8    0.60    4.72
  -4  -1  -8   15.60    9.47
  -3  -1  -8    2.90    4.01
  -2  -1  -8    0.86    4.09
  -1  -1  -8   87.50    6.29
   0  -1  -8   15.06    1.86
   1  -1  -8   12.20    2.21
   2  -1  -8   79.68    5.26
   3  -1  -8    2.02    2.55
   4  -1  -8    2.34    4.15
   5  -1  -8    3.42    5.79
  -4   0  -8    1.04    4.49
  -3   0  -8   38.92    8.92
  -2   0  -8    6.51    2.79
  -1   0  -8    9.64    1.97
   0   0  -8  123.56    5.32
   1   0  -8   11.69    2.23
   2   0  -8    8.39    2.52
   3   0  -8   40.68    4.78
   4   0  -8   -1.01    4.53
  -5   1  -8   13.74    9.06
  -4   1  -8    6.67    3.91
  -3   1  -8    0.59    2.91
  -2   1  -8   88.00    6.74
  -1   1  -8   14.17    2.44
   0   1  -8   13.03    1.93
   1   1  -8   94.56    4.46
   2   1  -8    5.22    2.77
   3   1  -8   -1.12    4.03
   4   1  -8   10.98    6.63
  -5   2  -8    2.18    8.38
  -4   2  -8   35.51    5.92
  -3   2  -8    1.91    3.28
  -2   2  -8    4.36    2.36
  -1   2  -8   91.86    4.59
   0   2  -8    9.42    1.95
   1   2  -8    5.81    2.06
   2   2  -8   30.16    6.66
   3   2  -8   -0.36    5.23
  -5   3  -8   -7.61    7.10
  -4   3  -8    4.39    4.12
  -3   3  -8   62.61    5.69
  -2   3  -8    5.00    2.09
  -1   3  -8    5.14    2.62
   0   3  -8   45.20    4.84
   1   3  -8    0.12    3.05
   2   3  -8   -7.91    4.69
  -5   4  -8   10.54    6.23
  -4   4  -8    1.48    4.17
  -3   4  -8    0.22    3.95
  -2   4  -8   32.80    5.03
  -1   4  -8    4.06    3.30
   0   4  -8   -1.12    4.25
   1   4  -8    8.17    6.67
  -4   5  -8   16.04    6.22
  -3   5  -8   -0.69    4.74
  -2   5  -8    1.30    4.32
  -1   5  -8   11.57    6.22
   0   5  -8   -3.34    8.51
   1  -5  -7   -1.59    6.55
   2  -5  -7    4.80    4.81
   3  -5  -7   -2.91    6.44
   4  -5  -7    1.38    5.41
   5  -5  -7    7.64    9.30
  -1  -4  -7    4.47    6.75
   0  -4  -7    3.43    5.86
   1  -4  -7    8.86    5.70
   2  -4  -7    0.18    2.91
   3  -4  -7    1.08    3.61
   4  -4  -7    5.39    4.87
   5  -4  -7    1.33    5.10
  -2  -3  -7   -6.85    5.94
  -1  -3  -7   20.47    7.04
   0  -3  -7    1.52    4.36
   2  -3  -7   13.57    2.85
   3  -3  -7    0.92    3.10
   4  -3  -7   11.42    4.67
   5  -3  -7    8.25    5.94
  -3  -2  -7    1.84    6.86
  -2  -2  -7    0.36    4.82
  -1  -2  -7    7.14    4.74
   0  -2  -7   35.03    4.20
   1  -2  -7    0.07    2.01
   2  -2  -7   10.13    2.23
   3  -2  -7   20.54    4.29
   4  -2  -7    0.45    3.98
   5  -2  -7    3.48    5.09
  -4  -1  -7    7.48    7.98
  -3  -1  -7   -0.50    3.77
  -2  -1  -7    9.52    4.71
  -1  -1  -7    3.33    2.23
   0  -1  -7    9.80    2.44
   1  -1  -7   28.27    2.86
   2  -1  -7    4.79    2.07
   3  -1  -7    3.37    2.64
   4  -1  -7   -2.16    3.22
   5  -1  -7   -5.32    5.22
  -4   0  -7   10.57    5.00
  -3   0  -7    7.23    5.10
  -2   0  -7    4.63    2.36
  -1   0  -7   41.44    2.87
   0   0  -7    3.22    1.57
   1   0  -7   14.89    2.37
   2   0  -7   21.78    3.18
   3   0  -7    1.65    2.69
   4   0  -7   -1.51    4.32
   5   0  -7    5.84   10.95
  -5   1  -7    4.51    8.37
  -4   1  -7    5.80    3.99
  -3   1  -7   21.05    4.25
  -2   1  -7    4.33    1.78
  -1   1  -7   19.68    2.40
   0   1  -7   34.95    2.63
   1   1  -7    5.27    1.59
   2   1  -7    8.43    2.35
   3   1  -7   12.50    4.80
   4   1  -7   -4.75    5.58
  -5   2  -7   13.82    8.22
  -4   2  -7    5.66    3.93
  -3   2  -7    7.84    3.43
  -2   2  -7   18.80    2.90
  -1   2  -7    0.72    1.37
   0   2  -7   15.63    2.03
   1   2  -7   14.55    2.47
   2   2  -7    5.62    2.97
   3   2  -7    3.50    5.63
  -5   3  -7   -5.39    7.18
  -4   3  -7    5.14    4.24
  -3   3  -7    4.71    2.67
  -2   3  -7    6.76    2.10
  -1   3  -7   14.82    3.19
   0   3  -7    2.62    2.50
   1   3  -7    2.72    2.85
   2   3  -7    9.10    5.67
  -5   4  -7   -4.71    4.98
  -4   4  -7   -1.41    4.02
  -3   4  -7    4.23    3.22
  -2   4  -7    5.90    3.31
  -1   4  -7    2.42    3.21
   0   4  -7    8.96    5.00
   1   4  -7    5.35    4.35
  -5   5  -7   -2.88    6.22
  -4   5  -7   -0.97    5.02
  -3   5  -7   -4.28    4.38
  -2   5  -7   -0.22    3.77
  -1   5  -7    4.58    5.43
   0   5  -7    0.93    6.27
   1  -5  -6   10.81    7.44
   2  -5  -6    8.99    5.04
   3  -5  -6   25.26    6.07
   4  -5  -6   22.51    6.92
   5  -5  -6    7.36    6.33
  -1  -4  -6    8.44    7.89
   0  -4  -6   15.59    6.83
   1  -4  -6   59.99    9.43
   2  -4  -6   27.21    5.18
   3  -4  -6   16.49    4.60
   4  -4  -6   76.99    9.50
   5  -4  -6    9.40    5.64
  -2  -3  -6   -0.55    5.74
  -1  -3  -6   64.71   11.10
   0  -3  -6   32.71    4.80
   2  -3  -6  176.72    8.37
   3  -3  -6   34.76    4.21
   4  -3  -6    5.23    4.07
   5  -3  -6   51.52    8.99
   6  -3  -6    5.48    9.73
  -3  -2  -6   31.30    9.35
  -2  -2  -6   23.89    7.18
  -1  -2  -6   53.47    7.78
   0  -2  -6  273.21   12.89
   1  -2  -6   69.05    7.48
   2  -2  -6   66.25    4.27
   3  -2  -6  184.63    7.24
   4  -2  -6   19.93    5.47
   5  -2  -6   10.79    5.93
  -4  -1  -6    5.70    7.14
  -3  -1  -6   26.10    5.58
  -2  -1  -6  166.79   13.13
  -1  -1  -6   72.75    4.82
   0  -1  -6  105.78    5.00
   1  -1  -6  418.86    5.51
   2  -1  -6   62.10    3.73
   3  -1  -6   43.95    6.05
   4  -1  -6   76.61    8.68
   5  -1  -6   10.78    6.39
  -4   0  -6   67.57    7.88
  -3   0  -6   40.75    5.80
  -2   0  -6   68.69    5.01
  -1   0  -6  399.89    8.91
   0   0  -6  115.36    4.57
   1   0  -6  110.31    5.09
   2   0  -6  280.84    6.07
   3   0  -6   30.64    4.05
   4   0  -6    7.71    4.84
   5   0  -6   13.64   11.61
  -5   1  -6   10.30    8.83
  -4   1  -6   18.31    4.84
  -3   1  -6  166.77    9.41
  -2   1  -6   77.49    4.15
  -1   1  -6  105.00    4.37
   0   1  -6  421.85    6.30
   1   1  -6   61.31    3.52
   2   1  -6   36.89    3.43
   3   1  -6   92.35    9.70
   4   1  -6    6.04    7.95
  -5   2  -6   29.33   10.49
  -4   2  -6   12.84    4.42
  -3   2  -6   38.43    3.99
  -2   2  -6  275.98    7.34
  -1   2  -6   63.89    3.56
   0   2  -6   59.90    4.47
   1   2  -6  188.91    6.05
   2   2  -6   17.27    3.66
   3   2  -6   14.76    6.13
  -5   3  -6    7.40    5.32
  -4   3  -6   83.71    8.29
  -3   3  -6   33.44    4.24
  -2   3  -6   42.69    3.64
  -1   3  -6  188.17    7.95
   0   3  -6   28.80    3.30
   1   3  -6   20.79    4.16
   2   3  -6   36.90    5.87
  -5   4  -6    8.40    5.38
  -4   4  -6    8.41    3.67
  -3   4  -6   82.10    6.51
  -2   4  -6   20.77    4.01
  -1   4  -6    7.32    3.23
   0   4  -6   77.14    9.53
   1   4  -6    7.48    4.30
  -5   5  -6   20.12    7.17
  -4   5  -6   11.09    5.64
  -3   5  -6    8.90    4.10
  -2   5  -6   51.51    6.49
  -1   5  -6    6.12    5.52
   0   5  -6    7.76    6.29
  -3   6  -6   12.48    6.77
   2  -6  -5   14.60    8.98
   3  -6  -5    7.35    6.07
   1  -5  -5   15.12    7.90
   2  -5  -5    2.71    5.28
   3  -5  -5    5.30    4.53
   4  -5  -5   14.77    8.78
   5  -5  -5   -2.16    5.91
  -1  -4  -5   11.61    7.84
   0  -4  -5    2.95    4.72
   1  -4  -5    3.60    4.85
   2  -4  -5   19.71    4.59
   3  -4  -5   -1.80    2.93
   4  -4  -5   10.68    4.67
   5  -4  -5    5.45    5.39
   6  -4  -5    1.01   11.78
  -2  -3  -5    7.56    6.82
  -1  -3  -5    4.42    5.30
   0  -3  -5   40.84    7.49
   2  -3  -5    6.32    2.67
   3  -3  -5   40.49    4.38
   4  -3  -5    1.75    3.48
   5  -3  -5    1.82    5.01
  -3  -2  -5    1.00    6.58
  -2  -2  -5   35.95    8.11
  -1  -2  -5    0.61    2.33
   2  -2  -5    0.28    1.46
   3  -2  -5    5.97    2.31
   4  -2  -5   17.51    5.27
   5  -2  -5   -5.77    4.19
  -4  -1  -5   10.88    7.84
  -3  -1  -5    0.50    3.68
  -2  -1  -5    2.73    2.62
  -1  -1  -5   95.14    4.47
   0  -1  -5    3.65    1.63
   1  -1  -5   11.83    1.47
   2  -1  -5   96.97    4.24
   3  -1  -5    3.04    2.03
   4  -1  -5    6.29    4.06
   5  -1  -5    2.73    6.99
  -4   0  -5    4.85    4.14
  -3   0  -5   41.33    5.52
  -2   0  -5    2.59    1.96
  -1   0  -5   11.86    2.26
   0   0  -5  175.01    5.30
   1   0  -5    6.30    1.16
   2   0  -5    5.39    1.59
   3   0  -5   38.63    4.23
   4   0  -5    0.73    3.87
   5   0  -5    7.86   10.61
  -5   1  -5    6.14    8.22
  -4   1  -5   -3.05    3.17
  -3   1  -5    3.32    2.69
  -2   1  -5   90.90    4.09
  -1   1  -5    6.21    1.25
   0   1  -5   11.84    1.60
   1   1  -5  104.94    4.05
   2   1  -5   -1.82    1.64
   3   1  -5   11.50    3.63
   4   1  -5    3.60    8.01
  -5   2  -5    2.24    7.37
  -4   2  -5   26.84    5.18
  -3   2  -5    5.20    2.15
  -2   2  -5    9.76    2.35
  -1   2  -5  102.59    4.18
   0   2  -5    1.59    1.39
   1   2  -5    7.95    1.94
   2   2  -5   24.19    4.04
   3   2  -5   -1.77    3.64
  -5   3  -5    1.11    4.90
  -4   3  -5   13.92    4.40
  -3   3  -5   43.30    4.47
  -2   3  -5    2.04    1.81
  -1   3  -5    7.43    2.50
   0   3  -5   35.71    3.55
   1   3  -5    1.03    2.65
   2   3  -5    7.30    3.99
  -5   4  -5    5.93    5.17
  -4   4  -5   -1.73    2.99
  -3   4  -5    8.12    3.26
  -2   4  -5   29.72    4.35
  -1   4  -5    0.98    2.68
   0   4  -5    4.09    3.34
   1   4  -5   13.51    4.53
   2   4  -5   -2.96    7.81
  -5   5  -5   -4.63    5.70
  -4   5  -5    3.98    5.06
  -3   5  -5    0.25    3.59
  -2   5  -5    6.46    3.64
  -1   5  -5    6.84    4.97
   0   5  -5    0.28    5.52
  -3   6  -5    4.57    6.51
   2  -6  -4    6.38    8.55
   3  -6  -4    0.25    5.69
   4  -6  -4   23.63   10.55
   1  -5  -4    7.46    6.10
   2  -5  -4   40.67    9.25
   3  -5  -4   12.07    4.83
   4  -5  -4    0.93    4.21
   5  -5  -4   12.93    6.59
  -1  -4  -4    6.23    6.98
   0  -4  -4   79.41   11.25
   1  -4  -4   12.33    4.94
   2  -4  -4   10.77    5.01
   3  -4  -4   98.51    8.66
   4  -4  -4    7.28    3.52
   5  -4  -4   11.74    5.62
   6  -4  -4    3.67   12.09
  -3  -3  -4    7.83    9.58
  -2  -3  -4   54.95   11.53
  -1  -3  -4    5.86    5.64
   0  -3  -4   27.24    6.29
   1  -3  -4  223.96   10.32
   2  -3  -4   28.44    4.14
   3  -3  -4   25.08    4.15
   4  -3  -4   96.02    7.15
   5  -3  -4   11.83    5.81
   6  -3  -4   -4.24    9.28
  -3  -2  -4    7.54    7.18
  -2  -2  -4    1.36    4.60
  -1  -2  -4  210.48    7.82
   2  -2  -4  320.11    8.53
   3  -2  -4   23.99    3.32
   4  -2  -4   10.83    3.22
   5  -2  -4   51.83    7.94
  -4  -1  -4    0.35    6.48
  -3  -1  -4   92.69    7.98
  -2  -1  -4   28.21    4.23
  -1  -1  -4   59.03    3.49
   1  -1  -4   68.95    2.83
   2  -1  -4   54.91    3.62
   3  -1  -4  214.00    7.45
   4  -1  -4   16.21    3.64
   5  -1  -4   11.09    8.18
  -4   0  -4   17.50    5.03
  -3   0  -4   23.45    4.39
  -2   0  -4  325.35    7.42
  -1   0  -4   71.35    3.60
   0   0  -4   91.73    3.77
   1   0  -4  548.37    5.87
   2   0  -4   39.89    2.87
   3   0  -4   21.36    3.31
   4   0  -4   76.19    6.89
   5   0  -4   28.77   12.84
  -5   1  -4    8.09    7.55
  -4   1  -4   97.39    7.86
  -3   1  -4   30.88    3.28
  -2   1  -4   52.51    3.34
  -1   1  -4  545.07    6.18
   0   1  -4   69.12    2.55
   1   1  -4   52.16    3.09
   2   1  -4  214.34    7.77
   3   1  -4   13.51    3.57
   4   1  -4    6.14    7.79
  -5   2  -4   14.28    8.16
  -4   2  -4   10.19    4.27
  -3   2  -4  223.04    7.03
  -2   2  -4   44.06    3.62
  -1   2  -4   50.37    2.91
   0   2  -4  317.42    6.24
   1   2  -4   22.38    2.49
   2   2  -4   16.08    3.70
   3   2  -4   42.99    6.11
  -6   3  -4   11.49   10.25
  -5   3  -4   46.91    7.74
  -4   3  -4   14.93    3.95
  -3   3  -4   14.64    3.10
  -2   3  -4  209.59    6.25
  -1   3  -4   25.77    3.48
   0   3  -4   16.67    2.67
   1   3  -4  101.82    7.52
   2   3  -4    6.75    3.66
   3   3  -4    5.21    6.17
  -5   4  -4    5.15    5.28
  -4   4  -4   81.18    7.35
  -3   4  -4   11.48    3.25
  -2   4  -4   16.50    3.72
  -1   4  -4   98.50    6.84
   0   4  -4    5.10    3.35
   1   4  -4   -0.23    3.62
   2   4  -4   15.19    9.95
  -5   5  -4   12.95    7.03
  -4   5  -4   -0.97    4.65
  -3   5  -4   53.12    6.37
  -2   5  -4    2.84    3.42
  -1   5  -4    3.46    5.07
   0   5  -4   45.70    8.87
  -3   6  -4   -3.79    4.91
   2  -6  -3   -3.06    7.07
   3  -6  -3    2.24    5.16
   4  -6  -3  -10.08    6.82
   1  -5  -3   -7.85    4.72
   2  -5  -3    7.77    5.83
   3  -5  -3   -3.58    3.45
   4  -5  -3   -2.45    4.37
   5  -5  -3    6.50    5.84
  -1  -4  -3    3.29    6.27
   0  -4  -3   12.97    6.64
   1  -4  -3   -2.55    3.55
   2  -4  -3    6.95    4.32
   3  -4  -3   12.18    4.00
   4  -4  -3    2.57    3.61
   5  -4  -3   -1.43    3.42
   6  -4  -3   15.13   13.52
  -3  -3  -3    5.98    7.91
  -2  -3  -3    5.47    6.49
  -1  -3  -3    1.90    4.27
   0  -3  -3    4.96    4.13
   1  -3  -3   51.82    6.54
   2  -3  -3    0.38    2.04
   3  -3  -3    1.71    2.51
   4  -3  -3   27.72    4.36
   5  -3  -3    0.85    3.41
   6  -3  -3   10.03   10.23
  -4  -2  -3    6.81    9.12
  -3  -2  -3   -3.16    5.06
  -2  -2  -3   -2.28    3.36
  -1  -2  -3   40.18    4.31
   0  -2  -3    1.57    2.46
   2  -2  -3   64.43    4.96
   3  -2  -3   -0.27    1.75
   4  -2  -3    1.97    2.52
   5  -2  -3   16.33    4.44
  -4  -1  -3   -0.89    6.28
  -3  -1  -3   25.94    7.60
  -2  -1  -3    0.38    2.18
  -1  -1  -3    7.38    3.01
   1  -1  -3    2.04    1.05
   2  -1  -3    3.05    1.50
   3  -1  -3   34.38    3.83
   4  -1  -3    0.41    2.46
   5  -1  -3   -3.17    6.68
  -4   0  -3   -3.55    3.49
  -3   0  -3    5.62    3.11
  -2   0  -3   75.32    4.29
  -1   0  -3    1.19    1.30
   0   0  -3    6.53    1.53
   1   0  -3  119.70    2.86
   2   0  -3    2.80    1.37
   3   0  -3   -1.15    1.98
   4   0  -3   21.42    4.19
   5   0  -3   -1.67    8.54
  -5   1  -3   -7.70    5.99
  -4   1  -3   24.19    4.65
  -3   1  -3    1.97    1.91
  -2   1  -3    3.82    1.57
  -1   1  -3  112.50    3.04
   0   1  -3    2.22    0.83
   1   1  -3    1.15    1.14
   2   1  -3   45.57    4.49
   3   1  -3    2.03    2.85
   4   1  -3   -0.74    4.48
  -6   2  -3    4.47   10.29
  -5   2  -3   -3.14    5.79
  -4   2  -3   -0.76    3.10
  -3   2  -3   51.96    4.33
  -2   2  -3    2.40    1.62
  -1   2  -3    2.74    1.19
   0   2  -3   66.92    3.53
   1   2  -3    1.93    1.45
   2   2  -3    0.54    2.57
   3   2  -3   10.82    5.27
   4   2  -3   -3.73    8.24
  -6   3  -3    5.62   10.16
  -5   3  -3    5.29    4.88
  -4   3  -3    7.37    3.09
  -3   3  -3    5.78    2.53
  -2   3  -3   50.86    3.67
  -1   3  -3    2.85    2.08
   0   3  -3    2.91    1.76
   1   3  -3   23.67    3.91
   2   3  -3    2.24    3.39
   3   3  -3    1.30    6.10
  -5   4  -3    2.58    5.44
  -4   4  -3   13.63    4.08
  -3   4  -3    1.38    2.64
  -2   4  -3   -0.40    2.38
  -1   4  -3   19.35    3.62
   0   4  -3    3.40    2.91
   1   4  -3   -0.78    3.51
   2   4  -3    0.65    7.94
  -5   5  -3    0.68    4.68
  -4   5  -3    1.73    4.58
  -3   5  -3   11.55    4.11
  -2   5  -3    0.03    3.17
  -1   5  -3   -0.68    4.43
   0   5  -3    9.62    4.96
  -4   6  -3   -1.02    8.55
  -3   6  -3    1.92    5.09
  -2   6  -3    3.72    9.20
   2  -6  -2    1.78    7.24
   3  -6  -2    6.62    5.74
   4  -6  -2   10.71    6.29
   1  -5  -2    1.34    5.77
   2  -5  -2   26.34    8.34
   3  -5  -2    2.73    3.97
   4  -5  -2   -0.56    4.17
   5  -5  -2   17.49    5.35
  -2  -4  -2    0.48    8.85
  -1  -4  -2   -4.72    5.15
   0  -4  -2   27.31    7.82
   1  -4  -2    5.31    3.20
   2  -4  -2    3.31    4.13
   3  -4  -2   39.93    5.76
   4  -4  -2    2.54    3.54
   5  -4  -2   -1.16    3.62
   6  -4  -2    5.21    9.42
  -3  -3  -2   -6.84    7.34
  -2  -3  -2   28.02    9.00
  -1  -3  -2    8.52    4.99
   0  -3  -2    2.17    3.52
   1  -3  -2  123.74    7.42
   2  -3  -2   17.86    3.37
   3  -3  -2    3.75    2.68
   4  -3  -2   48.49    5.28
   5  -3  -2    5.60    3.81
   6  -3  -2   -0.58    8.79
  -4  -2  -2   14.01   10.93
  -3  -2  -2   -0.93    5.86
  -2  -2  -2    0.91    3.78
  -1  -2  -2  118.10    5.66
   0  -2  -2   24.00    4.53
   1  -2  -2    3.02    2.20
   2  -2  -2  158.67    6.32
   3  -2  -2   14.46    2.67
   4  -2  -2    0.83    2.47
   5  -2  -2   31.93    6.53
   6  -2  -2    6.51    9.98
  -4  -1  -2    0.01    5.98
  -3  -1  -2   59.52    9.95
  -2  -1  -2   12.80    3.14
  -1  -1  -2    2.16    1.63
   1  -1  -2   47.25    3.02
   2  -1  -2    4.52    1.51
   3  -1  -2  106.99    6.28
   4  -1  -2    3.01    2.62
   5  -1  -2   -2.01    4.34
  -4   0  -2   -1.03    3.87
  -3   0  -2   -2.57    2.21
  -2   0  -2  154.42    4.05
  -1   0  -2   53.75    2.78
   0   0  -2    7.06    1.16
   1   0  -2  261.93    4.94
   2   0  -2   18.67    2.58
   3   0  -2    6.25    2.42
   4   0  -2   33.54    6.29
   5   0  -2   -2.56    5.54
  -5   1  -2   -1.34    6.58
  -4   1  -2   45.98    5.66
  -3   1  -2   15.41    2.47
  -2   1  -2    5.13    1.53
  -1   1  -2  262.96    4.18
   0   1  -2   53.49    2.45
   1   1  -2    5.28    1.15
   2   1  -2  107.15    6.30
   3   1  -2    6.14    2.97
   4   1  -2    3.16    4.65
  -6   2  -2    3.58   10.49
  -5   2  -2   -2.29    6.47
  -4   2  -2   -0.56    3.48
  -3   2  -2  113.16    6.17
  -2   2  -2   28.65    2.91
  -1   2  -2    2.02    1.20
   0   2  -2  151.08    4.32
   1   2  -2   11.75    1.89
   2   2  -2    1.39    2.60
   3   2  -2   30.33    6.65
   4   2  -2   -2.25    5.75
  -6   3  -2  -15.79    8.96
  -5   3  -2   52.70    7.81
  -4   3  -2    2.69    2.96
  -3   3  -2    5.55    2.35
  -2   3  -2  105.17    5.15
  -1   3  -2   12.29    1.93
   0   3  -2    1.61    1.67
   1   3  -2   49.15    5.19
   2   3  -2    1.83    3.43
   3   3  -2    4.54    5.93
  -6   4  -2    3.35   10.61
  -5   4  -2    2.25    4.19
  -4   4  -2   50.38    5.77
  -3   4  -2    2.98    2.73
  -2   4  -2   -1.51    2.42
  -1   4  -2   38.60    4.61
   0   4  -2    4.58    2.94
   1   4  -2    4.58    3.91
   2   4  -2    3.28    6.23
  -5   5  -2    0.73    4.76
  -4   5  -2    3.26    4.91
  -3   5  -2   26.03    5.14
  -2   5  -2   -0.34    3.41
  -1   5  -2   -0.46    4.28
   0   5  -2   17.25    5.35
  -4   6  -2    7.74    6.83
  -3   6  -2    4.13    5.01
  -2   6  -2   24.70    7.05
   2  -6  -1   -2.60    7.07
   3  -6  -1    7.70    5.69
   4  -6  -1    2.60    5.67
   1  -5  -1    2.38    5.89
   2  -5  -1   -2.08    5.40
   3  -5  -1    0.41    3.80
   4  -5  -1    5.04    4.41
   5  -5  -1    1.51    4.92
  -2  -4  -1    6.98    9.80
  -1  -4  -1   13.93    7.51
   0  -4  -1    6.29    5.48
   1  -4  -1    6.70    3.28
   2  -4  -1   10.71    4.66
   3  -4  -1   11.59    3.79
   4  -4  -1   -1.44    3.14
   5  -4  -1   -0.17    3.48
   6  -4  -1    1.75    5.73
  -3  -3  -1   -2.53    8.12
  -2  -3  -1    4.20    5.94
  -1  -3  -1   16.49    6.07
   0  -3  -1    8.91    4.09
   1  -3  -1    8.46    2.45
   2  -3  -1   15.95    4.49
   3  -3  -1    4.61    2.72
   4  -3  -1    6.14    2.70
   5  -3  -1    1.45    3.27
   6  -3  -1    1.10    5.89
  -4  -2  -1   -1.64    9.64
  -3  -2  -1   12.97    6.99
  -2  -2  -1    4.68    4.11
  -1  -2  -1   12.44    4.56
   0  -2  -1   27.31    4.54
   1  -2  -1   13.96    2.17
   2  -2  -1   16.19    2.79
   3  -2  -1   20.72    3.02
   4  -2  -1    2.33    2.45
   5  -2  -1    9.33    4.80
   6  -2  -1    1.50    9.83
  -4  -1  -1    3.48    7.14
  -3  -1  -1    0.48    5.00
  -2  -1  -1   23.37    3.41
  -1  -1  -1   10.45    2.06
   0  -1  -1   21.35    3.23
   1  -1  -1   54.16    3.27
   2  -1  -1    4.62    1.61
   3  -1  -1   15.40    2.83
   4  -1  -1    9.28    3.08
   5  -1  -1    2.99    4.81
  -4   0  -1    4.60    4.15
  -3   0  -1    4.31    2.75
  -2   0  -1   15.92    1.85
  -1   0  -1   52.13    2.53
   1   0  -1   31.49    2.24
   2   0  -1   34.40    3.15
   3   0  -1    3.54    2.16
   4   0  -1   13.92    4.35
   5   0  -1   10.61    6.48
  -5   1  -1    9.22    8.23
  -4   1  -1    2.73    3.21
  -3   1  -1   15.23    2.49
  -2   1  -1   12.84    1.49
  -1   1  -1   27.30    2.15
   0   1  -1   56.16    2.26
   1   1  -1    4.24    1.56
   2   1  -1   14.18    2.82
   3   1  -1   12.13    3.42
   4   1  -1    7.81    4.97
  -6   2  -1   10.32    9.52
  -5   2  -1    1.23    6.01
  -4   2  -1   -0.18    3.28
  -3   2  -1   12.43    2.70
  -2   2  -1   30.17    3.01
  -1   2  -1    4.06    1.36
   0   2  -1   19.02    1.96
   1   2  -1   20.37    2.89
   2   2  -1    3.52    2.69
   3   2  -1    6.64    4.78
   4   2  -1    8.70    6.60
  -6   3  -1   -2.50   10.08
  -5   3  -1    3.13    5.05
  -4   3  -1    4.98    3.06
  -3   3  -1    5.93    2.60
  -2   3  -1   14.79    2.38
  -1   3  -1   24.29    2.21
   0   3  -1   -0.53    1.52
   1   3  -1    3.22    2.68
   2   3  -1    6.59    4.50
   3   3  -1   -6.03    5.55
  -6   4  -1    2.66   10.90
  -5   4  -1   -3.47    3.84
  -4   4  -1    0.23    3.29
  -3   4  -1    1.92    2.74
  -2   4  -1    4.33    2.56
  -1   4  -1   10.58    2.69
   0   4  -1    6.83    3.25
   1   4  -1    4.27    3.83
   2   4  -1    5.31    6.29
  -5   5  -1   -0.69    4.54
  -4   5  -1    0.26    3.65
  -3   5  -1    4.57    3.73
  -2   5  -1    0.91    3.42
  -1   5  -1    0.17    4.19
   0   5  -1    3.64    4.50
  -4   6  -1    7.68    6.44
  -3   6  -1    4.03    4.81
  -2   6  -1    6.65    6.45
   2  -6   0   -5.75    7.04
   3  -6   0   53.47    9.06
   4  -6   0    1.72    5.47
   1  -5   0  125.57   15.90
   2  -5   0   -3.37    5.04
   3  -5   0    3.64    3.83
   4  -5   0  114.14   11.09
   5  -5   0    0.25    4.58
  -2  -4   0   -3.48    8.80
  -1  -4   0  128.32   16.48
   0  -4   0   -2.32    5.36
   1  -4   0    6.67    3.33
   2  -4   0  275.06   15.59
   3  -4   0    1.68    2.89
   4  -4   0    8.44    3.85
   5  -4   0   91.96    8.32
   6  -4   0   -2.66    5.32
  -3  -3   0   34.55   12.46
  -2  -3   0    6.35    6.41
  -1  -3   0   16.25    5.76
   0  -3   0  396.91   15.78
   1  -3   0   21.11    3.27
   2  -3   0   19.19    4.91
   3  -3   0  399.22   16.69
   4  -3   0    4.40    2.71
   5  -3   0    3.63    3.39
   6  -3   0   39.40    8.57
  -4  -2   0   -2.52    9.06
  -3  -2   0    6.80    6.30
  -2  -2   0  250.70   15.38
  -1  -2   0   10.99    4.38
   0  -2   0   24.27    4.35
   1  -2   0  988.17   10.91
   2  -2   0   25.77    3.28
   3  -2   0   14.72    3.33
   4  -2   0  272.03    9.28
   5  -2   0   -0.99    3.53
   6  -2   0   -2.14    6.04
  -4  -1   0  101.47   15.55
  -3  -1   0    7.79    5.66
  -2  -1   0   16.66    3.17
  -1  -1   0  981.03   10.85
   0  -1   0   46.91    4.03
   1  -1   0   51.92    3.28
   2  -1   0  974.54   11.38
   3  -1   0   16.14    2.75
   4  -1   0    5.21    3.53
   5  -1   0  114.75   11.16
  -4   0   0    3.51    4.22
  -3   0   0  386.79   11.42
  -2   0   0   26.07    2.22
  -1   0   0   50.22    2.01
   1   0   0   51.30    3.09
   2   0   0   23.83    2.81
   3   0   0  411.53    9.72
   4   0   0    4.17    3.80
   5   0   0    0.73    5.23
  -5   1   0   90.53   15.15
  -4   1   0    5.60    3.61
  -3   1   0   13.89    2.36
  -2   1   0  986.84    9.17
  -1   1   0   54.85    2.74
   0   1   0   51.27    2.13
   1   1   0  952.28   11.16
   2   1   0   12.66    2.60
   3   1   0    4.55    3.73
   4   1   0  115.18   11.60
  -6   2   0    0.08   10.16
  -5   2   0   11.71    8.34
  -4   2   0  276.91   10.88
  -3   2   0   11.81    2.63
  -2   2   0   22.05    2.57
  -1   2   0  976.00    9.19
   0   2   0   28.72    2.32
   1   2   0   16.79    2.83
   2   2   0  259.97    9.86
   3   2   0    5.05    4.84
   4   2   0   -4.72    5.92
  -6   3   0   51.22   15.15
  -5   3   0   -2.55    4.34
  -4   3   0    5.85    3.15
  -3   3   0  416.81   11.04
  -2   3   0   20.46    2.57
  -1   3   0   19.45    2.09
   0   3   0  411.57    7.91
   1   3   0    6.91    2.93
   2   3   0    5.50    4.66
   3   3   0   55.53    9.78
  -6   4   0  -10.25    9.54
  -5   4   0  134.42   11.92
  -4   4   0   -1.84    3.18
  -3   4   0    3.04    2.78
  -2   4   0  264.60    9.20
  -1   4   0    7.24    2.53
   0   4   0   -2.59    2.72
   1   4   0  103.39   11.33
   2   4   0    5.68    6.13
  -5   5   0    0.41    4.25
  -4   5   0   97.07    8.18
  -3   5   0    6.48    4.80
  -2   5   0    3.89    3.42
  -1   5   0   94.72   10.71
   0   5   0    6.63    4.60
  -4   6   0   -2.53    5.47
  -3   6   0   62.19    7.54
  -2   6   0   -0.81    5.89
   2  -6   1   -1.70    7.50
   3  -6   1    5.89    5.91
   4  -6   1    9.84    5.92
   0  -5   1   10.21    8.20
   1  -5   1    4.50    5.82
   2  -5   1    2.05    5.92
   3  -5   1    3.46    4.06
   4  -5   1    0.60    4.11
   5  -5   1    0.11    4.89
  -2  -4   1    7.68    9.94
  -1  -4   1    0.07    6.47
   0  -4   1    8.57    6.53
   1  -4   1    5.70    3.27
   2  -4   1    4.18    4.38
   3  -4   1    9.07    3.59
   4  -4   1    3.35    3.55
   5  -4   1    0.89    3.63
   6  -4   1    3.09    6.01
  -3  -3   1   -2.03    7.72
  -2  -3   1    5.11    6.69
  -1  -3   1    4.58    4.78
   0  -3   1   -2.81    2.90
   1  -3   1   24.56    3.59
   2  -3   1   11.90    4.09
   3  -3   1    2.09    2.32
   4  -3   1   15.10    4.02
   5  -3   1    2.64    4.02
   6  -3   1    5.67    5.94
  -4  -2   1   -0.34    9.60
  -3  -2   1   -0.52    6.30
  -2  -2   1    9.81    4.77
  -1  -2   1   14.93    4.68
   0  -2   1   20.31    4.04
   1  -2   1    3.66    1.51
   2  -2   1   26.48    3.37
   3  -2   1    3.51    2.45
   4  -2   1    9.24    2.98
   5  -2   1    1.81    4.15
   6  -2   1    3.40    6.11
  -4  -1   1    7.23    8.05
  -3  -1   1   11.10    6.23
  -2  -1   1   17.53    2.85
  -1  -1   1    0.92    2.62
   0  -1   1   58.06    4.53
   1  -1   1   31.62    2.67
   2  -1   1    8.45    2.21
   3  -1   1   20.83    2.98
   4  -1   1    4.23    3.36
   5  -1   1    4.31    4.86
  -4   0   1    1.19    4.42
  -3   0   1    1.07    2.78
  -2   0   1   30.78    2.41
  -1   0   1   28.08    1.73
   0   0   1    7.71    1.02
   1   0   1   53.07    2.13
   2   0   1   12.21    2.05
   3   0   1    9.02    2.41
   4   0   1    5.78    3.97
   5   0   1    2.46    5.55
  -5   1   1    1.40    7.84
  -4   1   1    6.32    3.90
  -3   1   1   14.49    2.42
  -2   1   1    4.78    1.41
  -1   1   1   58.94    2.97
   0   1   1   24.92    1.31
   1   1   1   13.62    1.99
   2   1   1   15.65    2.61
   3   1   1    7.04    3.86
   4   1   1   12.13    5.46
  -6   2   1   -1.91   10.39
  -5   2   1    5.63    7.37
  -4   2   1    0.68    3.53
  -3   2   1   11.64    2.67
  -2   2   1   11.69    2.25
  -1   2   1   12.44    1.57
   0   2   1   28.14    1.93
   1   2   1    4.30    2.05
   2   2   1    7.51    3.68
   3   2   1   -0.11    4.28
   4   2   1   -4.77    5.75
  -6   3   1   13.12   11.06
  -5   3   1    4.50    5.03
  -4   3   1    5.37    2.96
  -3   3   1    7.28    2.85
  -2   3   1   17.46    2.41
  -1   3   1    8.04    1.71
   0   3   1   11.80    2.16
   1   3   1    8.98    3.20
   2   3   1    3.16    4.30
   3   3   1   11.46    6.48
  -6   4   1    8.86   10.93
  -5   4   1    4.29    5.01
  -4   4   1    3.49    3.50
  -3   4   1    5.61    2.82
  -2   4   1    8.74    2.46
  -1   4   1    8.10    2.66
   0   4   1    5.16    3.06
   1   4   1    1.73    4.45
   2   4   1   -5.31    5.67
  -5   5   1    1.40    4.34
  -4   5   1    0.11    3.69
  -3   5   1    1.11    4.03
  -2   5   1    6.18    3.60
  -1   5   1    9.62    5.32
   0   5   1   -0.26    4.36
  -4   6   1    8.16    6.54
  -3   6   1    4.32    5.46
  -2   6   1    2.49    6.30
   2  -6   2    9.38    8.73
   3  -6   2   11.15    6.44
   4  -6   2    2.41    5.91
   0  -5   2    8.78    7.88
   1  -5   2    2.34    5.45
   2  -5   2    5.43    6.06
   3  -5   2   35.58    6.83
   4  -5   2    1.90    4.29
   5  -5   2    3.66    5.01
  -2  -4   2    6.03   10.50
  -1  -4   2   -4.12    5.97
   0  -4   2    3.70    5.73
   1  -4   2   61.51    6.72
   2  -4   2   -3.36    3.60
   3  -4   2   -0.62    2.86
   4  -4   2   38.01    6.15
   5  -4   2   -2.50    3.59
   6  -4   2   -7.33    5.28
  -3  -3   2   -1.46    8.34
  -2  -3   2    6.88    6.78
  -1  -3   2   53.11    9.75
   0  -3   2    4.13    4.06
   1  -3   2    4.05    2.36
   2  -3   2  108.93   10.44
   3  -3   2    4.30    2.83
   4  -3   2    0.96    3.08
   5  -3   2   21.98    5.84
   6  -3   2    1.44    5.90
  -4  -2   2   -4.46    9.36
  -3  -2   2   29.33    9.13
  -2  -2   2    4.63    4.86
  -1  -2   2    5.16    4.11
   0  -2   2  148.23    8.67
   1  -2   2    3.47    1.52
   2  -2   2   28.62    3.59
   3  -2   2  101.69    7.36
   4  -2   2    2.65    2.56
   5  -2   2    1.86    4.18
   6  -2   2   14.05    6.61
  -4  -1   2   -4.44    6.72
  -3  -1   2    2.99    5.24
  -2  -1   2   99.86    6.27
  -1  -1   2    8.12    3.28
   0  -1   2   57.46    4.82
   1  -1   2  266.18    4.22
   2  -1   2    3.04    1.43
   3  -1   2   16.55    2.73
   4  -1   2   53.72    6.75
   5  -1   2   -0.80    4.33
  -4   0   2   34.84    8.95
  -3   0   2   -1.42    2.57
  -2   0   2   25.02    2.52
  -1   0   2  259.70    4.36
   0   0   2    7.23    1.20
   1   0   2   55.69    2.87
   2   0   2  154.19    4.47
   3   0   2    0.70    2.51
   4   0   2    7.74    4.08
   5   0   2   18.67    6.80
  -5   1   2    7.54    8.02
  -4   1   2    2.15    3.40
  -3   1   2   97.20    5.28
  -2   1   2    1.01    1.28
  -1   1   2   53.30    2.23
   0   1   2  264.09    3.21
   1   1   2    1.57    1.14
   2   1   2   19.24    2.72
   3   1   2   52.12    6.93
   4   1   2   -2.80    3.98
  -6   2   2   15.16   10.73
  -5   2   2   15.04    8.52
  -4   2   2   -0.69    3.22
  -3   2   2    9.38    2.99
  -2   2   2  155.30    5.57
  -1   2   2    1.10    0.89
   0   2   2   29.45    2.00
   1   2   2  103.17    6.01
   2   2   2    2.87    3.16
   3   2   2   10.77    5.40
   4   2   2   13.34    7.20
  -6   3   2    0.32    9.10
  -5   3   2   -4.27    4.69
  -4   3   2   56.36    6.84
  -3   3   2    3.01    2.36
  -2   3   2   10.03    2.18
  -1   3   2  114.73    4.20
   0   3   2    1.17    1.70
   1   3   2    0.18    2.79
   2   3   2   33.64    6.87
   3   3   2    1.04    6.61
  -5   4   2    3.15    4.89
  -4   4   2    9.55    3.59
  -3   4   2   65.45    5.71
  -2   4   2    1.04    2.07
  -1   4   2   12.16    2.66
   0   4   2   41.12    6.05
   1   4   2    0.85    4.37
   2   4   2    5.12    6.52
  -5   5   2   21.45    5.62
  -4   5   2   -0.42    3.68
  -3   5   2    1.66    4.01
  -2   5   2   28.45    4.80
  -1   5   2   -3.54    3.38
   0   5   2    3.32    5.53
  -4   6   2   15.69    7.33
  -3   6   2    0.49    5.55
  -2   6   2    2.00    6.05
   3  -6   3    3.82    5.75
   4  -6   3    4.81    8.95
   0  -5   3   -4.23    6.51
   1  -5   3   -0.32    5.67
   2  -5   3    0.25    5.04
   3  -5   3    5.74    4.64
   4  -5   3    3.10    4.39
   5  -5   3   -0.57    4.71
  -2  -4   3   12.13   10.44
  -1  -4   3    0.90    6.62
   0  -4   3    1.87    5.43
   1  -4   3   29.10    5.17
   2  -4   3   -3.85    3.47
   3  -4   3    2.14    3.00
   4  -4   3   23.42    5.46
   5  -4   3    3.89    4.70
   6  -4   3    1.99    6.21
  -3  -3   3    0.15    8.97
  -2  -3   3    4.11    5.93
  -1  -3   3   37.24    8.55
   0  -3   3   -1.90    3.33
   1  -3   3    2.39    2.07
   2  -3   3   62.10    8.38
   3  -3   3    0.91    2.34
   4  -3   3    2.40    2.91
   5  -3   3   14.18    5.26
   6  -3   3   -4.34    5.21
  -4  -2   3   -4.20    9.09
  -3  -2   3    3.08    6.93
  -2  -2   3   -1.79    4.21
  -1  -2   3    0.76    3.09
   0  -2   3   69.38    7.13
   1  -2   3    1.67    1.51
   2  -2   3    0.72    1.14
   3  -2   3   52.72    5.51
   4  -2   3   -0.52    3.01
   5  -2   3    0.08    4.25
   6  -2   3   13.33    7.30
  -4  -1   3   -1.53    7.78
  -3  -1   3    4.29    5.48
  -2  -1   3   49.59    4.41
  -1  -1   3    4.02    2.75
   0  -1   3    4.20    2.27
   1  -1   3  116.69    3.27
   2  -1   3    4.05    1.55
   3  -1   3   -0.24    1.76
   4  -1   3   23.79    5.06
   5  -1   3    2.79    4.55
  -4   0   3   23.58    8.20
  -3   0   3   -0.21    2.80
  -2   0   3    2.03    1.94
  -1   0   3  114.73    4.23
   0   0   3    6.82    1.02
   1   0   3   -1.47    0.98
   2   0   3   68.96    4.25
   3   0   3    3.23    2.83
   4   0   3    2.20    3.73
   5   0   3    8.13    6.37
  -5   1   3    7.17    8.14
  -4   1   3    5.73    3.99
  -3   1   3   50.50    4.01
  -2   1   3    2.54    1.40
  -1   1   3   -0.12    1.03
   0   1   3  110.38    2.43
   1   1   3    6.13    1.40
   2   1   3    1.54    2.48
   3   1   3   14.72    4.56
   4   1   3   -2.33    4.33
  -6   2   3   -5.81    8.61
  -5   2   3   19.10    9.28
  -4   2   3   -1.67    3.62
  -3   2   3    1.42    2.34
  -2   2   3   69.71    2.94
  -1   2   3    7.21    1.18
   0   2   3    2.13    1.02
   1   2   3   46.31    4.31
   2   2   3    6.38    3.70
   3   2   3   -3.43    4.05
   4   2   3   10.63    7.11
  -6   3   3    0.64    8.36
  -5   3   3    7.42    5.52
  -4   3   3   15.18    4.71
  -3   3   3    5.75    2.46
  -2   3   3   -0.71    1.56
  -1   3   3   45.29    3.10
   0   3   3    4.02    2.02
   1   3   3   -0.56    3.21
   2   3   3   12.75    5.72
   3   3   3    0.43    6.34
  -6   4   3    6.47   12.27
  -5   4   3   -2.69    4.89
  -4   4   3   -2.05    3.03
  -3   4   3   14.57    3.41
  -2   4   3    3.88    2.27
  -1   4   3   -1.16    1.98
   0   4   3    7.39    3.32
   1   4   3    1.23    4.41
   2   4   3    4.69    9.92
  -5   5   3    0.95    4.80
  -4   5   3    0.83    3.88
  -3   5   3    2.21    4.28
  -2   5   3    8.76    3.96
  -1   5   3   -4.51    3.31
   0   5   3    0.62    5.35
  -4   6   3    4.52    9.19
  -3   6   3    9.89    6.65
  -2   6   3    7.72    7.24
   3  -6   4   -6.38    5.58
   4  -6   4   -6.22    8.36
   0  -5   4   36.37   11.22
   1  -5   4    8.05    7.15
   2  -5   4    5.11    6.37
   3  -5   4   52.03    7.94
   4  -5   4   10.47    4.97
   5  -5   4   13.17    5.96
  -1  -4   4   -5.12    7.02
   0  -4   4    7.62    3.86
   1  -4   4  100.49    8.46
   2  -4   4   15.76    5.75
   3  -4   4    3.46    3.37
   4  -4   4   70.15    8.12
   5  -4   4    6.53    5.00
   6  -4   4   -3.78    8.84
  -3  -3   4    0.03    9.53
  -2  -3   4   -0.78    6.67
  -1  -3   4  117.53   13.54
   0  -3   4   30.92    6.57
   1  -3   4   34.45    4.23
   2  -3   4  215.50   12.32
   3  -3   4   13.44    3.51
   4  -3   4   14.32    4.23
   5  -3   4   33.94    6.77
   6  -3   4    2.05    5.55
  -3  -2   4   71.92   13.50
  -2  -2   4   22.68    6.98
  -1  -2   4   36.35    6.74
   0  -2   4  326.14   12.44
   1  -2   4   49.39    3.91
   2  -2   4   46.62    3.15
   3  -2   4  220.11    8.90
   4  -2   4    5.47    3.79
   5  -2   4    1.81    4.66
   6  -2   4   28.20   12.69
  -4  -1   4    2.41    7.42
  -3  -1   4   -1.87    4.95
  -2  -1   4  186.72   14.44
  -1  -1   4   49.37    3.53
   0  -1   4   66.74    3.52
   1  -1   4  548.45    6.78
   2  -1   4   56.63    3.61
   3  -1   4   20.50    3.40
   4  -1   4  113.83    9.42
   5  -1   4    7.49    5.02
  -4   0   4   94.28   12.77
  -3   0   4   14.15    3.62
  -2   0   4   38.74    3.79
  -1   0   4  555.68    9.00
   0   0   4   97.10    2.75
   1   0   4   77.18    3.19
   2   0   4  316.89    7.33
   3   0   4   29.36    4.82
   4   0   4    6.51    4.07
   5   0   4   33.84    8.25
  -5   1   4   -1.92    6.98
  -4   1   4    6.58    4.02
  -3   1   4  218.44    6.56
  -2   1   4   55.63    3.48
  -1   1   4   75.90    3.63
   0   1   4  557.24    5.03
   1   1   4   58.16    2.76
   2   1   4   34.62    4.78
   3   1   4   93.62    8.90
   4   1   4    5.70    5.32
  -6   2   4    3.11   10.35
  -5   2   4   59.50   11.82
  -4   2   4   17.40    4.59
  -3   2   4   24.44    4.10
  -2   2   4  321.80    5.75
  -1   2   4   49.52    2.50
   0   2   4   45.26    2.47
   1   2   4  219.55    7.44
   2   2   4   11.00    4.10
   3   2   4    5.93    4.86
   4   2   4    7.66   10.66
  -6   3   4    7.74    9.54
  -5   3   4    1.10    4.93
  -4   3   4  113.73    9.52
  -3   3   4   14.92    3.23
  -2   3   4   26.34    3.43
  -1   3   4  216.07    4.67
   0   3   4   23.01    2.71
   1   3   4   14.78    4.43
   2   3   4   51.11    8.68
   3   3   4   -0.39    6.93
  -6   4   4   16.13   12.90
  -5   4   4   14.69    6.69
  -4   4   4    6.90    3.81
  -3   4   4   99.01    7.35
  -2   4   4   10.21    2.66
  -1   4   4   12.26    2.88
   0   4   4   82.58    7.11
   1   4   4    5.71    5.20
   2   4   4    8.48    9.68
  -5   5   4   52.50    8.91
  -4   5   4   -2.72    3.86
  -3   5   4    6.06    4.82
  -2   5   4   49.98    6.26
  -1   5   4    5.35    4.15
   0   5   4    4.12    5.52
  -3   6   4    0.74    6.85
  -2   6   4   -4.74    8.88
   3  -6   5    5.71    8.21
   0  -5   5   -7.37    7.10
   1  -5   5    4.19    6.90
   2  -5   5   -2.55    5.51
   3  -5   5    4.69    4.33
   4  -5   5    7.42    5.04
   5  -5   5   -5.19    4.68
  -1  -4   5   17.99    9.63
   0  -4   5    8.56    4.07
   1  -4   5   -3.91    2.92
   2  -4   5   33.29    7.79
   3  -4   5    4.74    3.49
   4  -4   5   -1.37    3.31
   5  -4   5   -3.45    4.57
  -2  -3   5   -4.31    6.20
  -1  -3   5    0.69    4.88
   0  -3   5   36.23    7.46
   1  -3   5   13.97    3.22
   2  -3   5    1.56    3.14
   3  -3   5   33.21    4.85
   4  -3   5   10.26    4.08
   5  -3   5    1.44    4.41
   6  -3   5   20.62    9.10
  -3  -2   5   -1.99    6.22
  -2  -2   5   28.67    7.81
  -1  -2   5    7.26    4.24
   0  -2   5    7.73    2.33
   1  -2   5  109.79    5.90
   2  -2   5   12.19    1.99
   3  -2   5    1.59    2.29
   4  -2   5   17.57    4.80
   5  -2   5    0.61    4.74
  -4  -1   5   14.63    8.77
  -3  -1   5    1.09    5.49
  -2  -1   5    6.42    4.05
  -1  -1   5   97.01    4.54
   0  -1   5    8.32    1.72
   1  -1   5    1.89    1.19
   2  -1   5   98.89    4.31
   3  -1   5    6.79    2.42
   4  -1   5   -0.02    3.26
   5  -1   5    7.16    5.48
  -4   0   5   -0.10    5.79
  -3   0   5   42.05    5.30
  -2   0   5    7.82    2.52
  -1   0   5    3.05    1.81
   0   0   5  167.51    3.57
   1   0   5   12.77    1.64
   2   0   5    0.86    1.47
   3   0   5   33.64    5.01
   4   0   5    5.88    4.61
   5   0   5    5.08    7.88
  -4   1   5   -1.72    3.31
  -3   1   5    1.21    1.95
  -2   1   5   95.98    4.82
  -1   1   5   11.36    1.90
   0   1   5    0.90    0.90
   1   1   5   92.87    3.35
   2   1   5    7.99    2.46
   3   1   5    3.67    3.47
   4   1   5    8.74    6.00
  -6   2   5    5.29   10.34
  -5   2   5    7.24    7.15
  -4   2   5   18.19    4.82
  -3   2   5   15.04    3.80
  -2   2   5    3.21    1.45
  -1   2   5   94.27    3.52
   0   2   5    9.56    1.44
   1   2   5    2.27    1.74
   2   2   5   21.06    4.94
   3   2   5    2.13    4.62
  -6   3   5   12.71   10.35
  -5   3   5    2.62    5.12
  -4   3   5    0.17    3.85
  -3   3   5   41.68    4.73
  -2   3   5    8.93    2.19
  -1   3   5    0.45    1.27
   0   3   5   41.31    3.51
   1   3   5   -0.23    3.60
   2   3   5    0.07    4.85
   3   3   5   -2.69   10.19
  -6   4   5  -13.27   11.01
  -5   4   5    7.95    5.64
  -4   4   5    6.52    4.58
  -3   4   5   -5.32    2.65
  -2   4   5   31.16    3.86
  -1   4   5    4.41    2.51
   0   4   5   -3.78    3.34
   1   4   5    6.91    5.50
   2   4   5   10.36   10.99
  -5   5   5    3.02    6.30
  -4   5   5    7.30    4.62
  -3   5   5    4.72    5.12
  -2   5   5   -1.37    3.54
  -1   5   5   12.34    4.73
   0   5   5    8.06    5.88
  -3   6   5    3.53    7.01
  -2   6   5    1.83    9.92
   0  -5   6   -0.05    7.36
   1  -5   6    5.28    6.67
   2  -5   6   38.01   10.16
   3  -5   6   15.33    5.65
   4  -5   6   10.72    5.27
   5  -5   6   14.71    6.28
  -1  -4   6    6.08    8.30
   0  -4   6   67.39    8.29
   1  -4   6   22.35    4.97
   2  -4   6   27.14    7.71
   3  -4   6   95.62    8.81
   4  -4   6    4.74    3.87
   5  -4   6   13.28    5.99
  -2  -3   6   30.99    9.84
  -1  -3   6   22.90    7.63
   0  -3   6   32.68    4.91
   1  -3   6  183.31    7.70
   2  -3   6   51.26    8.06
   3  -3   6   28.57    4.73
   4  -3   6   94.64    8.93
   5  -3   6    8.28    5.44
  -3  -2   6   12.01    8.19
  -2  -2   6   10.43    5.88
  -1  -2   6  185.23   14.72
   0  -2   6   59.14    5.03
   1  -2   6   67.73    5.03
   2  -2   6  288.18    6.54
   3  -2   6   60.99    6.09
   4  -2   6   18.40    4.51
   5  -2   6   44.97   10.90
  -4  -1   6    4.89    8.49
  -3  -1   6   69.55   11.97
  -2  -1   6   20.53    5.83
  -1  -1   6   63.25    4.53
   0  -1   6  416.04    8.06
   1  -1   6  103.15    3.53
   2  -1   6   70.14    4.08
   3  -1   6  167.51    7.84
   4  -1   6   16.04    4.34
   5  -1   6   14.81    9.10
  -4   0   6    9.01    6.93
  -3   0   6   26.15    4.50
  -2   0   6  280.14    8.70
  -1   0   6  105.45    6.01
   0   0   6  114.22    3.25
   1   0   6  434.26    5.77
   2   0   6   64.19    4.33
   3   0   6   43.48    4.59
   4   0   6   59.32    8.19
   5   0   6    3.56    8.70
  -4   1   6   87.96    8.02
  -3   1   6   47.99    4.21
  -2   1   6   72.34    4.41
  -1   1   6  416.41    7.66
   0   1   6  107.79    3.45
   1   1   6   69.20    4.39
   2   1   6  182.06    7.86
   3   1   6   15.11    4.41
   4   1   6    9.68    8.88
  -5   2   6   -4.41    6.84
  -4   2   6   26.03    5.51
  -3   2   6  175.29    9.92
  -2   2   6   61.20    4.17
  -1   2   6   76.79    3.33
   0   2   6  270.56    4.94
   1   2   6   43.70    4.57
   2   2   6   28.33    5.59
   3   2   6   59.22    8.92
  -5   3   6   52.41    8.68
  -4   3   6   15.71    5.30
  -3   3   6   33.80    5.59
  -2   3   6  179.72    6.24
  -1   3   6   46.72    3.06
   0   3   6   32.01    3.40
   1   3   6   93.64    9.33
   2   3   6    4.46    5.39
  -5   4   6    8.26    6.13
  -4   4   6   66.15    8.66
  -3   4   6   15.74    3.86
  -2   4   6   26.39    3.87
  -1   4   6   82.68    5.58
   0   4   6    2.51    4.39
   1   4   6    7.22    5.39
  -5   5   6    6.71    6.97
  -4   5   6    6.51    4.77
  -3   5   6   39.48    7.58
  -2   5   6   12.88    4.60
  -1   5   6    9.92    5.11
   0   5   6   23.45    7.38
  -3   6   6    1.61    9.64
   0  -5   7   -6.38    6.81
   1  -5   7    4.05    7.08
   2  -5   7   -8.04    6.22
   3  -5   7   11.81    5.34
   4  -5   7   -1.01    4.73
  -1  -4   7   -1.51    4.91
   0  -4   7    5.22    4.47
   1  -4   7    3.86    3.47
   2  -4   7    8.41    5.17
   3  -4   7    6.13    3.60
   4  -4   7    5.76    4.14
   5  -4   7   -3.07    5.75
  -2  -3   7    3.60    6.93
  -1  -3   7    1.98    5.26
   0  -3   7    7.73    3.27
   1  -3   7    8.41    3.05
   2  -3   7   17.45    3.40
   3  -3   7    5.23    2.92
   4  -3   7    6.98    3.92
   5  -3   7    0.06    6.85
  -3  -2   7   12.14    8.69
  -2  -2   7    0.86    4.45
  -1  -2   7   10.80    5.15
   0  -2   7    7.75    2.42
   1  -2   7    2.71    1.86
   2  -2   7   23.05    2.77
   3  -2   7   10.06    3.38
   4  -2   7    4.31    3.53
   5  -2   7    3.65    6.53
  -4  -1   7   -2.70    8.23
  -3  -1   7    2.16    5.61
  -2  -1   7    3.43    3.74
  -1  -1   7    3.89    2.16
   0  -1   7   35.15    3.30
   1  -1   7   13.55    1.71
   2  -1   7   -0.17    1.47
   3  -1   7   21.45    3.17
   4  -1   7    0.03    4.83
   5  -1   7   -0.11    7.45
  -4   0   7    8.98    7.01
  -3   0   7    6.39    3.28
  -2   0   7   20.35    3.54
  -1   0   7   15.71    2.95
   0   0   7    4.94    1.23
   1   0   7   37.75    3.92
   2   0   7    6.64    2.12
   3   0   7    2.96    2.59
   4   0   7    3.67    7.20
   5   0   7   -3.38    7.79
  -4   1   7    4.90    5.94
  -3   1   7    5.20    2.53
  -2   1   7    2.73    1.87
  -1   1   7   48.07    4.57
   0   1   7   15.38    1.76
   1   1   7    4.26    1.78
   2   1   7   23.75    3.57
   3   1   7    3.69    5.64
   4   1   7    1.26    8.12
  -5   2   7   -2.04    7.20
  -4   2   7    3.26    4.29
  -3   2   7   15.27    3.21
  -2   2   7    5.50    2.23
  -1   2   7    0.81    1.32
   0   2   7   31.91    2.61
   1   2   7    9.11    2.90
   2   2   7    1.29    3.79
   3   2   7   -4.62    6.87
  -5   3   7    6.28    5.97
  -4   3   7    4.77    4.19
  -3   3   7    3.49    3.55
  -2   3   7   20.85    2.81
  -1   3   7    7.88    1.87
   0   3   7    2.48    2.20
   1   3   7   14.71    4.68
   2   3   7    9.02    8.02
  -5   4   7    5.90    5.86
  -4   4   7    3.53    4.96
  -3   4   7    5.57    3.33
  -2   4   7    0.24    2.87
  -1   4   7    8.70    2.99
   0   4   7    2.34    4.18
   1   4   7    6.51    5.90
  -5   5   7   -3.27    8.97
  -4   5   7    1.31    5.53
  -3   5   7    8.63    4.21
  -2   5   7   -0.66    3.95
  -1   5   7    4.59    5.65
   0   5   7    1.94    6.60
   0  -5   8    2.01    8.45
   1  -5   8   46.18   12.24
   2  -5   8   -3.22    6.37
   3  -5   8    5.15    4.91
   4  -5   8   21.81    9.55
  -1  -4   8   20.04    6.86
   0  -4   8    3.10    4.30
   1  -4   8    4.94    3.89
   2  -4   8   18.55    6.72
   3  -4   8    1.53    3.63
   4  -4   8   10.34    6.00
   5  -4   8    1.94    7.75
  -2  -3   8    4.64    7.45
  -1  -3   8    8.34    6.00
   0  -3   8   43.99    5.83
   1  -3   8   -0.23    2.46
   2  -3   8    2.45    2.60
   3  -3   8   38.79    5.40
   4  -3   8   -1.12    5.21
   5  -3   8   10.00    8.09
  -3  -2   8   -2.76    7.41
  -2  -2   8   24.94    7.93
  -1  -2   8    1.59    3.91
   0  -2   8    6.01    2.26
   1  -2   8   79.38    5.78
   2  -2   8    6.81    2.03
   3  -2   8   -0.53    3.96
   4  -2   8   54.95   11.04
   5  -2   8    9.31    7.32
  -4  -1   8    7.92    9.32
  -3  -1   8   -3.54    4.89
  -2  -1   8   -0.88    4.08
  -1  -1   8   92.06    4.18
   0  -1   8   14.65    2.38
   1  -1   8   12.80    1.68
   2  -1   8   93.15    4.40
   3  -1   8    6.86    3.33
   4  -1   8    7.04    6.76
   5  -1   8    5.72    9.16
  -4   0   8    0.71    6.43
  -3   0   8   52.83    6.11
  -2   0   8    7.15    2.85
  -1   0   8   15.09    2.95
   0   0   8  121.26    4.03
   1   0   8    5.62    2.20
   2   0   8    9.91    3.28
   3   0   8   64.01    7.53
   4   0   8    2.93    7.20
  -4   1   8    5.95    6.63
  -3   1   8    6.23    3.39
  -2   1   8   97.72    6.77
  -1   1   8    8.01    2.73
   0   1   8    9.43    2.02
   1   1   8   80.46    4.84
   2   1   8    2.84    3.25
   3   1   8    7.63    6.02
   4   1   8   15.62    9.48
  -5   2   8    3.57    8.05
  -4   2   8   43.96    6.89
  -3   2   8    1.61    2.51
  -2   2   8    4.07    2.19
  -1   2   8   95.32    4.46
   0   2   8    7.31    2.00
   1   2   8    4.77    2.57
   2   2   8   27.99    5.83
   3   2   8  -15.39    5.44
  -5   3   8    4.54    6.15
  -4   3   8    0.33    4.27
  -3   3   8   35.98    5.84
  -2   3   8    2.20    2.70
  -1   3   8    3.58    1.68
   0   3   8   43.38    4.79
   1   3   8   10.88    6.92
   2   3   8    6.66    9.10
  -5   4   8   22.64    7.91
  -4   4   8    1.65    4.96
  -3   4   8    0.97    3.62
  -2   4   8   29.11    4.47
  -1   4   8    1.19    2.43
   0   4   8   -2.24    4.51
   1   4   8   11.87    8.72
  -4   5   8    7.65    6.21
  -3   5   8   -2.38    3.80
  -2   5   8    0.42    5.41
  -1   5   8    8.94    6.31
   0   5   8    0.95    8.24
   1  -5   9   -1.53    7.37
   2  -5   9    9.20    8.04
   3  -5   9    3.64    6.93
   4  -5   9    9.03    7.90
  -1  -4   9    1.42    8.54
   0  -4   9    1.59    4.55
   1  -4   9   19.46    5.21
   2  -4   9   16.97    6.80
   3  -4   9    5.76    5.20
   4  -4   9   11.29    6.84
   5  -4   9    0.12    7.77
  -2  -3   9    9.98    8.86
  -1  -3   9   18.19    7.48
   0  -3   9    6.12    3.54
   1  -3   9    1.54    2.72
   2  -3   9   31.84    4.76
   3  -3   9   13.36    6.01
   4  -3   9   10.84    6.66
   5  -3   9   13.85    8.55
  -3  -2   9   22.67   10.10
  -2  -2   9   -0.32    5.57
  -1  -2   9   -0.03    4.35
   0  -2   9   42.67    4.56
   1  -2   9   12.99    2.98
   2  -2   9    1.34    2.32
   3  -2   9   38.33    8.30
   4  -2   9    5.77    5.53
   5  -2   9   -3.99    6.54
  -4  -1   9    7.24    9.34
  -3  -1   9    0.64    5.43
  -2  -1   9   42.38    8.11
  -1  -1   9   15.39    3.26
   0  -1   9    2.87    1.80
   1  -1   9   53.69    4.80
   2  -1   9   14.69    3.47
   3  -1   9    1.48    3.08
   4  -1   9   20.04    7.62
   5  -1   9   -7.97    8.56
  -4   0   9   10.78    7.44
  -3   0   9    7.54    3.86
  -2   0   9    1.41    2.73
  -1   0   9   59.72    5.43
   0   0   9   21.70    2.46
   1   0   9    1.75    2.10
   2   0   9   30.45    4.77
   3   0   9    6.65    4.58
   4   0   9  -14.15    5.99
  -4   1   9    3.02    6.61
  -3   1   9   27.18    4.65
  -2   1   9   17.62    3.89
  -1   1   9   -2.25    2.12
   0   1   9   59.22    4.08
   1   1   9   19.34    3.63
   2   1   9   -0.66    3.36
   3   1   9   18.02    5.42
   4   1   9   -6.36    7.87
  -5   2   9   24.40   10.91
  -4   2   9    4.66    4.53
  -3   2   9   -1.06    2.55
  -2   2   9   46.59    4.55
  -1   2   9   13.19    2.10
   0   2   9    0.12    1.88
   1   2   9   23.64    5.27
   2   2   9    3.92    4.16
   3   2   9   -6.97    6.86
  -5   3   9   -0.26    5.93
  -4   3   9   15.67    5.74
  -3   3   9   10.43    4.57
  -2   3   9    3.79    2.57
  -1   3   9   30.23    2.78
   0   3   9    5.89    3.84
   1   3   9   -0.10    3.99
   2   3   9   19.63    9.29
  -5   4   9    1.42    6.49
  -4   4   9   -2.28    4.81
  -3   4   9   13.47    5.58
  -2   4   9    6.29    3.45
  -1   4   9    2.78    2.79
   0   4   9    7.47    6.47
   1   4   9   19.73    9.55
  -4   5   9    1.17    5.86
  -3   5   9    7.38    5.46
  -2   5   9   -0.66    7.37
   1  -5  10    2.19    8.29
   2  -5  10    8.38    7.71
   3  -5  10   20.55    9.42
   4  -5  10    2.97    8.18
  -1  -4  10   13.24   10.54
   0  -4  10   19.79    8.50
   1  -4  10   35.71    6.53
   2  -4  10   33.80    8.94
   3  -4  10   22.31    7.78
   4  -4  10   40.80   10.24
   5  -4  10   27.43   10.45
  -2  -3  10    3.42    8.75
  -1  -3  10   34.88    9.03
   0  -3  10   43.62    5.99
   1  -3  10   26.13    4.35
   2  -3  10  100.50    7.85
   3  -3  10   45.44    9.52
   4  -3  10   12.58    7.54
   5  -3  10   27.41   10.44
  -3  -2  10   29.89   10.48
  -2  -2  10   21.43    8.03
  -1  -2  10   25.38    7.72
   0  -2  10  102.00    7.10
   1  -2  10   84.91    6.50
   2  -2  10   47.48    5.25
   3  -2  10   86.83   11.80
   4  -2  10   37.66   10.03
   5  -2  10   15.59    9.78
  -4  -1  10   -5.60    9.17
  -3  -1  10   -0.56    6.19
  -2  -1  10   66.33   10.73
  -1  -1  10   81.76    6.78
   0  -1  10   67.82    4.95
   1  -1  10  165.82    7.64
   2  -1  10   74.37    6.58
   3  -1  10   32.54    5.41
   5  -1  10    2.84    9.83
  -4   0  10   13.35    8.01
  -3   0  10   43.45    9.09
  -2   0  10   45.82    5.28
  -1   0  10  180.83    8.85
   0   0  10  122.24   11.74
   1   0  10   75.77    5.86
   2   0  10  109.10    8.42
   3   0  10   30.47    6.09
   4   0  10    9.68    8.01
  -4   1  10    5.48    7.19
  -3   1  10   92.85    7.71
  -2   1  10   74.13    6.82
  -1   1  10   67.40    6.41
   0   1  10  179.18    7.16
   1   1  10   83.50    7.07
   2   1  10   22.39    5.13
   3   1  10   38.53    7.03
   4   1  10   16.42   11.38
  -5   2  10    7.03    9.68
  -4   2  10   37.48    9.86
  -3   2  10   31.88    4.48
  -2   2  10  109.60    6.73
  -1   2  10   82.42    7.20
   0   2  10   46.67    5.48
   1   2  10  116.72    9.74
   2   2  10   15.81    5.40
   3   2  10    5.61    8.62
  -5   3  10    4.52    6.66
  -4   3  10   35.08    7.21
  -3   3  10   36.27    6.29
  -2   3  10   33.86    4.95
  -1   3  10   78.38    6.09
   0   3  10   38.20    6.07
   1   3  10   16.34    5.89
   2   3  10   22.88   10.77
  -5   4  10   16.30    7.93
  -4   4  10    2.57    5.52
  -3   4  10   43.59    6.99
  -2   4  10   31.30    5.72
  -1   4  10   10.55    4.91
   0   4  10   32.13    9.67
   1   4  10   -4.49    8.75
  -4   5  10   -1.40    6.38
  -3   5  10    7.21    6.17
  -2   5  10   28.20    9.76
   2  -5  11   10.62    9.28
   3  -5  11    5.86    8.67
   0  -4  11   17.30    8.92
   1  -4  11   -3.43    5.60
   2  -4  11   -1.05    5.64
   3  -4  11   22.89    8.45
   4  -4  11   -3.61    6.45
  -2  -3  11    0.87    8.84
  -1  -3  11   -6.17    5.75
   0  -3  11   -1.06    4.64
   1  -3  11   44.22    5.58
   2  -3  11   -0.36    3.06
   3  -3  11   -0.92    4.71
   4  -3  11    8.37    7.21
   5  -3  11    6.11    8.13
  -3  -2  11    2.47    8.82
  -2  -2  11    2.70    5.58
  -1  -2  11   48.79    9.26
   0  -2  11   -1.65    3.61
   1  -2  11   -0.65    2.21
   2  -2  11   49.53    5.70
   3  -2  11    2.72    4.76
   4  -2  11    0.77    6.62
   5  -2  11   12.23    9.33
  -3  -1  11   24.59    8.60
  -2  -1  11    1.33    4.60
  -1  -1  11   -1.06    3.78
   0  -1  11   98.11   10.89
   1  -1  11    0.47    2.18
   2  -1  11   -2.49    2.27
   3  -1  11   44.24    6.39
   4  -1  11   -3.22    5.94
  -4   0  11   -0.30    7.31
  -3   0  11    5.18    6.03
  -2   0  11   51.33    5.87
  -1   0  11    0.26    2.79
   0   0  11    1.62    4.18
   1   0  11   75.23    6.33
   2   0  11    1.55    3.04
   3   0  11    1.18    4.12
   4   0  11    5.02    5.73
  -4   1  11   19.62    8.57
  -3   1  11    6.04    3.80
  -2   1  11    2.17    3.19
  -1   1  11   97.05    8.00
   0   1  11    1.55    4.11
   1   1  11    2.55    2.66
   2   1  11   39.33    6.53
   3   1  11   -0.64    4.47
  -5   2  11  -10.08    8.96
  -4   2  11    1.01    5.88
  -3   2  11   50.43    6.62
  -2   2  11    1.49    3.04
  -1   2  11   -1.36    2.98
   0   2  11   42.98    8.79
   1   2  11    3.41    3.84
   2   2  11    0.50    4.82
   3   2  11   -2.11    9.26
  -5   3  11    2.90    9.68
  -4   3  11   -0.03    4.96
  -3   3  11   -2.20    3.94
  -2   3  11   33.35    4.82
  -1   3  11    3.04    3.90
   0   3  11    5.47    6.26
   1   3  11   16.16    5.79
   2   3  11   -0.74   10.27
  -4   4  11   31.82    7.93
  -3   4  11    3.05    4.61
  -2   4  11    3.04    4.57
  -1   4  11    9.15    4.86
   0   4  11    7.80    8.31
   1   4  11    3.22   10.02
  -3   5  11   13.52    6.55
   3  -5  12   15.89    9.46
   0  -4  12   12.32   10.01
   2  -4  12   11.61    6.95
   3  -4  12   51.09   11.29
   4  -4  12   -4.21    7.66
  -1  -3  12   25.57    9.25
   0  -3  12   -7.27    4.79
   1  -3  12   29.33    7.41
   2  -3  12   24.67    5.01
   3  -3  12   -5.74    4.91
   4  -3  12   53.16   11.94
  -2  -2  12    3.79    6.44
  -1  -2  12   33.33    8.15
   0  -2  12   24.55    6.37
   1  -2  12    7.12    5.46
   2  -2  12   64.87    6.62
   3  -2  12   25.21    7.88
   4  -2  12    0.88    6.87
  -3  -1  12   30.62   10.23
  -2  -1  12   27.22    8.38
  -1  -1  12    5.19    4.91
   0  -1  12  106.89   11.74
   1  -1  12   34.01    7.31
   2  -1  12    5.08    3.25
   3  -1  12   52.00    7.20
   4  -1  12   30.45   10.59
  -4   0  12   16.71    9.70
  -3   0  12   -0.54    5.47
  -2   0  12   49.38    6.13
  -1   0  12   48.53    6.15
   0   0  12   16.57    6.20
   1   0  12  104.03   12.07
   2   0  12   33.17    5.39
   3   0  12   12.23    5.43
   4   0  12   26.31    7.61
  -4   1  12   24.92   10.25
  -3   1  12   29.18    5.44
  -2   1  12    7.25    3.86
  -1   1  12   87.74    7.99
   0   1  12   44.38    8.86
   1   1  12    7.94    3.51
   2   1  12   45.47    7.07
   3   1  12   16.35    6.17
  -5   2  12   11.63   10.41
  -4   2  12    2.61    7.30
  -3   2  12   51.36    7.20
  -2   2  12   27.45    5.31
  -1   2  12    9.06    4.31
   0   2  12   74.21   11.54
   1   2  12   14.76    4.90
   2   2  12    4.78    5.52
   3   2  12   15.08   11.29
  -4   3  12    7.94    6.27
  -3   3  12   10.21    4.98
  -2   3  12   56.05    7.40
  -1   3  12   27.62    5.85
   0   3  12    5.25    6.47
   1   3  12   23.47    9.53
   2   3  12    6.04   10.99
  -4   4  12   15.49    7.32
  -3   4  12   12.17    5.74
  -2   4  12    4.39    4.81
  -1   4  12   23.67    9.59
   0   4  12   16.45    9.22
  -3   5  12   12.61    6.87
   0  -4  13    3.73    8.45
   3  -4  13    0.80    7.19
   4  -4  13    3.30    8.52
  -1  -3  13    3.44    8.33
   0  -3  13   -2.30    4.86
   1  -3  13    6.87    6.26
   2  -3  13    5.93    5.60
   3  -3  13   -3.54    5.56
   4  -3  13   12.61    9.13
  -2  -2  13    4.41    7.07
  -1  -2  13   13.79    7.01
   0  -2  13    6.28    4.87
   1  -2  13    0.93    4.30
   2  -2  13    4.12    3.41
   3  -2  13    6.87    5.90
   4  -2  13    6.16    7.70
  -3  -1  13   -3.79    7.26
  -2  -1  13    9.71    6.83
  -1  -1  13    6.86    4.98
   0  -1  13    7.95    5.09
   1  -1  13    5.79    5.20
   2  -1  13    1.78    2.90
   3  -1  13    9.26    4.75
   4  -1  13    5.18    8.35
  -4   0  13   -1.26    7.90
  -3   0  13    6.46    6.27
  -2   0  13    8.00    4.30
  -1   0  13    4.49    3.50
   0   0  13    1.78    4.32
   1   0  13   26.21    7.86
   2   0  13   14.43    4.45
   3   0  13    2.45    5.01
   4   0  13    6.61    6.73
  -3   1  13   10.50    4.61
  -2   1  13    4.66    3.63
  -1   1  13   11.51    4.16
   0   1  13   13.46    6.55
   1   1  13   -1.58    4.73
   2   1  13    7.74    4.70
   3   1  13    9.67    6.21
  -4   2  13    7.76    8.83
  -3   2  13   11.19    4.88
  -2   2  13    5.36    4.07
  -1   2  13    2.25    3.83
   0   2  13   12.59    6.63
   1   2  13   10.88    7.76
   2   2  13   -1.00    5.53
  -4   3  13   -0.96    8.58
  -3   3  13  -10.65    5.25
  -2   3  13    9.12    4.79
  -1   3  13    1.39    4.48
   0   3  13   10.02    7.88
   1   3  13    7.68    9.62
  -4   4  13   10.86    7.47
  -3   4  13    9.33    6.04
  -2   4  13    2.52    6.96
   0   4  13   -1.16    9.07
   0  -4  14   10.16    8.63
   4  -4  14    2.15    8.80
  -1  -3  14    8.16    8.19
   0  -3  14    2.08    5.88
   1  -3  14   35.44    9.00
   3  -3  14    1.67    6.95
   4  -3  14   42.63   12.00
  -2  -2  14   -1.52    6.92
  -1  -2  14   19.81    7.41
   0  -2  14    5.59    5.16
   1  -2  14    1.94    5.39
   2  -2  14   56.86   10.32
   3  -2  14   -0.61    5.46
   4  -2  14    3.68    7.83
  -3  -1  14   24.00   10.17
  -2  -1  14   -3.51    5.50
  -1  -1  14   -1.76    4.61
   0  -1  14   72.89   11.36
   1  -1  14   -3.82    4.34
   2  -1  14   -2.02    4.94
   3  -1  14   40.39    6.94
   4  -1  14    3.15    8.94
  -4   0  14   -1.55    8.27
  -3   0  14   -1.52    6.20
  -2   0  14   36.79    6.35
  -1   0  14    1.26    3.32
   0   0  14    0.33    4.23
   1   0  14   95.62   13.20
   2   0  14    3.12    5.60
   3   0  14    8.39    5.58
   4   0  14    3.30    7.30
  -3   1  14   -6.51    4.32
  -2   1  14    2.98    4.30
  -1   1  14   67.59    7.82
   0   1  14    2.82    5.35
   1   1  14    2.43    5.87
   2   1  14   29.06   10.10
   3   1  14   -0.45    5.96
  -4   2  14    4.67    8.80
  -3   2  14   35.83   10.37
  -2   2  14    6.21    4.43
  -1   2  14    2.19    4.01
   0   2  14   59.88   11.70
   1   2  14  -10.28    5.87
   2   2  14   -1.79    9.02
  -4   3  14    1.97    8.66
  -3   3  14    3.18    7.91
  -2   3  14   35.97    6.99
  -1   3  14    1.48    4.34
   0   3  14    4.68    8.06
   1   3  14   13.59   10.69
  -3   4  14    3.01    7.94
  -2   4  14    2.31    7.95
   0   4  14   -2.14   10.16
   0  -3  15   48.13   11.02
   1  -3  15    5.48    7.49
   4  -3  15   -0.07    8.98
  -2  -2  15   19.81    9.28
  -1  -2  15   -3.08    5.67
   0  -2  15    0.12    5.81
   1  -2  15   50.27   10.22
   2  -2  15    4.17    5.90
   4  -2  15   46.37   13.13
  -3  -1  15    8.86    7.93
  -2  -1  15    0.55    6.41
  -1  -1  15   33.53    9.05
   0  -1  15    9.04    6.61
   1  -1  15    4.45    5.13
   2  -1  15   41.99    9.25
   3  -1  15    3.20    7.95
   4  -1  15   -3.60    9.27
  -3   0  15   19.50    8.93
  -2   0  15    3.81    4.71
  -1   0  15   -3.26    5.10
   0   0  15   64.51   10.50
   1   0  15    3.45    5.58
   2   0  15   -0.83    6.63
   3   0  15   30.53   11.88
  -3   1  15   -0.48    4.86
  -2   1  15   29.85    6.50
  -1   1  15    2.65    4.04
   0   1  15   -1.91    5.97
   1   1  15   27.59    8.99
   2   1  15   -0.05    6.83
   3   1  15    7.93   10.52
  -4   2  15   26.18   11.21
  -3   2  15   -9.37    6.60
  -2   2  15    5.90    4.60
  -1   2  15   32.98    6.38
   0   2  15    4.84    6.88
   1   2  15   -2.43    6.61
   2   2  15   39.55   13.02
  -3   3  15   23.78   10.12
  -2   3  15   -3.33    6.86
  -1   3  15   -6.99    6.92
   0   3  15   49.66   12.94
  -2   4  15   16.10    9.76
   0  -3  16   39.18   11.20
   1  -3  16    1.90    7.85
  -1  -2  16    7.49    7.64
   0  -2  16    5.44    6.80
   1  -2  16   71.64   12.36
   2  -2  16   -2.26    6.06
  -2  -1  16   -4.24    6.99
  -1  -1  16   75.14   12.90
   0  -1  16    0.89    5.85
   1  -1  16   10.88    6.48
   2  -1  16   91.32   13.87
   3  -1  16    0.34    7.85
  -3   0  16    8.44    9.67
  -2   0  16   -0.84    4.68
  -1   0  16    4.10    6.22
   0   0  16   62.58   11.42
   1   0  16   -0.91    5.94
   2   0  16    5.44    7.38
   3   0  16   21.17   12.14
  -3   1  16    1.32    5.36
  -2   1  16   64.91    8.83
  -1   1  16   -0.40    4.82
   0   1  16   -1.66    6.01
   1   1  16   38.08   10.39
   2   1  16   -4.72    7.86
  -3   2  16   -2.34    7.54
  -2   2  16   -1.78    4.83
  -1   2  16   31.28    9.69
   0   2  16    6.32    7.54
   1   2  16    3.43    7.68
  -3   3  16   28.54   11.65
  -2   3  16   -1.80    7.74
  -1   3  16   11.91    8.72
   0   3  16   59.91   14.52
   0  -3  17    7.29    8.69
   1  -3  17   16.36    9.02
  -1  -2  17    3.07    7.56
   0  -2  17   12.28    8.67
   1  -2  17    1.30    6.67
   2  -2  17    5.00    7.56
  -2  -1  17    9.70    9.20
  -1  -1  17   -4.63    6.33
   0  -1  17    3.74    6.81
   1  -1  17   20.82    7.89
   2  -1  17    6.99    7.34
   3  -1  17    3.62    8.93
  -3   0  17    7.22    9.36
  -2   0  17   22.94    9.72
  -1   0  17   19.13    8.93
   0   0  17   -0.59    6.02
   1   0  17    9.36    7.44
   2   0  17    9.21    7.62
   3   0  17    5.14   10.57
  -3   1  17    2.10    6.55
  -2   1  17   -4.96    5.07
  -1   1  17   14.45    7.73
   0   1  17   12.12    8.35
   1   1  17    5.24    8.11
   2   1  17   -3.54    8.47
  -3   2  17    9.54   10.24
  -2   2  17    6.58    5.58
  -1   2  17    6.31    8.13
   0   2  17   -3.89    7.99
   1   2  17   -2.26    8.56
  -2   3  17    0.56    9.40
  -1   3  17    4.13   10.11
   1  -3  18  -11.26    8.05
   0  -2  18   29.70   10.83
   1  -2  18   -1.86    6.97
   2  -2  18   -2.53    8.01
  -1  -1  18    4.70    7.49
   0  -1  18   -1.83    6.72
   1  -1  18   29.18   10.55
   2  -1  18    0.03    7.39
   3  -1  18    5.47    9.87
  -2   0  18    1.91    8.94
  -1   0  18   45.02   12.16
   0   0  18   -0.86    7.24
   1   0  18    5.96    7.89
   2   0  18   31.13   11.33
  -3   1  18   22.54    8.39
  -2   1  18    9.53    6.44
  -1   1  18    5.70    8.38
   0   1  18   38.12   11.83
   1   1  18   -5.15    8.29
  -2   2  18   46.24    9.06
  -1   2  18    3.83    8.42
   0   2  18   10.46   10.34
  -1   3  18   19.07   11.11
   1  -2  19    3.71    8.20
   2  -2  19    1.22    9.60
  -1  -1  19    4.96    9.05
   0  -1  19   -2.95    7.24
   1  -1  19   29.98   10.01
   2  -1  19    4.88    8.67
  -1   0  19   14.24    9.46
   0   0  19   -5.28    7.09
   1   0  19    1.58    8.15
  -2   1  19  -11.38    7.61
  -1   1  19   -4.91    7.74
   0   1  19   11.42    9.73
   1   1  19   -3.25    8.96
  -2   2  19   11.36   10.86
  -1   2  19   -5.46    8.47
   0   0  20   -7.20    8.44
   0   0   0    0.00    0.00
;
_shelx_hkl_checksum              42444
#END Tags that were not found in dictionaries
loop_
_space_group_symop_operation_xyz
'x, y, z'
'-y, x-y, z'
'-x+y, -x, z'
'y, x, -z'
'x-y, -y, -z'
'-x, -x+y, -z'
'-x, -y, -z'
'y, -x+y, -z'
'x-y, x, -z'
'-y, -x, z'
'-x+y, y, z'
'x, x-y, z'
loop_
_atom_site_label
_atom_site_type_symbol
_atom_site_fract_x
_atom_site_fract_y
_atom_site_fract_z
_atom_site_U_iso_or_equiv
_atom_site_adp_type
_atom_site_occupancy
_atom_site_site_symmetry_order
_atom_site_calc_flag
_atom_site_refinement_flags_posn
_atom_site_refinement_flags_adp
_atom_site_refinement_flags_occupancy
Sm1 Sm 0.0000 0.0000 0.5000 0.031(3) Uani 0.240(10) 12 d S T .
Sm2 Sm 0.0000 0.0000 0.0000 0.0226(6) Uani 1 12 d S T P
Zn1 Zn 0.3333 0.6667 0.3324(7) 0.024(2) Uani 0.564(18) 6 d S T P
Zn2 Zn 0.3333 0.6667 0.8035(2) 0.0196(8) Uani 1 6 d S T P
Mn Mn 0.3333 0.6667 0.4086(14) 0.034(4) Uani 0.436(18) 6 d S T P
As1 As 0.3333 0.6667 0.12714(19) 0.0132(6) Uani 1 6 d S T P
As2 As 0.3333 0.6667 0.6185(2) 0.0186(6) Uani 1 6 d S T P
loop_
_atom_site_aniso_label
_atom_site_aniso_U_11
_atom_site_aniso_U_22
_atom_site_aniso_U_33
_atom_site_aniso_U_23
_atom_site_aniso_U_13
_atom_site_aniso_U_12
Sm1 0.031(4) 0.031(4) 0.032(6) 0.000 0.000 0.016(2)
Sm2 0.0233(7) 0.0233(7) 0.0213(11) 0.000 0.000 0.0116(4)
Zn1 0.016(2) 0.016(2) 0.042(6) 0.000 0.000 0.0079(10)
Zn2 0.0207(10) 0.0207(10) 0.0175(16) 0.000 0.000 0.0104(5)
Mn 0.026(4) 0.026(4) 0.052(12) 0.000 0.000 0.0129(19)
As1 0.0141(8) 0.0141(8) 0.0114(12) 0.000 0.000 0.0071(4)
As2 0.0212(9) 0.0212(9) 0.0135(13) 0.000 0.000 0.0106(4)
loop_
_atom_type_symbol
_atom_type_description
_atom_type_scat_dispersion_real
_atom_type_scat_dispersion_imag
_atom_type_scat_source
Mn Mn 0.3368 0.7283 'International Tables Vol C Tables 4.2.6.8 and 6.1.1.4'
Zn Zn 0.2839 1.4301 'International Tables Vol C Tables 4.2.6.8 and 6.1.1.4'
As As 0.0499 2.0058 'International Tables Vol C Tables 4.2.6.8 and 6.1.1.4'
Sm Sm -0.1638 3.4418 'International Tables Vol C Tables 4.2.6.8 and 6.1.1.4'
loop_
_geom_angle_atom_site_label_1
_geom_angle_atom_site_label_2
_geom_angle_atom_site_label_3
_geom_angle
_geom_angle_site_symmetry_1
_geom_angle_site_symmetry_3
Mn Sm1 Mn 79.5(5) . 7_666
Mn Sm1 Mn 100.5(5) . 1_445
Mn Sm1 Mn 180.0 7_666 1_445
Mn Sm1 Mn 180.0 . 7_556
Mn Sm1 Mn 100.5(5) 7_666 7_556
Mn Sm1 Mn 79.5(5) 1_445 7_556
Mn Sm1 Mn 79.5(5) . 7_566
Mn Sm1 Mn 100.5(5) 7_666 7_566
Mn Sm1 Mn 79.5(5) 1_445 7_566
Mn Sm1 Mn 100.5(5) 7_556 7_566
Mn Sm1 Mn 100.5(5) . 1_545
Mn Sm1 Mn 79.5(5) 7_666 1_545
Mn Sm1 Mn 100.5(5) 1_445 1_545
Mn Sm1 Mn 79.5(5) 7_556 1_545
Mn Sm1 Mn 180.0(7) 7_566 1_545
Mn Sm1 As2 61.3(4) . .
Mn Sm1 As2 51.31(14) 7_666 .
Mn Sm1 As2 128.69(14) 1_445 .
Mn Sm1 As2 118.7(4) 7_556 .
Mn Sm1 As2 51.31(14) 7_566 .
Mn Sm1 As2 128.69(14) 1_545 .
Mn Sm1 As2 118.7(4) . 7_556
Mn Sm1 As2 128.69(14) 7_666 7_556
Mn Sm1 As2 51.31(14) 1_445 7_556
Mn Sm1 As2 61.3(4) 7_556 7_556
Mn Sm1 As2 128.69(14) 7_566 7_556
Mn Sm1 As2 51.31(14) 1_545 7_556
As2 Sm1 As2 180.0 . 7_556
Mn Sm1 As2 51.31(14) . 7_666
Mn Sm1 As2 61.3(4) 7_666 7_666
Mn Sm1 As2 118.7(4) 1_445 7_666
Mn Sm1 As2 128.69(14) 7_556 7_666
Mn Sm1 As2 128.69(14) 7_566 7_666
Mn Sm1 As2 51.31(14) 1_545 7_666
As2 Sm1 As2 88.10(7) . 7_666
As2 Sm1 As2 91.90(7) 7_556 7_666
Mn Sm1 As2 128.69(14) . 1_445
Mn Sm1 As2 118.7(4) 7_666 1_445
Mn Sm1 As2 61.3(4) 1_445 1_445
Mn Sm1 As2 51.31(14) 7_556 1_445
Mn Sm1 As2 51.31(14) 7_566 1_445
Mn Sm1 As2 128.69(14) 1_545 1_445
As2 Sm1 As2 91.90(7) . 1_445
As2 Sm1 As2 88.10(7) 7_556 1_445
As2 Sm1 As2 180.0 7_666 1_445
Mn Sm1 As2 51.31(14) . 7_566
Mn Sm1 As2 128.69(14) 7_666 7_566
Mn Sm1 As2 51.31(14) 1_445 7_566
Mn Sm1 As2 128.69(14) 7_556 7_566
Mn Sm1 As2 61.3(4) 7_566 7_566
Mn Sm1 As2 118.7(4) 1_545 7_566
As2 Sm1 As2 88.10(7) . 7_566
As2 Sm1 As2 91.90(7) 7_556 7_566
As2 Sm1 As2 91.90(7) 7_666 7_566
As2 Sm1 As2 88.10(7) 1_445 7_566
Mn Sm1 As2 128.69(14) . 1_545
Mn Sm1 As2 51.31(14) 7_666 1_545
Mn Sm1 As2 128.69(14) 1_445 1_545
Mn Sm1 As2 51.31(14) 7_556 1_545
Mn Sm1 As2 118.7(4) 7_566 1_545
Mn Sm1 As2 61.3(4) 1_545 1_545
As2 Sm1 As2 91.90(7) . 1_545
As2 Sm1 As2 88.10(7) 7_556 1_545
As2 Sm1 As2 88.10(7) 7_666 1_545
As2 Sm1 As2 91.90(7) 1_445 1_545
As2 Sm1 As2 180.00(9) 7_566 1_545
As1 Sm2 As1 180.0 . 7
As1 Sm2 As1 90.76(6) . 7_665
As1 Sm2 As1 89.24(6) 7 7_665
As1 Sm2 As1 89.24(6) . 1_445
As1 Sm2 As1 90.76(6) 7 1_445
As1 Sm2 As1 180.00(8) 7_665 1_445
As1 Sm2 As1 90.76(6) . 7_565
As1 Sm2 As1 89.24(6) 7 7_565
As1 Sm2 As1 89.24(6) 7_665 7_565
As1 Sm2 As1 90.76(6) 1_445 7_565
As1 Sm2 As1 89.24(6) . 1_545
As1 Sm2 As1 90.76(6) 7 1_545
As1 Sm2 As1 90.76(6) 7_665 1_545
As1 Sm2 As1 89.24(6) 1_445 1_545
As1 Sm2 As1 180.00(8) 7_565 1_545
As1 Sm2 Zn2 134.93(3) . 1_444
As1 Sm2 Zn2 45.07(3) 7 1_444
As1 Sm2 Zn2 96.09(6) 7_665 1_444
As1 Sm2 Zn2 83.91(6) 1_445 1_444
As1 Sm2 Zn2 45.07(3) 7_565 1_444
As1 Sm2 Zn2 134.93(3) 1_545 1_444
As1 Sm2 Zn2 45.07(3) . 7_666
As1 Sm2 Zn2 134.93(3) 7 7_666
As1 Sm2 Zn2 83.91(6) 7_665 7_666
As1 Sm2 Zn2 96.09(6) 1_445 7_666
As1 Sm2 Zn2 134.93(3) 7_565 7_666
As1 Sm2 Zn2 45.07(3) 1_545 7_666
Zn2 Sm2 Zn2 180.00(7) 1_444 7_666
As1 Sm2 Zn2 96.10(6) . 7_556
As1 Sm2 Zn2 83.91(6) 7 7_556
As1 Sm2 Zn2 134.93(3) 7_665 7_556
As1 Sm2 Zn2 45.07(3) 1_445 7_556
As1 Sm2 Zn2 134.93(3) 7_565 7_556
As1 Sm2 Zn2 45.07(3) 1_545 7_556
Zn2 Sm2 Zn2 109.33(6) 1_444 7_556
Zn2 Sm2 Zn2 70.67(6) 7_666 7_556
As1 Sm2 Zn2 83.90(7) . 1_554
As1 Sm2 Zn2 96.09(6) 7 1_554
As1 Sm2 Zn2 45.07(3) 7_665 1_554
As1 Sm2 Zn2 134.93(3) 1_445 1_554
As1 Sm2 Zn2 45.07(3) 7_565 1_554
As1 Sm2 Zn2 134.93(3) 1_545 1_554
Zn2 Sm2 Zn2 70.67(6) 1_444 1_554
Zn2 Sm2 Zn2 109.33(6) 7_666 1_554
Zn2 Sm2 Zn2 180.0 7_556 1_554
As1 Sm2 Zn2 134.93(3) . 1_544
As1 Sm2 Zn2 45.07(3) 7 1_544
As1 Sm2 Zn2 45.07(3) 7_665 1_544
As1 Sm2 Zn2 134.93(3) 1_445 1_544
As1 Sm2 Zn2 96.10(6) 7_565 1_544
As1 Sm2 Zn2 83.90(6) 1_545 1_544
Zn2 Sm2 Zn2 70.66(6) 1_444 1_544
Zn2 Sm2 Zn2 109.34(6) 7_666 1_544
Zn2 Sm2 Zn2 109.34(6) 7_556 1_544
Zn2 Sm2 Zn2 70.66(6) 1_554 1_544
As1 Sm2 Zn2 45.07(3) . 7_566
As1 Sm2 Zn2 134.93(3) 7 7_566
As1 Sm2 Zn2 134.93(3) 7_665 7_566
As1 Sm2 Zn2 45.07(3) 1_445 7_566
As1 Sm2 Zn2 83.90(6) 7_565 7_566
As1 Sm2 Zn2 96.10(6) 1_545 7_566
Zn2 Sm2 Zn2 109.34(6) 1_444 7_566
Zn2 Sm2 Zn2 70.66(6) 7_666 7_566
Zn2 Sm2 Zn2 70.66(6) 7_556 7_566
Zn2 Sm2 Zn2 109.34(6) 1_554 7_566
Zn2 Sm2 Zn2 180.00(7) 1_544 7_566
Mn Zn1 As2 74.4(2) . 7_666
Mn Zn1 As2 74.4(2) . 7_676
As2 Zn1 As2 113.1(2) 7_666 7_676
Mn Zn1 As2 74.4(2) . 7_566
As2 Zn1 As2 113.1(2) 7_666 7_566
As2 Zn1 As2 113.1(2) 7_676 7_566
Mn Zn1 As1 180.0 . .
As2 Zn1 As1 105.6(2) 7_666 .
As2 Zn1 As1 105.6(2) 7_676 .
As2 Zn1 As1 105.6(2) 7_566 .
Mn Zn1 Zn2 127.62(16) . 7_666
As2 Zn1 Zn2 53.20(11) 7_666 7_666
As2 Zn1 Zn2 123.05(15) 7_676 7_666
As2 Zn1 Zn2 123.05(15) 7_566 7_666
As1 Zn1 Zn2 52.38(16) . 7_666
Mn Zn1 Zn2 127.62(16) . 7_566
As2 Zn1 Zn2 123.05(15) 7_666 7_566
As2 Zn1 Zn2 123.05(15) 7_676 7_566
As2 Zn1 Zn2 53.20(11) 7_566 7_566
As1 Zn1 Zn2 52.38(16) . 7_566
Zn2 Zn1 Zn2 86.6(2) 7_666 7_566
Mn Zn1 Zn2 127.62(16) . 7_676
As2 Zn1 Zn2 123.05(15) 7_666 7_676
As2 Zn1 Zn2 53.20(11) 7_676 7_676
As2 Zn1 Zn2 123.05(15) 7_566 7_676
As1 Zn1 Zn2 52.38(16) . 7_676
Zn2 Zn1 Zn2 86.6(2) 7_666 7_676
Zn2 Zn1 Zn2 86.6(2) 7_566 7_676
Mn Zn1 Sm1 46.44(13) . 1_665
As2 Zn1 Sm1 57.72(14) 7_666 1_665
As2 Zn1 Sm1 57.72(14) 7_676 1_665
As2 Zn1 Sm1 120.9(4) 7_566 1_665
As1 Zn1 Sm1 133.56(13) . 1_665
Zn2 Zn1 Sm1 97.68(5) 7_666 1_665
Zn2 Zn1 Sm1 174.1(3) 7_566 1_665
Zn2 Zn1 Sm1 97.68(5) 7_676 1_665
Mn Zn1 Sm1 46.44(13) . 1_565
As2 Zn1 Sm1 120.9(4) 7_666 1_565
As2 Zn1 Sm1 57.72(14) 7_676 1_565
As2 Zn1 Sm1 57.72(14) 7_566 1_565
As1 Zn1 Sm1 133.56(13) . 1_565
Zn2 Zn1 Sm1 174.1(3) 7_666 1_565
Zn2 Zn1 Sm1 97.68(5) 7_566 1_565
Zn2 Zn1 Sm1 97.68(5) 7_676 1_565
Sm1 Zn1 Sm1 77.7(2) 1_665 1_565
Mn Zn1 Sm1 46.44(13) . .
As2 Zn1 Sm1 57.72(14) 7_666 .
As2 Zn1 Sm1 120.9(4) 7_676 .
As2 Zn1 Sm1 57.72(14) 7_566 .
As1 Zn1 Sm1 133.56(13) . .
Zn2 Zn1 Sm1 97.68(5) 7_666 .
Zn2 Zn1 Sm1 97.68(5) 7_566 .
Zn2 Zn1 Sm1 174.1(3) 7_676 .
Sm1 Zn1 Sm1 77.7(2) 1_665 .
Sm1 Zn1 Sm1 77.7(2) 1_565 .
As2 Zn2 As1 111.47(8) . 7_666
As2 Zn2 As1 111.47(8) . 7_676
As1 Zn2 As1 107.40(9) 7_666 7_676
As2 Zn2 As1 111.47(8) . 7_566
As1 Zn2 As1 107.40(9) 7_666 7_566
As1 Zn2 As1 107.39(9) 7_676 7_566
As2 Zn2 Zn1 52.38(16) . 7_666
As1 Zn2 Zn1 59.10(16) 7_666 7_666
As1 Zn2 Zn1 126.30(4) 7_676 7_666
As1 Zn2 Zn1 126.30(4) 7_566 7_666
As2 Zn2 Zn1 52.38(16) . 7_566
As1 Zn2 Zn1 126.30(4) 7_666 7_566
As1 Zn2 Zn1 126.30(4) 7_676 7_566
As1 Zn2 Zn1 59.10(16) 7_566 7_566
Zn1 Zn2 Zn1 86.6(2) 7_666 7_566
As2 Zn2 Zn1 52.38(16) . 7_676
As1 Zn2 Zn1 126.30(4) 7_666 7_676
As1 Zn2 Zn1 59.10(16) 7_676 7_676
As1 Zn2 Zn1 126.30(4) 7_566 7_676
Zn1 Zn2 Zn1 86.6(2) 7_666 7_676
Zn1 Zn2 Zn1 86.6(2) 7_566 7_676
As2 Zn2 Sm2 138.10(4) . 1_666
As1 Zn2 Sm2 54.32(5) 7_666 1_666
As1 Zn2 Sm2 54.32(5) 7_676 1_666
As1 Zn2 Sm2 110.42(11) 7_566 1_666
Zn1 Zn2 Sm2 100.95(13) 7_666 1_666
Zn1 Zn2 Sm2 169.52(18) 7_566 1_666
Zn1 Zn2 Sm2 100.95(13) 7_676 1_666
As2 Zn2 Sm2 138.10(4) . 1_566
As1 Zn2 Sm2 110.42(11) 7_666 1_566
As1 Zn2 Sm2 54.32(5) 7_676 1_566
As1 Zn2 Sm2 54.32(5) 7_566 1_566
Zn1 Zn2 Sm2 169.52(18) 7_666 1_566
Zn1 Zn2 Sm2 100.95(13) 7_566 1_566
Zn1 Zn2 Sm2 100.95(13) 7_676 1_566
Sm2 Zn2 Sm2 70.66(6) 1_666 1_566
As2 Zn2 Sm2 138.10(4) . 1_556
As1 Zn2 Sm2 54.32(5) 7_666 1_556
As1 Zn2 Sm2 110.42(11) 7_676 1_556
As1 Zn2 Sm2 54.32(5) 7_566 1_556
Zn1 Zn2 Sm2 100.95(13) 7_666 1_556
Zn1 Zn2 Sm2 100.95(13) 7_566 1_556
Zn1 Zn2 Sm2 169.52(18) 7_676 1_556
Sm2 Zn2 Sm2 70.66(6) 1_666 1_556
Sm2 Zn2 Sm2 70.66(6) 1_566 1_556
Zn1 Mn As2 81.3(5) . 7_666
Zn1 Mn As2 81.3(5) . 7_566
As2 Mn As2 117.7(2) 7_666 7_566
Zn1 Mn As2 81.3(5) . 7_676
As2 Mn As2 117.7(2) 7_666 7_676
As2 Mn As2 117.7(2) 7_566 7_676
Zn1 Mn Sm1 117.4(4) . 1_565
As2 Mn Sm1 161.3(8) 7_666 1_565
As2 Mn Sm1 68.36(12) 7_566 1_565
As2 Mn Sm1 68.36(12) 7_676 1_565
Zn1 Mn Sm1 117.4(4) . 1_665
As2 Mn Sm1 68.36(12) 7_666 1_665
As2 Mn Sm1 161.3(8) 7_566 1_665
As2 Mn Sm1 68.36(12) 7_676 1_665
Sm1 Mn Sm1 100.5(5) 1_565 1_665
Zn1 Mn Sm1 117.4(4) . .
As2 Mn Sm1 68.36(12) 7_666 .
As2 Mn Sm1 68.36(12) 7_566 .
As2 Mn Sm1 161.3(8) 7_676 .
Sm1 Mn Sm1 100.5(5) 1_565 .
Sm1 Mn Sm1 100.5(5) 1_665 .
Zn1 Mn As2 180.0 . .
As2 Mn As2 98.7(5) 7_666 .
As2 Mn As2 98.7(5) 7_566 .
As2 Mn As2 98.7(5) 7_676 .
Sm1 Mn As2 62.6(4) 1_565 .
Sm1 Mn As2 62.6(4) 1_665 .
Sm1 Mn As2 62.6(4) . .
Zn2 As1 Zn2 107.40(9) 7_666 7_676
Zn2 As1 Zn2 107.40(9) 7_666 7_566
Zn2 As1 Zn2 107.39(9) 7_676 7_566
Zn2 As1 Zn1 68.52(8) 7_666 .
Zn2 As1 Zn1 68.53(8) 7_676 .
Zn2 As1 Zn1 68.53(8) 7_566 .
Zn2 As1 Sm2 80.61(5) 7_666 .
Zn2 As1 Sm2 165.67(11) 7_676 .
Zn2 As1 Sm2 80.61(5) 7_566 .
Zn1 As1 Sm2 125.80(4) . .
Zn2 As1 Sm2 165.67(11) 7_666 1_565
Zn2 As1 Sm2 80.61(5) 7_676 1_565
Zn2 As1 Sm2 80.61(5) 7_566 1_565
Zn1 As1 Sm2 125.80(4) . 1_565
Sm2 As1 Sm2 89.24(6) . 1_565
Zn2 As1 Sm2 80.61(5) 7_666 1_665
Zn2 As1 Sm2 80.61(5) 7_676 1_665
Zn2 As1 Sm2 165.67(11) 7_566 1_665
Zn1 As1 Sm2 125.80(4) . 1_665
Sm2 As1 Sm2 89.24(6) . 1_665
Sm2 As1 Sm2 89.24(6) 1_565 1_665
Mn As2 Mn 117.7(2) 7_666 7_566
Mn As2 Mn 117.7(2) 7_666 7_676
Mn As2 Mn 117.7(2) 7_566 7_676
Mn As2 Zn1 24.3(4) 7_666 7_666
Mn As2 Zn1 121.12(10) 7_566 7_666
Mn As2 Zn1 121.12(10) 7_676 7_666
Mn As2 Zn1 121.12(10) 7_666 7_676
Mn As2 Zn1 121.12(10) 7_566 7_676
Mn As2 Zn1 24.3(4) 7_676 7_676
Zn1 As2 Zn1 113.1(2) 7_666 7_676
Mn As2 Zn1 121.12(10) 7_666 7_566
Mn As2 Zn1 24.3(4) 7_566 7_566
Mn As2 Zn1 121.12(10) 7_676 7_566
Zn1 As2 Zn1 113.1(2) 7_666 7_566
Zn1 As2 Zn1 113.1(2) 7_676 7_566
Mn As2 Zn2 98.7(5) 7_666 .
Mn As2 Zn2 98.7(5) 7_566 .
Mn As2 Zn2 98.7(5) 7_676 .
Zn1 As2 Zn2 74.4(2) 7_666 .
Zn1 As2 Zn2 74.4(2) 7_676 .
Zn1 As2 Zn2 74.4(2) 7_566 .
Mn As2 Mn 81.3(5) 7_666 .
Mn As2 Mn 81.3(5) 7_566 .
Mn As2 Mn 81.3(5) 7_676 .
Zn1 As2 Mn 105.6(2) 7_666 .
Zn1 As2 Mn 105.6(2) 7_676 .
Zn1 As2 Mn 105.6(2) 7_566 .
Zn2 As2 Mn 180.0 . .
Mn As2 Sm1 60.3(3) 7_666 .
Mn As2 Sm1 60.3(3) 7_566 .
Mn As2 Sm1 137.4(5) 7_676 .
Zn1 As2 Sm1 75.53(15) 7_666 .
Zn1 As2 Sm1 161.7(3) 7_676 .
Zn1 As2 Sm1 75.53(15) 7_566 .
Zn2 As2 Sm1 123.91(5) . .
Mn As2 Sm1 56.09(5) . .
Mn As2 Sm1 137.4(5) 7_666 1_565
Mn As2 Sm1 60.3(3) 7_566 1_565
Mn As2 Sm1 60.3(3) 7_676 1_565
Zn1 As2 Sm1 161.7(3) 7_666 1_565
Zn1 As2 Sm1 75.53(15) 7_676 1_565
Zn1 As2 Sm1 75.53(15) 7_566 1_565
Zn2 As2 Sm1 123.91(5) . 1_565
Mn As2 Sm1 56.09(5) . 1_565
Sm1 As2 Sm1 91.90(7) . 1_565
Mn As2 Sm1 60.3(3) 7_666 1_665
Mn As2 Sm1 137.4(5) 7_566 1_665
Mn As2 Sm1 60.3(3) 7_676 1_665
Zn1 As2 Sm1 75.53(15) 7_666 1_665
Zn1 As2 Sm1 75.53(15) 7_676 1_665
Zn1 As2 Sm1 161.7(3) 7_566 1_665
Zn2 As2 Sm1 123.91(5) . 1_665
Mn As2 Sm1 56.09(5) . 1_665
Sm1 As2 Sm1 91.90(7) . 1_665
Sm1 As2 Sm1 91.90(7) 1_565 1_665
loop_
_geom_bond_atom_site_label_1
_geom_bond_atom_site_label_2
_geom_bond_distance
_geom_bond_site_symmetry_2
Sm1 Mn 2.682(9) .
Sm1 Mn 2.682(9) 7_666
Sm1 Mn 2.682(9) 1_445
Sm1 Mn 2.682(9) 7_556
Sm1 Mn 2.682(9) 7_566
Sm1 Mn 2.682(9) 1_545
Sm1 As2 2.8689(18) .
Sm1 As2 2.8689(18) 7_556
Sm1 As2 2.8689(18) 7_666
Sm1 As2 2.8689(18) 1_445
Sm1 As2 2.8689(18) 7_566
Sm1 As2 2.8689(18) 1_545
Sm2 As1 2.9357(18) .
Sm2 As1 2.9357(18) 7
Sm2 As1 2.9357(18) 7_665
Sm2 As1 2.9357(18) 1_445
Sm2 As1 2.9357(18) 7_565
Sm2 As1 2.9357(18) 1_545
Sm2 Zn2 3.565(3) 1_444
Sm2 Zn2 3.565(3) 7_666
Sm2 Zn2 3.565(3) 7_556
Sm2 Zn2 3.565(3) 1_554
Sm2 Zn2 3.566(3) 1_544
Sm2 Zn2 3.566(3) 7_566
Zn1 Mn 1.030(16) .
Zn1 As2 2.472(3) 7_666
Zn1 As2 2.472(3) 7_676
Zn1 As2 2.472(3) 7_566
Zn1 As1 2.772(10) .
Zn1 Zn2 3.006(7) 7_666
Zn1 Zn2 3.006(7) 7_566
Zn1 Zn2 3.006(7) 7_676
Zn1 Sm1 3.286(7) 1_665
Zn1 Sm1 3.286(7) 1_565
Zn2 As2 2.499(4) .
Zn2 As1 2.5586(18) 7_666
Zn2 As1 2.5586(18) 7_676
Zn2 As1 2.5586(18) 7_566
Zn2 Zn1 3.006(7) 7_666
Zn2 Zn1 3.006(7) 7_566
Zn2 Zn1 3.006(7) 7_676
Zn2 Sm2 3.566(3) 1_666
Zn2 Sm2 3.566(3) 1_566
Zn2 Sm2 3.566(3) 1_556
Mn As2 2.409(3) 7_666
Mn As2 2.409(3) 7_566
Mn As2 2.409(3) 7_676
Mn Sm1 2.682(9) 1_565
Mn Sm1 2.682(9) 1_665
Mn As2 2.835(19) .
As1 Zn2 2.5586(18) 7_666
As1 Zn2 2.5586(18) 7_676
As1 Zn2 2.5586(18) 7_566
As1 Sm2 2.9357(18) 1_565
As1 Sm2 2.9357(18) 1_665
As2 Mn 2.409(3) 7_666
As2 Mn 2.409(3) 7_566
As2 Mn 2.409(3) 7_676
As2 Zn1 2.472(3) 7_666
As2 Zn1 2.472(3) 7_676
As2 Zn1 2.472(3) 7_566
As2 Sm1 2.8689(18) 1_565
As2 Sm1 2.8689(18) 1_665
