#------------------------------------------------------------------------------
#$Date: 2016-03-23 23:36:17 +0200 (Wed, 23 Mar 2016) $
#$Revision: 179508 $
#$URL: svn://www.crystallography.net/cod/cif/4/34/05/4340524.cif $
#------------------------------------------------------------------------------
#
# This file is available in the Crystallography Open Database (COD),
# http://www.crystallography.net/
#
# All data on this site have been placed in the public domain by the
# contributors.
#
data_4340524
loop_
_publ_author_name
'Lin, Xinsong'
'Tabassum, Danisa'
'Rudyk, Brent W.'
'Mar, Arthur'
_publ_section_title
;
 Manganese-Substituted Rare-Earth Zinc Arsenides RE1-yMnxZn2-xAs2 (RE =
 Eu-Lu) and RE2-yMnxZn4-xAs4 (RE = La-Nd, Sm, Gd).
;
_journal_issue                   16
_journal_name_full               'Inorganic chemistry'
_journal_page_first              8431
_journal_page_last               8441
_journal_paper_doi               10.1021/ic501053v
_journal_volume                  53
_journal_year                    2014
_chemical_formula_structural     'Gd1.24 Mn0.93 Zn3.07 As4'
_chemical_formula_sum            'As4 Gd1.24 Mn0.93 Zn3.07'
_chemical_formula_weight         746.45
_chemical_name_common
'gadolinium manganese zinc arsenide (1.2/0.9/3.1/4)'
_chemical_name_systematic
'gadolinium manganese zinc arsenide (1.2/0.9/3.1/4)'
_space_group_crystal_system      trigonal
_space_group_IT_number           164
_space_group_name_Hall           '-P 3 2"'
_space_group_name_H-M_alt        'P -3 m 1'
_symmetry_space_group_name_Hall  '-P 3 2"'
_symmetry_space_group_name_H-M   'P -3 m 1'
_atom_sites_solution_primary     direct
_atom_sites_solution_secondary   difmap
_audit_creation_method           SHELXL-2013
_cell_angle_alpha                90
_cell_angle_beta                 90
_cell_angle_gamma                120
_cell_formula_units_Z            1
_cell_length_a                   4.1180(14)
_cell_length_b                   4.1180(14)
_cell_length_c                   13.500(5)
_cell_measurement_reflns_used    706
_cell_measurement_temperature    296(2)
_cell_measurement_theta_max      27.17
_cell_measurement_theta_min      5.72
_cell_volume                     198.26(12)
_computing_cell_refinement       'Bruker SAINT 8.32B (Bruker, 2011)'
_computing_data_collection       'Bruker APEX 2 (Bruker, 2008)'
_computing_data_reduction        'Bruker SAINT 8.32B'
_computing_molecular_graphics    'ATOMS 5.1 (Dowty, 1999)'
_computing_publication_material  'Bruker SHELXTL'
_computing_structure_refinement  'Bruker SHELXTL'
_computing_structure_solution    'Bruker SHELXTL'
_diffrn_ambient_temperature      296(2)
_diffrn_measured_fraction_theta_full 1.000
_diffrn_measured_fraction_theta_max 1.000
_diffrn_measurement_device_type  'Bruker PLATFORM/SMART APEX II CCD'
_diffrn_measurement_method       '\w scans'
_diffrn_radiation_type           MoK\a
_diffrn_radiation_wavelength     0.71073
_diffrn_reflns_av_R_equivalents  0.0971
_diffrn_reflns_av_unetI/netI     0.0445
_diffrn_reflns_Laue_measured_fraction_full 1.000
_diffrn_reflns_Laue_measured_fraction_max 1.000
_diffrn_reflns_limit_h_max       6
_diffrn_reflns_limit_h_min       -6
_diffrn_reflns_limit_k_max       6
_diffrn_reflns_limit_k_min       -6
_diffrn_reflns_limit_l_max       20
_diffrn_reflns_limit_l_min       -20
_diffrn_reflns_number            2841
_diffrn_reflns_point_group_measured_fraction_full 1.000
_diffrn_reflns_point_group_measured_fraction_max 1.000
_diffrn_reflns_theta_full        25.242
_diffrn_reflns_theta_max         32.993
_diffrn_reflns_theta_min         1.508
_diffrn_source                   'fine-focus sealed tube'
_exptl_absorpt_coefficient_mu    37.268
_exptl_absorpt_correction_T_max  0.5327
_exptl_absorpt_correction_T_min  0.3143
_exptl_absorpt_correction_type   numerical
_exptl_absorpt_process_details   'Bruker SHELXTL 6.12 (Sheldrick, 2001)'
_exptl_crystal_colour            black
_exptl_crystal_density_diffrn    6.252
_exptl_crystal_description       irregular
_exptl_crystal_F_000             327
_exptl_crystal_size_max          0.039
_exptl_crystal_size_mid          0.034
_exptl_crystal_size_min          0.028
_refine_diff_density_max         3.085
_refine_diff_density_min         -3.439
_refine_diff_density_rms         0.538
_refine_ls_extinction_method     none
_refine_ls_goodness_of_fit_ref   1.223
_refine_ls_hydrogen_treatment    undef
_refine_ls_matrix_type           full
_refine_ls_number_parameters     22
_refine_ls_number_reflns         352
_refine_ls_number_restraints     0
_refine_ls_restrained_S_all      1.223
_refine_ls_R_factor_all          0.0642
_refine_ls_R_factor_gt           0.0475
_refine_ls_shift/su_max          0.000
_refine_ls_shift/su_mean         0.000
_refine_ls_structure_factor_coef Fsqd
_refine_ls_weighting_details
'w=1/[\s^2^(Fo^2^)+(0.0478P)^2^+5.2021P] where P=(Fo^2^+2Fc^2^)/3'
_refine_ls_weighting_scheme      calc
_refine_ls_wR_factor_gt          0.1278
_refine_ls_wR_factor_ref         0.1354
_reflns_Friedel_coverage         0.000
_reflns_number_gt                282
_reflns_number_total             352
_reflns_threshold_expression     'I > 2\s(I)'
_cod_data_source_file            ic501053v_si_003.cif
_cod_data_source_block           Gd(Mn,Zn)4As4
_cod_depositor_comments
'Adding full bibliography for 4340510--4340524.cif.'
_cod_original_cell_volume        198.27(15)
_cod_database_code               4340524
#BEGIN Tags that were not found in dictionaries:
_shelx_space_group_comment
;
The symmetry employed for this shelxl refinement is uniquely defined
by the following loop, which should always be used as a source of
symmetry information in preference to the above space-group names.
They are only intended as comments.
;
_shelx_estimated_absorpt_t_min   0.324
_shelx_estimated_absorpt_t_max   0.422
_shelxl_version_number           2013-4
_shelx_res_file
;
TITL Gd1.2Mn0.9Zn3.1As4 P-3m1 lsf final refinement
CELL 0.71073   4.11800   4.11800  13.50050  90.0000  90.0000 120.0000
ZERR    1.00   0.00140   0.00140   0.00470   0.0000   0.0000   0.0000
LATT  1
SYMM -Y, X-Y, Z
SYMM -X+Y, -X, Z
SYMM Y, X, -Z
SYMM X-Y, -Y, -Z
SYMM -X, -X+Y, -Z
SFAC MN ZN AS GD
UNIT 0.93 3.07 4 1.24
TEMP 23
SIZE 0.028 0.034 0.039

L.S. 4
ACTA

WGHT    0.047800    5.202100
FVAR       0.13817   0.53250
GD1   4    0.000000    0.000000    0.500000     0.02019    0.03681    0.03681 =
         0.02520    0.00000    0.00000    0.01841
GD2   4    0.000000    0.000000    0.000000    10.08333    0.01636    0.01636 =
         0.01699    0.00000    0.00000    0.00818
ZN1   2    0.333333    0.666667    0.331827    20.16667    0.01476    0.01476 =
         0.03659    0.00000    0.00000    0.00738
ZN2   2    0.333333    0.666667    0.803735    10.16667    0.02009    0.02009 =
         0.01564    0.00000    0.00000    0.01005
MN    1    0.333333    0.666667    0.407916   -20.16667    0.02205    0.02205 =
         0.05739    0.00000    0.00000    0.01102
AS1   3    0.333333    0.666667    0.126109    10.16667    0.01052    0.01052 =
         0.01040    0.00000    0.00000    0.00526
AS2   3    0.333333    0.666667    0.619463    10.16667    0.01981    0.01981 =
         0.01336    0.00000    0.00000    0.00990
HKLF 4

REM  Gd1.2Mn0.9Zn3.1As4 P-3m1 lsf final refinement
REM R1 =  0.0475 for     282 Fo > 4sig(Fo)  and  0.0642 for all     352 data
REM     22 parameters refined using      0 restraints

END

WGHT      0.0464      5.6493

REM Highest difference peak  3.085,  deepest hole -3.439,  1-sigma level  0.538
Q1    1   0.3333  0.6667  0.0661  10.16667  0.05    2.06
Q2    1   0.2620  0.5239  0.6212  10.50000  0.05    1.46
Q3    1   0.2022  0.4044  0.5628  10.50000  0.05    1.34
Q4    1   0.1714  0.3429  0.8318  10.50000  0.05    1.20
Q5    1   0.0873  0.5437  0.2455  10.50000  0.05    1.19
Q6    1  -0.1129 -0.2257  0.4563  10.50000  0.05    1.18
Q7    1   0.0000  1.0000  0.8151  10.16667  0.05    1.16
Q8    1  -0.0206 -0.2576  0.0418  11.00000  0.05    1.08
Q9    1   0.0451  0.5226  0.3889  10.50000  0.05    1.08
Q10   1   0.0723  0.5362  0.6707  10.50000  0.05    1.06
Q11   1   0.1142  0.2285  0.2995  10.50000  0.05    1.05
Q12   1   0.1843  0.5921  0.9162  10.50000  0.05    1.03
Q13   1   0.3333  0.6667  0.2482  10.16667  0.05    1.03
Q14   1   0.5030  0.7515  0.1989  10.50000  0.05    1.03
Q15   1   0.1239  0.2477  0.7095  10.50000  0.05    1.01
Q16   1   0.5816  0.7908  0.7523  10.50000  0.05    1.00
Q17   1   0.1829  0.5915  0.7090  10.50000  0.05    0.97
Q18   1   0.2664  0.7336  0.7027  10.50000  0.05    0.97
Q19   1   0.7546  0.7901  0.6025  11.00000  0.05    0.96
Q20   1   0.3333  0.6667  0.8688  10.16667  0.05    0.95
;
_shelx_res_checksum              89720
_shelx_hkl_file
;
   0  -1 -20   21.50    4.69
   1  -1 -20   10.91    5.24
  -1   0 -20    4.87    3.38
   0   0 -20   -2.23    1.82
   1   0 -20   26.03    9.36
  -1   1 -20   20.88    5.99
   0   1 -20    2.36    2.65
   0  -2 -19    1.56    2.51
   1  -2 -19   -0.31    1.84
  -1  -1 -19    1.35    2.43
   0  -1 -19   10.30    3.35
   1  -1 -19    1.56    2.41
   2  -1 -19    0.69    2.27
  -1   0 -19    1.90    2.29
   0   0 -19    0.59    2.01
   1   0 -19   11.10    3.79
  -2   1 -19   -0.45    3.10
  -1   1 -19   13.09    3.02
   0   1 -19    3.31    2.07
   1   1 -19    0.15    2.43
  -2   2 -19    2.48    2.76
  -1   2 -19    1.88    1.96
   0   2 -19    8.15    4.77
  -1  -2 -18   27.15    7.58
   0  -2 -18   -0.16    1.65
   1  -2 -18    5.71    2.47
   2  -2 -18   48.86    8.24
   3  -2 -18    0.97    2.92
  -2  -1 -18   -1.36    2.74
  -1  -1 -18    2.69    2.23
   0  -1 -18   50.50    6.10
   1  -1 -18   -2.80    1.58
   2  -1 -18    4.50    2.68
   3  -1 -18   25.20    5.27
  -2   0 -18   33.11    5.24
  -1   0 -18    0.00    1.65
   0   0 -18    5.40    2.78
   1   0 -18   39.69    5.76
   2   0 -18    0.35    3.37
  -2   1 -18    2.87    2.38
  -1   1 -18   45.22    4.90
   0   1 -18    0.47    1.94
   1   1 -18    6.95    3.15
   2   1 -18    7.77    4.96
  -3   2 -18   22.37    6.99
  -2   2 -18   -1.45    1.99
  -1   2 -18    3.37    2.69
   0   2 -18   23.15    4.61
  -2   3 -18   26.31    7.21
  -1   3 -18    0.91    3.45
   0  -3 -17   -1.41    2.98
   1  -3 -17    1.62    2.24
   2  -3 -17    4.36    2.68
   3  -3 -17   -0.41    2.24
  -1  -2 -17    3.61    2.48
   0  -2 -17    8.92    2.49
   1  -2 -17    0.42    1.88
   2  -2 -17    9.98    3.07
   3  -2 -17    4.85    3.62
  -2  -1 -17    7.73    2.86
  -1  -1 -17    0.33    1.77
   0  -1 -17    5.98    2.57
   1  -1 -17   10.83    3.13
   2  -1 -17    1.14    1.84
   3  -1 -17    4.36    3.85
  -2   0 -17    4.47    2.34
  -1   0 -17   10.89    2.89
   0   0 -17    0.38    1.49
   1   0 -17   10.29    3.34
   2   0 -17    5.08    2.78
   3   0 -17    0.69    2.60
  -3   1 -17    6.81    3.29
  -2   1 -17    1.13    1.93
  -1   1 -17    8.39    2.28
   0   1 -17    8.81    3.00
   1   1 -17   -0.18    1.80
   2   1 -17    3.47    2.78
  -3   2 -17    2.89    2.74
  -2   2 -17    6.05    2.82
  -1   2 -17    0.31    1.83
   0   2 -17    6.78    3.02
   1   2 -17    4.93    2.95
  -2   3 -17    4.30    2.51
  -1   3 -17    2.96    2.56
   0   3 -17    0.26    3.07
   0  -3 -16   40.11    5.49
   1  -3 -16    0.54    1.84
   2  -3 -16    2.35    2.05
   3  -3 -16   40.06    5.45
  -1  -2 -16    0.66    1.62
   0  -2 -16    3.49    1.85
   1  -2 -16   75.35    6.65
   2  -2 -16    5.09    2.34
   3  -2 -16    3.22    2.80
  -2  -1 -16    3.90    2.16
  -1  -1 -16   83.16    6.70
   0  -1 -16    1.94    1.83
   1  -1 -16    5.68    2.45
   2  -1 -16   75.83    7.49
   3  -1 -16   -0.77    2.72
  -3   0 -16   39.02    9.03
  -2   0 -16    2.02    2.10
  -1   0 -16    2.83    1.91
   0   0 -16  106.77    5.48
   1   0 -16    4.77    2.53
   2   0 -16    3.41    2.34
   3   0 -16   28.11    5.33
  -3   1 -16    1.46    2.31
  -2   1 -16   88.28    5.14
  -1   1 -16    3.92    1.75
   0   1 -16    7.03    2.65
   1   1 -16   82.70    7.37
   2   1 -16    0.10    2.12
  -4   2 -16   40.24    8.95
  -3   2 -16    0.87    2.09
  -2   2 -16    0.56    1.91
  -1   2 -16   79.21    7.29
   0   2 -16    2.77    2.31
   1   2 -16    5.06    2.64
  -3   3 -16   32.81    7.73
  -2   3 -16    1.34    2.09
  -1   3 -16    1.09    2.12
   0   3 -16   43.77    6.74
   1  -4 -15   -0.83    1.84
   2  -4 -15   15.04    3.56
   3  -4 -15   -0.55    2.12
   0  -3 -15   18.79    3.74
   1  -3 -15    1.79    2.09
   2  -3 -15    0.26    1.75
   3  -3 -15   29.46    4.40
   4  -3 -15    2.63    3.58
  -2  -2 -15   15.94    6.00
  -1  -2 -15    1.54    1.67
   0  -2 -15   -1.15    1.15
   1  -2 -15   40.30    5.08
   2  -2 -15    0.75    1.67
   3  -2 -15    2.72    2.65
  -3  -1 -15    0.15    3.41
  -2  -1 -15   -0.26    1.57
  -1  -1 -15   46.63    5.57
   0  -1 -15    3.15    1.86
   1  -1 -15    2.88    1.93
   2  -1 -15   46.23    5.58
   3  -1 -15    1.09    3.41
   4  -1 -15    1.13    3.00
  -3   0 -15   16.36    6.24
  -2   0 -15    3.26    1.99
  -1   0 -15    1.10    1.21
   0   0 -15   59.36    4.47
   1   0 -15    1.12    1.75
   2   0 -15   -0.24    1.77
   3   0 -15   28.90    5.30
  -4   1 -15   -1.43    2.27
  -3   1 -15   -0.50    1.78
  -2   1 -15   42.78    4.23
  -1   1 -15    1.53    1.41
   0   1 -15    2.85    2.20
   1   1 -15   45.17    6.03
   2   1 -15    0.97    1.87
   3   1 -15   -0.11    2.91
  -4   2 -15   12.84    3.96
  -3   2 -15    1.62    1.98
  -2   2 -15    0.18    1.69
  -1   2 -15   46.40    6.19
   0   2 -15    2.99    2.19
   1   2 -15   -0.10    1.82
   2   2 -15   19.33    4.60
  -4   3 -15    0.08    3.44
  -3   3 -15   25.08    7.05
  -2   3 -15   -0.15    1.88
  -1   3 -15    1.74    1.83
   0   3 -15   33.30    5.75
   1   3 -15    0.37    1.93
  -3   4 -15    1.37    3.89
  -2   4 -15   37.80    9.26
  -1   4 -15    0.64    3.73
   0  -4 -14    0.47    3.31
   1  -4 -14   31.72    4.86
   2  -4 -14    1.32    1.86
   3  -4 -14   -0.19    1.77
   4  -4 -14   10.08    4.63
  -1  -3 -14   21.45    6.34
   0  -3 -14    2.61    1.91
   1  -3 -14   -0.19    1.48
   2  -3 -14   39.26    5.03
   3  -3 -14    1.51    1.89
   4  -3 -14   -1.31    2.98
  -2  -2 -14    1.72    3.17
  -1  -2 -14    1.36    1.33
   0  -2 -14   56.72    4.72
   1  -2 -14    4.52    1.97
   2  -2 -14    0.43    1.52
   3  -2 -14   45.11    7.31
  -3  -1 -14    0.22    2.82
  -2  -1 -14   48.44    5.51
  -1  -1 -14    2.33    1.77
   0  -1 -14   -0.76    1.05
   1  -1 -14   78.08    5.51
   2  -1 -14    5.21    3.34
   3  -1 -14    0.95    1.88
   4  -1 -14   28.17    5.02
  -3   0 -14    2.82    3.36
  -2   0 -14    0.78    1.20
  -1   0 -14   83.95    4.44
   0   0 -14    4.19    1.55
   1   0 -14    0.84    1.55
   2   0 -14   55.42    6.32
   3   0 -14    1.51    2.89
   4   0 -14    1.63    4.01
  -4   1 -14    0.89    2.26
  -3   1 -14   45.16    5.97
  -2   1 -14    4.98    1.60
  -1   1 -14    0.84    1.18
   0   1 -14   75.95    5.87
   1   1 -14    2.61    1.93
   2   1 -14   -0.92    1.58
   3   1 -14   24.34    4.90
  -4   2 -14    0.70    2.18
  -3   2 -14    0.33    1.67
  -2   2 -14   48.69    5.94
  -1   2 -14    4.79    2.30
   0   2 -14   -0.74    1.55
   1   2 -14   49.21    4.98
   2   2 -14    2.16    2.45
  -4   3 -14   20.57    7.25
  -3   3 -14    1.04    3.07
  -2   3 -14   -0.35    1.60
  -1   3 -14   48.31    6.39
   0   3 -14    2.81    1.87
   1   3 -14    2.67    2.04
  -3   4 -14   17.42    6.26
  -2   4 -14    2.37    2.46
  -1   4 -14    0.09    2.30
   0   4 -14    4.36    4.17
   0  -4 -13    9.72    4.71
   1  -4 -13    4.67    2.30
   2  -4 -13    0.05    1.49
   3  -4 -13    5.86    2.43
   4  -4 -13    6.76    4.23
  -1  -3 -13    7.26    4.14
   0  -3 -13    2.08    1.73
   1  -3 -13    9.50    2.79
   2  -3 -13    5.18    2.04
   3  -3 -13    1.17    1.73
   4  -3 -13   10.50    4.66
  -2  -2 -13    0.39    2.64
  -1  -2 -13   18.15    2.70
   0  -2 -13    6.45    1.76
   1  -2 -13    1.64    1.41
   2  -2 -13   16.25    3.32
   3  -2 -13    7.94    2.48
  -3  -1 -13   12.52    5.13
  -2  -1 -13    8.78    2.49
  -1  -1 -13    0.93    1.36
   0  -1 -13   20.91    3.34
   1  -1 -13   12.82    2.85
   2  -1 -13   -0.13    1.44
   3  -1 -13    6.78    2.55
   4  -1 -13   10.17    4.18
  -4   0 -13    0.49    3.45
  -3   0 -13    0.47    1.67
  -2   0 -13   27.17    3.02
  -1   0 -13   12.64    2.19
   0   0 -13    0.27    0.98
   1   0 -13   18.07    3.41
   2   0 -13    9.44    2.82
   3   0 -13    0.59    2.50
   4   0 -13    2.81    2.39
  -4   1 -13    6.69    2.72
  -3   1 -13    7.97    2.84
  -2   1 -13    1.33    1.12
  -1   1 -13   22.73    3.85
   0   1 -13   12.93    3.08
   1   1 -13    0.47    1.41
   2   1 -13    4.99    2.26
   3   1 -13    7.23    2.95
  -4   2 -13   -1.24    1.70
  -3   2 -13   11.98    3.25
  -2   2 -13   12.72    2.31
  -1   2 -13   -0.81    1.19
   0   2 -13   13.13    2.43
   1   2 -13    8.33    2.22
   2   2 -13   -0.76    1.85
  -4   3 -13    5.03    3.80
  -3   3 -13    1.33    1.82
  -2   3 -13    9.57    2.33
  -1   3 -13   13.06    2.64
   0   3 -13    1.14    1.57
   1   3 -13    1.86    1.82
  -4   4 -13    0.97    3.62
  -3   4 -13    5.47    2.95
  -2   4 -13    1.21    2.21
  -1   4 -13    4.35    2.81
   0   4 -13    5.45    3.18
   0  -4 -12    9.00    4.26
   1  -4 -12   35.91    4.74
   2  -4 -12    2.77    1.97
   3  -4 -12   14.95    3.43
   4  -4 -12   15.89    5.04
  -2  -3 -12    6.14    4.35
  -1  -3 -12   42.01    8.08
   0  -3 -12    6.30    1.74
   1  -3 -12   22.31    3.67
   2  -3 -12   64.56    5.20
   3  -3 -12    2.87    1.74
   4  -3 -12   17.19    5.44
  -3  -2 -12   18.99    6.34
  -2  -2 -12    3.01    2.74
  -1  -2 -12   22.46    2.98
   0  -2 -12   78.40    4.24
   1  -2 -12   11.50    2.59
   2  -2 -12   43.48    4.90
   3  -2 -12   53.62    5.47
  -3  -1 -12   11.11    4.85
  -2  -1 -12   71.98    5.37
  -1  -1 -12   14.99    2.82
   0  -1 -12   44.22    4.56
   1  -1 -12  103.14    4.39
   2  -1 -12    7.25    2.27
   3  -1 -12   29.04    5.62
   4  -1 -12   26.55    4.68
  -4   0 -12   37.47    8.80
  -3   0 -12    3.80    2.16
  -2   0 -12   34.57    3.39
  -1   0 -12  112.50    4.67
   0   0 -12   13.14    2.71
   1   0 -12   56.66    4.82
   2   0 -12   68.19    4.73
   3   0 -12    1.08    1.71
   4   0 -12   10.85    3.67
  -4   1 -12   13.13    3.38
  -3   1 -12   63.68    5.85
  -2   1 -12   10.60    2.02
  -1   1 -12   52.76    5.48
   0   1 -12  101.63    6.13
   1   1 -12   11.39    2.26
   2   1 -12   26.21    4.26
   3   1 -12   29.92    5.27
  -5   2 -12   19.85    4.69
  -4   2 -12    1.65    1.98
  -3   2 -12   21.04    3.88
  -2   2 -12   79.51    6.39
  -1   2 -12   11.10    2.19
   0   2 -12   42.64    4.13
   1   2 -12   44.34    5.45
   2   2 -12    0.49    1.91
   3   2 -12   13.41    6.14
  -4   3 -12   30.80    7.38
  -3   3 -12    4.97    1.82
  -2   3 -12   27.60    3.49
  -1   3 -12   48.36    4.62
   0   3 -12    2.65    1.55
   1   3 -12   19.95    4.30
   2   3 -12   16.54    6.67
  -4   4 -12   14.10    4.08
  -3   4 -12   25.79    4.85
  -2   4 -12    0.36    1.89
  -1   4 -12   12.56    3.39
   0   4 -12   15.89    3.95
  -3   5 -12    6.87    3.56
  -2   5 -12    9.36    3.52
   1  -5 -11   -1.72    2.76
   2  -5 -11   -0.18    2.67
   3  -5 -11   10.36    4.52
   4  -5 -11    0.49    2.96
   0  -4 -11    1.75    2.67
   1  -4 -11   17.50    4.71
   2  -4 -11    2.46    1.69
   3  -4 -11   -0.62    2.10
   4  -4 -11   12.00    4.36
   5  -4 -11   -1.46    2.86
  -2  -3 -11    1.59    2.89
  -1  -3 -11   15.81    5.28
   0  -3 -11    3.08    1.45
   1  -3 -11    0.06    1.12
   2  -3 -11   50.48    5.20
   3  -3 -11    2.11    1.61
   4  -3 -11   -0.99    2.19
  -3  -2 -11    6.99    4.45
  -2  -2 -11    2.55    2.95
  -1  -2 -11   -0.45    0.98
   0  -2 -11   43.84    3.65
   1  -2 -11    1.05    1.14
   2  -2 -11    0.01    1.15
   3  -2 -11   47.90    5.06
   5  -2 -11    2.14    3.40
  -3  -1 -11    0.37    2.13
  -2  -1 -11   30.46    3.94
  -1  -1 -11    4.06    1.65
   0  -1 -11    0.06    0.75
   1  -1 -11   86.70    3.87
   2  -1 -11    0.98    1.29
   3  -1 -11   -0.11    1.17
   4  -1 -11   34.11    7.45
   5  -1 -11    0.79    3.80
  -4   0 -11    9.41    3.00
  -3   0 -11    1.22    1.57
  -2   0 -11    0.46    0.85
  -1   0 -11   73.75    3.69
   0   0 -11    2.95    1.35
   1   0 -11    0.88    0.88
   2   0 -11   60.55    4.29
   3   0 -11    0.57    1.58
   4   0 -11    1.34    2.18
  -5   1 -11   -0.51    2.00
  -4   1 -11    1.52    1.72
  -3   1 -11   33.55    4.57
  -2   1 -11    3.09    1.17
  -1   1 -11    0.97    1.22
   0   1 -11   85.23    3.85
   1   1 -11    2.34    1.50
   2   1 -11    0.13    1.51
   3   1 -11   28.29    4.93
   4   1 -11   -1.44    3.91
  -5   2 -11   11.37    3.47
  -4   2 -11    0.65    1.49
  -3   2 -11    0.16    1.29
  -2   2 -11   56.55    3.91
  -1   2 -11    1.19    1.04
   0   2 -11    0.70    1.00
   1   2 -11   47.60    5.64
   2   2 -11   -0.26    1.75
   3   2 -11   -0.06    2.32
  -5   3 -11    0.16    3.42
  -4   3 -11   12.98    3.66
  -3   3 -11    2.66    1.49
  -2   3 -11   -0.12    1.11
  -1   3 -11   49.23    4.60
   0   3 -11   -0.13    1.13
   1   3 -11   -0.01    1.66
   2   3 -11   13.47    4.24
  -4   4 -11    1.63    2.36
  -3   4 -11   21.26    4.18
  -2   4 -11    2.40    2.18
  -1   4 -11   -0.47    1.97
   0   4 -11   16.41    3.85
   1   4 -11    0.48    4.23
  -4   5 -11   -0.26    2.52
  -3   5 -11    0.74    2.46
  -2   5 -11    7.14    3.52
  -1   5 -11    1.78    4.00
   1  -5 -10    9.74    4.61
   2  -5 -10   41.88    8.21
   3  -5 -10    6.10    4.24
   4  -5 -10    5.43    3.81
   0  -4 -10   50.25    7.82
   1  -4 -10   14.80    4.58
   2  -4 -10   28.16    3.92
   3  -4 -10   48.29    7.81
   4  -4 -10    5.75    3.14
   5  -4 -10   14.39    5.10
  -2  -3 -10   44.10    8.70
  -1  -3 -10   17.00    3.24
   0  -3 -10   43.68    3.75
   1  -3 -10  101.04    5.47
   2  -3 -10   23.98    3.38
   3  -3 -10   43.63    4.51
   4  -3 -10   45.71    7.12
   5  -3 -10    4.59    3.38
  -3  -2 -10    5.41    3.76
  -2  -2 -10   29.30    6.89
  -1  -2 -10  101.80    4.45
   0  -2 -10   45.98    3.11
   1  -2 -10   95.78    4.96
   2  -2 -10  122.43    5.79
   3  -2 -10   29.56    3.85
   4  -2 -10   21.60    4.81
   5  -2 -10   32.67    7.74
  -4  -1 -10    6.78    4.06
  -3  -1 -10   64.26   10.19
  -2  -1 -10   31.38    3.69
  -1  -1 -10   89.98    3.74
   0  -1 -10  189.15    5.11
   1  -1 -10   68.67    3.29
   2  -1 -10   97.13    3.83
   3  -1 -10   80.15    7.07
   4  -1 -10   14.62    5.08
   5  -1 -10   15.77    6.18
  -4   0 -10    7.95    2.93
  -3   0 -10   40.51    4.94
  -2   0 -10  135.41    4.75
  -1   0 -10   70.62    3.39
   0   0 -10  132.58    5.89
   1   0 -10  179.95    5.14
   2   0 -10   47.96    4.73
   3   0 -10   51.08    5.60
   4   0 -10   45.02    9.44
  -5   1 -10   12.97    3.63
  -4   1 -10   48.08    5.82
  -3   1 -10   30.56    4.23
  -2   1 -10   89.47    3.89
  -1   1 -10  186.75    5.30
   0   1 -10   69.72    3.36
   1   1 -10   95.00    5.00
   2   1 -10   92.80    5.88
   3   1 -10   12.37    3.47
   4   1 -10   12.66    4.09
  -5   2 -10    2.40    2.20
  -4   2 -10   26.22    4.31
  -3   2 -10   96.73    4.80
  -2   2 -10   47.00    3.98
  -1   2 -10   93.35    4.32
   0   2 -10  125.31    5.08
   1   2 -10   27.12    4.18
   2   2 -10   34.06    5.18
   3   2 -10   21.13    4.48
  -5   3 -10   36.28    8.29
  -4   3 -10    8.99    3.04
  -3   3 -10   42.46    5.37
  -2   3 -10  102.25    5.02
  -1   3 -10   30.04    3.57
   0   3 -10   48.25    8.16
   1   3 -10   51.02    6.53
   2   3 -10    8.12    3.62
  -5   4 -10   11.28    3.74
  -4   4 -10   37.15    5.86
  -3   4 -10   10.46    3.19
  -2   4 -10   31.81    4.99
  -1   4 -10   42.49    5.62
   0   4 -10    8.22    3.19
   1   4 -10   14.79    4.31
  -4   5 -10   11.61    3.63
  -3   5 -10   23.85    4.25
  -2   5 -10    5.97    3.08
  -1   5 -10   10.98    3.87
   1  -5  -9   11.25    4.68
   2  -5  -9    8.42    3.87
   3  -5  -9   -1.36    1.93
   4  -5  -9    5.77    3.51
   0  -4  -9    7.87    3.70
   1  -4  -9    0.21    1.73
   2  -4  -9    8.89    2.31
   3  -4  -9   18.37    4.75
   4  -4  -9    1.18    1.76
   5  -4  -9    3.36    3.50
  -2  -3  -9    6.85    3.83
  -1  -3  -9    0.87    1.35
   0  -3  -9   13.41    2.07
   1  -3  -9   23.84    3.11
   2  -3  -9   -0.51    0.99
   3  -3  -9   10.87    2.32
   4  -3  -9   14.40    3.88
   5  -3  -9   -1.59    2.38
  -3  -2  -9    1.15    2.49
  -2  -2  -9   11.60    4.32
  -1  -2  -9   26.91    2.66
   0  -2  -9    0.41    0.77
   1  -2  -9   18.84    2.68
   2  -2  -9   40.93    3.64
   3  -2  -9    0.50    1.14
   4  -2  -9   12.46    3.93
  -4  -1  -9    5.35    3.86
  -3  -1  -9   11.49    4.46
  -2  -1  -9    0.04    0.76
  -1  -1  -9   21.57    2.24
   0  -1  -9   52.23    2.59
   1  -1  -9    0.73    0.56
   2  -1  -9   20.47    2.65
   3  -1  -9   26.14    3.14
   4  -1  -9    2.21    2.43
   5  -1  -9    5.04    4.16
  -4   0  -9   -1.85    1.44
  -3   0  -9   15.02    3.02
  -2   0  -9   37.34    3.07
  -1   0  -9   -0.33    0.52
   0   0  -9   21.98    1.69
   1   0  -9   58.16    2.85
   2   0  -9    1.42    1.22
   3   0  -9    9.41    3.95
   4   0  -9   18.08    6.00
  -5   1  -9    2.86    2.25
  -4   1  -9   12.51    3.17
  -3   1  -9    0.51    1.00
  -2   1  -9   21.90    1.97
  -1   1  -9   52.72    2.82
   0   1  -9    0.68    0.83
   1   1  -9   21.80    3.17
   2   1  -9   37.00    4.62
   3   1  -9    0.78    1.69
   4   1  -9    6.17    3.02
  -5   2  -9   -0.53    1.71
  -4   2  -9   11.51    2.37
  -3   2  -9   32.76    3.42
  -2   2  -9    0.42    0.91
  -1   2  -9   19.26    2.46
   0   2  -9   49.83    4.26
   1   2  -9    2.52    1.68
   2   2  -9   11.91    3.23
   3   2  -9   16.88    3.85
  -5   3  -9    6.90    3.07
  -4   3  -9   -0.03    1.60
  -3   3  -9   15.72    3.36
  -2   3  -9   35.93    3.63
  -1   3  -9    0.42    1.02
   0   3  -9   14.00    3.24
   1   3  -9   28.99    4.94
   2   3  -9   -0.40    2.29
  -5   4  -9    3.34    3.03
  -4   4  -9   12.51    3.70
  -3   4  -9    0.59    1.76
  -2   4  -9    7.33    2.76
  -1   4  -9   16.96    3.73
   0   4  -9    1.28    2.21
   1   4  -9    0.56    2.70
  -4   5  -9    2.67    2.63
  -3   5  -9    7.53    3.08
  -2   5  -9   -0.79    1.99
  -1   5  -9    2.86    4.14
   0  -5  -8   -0.76    2.94
   1  -5  -8   23.56    5.88
   2  -5  -8    2.18    2.82
   3  -5  -8    0.94    2.55
   4  -5  -8   20.70    5.51
   0  -4  -8    1.46    2.50
   1  -4  -8    2.76    2.36
   2  -4  -8   42.12    4.32
   3  -4  -8    3.25    2.34
   4  -4  -8    0.26    2.10
   5  -4  -8   12.06    4.65
  -2  -3  -8    4.73    3.46
  -1  -3  -8    1.41    1.45
   0  -3  -8   58.60    4.06
   1  -3  -8    6.21    1.71
   2  -3  -8    4.85    1.53
   3  -3  -8   57.30    3.72
   4  -3  -8    1.81    2.07
   5  -3  -8    2.36    2.93
  -3  -2  -8    0.74    2.40
  -2  -2  -8   45.93    7.84
  -1  -2  -8   10.54    2.16
   0  -2  -8    7.02    1.41
   1  -2  -8   97.90    3.65
   2  -2  -8   14.34    1.75
   3  -2  -8    8.82    1.96
   4  -2  -8   33.64    5.74
  -4  -1  -8   18.97    5.78
  -3  -1  -8    4.43    1.94
  -2  -1  -8    3.90    1.54
  -1  -1  -8  106.56    3.57
   0  -1  -8   18.85    1.85
   1  -1  -8   15.39    1.39
   3  -1  -8    5.67    2.17
   4  -1  -8    8.64    3.90
   5  -1  -8   18.13    6.28
  -5   0  -8   -0.90    3.03
  -4   0  -8    1.99    1.84
  -3   0  -8   57.38    4.54
  -2   0  -8   14.50    1.57
  -1   0  -8   10.57    1.14
   0   0  -8  137.68    5.26
   1   0  -8   16.35    2.24
   2   0  -8   10.49    1.65
   3   0  -8   51.18    7.85
   4   0  -8    1.83    3.43
  -5   1  -8   11.84    3.36
  -4   1  -8    4.45    1.73
  -3   1  -8    3.59    1.30
  -2   1  -8  104.90    3.12
  -1   1  -8   18.68    2.07
   0   1  -8   15.56    1.93
   1   1  -8   99.35    5.00
   2   1  -8    4.68    1.75
   3   1  -8    5.35    2.38
   4   1  -8   20.23    6.89
  -5   2  -8    1.21    1.51
  -4   2  -8   45.72    4.04
  -3   2  -8    9.15    1.91
  -2   2  -8    7.17    1.57
  -1   2  -8  102.98    4.28
   0   2  -8    7.78    2.10
   1   2  -8    8.27    2.39
   2   2  -8   42.98    5.42
   3   2  -8   -1.56    1.95
  -5   3  -8    1.22    2.11
  -4   3  -8    3.38    2.03
  -3   3  -8   57.64    5.17
  -2   3  -8    6.61    1.72
  -1   3  -8    7.37    1.82
   0   3  -8   64.37    6.49
   1   3  -8    2.92    2.18
   2   3  -8    4.16    2.99
  -5   4  -8   16.56    4.19
  -4   4  -8    4.38    2.24
  -3   4  -8    3.38    2.10
  -2   4  -8   43.00    5.52
  -1   4  -8    0.25    1.84
   0   4  -8    4.07    2.53
   1   4  -8   15.61    4.12
  -5   5  -8   -0.14    3.57
  -4   5  -8   17.95    4.46
  -3   5  -8    0.61    2.32
  -2   5  -8    0.43    2.46
  -1   5  -8    9.26    4.97
   0  -5  -7    9.25    3.98
   1  -5  -7    2.22    2.22
   2  -5  -7   -0.99    1.85
   3  -5  -7   12.88    4.46
   4  -5  -7    4.18    3.04
   5  -5  -7    1.49    3.14
   0  -4  -7    2.42    2.47
   1  -4  -7   23.67    5.06
   2  -4  -7    4.77    2.59
   3  -4  -7    4.03    2.41
   4  -4  -7   11.71    3.82
   5  -4  -7    3.37    3.34
  -2  -3  -7    3.68    2.78
  -1  -3  -7   24.98    3.49
   0  -3  -7    1.72    1.26
   1  -3  -7    8.14    1.84
   2  -3  -7   31.09    3.30
   3  -3  -7    4.75    1.46
   4  -3  -7    2.72    2.10
   5  -3  -7    9.14    3.97
  -3  -2  -7   17.12    5.45
  -2  -2  -7    1.01    2.17
  -1  -2  -7    6.08    1.61
   0  -2  -7   42.33    2.80
   1  -2  -7    2.66    0.85
   2  -2  -7   10.92    1.55
   3  -2  -7   20.82    2.68
   4  -2  -7    5.48    2.70
   5  -2  -7    6.02    2.91
  -4  -1  -7    1.18    2.53
  -3  -1  -7    2.98    1.62
  -2  -1  -7   28.86    5.14
  -1  -1  -7    1.42    0.70
   0  -1  -7   14.37    1.53
   1  -1  -7   49.26    2.35
   3  -1  -7    6.29    2.19
   5  -1  -7    8.61    4.55
  -5   0  -7   -0.09    2.08
  -4   0  -7   10.09    2.70
  -3   0  -7    2.62    1.25
  -2   0  -7   10.07    1.25
  -1   0  -7   52.00    1.83
   0   0  -7    3.26    0.75
   1   0  -7   17.76    2.16
   2   0  -7   25.53    2.22
   3   0  -7    7.88    3.42
   4   0  -7    1.62    2.85
   5   0  -7    1.44    4.24
  -5   1  -7    1.64    2.14
  -4   1  -7    3.41    1.48
  -3   1  -7   30.73    3.04
  -2   1  -7    2.17    0.67
  -1   1  -7   19.37    2.02
   0   1  -7   40.18    2.27
   1   1  -7    5.24    1.64
   2   1  -7    9.07    2.25
   3   1  -7    4.36    3.18
   4   1  -7    8.90    5.20
  -5   2  -7   13.60    2.87
  -4   2  -7    2.27    1.38
  -3   2  -7    6.56    1.60
  -2   2  -7   35.08    3.06
  -1   2  -7    4.85    1.32
   0   2  -7   15.22    2.61
   1   2  -7   15.26    2.99
   2   2  -7    6.47    2.24
   3   2  -7    1.43    2.08
  -5   3  -7    2.58    2.25
  -4   3  -7   16.49    3.38
  -3   3  -7    2.58    1.70
  -2   3  -7    8.85    1.82
  -1   3  -7   20.43    2.69
   0   3  -7    5.72    2.20
   1   3  -7    7.43    2.75
   2   3  -7    1.93    2.29
  -5   4  -7    1.57    2.31
  -4   4  -7    3.55    2.31
  -3   4  -7   18.10    3.68
  -2   4  -7    3.86    2.11
  -1   4  -7    4.77    2.36
   0   4  -7    5.42    2.70
   1   4  -7    2.24    2.70
  -5   5  -7    4.35    3.18
  -4   5  -7    3.74    2.41
  -3   5  -7   -0.14    2.04
  -2   5  -7    5.69    4.66
  -1   5  -7   -0.13    3.68
   0   5  -7    2.75    5.18
   0  -5  -6   35.25    6.56
   1  -5  -6   21.56    5.51
   2  -5  -6    7.70    3.47
   3  -5  -6   48.92    7.90
   4  -5  -6   13.16    4.35
   5  -5  -6    1.02    2.90
   0  -4  -6   24.33    5.04
   1  -4  -6   91.02    7.74
   2  -4  -6   26.22    5.13
   3  -4  -6   12.56    3.73
   4  -4  -6   71.07    6.89
   5  -4  -6    8.90    4.20
  -3  -3  -6   14.00    5.52
  -2  -3  -6    6.33    3.63
  -1  -3  -6   97.10    5.20
   0  -3  -6   48.65    3.48
   1  -3  -6   39.87    2.89
   2  -3  -6  186.20    5.90
   3  -3  -6   33.57    3.18
   4  -3  -6   12.04    3.38
   5  -3  -6   44.14    8.08
   6  -3  -6    9.70    4.62
  -3  -2  -6   47.48    8.36
  -2  -2  -6   35.14    6.06
  -1  -2  -6   42.11    3.03
   0  -2  -6  264.10    5.36
   1  -2  -6   74.41    2.75
   2  -2  -6   49.22    2.38
   3  -2  -6  192.62    5.87
   4  -2  -6   21.52    4.72
   5  -2  -6    3.87    2.91
  -4  -1  -6   17.53    3.96
  -3  -1  -6   18.28    3.18
  -2  -1  -6  185.52    6.70
  -1  -1  -6   79.56    2.30
   0  -1  -6   81.93    2.37
   1  -1  -6  424.24    5.93
   3  -1  -6   39.75    5.19
   4  -1  -6  105.83    7.48
   5  -1  -6   10.38    4.88
  -5   0  -6    2.64    2.41
  -4   0  -6   71.16    6.37
  -3   0  -6   48.65    3.80
  -2   0  -6   55.58    2.19
  -1   0  -6  418.45    4.85
   0   0  -6  100.93    2.48
   1   0  -6   77.76    3.34
   2   0  -6  283.55    6.22
   3   0  -6   34.75    6.20
   4   0  -6    5.80    3.88
   5   0  -6   21.53    7.82
  -5   1  -6   13.89    2.89
  -4   1  -6   17.64    2.79
  -3   1  -6  181.04    5.69
  -2   1  -6   78.43    2.35
  -1   1  -6   77.51    2.95
   0   1  -6  430.13    8.14
   1   1  -6   60.19    3.66
   2   1  -6   36.57    6.67
   3   1  -6  100.08    9.93
   4   1  -6    8.41    5.17
  -5   2  -6   48.18    5.02
  -4   2  -6   35.87    3.73
  -3   2  -6   35.59    2.94
  -2   2  -6  271.20    6.11
  -1   2  -6   66.34    3.20
   0   2  -6   52.15    3.69
   1   2  -6  205.32    7.70
   2   2  -6   16.04    3.34
   3   2  -6    2.36    2.13
  -6   3  -6   10.18    5.56
  -5   3  -6   14.15    3.90
  -4   3  -6   89.44    6.14
  -3   3  -6   44.64    5.01
  -2   3  -6   34.69    2.86
  -1   3  -6  204.70    6.08
   0   3  -6   27.83    4.11
   1   3  -6   14.69    3.53
   2   3  -6   70.27   11.71
   3   3  -6    3.96    4.56
  -5   4  -6   11.55    3.53
  -4   4  -6   12.73    3.43
  -3   4  -6  102.21    6.33
  -2   4  -6   29.47    4.47
  -1   4  -6   13.07    3.24
   0   4  -6   92.07    7.38
   1   4  -6    7.85    3.43
  -5   5  -6   31.77    5.59
  -4   5  -6   15.78    4.13
  -3   5  -6    2.04    3.62
  -2   5  -6   42.02    8.33
  -1   5  -6    4.03    4.11
   0   5  -6    2.04    4.75
   3  -6  -5    3.54    3.99
   0  -5  -5    6.14    3.32
   1  -5  -5   11.21    4.11
   2  -5  -5    0.06    1.68
   3  -5  -5    3.13    2.45
   4  -5  -5   11.33    3.90
   5  -5  -5    0.57    2.82
   0  -4  -5    0.23    1.70
   1  -4  -5    4.86    2.47
   2  -4  -5   26.75    5.02
   3  -4  -5    0.79    1.57
   4  -4  -5    7.60    3.03
   5  -4  -5   20.82    5.73
  -3  -3  -5    5.07    3.71
  -2  -3  -5    3.01    2.55
  -1  -3  -5    8.44    2.12
   0  -3  -5   43.00    3.13
   1  -3  -5    0.76    1.15
   2  -3  -5    9.42    1.67
   3  -3  -5   40.54    4.34
   4  -3  -5   -1.11    1.52
   5  -3  -5    5.34    2.93
   6  -3  -5    5.79    4.41
  -3  -2  -5    3.18    2.68
  -2  -2  -5   30.46    5.84
  -1  -2  -5    0.84    0.69
   0  -2  -5    9.51    1.30
   1  -2  -5   97.62    2.93
   2  -2  -5    1.09    0.57
   3  -2  -5   15.82    2.13
   4  -2  -5   30.75    5.42
   5  -2  -5    1.09    2.12
  -4  -1  -5    9.22    3.08
  -3  -1  -5    2.24    1.51
  -2  -1  -5    8.61    1.86
  -1  -1  -5   93.97    2.45
   0  -1  -5    0.05    0.32
   1  -1  -5   11.99    1.73
   3  -1  -5    3.04    1.69
   4  -1  -5    4.87    2.37
   5  -1  -5    6.11    4.29
  -5   0  -5    1.94    2.19
  -4   0  -5    4.85    1.77
  -3   0  -5   32.23    3.27
  -2   0  -5    0.42    0.64
  -1   0  -5    9.35    0.94
   0   0  -5  164.19    2.93
   1   0  -5    2.89    1.35
   2   0  -5   13.43    1.88
   3   0  -5   58.80    8.31
   4   0  -5    1.15    2.48
   5   0  -5    0.34    4.09
  -5   1  -5    4.94    2.06
  -4   1  -5    2.36    1.23
  -3   1  -5    9.40    1.77
  -2   1  -5   94.45    2.40
  -1   1  -5    0.82    0.59
   0   1  -5   13.68    1.91
   1   1  -5  102.79    4.45
   2   1  -5   -0.14    1.59
   3   1  -5    7.71    3.87
   4   1  -5   15.06    6.37
  -6   2  -5   -1.84    3.80
  -5   2  -5    6.96    2.05
  -4   2  -5   24.09    2.99
  -3   2  -5    0.29    0.70
  -2   2  -5   11.89    1.68
  -1   2  -5  105.09    3.73
   0   2  -5    1.11    1.08
   1   2  -5    9.53    2.22
   2   2  -5   32.45    4.52
   3   2  -5    0.77    3.19
  -6   3  -5    4.87    3.02
  -5   3  -5    2.13    2.16
  -4   3  -5    4.69    2.11
  -3   3  -5   45.34    4.82
  -2   3  -5    0.99    0.88
  -1   3  -5   10.86    1.85
   0   3  -5   48.31    5.05
   1   3  -5    1.14    1.68
   2   3  -5   11.38    3.55
   3   3  -5    3.94    3.21
  -5   4  -5    4.37    2.65
  -4   4  -5   -0.02    1.48
  -3   4  -5    5.64    2.17
  -2   4  -5   40.59    4.96
  -1   4  -5    0.26    1.53
   0   4  -5    7.85    2.90
   1   4  -5   20.41    6.71
  -5   5  -5    5.24    3.11
  -4   5  -5   10.87    5.04
  -3   5  -5    1.32    2.95
  -2   5  -5    0.84    3.15
  -1   5  -5    4.35    4.12
   0   5  -5    3.75    5.44
  -3   6  -5   -0.49    4.46
   3  -6  -4    2.91    2.61
   4  -6  -4   37.52    7.52
   0  -5  -4   11.81    4.19
   1  -5  -4   10.84    3.84
   2  -5  -4   60.56    8.70
   3  -5  -4    7.15    3.13
   4  -5  -4    3.12    2.65
   5  -5  -4   31.02    6.90
   0  -4  -4   84.31    7.26
   1  -4  -4   20.30    4.30
   2  -4  -4   15.96    3.93
   3  -4  -4  106.56    7.89
   4  -4  -4   12.31    3.62
   5  -4  -4    3.68    3.13
  -3  -3  -4    0.78    3.12
  -2  -3  -4   71.52    7.97
  -1  -3  -4   29.28    3.49
   0  -3  -4   32.88    3.38
   1  -3  -4  215.94    9.58
   2  -3  -4   33.67    2.55
   3  -3  -4   24.14    4.25
   4  -3  -4  118.35    8.61
   5  -3  -4    9.71    3.98
   6  -3  -4    2.56    3.66
  -3  -2  -4   13.29    4.54
  -2  -2  -4   19.03    3.01
  -1  -2  -4  226.63    4.85
   0  -2  -4   51.90    1.71
   1  -2  -4   48.79    1.86
   2  -2  -4  322.63    4.91
   3  -2  -4   31.75    2.14
   4  -2  -4   10.79    3.44
   5  -2  -4   62.16    8.95
  -4  -1  -4    4.73    2.34
  -3  -1  -4  104.69    5.88
  -2  -1  -4   39.49    2.06
  -1  -1  -4   52.09    1.97
   0  -1  -4  536.21    4.60
   1  -1  -4   79.14    2.85
   3  -1  -4  221.21    8.92
   4  -1  -4   18.46    4.24
  -5   0  -4   33.59    5.40
  -4   0  -4   14.43    2.61
  -3   0  -4   25.68    2.91
  -2   0  -4  325.22    4.05
  -1   0  -4   81.44    1.90
   0   0  -4   81.56    1.89
   1   0  -4  540.37   10.93
   2   0  -4   45.30    3.15
   3   0  -4   14.94    2.45
   4   0  -4   84.04   11.75
   5   0  -4    3.85    4.62
  -5   1  -4    4.50    1.90
  -4   1  -4  111.60    5.13
  -3   1  -4   37.09    2.94
  -2   1  -4   48.90    1.52
  -1   1  -4  540.91    6.56
   0   1  -4   74.89    3.20
   1   1  -4   44.50    1.87
   2   1  -4  230.82   12.21
   3   1  -4   20.09    5.76
   4   1  -4    3.65    4.06
  -6   2  -4   24.95    8.28
  -5   2  -4   12.87    2.62
  -4   2  -4   14.90    2.36
  -3   2  -4  222.80    5.71
  -2   2  -4   53.21    2.47
  -1   2  -4   43.96    2.32
   0   2  -4  325.10    4.00
   1   2  -4   36.15    4.16
   2   2  -4   12.89    4.74
   3   2  -4   73.89   12.39
  -6   3  -4    0.66    2.25
  -5   3  -4   70.47    7.53
  -4   3  -4   22.31    3.87
  -3   3  -4   25.59    3.75
  -2   3  -4  220.11    7.50
  -1   3  -4   32.35    2.17
   0   3  -4   17.51    3.22
   1   3  -4  126.96   10.61
   2   3  -4    5.31    2.50
   3   3  -4    0.61    2.47
  -6   4  -4    6.23    4.53
  -5   4  -4    3.42    2.37
  -4   4  -4   86.58    6.57
  -3   4  -4   19.14    3.37
  -2   4  -4   15.50    3.13
  -1   4  -4  110.76    6.46
   0   4  -4   10.66    2.89
   1   4  -4   -1.20    2.76
   2   4  -4   20.14    9.09
  -5   5  -4    1.66    3.80
  -4   5  -4    1.48    3.55
  -2   5  -4    5.70    3.77
  -1   5  -4    2.67    4.14
  -3   6  -4   -0.72    3.95
   2  -6  -3    1.32    2.59
   3  -6  -3   -1.06    2.13
   4  -6  -3    9.06    4.00
   0  -5  -3    0.39    2.47
   1  -5  -3    1.21    1.92
   2  -5  -3   18.75    4.74
   3  -5  -3    0.27    1.88
   4  -5  -3    1.71    2.44
   5  -5  -3    6.59    3.76
   0  -4  -3   30.41    5.18
   1  -4  -3    2.73    2.00
   2  -4  -3    5.42    2.56
   3  -4  -3   33.17    5.43
   4  -4  -3    2.88    1.94
   5  -4  -3    1.80    2.49
   6  -4  -3    9.90    4.53
  -3  -3  -3    0.24    3.07
  -2  -3  -3   20.28    5.22
  -1  -3  -3    1.38    1.03
   0  -3  -3   10.04    1.85
   1  -3  -3   53.54    4.79
   2  -3  -3    1.90    1.55
   3  -3  -3    2.21    1.68
   4  -3  -3   37.76    6.23
   5  -3  -3    2.54    2.81
   6  -3  -3    0.00    3.04
  -4  -2  -3    8.93    4.89
  -3  -2  -3    1.82    1.69
  -2  -2  -3    7.92    2.08
  -1  -2  -3   51.51    2.40
   0  -2  -3    0.29    0.54
   1  -2  -3    9.77    0.98
   2  -2  -3   80.35    2.79
   3  -2  -3    2.45    0.75
   4  -2  -3   -0.07    1.41
   5  -2  -3   22.05    5.48
   6  -2  -3    3.45    3.54
  -4  -1  -3    4.01    2.30
  -3  -1  -3   30.93    4.07
  -2  -1  -3    0.76    0.49
  -1  -1  -3   11.77    1.18
   0  -1  -3  118.30    1.76
   1  -1  -3    1.57    0.91
   3  -1  -3   54.70    4.51
   4  -1  -3    2.14    2.03
   5  -1  -3    0.90    2.35
  -5   0  -3    9.32    3.07
  -4   0  -3    0.52    1.18
  -3   0  -3    7.40    1.66
  -2   0  -3   71.69    3.00
  -1   0  -3    0.80    0.33
   0   0  -3    8.69    0.75
   2   0  -3    4.14    1.28
   3   0  -3    0.64    0.97
   4   0  -3   31.59    7.44
   5   0  -3   -0.83    3.90
  -5   1  -3    2.59    1.68
  -4   1  -3   22.57    2.96
  -3   1  -3    0.92    0.71
  -2   1  -3    9.02    1.28
  -1   1  -3  120.72    2.88
   0   1  -3    2.56    0.90
   1   1  -3    3.02    0.86
   2   1  -3   59.78    3.42
   3   1  -3    6.24    3.73
   4   1  -3    1.46    3.75
  -6   2  -3    8.39    3.69
  -5   2  -3    1.48    1.45
  -4   2  -3    5.44    1.57
  -3   2  -3   49.95    2.72
  -2   2  -3    2.26    0.74
  -1   2  -3    6.18    0.83
   0   2  -3   82.63    2.38
   1   2  -3    5.68    1.64
   2   2  -3    2.76    2.86
   3   2  -3   30.38    8.12
   4   2  -3   -1.80    4.42
  -6   3  -3    2.99    2.44
  -5   3  -3   13.75    3.41
  -4   3  -3    2.42    1.58
  -3   3  -3    2.91    1.41
  -2   3  -3   57.16    2.78
  -1   3  -3    2.97    0.92
   0   3  -3    1.71    1.28
   1   3  -3   36.38    4.82
   2   3  -3    4.07    2.31
   3   3  -3    1.59    3.04
  -6   4  -3    1.33    2.57
  -5   4  -3   -0.51    1.85
  -4   4  -3   21.70    3.88
  -3   4  -3    2.76    1.60
  -2   4  -3    1.48    0.94
  -1   4  -3   35.53    4.28
   0   4  -3    2.41    3.13
   1   4  -3   -0.03    3.41
   2   4  -3    5.06    5.63
  -5   5  -3    0.86    3.73
  -4   5  -3    3.59    3.55
  -3   5  -3    7.73    4.02
  -2   5  -3    3.04    3.29
  -1   5  -3   -0.52    2.98
   0   5  -3    1.65    4.55
  -4   6  -3    0.93    4.07
  -3   6  -3    2.70    4.84
  -2   6  -3    6.38    5.74
   2  -6  -2    4.46    3.35
   3  -6  -2   -0.65    2.21
   4  -6  -2   25.04    6.38
   0  -5  -2    2.40    2.32
   1  -5  -2    0.39    1.84
   2  -5  -2   41.67    7.02
   3  -5  -2    3.07    2.40
   4  -5  -2    1.21    2.08
   5  -5  -2   25.01    6.46
   0  -4  -2   55.35    5.65
   1  -4  -2    9.99    3.17
   2  -4  -2    0.66    1.31
   3  -4  -2   64.54    5.98
   4  -4  -2    3.37    1.61
   5  -4  -2    3.89    2.97
   6  -4  -2   17.24    5.77
  -3  -3  -2   -0.06    2.97
  -2  -3  -2   55.54    8.84
  -1  -3  -2   14.93    2.51
   0  -3  -2    0.39    0.79
   1  -3  -2  107.09    6.47
   2  -3  -2   19.59    3.54
   3  -3  -2    6.31    2.27
   4  -3  -2   59.38    6.18
   5  -3  -2    2.28    2.47
   6  -3  -2    2.56    3.26
  -4  -2  -2   29.33    7.87
  -3  -2  -2    6.58    2.44
  -2  -2  -2    1.11    1.13
  -1  -2  -2  119.56    3.52
   0  -2  -2   37.28    2.20
   1  -2  -2    5.45    0.68
   2  -2  -2  155.31    3.46
   3  -2  -2   17.51    2.19
   4  -2  -2    6.61    2.76
   5  -2  -2   34.97    6.98
   6  -2  -2    2.96    3.50
  -4  -1  -2    0.86    1.72
  -3  -1  -2   66.97    4.71
  -2  -1  -2   27.61    3.16
  -1  -1  -2    2.14    0.60
   0  -1  -2  260.82    2.43
   1  -1  -2   53.55    1.82
   2  -1  -2    9.02    1.19
   3  -1  -2   97.85    6.05
   4  -1  -2    4.37    2.47
   5  -1  -2    0.62    2.25
  -5   0  -2   24.56    4.80
  -4   0  -2    7.86    2.12
  -3   0  -2    1.34    0.90
  -2   0  -2  160.48    4.22
  -1   0  -2   57.46    1.81
   0   0  -2   10.42    0.87
   1   0  -2  259.00    5.03
   2   0  -2   25.23    2.63
   3   0  -2    3.85    1.83
   4   0  -2   47.96    5.58
   5   0  -2    1.22    4.17
  -5   1  -2    1.77    1.49
  -4   1  -2   60.68    4.00
  -3   1  -2   22.47    2.42
  -2   1  -2    4.22    0.89
  -1   1  -2  258.61    3.69
   0   1  -2   48.81    1.30
   1   1  -2   16.02    3.56
   2   1  -2   98.86    4.51
   3   1  -2    7.31    4.09
   4   1  -2    1.30    3.88
  -6   2  -2   12.58    3.76
  -5   2  -2    3.63    1.65
  -4   2  -2    1.64    1.06
  -3   2  -2  108.04    3.72
  -2   2  -2   30.47    1.64
  -1   2  -2    8.40    0.89
   0   2  -2  149.95    3.44
   1   2  -2   11.58    1.91
   2   2  -2    6.65    3.35
   3   2  -2   32.34    8.31
   4   2  -2    1.62    4.54
  -6   3  -2   -0.91    1.90
  -5   3  -2   37.55    5.26
  -4   3  -2   10.54    2.67
  -3   3  -2    2.51    1.29
  -2   3  -2  105.23    3.59
  -1   3  -2   13.12    1.68
   0   3  -2    7.21    2.06
   1   3  -2   53.19    5.65
   2   3  -2    1.70    2.23
   3   3  -2    3.50    4.85
  -6   4  -2    0.01    2.21
  -5   4  -2    1.26    2.07
  -4   4  -2   54.07    5.92
  -3   4  -2    5.13    1.49
  -2   4  -2    5.39    1.35
  -1   4  -2   47.03    7.70
   0   4  -2    1.91    2.80
   1   4  -2   -0.38    3.55
   2   4  -2   10.72    6.54
  -5   5  -2    1.41    4.17
  -4   5  -2    2.05    3.45
  -3   5  -2   30.22    4.14
  -2   5  -2    3.47    3.28
  -1   5  -2    3.60    3.53
   0   5  -2   11.64    5.79
  -4   6  -2   -3.90    2.98
  -3   6  -2    1.09    4.56
  -2   6  -2   16.32    6.69
   2  -6  -1    3.92    3.13
   3  -6  -1    4.40    3.28
   4  -6  -1    4.14    2.27
   0  -5  -1    1.31    2.52
   1  -5  -1    9.09    3.66
   2  -5  -1    2.42    2.36
   3  -5  -1    7.40    3.37
   4  -5  -1    7.31    2.40
   5  -5  -1    4.60    3.10
   0  -4  -1    4.19    2.42
   1  -4  -1    9.65    3.02
   2  -4  -1   12.44    3.38
   3  -4  -1   10.38    3.37
   4  -4  -1    7.91    2.15
   5  -4  -1    5.11    3.20
   6  -4  -1    3.83    3.47
  -3  -3  -1   10.59    4.65
  -2  -3  -1    1.68    2.24
  -1  -3  -1    9.13    2.05
   0  -3  -1   19.11    2.49
   1  -3  -1   11.65    2.72
   2  -3  -1   22.96    3.88
   3  -3  -1    7.50    2.34
   4  -3  -1    9.22    3.20
   5  -3  -1    5.01    3.16
   6  -3  -1    2.43    3.51
  -4  -2  -1    2.88    3.35
  -3  -2  -1    2.25    1.81
  -2  -2  -1   17.44    2.92
  -1  -2  -1   10.14    1.37
   0  -2  -1   30.84    1.98
   1  -2  -1   16.73    2.71
   2  -2  -1   19.54    1.24
   3  -2  -1   21.75    2.02
   4  -2  -1    5.23    2.50
   5  -2  -1    7.70    3.83
   6  -2  -1    0.84    3.48
  -4  -1  -1   10.40    3.09
  -3  -1  -1    6.42    2.05
  -2  -1  -1   15.23    1.54
  -1  -1  -1   17.36    2.68
   0  -1  -1   26.18    1.00
   1  -1  -1   57.14    1.54
   2  -1  -1    7.57    1.08
   3  -1  -1   19.69    3.51
   4  -1  -1   10.49    3.16
   5  -1  -1    3.90    3.41
  -5   0  -1   -0.44    1.63
  -4   0  -1    4.81    1.51
  -3   0  -1   17.89    2.40
  -2   0  -1   16.32    1.84
  -1   0  -1   54.81    1.81
   0   0  -1    6.56    0.70
   1   0  -1   31.15    1.84
   4   0  -1   15.23    3.27
   5   0  -1    2.37    4.34
  -5   1  -1    9.34    2.48
  -4   1  -1    6.94    1.68
  -3   1  -1   18.35    2.17
  -2   1  -1   15.50    1.53
  -1   1  -1   29.14    0.98
   0   1  -1   60.69    1.56
   1   1  -1    4.51    1.17
   2   1  -1   22.82    2.88
   3   1  -1   12.25    2.83
   4   1  -1    3.47    3.87
  -6   2  -1    0.04    2.19
  -5   2  -1    1.62    1.62
  -4   2  -1   14.47    2.25
  -3   2  -1   11.66    1.59
  -2   2  -1   34.11    1.34
  -1   2  -1    6.42    0.98
   0   2  -1   26.00    1.73
   1   2  -1   31.29    2.80
   2   2  -1    6.51    3.33
   3   2  -1    8.50    4.77
   4   2  -1    2.94    5.25
  -6   3  -1    5.09    2.97
  -5   3  -1    3.85    2.20
  -4   3  -1    6.62    2.19
  -3   3  -1   11.75    2.22
  -2   3  -1   18.14    1.91
  -1   3  -1   28.77    1.88
   0   3  -1    2.68    1.02
   1   3  -1   14.55    4.70
   2   3  -1    8.30    2.91
   3   3  -1    2.72    4.74
  -6   4  -1    2.04    2.45
  -5   4  -1   10.57    3.07
  -4   4  -1    7.32    2.30
  -3   4  -1   10.42    1.79
  -2   4  -1    4.65    2.82
  -1   4  -1   11.59    4.17
   0   4  -1    4.13    3.12
   1   4  -1    0.07    3.06
   2   4  -1    5.00    5.34
  -5   5  -1    3.48    4.49
  -4   5  -1    1.00    3.30
  -3   5  -1   11.41    2.77
  -2   5  -1    6.92    3.93
  -1   5  -1    3.86    3.15
   0   5  -1    0.50    4.08
  -4   6  -1   -0.44    3.76
  -3   6  -1    1.03    4.14
  -2   6  -1    0.51    4.27
   2  -6   0    1.95    2.89
   3  -6   0   73.15   10.16
   4  -6   0    3.63    2.24
   0  -5   0    1.56    2.50
   1  -5   0  116.27    9.37
   2  -5   0   -0.10    1.54
   3  -5   0    0.04    1.65
   4  -5   0  115.03    6.46
   5  -5   0   -0.83    2.14
  -1  -4   0  147.34    9.86
   0  -4   0    1.32    1.95
   1  -4   0    8.30    2.76
   2  -4   0  307.72   12.25
   3  -4   0    5.65    2.35
   4  -4   0    1.26    1.27
   5  -4   0  117.95    9.88
   6  -4   0    2.08    3.46
  -3  -3   0   71.02   10.85
  -2  -3   0    1.40    2.20
  -1  -3   0    7.31    1.97
   0  -3   0  426.42    8.66
   1  -3   0   14.26    1.78
   2  -3   0   14.04    2.97
   3  -3   0  410.52    8.82
   4  -3   0    6.40    2.85
   5  -3   0    0.84    2.20
   6  -3   0   61.77   10.01
  -4  -2   0    1.16    2.01
  -3  -2   0    3.03    1.89
  -2  -2   0  302.64    9.19
  -1  -2   0   15.10    1.71
   0  -2   0   22.69    1.91
   1  -2   0  965.61   14.66
   2  -2   0   20.08    2.75
   3  -2   0   11.94    1.69
   4  -2   0  287.69   12.49
   5  -2   0    1.93    2.44
   6  -2   0    0.70    3.41
  -4  -1   0  120.31    7.61
  -3  -1   0    1.74    1.21
  -2  -1   0   14.32    1.51
  -1  -1   0  970.66    7.85
   0  -1   0   44.21    1.62
   1  -1   0   42.42    2.23
   2  -1   0  979.17    7.94
   3  -1   0   14.47    3.21
   4  -1   0    2.14    1.90
  -5   0   0   -0.97    1.54
  -4   0   0    2.23    1.38
  -3   0   0  404.12    8.50
  -2   0   0   18.91    1.95
  -1   0   0   43.41    1.61
   1   0   0   44.39    2.38
   4   0   0    0.47    1.58
   5   0   0    0.78    4.02
  -5   1   0  114.87    6.23
  -4   1   0    3.98    1.46
  -3   1   0   13.77    1.92
  -2   1   0  974.21    8.97
  -1   1   0   43.24    1.02
   0   1   0   42.97    1.38
   1   1   0  906.75   11.36
   2   1   0   15.48    2.55
   3   1   0    0.50    1.44
   4   1   0  113.27   15.03
  -6   2   0    0.45    2.26
  -5   2   0   -0.24    1.37
  -4   2   0  291.37    7.55
  -3   2   0   10.65    1.53
  -2   2   0   21.06    1.13
  -1   2   0  957.66    7.95
   0   2   0   22.01    1.85
   1   2   0   13.94    2.34
   2   2   0  300.00    9.42
   3   2   0    2.02    3.48
   4   2   0   -1.60    4.47
  -6   3   0   55.63    7.13
  -5   3   0    0.93    1.45
  -4   3   0    4.70    1.79
  -3   3   0  412.59    7.81
  -2   3   0   13.89    1.72
  -1   3   0   12.15    1.50
   0   3   0  433.47    9.11
   1   3   0    5.35    1.92
   2   3   0    1.04    2.88
   3   3   0   76.97   12.77
  -6   4   0    1.66    2.26
  -5   4   0  125.20    7.72
  -4   4   0    5.52    2.04
  -3   4   0    5.25    1.86
  -2   4   0  305.14    8.75
  -1   4   0    7.40    2.10
   0   4   0    5.23    3.07
   1   4   0  118.96   11.12
   2   4   0    4.58    5.30
  -5   5   0    1.20    4.02
  -4   5   0  109.25   10.87
  -3   5   0    1.81    1.77
  -2   5   0    2.11    3.22
   0   5   0   -3.30    3.49
  -4   6   0    0.59    4.15
  -2   6   0    0.32    4.06
   2  -6   1    6.11    3.43
   3  -6   1    0.05    2.51
   4  -6   1    0.98    2.56
   0  -5   1   11.71    4.31
   2  -5   1    8.57    3.29
   3  -5   1    9.84    3.73
   4  -5   1    7.32    2.29
   5  -5   1    2.12    2.84
  -1  -4   1    3.14    2.69
   0  -4   1    9.30    3.21
   1  -4   1   15.86    3.84
   3  -4   1    9.34    2.96
   4  -4   1    7.92    2.16
   5  -4   1    8.56    3.70
   6  -4   1    2.35    3.58
  -3  -3   1    0.44    2.75
  -2  -3   1    8.52    3.60
  -1  -3   1   16.19    2.63
   0  -3   1    3.79    1.26
   1  -3   1   25.48    1.98
   2  -3   1   19.24    3.38
   3  -3   1   12.82    2.08
   4  -3   1    7.10    2.84
   5  -3   1    1.56    2.52
   6  -3   1    4.27    3.53
  -4  -2   1    2.35    2.44
  -3  -2   1   12.08    3.14
  -1  -2   1   28.33    2.40
   0  -2   1   26.40    1.82
   1  -2   1    6.97    1.00
   2  -2   1   32.11    2.03
   3  -2   1   12.96    1.72
   4  -2   1   16.33    4.13
   5  -2   1    1.94    2.51
   6  -2   1    0.12    3.42
  -4  -1   1    0.86    1.61
  -3  -1   1   12.60    2.81
  -2  -1   1   20.51    1.71
  -1  -1   1    2.93    0.68
   0  -1   1   65.14    2.03
   1  -1   1   27.31    1.30
   2  -1   1   15.03    2.59
   3  -1   1   22.18    4.05
   4  -1   1    4.84    2.47
   5  -1   1   14.40    5.08
  -5   0   1    4.09    2.41
  -4   0   1   14.26    2.66
  -3   0   1    4.40    2.56
  -2   0   1   33.64    2.03
  -1   0   1   33.14    1.14
   0   0   1    6.82    0.71
   2   0   1   12.70    2.39
   3   0   1   15.02    3.23
   4   0   1    4.31    2.29
   5   0   1    0.86    3.84
  -5   1   1    1.65    1.52
  -4   1   1   13.93    2.41
  -3   1   1   17.29    2.09
  -2   1   1    6.21    1.04
  -1   1   1   58.42    1.23
   0   1   1   25.60    1.51
   1   1   1   22.07    2.43
   2   1   1   17.23    2.71
   3   1   1    5.23    2.19
   4   1   1    9.01    5.40
  -6   2   1    2.26    2.47
  -5   2   1    6.23    2.47
  -4   2   1    4.91    1.83
  -3   2   1   27.32    2.38
  -2   2   1   20.51    1.04
  -1   2   1   15.80    1.88
   0   2   1   29.90    1.67
   1   2   1   12.61    2.20
   2   2   1   21.01    3.44
   3   2   1    4.96    4.10
   4   2   1    1.18    4.86
  -6   3   1    2.92    2.32
  -5   3   1    3.69    1.91
  -4   3   1   12.48    2.67
  -3   3   1    8.06    1.48
  -2   3   1   23.26    1.87
  -1   3   1   12.95    1.49
   0   3   1   19.43    2.70
   1   3   1    9.85    2.35
   2   3   1    1.92    2.93
   3   3   1    6.44    5.13
  -6   4   1    2.93    2.73
  -5   4   1    4.26    2.42
  -4   4   1    6.12    3.19
  -3   4   1   11.46    2.52
  -2   4   1   10.80    2.26
  -1   4   1    6.79    2.00
   0   4   1    2.44    2.51
   1   4   1    7.55    4.42
   2   4   1   -2.90    3.85
  -5   5   1    3.06    4.27
  -4   5   1    9.51    2.98
  -3   5   1    6.58    2.33
  -2   5   1    5.78    2.09
  -1   5   1    9.73    4.29
   0   5   1   -0.75    3.86
  -4   6   1    2.38    2.56
  -3   6   1    3.52    4.29
  -2   6   1   -0.88    3.57
   2  -6   2   14.31    5.34
   3  -6   2    2.15    2.92
   4  -6   2   -0.15    2.60
   0  -5   2   32.24    6.87
   1  -5   2    2.91    2.60
   2  -5   2   -1.41    1.56
   3  -5   2   42.64    4.77
   4  -5   2   -0.19    1.42
   5  -5   2    1.15    2.65
  -1  -4   2    7.83    3.43
   0  -4   2    3.82    2.45
   1  -4   2   57.70    5.89
   2  -4   2    3.79    2.05
   3  -4   2    6.27    1.83
   4  -4   2   52.68    4.97
   5  -4   2    2.49    2.59
   6  -4   2    6.27    4.40
  -3  -3   2    2.66    3.18
  -2  -3   2    1.93    2.32
  -1  -3   2   60.80    4.21
   0  -3   2    6.50    1.60
   1  -3   2   13.08    1.88
   2  -3   2   96.24    5.84
   3  -3   2    4.51    1.36
   4  -3   2   11.37    3.73
   5  -3   2   45.19    7.76
   6  -3   2   -0.20    2.79
  -4  -2   2    0.57    2.02
  -3  -2   2   37.91    5.27
  -2  -2   2    8.65    2.22
  -1  -2   2   10.96    1.53
   0  -2   2  152.64    4.55
   1  -2   2   10.17    1.32
   2  -2   2   30.62    2.00
   3  -2   2  114.08    3.92
   4  -2   2    2.56    1.96
   5  -2   2    2.91    2.73
   6  -2   2   20.12    6.29
  -4  -1   2    3.52    1.91
  -3  -1   2    5.13    1.95
  -2  -1   2   99.75    3.48
  -1  -1   2   12.38    1.29
   0  -1   2   48.83    2.02
   1  -1   2  257.94    3.98
   2  -1   2    3.05    0.73
   3  -1   2   23.37    4.10
   4  -1   2   61.49    6.46
   5  -1   2   -1.12    2.72
  -5   0   2    1.69    2.02
  -4   0   2   42.76    4.42
  -3   0   2   12.27    2.14
  -2   0   2   25.14    1.64
  -1   0   2  253.81    3.33
   0   0   2    9.93    0.82
   1   0   2   57.51    1.62
   2   0   2  152.80    6.81
   3   0   2    3.68    2.11
   4   0   2    3.34    1.99
   5   0   2   28.87    5.25
  -5   1   2    2.99    1.67
  -4   1   2    1.85    1.14
  -3   1   2  105.10    4.02
  -2   1   2    9.99    1.06
  -1   1   2   54.40    1.33
   0   1   2  269.31    4.40
   1   1   2    3.02    1.08
   2   1   2   26.00    3.35
   3   1   2   77.21    5.83
   4   1   2   -0.59    2.09
  -6   2   2    0.23    2.11
  -5   2   2   31.23    4.95
  -4   2   2    5.06    1.38
  -3   2   2   14.42    1.58
  -2   2   2  158.10    2.78
  -1   2   2    3.71    0.63
   0   2   2   35.03    1.68
   1   2   2  118.32    5.09
   2   2   2    1.35    1.50
   3   2   2    3.58    3.52
   4   2   2   23.17    8.38
  -6   3   2    3.29    2.74
  -5   3   2    0.44    1.48
  -4   3   2   56.12    4.75
  -3   3   2    4.40    1.23
  -2   3   2   17.47    1.56
  -1   3   2  115.97    4.59
   0   3   2    1.54    1.06
   1   3   2   12.03    2.63
   2   3   2   58.56    9.40
   3   3   2   -0.19    3.74
  -6   4   2   16.28    6.58
  -5   4   2    0.44    2.99
  -4   4   2    3.02    1.70
  -3   4   2   64.67    4.49
  -2   4   2    0.58    1.09
  -1   4   2    9.92    2.21
   1   4   2    3.08    3.35
  -5   5   2   24.22    7.56
  -4   5   2    2.92    1.81
  -3   5   2    3.62    2.02
  -2   5   2   33.83    5.82
  -1   5   2    0.73    2.86
   0   5   2    1.16    4.01
  -4   6   2   13.56    3.71
  -3   6   2   -0.69    4.37
  -2   6   2    1.78    4.20
   2  -6   3   13.83    5.46
   3  -6   3   -1.11    2.31
   4  -6   3    1.32    2.97
   0  -5   3   17.41    5.24
   1  -5   3    0.63    2.09
   2  -5   3    2.28    2.39
   3  -5   3   20.31    5.18
   4  -5   3    1.38    1.47
   5  -5   3    0.12    2.36
  -1  -4   3   -0.66    1.67
   0  -4   3    4.76    2.72
   1  -4   3   33.21    5.61
   2  -4   3    2.24    2.11
   3  -4   3    4.14    1.56
   4  -4   3   24.89    3.44
   5  -4   3    3.92    2.84
   6  -4   3    0.19    2.85
  -3  -3   3    0.72    2.63
  -2  -3   3    3.71    2.84
  -1  -3   3   45.21    4.51
   0  -3   3    1.27    0.88
   1  -3   3    5.91    1.39
   2  -3   3   54.60    3.08
   3  -3   3    3.27    1.19
   4  -3   3    1.35    1.59
   5  -3   3   15.04    4.69
   6  -3   3    1.13    3.06
  -4  -2   3    1.94    2.52
  -3  -2   3   24.67    4.38
  -2  -2   3    0.04    0.81
  -1  -2   3    4.84    1.11
   0  -2   3   81.80    3.47
   1  -2   3    5.04    1.63
   2  -2   3    2.53    0.87
   3  -2   3   51.71    2.84
   4  -2   3    1.19    1.88
   5  -2   3    0.46    2.02
   6  -2   3    4.19    4.31
  -4  -1   3    0.23    1.64
  -3  -1   3    6.86    2.06
  -2  -1   3   57.99    2.69
  -1  -1   3    2.35    0.71
   0  -1   3    3.02    0.77
   1  -1   3  121.98    2.94
   2  -1   3    9.11    1.20
   3  -1   3   -0.68    0.86
   4  -1   3   30.18    5.65
   5  -1   3    1.33    2.66
  -5   0   3    1.97    2.05
  -4   0   3   25.16    4.09
  -3   0   3    1.34    0.95
  -2   0   3    4.80    0.92
  -1   0   3  126.07    2.07
   0   0   3    8.31    1.03
   1   0   3    0.77    0.49
   2   0   3   79.38    5.23
   3   0   3   11.92    3.36
   4   0   3   -2.18    1.72
   5   0   3    8.08    3.62
  -5   1   3    0.05    1.49
  -4   1   3    4.50    1.56
  -3   1   3   57.52    3.02
  -2   1   3    5.19    0.72
  -1   1   3    1.99    0.41
   0   1   3  117.24    2.88
   1   1   3   15.37    2.15
   2   1   3    1.03    1.21
   3   1   3   36.03    4.83
   4   1   3    2.49    2.52
  -6   2   3    2.87    2.54
  -5   2   3   17.60    3.58
  -4   2   3    0.77    0.95
  -3   2   3    4.32    0.92
  -2   2   3   79.76    2.18
  -1   2   3    9.70    1.48
   0   2   3    0.98    0.47
   1   2   3   50.76    3.46
   2   2   3    4.14    1.86
   3   2   3    0.00    1.98
  -6   3   3   -0.05    2.13
  -5   3   3    2.54    1.94
  -4   3   3   34.25    4.22
  -3   3   3    2.55    0.99
  -2   3   3    1.66    0.68
  -1   3   3   51.54    3.29
   0   3   3    4.33    1.47
   1   3   3    0.98    1.45
   2   3   3   17.85    5.30
  -6   4   3    6.67    4.99
  -5   4   3    0.00    3.16
  -4   4   3    2.86    1.84
  -3   4   3   31.04    3.96
  -2   4   3    2.88    1.35
  -1   4   3    1.28    1.29
   0   4   3   29.38    5.47
   1   4   3   11.76    4.64
  -5   5   3   23.99    7.72
  -4   5   3    0.49    1.70
  -3   5   3    0.47    1.56
  -2   5   3   12.56    2.84
  -1   5   3    0.07    2.92
  -4   6   3   10.21    3.35
  -3   6   3    0.24    2.07
   3  -6   4    2.54    3.14
   4  -6   4    5.53    4.06
   0  -5   4   49.92    8.09
   1  -5   4    5.64    3.53
   2  -5   4   10.13    4.01
   3  -5   4   67.65    7.45
   4  -5   4    4.88    2.14
   5  -5   4    4.73    3.14
  -1  -4   4    6.64    3.20
   0  -4   4   13.30    4.07
   1  -4   4  113.37    8.31
   2  -4   4   11.97    2.18
   3  -4   4   23.57    3.24
   4  -4   4   85.84    7.49
   5  -4   4    7.17    3.81
  -3  -3   4    0.34    2.97
  -2  -3   4   15.60    4.96
  -1  -3   4  113.20    5.66
   0  -3   4   20.40    2.84
   1  -3   4   35.95    2.97
   2  -3   4  223.10    6.08
   3  -3   4   25.73    2.99
   4  -3   4   25.13    5.12
   5  -3   4   77.33    8.20
   6  -3   4    3.50    3.69
  -4  -2   4    8.37    4.83
  -3  -2   4   70.39    7.39
  -2  -2   4   14.90    2.25
  -1  -2   4   32.56    2.93
   0  -2   4  326.45    7.25
   1  -2   4   44.70    2.17
   2  -2   4   50.21    2.65
   3  -2   4  224.49    5.96
   4  -2   4   16.49    4.18
   5  -2   4   14.03    4.86
  -4  -1   4    2.56    2.22
  -3  -1   4   14.46    2.96
  -2  -1   4  220.15    5.60
  -1  -1   4   38.22    2.05
   0  -1   4   75.66    3.04
   1  -1   4  542.66    6.76
   2  -1   4   46.10    2.25
   3  -1   4   34.46    5.24
   4  -1   4  105.59    8.51
   5  -1   4    3.47    3.35
  -5   0   4    4.84    2.71
  -4   0   4   83.62    6.04
  -3   0   4   16.13    2.38
  -2   0   4   47.22    2.25
  -1   0   4  531.79    4.49
   0   0   4   82.89    2.67
   1   0   4   80.65    2.83
   2   0   4  315.85   10.62
   3   0   4   23.67    4.66
   4   0   4   19.25    5.03
   5   0   4   39.04    5.96
  -5   1   4    1.19    1.51
  -4   1   4   17.60    2.72
  -3   1   4  225.39    4.63
  -2   1   4   42.83    1.58
  -1   1   4   80.54    1.87
   0   1   4  535.25    5.05
   1   1   4   51.41    2.91
   2   1   4   46.82    3.94
   3   1   4  117.71    6.69
   4   1   4    4.14    2.75
  -6   2   4    3.39    3.41
  -5   2   4   55.05    6.59
  -4   2   4   12.74    2.26
  -3   2   4   31.68    2.02
  -2   2   4  323.71    5.34
  -1   2   4   47.61    2.52
   0   2   4   50.54    2.75
   1   2   4  209.24    6.61
   2   2   4   17.98    3.11
   3   2   4   14.43    3.68
  -6   3   4    0.55    2.14
  -5   3   4    8.69    2.92
  -4   3   4  108.68    4.76
  -3   3   4   19.62    2.18
  -2   3   4   39.54    3.70
  -1   3   4  225.81    6.63
   0   3   4   23.46    2.96
   1   3   4   28.15    3.95
  -6   4   4   23.93    7.98
  -5   4   4    5.39    3.58
  -4   4   4   17.56    3.50
  -3   4   4  115.51    6.03
  -2   4   4   17.46    2.89
  -1   4   4   24.92    3.43
   0   4   4   94.10    8.01
  -5   5   4   54.27   10.86
  -4   5   4    5.02    2.44
  -3   5   4   12.90    3.02
  -2   5   4   54.54    5.39
  -1   5   4    7.70    3.47
  -4   6   4   22.76    5.95
  -3   6   4    0.40    2.51
   3  -6   5    7.24    4.17
   4  -6   5    6.13    4.00
   0  -5   5    0.45    2.42
   1  -5   5   19.88    5.48
   2  -5   5   11.31    4.29
   3  -5   5    0.45    2.13
   4  -5   5   15.88    3.26
   5  -5   5    6.26    3.51
  -1  -4   5   17.18    4.82
   0  -4   5    6.86    2.94
   1  -4   5   -1.04    1.28
   2  -4   5   38.05    6.26
   3  -4   5    9.42    2.09
   4  -4   5    0.13    1.75
   5  -4   5    9.91    4.18
  -3  -3   5    6.93    4.04
  -2  -3   5   12.69    4.69
  -1  -3   5    1.10    1.35
   0  -3   5   55.02    3.65
   1  -3   5   10.77    1.50
   2  -3   5    0.38    0.75
   3  -3   5   39.74    3.00
   4  -3   5    8.61    3.36
   5  -3   5    0.63    2.14
  -3  -2   5    0.31    1.51
  -2  -2   5   37.74    3.53
  -1  -2   5   11.46    2.18
   0  -2   5    2.55    0.99
   1  -2   5  103.58    3.24
   2  -2   5   12.22    1.77
   3  -2   5    1.92    0.91
   4  -2   5   24.01    5.00
   5  -2   5    4.70    3.12
  -4  -1   5   17.80    3.96
  -3  -1   5    6.26    2.27
  -2  -1   5    2.54    1.00
  -1  -1   5  102.73    3.40
   0  -1   5   12.76    1.79
   1  -1   5    1.17    0.63
   2  -1   5   95.26    3.62
   3  -1   5   10.01    3.00
   4  -1   5   -0.12    1.92
   5  -1   5    9.34    4.43
  -5   0   5    5.01    2.59
  -4   0   5    0.57    1.31
  -3   0   5   50.64    3.89
  -2   0   5   12.80    1.49
  -1   0   5    3.78    0.66
   0   0   5  166.92    4.16
   1   0   5   11.13    1.62
   2   0   5    0.04    0.51
   3   0   5   35.71    5.61
   4   0   5   10.55    4.03
   5   0   5    3.33    3.04
  -5   1   5   12.21    2.89
  -4   1   5    8.63    1.97
  -3   1   5    1.73    0.76
  -2   1   5  102.54    2.47
  -1   1   5   12.46    1.07
   0   1   5    0.72    0.60
   1   1   5   97.85    3.81
   2   1   5   11.53    2.31
   3   1   5    1.31    1.77
   4   1   5   10.09    3.65
  -5   2   5    0.03    1.58
  -4   2   5   30.46    3.20
  -3   2   5   11.13    1.42
  -2   2   5    0.33    0.49
  -1   2   5   96.27    3.57
   0   2   5   11.58    1.76
   1   2   5   -0.26    0.87
   2   2   5   25.03    3.67
   3   2   5    2.09    3.09
  -6   3   5    5.10    2.98
  -5   3   5    6.80    2.36
  -4   3   5    1.06    1.05
  -3   3   5   46.38    3.92
  -2   3   5   10.16    1.94
  -1   3   5    1.27    0.97
   0   3   5   43.08    3.65
   1   3   5    6.87    2.24
   2   3   5    1.47    2.93
  -5   4   5   12.10    4.78
  -4   4   5    9.40    2.57
  -3   4   5    0.41    1.14
  -2   4   5   31.41    3.97
  -1   4   5    5.72    1.83
   0   4   5    1.96    2.32
  -5   5   5    0.27    2.27
  -4   5   5   12.59    3.35
  -3   5   5    4.08    2.11
  -2   5   5   -1.63    1.71
  -1   5   5   17.30    5.08
  -3   6   5    0.00    3.03
   0  -5   6    1.64    3.10
   1  -5   6    8.94    3.93
   2  -5   6   66.34    9.41
   3  -5   6   11.81    4.39
   4  -5   6   10.25    4.04
   5  -5   6   39.99    7.90
  -1  -4   6   10.39    4.03
   0  -4   6   88.76    8.01
   1  -4   6   17.07    4.57
   2  -4   6   23.29    4.85
   3  -4   6   98.97    5.03
   4  -4   6   15.11    4.16
   5  -4   6   16.08    5.00
  -2  -3   6   67.96   10.14
  -1  -3   6   15.23    2.94
   0  -3   6   29.13    3.61
   1  -3   6  194.98    6.56
   2  -3   6   34.72    2.77
   3  -3   6   40.28    3.88
   4  -3   6   97.14    7.83
   5  -3   6    8.14    3.87
  -3  -2   6    2.70    2.16
  -2  -2   6   21.62    3.42
  -1  -2   6  206.99    6.93
   0  -2   6   51.49    3.36
   1  -2   6   63.37    2.74
   2  -2   6  279.46    6.63
   3  -2   6   33.84    2.94
   4  -2   6   26.88    5.33
   5  -2   6   46.51    7.99
  -4  -1   6    7.61    2.89
  -3  -1   6  103.91    6.42
  -2  -1   6   31.63    3.08
  -1  -1   6   57.38    3.45
   0  -1   6  431.54    4.69
   1  -1   6   80.04    3.10
   2  -1   6   72.96    3.39
   3  -1   6  171.94    9.50
   4  -1   6   16.88    4.66
   5  -1   6   14.17    5.31
  -5   0   6   26.95    5.00
  -4   0   6   10.16    2.89
  -3   0   6   28.40    3.86
  -2   0   6  282.23    6.25
  -1   0   6   77.56    2.21
   0   0   6  100.53    3.52
   1   0   6  414.09    7.81
   2   0   6   52.92    2.74
   3   0   6   41.73    6.13
   4   0   6   69.54    6.79
   5   0   6    5.77    4.60
  -5   1   6    6.47    2.11
  -4   1   6   98.33    4.94
  -3   1   6   33.78    2.60
  -2   1   6   63.89    2.11
  -1   1   6  430.32    5.65
   0   1   6   80.87    3.62
   1   1   6   75.67    2.58
   2   1   6  197.66    6.96
   3   1   6   19.41    3.51
   4   1   6   12.43    5.05
  -5   2   6    4.30    2.30
  -4   2   6   21.94    2.84
  -3   2   6  198.03    4.57
  -2   2   6   53.06    2.07
  -1   2   6   71.63    3.04
   0   2   6  264.86    6.10
   1   2   6   43.37    3.33
   2   2   6   42.65    7.16
   3   2   6   51.28    8.60
  -6   3   6    9.31    4.65
  -5   3   6   56.27    6.36
  -4   3   6   16.06    2.46
  -3   3   6   36.42    4.02
  -2   3   6  192.31    6.47
  -1   3   6   37.75    3.08
   0   3   6   53.29    7.39
   1   3   6   95.25    8.99
   2   3   6   11.18    4.54
  -5   4   6    9.14    4.53
  -4   4   6   76.77    5.58
  -3   4   6   14.99    2.79
  -2   4   6   31.55    3.84
  -1   4   6   93.86    8.30
   0   4   6   12.65    4.21
   1   4   6   12.74    4.80
  -5   5   6    4.04    2.75
  -4   5   6   15.99    3.69
  -3   5   6   54.72    8.41
  -2   5   6    6.22    3.24
  -1   5   6    8.93    3.79
  -3   6   6    5.47    4.09
   0  -5   7    4.66    3.52
   1  -5   7    5.35    3.65
   2  -5   7    6.56    3.57
   3  -5   7    2.26    2.80
   4  -5   7    3.60    3.09
   5  -5   7   12.25    4.73
  -1  -4   7    6.92    3.98
   0  -4   7    5.25    3.33
   1  -4   7    5.40    2.57
   2  -4   7    1.88    2.07
   3  -4   7   11.82    2.31
   4  -4   7    2.88    2.46
   5  -4   7   -0.74    2.24
  -2  -3   7    4.57    3.06
  -1  -3   7    6.10    2.05
   0  -3   7    5.45    1.79
   1  -3   7   15.09    3.81
   2  -3   7   10.29    1.97
   3  -3   7    3.63    1.36
   4  -3   7   15.62    4.19
   5  -3   7   -0.88    2.44
  -3  -2   7   -2.10    2.25
  -2  -2   7    8.23    2.31
  -1  -2   7   15.24    2.59
   0  -2   7   12.27    2.02
   1  -2   7    4.16    1.04
   2  -2   7   33.40    2.47
   3  -2   7    7.69    1.84
   4  -2   7    4.71    2.78
   5  -2   7   19.33    5.87
  -4  -1   7   -0.49    1.68
  -3  -1   7    7.02    2.42
  -2  -1   7    9.23    1.80
  -1  -1   7    5.33    1.57
   0  -1   7   40.02    1.93
   1  -1   7   17.48    2.04
   2  -1   7    3.27    1.19
   3  -1   7   26.25    4.90
   4  -1   7    2.69    2.76
   5  -1   7    4.41    3.10
  -5   0   7    3.84    2.65
  -4   0   7    2.31    1.82
  -3   0   7    5.80    1.90
  -2   0   7   25.34    2.65
  -1   0   7   16.84    1.45
   0   0   7    2.47    0.83
   1   0   7   54.48    3.16
   2   0   7    9.82    1.78
   3   0   7    2.00    2.02
   4   0   7   14.08    4.75
   5   0   7    4.23    4.26
  -5   1   7    3.58    2.44
  -4   1   7    6.07    1.72
  -3   1   7    8.30    1.38
  -2   1   7    6.00    0.95
  -1   1   7   44.13    2.00
   0   1   7   12.17    1.94
   1   1   7    1.44    0.68
   2   1   7   36.06    6.11
   3   1   7    4.68    3.12
   4   1   7    3.47    3.61
  -5   2   7    2.73    2.14
  -4   2   7    6.33    1.71
  -3   2   7   18.81    1.72
  -2   2   7   12.41    1.41
  -1   2   7    2.70    0.78
   0   2   7   41.31    5.72
   1   2   7    7.99    3.23
   2   2   7    0.44    1.71
   3   2   7    9.35    4.40
  -5   3   7    9.59    4.46
  -4   3   7    2.53    1.62
  -3   3   7    4.18    1.66
  -2   3   7   25.82    2.97
  -1   3   7    9.19    3.09
   0   3   7    0.60    1.97
   1   3   7   20.69    5.43
   2   3   7    3.98    3.60
  -5   4   7    1.26    3.28
  -4   4   7    7.90    2.56
  -3   4   7    4.04    1.82
  -2   4   7    0.77    1.70
  -1   4   7   22.25    5.35
   0   4   7    3.10    2.98
   1   4   7    2.32    3.30
  -5   5   7    3.11    3.33
  -4   5   7    3.08    3.18
  -3   5   7   15.36    5.07
  -2   5   7    2.39    2.81
  -1   5   7   -0.28    2.63
   0  -5   8   -0.29    2.87
   1  -5   8   23.74    6.19
   2  -5   8    2.58    2.92
   3  -5   8    1.25    2.26
   4  -5   8   21.45    5.81
  -1  -4   8   17.28    5.27
   0  -4   8    5.46    3.14
   1  -4   8    3.02    2.56
   2  -4   8   47.44    7.70
   3  -4   8    0.28    2.07
   4  -4   8    3.84    2.64
   5  -4   8   27.79    6.40
  -2  -3   8    2.32    2.73
  -1  -3   8    1.44    1.53
   0  -3   8   57.87    4.42
   1  -3   8    8.30    3.16
   2  -3   8    5.42    1.49
   3  -3   8   54.62    3.69
   4  -3   8    3.43    2.50
   5  -3   8    0.02    2.55
  -3  -2   8   -1.06    2.38
  -2  -2   8   48.65    5.42
  -1  -2   8    8.61    2.23
   0  -2   8    8.84    2.01
   1  -2   8  104.90    6.92
   2  -2   8    8.39    1.71
   3  -2   8    5.61    1.77
   4  -2   8   40.36    6.85
   5  -2   8   -1.18    2.31
  -4  -1   8   18.27    4.15
  -3  -1   8    5.49    2.20
  -2  -1   8    3.69    1.35
  -1  -1   8  101.15    5.10
   0  -1   8   14.80    1.68
   1  -1   8   16.82    2.15
   2  -1   8  100.51    4.58
   3  -1   8    2.34    1.81
   4  -1   8    3.17    2.73
   5  -1   8   22.59    6.17
  -5   0   8    5.57    4.42
  -4   0   8    2.51    1.93
  -3   0   8   54.26    4.11
  -2   0   8   13.21    1.53
  -1   0   8   17.59    1.81
   0   0   8  135.35    4.71
   1   0   8    8.18    1.76
   2   0   8   12.59    2.13
   3   0   8   55.29    7.88
   4   0   8    1.86    2.96
  -5   1   8   19.91    4.29
  -4   1   8    5.56    1.71
  -3   1   8    6.27    1.15
  -2   1   8  100.73    2.88
  -1   1   8   14.05    1.51
   0   1   8   17.54    2.40
   1   1   8  106.36    4.82
   2   1   8    2.18    2.11
   3   1   8    4.99    3.10
   4   1   8   19.77    5.82
  -5   2   8   -0.44    1.75
  -4   2   8   44.78    4.10
  -3   2   8    9.22    1.29
  -2   2   8   10.72    1.36
  -1   2   8   98.51    4.82
   0   2   8    1.75    1.75
   1   2   8    6.25    2.98
   2   2   8   50.53    7.93
   3   2   8    0.86    2.61
  -5   3   8    3.59    3.43
  -4   3   8    3.18    1.80
  -3   3   8   55.62    4.43
  -2   3   8    7.36    2.94
  -1   3   8    6.65    2.83
   0   3   8   57.38    8.25
   1   3   8    3.24    2.89
   2   3   8    4.03    3.62
  -5   4   8   14.07    3.62
  -4   4   8    0.04    2.05
  -3   4   8    1.37    2.04
  -2   4   8   44.01    7.20
  -1   4   8    1.67    2.61
   0   4   8   -0.98    2.45
   1   4   8   25.80    6.95
  -4   5   8   19.23    5.54
  -3   5   8    0.41    2.63
  -2   5   8    1.18    2.97
  -1   5   8   22.72    6.36
   0   5   8   -0.36    3.37
   1  -5   9    0.84    2.77
   2  -5   9    0.83    2.80
   3  -5   9   20.43    5.87
  -1  -4   9    3.62    3.40
   0  -4   9    0.16    2.39
   1  -4   9   20.58    5.43
   2  -4   9   12.96    4.07
   3  -4   9    0.06    1.89
   4  -4   9   16.56    4.53
   5  -4   9    3.69    3.35
  -2  -3   9    1.66    2.60
  -1  -3   9   28.81    4.28
   0  -3   9    9.61    2.60
   1  -3   9    2.12    1.73
   2  -3   9   38.71    5.76
   3  -3   9   12.76    2.46
   4  -3   9    2.56    2.49
   5  -3   9    6.03    4.00
  -3  -2   9   17.94    5.76
  -2  -2   9    9.25    2.61
  -1  -2   9    1.18    1.44
   0  -2   9   43.95    4.46
   1  -2   9   21.78    2.39
   2  -2   9    0.79    0.94
   3  -2   9   31.19    5.25
   4  -2   9    9.80    3.75
   5  -2   9   -0.84    2.44
  -4  -1   9    1.89    2.16
  -3  -1   9    1.07    1.60
  -2  -1   9   44.06    4.95
  -1  -1   9   19.49    3.08
   0  -1   9    1.04    0.70
   1  -1   9   53.09    3.22
   2  -1   9   20.04    2.75
   3  -1   9    0.22    1.46
   4  -1   9   14.05    4.45
   5  -1   9    5.26    4.07
  -4   0   9   17.85    3.77
  -3   0   9    8.47    1.90
  -2   0   9    1.72    1.05
  -1   0   9   58.10    2.71
   0   0   9   25.80    2.83
   1   0   9    0.42    0.79
   2   0   9   36.94    3.80
   3   0   9   10.39    3.54
   4   0   9    0.58    2.94
  -5   1   9    1.34    2.05
  -4   1   9    2.33    1.66
  -3   1   9   34.51    2.53
  -2   1   9   20.81    1.75
  -1   1   9    1.02    0.91
   0   1   9   48.83    3.43
   1   1   9   21.87    3.01
   2   1   9   -0.81    1.50
   3   1   9   14.07    4.75
   4   1   9    5.51    3.83
  -5   2   9   13.96    3.80
  -4   2   9    9.50    2.18
  -3   2   9    0.78    0.70
  -2   2   9   42.21    2.69
  -1   2   9   17.66    2.78
   0   2   9   -0.85    1.32
   1   2   9   31.14    6.10
   2   2   9    5.28    3.29
   3   2   9    0.84    3.05
  -5   3   9   -0.14    2.84
  -4   3   9   21.91    3.68
  -3   3   9    9.79    3.49
  -2   3   9    0.67    1.42
  -1   3   9   26.18    5.26
   0   3   9   13.37    4.36
   1   3   9    1.53    2.68
   2   3   9    8.80    4.67
  -5   4   9    7.16    4.40
  -4   4   9    2.13    2.70
  -3   4   9   22.47    5.28
  -2   4   9    9.91    3.98
  -1   4   9    0.33    2.23
   0   4   9   11.88    5.15
   1   4   9    4.24    4.04
  -4   5   9    0.36    2.83
  -3   5   9    0.94    2.69
  -2   5   9    3.30    3.26
  -1   5   9    3.63    3.76
   1  -5  10   12.74    5.20
   2  -5  10    4.05    3.39
   3  -5  10   27.90    6.53
  -1  -4  10   10.59    4.67
   0  -4  10   12.31    4.58
   1  -4  10   34.00    6.39
   2  -4  10   33.12    6.36
   3  -4  10   14.68    4.47
   5  -4  10   13.14    5.03
  -2  -3  10    5.63    4.06
  -1  -3  10   47.91    5.97
   0  -3  10   51.38    5.63
   1  -3  10   31.76    5.97
   2  -3  10  101.37    8.19
   3  -3  10   48.69    4.12
   4  -3  10   14.55    4.70
   5  -3  10   26.35    6.71
  -3  -2  10   24.07    6.73
  -2  -2  10   33.39    4.98
  -1  -2  10   32.70    4.55
   0  -2  10  122.59    8.94
   1  -2  10  104.81    7.94
   2  -2  10   43.63    3.57
   3  -2  10  107.12    7.89
   4  -2  10   24.66    5.50
   5  -2  10    6.99    4.12
  -4  -1  10   13.86    5.67
  -2  -1  10  101.22    6.21
  -1  -1  10   90.84    5.60
   0  -1  10   66.89    3.25
   1  -1  10  185.22    6.17
   2  -1  10   89.78    4.77
   3  -1  10   26.09    5.20
   4  -1  10   52.10    8.30
   5  -1  10   15.67    5.81
  -4   0  10   31.93    4.90
  -3   0  10   43.70    4.18
  -2   0  10   38.64    4.53
  -1   0  10  184.64    5.66
   0   0  10  139.47    5.35
   1   0  10   63.68    3.92
   2   0  10  136.33    5.97
   3   0  10   38.61    6.91
   4   0  10    8.78    4.34
  -5   1  10   11.99    3.84
  -4   1  10   12.62    3.24
  -3   1  10   89.04    3.70
  -2   1  10   92.57    4.63
  -1   1  10   69.95    4.15
   0   1  10  190.28    6.88
   1   1  10   85.11    4.88
   2   1  10   31.42    5.99
   3   1  10   55.51    8.83
   4   1  10    9.75    5.07
  -5   2  10   27.79    5.03
  -4   2  10   31.18    3.55
  -3   2  10   35.80    2.92
  -2   2  10  129.30    6.12
  -1   2  10   84.83    5.00
   0   2  10   45.77    4.66
   1   2  10  100.91    8.83
   2   2  10   24.06    5.61
   3   2  10    2.07    3.43
  -5   3  10    6.94    4.32
  -4   3  10   55.81    8.25
  -3   3  10   50.95    7.31
  -2   3  10   30.18    5.79
  -1   3  10   99.37    8.51
   0   3  10   38.61    7.15
   1   3  10   11.65    4.57
   2   3  10   28.93    7.23
  -5   4  10   12.51    5.36
  -4   4  10    8.56    3.74
  -3   4  10   48.71    7.70
  -2   4  10   22.89    5.41
  -1   4  10   14.89    5.00
   0   4  10   41.27    8.37
   1   4  10   15.51    6.05
  -4   5  10   11.74    4.51
  -3   5  10    5.57    3.74
  -2   5  10   41.92    8.40
  -1   5  10   10.70    5.11
   2  -5  11   18.98    5.52
   3  -5  11    0.39    2.56
  -1  -4  11    4.05    4.13
   0  -4  11   22.53    6.18
   1  -4  11    2.11    2.37
   2  -4  11    3.07    3.00
   3  -4  11   15.53    4.69
   5  -4  11    3.79    3.58
  -2  -3  11   20.08    6.39
  -1  -3  11    0.50    1.49
   0  -3  11    0.26    1.45
   1  -3  11   48.67    7.64
   2  -3  11   -0.38    1.64
   3  -3  11    0.05    1.38
   4  -3  11   18.87    5.29
   5  -3  11    1.45    3.01
  -3  -2  11    0.12    3.28
  -2  -2  11    0.63    1.82
  -1  -2  11   52.77    5.78
   0  -2  11    0.44    1.66
   1  -2  11    1.53    1.97
   2  -2  11   59.95    4.21
   3  -2  11   -0.50    1.69
   4  -2  11    0.05    2.42
   5  -2  11    7.92    4.51
  -3  -1  11   18.27    5.82
  -2  -1  11   -0.66    1.20
  -1  -1  11    1.06    1.56
   0  -1  11   91.48    7.99
   1  -1  11    1.19    1.03
   2  -1  11    4.90    1.74
   3  -1  11   40.73    6.91
   4  -1  11    0.41    2.88
  -4   0  11   -0.14    1.80
  -3   0  11    0.80    1.43
  -2   0  11   63.84    5.00
  -1   0  11    0.69    0.87
   0   0  11    3.96    1.40
   1   0  11   68.97    4.33
   2   0  11   -0.20    1.07
   3   0  11    3.94    2.90
   4   0  11    8.27    4.52
  -5   1  11    1.70    2.48
  -4   1  11   25.57    4.39
  -3   1  11   -1.55    0.86
  -2   1  11    1.13    1.08
  -1   1  11   80.26    4.59
   0   1  11    0.40    1.08
   1   1  11    5.42    1.84
   2   1  11   23.94    5.44
   3   1  11   -1.10    2.47
  -5   2  11    1.90    2.33
  -4   2  11    0.82    1.38
  -3   2  11   42.48    4.76
  -2   2  11   -0.20    1.03
  -1   2  11    1.52    1.28
   0   2  11   51.24    5.14
   1   2  11    0.35    1.62
   2   2  11    6.16    3.64
   3   2  11    8.78    4.20
  -4   3  11    0.28    2.28
  -3   3  11    0.72    1.80
  -2   3  11   39.75    6.56
  -1   3  11    0.20    1.96
   0   3  11    5.69    3.16
   1   3  11   18.67    5.50
   2   3  11    0.47    3.30
  -5   4  11    0.01    3.38
  -4   4  11   22.19    5.77
  -3   4  11    1.11    2.46
  -2   4  11   -0.52    1.84
  -1   4  11   17.80    5.52
   0   4  11    2.17    3.29
   1   4  11    3.08    4.50
  -3   5  11   12.28    5.09
  -2   5  11   -0.26    3.06
   3  -5  12    2.58    3.38
   0  -4  12   18.04    5.91
   1  -4  12   19.41    5.72
   2  -4  12   -0.64    1.90
   3  -4  12   26.94    6.26
  -2  -3  12   20.84    6.72
  -1  -3  12   20.43    4.18
   0  -3  12    3.58    2.84
   1  -3  12   51.23    8.09
   2  -3  12   32.64    6.46
   3  -3  12    3.93    2.78
   4  -3  12   37.74    7.01
   5  -3  12    7.82    4.46
  -2  -2  12    2.41    2.05
  -1  -2  12   47.21    5.77
   0  -2  12   46.36    7.47
   1  -2  12   11.98    4.18
   2  -2  12   79.39    4.73
   3  -2  12   23.58    4.96
   4  -2  12    4.20    2.99
  -3  -1  12   20.64    5.91
  -2  -1  12   34.22    4.83
  -1  -1  12   10.87    2.77
   0  -1  12  105.74    8.87
   1  -1  12   50.04    3.92
   2  -1  12   10.02    2.47
   3  -1  12   73.11    7.63
   4  -1  12    8.19    4.25
  -4   0  12   11.53    4.66
  -3   0  12    3.58    1.98
  -2   0  12   71.31    5.50
  -1   0  12   49.65    7.57
   0   0  12   15.98    2.67
   1   0  12  113.59    5.59
   2   0  12   29.74    3.96
   3   0  12    2.98    2.89
   4   0  12   24.72    6.92
  -4   1  12   21.62    4.10
  -3   1  12   33.51    4.67
  -2   1  12   12.00    2.39
  -1   1  12   99.25    5.28
   0   1  12   51.18    4.32
   1   1  12   12.15    2.68
   2   1  12   59.50    8.44
   3   1  12   17.44    5.55
  -3   2  12   56.46    5.67
  -2   2  12   37.41    4.53
  -1   2  12   11.76    2.68
   0   2  12   87.90    5.56
   1   2  12   25.86    5.67
   2   2  12    2.01    2.90
  -4   3  12   17.12    5.08
  -3   3  12    4.14    2.85
  -2   3  12   55.50    7.90
  -1   3  12   24.43    5.70
   0   3  12    2.84    2.76
   1   3  12   35.75    7.48
   2   3  12    6.81    5.05
  -4   4  12   22.70    6.09
  -3   4  12   18.57    5.36
  -2   4  12    3.84    3.32
  -1   4  12   42.95    8.38
   0   4  12    5.27    4.06
   0  -4  13    5.51    4.34
   1  -4  13    7.89    4.27
   2  -4  13    0.25    2.62
   3  -4  13   10.21    4.59
  -1  -3  13    0.60    2.15
   0  -3  13    0.82    2.77
   1  -3  13   10.12    4.15
   2  -3  13    6.92    3.60
   3  -3  13   -0.87    2.38
   4  -3  13    7.23    3.46
  -2  -2  13    1.16    2.11
  -1  -2  13   13.82    3.40
   0  -2  13   13.53    4.57
   1  -2  13   -0.04    1.70
   2  -2  13    5.50    3.36
   3  -2  13   20.54    5.05
   4  -2  13   -1.65    2.47
  -3  -1  13    7.29    3.80
  -2  -1  13    4.55    2.36
  -1  -1  13   -0.59    1.79
   0  -1  13   17.29    5.05
   1  -1  13   22.19    3.12
   2  -1  13   -2.18    1.06
   3  -1  13    8.44    3.95
   4  -1  13    5.62    3.91
  -4   0  13    2.70    3.41
  -3   0  13   -1.23    1.57
  -2   0  13   10.86    2.93
  -1   0  13   21.24    5.20
   0   0  13   -0.06    0.98
   1   0  13   11.60    2.51
   2   0  13   17.98    3.18
   3   0  13    2.11    2.80
   4   0  13    3.06    3.38
  -4   1  13    4.36    3.55
  -3   1  13    6.48    2.63
  -2   1  13    0.24    1.89
  -1   1  13   13.49    2.62
   0   1  13   25.56    3.56
   1   1  13    0.23    1.23
   2   1  13    0.26    2.12
   3   1  13    9.43    4.32
  -3   2  13   12.39    2.86
  -2   2  13   16.43    3.07
  -1   2  13    0.47    1.32
   0   2  13    9.75    2.54
   1   2  13   18.48    5.15
   2   2  13    2.05    2.93
  -4   3  13    9.78    4.29
  -3   3  13    1.39    2.32
  -2   3  13    6.55    3.26
  -1   3  13   10.16    4.00
   0   3  13    1.79    2.72
   1   3  13    5.48    3.94
  -4   4  13    7.04    4.27
  -3   4  13    3.97    3.36
  -2   4  13   -0.48    2.39
  -1   4  13    6.46    3.81
   0   4  13    8.02    4.47
   1  -4  14    0.80    3.52
   2  -4  14    1.90    3.21
   3  -4  14   17.46    6.04
  -1  -3  14    1.61    2.54
   0  -3  14    3.69    3.06
   1  -3  14   41.29    7.80
   2  -3  14   -0.24    2.39
   3  -3  14    2.78    3.60
  -2  -2  14   -0.19    2.06
  -1  -2  14   51.23    9.45
   0  -2  14    1.80    2.48
   1  -2  14    4.32    2.99
   2  -2  14   63.51    9.15
   3  -2  14    0.62    2.48
   4  -2  14    4.46    3.78
  -3  -1  14   17.52    5.98
  -2  -1  14    1.29    1.83
  -1  -1  14    3.85    2.85
   0  -1  14   81.39    8.56
   1  -1  14    0.33    2.08
   2  -1  14    2.66    1.71
   3  -1  14   38.48    7.11
   4  -1  14   -0.25    3.46
  -3   0  14    2.89    2.35
  -2   0  14   69.22    9.86
  -1   0  14    1.10    2.32
   0   0  14    3.46    1.64
   1   0  14   79.93    5.08
   2   0  14   -0.88    1.75
   3   0  14   -1.84    2.28
  -4   1  14   16.38    5.91
  -3   1  14    0.66    2.46
  -2   1  14    1.36    2.31
  -1   1  14   78.54    5.07
   0   1  14    0.05    1.22
   1   1  14    2.20    1.69
   2   1  14   39.65    7.31
   3   1  14   -1.18    2.64
  -3   2  14   42.28    8.25
  -2   2  14   -0.70    1.20
  -1   2  14    2.35    1.79
   0   2  14   56.39    5.99
   1   2  14    2.47    2.80
   2   2  14   -1.87    2.54
  -4   3  14    2.01    2.89
  -3   3  14    4.74    3.11
  -2   3  14   40.66    7.42
  -1   3  14    1.11    2.16
   0   3  14    3.80    3.34
   1   3  14   22.47    6.47
  -4   4  14   17.34    6.33
  -3   4  14   -0.03    2.65
  -2   4  14   -0.07    2.87
  -1   4  14   23.15    6.52
   1  -4  15    2.19    4.23
   2  -4  15   22.51    6.47
   3  -4  15   -1.17    3.12
  -1  -3  15    1.05    4.35
   0  -3  15   36.72    7.92
   1  -3  15    0.78    2.74
   2  -3  15    2.90    3.14
   3  -3  15   23.51    7.36
  -2  -2  15   18.05    4.24
  -1  -2  15    1.57    3.28
   0  -2  15    1.59    2.77
   1  -2  15   42.32    8.31
   2  -2  15    0.06    2.54
   4  -2  15   23.54    6.75
  -3  -1  15    0.28    3.33
  -2  -1  15    1.34    2.33
  -1  -1  15   48.18    8.53
   0  -1  15   -0.21    2.10
   1  -1  15    3.73    3.09
   2  -1  15   47.12    5.26
   3  -1  15    1.48    2.56
   4  -1  15    0.10    3.70
  -3   0  15   21.57    4.33
  -2   0  15   -0.60    2.10
  -1   0  15    0.50    2.34
   0   0  15   61.26    8.96
   1   0  15    0.62    1.43
   2   0  15    2.38    2.71
   3   0  15   22.93    6.37
  -4   1  15    1.24    3.56
  -3   1  15    1.97    2.85
  -2   1  15   48.86    8.27
  -1   1  15   -0.67    1.15
   0   1  15    0.85    1.40
   1   1  15   36.21    4.83
   2   1  15    1.21    2.71
   3   1  15    1.36    4.23
  -3   2  15    1.29    3.05
  -2   2  15    1.27    1.73
  -1   2  15   39.84    5.09
   0   2  15    1.26    1.76
   1   2  15    0.26    2.34
   2   2  15   20.20    6.22
  -3   3  15   25.20    6.05
  -2   3  15   -0.12    2.14
  -1   3  15    0.66    2.43
   0   3  15   16.17    5.04
  -3   4  15    3.75    3.35
  -2   4  15   20.49    6.22
   0  -3  16   43.20    9.07
   1  -3  16    1.16    3.43
   2  -3  16   -1.84    2.81
  -2  -2  16   26.41    7.45
  -1  -2  16    4.61    4.23
   0  -2  16    1.86    2.85
   1  -2  16   78.38   11.27
   2  -2  16    0.25    2.72
   4  -2  16   43.01    8.72
  -2  -1  16    1.37    3.37
  -1  -1  16   73.44   10.86
   0  -1  16    6.86    3.98
   1  -1  16    4.01    3.27
   2  -1  16   94.11    6.25
   3  -1  16    0.68    2.74
  -3   0  16   38.64    8.23
  -2   0  16    4.00    3.38
  -1   0  16    0.75    2.26
   0   0  16   95.66    9.26
   1   0  16    1.85    1.64
   2   0  16    3.91    3.04
   3   0  16   46.30    8.86
  -3   1  16    0.93    3.05
  -2   1  16   84.05    9.22
  -1   1  16    4.38    3.15
   0   1  16    4.69    2.17
   1   1  16   90.95    6.47
   2   1  16   -0.09    2.66
  -3   2  16    2.66    3.53
  -2   2  16    1.92    2.12
  -1   2  16   85.40    6.63
   0   2  16    1.27    1.89
   1   2  16    0.32    2.69
  -3   3  16   51.52    8.73
  -2   3  16    0.98    2.99
  -1   3  16    1.81    2.93
   0   3  16   40.44    7.65
   1  -3  17    4.69    4.62
   2  -3  17    4.14    4.15
  -1  -2  17    5.72    4.44
   0  -2  17    5.57    4.15
   1  -2  17    0.07    2.67
   2  -2  17    0.98    3.27
  -2  -1  17    8.27    4.40
  -1  -1  17    0.92    3.27
   0  -1  17    8.37    3.88
   1  -1  17    9.34    4.46
   2  -1  17    0.65    2.72
   3  -1  17    5.44    3.79
  -3   0  17   -0.30    3.58
  -2   0  17    7.49    4.18
  -1   0  17   13.39    5.21
   0   0  17   -0.49    2.28
   1   0  17   13.20    3.11
   2   0  17    2.81    3.03
   3   0  17   -1.70    3.12
  -3   1  17    6.12    4.01
  -2   1  17    0.60    2.62
  -1   1  17    8.97    4.41
   0   1  17   10.53    2.83
   1   1  17    0.31    1.84
   2   1  17    3.73    3.47
  -3   2  17    3.61    4.10
  -2   2  17    4.03    3.69
  -1   2  17    1.14    2.10
   0   2  17   10.14    3.08
   1   2  17    4.03    3.69
  -2   3  17   11.17    4.57
  -1   3  17    2.74    3.24
   2  -3  18   10.19    5.60
   0  -2  18   27.62    7.40
   1  -2  18    4.04    3.95
   2  -2  18    0.50    3.30
  -2  -1  18   19.95    6.62
  -1  -1  18    4.37    3.73
   0  -1  18    1.43    3.37
   1  -1  18   46.59    9.14
   2  -1  18    7.25    4.25
  -2   0  18   -1.10    2.80
  -1   0  18   42.29    8.34
   0   0  18    3.42    3.20
   1   0  18    1.10    2.89
   2   0  18   41.32    7.81
  -3   1  18   18.97    6.30
  -2   1  18    1.64    3.13
  -1   1  18    0.85    2.60
   0   1  18   42.24    5.38
   1   1  18    3.66    2.42
  -3   2  18   -0.42    4.51
  -2   2  18   30.64    7.76
  -1   2  18    1.15    2.12
   0   2  18   -0.69    1.80
  -2   3  18   -0.98    3.16
  -1   3  18   30.08    7.93
   1  -2  19   -1.15    3.26
   2  -2  19   -0.43    3.37
  -1  -1  19    1.74    3.58
   0  -1  19    1.39    3.46
   1  -1  19   18.39    6.52
  -2   0  19    0.66    2.93
  -1   0  19    8.39    4.49
   0   0  19   -1.02    2.68
   1   0  19    1.22    3.21
   2   0  19   13.77    5.35
  -2   1  19    0.93    3.06
  -1   1  19    5.74    3.87
   0   1  19   13.30    5.04
   1   1  19   -0.32    2.14
  -1   2  19    2.51    3.45
   0   2  19   -1.42    2.03
   1  -1  20   26.02    7.25
   0   0  20    0.35    3.42
   1   0  20    8.07    4.35
   0   1  20   25.49    7.26
   0   0   0    0.00    0.00
;
_shelx_hkl_checksum              52174
#END Tags that were not found in dictionaries
loop_
_space_group_symop_operation_xyz
'x, y, z'
'-y, x-y, z'
'-x+y, -x, z'
'y, x, -z'
'x-y, -y, -z'
'-x, -x+y, -z'
'-x, -y, -z'
'y, -x+y, -z'
'x-y, x, -z'
'-y, -x, z'
'-x+y, y, z'
'x, x-y, z'
loop_
_atom_site_label
_atom_site_type_symbol
_atom_site_fract_x
_atom_site_fract_y
_atom_site_fract_z
_atom_site_U_iso_or_equiv
_atom_site_adp_type
_atom_site_occupancy
_atom_site_site_symmetry_order
_atom_site_calc_flag
_atom_site_refinement_flags_posn
_atom_site_refinement_flags_adp
_atom_site_refinement_flags_occupancy
Gd1 Gd 0.0000 0.0000 0.5000 0.033(3) Uani 0.242(9) 12 d S T .
Gd2 Gd 0.0000 0.0000 0.0000 0.0166(4) Uani 1 12 d S T P
Zn1 Zn 0.3333 0.6667 0.3318(6) 0.0220(18) Uani 0.533(15) 6 d S T P
Zn2 Zn 0.3333 0.6667 0.8037(2) 0.0186(6) Uani 1 6 d S T P
Mn Mn 0.3333 0.6667 0.4079(11) 0.034(3) Uani 0.468(15) 6 d S T P
As1 As 0.3333 0.6667 0.12611(15) 0.0105(4) Uani 1 6 d S T P
As2 As 0.3333 0.6667 0.61946(17) 0.0177(5) Uani 1 6 d S T P
loop_
_atom_site_aniso_label
_atom_site_aniso_U_11
_atom_site_aniso_U_22
_atom_site_aniso_U_33
_atom_site_aniso_U_23
_atom_site_aniso_U_13
_atom_site_aniso_U_12
Gd1 0.037(4) 0.037(4) 0.025(4) 0.000 0.000 0.0184(18)
Gd2 0.0164(5) 0.0164(5) 0.0170(7) 0.000 0.000 0.0082(3)
Zn1 0.0148(17) 0.0148(17) 0.037(4) 0.000 0.000 0.0074(9)
Zn2 0.0201(9) 0.0201(9) 0.0156(12) 0.000 0.000 0.0100(4)
Mn 0.022(3) 0.022(3) 0.057(9) 0.000 0.000 0.0110(14)
As1 0.0105(6) 0.0105(6) 0.0104(9) 0.000 0.000 0.0053(3)
As2 0.0198(7) 0.0198(7) 0.0134(10) 0.000 0.000 0.0099(4)
loop_
_atom_type_symbol
_atom_type_description
_atom_type_scat_dispersion_real
_atom_type_scat_dispersion_imag
_atom_type_scat_source
Mn Mn 0.3368 0.7283 'International Tables Vol C Tables 4.2.6.8 and 6.1.1.4'
Zn Zn 0.2839 1.4301 'International Tables Vol C Tables 4.2.6.8 and 6.1.1.4'
As As 0.0499 2.0058 'International Tables Vol C Tables 4.2.6.8 and 6.1.1.4'
Gd Gd -0.1653 3.9035 'International Tables Vol C Tables 4.2.6.8 and 6.1.1.4'
loop_
_geom_angle_atom_site_label_1
_geom_angle_atom_site_label_2
_geom_angle_atom_site_label_3
_geom_angle
_geom_angle_site_symmetry_1
_geom_angle_site_symmetry_3
Mn Gd1 Mn 79.8(3) . 7_666
Mn Gd1 Mn 100.2(3) . 1_445
Mn Gd1 Mn 180.0 7_666 1_445
Mn Gd1 Mn 180.0 . 7_556
Mn Gd1 Mn 100.2(3) 7_666 7_556
Mn Gd1 Mn 79.8(3) 1_445 7_556
Mn Gd1 Mn 79.8(3) . 7_566
Mn Gd1 Mn 100.2(3) 7_666 7_566
Mn Gd1 Mn 79.8(3) 1_445 7_566
Mn Gd1 Mn 100.2(3) 7_556 7_566
Mn Gd1 Mn 100.2(3) . 1_545
Mn Gd1 Mn 79.8(3) 7_666 1_545
Mn Gd1 Mn 100.2(3) 1_445 1_545
Mn Gd1 Mn 79.8(3) 7_556 1_545
Mn Gd1 Mn 180.0(5) 7_566 1_545
Mn Gd1 As2 118.2(3) . 7_556
Mn Gd1 As2 128.82(11) 7_666 7_556
Mn Gd1 As2 51.18(11) 1_445 7_556
Mn Gd1 As2 61.8(3) 7_556 7_556
Mn Gd1 As2 128.81(11) 7_566 7_556
Mn Gd1 As2 51.19(11) 1_545 7_556
Mn Gd1 As2 51.19(11) . 7_666
Mn Gd1 As2 61.8(3) 7_666 7_666
Mn Gd1 As2 118.2(3) 1_445 7_666
Mn Gd1 As2 128.82(11) 7_556 7_666
Mn Gd1 As2 128.81(11) 7_566 7_666
Mn Gd1 As2 51.19(11) 1_545 7_666
As2 Gd1 As2 91.56(6) 7_556 7_666
Mn Gd1 As2 128.81(11) . 1_445
Mn Gd1 As2 118.2(3) 7_666 1_445
Mn Gd1 As2 61.8(3) 1_445 1_445
Mn Gd1 As2 51.18(11) 7_556 1_445
Mn Gd1 As2 51.19(11) 7_566 1_445
Mn Gd1 As2 128.81(11) 1_545 1_445
As2 Gd1 As2 88.44(6) 7_556 1_445
As2 Gd1 As2 180.0 7_666 1_445
Mn Gd1 As2 61.8(3) . .
Mn Gd1 As2 51.18(11) 7_666 .
Mn Gd1 As2 128.82(11) 1_445 .
Mn Gd1 As2 118.2(3) 7_556 .
Mn Gd1 As2 51.19(11) 7_566 .
Mn Gd1 As2 128.81(11) 1_545 .
As2 Gd1 As2 180.0 7_556 .
As2 Gd1 As2 88.44(6) 7_666 .
As2 Gd1 As2 91.56(6) 1_445 .
Mn Gd1 As2 51.19(11) . 7_566
Mn Gd1 As2 128.81(11) 7_666 7_566
Mn Gd1 As2 51.19(11) 1_445 7_566
Mn Gd1 As2 128.81(11) 7_556 7_566
Mn Gd1 As2 61.8(3) 7_566 7_566
Mn Gd1 As2 118.2(3) 1_545 7_566
As2 Gd1 As2 91.56(6) 7_556 7_566
As2 Gd1 As2 91.56(6) 7_666 7_566
As2 Gd1 As2 88.44(6) 1_445 7_566
As2 Gd1 As2 88.44(6) . 7_566
Mn Gd1 As2 128.81(11) . 1_545
Mn Gd1 As2 51.19(11) 7_666 1_545
Mn Gd1 As2 128.81(11) 1_445 1_545
Mn Gd1 As2 51.19(11) 7_556 1_545
Mn Gd1 As2 118.2(3) 7_566 1_545
Mn Gd1 As2 61.8(3) 1_545 1_545
As2 Gd1 As2 88.44(6) 7_556 1_545
As2 Gd1 As2 88.44(6) 7_666 1_545
As2 Gd1 As2 91.56(6) 1_445 1_545
As2 Gd1 As2 91.56(6) . 1_545
As2 Gd1 As2 180.00(8) 7_566 1_545
As1 Gd2 As1 89.52(5) 7 7_665
As1 Gd2 As1 90.48(5) 7 1_445
As1 Gd2 As1 180.00(7) 7_665 1_445
As1 Gd2 As1 89.52(5) 7 7_565
As1 Gd2 As1 89.52(5) 7_665 7_565
As1 Gd2 As1 90.48(5) 1_445 7_565
As1 Gd2 As1 90.48(5) 7 1_545
As1 Gd2 As1 90.48(5) 7_665 1_545
As1 Gd2 As1 89.52(5) 1_445 1_545
As1 Gd2 As1 180.00(7) 7_565 1_545
As1 Gd2 As1 180.0 7 .
As1 Gd2 As1 90.48(5) 7_665 .
As1 Gd2 As1 89.52(5) 1_445 .
As1 Gd2 As1 90.48(5) 7_565 .
As1 Gd2 As1 89.52(5) 1_545 .
As1 Gd2 Zn2 45.18(2) 7 1_444
As1 Gd2 Zn2 96.30(5) 7_665 1_444
As1 Gd2 Zn2 83.70(5) 1_445 1_444
As1 Gd2 Zn2 45.18(2) 7_565 1_444
As1 Gd2 Zn2 134.82(2) 1_545 1_444
As1 Gd2 Zn2 134.82(2) . 1_444
As1 Gd2 Zn2 134.82(2) 7 7_666
As1 Gd2 Zn2 83.70(5) 7_665 7_666
As1 Gd2 Zn2 96.30(5) 1_445 7_666
As1 Gd2 Zn2 134.82(2) 7_565 7_666
As1 Gd2 Zn2 45.18(2) 1_545 7_666
As1 Gd2 Zn2 45.18(2) . 7_666
Zn2 Gd2 Zn2 180.00(6) 1_444 7_666
As1 Gd2 Zn2 96.30(5) 7 1_554
As1 Gd2 Zn2 45.18(2) 7_665 1_554
As1 Gd2 Zn2 134.82(2) 1_445 1_554
As1 Gd2 Zn2 45.18(2) 7_565 1_554
As1 Gd2 Zn2 134.82(2) 1_545 1_554
As1 Gd2 Zn2 83.71(5) . 1_554
Zn2 Gd2 Zn2 70.67(5) 1_444 1_554
Zn2 Gd2 Zn2 109.33(5) 7_666 1_554
As1 Gd2 Zn2 83.70(5) 7 7_556
As1 Gd2 Zn2 134.82(2) 7_665 7_556
As1 Gd2 Zn2 45.18(2) 1_445 7_556
As1 Gd2 Zn2 134.82(2) 7_565 7_556
As1 Gd2 Zn2 45.18(2) 1_545 7_556
As1 Gd2 Zn2 96.29(5) . 7_556
Zn2 Gd2 Zn2 109.33(5) 1_444 7_556
Zn2 Gd2 Zn2 70.67(5) 7_666 7_556
Zn2 Gd2 Zn2 180.00(6) 1_554 7_556
As1 Gd2 Zn2 45.18(2) 7 1_544
As1 Gd2 Zn2 45.18(2) 7_665 1_544
As1 Gd2 Zn2 134.82(2) 1_445 1_544
As1 Gd2 Zn2 96.30(5) 7_565 1_544
As1 Gd2 Zn2 83.70(5) 1_545 1_544
As1 Gd2 Zn2 134.82(2) . 1_544
Zn2 Gd2 Zn2 70.67(5) 1_444 1_544
Zn2 Gd2 Zn2 109.33(5) 7_666 1_544
Zn2 Gd2 Zn2 70.67(5) 1_554 1_544
Zn2 Gd2 Zn2 109.33(5) 7_556 1_544
As1 Gd2 Zn2 134.82(2) 7 7_566
As1 Gd2 Zn2 134.82(2) 7_665 7_566
As1 Gd2 Zn2 45.18(2) 1_445 7_566
As1 Gd2 Zn2 83.70(5) 7_565 7_566
As1 Gd2 Zn2 96.30(5) 1_545 7_566
As1 Gd2 Zn2 45.18(2) . 7_566
Zn2 Gd2 Zn2 109.33(5) 1_444 7_566
Zn2 Gd2 Zn2 70.67(5) 7_666 7_566
Zn2 Gd2 Zn2 109.33(5) 1_554 7_566
Zn2 Gd2 Zn2 70.67(5) 7_556 7_566
Zn2 Gd2 Zn2 180.00(6) 1_544 7_566
Mn Zn1 As2 74.54(18) . 7_666
Mn Zn1 As2 74.54(18) . 7_676
As2 Zn1 As2 113.17(15) 7_666 7_676
Mn Zn1 As2 74.54(18) . 7_566
As2 Zn1 As2 113.17(15) 7_666 7_566
As2 Zn1 As2 113.16(15) 7_676 7_566
Mn Zn1 As1 180.0 . .
As2 Zn1 As1 105.46(18) 7_666 .
As2 Zn1 As1 105.46(18) 7_676 .
As2 Zn1 As1 105.46(18) 7_566 .
Mn Zn1 Zn2 127.59(13) . 7_666
As2 Zn1 Zn2 53.05(9) 7_666 7_666
As2 Zn1 Zn2 122.99(12) 7_676 7_666
As2 Zn1 Zn2 122.99(12) 7_566 7_666
As1 Zn1 Zn2 52.41(13) . 7_666
Mn Zn1 Zn2 127.59(13) . 7_566
As2 Zn1 Zn2 122.99(12) 7_666 7_566
As2 Zn1 Zn2 122.99(12) 7_676 7_566
As2 Zn1 Zn2 53.05(9) 7_566 7_566
As1 Zn1 Zn2 52.41(13) . 7_566
Zn2 Zn1 Zn2 86.67(18) 7_666 7_566
Mn Zn1 Zn2 127.59(12) . 7_676
As2 Zn1 Zn2 122.99(12) 7_666 7_676
As2 Zn1 Zn2 53.05(9) 7_676 7_676
As2 Zn1 Zn2 122.99(12) 7_566 7_676
As1 Zn1 Zn2 52.41(13) . 7_676
Zn2 Zn1 Zn2 86.67(18) 7_666 7_676
Zn2 Zn1 Zn2 86.67(18) 7_566 7_676
Mn Zn1 Gd1 46.32(10) . 1_665
As2 Zn1 Gd1 57.82(11) 7_666 1_665
As2 Zn1 Gd1 57.82(11) 7_676 1_665
As2 Zn1 Gd1 120.9(3) 7_566 1_665
As1 Zn1 Gd1 133.68(10) . 1_665
Zn2 Zn1 Gd1 97.74(4) 7_666 1_665
Zn2 Zn1 Gd1 173.9(2) 7_566 1_665
Zn2 Zn1 Gd1 97.74(4) 7_676 1_665
Mn Zn1 Gd1 46.32(10) . 1_565
As2 Zn1 Gd1 120.9(3) 7_666 1_565
As2 Zn1 Gd1 57.82(11) 7_676 1_565
As2 Zn1 Gd1 57.82(11) 7_566 1_565
As1 Zn1 Gd1 133.68(10) . 1_565
Zn2 Zn1 Gd1 173.9(2) 7_666 1_565
Zn2 Zn1 Gd1 97.74(4) 7_566 1_565
Zn2 Zn1 Gd1 97.74(4) 7_676 1_565
Gd1 Zn1 Gd1 77.56(15) 1_665 1_565
Mn Zn1 Gd1 46.32(10) . .
As2 Zn1 Gd1 57.82(11) 7_666 .
As2 Zn1 Gd1 120.9(3) 7_676 .
As2 Zn1 Gd1 57.82(11) 7_566 .
As1 Zn1 Gd1 133.68(10) . .
Zn2 Zn1 Gd1 97.74(4) 7_666 .
Zn2 Zn1 Gd1 97.74(4) 7_566 .
Zn2 Zn1 Gd1 173.9(2) 7_676 .
Gd1 Zn1 Gd1 77.56(15) 1_665 .
Gd1 Zn1 Gd1 77.56(15) 1_565 .
As2 Zn2 As1 111.72(7) . 7_666
As2 Zn2 As1 111.72(7) . 7_676
As1 Zn2 As1 107.13(7) 7_666 7_676
As2 Zn2 As1 111.72(7) . 7_566
As1 Zn2 As1 107.13(7) 7_666 7_566
As1 Zn2 As1 107.13(7) 7_676 7_566
As2 Zn2 Zn1 52.41(13) . 7_666
As1 Zn2 Zn1 59.31(13) 7_666 7_666
As1 Zn2 Zn1 126.43(4) 7_676 7_666
As1 Zn2 Zn1 126.43(4) 7_566 7_666
As2 Zn2 Zn1 52.41(13) . 7_566
As1 Zn2 Zn1 126.43(4) 7_666 7_566
As1 Zn2 Zn1 126.43(4) 7_676 7_566
As1 Zn2 Zn1 59.31(13) 7_566 7_566
Zn1 Zn2 Zn1 86.67(18) 7_666 7_566
As2 Zn2 Zn1 52.41(13) . 7_676
As1 Zn2 Zn1 126.43(4) 7_666 7_676
As1 Zn2 Zn1 59.31(13) 7_676 7_676
As1 Zn2 Zn1 126.43(4) 7_566 7_676
Zn1 Zn2 Zn1 86.67(18) 7_666 7_676
Zn1 Zn2 Zn1 86.67(18) 7_566 7_676
As2 Zn2 Gd2 138.10(3) . 1_666
As1 Zn2 Gd2 54.15(5) 7_666 1_666
As1 Zn2 Gd2 54.15(5) 7_676 1_666
As1 Zn2 Gd2 110.18(9) 7_566 1_666
Zn1 Zn2 Gd2 100.92(10) 7_666 1_666
Zn1 Zn2 Gd2 169.49(14) 7_566 1_666
Zn1 Zn2 Gd2 100.92(10) 7_676 1_666
As2 Zn2 Gd2 138.10(3) . 1_566
As1 Zn2 Gd2 110.18(9) 7_666 1_566
As1 Zn2 Gd2 54.15(5) 7_676 1_566
As1 Zn2 Gd2 54.15(5) 7_566 1_566
Zn1 Zn2 Gd2 169.49(14) 7_666 1_566
Zn1 Zn2 Gd2 100.92(10) 7_566 1_566
Zn1 Zn2 Gd2 100.92(10) 7_676 1_566
Gd2 Zn2 Gd2 70.67(5) 1_666 1_566
As2 Zn2 Gd2 138.10(3) . 1_556
As1 Zn2 Gd2 54.15(5) 7_666 1_556
As1 Zn2 Gd2 110.18(9) 7_676 1_556
As1 Zn2 Gd2 54.15(5) 7_566 1_556
Zn1 Zn2 Gd2 100.92(10) 7_666 1_556
Zn1 Zn2 Gd2 100.92(10) 7_566 1_556
Zn1 Zn2 Gd2 169.49(14) 7_676 1_556
Gd2 Zn2 Gd2 70.67(5) 1_666 1_556
Gd2 Zn2 Gd2 70.67(5) 1_566 1_556
Zn1 Mn As2 81.2(3) . 7_666
Zn1 Mn As2 81.2(3) . 7_566
As2 Mn As2 117.69(18) 7_666 7_566
Zn1 Mn As2 81.2(3) . 7_676
As2 Mn As2 117.69(18) 7_666 7_676
As2 Mn As2 117.68(18) 7_566 7_676
Zn1 Mn Gd1 117.6(3) . 1_565
As2 Mn Gd1 161.2(6) 7_666 1_565
As2 Mn Gd1 68.49(9) 7_566 1_565
As2 Mn Gd1 68.49(9) 7_676 1_565
Zn1 Mn Gd1 117.6(3) . 1_665
As2 Mn Gd1 68.49(9) 7_666 1_665
As2 Mn Gd1 161.2(6) 7_566 1_665
As2 Mn Gd1 68.49(9) 7_676 1_665
Gd1 Mn Gd1 100.2(3) 1_565 1_665
Zn1 Mn Gd1 117.6(3) . .
As2 Mn Gd1 68.49(9) 7_666 .
As2 Mn Gd1 68.49(9) 7_566 .
As2 Mn Gd1 161.2(6) 7_676 .
Gd1 Mn Gd1 100.2(3) 1_565 .
Gd1 Mn Gd1 100.2(3) 1_665 .
Zn1 Mn As2 180.0 . .
As2 Mn As2 98.8(3) 7_666 .
As2 Mn As2 98.8(3) 7_566 .
As2 Mn As2 98.8(3) 7_676 .
Gd1 Mn As2 62.4(3) 1_565 .
Gd1 Mn As2 62.4(3) 1_665 .
Gd1 Mn As2 62.4(3) . .
Zn2 As1 Zn2 107.13(7) 7_666 7_676
Zn2 As1 Zn2 107.13(7) 7_666 7_566
Zn2 As1 Zn2 107.13(7) 7_676 7_566
Zn2 As1 Zn1 68.28(7) 7_666 .
Zn2 As1 Zn1 68.28(7) 7_676 .
Zn2 As1 Zn1 68.28(7) 7_566 .
Zn2 As1 Gd2 80.67(4) 7_666 .
Zn2 As1 Gd2 166.11(9) 7_676 .
Zn2 As1 Gd2 80.67(4) 7_566 .
Zn1 As1 Gd2 125.61(4) . .
Zn2 As1 Gd2 166.12(9) 7_666 1_565
Zn2 As1 Gd2 80.67(4) 7_676 1_565
Zn2 As1 Gd2 80.67(4) 7_566 1_565
Zn1 As1 Gd2 125.61(4) . 1_565
Gd2 As1 Gd2 89.52(5) . 1_565
Zn2 As1 Gd2 80.67(4) 7_666 1_665
Zn2 As1 Gd2 80.67(4) 7_676 1_665
Zn2 As1 Gd2 166.11(9) 7_566 1_665
Zn1 As1 Gd2 125.61(4) . 1_665
Gd2 As1 Gd2 89.52(5) . 1_665
Gd2 As1 Gd2 89.52(5) 1_565 1_665
Mn As2 Mn 117.69(18) 7_666 7_566
Mn As2 Mn 117.69(18) 7_666 7_676
Mn As2 Mn 117.68(18) 7_566 7_676
Mn As2 Zn1 24.3(3) 7_666 7_666
Mn As2 Zn1 121.14(8) 7_566 7_666
Mn As2 Zn1 121.14(8) 7_676 7_666
Mn As2 Zn1 121.14(8) 7_666 7_676
Mn As2 Zn1 121.14(8) 7_566 7_676
Mn As2 Zn1 24.3(3) 7_676 7_676
Zn1 As2 Zn1 113.17(15) 7_666 7_676
Mn As2 Zn1 121.14(8) 7_666 7_566
Mn As2 Zn1 24.3(3) 7_566 7_566
Mn As2 Zn1 121.14(8) 7_676 7_566
Zn1 As2 Zn1 113.17(15) 7_666 7_566
Zn1 As2 Zn1 113.16(15) 7_676 7_566
Mn As2 Zn2 98.8(3) 7_666 .
Mn As2 Zn2 98.8(3) 7_566 .
Mn As2 Zn2 98.8(3) 7_676 .
Zn1 As2 Zn2 74.54(18) 7_666 .
Zn1 As2 Zn2 74.54(18) 7_676 .
Zn1 As2 Zn2 74.54(18) 7_566 .
Mn As2 Mn 81.2(3) 7_666 .
Mn As2 Mn 81.2(3) 7_566 .
Mn As2 Mn 81.2(3) 7_676 .
Zn1 As2 Mn 105.46(18) 7_666 .
Zn1 As2 Mn 105.46(18) 7_676 .
Zn1 As2 Mn 105.46(18) 7_566 .
Zn2 As2 Mn 180.0 . .
Mn As2 Gd1 60.32(19) 7_666 .
Mn As2 Gd1 60.32(19) 7_566 .
Mn As2 Gd1 137.0(4) 7_676 .
Zn1 As2 Gd1 75.57(12) 7_666 .
Zn1 As2 Gd1 161.3(2) 7_676 .
Zn1 As2 Gd1 75.57(12) 7_566 .
Zn2 As2 Gd1 124.15(4) . .
Mn As2 Gd1 55.85(4) . .
Mn As2 Gd1 137.0(4) 7_666 1_565
Mn As2 Gd1 60.32(19) 7_566 1_565
Mn As2 Gd1 60.32(19) 7_676 1_565
Zn1 As2 Gd1 161.3(2) 7_666 1_565
Zn1 As2 Gd1 75.57(12) 7_676 1_565
Zn1 As2 Gd1 75.57(12) 7_566 1_565
Zn2 As2 Gd1 124.15(4) . 1_565
Mn As2 Gd1 55.85(4) . 1_565
Gd1 As2 Gd1 91.56(6) . 1_565
Mn As2 Gd1 60.32(19) 7_666 1_665
Mn As2 Gd1 137.0(4) 7_566 1_665
Mn As2 Gd1 60.32(19) 7_676 1_665
Zn1 As2 Gd1 75.57(12) 7_666 1_665
Zn1 As2 Gd1 75.57(12) 7_676 1_665
Zn1 As2 Gd1 161.3(2) 7_566 1_665
Zn2 As2 Gd1 124.15(4) . 1_665
Mn As2 Gd1 55.85(4) . 1_665
Gd1 As2 Gd1 91.56(6) . 1_665
Gd1 As2 Gd1 91.56(6) 1_565 1_665
loop_
_geom_bond_atom_site_label_1
_geom_bond_atom_site_label_2
_geom_bond_distance
_geom_bond_site_symmetry_2
Gd1 Mn 2.683(7) .
Gd1 Mn 2.683(7) 7_666
Gd1 Mn 2.683(7) 1_445
Gd1 Mn 2.683(7) 7_556
Gd1 Mn 2.683(7) 7_566
Gd1 Mn 2.683(7) 1_545
Gd1 As2 2.8729(15) 7_556
Gd1 As2 2.8729(15) 7_666
Gd1 As2 2.8729(15) 1_445
Gd1 As2 2.8729(15) .
Gd1 As2 2.8729(15) 7_566
Gd1 As2 2.8729(15) 1_545
Gd2 As1 2.9242(14) 7
Gd2 As1 2.9242(14) 7_665
Gd2 As1 2.9242(14) 1_445
Gd2 As1 2.9243(14) 7_565
Gd2 As1 2.9243(14) 1_545
Gd2 As1 2.9243(14) .
Gd2 Zn2 3.560(2) 1_444
Gd2 Zn2 3.560(2) 7_666
Gd2 Zn2 3.560(2) 1_554
Gd2 Zn2 3.560(2) 7_556
Gd2 Zn2 3.560(2) 1_544
Gd2 Zn2 3.560(2) 7_566
Zn1 Mn 1.027(13) .
Zn1 As2 2.467(2) 7_666
Zn1 As2 2.467(2) 7_676
Zn1 As2 2.467(2) 7_566
Zn1 As1 2.777(8) .
Zn1 Zn2 3.000(5) 7_666
Zn1 Zn2 3.000(5) 7_566
Zn1 Zn2 3.000(5) 7_676
Zn1 Gd1 3.287(5) 1_665
Zn1 Gd1 3.287(5) 1_565
Zn2 As2 2.488(3) .
Zn2 As1 2.5592(14) 7_666
Zn2 As1 2.5593(14) 7_676
Zn2 As1 2.5593(14) 7_566
Zn2 Zn1 3.000(5) 7_666
Zn2 Zn1 3.000(5) 7_566
Zn2 Zn1 3.000(5) 7_676
Zn2 Gd2 3.560(2) 1_666
Zn2 Gd2 3.560(2) 1_566
Zn2 Gd2 3.560(2) 1_556
Mn As2 2.406(2) 7_666
Mn As2 2.406(2) 7_566
Mn As2 2.406(2) 7_676
Mn Gd1 2.683(7) 1_565
Mn Gd1 2.683(7) 1_665
Mn As2 2.856(14) .
As1 Zn2 2.5592(14) 7_666
As1 Zn2 2.5593(14) 7_676
As1 Zn2 2.5593(14) 7_566
As1 Gd2 2.9243(14) 1_565
As1 Gd2 2.9243(14) 1_665
As2 Mn 2.406(2) 7_666
As2 Mn 2.406(2) 7_566
As2 Mn 2.406(2) 7_676
As2 Zn1 2.467(2) 7_666
As2 Zn1 2.467(2) 7_676
As2 Zn1 2.467(2) 7_566
As2 Gd1 2.8729(15) 1_565
As2 Gd1 2.8729(15) 1_665
