#------------------------------------------------------------------------------
#$Date: 2016-03-23 23:36:17 +0200 (Wed, 23 Mar 2016) $
#$Revision: 179508 $
#$URL: svn://www.crystallography.net/cod/cif/4/34/05/4340519.cif $
#------------------------------------------------------------------------------
#
# This file is available in the Crystallography Open Database (COD),
# http://www.crystallography.net/
#
# All data on this site have been placed in the public domain by the
# contributors.
#
data_4340519
loop_
_publ_author_name
'Lin, Xinsong'
'Tabassum, Danisa'
'Rudyk, Brent W.'
'Mar, Arthur'
_publ_section_title
;
 Manganese-Substituted Rare-Earth Zinc Arsenides RE1-yMnxZn2-xAs2 (RE =
 Eu-Lu) and RE2-yMnxZn4-xAs4 (RE = La-Nd, Sm, Gd).
;
_journal_issue                   16
_journal_name_full               'Inorganic chemistry'
_journal_page_first              8431
_journal_page_last               8441
_journal_paper_doi               10.1021/ic501053v
_journal_volume                  53
_journal_year                    2014
_chemical_formula_structural     'La1.23 Mn0.93 Zn3.07 As4'
_chemical_formula_sum            'As4 La1.23 Mn0.93 Zn3.07'
_chemical_formula_weight         722.32
_chemical_name_common
'lanthanum manganese zinc arsenide (1.3/0.9/3.1/4)'
_chemical_name_systematic
'lanthanum manganese zinc arsenide (1.3/0.9/3.1/4)'
_space_group_crystal_system      trigonal
_space_group_IT_number           164
_space_group_name_Hall           '-P 3 2"'
_space_group_name_H-M_alt        'P -3 m 1'
_symmetry_space_group_name_Hall  '-P 3 2"'
_symmetry_space_group_name_H-M   'P -3 m 1'
_atom_sites_solution_primary     direct
_atom_sites_solution_secondary   difmap
_audit_creation_method           SHELXL-2013
_cell_angle_alpha                90
_cell_angle_beta                 90
_cell_angle_gamma                120
_cell_formula_units_Z            1
_cell_length_a                   4.159(2)
_cell_length_b                   4.159(2)
_cell_length_c                   13.639(7)
_cell_measurement_reflns_used    1714
_cell_measurement_temperature    296(2)
_cell_measurement_theta_max      30.83
_cell_measurement_theta_min      5.66
_cell_volume                     204.31(17)
_computing_cell_refinement       'Bruker SAINT 8.32B (Bruker, 2011)'
_computing_data_collection       'Bruker APEX 2 (Bruker, 2008)'
_computing_data_reduction        'Bruker SAINT 8.32B'
_computing_molecular_graphics    'ATOMS 5.1 (Dowty, 1999)'
_computing_publication_material  'Bruker SHELXTL'
_computing_structure_refinement  'Bruker SHELXTL'
_computing_structure_solution    'Bruker SHELXTL'
_diffrn_ambient_temperature      296(2)
_diffrn_measured_fraction_theta_full 0.994
_diffrn_measured_fraction_theta_max 0.997
_diffrn_measurement_device_type  'Bruker PLATFORM/SMART APEX II CCD'
_diffrn_measurement_method       '\w scans'
_diffrn_radiation_type           MoK\a
_diffrn_radiation_wavelength     0.71073
_diffrn_reflns_av_R_equivalents  0.0968
_diffrn_reflns_av_unetI/netI     0.0427
_diffrn_reflns_Laue_measured_fraction_full 0.994
_diffrn_reflns_Laue_measured_fraction_max 0.997
_diffrn_reflns_limit_h_max       6
_diffrn_reflns_limit_h_min       -6
_diffrn_reflns_limit_k_max       6
_diffrn_reflns_limit_k_min       -6
_diffrn_reflns_limit_l_max       21
_diffrn_reflns_limit_l_min       -20
_diffrn_reflns_number            2919
_diffrn_reflns_point_group_measured_fraction_full 0.994
_diffrn_reflns_point_group_measured_fraction_max 0.997
_diffrn_reflns_theta_full        25.242
_diffrn_reflns_theta_max         33.190
_diffrn_reflns_theta_min         2.987
_diffrn_source                   'fine-focus sealed tube'
_exptl_absorpt_coefficient_mu    32.531
_exptl_absorpt_correction_T_max  0.6229
_exptl_absorpt_correction_T_min  0.3768
_exptl_absorpt_correction_type   numerical
_exptl_absorpt_process_details   'Bruker SHELXTL 6.12 (Sheldrick, 2001)'
_exptl_crystal_colour            black
_exptl_crystal_density_diffrn    5.870
_exptl_crystal_description       irregular
_exptl_crystal_F_000             317
_exptl_crystal_size_max          0.067
_exptl_crystal_size_mid          0.037
_exptl_crystal_size_min          0.028
_refine_diff_density_max         3.037
_refine_diff_density_min         -3.395
_refine_diff_density_rms         0.451
_refine_ls_extinction_method     none
_refine_ls_goodness_of_fit_ref   1.147
_refine_ls_hydrogen_treatment    undef
_refine_ls_matrix_type           full
_refine_ls_number_parameters     22
_refine_ls_number_reflns         359
_refine_ls_number_restraints     0
_refine_ls_restrained_S_all      1.147
_refine_ls_R_factor_all          0.0594
_refine_ls_R_factor_gt           0.0519
_refine_ls_shift/su_max          0.000
_refine_ls_shift/su_mean         0.000
_refine_ls_structure_factor_coef Fsqd
_refine_ls_weighting_details
'w=1/[\s^2^(Fo^2^)+(0.0273P)^2^+6.9917P] where P=(Fo^2^+2Fc^2^)/3'
_refine_ls_weighting_scheme      calc
_refine_ls_wR_factor_gt          0.1109
_refine_ls_wR_factor_ref         0.1127
_reflns_Friedel_coverage         0.000
_reflns_number_gt                318
_reflns_number_total             359
_reflns_threshold_expression     'I > 2\s(I)'
_cod_data_source_file            ic501053v_si_003.cif
_cod_data_source_block           La(Mn,Zn)4As4
_cod_depositor_comments
'Adding full bibliography for 4340510--4340524.cif.'
_cod_original_cell_volume        204.3(2)
_cod_database_code               4340519
#BEGIN Tags that were not found in dictionaries:
_shelx_space_group_comment
;
The symmetry employed for this shelxl refinement is uniquely defined
by the following loop, which should always be used as a source of
symmetry information in preference to the above space-group names.
They are only intended as comments.
;
_shelx_estimated_absorpt_t_min   0.219
_shelx_estimated_absorpt_t_max   0.463
_shelxl_version_number           2013-4
_shelx_res_file
;
TITL La(Mn,Zn)4As4 P-3m1 lsf final refinement
CELL 0.71073   4.1592   4.1592  13.6391  90.000  90.000 120.000
ZERR    1.00   0.0022   0.0022   0.0072   0.000   0.000   0.000
LATT  1
SYMM -Y, X-Y, Z
SYMM -X+Y, -X, Z
SYMM Y, X, -Z
SYMM X-Y, -Y, -Z
SYMM -X, -X+Y, -Z
SFAC MN ZN AS LA
UNIT 0.93 3.07 4 1.23
TEMP 23
SIZE 0.028 0.037 0.067

L.S. 4
ACTA

WGHT    0.027300    6.991700
FVAR       0.13750   0.53359
LA1   4    0.000000    0.000000    0.500000     0.02049    0.04387    0.04387 =
         0.02821    0.00000    0.00000    0.02193
LA2   4    0.000000    0.000000    0.000000    10.08333    0.01583    0.01583 =
         0.01785    0.00000    0.00000    0.00792
ZN1   2    0.333333    0.666667    0.336449    20.16667    0.01487    0.01487 =
         0.03922    0.00000    0.00000    0.00744
ZN2   2    0.333333    0.666667    0.799871    10.16667    0.02084    0.02084 =
         0.01413    0.00000    0.00000    0.01042
MN1   1    0.333333    0.666667    0.409498   -20.16667    0.02444    0.02444 =
         0.05259    0.00000    0.00000    0.01222
AS1   3    0.333333    0.666667    0.133263    10.16667    0.01330    0.01330 =
         0.01076    0.00000    0.00000    0.00665
AS2   3    0.333333    0.666667    0.616348    10.16667    0.02021    0.02021 =
         0.01348    0.00000    0.00000    0.01010
HKLF 4

REM  La(Mn,Zn)4As4 P-3m1 lsf final refinement
REM R1 =  0.0519 for     318 Fo > 4sig(Fo)  and  0.0594 for all     359 data
REM     22 parameters refined using      0 restraints

END

WGHT      0.0273      6.9916

REM Highest difference peak  3.037,  deepest hole -3.395,  1-sigma level  0.451
Q1    1   0.3333  0.6667  0.9596  10.16667  0.05    3.04
Q2    1   0.3333  0.6667  0.5704  10.16667  0.05    1.95
Q3    1   0.0000  0.0000  0.0639  10.16667  0.05    1.94
Q4    1   0.3333  0.6667  0.0588  10.16667  0.05    1.27
Q5    1   0.2481  0.7519  0.7805  10.50000  0.05    1.22
Q6    1   0.2600  0.7400  0.8967  10.50000  0.05    0.99
Q7    1   0.2137  0.2519  0.0388  11.00000  0.05    0.96
Q8    1   0.5068  0.4932  0.4298  10.50000  0.05    0.96
Q9    1   0.3333  0.6667  0.2468  10.16667  0.05    0.92
Q10   1   0.2341  0.4682  0.2096  10.50000  0.05    0.92
Q11   1   0.1610  0.3220  0.6168  10.50000  0.05    0.89
Q12   1  -0.0734  0.4633  0.0161  10.50000  0.05    0.87
Q13   1   0.0000  0.0000  0.4040  10.16667  0.05    0.84
Q14   1   0.1041  0.2082  0.2115  10.50000  0.05    0.83
Q15   1   0.6229  0.7033  0.8618  11.00000  0.05    0.81
Q16   1   0.4529  0.5471  0.1533  10.50000  0.05    0.78
Q17   1  -0.0095  0.4952  0.1093  10.50000  0.05    0.78
Q18   1  -0.1088 -0.2176  0.4969  10.50000  0.05    0.77
Q19   1   0.1915  0.5958  0.5412  10.50000  0.05    0.76
Q20   1   0.1581  0.3161  0.4431  10.50000  0.05    0.73
;
_shelx_res_checksum              49757
_shelx_hkl_file
;
   1  -1 -20    7.21    3.44
  -1   0 -20    6.64    2.38
   0   0 -20    2.07    1.81
   1   0 -20    1.23    2.81
  -1   1 -20    1.23    1.80
   0   1 -20    6.39    2.41
   1  -2 -19    0.91    1.66
   2  -2 -19    2.89    2.02
  -1  -1 -19    0.00    2.15
   0  -1 -19    2.86    1.78
   1  -1 -19   12.80    2.94
   2  -1 -19    0.97    1.66
  -2   0 -19    2.94    2.20
  -1   0 -19   11.11    2.77
   0   0 -19    0.65    1.24
   1   0 -19    4.05    2.02
  -2   1 -19    0.43    1.67
  -1   1 -19    3.39    1.96
   0   1 -19    8.95    2.05
   1   1 -19    0.30    1.67
  -1   2 -19    0.93    1.67
   0   2 -19    6.09    3.31
   1  -3 -18   23.11    5.28
   2  -3 -18   -0.10    1.40
   0  -2 -18    0.00    1.54
   1  -2 -18    1.01    1.59
   2  -2 -18   22.12    3.67
   3  -2 -18    0.33    2.42
  -2  -1 -18   -0.02    2.15
  -1  -1 -18   -0.63    1.86
   0  -1 -18   37.77    4.17
   1  -1 -18    0.75    1.43
   2  -1 -18    3.23    1.76
  -2   0 -18   34.27    4.67
  -1   0 -18   -0.87    1.29
   0   0 -18    1.54    1.20
   1   0 -18   34.24    3.41
   2   0 -18   -0.77    1.45
  -2   1 -18    0.45    1.61
  -1   1 -18   38.60    4.39
   0   1 -18    0.11    1.05
   1   1 -18    2.74    1.88
   2   1 -18   19.75    5.59
  -2   2 -18   -0.86    2.03
  -1   2 -18    0.27    1.31
   0   2 -18   21.42    3.75
   0  -3 -17    1.97    2.62
   1  -3 -17   15.70    3.10
   2  -3 -17    4.59    1.53
  -1  -2 -17   13.71    4.73
   0  -2 -17    7.72    2.37
   1  -2 -17    6.50    2.22
   2  -2 -17   24.51    3.66
   3  -2 -17    3.29    1.82
  -2  -1 -17    6.54    2.31
  -1  -1 -17    3.53    1.86
   0  -1 -17   29.65    3.91
   1  -1 -17    6.35    2.02
   2  -1 -17    4.71    1.97
   3  -1 -17   15.22    3.03
  -3   0 -17    0.40    1.87
  -2   0 -17   13.98    3.14
  -1   0 -17    9.31    2.39
   0   0 -17    5.81    1.63
   1   0 -17   34.40    3.43
   2   0 -17    4.44    2.05
  -3   1 -17    5.26    3.19
  -2   1 -17    4.46    1.97
  -1   1 -17   29.63    4.10
   0   1 -17    6.40    2.04
   1   1 -17    3.33    1.92
   2   1 -17   22.12    4.12
  -3   2 -17   13.42    4.65
  -2   2 -17    6.89    3.29
  -1   2 -17    4.26    1.83
   0   2 -17   25.62    3.98
   1   2 -17    3.23    2.11
  -2   3 -17   13.51    4.61
  -1   3 -17    3.88    2.97
   0   3 -17    2.04    2.65
   0  -3 -16   19.12    3.45
   1  -3 -16    0.32    1.40
   2  -3 -16    3.53    1.41
   3  -3 -16   15.23    2.66
  -1  -2 -16    0.51    2.29
   0  -2 -16    3.17    1.73
   1  -2 -16   35.18    4.23
   2  -2 -16   -0.52    1.03
   3  -2 -16    3.96    1.84
  -2  -1 -16    2.14    1.68
  -1  -1 -16   39.81    4.01
   0  -1 -16    0.24    1.01
   1  -1 -16    6.09    1.97
   2  -1 -16   30.83    3.62
   3  -1 -16    0.69    1.41
  -3   0 -16   25.86    4.03
  -2   0 -16    0.46    1.37
  -1   0 -16    2.71    1.55
   0   0 -16   44.75    3.26
   1   0 -16    0.17    0.91
   2   0 -16    4.21    1.93
   3   0 -16   17.77    5.09
  -3   1 -16    2.30    2.81
  -2   1 -16   38.56    4.27
  -1   1 -16    1.35    1.29
   0   1 -16    5.11    1.86
   1   1 -16   31.94    4.35
   2   1 -16    0.75    1.70
  -3   2 -16   -0.34    2.21
  -2   2 -16    3.22    2.48
  -1   2 -16   34.83    3.95
   0   2 -16    0.24    1.23
   1   2 -16    3.30    2.16
  -3   3 -16   26.67    4.23
  -2   3 -16    0.48    2.09
  -1   3 -16    2.25    2.79
   0   3 -16   17.29    3.53
  -2   4 -16   18.30    5.06
   1  -4 -15    1.67    1.81
   2  -4 -15   26.86    3.50
   3  -4 -15    0.78    1.58
  -1  -3 -15    5.01    2.98
   0  -3 -15   37.29    4.47
   1  -3 -15    3.08    1.77
   2  -3 -15    6.51    1.59
   3  -3 -15   33.92    3.97
   4  -3 -15    1.21    1.54
  -2  -2 -15   25.72    5.77
  -1  -2 -15    0.70    2.05
   0  -2 -15   12.04    2.49
   1  -2 -15   65.15    4.82
   2  -2 -15    1.58    1.38
   3  -2 -15    8.49    2.25
   4  -2 -15   27.50    5.36
  -3  -1 -15    1.79    1.95
  -2  -1 -15    6.37    2.12
  -1  -1 -15   57.79    4.82
   0  -1 -15    2.23    1.15
   1  -1 -15   17.77    2.88
   2  -1 -15   63.20    4.79
   3  -1 -15    0.41    1.35
   4  -1 -15    3.23    1.97
  -3   0 -15   34.79    4.17
  -2   0 -15    4.06    1.72
  -1   0 -15   15.71    2.85
   0   0 -15   78.03    4.32
   1   0 -15    3.06    1.57
   2   0 -15   13.13    2.83
   3   0 -15   35.29    6.89
  -4   1 -15   -0.39    2.34
  -3   1 -15    8.63    3.59
  -2   1 -15   56.90    4.87
  -1   1 -15    2.82    1.51
   0   1 -15   15.26    2.81
   1   1 -15   62.69    5.19
   2   1 -15    0.29    1.59
   3   1 -15    3.18    2.31
  -4   2 -15   19.51    5.66
  -3   2 -15    3.81    2.69
  -2   2 -15   12.60    4.00
  -1   2 -15   56.02    4.74
   0   2 -15    1.21    1.37
   1   2 -15    9.92    2.80
   2   2 -15   31.07    4.84
  -4   3 -15    2.73    2.18
  -3   3 -15   36.98    4.53
  -2   3 -15    2.36    1.67
  -1   3 -15    6.74    2.27
   0   3 -15   42.53    4.84
   1   3 -15    2.69    2.12
  -3   4 -15    4.20    2.38
  -2   4 -15   31.16    4.63
  -1   4 -15    1.90    2.13
   0  -4 -14   -0.77    1.58
   1  -4 -14    8.49    2.40
   2  -4 -14    5.78    1.92
   3  -4 -14    0.61    1.48
  -1  -3 -14   12.11    3.93
   0  -3 -14    8.19    2.23
   1  -3 -14    0.19    0.95
   2  -3 -14   17.90    2.29
   3  -3 -14    7.28    1.94
   4  -3 -14   -0.37    1.25
  -2  -2 -14    4.84    2.82
  -1  -2 -14    0.92    1.76
   0  -2 -14   25.70    3.44
   1  -2 -14   10.79    2.30
   2  -2 -14   -0.15    1.10
   3  -2 -14   17.50    2.92
   4  -2 -14    2.09    2.38
  -3  -1 -14    0.65    1.63
  -2  -1 -14   22.97    3.35
  -1  -1 -14   14.67    2.05
   0  -1 -14    0.54    0.88
   1  -1 -14   36.08    2.76
   2  -1 -14   14.76    2.63
   3  -1 -14    0.59    1.23
   4  -1 -14    7.69    2.34
  -3   0 -14    8.42    2.17
  -2   0 -14    0.99    1.13
  -1   0 -14   37.15    2.76
   0   0 -14   19.85    2.36
   1   0 -14   -0.62    0.95
   2   0 -14   25.14    3.82
   3   0 -14    7.18    2.46
   4   0 -14    1.17    2.79
  -4   1 -14    0.37    2.02
  -3   1 -14   19.68    4.85
  -2   1 -14   13.81    2.72
  -1   1 -14    0.03    0.78
   0   1 -14   33.86    3.54
   1   1 -14   14.14    2.81
   2   1 -14    0.86    1.49
   3   1 -14   10.07    2.89
  -4   2 -14    4.89    2.28
  -3   2 -14   -0.90    1.28
  -2   2 -14   31.39    2.87
  -1   2 -14   16.89    2.30
   0   2 -14   -0.28    1.07
   1   2 -14   17.22    3.37
   2   2 -14    4.69    2.35
  -4   3 -14   13.46    3.16
  -3   3 -14    8.82    2.65
  -2   3 -14   -0.03    1.23
  -1   3 -14   20.29    2.73
   0   3 -14    8.35    2.05
   1   3 -14    0.01    1.71
  -4   4 -14   -1.57    3.07
  -3   4 -14   10.77    3.03
  -2   4 -14    4.76    2.23
  -1   4 -14   -0.25    1.62
   0   4 -14    4.77    4.07
   0  -4 -13    1.74    1.79
   1  -4 -13    3.60    1.71
   2  -4 -13    1.49    1.44
   3  -4 -13    1.02    1.50
   4  -4 -13    3.30    1.83
  -1  -3 -13    4.05    2.69
   0  -3 -13    2.65    1.50
   1  -3 -13    2.94    1.13
   2  -3 -13    7.60    1.53
   3  -3 -13    2.14    1.34
   4  -3 -13    0.18    1.26
   5  -3 -13    7.10    3.54
  -2  -2 -13    1.91    1.58
  -1  -2 -13    4.05    1.54
   0  -2 -13    7.74    1.94
   1  -2 -13    3.17    1.48
   2  -2 -13    2.85    1.41
   3  -2 -13    8.80    2.11
   4  -2 -13    2.66    2.45
   5  -2 -13   -0.39    2.46
  -3  -1 -13    4.25    1.91
  -2  -1 -13    4.25    1.66
  -1  -1 -13    3.62    1.17
   0  -1 -13    6.97    1.43
   1  -1 -13    8.44    1.56
   2  -1 -13    4.54    1.62
   3  -1 -13    0.34    1.10
   4  -1 -13    6.20    2.09
  -4   0 -13    2.78    2.51
  -3   0 -13    3.40    1.51
  -2   0 -13    5.48    1.68
  -1   0 -13    7.38    1.45
   0   0 -13    5.86    1.33
   1   0 -13    2.93    1.42
   2   0 -13    8.23    2.22
   3   0 -13    2.27    1.60
   4   0 -13   -0.47    2.14
  -4   1 -13    3.54    1.85
  -3   1 -13    4.19    1.36
  -2   1 -13    3.40    1.23
  -1   1 -13    5.36    1.72
   0   1 -13    8.33    2.03
   1   1 -13    3.52    1.63
   2   1 -13    1.08    1.39
   3   1 -13    6.24    2.35
  -4   2 -13    0.59    1.65
  -3   2 -13    5.23    1.93
  -2   2 -13    5.59    1.47
  -1   2 -13    4.91    1.40
   0   2 -13    2.98    1.22
   1   2 -13    7.44    1.89
   2   2 -13    2.25    1.82
  -4   3 -13    3.39    2.05
  -3   3 -13    3.73    1.99
  -2   3 -13    4.18    1.86
  -1   3 -13    8.01    1.79
   0   3 -13    3.44    1.54
   1   3 -13    1.25    1.46
  -4   4 -13    1.71    2.21
  -3   4 -13    3.03    2.10
  -2   4 -13    1.25    1.81
  -1   4 -13    1.97    1.87
   0   4 -13    3.73    2.39
   3  -5 -12   13.93    3.69
   0  -4 -12    5.82    2.12
   1  -4 -12   30.48    3.39
   2  -4 -12    1.51    1.36
   3  -4 -12   11.35    2.32
   4  -4 -12   14.56    2.74
  -1  -3 -12   31.72    3.87
   0  -3 -12    4.80    1.69
   1  -3 -12   17.95    2.09
   2  -3 -12   40.60    2.82
   3  -3 -12    1.68    1.20
   4  -3 -12   14.87    2.62
  -3  -2 -12   27.93    4.07
  -2  -2 -12    6.16    1.97
  -1  -2 -12   15.25    2.00
   0  -2 -12   69.01    4.60
   1  -2 -12   12.30    2.21
   2  -2 -12   29.68    3.19
   3  -2 -12   37.49    3.60
   4  -2 -12    1.39    2.14
   5  -2 -12    7.70    3.00
  -3  -1 -12    7.40    2.13
  -2  -1 -12   58.97    5.99
  -1  -1 -12   10.97    1.62
   0  -1 -12   32.49    2.44
   1  -1 -12   83.80    4.31
   2  -1 -12    6.91    1.46
   3  -1 -12   21.98    3.10
   4  -1 -12   20.29    3.30
  -4   0 -12   35.58    6.26
  -3   0 -12    6.27    1.47
  -2   0 -12   19.87    2.95
  -1   0 -12   97.16    4.42
   0   0 -12   15.85    1.91
   1   0 -12   36.41    3.23
   2   0 -12   52.75    4.74
   3   0 -12    3.20    1.65
   4   0 -12    9.38    2.68
  -4   1 -12    7.17    2.28
  -3   1 -12   57.72    4.33
  -2   1 -12   12.03    1.86
  -1   1 -12   31.12    2.42
   0   1 -12   84.54    4.38
   1   1 -12    7.03    1.95
   2   1 -12   21.89    3.40
   3   1 -12   18.41    3.53
  -5   2 -12   23.72    4.16
  -4   2 -12    2.22    1.74
  -3   2 -12   14.15    2.82
  -2   2 -12   77.06    4.18
  -1   2 -12   10.00    1.74
   0   2 -12   24.05    2.76
   1   2 -12   38.46    3.32
   2   2 -12    1.87    1.93
  -5   3 -12    2.12    2.21
  -4   3 -12   39.86    4.88
  -3   3 -12    6.85    2.33
  -2   3 -12   15.54    3.02
  -1   3 -12   49.46    3.44
   0   3 -12    4.04    1.56
   1   3 -12    8.91    2.93
   2   3 -12   11.38    4.83
  -4   4 -12    5.19    2.62
  -3   4 -12   35.97    4.82
  -2   4 -12    3.01    1.87
  -1   4 -12    7.63    2.55
   0   4 -12   16.23    2.83
   2  -5 -11    1.20    2.42
   3  -5 -11   24.19    3.22
   4  -5 -11   -0.86    2.14
   0  -4 -11    0.55    1.32
   1  -4 -11   41.50    3.60
   2  -4 -11    0.37    1.08
   3  -4 -11    0.28    1.10
   4  -4 -11   33.66    3.58
  -2  -3 -11    0.46    2.18
  -1  -3 -11   31.59    3.60
   0  -3 -11    0.53    1.06
   1  -3 -11    2.25    0.95
   2  -3 -11   74.62    3.81
   3  -3 -11   -0.27    0.93
   4  -3 -11    1.34    1.25
   5  -3 -11   33.80    5.56
  -3  -2 -11   16.41    3.25
  -2  -2 -11    1.03    1.29
  -1  -2 -11    2.03    0.94
   0  -2 -11   95.32    4.58
   1  -2 -11    0.95    0.96
   2  -2 -11    4.61    1.47
   3  -2 -11   85.28    5.16
   4  -2 -11    0.88    2.01
   5  -2 -11   -0.79    1.59
  -4  -1 -11    0.75    2.37
  -3  -1 -11   -0.05    1.15
  -2  -1 -11   58.34    4.65
  -1  -1 -11    0.77    0.72
   0  -1 -11    6.88    1.29
   1  -1 -11  150.99    6.03
   2  -1 -11    1.60    0.91
   3  -1 -11    3.55    2.18
   4  -1 -11   42.02    5.71
  -4   0 -11   18.55    3.31
  -3   0 -11    0.24    0.80
  -2   0 -11    3.56    1.07
  -1   0 -11  132.73    4.93
   0   0 -11    2.16    0.86
   1   0 -11    8.05    1.84
   2   0 -11  114.68    6.52
   3   0 -11    3.34    1.63
   4   0 -11    0.00    1.47
  -5   1 -11    1.77    2.75
  -4   1 -11   -0.64    1.29
  -3   1 -11   58.39    3.81
  -2   1 -11    0.71    0.77
  -1   1 -11    9.09    1.47
   0   1 -11  145.52    6.16
   1   1 -11    2.20    1.03
   2   1 -11    1.39    1.07
   3   1 -11   53.66    6.85
   4   1 -11    0.68    2.93
  -5   2 -11   20.30    3.78
  -4   2 -11    0.31    1.04
  -3   2 -11    1.09    1.26
  -2   2 -11   93.79    4.97
  -1   2 -11    0.42    0.79
   0   2 -11    3.75    1.23
   1   2 -11   82.28    5.58
   2   2 -11    0.86    1.51
   3   2 -11   -0.26    1.85
  -5   3 -11    0.03    1.66
  -4   3 -11   33.66    4.54
  -3   3 -11   -0.98    1.18
  -2   3 -11    1.78    1.50
  -1   3 -11   73.26    4.27
   0   3 -11   -0.02    1.05
   1   3 -11    0.59    1.65
   2   3 -11   31.13    4.91
  -4   4 -11    1.10    1.90
  -3   4 -11   39.11    5.03
  -2   4 -11    0.37    1.51
  -1   4 -11   -0.26    1.49
   0   4 -11   34.73    5.19
  -3   5 -11   -0.96    2.43
  -2   5 -11   19.41    5.36
  -1   5 -11   -1.34    2.45
   1  -5 -10    4.76    2.69
   2  -5 -10   24.24    3.17
   3  -5 -10    3.63    1.63
   4  -5 -10    7.92    2.12
  -1  -4 -10    7.08    2.37
   0  -4 -10   32.50    3.58
   1  -4 -10    7.77    1.88
   2  -4 -10   16.53    2.43
   3  -4 -10   35.73    3.26
   4  -4 -10    4.34    1.59
   5  -4 -10   10.09    3.25
  -2  -3 -10   24.56    5.41
  -1  -3 -10    7.14    1.90
   0  -3 -10   20.91    2.70
   1  -3 -10   66.99    3.54
   2  -3 -10   17.15    1.96
   3  -3 -10   28.27    2.89
   4  -3 -10   30.74    3.35
   5  -3 -10    1.11    1.94
  -3  -2 -10    2.81    1.78
  -2  -2 -10   15.39    2.64
  -1  -2 -10   73.26    3.70
   0  -2 -10   27.08    1.67
   1  -2 -10   53.32    3.71
   2  -2 -10   90.75    5.44
   3  -2 -10   12.35    2.32
   4  -2 -10   22.68    4.52
   5  -2 -10   16.70    3.88
  -4  -1 -10    6.27    1.80
  -3  -1 -10   46.41    3.21
  -2  -1 -10   17.03    2.02
  -1  -1 -10   51.57    2.88
   0  -1 -10  132.39    5.42
   1  -1 -10   34.05    2.37
   2  -1 -10   55.90    3.13
   3  -1 -10   69.68    4.90
   4  -1 -10    3.91    2.45
  -4   0 -10    5.53    1.56
  -3   0 -10   22.09    2.45
  -2   0 -10  102.19    4.55
  -1   0 -10   41.72    2.06
   0   0 -10   80.02    3.66
   1   0 -10  124.57    7.10
   2   0 -10   20.48    2.90
   3   0 -10   29.99    3.40
   4   0 -10   21.09    5.02
  -5   1 -10    4.65    2.09
  -4   1 -10   39.55    3.90
  -3   1 -10   19.94    2.22
  -2   1 -10   48.95    2.59
  -1   1 -10  130.71    5.58
   0   1 -10   35.91    2.55
   1   1 -10   55.19    3.29
   2   1 -10   71.89    5.06
   3   1 -10    4.26    1.80
   4   1 -10    6.04    3.49
  -5   2 -10    2.47    1.58
  -4   2 -10   17.34    2.51
  -3   2 -10   78.76    4.22
  -2   2 -10   27.61    2.54
  -1   2 -10   54.44    3.31
   0   2 -10   86.69    4.77
   1   2 -10   12.82    2.56
   2   2 -10   20.94    3.41
   3   2 -10   18.30    3.54
  -5   3 -10   28.42    3.47
  -4   3 -10    8.22    1.94
  -3   3 -10   24.86    3.78
  -2   3 -10   77.02    5.52
  -1   3 -10   16.77    2.24
   0   3 -10   24.45    3.75
   1   3 -10   29.78    4.34
   2   3 -10    2.61    2.14
  -5   4 -10    9.39    4.44
  -4   4 -10   35.92    4.81
  -3   4 -10    6.33    2.41
  -2   4 -10   17.87    3.43
  -1   4 -10   31.01    4.32
   0   4 -10    2.59    2.06
   1   4 -10    7.17    2.88
  -4   5 -10    7.34    4.10
  -3   5 -10   23.96    6.04
  -2   5 -10    3.91    3.21
  -1   5 -10    5.65    2.58
   0  -5  -9    0.13    2.19
   1  -5  -9    0.73    2.06
   2  -5  -9   20.10    2.96
   3  -5  -9    0.77    1.28
   4  -5  -9    1.26    1.40
  -1  -4  -9    2.19    1.70
   0  -4  -9   18.17    2.83
   1  -4  -9    0.77    1.18
   2  -4  -9    4.36    1.40
   3  -4  -9   30.00    2.85
   4  -4  -9    0.80    1.20
   5  -4  -9    1.07    1.99
  -2  -3  -9   16.16    4.28
  -1  -3  -9    1.04    1.10
   0  -3  -9    3.84    1.32
   1  -3  -9   46.33    2.74
   2  -3  -9    4.14    1.03
   3  -3  -9    4.36    1.35
   4  -3  -9   34.46    3.07
   5  -3  -9    1.93    1.93
  -3  -2  -9    0.44    1.30
  -2  -2  -9    3.56    1.43
  -1  -2  -9   42.29    2.73
   0  -2  -9    4.73    0.77
   1  -2  -9    6.97    1.52
   2  -2  -9   64.87    4.16
   3  -2  -9    5.59    1.56
   4  -2  -9    4.57    2.34
   5  -2  -9   22.03    4.15
  -4  -1  -9    2.38    1.40
  -3  -1  -9   21.55    2.57
  -2  -1  -9    1.76    0.86
  -1  -1  -9    6.67    0.92
   0  -1  -9   80.64    3.71
   1  -1  -9    9.37    1.35
   2  -1  -9    7.49    1.33
   3  -1  -9   60.28    4.01
   4  -1  -9    2.59    2.04
  -4   0  -9    0.63    1.03
  -3   0  -9    4.80    1.22
  -2   0  -9   55.47    3.22
  -1   0  -9    6.40    0.90
   0   0  -9   10.01    1.22
   1   0  -9   89.73    3.91
   2   0  -9    9.50    1.44
   3   0  -9    3.69    1.40
   5   0  -9    2.03    3.14
  -5   1  -9    2.98    1.85
  -4   1  -9   19.83    3.26
  -3   1  -9    1.97    0.74
  -2   1  -9    7.25    1.09
  -1   1  -9   77.04    3.21
   0   1  -9    8.51    1.38
   1   1  -9    7.86    1.71
   2   1  -9   54.83    4.04
   3   1  -9    3.10    1.61
   4   1  -9    0.48    1.70
  -5   2  -9   -0.41    1.11
  -4   2  -9    3.04    1.27
  -3   2  -9   42.11    3.04
  -2   2  -9    3.12    0.84
  -1   2  -9    6.56    1.37
   0   2  -9   64.54    3.70
   1   2  -9    7.97    1.98
   2   2  -9    4.66    1.84
   3   2  -9   20.18    3.41
  -5   3  -9   16.71    2.81
  -4   3  -9    0.00    0.93
  -3   3  -9    4.78    1.42
  -2   3  -9   46.12    4.23
  -1   3  -9    3.19    1.15
   0   3  -9    5.45    1.97
   1   3  -9   31.52    3.81
   2   3  -9    2.84    2.09
  -5   4  -9    2.22    1.96
  -4   4  -9   19.32    3.55
  -3   4  -9    1.60    1.62
  -2   4  -9    5.23    2.18
  -1   4  -9   25.73    3.85
   0   4  -9    1.06    1.83
   1   4  -9    2.86    2.32
  -4   5  -9    3.72    3.47
  -3   5  -9   14.08    5.00
  -2   5  -9   -0.56    2.61
  -1   5  -9    0.57    3.02
   0   5  -9    6.26    4.02
   0  -5  -8   -0.13    2.22
   1  -5  -8   14.36    3.76
   2  -5  -8    3.38    1.61
   3  -5  -8    0.40    1.20
   4  -5  -8   13.34    2.46
  -1  -4  -8   18.44    3.04
   0  -4  -8    4.10    1.59
   1  -4  -8    0.29    0.78
   2  -4  -8   32.84    2.88
   3  -4  -8    4.28    1.41
   4  -4  -8    0.44    1.03
   5  -4  -8   14.39    2.64
  -2  -3  -8    3.73    1.66
  -1  -3  -8   -0.28    0.84
   0  -3  -8   47.38    3.45
   1  -3  -8    8.64    1.30
   2  -3  -8    1.00    0.69
   3  -3  -8   42.21    3.23
   4  -3  -8    3.15    1.36
   5  -3  -8    1.28    1.79
  -3  -2  -8    0.03    1.27
  -2  -2  -8   36.30    3.24
  -1  -2  -8    9.97    1.37
   0  -2  -8    0.66    0.46
   1  -2  -8   78.23    3.52
   2  -2  -8   13.41    2.01
   3  -2  -8    0.93    0.94
   4  -2  -8   30.15    2.91
   5  -2  -8    1.98    1.31
  -4  -1  -8   17.61    2.51
  -3  -1  -8    6.05    1.46
  -2  -1  -8    1.27    0.76
  -1  -1  -8   85.60    3.14
   0  -1  -8   23.12    1.26
   1  -1  -8    1.57    0.66
   2  -1  -8   79.38    4.77
   3  -1  -8    9.22    1.85
   4  -1  -8    1.76    1.25
  -5   0  -8    3.41    3.49
  -4   0  -8    1.71    1.05
  -3   0  -8   50.63    3.02
  -2   0  -8   16.62    1.77
  -1   0  -8    0.45    0.42
   0   0  -8  123.71    4.87
   1   0  -8   20.78    1.65
   2   0  -8    3.42    1.07
   3   0  -8   44.09    3.51
   4   0  -8    2.60    1.47
   5   0  -8    1.28    2.60
  -5   1  -8   14.59    2.86
  -4   1  -8    6.89    1.97
  -3   1  -8    0.56    0.56
  -2   1  -8   90.56    3.42
  -1   1  -8   22.81    1.45
   0   1  -8    1.51    0.77
   1   1  -8   79.69    4.89
   2   1  -8    7.56    1.76
   3   1  -8    1.65    1.28
   4   1  -8   11.11    2.71
  -5   2  -8    0.37    1.11
  -4   2  -8   38.74    2.92
  -3   2  -8   12.94    1.90
  -2   2  -8    0.39    0.52
  -1   2  -8   85.21    3.46
   0   2  -8   14.64    2.42
   1   2  -8    2.17    1.21
   2   2  -8   34.50    3.78
   3   2  -8    2.57    1.84
  -5   3  -8    4.95    1.68
  -4   3  -8    0.84    0.95
  -3   3  -8   45.35    3.19
  -2   3  -8   12.73    1.94
  -1   3  -8    0.90    0.90
   0   3  -8   43.03    4.02
   1   3  -8    2.43    1.58
   2   3  -8    1.07    1.78
  -5   4  -8   18.57    3.67
  -4   4  -8    5.27    2.17
  -3   4  -8   -0.12    0.93
  -2   4  -8   37.55    4.34
  -1   4  -8    3.18    1.87
   0   4  -8    0.33    1.55
   1   4  -8   11.56    3.08
  -5   5  -8   -0.29    2.07
  -4   5  -8   21.07    3.80
  -3   5  -8    3.87    3.32
  -2   5  -8    1.21    2.69
  -1   5  -8   12.21    4.75
   0   5  -8   -0.19    3.00
   0  -5  -7    3.19    1.97
   1  -5  -7    0.94    1.97
   2  -5  -7    3.66    1.52
   3  -5  -7    2.15    1.40
   4  -5  -7    3.64    1.26
   5  -5  -7    3.04    1.60
  -1  -4  -7    1.61    1.39
   0  -4  -7    3.09    1.43
   1  -4  -7    6.45    1.30
   2  -4  -7    3.79    1.25
   3  -4  -7    9.05    1.82
   4  -4  -7    1.02    1.04
   5  -4  -7    6.52    1.92
  -3  -3  -7    1.50    2.67
  -2  -3  -7    3.37    1.60
  -1  -3  -7    9.19    1.54
   0  -3  -7    2.72    1.18
   1  -3  -7   11.38    1.39
   2  -3  -7    5.56    1.03
   3  -3  -7    6.81    1.47
   4  -3  -7   10.49    1.84
   5  -3  -7    0.96    1.15
   6  -3  -7    3.21    2.60
  -3  -2  -7    6.39    2.01
  -2  -2  -7    2.08    0.97
  -1  -2  -7   10.97    1.43
   0  -2  -7   14.31    1.13
   1  -2  -7    3.94    0.60
   2  -2  -7   19.30    2.24
   3  -2  -7    4.02    1.24
   4  -2  -7    7.26    1.61
   5  -2  -7    4.63    2.20
  -4  -1  -7    0.95    1.19
  -3  -1  -7    3.90    1.21
  -1  -1  -7    1.50    0.49
   0  -1  -7   22.42    1.21
   1  -1  -7   11.56    1.30
   2  -1  -7    7.81    1.44
   3  -1  -7   14.55    2.11
  -5   0  -7    1.43    1.89
  -4   0  -7   13.17    2.39
  -3   0  -7    1.74    1.06
  -2   0  -7   15.18    1.17
  -1   0  -7   19.03    2.45
   0   0  -7    3.24    0.71
   1   0  -7   24.29    1.22
   3   0  -7    7.88    1.34
   4   0  -7    3.44    2.20
   5   0  -7    0.62    1.67
  -5   1  -7    0.70    1.37
  -4   1  -7    5.35    1.47
  -2   1  -7    1.84    0.57
  -1   1  -7   21.70    1.38
   0   1  -7   12.96    1.51
   1   1  -7    7.32    1.45
   2   1  -7   14.12    1.75
   3   1  -7    2.83    1.39
   4   1  -7    3.16    1.79
  -5   2  -7    8.84    2.01
  -4   2  -7    0.73    0.87
  -3   2  -7   10.57    1.68
  -2   2  -7   17.22    1.52
  -1   2  -7    3.59    0.77
   0   2  -7   17.87    1.69
   1   2  -7    4.69    1.12
   2   2  -7    7.62    2.05
   3   2  -7    2.16    1.68
  -5   3  -7    2.26    1.29
  -4   3  -7   11.28    1.89
  -3   3  -7    1.67    0.90
  -2   3  -7   13.17    1.96
  -1   3  -7   10.27    1.71
   0   3  -7    5.57    1.38
   1   3  -7    5.61    1.84
   2   3  -7    2.49    1.85
  -5   4  -7    1.48    1.45
  -4   4  -7    5.90    2.10
  -3   4  -7    7.75    1.77
  -2   4  -7    1.43    1.13
  -1   4  -7    9.42    1.93
   0   4  -7    3.45    1.85
   1   4  -7    3.53    2.27
  -5   5  -7    5.12    2.61
  -4   5  -7    1.00    1.62
  -3   5  -7    4.18    2.02
  -2   5  -7    3.50    3.25
  -1   5  -7    2.14    3.00
   0   5  -7   -1.81    2.95
   3  -6  -6    5.09    2.78
   4  -6  -6    4.14    2.92
   0  -5  -6   25.88    3.70
   1  -5  -6   12.05    3.42
   2  -5  -6   11.14    2.18
   3  -5  -6   51.48    3.19
   4  -5  -6    6.65    1.52
   5  -5  -6    3.52    1.66
  -1  -4  -6   13.93    2.60
   0  -4  -6   18.52    2.69
   1  -4  -6   83.27    3.95
   2  -4  -6   18.79    2.35
   3  -4  -6   21.13    2.60
   4  -4  -6   61.57    4.01
   5  -4  -6    5.48    1.77
   6  -4  -6    1.89    2.09
  -3  -3  -6   10.69    3.82
  -2  -3  -6   11.49    1.88
  -1  -3  -6   77.22    4.07
   0  -3  -6   34.54    2.74
   1  -3  -6   42.76    2.33
   2  -3  -6  162.65    5.96
   3  -3  -6   21.75    2.30
   4  -3  -6   17.76    2.37
   5  -3  -6   50.33    3.77
   6  -3  -6    5.54    3.10
  -3  -2  -6   40.96    3.95
  -1  -2  -6   43.64    2.43
   0  -2  -6  232.28    6.91
   1  -2  -6   53.67    2.09
   2  -2  -6   60.26    3.53
   3  -2  -6  168.56    6.04
   4  -2  -6   13.20    2.05
   5  -2  -6    5.14    2.17
  -4  -1  -6   21.49    4.69
  -3  -1  -6   25.51    2.28
  -2  -1  -6  150.82    5.33
  -1  -1  -6   66.49    2.63
   0  -1  -6   90.44    2.97
   1  -1  -6  351.53   11.65
   2  -1  -6   48.97    3.25
   5  -1  -6    6.39    2.80
  -5   0  -6    9.44    2.75
  -4   0  -6   51.76    3.43
  -2   0  -6   65.40    2.34
  -1   0  -6  343.94    9.94
   0   0  -6   89.91    3.60
   1   0  -6   84.64    3.64
   2   0  -6  247.36    8.57
   3   0  -6   22.86    2.54
   4   0  -6    9.11    2.22
   5   0  -6   24.95    5.40
  -5   1  -6   20.73    3.18
  -4   1  -6   24.94    2.72
  -3   1  -6  149.90    5.56
  -2   1  -6   72.11    3.79
  -1   1  -6   93.59    3.29
   0   1  -6  363.66   10.41
   1   1  -6   50.61    2.74
   2   1  -6   34.46    2.47
   3   1  -6   87.65    5.62
   4   1  -6    8.06    3.45
  -6   2  -6    5.76    3.15
  -5   2  -6   39.10    3.54
  -3   2  -6   47.01    2.79
  -2   2  -6  230.24    7.52
  -1   2  -6   60.23    2.60
   0   2  -6   57.47    3.16
   1   2  -6  166.11    6.74
   2   2  -6   15.27    2.16
   3   2  -6    4.82    1.89
  -5   3  -6   15.62    2.45
  -4   3  -6   72.72    4.38
  -3   3  -6   37.30    5.02
  -2   3  -6   44.50    2.95
  -1   3  -6  159.19    7.06
   0   3  -6   26.46    2.41
   1   3  -6   16.94    2.38
   2   3  -6   52.62    6.55
  -5   4  -6   18.73    3.58
  -4   4  -6   17.70    3.33
  -3   4  -6   75.21    5.76
  -2   4  -6   23.92    2.60
  -1   4  -6   23.09    2.92
   0   4  -6   57.70    4.01
   1   4  -6    8.47    2.67
  -5   5  -6   27.89    4.82
  -4   5  -6   15.77    3.50
  -3   5  -6    8.67    2.58
  -2   5  -6   42.00    4.62
  -1   5  -6   10.77    4.63
   0   5  -6    3.88    3.95
  -4   6  -6   14.26    4.76
   3  -6  -5    9.29    2.30
   4  -6  -5    0.84    2.23
   0  -5  -5    4.56    2.01
   1  -5  -5   18.64    4.05
   2  -5  -5    1.37    1.13
   3  -5  -5    7.14    1.44
   4  -5  -5   19.75    2.29
   5  -5  -5    2.46    1.56
  -1  -4  -5    9.30    3.33
   0  -4  -5    0.68    1.01
   1  -4  -5    8.04    1.33
   2  -4  -5   43.16    3.07
   3  -4  -5    4.75    1.34
   4  -4  -5    9.82    1.57
   5  -4  -5   18.58    2.74
  -3  -3  -5    4.63    2.15
  -2  -3  -5    0.57    0.94
  -1  -3  -5    6.00    1.28
   0  -3  -5   50.65    2.31
   1  -3  -5    7.90    1.07
   2  -3  -5   11.16    1.28
   3  -3  -5   65.49    3.62
   4  -3  -5    7.99    1.61
   5  -3  -5    7.58    1.75
   6  -3  -5   10.97    2.78
  -3  -2  -5    3.99    1.69
  -2  -2  -5   32.83    2.44
  -1  -2  -5    3.86    0.86
   0  -2  -5    9.59    0.86
   1  -2  -5  123.01    3.78
   2  -2  -5   18.31    1.36
   3  -2  -5   12.63    1.39
   4  -2  -5   46.82    3.08
   5  -2  -5    4.92    2.25
   6  -2  -5    7.51    3.90
  -4  -1  -5    8.43    1.85
  -3  -1  -5    0.97    0.84
  -2  -1  -5    8.45    1.04
  -1  -1  -5  115.71    3.36
   0  -1  -5   22.24    1.08
   1  -1  -5   13.29    1.14
   2  -1  -5  132.01    5.82
   4  -1  -5   12.00    2.67
   5  -1  -5   18.87    5.03
  -5   0  -5    1.53    1.82
  -4   0  -5    6.33    1.47
  -3   0  -5   47.25    3.00
  -2   0  -5   10.67    2.30
  -1   0  -5    9.72    0.78
   0   0  -5  202.31    7.02
   2   0  -5   12.61    1.60
   3   0  -5   63.39    3.19
   4   0  -5    6.78    1.97
   5   0  -5    6.61    3.17
  -5   1  -5    9.72    2.31
  -4   1  -5    1.11    0.92
  -3   1  -5    8.03    1.09
  -2   1  -5  113.79    4.14
  -1   1  -5   22.09    1.29
   0   1  -5   11.36    1.05
   1   1  -5  126.98    4.91
   2   1  -5   14.78    2.83
   3   1  -5   10.96    2.27
   4   1  -5   14.23    3.83
  -6   2  -5    1.07    2.54
  -5   2  -5    4.60    1.56
  -4   2  -5   30.05    2.71
  -3   2  -5    3.04    0.96
  -2   2  -5   10.23    1.03
  -1   2  -5  122.80    5.23
   0   2  -5   18.21    1.66
   1   2  -5   12.85    1.68
   2   2  -5   43.64    3.00
   3   2  -5    3.49    1.91
  -6   3  -5    3.91    2.27
  -5   3  -5    0.82    1.35
  -4   3  -5    7.19    1.52
  -3   3  -5   49.17    2.75
  -2   3  -5    6.68    1.11
  -1   3  -5   10.12    1.73
   0   3  -5   58.99    3.49
   1   3  -5    7.07    1.60
   2   3  -5    5.62    2.05
   3   3  -5    6.63    2.51
  -5   4  -5   13.89    3.23
  -4   4  -5   -0.44    0.88
  -3   4  -5    7.29    1.58
  -2   4  -5   36.28    3.14
  -1   4  -5    4.43    2.01
   0   4  -5    6.59    1.76
   1   4  -5   21.38    4.99
   2   4  -5   -0.78    2.48
  -5   5  -5    5.03    2.36
  -4   5  -5   14.77    3.39
  -3   5  -5    0.70    1.38
  -2   5  -5    4.85    2.16
  -1   5  -5    8.07    2.57
   0   5  -5   -0.57    3.29
  -4   6  -5    2.99    2.79
  -3   6  -5    7.18    2.73
  -2   6  -5    0.11    2.01
   3  -6  -4    1.66    1.56
   0  -5  -4    7.02    2.17
   1  -5  -4    6.00    2.59
   2  -5  -4   47.00    3.57
   3  -5  -4    9.43    1.56
   4  -5  -4    3.43    1.21
   5  -5  -4   30.25    3.79
  -2  -4  -4    4.48    2.11
  -1  -4  -4    5.48    1.83
   0  -4  -4   66.14    4.53
   1  -4  -4   16.98    1.82
   2  -4  -4   15.85    2.22
   3  -4  -4   81.17    4.68
   4  -4  -4    8.99    1.50
   5  -4  -4    4.30    1.52
   6  -4  -4   20.50    4.82
  -3  -3  -4    3.17    1.84
  -2  -3  -4   42.99    3.07
  -1  -3  -4   21.03    2.12
   0  -3  -4   26.52    1.51
   1  -3  -4  168.21    6.18
   2  -3  -4   26.60    1.72
   3  -3  -4   20.98    2.08
   4  -3  -4   87.53    3.94
   5  -3  -4    7.91    1.83
   6  -3  -4    0.92    1.53
  -4  -2  -4   19.75    5.00
  -3  -2  -4   13.84    2.61
  -2  -2  -4   17.72    1.92
  -1  -2  -4  177.67    6.55
   0  -2  -4   44.87    1.77
   1  -2  -4   49.02    2.21
   2  -2  -4  262.04    8.55
   3  -2  -4   25.52    1.75
   4  -2  -4   12.31    1.89
   5  -2  -4   49.57    4.03
   6  -2  -4    2.99    2.10
  -4  -1  -4    5.80    1.58
  -3  -1  -4   85.37    4.45
  -2  -1  -4   35.15    1.76
  -1  -1  -4   56.01    2.04
   0  -1  -4  414.53   13.36
   1  -1  -4   66.43    2.79
   2  -1  -4   43.44    4.04
   4  -1  -4   11.86    1.94
   5  -1  -4    1.13    2.23
  -5   0  -4   30.36    4.25
  -4   0  -4   16.24    2.10
  -3   0  -4   25.59    2.42
  -2   0  -4  281.14    7.73
  -1   0  -4   74.33    2.14
   0   0  -4   87.11    3.30
   1   0  -4  423.16   16.78
   3   0  -4   16.36    2.39
   4   0  -4   66.82    4.97
   5   0  -4    6.98    2.63
  -5   1  -4    6.40    2.06
  -4   1  -4   87.90    4.68
  -3   1  -4   36.31    2.94
  -2   1  -4   57.09    2.12
  -1   1  -4  424.92   12.10
   0   1  -4   72.28    3.02
   1   1  -4   45.69    3.01
   2   1  -4  175.95    8.61
   3   1  -4   12.02    2.42
   4   1  -4    2.17    1.81
  -6   2  -4   23.07    5.31
  -5   2  -4   13.22    2.22
  -4   2  -4   23.31    2.34
  -3   2  -4  174.05    6.97
  -2   2  -4   46.97    1.73
  -1   2  -4   51.64    2.24
   0   2  -4  254.27    9.56
   1   2  -4   26.06    2.11
   2   2  -4   10.71    2.30
   3   2  -4   47.79    6.83
  -6   3  -4    1.88    1.93
  -5   3  -4   46.45    4.55
  -4   3  -4   18.22    2.03
  -3   3  -4   28.26    1.86
  -2   3  -4  170.46    6.09
  -1   3  -4   29.57    2.47
   0   3  -4   21.27    2.22
   1   3  -4   81.97    4.64
   2   3  -4    6.18    1.67
   3   3  -4    0.92    1.72
  -6   4  -4    4.94    2.33
  -5   4  -4    7.97    2.48
  -4   4  -4   63.76    4.11
  -3   4  -4   20.21    2.48
  -2   4  -4   19.02    2.53
  -1   4  -4   88.42    4.98
   0   4  -4   10.01    1.99
   1   4  -4    3.63    1.67
   2   4  -4   22.69    5.64
  -5   5  -4    9.81    2.36
  -4   5  -4    8.51    2.71
  -3   5  -4   44.36    4.93
  -2   5  -4    8.61    2.57
  -1   5  -4    3.02    1.86
   0   5  -4   19.83    4.07
  -4   6  -4    3.88    2.42
  -3   6  -4    3.12    2.12
  -2   6  -4   16.99    3.60
   2  -6  -3    1.52    1.62
   3  -6  -3    1.91    1.52
   4  -6  -3    7.94    2.94
   0  -5  -3    1.21    1.51
   1  -5  -3    1.64    2.09
   2  -5  -3   14.65    2.34
   3  -5  -3    3.02    1.09
   4  -5  -3    0.04    1.00
   5  -5  -3   12.55    2.46
  -2  -4  -3   -0.02    1.58
  -1  -4  -3    1.98    1.43
   0  -4  -3   17.52    2.60
   1  -4  -3    1.96    0.78
   2  -4  -3    0.76    0.70
   3  -4  -3   27.93    2.12
   4  -4  -3    4.48    1.36
   5  -4  -3   -0.11    0.93
   6  -4  -3   12.86    3.90
  -3  -3  -3    1.90    1.68
  -2  -3  -3   13.39    2.00
  -1  -3  -3    1.37    0.78
   0  -3  -3    3.94    0.74
   1  -3  -3   45.77    2.37
   2  -3  -3    3.55    0.70
   4  -3  -3   28.17    2.50
   5  -3  -3    5.53    1.57
   6  -3  -3    0.03    1.39
  -4  -2  -3    3.91    2.09
  -3  -2  -3   -0.34    1.05
  -2  -2  -3    4.80    1.13
  -1  -2  -3   40.35    2.44
   0  -2  -3    1.18    0.39
   1  -2  -3    1.53    0.47
   2  -2  -3   71.70    2.77
   3  -2  -3    6.04    0.89
   4  -2  -3    1.37    0.84
   5  -2  -3   21.23    3.01
   6  -2  -3    2.16    2.00
  -4  -1  -3    3.05    1.35
  -3  -1  -3   23.73    2.48
  -2  -1  -3    0.85    0.52
  -1  -1  -3    4.38    0.75
   0  -1  -3  105.45    3.15
   1  -1  -3    3.09    0.47
   4  -1  -3    7.07    1.59
   5  -1  -3    0.77    1.41
  -5   0  -3    5.55    2.19
  -4   0  -3    1.04    0.95
  -3   0  -3    6.82    1.19
  -2   0  -3   65.53    2.29
  -1   0  -3    0.63    0.39
   0   0  -3    1.76    0.41
   3   0  -3    3.47    0.88
   4   0  -3   26.94    5.65
   5   0  -3    4.06    2.15
  -5   1  -3    2.58    1.58
  -4   1  -3   22.03    2.40
  -3   1  -3    0.61    0.49
  -2   1  -3    6.01    1.18
  -1   1  -3  104.62    3.47
   0   1  -3    2.26    0.57
   1   1  -3    1.85    0.50
   2   1  -3   49.39    2.67
   3   1  -3    8.81    2.04
   4   1  -3    0.53    1.54
  -6   2  -3    5.48    2.37
  -5   2  -3    0.31    0.94
  -4   2  -3    5.89    1.35
  -3   2  -3   43.99    2.31
  -2   2  -3    0.88    0.46
  -1   2  -3    2.55    0.59
   0   2  -3   72.09    2.65
   1   2  -3    5.28    1.47
   2   2  -3    1.80    1.27
   3   2  -3   14.95    3.13
   4   2  -3    0.81    2.11
  -6   3  -3    0.88    1.91
  -5   3  -3   15.25    3.06
  -4   3  -3    0.99    0.73
  -3   3  -3    3.64    0.87
  -2   3  -3   44.34    2.40
  -1   3  -3    2.53    0.72
   0   3  -3    1.07    1.15
   1   3  -3   27.38    2.66
   2   3  -3    2.97    1.81
   3   3  -3    0.90    1.86
  -6   4  -3   -0.49    1.53
  -5   4  -3    3.24    1.39
  -4   4  -3   18.90    2.56
  -3   4  -3    2.69    1.12
  -2   4  -3    1.37    1.26
  -1   4  -3   25.20    2.68
   0   4  -3    4.08    1.46
   1   4  -3    0.52    1.23
   2   4  -3    4.23    1.93
  -5   5  -3    0.44    1.33
  -4   5  -3    1.08    1.22
  -3   5  -3   11.67    3.00
  -2   5  -3    1.40    1.49
  -1   5  -3    0.58    1.55
   0   5  -3    5.53    2.65
  -4   6  -3    0.44    1.80
  -3   6  -3    0.02    1.66
  -2   6  -3    7.17    2.69
   2  -6  -2    1.58    1.54
   3  -6  -2    0.82    1.45
   4  -6  -2   13.05    3.57
   0  -5  -2    0.73    1.45
   1  -5  -2    1.31    1.12
   2  -5  -2   30.98    2.93
   3  -5  -2    1.67    0.93
   4  -5  -2    0.99    1.09
   5  -5  -2   17.67    2.84
  -2  -4  -2    1.12    1.74
  -1  -4  -2    1.67    1.38
   0  -4  -2   43.67    3.49
   1  -4  -2    6.45    1.18
   2  -4  -2    1.75    0.70
   3  -4  -2   49.71    2.86
   4  -4  -2    0.75    0.92
   5  -4  -2    1.90    1.23
   6  -4  -2   14.99    4.08
  -3  -3  -2    0.61    1.57
  -2  -3  -2   30.55    2.67
  -1  -3  -2    9.15    1.44
   0  -3  -2    1.76    0.58
   1  -3  -2   96.80    3.87
   2  -3  -2    9.66    1.04
   3  -3  -2    3.84    0.86
   4  -3  -2   49.78    3.46
   5  -3  -2    1.13    1.03
   6  -3  -2    2.55    1.69
  -4  -2  -2   17.74    3.33
  -3  -2  -2    4.55    1.74
  -2  -2  -2    1.60    0.86
  -1  -2  -2   99.14    3.30
   0  -2  -2   23.09    1.15
   1  -2  -2    2.03    0.48
   2  -2  -2  131.58    4.62
   3  -2  -2    6.64    0.97
   4  -2  -2    8.13    1.45
   5  -2  -2   26.71    3.11
   6  -2  -2    0.74    1.65
  -4  -1  -2    1.13    1.13
  -3  -1  -2   63.88    3.49
  -2  -1  -2   17.58    2.93
  -1  -1  -2    1.86    0.45
   0  -1  -2  235.27    6.37
   1  -1  -2   35.57    1.57
   3  -1  -2   91.42    4.45
   4  -1  -2    1.43    1.49
   5  -1  -2    5.49    2.06
  -5   0  -2   26.12    3.85
  -4   0  -2    8.88    1.72
  -3   0  -2    1.74    0.78
  -2   0  -2  149.84    3.98
  -1   0  -2   44.82    1.55
   0   0  -2    1.92    0.47
   2   0  -2   15.39    2.27
   3   0  -2    8.85    1.81
   4   0  -2   38.61    3.73
   5   0  -2    1.71    1.92
  -5   1  -2    2.51    1.57
  -4   1  -2   61.60    3.54
  -2   1  -2    1.45    0.37
  -1   1  -2  238.78    6.11
   0   1  -2   38.12    1.88
   1   1  -2    7.78    1.28
   2   1  -2   89.75    4.26
   3   1  -2    2.61    1.42
   4   1  -2    2.84    1.80
  -6   2  -2   16.74    3.46
  -5   2  -2    5.64    1.59
  -4   2  -2    1.58    0.85
  -3   2  -2  101.26    3.74
  -2   2  -2   25.29    1.40
  -1   2  -2    1.41    0.50
   0   2  -2  132.17    4.53
   1   2  -2    8.94    1.27
   2   2  -2    6.45    1.88
   3   2  -2   23.30    3.77
   4   2  -2   -0.18    1.88
  -6   3  -2    1.58    1.74
  -5   3  -2   35.71    4.01
  -4   3  -2    9.38    1.70
  -3   3  -2    0.70    0.53
  -2   3  -2   97.43    3.83
  -1   3  -2   10.98    1.28
   0   3  -2    3.26    1.07
   1   3  -2   47.96    4.33
   2   3  -2    1.21    1.61
   3   3  -2    1.22    2.00
  -6   4  -2    2.39    1.97
  -5   4  -2    0.65    1.11
  -4   4  -2   44.21    3.25
  -3   4  -2    5.65    1.43
  -2   4  -2    0.78    0.81
  -1   4  -2   52.74    3.65
   0   4  -2    0.71    1.12
   1   4  -2    2.63    1.39
   2   4  -2    8.78    2.34
  -5   5  -2    3.08    1.59
  -4   5  -2    0.13    1.06
  -3   5  -2   32.15    4.74
  -2   5  -2    3.03    1.77
  -1   5  -2    0.22    1.57
   0   5  -2   14.23    3.74
  -4   6  -2    1.81    2.12
  -3   6  -2    0.11    1.75
  -2   6  -2   12.18    3.24
   2  -6  -1    1.97    1.64
   3  -6  -1    2.08    1.50
   4  -6  -1    3.27    2.29
   0  -5  -1    1.52    2.09
   1  -5  -1    4.44    1.61
   2  -5  -1    5.76    1.65
   3  -5  -1    5.66    1.29
   4  -5  -1    0.14    1.03
   5  -5  -1    4.83    1.68
  -2  -4  -1    0.72    1.36
  -1  -4  -1    5.95    1.89
   0  -4  -1    4.56    1.44
   1  -4  -1    9.12    1.35
   2  -4  -1    2.68    0.85
   3  -4  -1   10.68    1.43
   4  -4  -1    8.06    1.76
   5  -4  -1    0.52    1.04
   6  -4  -1    4.50    1.97
  -3  -3  -1    7.65    2.40
  -2  -3  -1    1.84    1.02
  -1  -3  -1    8.10    1.42
   0  -3  -1    8.70    1.02
   1  -3  -1   10.98    0.92
   2  -3  -1   22.13    1.51
   3  -3  -1    1.18    0.72
   4  -3  -1   15.00    2.04
   5  -3  -1    6.35    1.61
   6  -3  -1    0.93    1.40
  -4  -2  -1    1.39    1.65
  -3  -2  -1    1.74    1.42
  -2  -2  -1   13.42    3.20
  -1  -2  -1    6.68    0.79
   0  -2  -1   24.99    1.26
   1  -2  -1    2.70    0.51
   2  -2  -1   20.57    1.52
   3  -2  -1   22.39    1.40
   4  -2  -1    1.25    0.85
   5  -2  -1   11.05    2.19
   6  -2  -1    2.33    1.88
  -4  -1  -1   14.05    2.17
  -3  -1  -1    3.22    1.04
  -2  -1  -1   15.32    1.82
  -1  -1  -1    8.46    1.65
   0  -1  -1   21.08    0.93
   1  -1  -1   51.20    1.77
   2  -1  -1    1.00    0.65
   4  -1  -1   14.28    2.08
   5  -1  -1    1.20    1.46
  -5   0  -1    1.72    1.66
  -4   0  -1    3.67    1.24
  -1   0  -1   44.07    1.48
   2   0  -1   32.73    1.85
   4   0  -1   10.75    2.41
   5   0  -1    2.69    2.94
  -5   1  -1   13.60    2.26
  -4   1  -1    3.30    1.07
  -3   1  -1   14.81    1.17
  -1   1  -1   20.85    1.07
   0   1  -1   49.26    2.06
   1   1  -1    2.89    0.66
   3   1  -1   11.00    1.80
   4   1  -1    0.72    1.54
  -6   2  -1    0.98    1.76
  -5   2  -1    2.92    1.34
  -3   2  -1    6.40    0.97
  -2   2  -1   23.03    1.37
  -1   2  -1    5.06    0.76
   0   2  -1   20.27    1.62
   1   2  -1   22.87    1.97
   2   2  -1    2.82    1.46
   3   2  -1    7.05    2.14
   4   2  -1    1.05    2.03
  -6   3  -1    7.93    2.71
  -5   3  -1    1.24    1.01
  -4   3  -1    8.27    1.59
  -3   3  -1   13.06    1.34
  -2   3  -1    8.38    1.06
  -1   3  -1   21.42    1.64
   0   3  -1    3.87    0.99
   1   3  -1   12.68    2.58
   2   3  -1    4.32    1.98
   3   3  -1    1.36    2.14
  -6   4  -1    0.20    1.69
  -5   4  -1    9.83    2.06
  -4   4  -1    2.35    1.14
  -3   4  -1    7.95    1.65
  -2   4  -1    6.15    1.43
  -1   4  -1    6.02    2.12
   0   4  -1    6.79    1.65
   1   4  -1    4.15    1.55
   2   4  -1    2.60    1.73
  -5   5  -1    1.51    1.40
  -4   5  -1    6.31    1.76
  -3   5  -1    3.44    2.07
  -2   5  -1    3.29    2.02
  -1   5  -1    5.32    2.40
   0   5  -1    4.11    2.53
  -4   6  -1    1.29    1.94
  -3   6  -1    3.75    2.43
  -2   6  -1    1.00    1.95
   2  -6   0    1.55    1.57
   3  -6   0   66.12    4.75
   4  -6   0    1.21    1.97
   0  -5   0    1.56    2.28
   1  -5   0   99.87    5.76
   2  -5   0    3.65    1.39
   3  -5   0    3.68    1.11
   4  -5   0  101.95    8.55
   5  -5   0    1.81    1.34
  -2  -4   0    1.44    1.44
  -1  -4   0   99.37    6.25
   0  -4   0    4.18    1.08
   1  -4   0    9.43    1.38
   2  -4   0  274.24    9.24
   3  -4   0   10.67    1.40
   4  -4   0    5.69    1.47
   5  -4   0  108.03    8.93
   6  -4   0    1.59    1.57
  -3  -3   0   59.54    7.49
  -2  -3   0    1.22    1.04
  -1  -3   0    7.95    1.38
   0  -3   0  387.58   11.20
   1  -3   0   19.73    1.22
   2  -3   0   17.46    1.37
   3  -3   0  391.43   15.49
   4  -3   0   12.61    1.90
   5  -3   0    2.51    1.31
   6  -3   0   61.69    5.11
  -4  -2   0    0.71    1.74
  -3  -2   0    2.08    1.18
  -2  -2   0  271.21   10.01
  -1  -2   0   15.88    1.24
   0  -2   0   29.19    1.13
   1  -2   0  912.82   23.79
   2  -2   0   29.66    1.49
   3  -2   0   17.69    1.30
   4  -2   0  277.96   11.13
   5  -2   0    1.76    1.29
   6  -2   0   -0.57    1.46
  -4  -1   0  100.19    5.43
  -3  -1   0    4.47    1.00
  -2  -1   0   19.18    1.09
  -1  -1   0  905.43   21.82
   0  -1   0   52.94    1.77
   1  -1   0   53.81    1.99
   2  -1   0  959.18   26.91
   3  -1   0   20.84    1.40
   4  -1   0    4.08    1.26
   5  -1   0   94.57    6.89
  -5   0   0   -0.40    1.48
  -4   0   0    3.56    1.22
  -3   0   0  401.62   13.78
  -2   0   0   25.67    1.05
  -1   0   0   57.99    1.48
   1   0   0   56.84    2.53
   2   0   0   26.01    1.80
   3   0   0  397.32   13.62
   4   0   0    4.88    1.76
   5   0   0   -0.30    2.39
  -5   1   0  100.32    5.57
  -4   1   0    5.55    1.09
  -3   1   0   20.02    1.07
  -2   1   0  959.14   22.97
  -1   1   0   56.32    1.98
   0   1   0   56.04    1.91
   1   1   0  912.86   29.96
   2   1   0   19.09    2.25
   3   1   0    5.45    1.35
   4   1   0   93.70   10.79
  -6   2   0   -0.10    1.57
  -5   2   0    1.53    1.12
  -4   2   0  271.31    8.94
  -3   2   0   17.34    1.40
  -2   2   0   30.24    1.46
  -1   2   0  883.72   26.00
   0   2   0   28.74    1.85
   1   2   0   17.01    1.95
   2   2   0  271.51   19.85
   3   2   0    2.48    1.65
   4   2   0    0.65    1.86
  -6   3   0   56.61    5.40
  -5   3   0    1.73    1.18
  -4   3   0   10.49    1.75
  -3   3   0  393.90   14.19
  -2   3   0   18.50    1.37
  -1   3   0   20.32    1.60
   0   3   0  394.27   23.42
   1   3   0    6.11    2.00
   2   3   0    1.77    1.72
   3   3   0   45.97    9.32
  -6   4   0    0.54    1.37
  -5   4   0  102.59    5.57
  -4   4   0    4.30    1.33
  -3   4   0    9.47    1.72
  -2   4   0  262.79   10.76
  -1   4   0    8.78    2.60
   0   4   0    2.61    1.20
   1   4   0  102.92    9.00
   2   4   0    0.31    2.13
  -5   5   0    2.58    1.49
  -4   5   0  102.35    5.65
  -3   5   0    1.82    1.21
  -2   5   0    3.46    2.02
  -1   5   0   93.08    7.79
   0   5   0    0.63    2.05
  -4   6   0    0.05    2.28
  -3   6   0   57.39    8.37
  -2   6   0   -0.18    2.10
   2  -6   1    1.33    1.61
   3  -6   1    4.05    1.70
   4  -6   1    0.74    1.78
   0  -5   1    2.74    2.48
   1  -5   1    4.03    1.46
   2  -5   1    6.77    1.67
   3  -5   1    2.80    1.06
   4  -5   1    7.10    1.79
   5  -5   1    3.16    1.50
  -2  -4   1    3.35    1.57
  -1  -4   1    1.82    1.22
   0  -4   1    9.51    1.42
   1  -4   1    7.75    1.27
   2  -4   1    6.12    1.15
   3  -4   1    8.28    1.28
   4  -4   1    1.77    1.02
   5  -4   1    9.30    1.99
   6  -4   1    0.90    1.51
  -3  -3   1    1.91    1.42
  -2  -3   1    6.42    1.58
  -1  -3   1    9.66    1.50
   0  -3   1    2.52    0.83
   1  -3   1   19.99    1.25
   2  -3   1    8.87    1.06
   3  -3   1   11.53    1.27
   4  -3   1    6.07    1.40
   5  -3   1    1.28    1.23
   6  -3   1   10.90    2.61
  -4  -2   1    1.83    1.91
  -3  -2   1    6.56    1.49
  -2  -2   1    1.73    0.87
  -1  -2   1   21.72    1.36
   0  -2   1   18.40    0.90
   1  -2   1    4.11    0.53
   2  -2   1   22.59    1.38
   3  -2   1    6.15    0.81
   5  -2   1    4.12    1.57
   6  -2   1   -0.60    1.44
  -4  -1   1    1.60    1.48
  -3  -1   1   10.82    1.39
  -2  -1   1   14.96    1.79
  -1  -1   1    2.88    0.50
   0  -1   1   47.62    1.40
   1  -1   1   19.63    1.01
   3  -1   1   13.48    2.82
   4  -1   1    2.16    1.65
   5  -1   1   13.12    2.79
  -5   0   1    3.78    2.01
  -4   0   1   11.14    1.81
  -3   0   1    3.27    1.78
  -2   0   1   32.74    1.14
  -1   0   1   27.81    1.06
   1   0   1   42.88    2.26
   4   0   1    3.20    1.60
   5   0   1    1.29    2.70
  -5   1   1    2.10    1.28
  -4   1   1   12.67    1.55
  -2   1   1    1.50    0.32
  -1   1   1   49.98    1.90
   0   1   1   21.67    1.05
   2   1   1   12.51    2.11
   3   1   1    2.90    1.46
   4   1   1   10.64    2.64
  -6   2   1    2.63    2.02
  -5   2   1   11.19    2.61
  -4   2   1    1.38    0.70
  -3   2   1   24.23    1.44
  -2   2   1   21.14    1.03
  -1   2   1    3.43    0.50
   0   2   1   25.63    1.35
   1   2   1    8.44    1.45
   2   2   1   14.23    2.59
   3   2   1    3.12    1.84
   4   2   1    1.03    2.07
  -6   3   1    1.01    1.81
  -5   3   1    5.42    1.54
  -4   3   1   15.02    2.00
  -3   3   1    0.55    0.67
  -2   3   1   20.94    1.58
  -1   3   1   11.69    1.21
   0   3   1    9.64    1.59
   1   3   1    6.85    2.13
   2   3   1    1.41    1.77
   3   3   1    4.56    2.52
  -6   4   1    4.79    1.86
  -5   4   1    0.55    1.12
  -4   4   1    9.56    1.84
  -3   4   1   11.19    1.79
  -2   4   1    2.52    1.11
  -1   4   1    9.76    1.85
   0   4   1    2.65    1.84
   1   4   1    5.28    2.27
   2   4   1    1.46    2.21
  -5   5   1    4.69    2.13
  -4   5   1    3.31    1.43
  -3   5   1    6.66    1.73
  -2   5   1    6.96    2.58
  -1   5   1    2.70    2.17
   0   5   1    0.90    2.11
  -4   6   1    2.99    3.22
  -3   6   1   -0.12    2.12
  -2   6   1    1.83    2.95
   2  -6   2   16.00    2.88
   3  -6   2    1.10    2.14
   4  -6   2    1.52    1.95
   0  -5   2   21.80    4.80
   1  -5   2    1.38    1.22
   2  -5   2    3.14    1.32
   3  -5   2   37.34    2.47
   4  -5   2   -0.35    0.98
   5  -5   2    2.78    1.48
  -2  -4   2   12.37    2.63
  -1  -4   2    1.68    1.43
   0  -4   2    2.84    0.93
   1  -4   2   52.53    2.92
   2  -4   2    0.29    0.62
   3  -4   2    6.72    1.15
   4  -4   2   40.53    3.19
   5  -4   2   -1.23    0.86
   6  -4   2    2.64    1.74
  -3  -3   2    0.59    1.32
  -2  -3   2    1.38    1.10
  -1  -3   2   50.21    2.58
   0  -3   2    3.09    0.85
   1  -3   2   11.81    1.01
   2  -3   2   98.78    3.80
   3  -3   2    0.20    0.47
   4  -3   2    8.79    1.56
   5  -3   2   38.35    3.48
   6  -3   2    1.72    1.55
  -4  -2   2    0.24    1.77
  -3  -2   2   19.67    2.53
  -2  -2   2    5.92    1.29
  -1  -2   2    6.98    0.94
   0  -2   2  130.63    3.71
   1  -2   2    0.74    0.34
   2  -2   2   24.45    1.26
   3  -2   2  102.13    4.62
   4  -2   2    2.35    0.78
   5  -2   2    6.46    1.80
   6  -2   2   13.83    3.02
  -4  -1   2    4.64    1.86
  -3  -1   2    1.95    0.95
  -2  -1   2   92.58    3.41
  -1  -1   2    6.77    1.01
   0  -1   2   36.59    1.36
   1  -1   2  242.59    7.14
   2  -1   2    1.03    0.40
   4  -1   2   61.85    3.87
   5  -1   2    0.75    1.35
  -5   0   2    0.89    1.55
  -4   0   2   37.34    2.95
  -3   0   2    7.29    1.14
  -2   0   2   16.21    1.05
  -1   0   2  229.39    4.65
   0   0   2    2.80    0.34
   1   0   2   45.22    3.16
   2   0   2  144.36    5.17
   3   0   2    3.40    0.90
   4   0   2    8.34    2.19
   5   0   2   22.60    4.03
  -5   1   2    4.22    1.51
  -4   1   2    1.82    0.77
  -3   1   2   92.17    2.41
  -2   1   2    6.25    0.98
  -1   1   2   34.21    1.28
   0   1   2  234.78    6.84
   1   1   2    2.63    0.62
   2   1   2   22.40    4.35
   3   1   2   59.92    4.66
   4   1   2    1.32    1.60
  -6   2   2    0.37    1.76
  -5   2   2   26.72    3.49
  -4   2   2    7.22    1.18
  -3   2   2    6.34    0.80
  -2   2   2  129.06    4.50
  -1   2   2    2.50    0.58
   0   2   2   25.63    1.34
   1   2   2  103.85    4.76
   2   2   2    2.38    1.14
   3   2   2    3.45    1.82
   4   2   2   11.09    4.99
  -6   3   2    2.36    1.80
  -5   3   2    0.92    0.98
  -4   3   2   48.13    3.25
  -3   3   2    4.76    0.91
  -2   3   2    9.27    1.15
  -1   3   2   96.53    3.28
   0   3   2    1.56    0.89
   1   3   2    8.17    1.73
   2   3   2   22.71    5.94
   3   3   2    1.53    2.21
  -6   4   2   11.99    3.16
  -5   4   2    3.00    1.37
  -4   4   2    1.08    0.99
  -3   4   2   50.58    3.35
  -2   4   2    1.55    0.96
  -1   4   2    5.52    1.53
   0   4   2   41.67    4.82
   1   4   2    0.53    1.68
   2   4   2    1.41    2.29
  -5   5   2   15.39    3.39
  -4   5   2    1.88    1.54
  -3   5   2    0.37    1.31
  -2   5   2   29.58    4.56
  -1   5   2    1.29    1.89
   0   5   2    1.53    2.16
  -4   6   2   15.03    3.46
  -3   6   2    1.18    2.64
  -2   6   2   -0.44    2.58
   2  -6   3    7.87    2.17
   3  -6   3    0.79    1.79
   4  -6   3    0.22    1.82
   0  -5   3   12.79    3.71
   1  -5   3    0.65    1.12
   2  -5   3    1.94    1.24
   3  -5   3   17.01    2.41
   4  -5   3    0.97    1.07
   5  -5   3    0.96    1.24
  -2  -4   3    6.91    2.47
  -1  -4   3    0.26    1.17
   0  -4   3    5.25    1.22
   1  -4   3   24.83    2.44
   2  -4   3    1.59    0.72
   3  -4   3    0.15    0.74
   4  -4   3   14.75    2.28
   5  -4   3    2.98    1.11
   6  -4   3    0.83    1.54
  -3  -3   3   -0.06    1.27
  -2  -3   3    4.31    1.38
  -1  -3   3   29.68    1.98
   0  -3   3    4.29    1.66
   1  -3   3    2.35    0.58
   2  -3   3   43.44    2.27
   3  -3   3    4.63    1.13
   4  -3   3    0.78    0.70
   5  -3   3   13.50    2.50
   6  -3   3    2.28    1.65
  -4  -2   3    2.63    1.99
  -3  -2   3   15.70    2.19
  -2  -2   3    1.71    0.91
  -1  -2   3    6.25    0.92
   0  -2   3   68.74    2.41
   1  -2   3    2.38    0.44
   2  -2   3    0.44    0.37
   3  -2   3   39.67    2.29
   4  -2   3    6.08    1.50
   5  -2   3    0.50    1.05
   6  -2   3    4.31    2.18
  -4  -1   3    1.21    1.55
  -3  -1   3    4.63    1.18
  -2  -1   3   49.27    2.26
  -1  -1   3    1.69    0.35
   0  -1   3    2.42    0.42
   1  -1   3  102.92    3.11
   2  -1   3    5.65    0.71
   3  -1   3    1.15    0.89
   4  -1   3   24.82    2.64
   5  -1   3    2.32    1.69
  -5   0   3    3.66    1.65
  -4   0   3   24.44    2.60
  -3   0   3    3.56    0.67
  -2   0   3    5.19    0.52
  -1   0   3  111.42    2.33
   0   0   3    1.51    0.35
   1   0   3    0.95    0.43
   2   0   3   63.56    3.05
   3   0   3    6.66    1.19
   4   0   3   -0.21    1.10
   5   0   3    2.96    2.04
  -5   1   3    1.23    1.26
  -4   1   3    8.31    1.15
  -3   1   3   53.33    1.54
  -2   1   3    0.98    0.27
  -1   1   3    2.64    0.36
   0   1   3  104.83    3.48
   1   1   3    5.24    0.85
   2   1   3    0.24    0.88
   3   1   3   21.55    3.39
   4   1   3    3.54    2.08
  -6   2   3    2.80    2.21
  -5   2   3   17.98    2.48
  -4   2   3    1.62    0.72
  -3   2   3    6.20    0.76
  -2   2   3   70.82    2.70
  -1   2   3    0.91    0.48
   0   2   3    1.77    0.49
   1   2   3   45.46    3.01
   2   2   3    4.89    1.48
   3   2   3    0.48    1.50
   4   2   3    3.48    2.46
  -6   3   3    0.84    2.44
  -5   3   3    3.84    1.35
  -4   3   3   30.44    2.59
  -3   3   3    0.60    1.52
  -2   3   3    2.92    0.74
  -1   3   3   47.24    2.42
   0   3   3    4.52    1.24
   1   3   3    2.47    1.19
   2   3   3   10.14    2.83
   3   3   3    2.23    2.32
  -6   4   3    7.88    2.70
  -5   4   3    0.59    1.44
  -4   4   3    4.34    1.30
  -3   4   3   28.28    2.05
  -2   4   3    1.08    0.76
  -1   4   3    2.41    1.24
   0   4   3   14.35    3.20
   1   4   3    1.27    1.83
   2   4   3    1.08    2.38
  -5   5   3   10.62    2.90
  -4   5   3   -0.15    1.30
  -3   5   3    2.19    1.55
  -2   5   3   15.13    3.00
  -1   5   3   -1.31    1.84
   0   5   3    0.27    2.31
  -4   6   3    7.92    2.69
  -3   6   3    0.75    2.98
  -2   6   3    0.95    2.96
   2  -6   4   23.05    3.28
   3  -6   4    3.58    2.37
   0  -5   4   27.56    5.29
   1  -5   4    4.14    1.52
   2  -5   4    7.96    1.84
   3  -5   4   49.92    5.16
   4  -5   4    7.55    1.77
   5  -5   4    7.69    1.70
  -2  -4   4   15.16    3.08
  -1  -4   4    3.03    1.65
   0  -4   4    9.81    1.62
   1  -4   4   84.87    4.88
   2  -4   4   19.43    1.78
   3  -4   4   17.31    2.25
   4  -4   4   61.74    4.17
   5  -4   4    9.09    1.66
  -3  -3   4    0.29    1.38
  -2  -3   4    5.47    1.57
  -1  -3   4   80.92    4.07
   0  -3   4   19.73    1.86
   1  -3   4   29.99    1.57
   2  -3   4  172.87    6.11
   3  -3   4   29.87    2.31
   4  -3   4   22.70    1.92
   5  -3   4   46.08    3.97
   6  -3   4    2.82    1.74
  -3  -2   4   40.74    3.21
  -2  -2   4    9.56    1.63
  -1  -2   4   24.16    1.62
   0  -2   4  257.43    7.48
   1  -2   4   50.82    1.90
   2  -2   4   46.31    1.98
   3  -2   4  172.40    6.29
   4  -2   4   23.08    2.77
   5  -2   4   12.85    2.39
   6  -2   4   20.68    5.12
  -4  -1   4    2.25    1.64
  -3  -1   4   11.15    1.78
  -2  -1   4  172.14    6.55
  -1  -1   4   42.17    1.70
   0  -1   4   66.75    2.36
   1  -1   4  430.15   11.19
   2  -1   4   58.19    2.26
   3  -1   4   33.30    3.74
   4  -1   4   91.09    5.14
   5  -1   4    6.57    2.24
  -5   0   4    3.41    2.08
  -4   0   4   65.11    3.86
  -3   0   4   17.48    1.68
  -2   0   4   39.64    1.33
  -1   0   4  416.78    9.38
   0   0   4   86.03    2.76
   1   0   4   75.82    2.39
   2   0   4  266.92    9.28
   3   0   4   29.19    2.06
   4   0   4   15.44    2.91
   5   0   4   25.82    4.26
  -5   1   4    1.14    1.28
  -4   1   4   12.44    1.13
  -3   1   4  176.40    3.97
  -2   1   4   42.72    1.37
  -1   1   4   66.18    2.43
   0   1   4  422.04   10.40
   1   1   4   56.64    2.65
   2   1   4   39.27    2.35
   3   1   4   87.96    6.20
   4   1   4    5.72    2.46
  -6   2   4    0.95    2.68
  -5   2   4   45.95    3.45
  -4   2   4   11.44    1.46
  -3   2   4   25.70    1.41
  -2   2   4  252.50    7.96
  -1   2   4   48.04    2.16
   0   2   4   46.02    2.11
   1   2   4  176.93    7.36
   2   2   4   19.43    2.55
   3   2   4   10.15    2.24
   4   2   4   15.80    4.93
  -6   3   4    0.81    1.89
  -5   3   4    4.71    1.85
  -4   3   4   86.66    3.81
  -3   3   4   19.13    1.71
  -2   3   4   27.60    1.81
  -1   3   4  177.46    6.10
   0   3   4   27.51    2.54
   1   3   4   20.23    2.58
   2   3   4   30.69    6.96
   3   3   4    1.32    2.33
  -6   4   4   18.65    6.09
  -5   4   4    2.83    1.80
  -4   4   4    8.38    1.70
  -3   4   4   83.50    4.52
  -2   4   4   17.21    1.79
  -1   4   4   16.22    2.45
   0   4   4   64.96    4.45
   1   4   4    4.01    2.14
   2   4   4    2.73    3.75
  -5   5   4   26.38    4.47
  -4   5   4    3.50    1.96
  -3   5   4    7.29    2.29
  -2   5   4   39.00    4.60
  -1   5   4    3.70    3.31
   0   5   4    5.13    3.67
  -4   6   4   20.69    4.87
  -3   6   4    0.92    2.87
   2  -6   5    1.07    2.47
   3  -6   5   10.88    3.52
   0  -5   5    1.30    2.22
   1  -5   5   18.71    2.82
   2  -5   5    5.29    1.64
   3  -5   5    0.62    1.06
   4  -5   5   16.12    2.51
   5  -5   5    4.13    1.35
  -1  -4   5   13.61    2.61
   0  -4   5    6.28    1.37
   1  -4   5    3.74    1.25
   2  -4   5   37.44    2.35
   3  -4   5    5.53    1.33
   4  -4   5   -0.11    0.70
   5  -4   5   11.95    2.44
  -3  -3   5    6.98    2.41
  -2  -3   5    6.63    2.03
  -1  -3   5    7.09    1.36
   0  -3   5   60.52    3.06
   1  -3   5    8.95    1.02
   2  -3   5    6.34    1.02
   3  -3   5   47.64    2.77
   4  -3   5    7.38    1.30
   5  -3   5    0.41    1.02
   6  -3   5    3.26    2.39
  -3  -2   5    2.67    1.30
  -2  -2   5   39.62    2.53
  -1  -2   5   11.82    1.47
   0  -2   5   16.89    1.19
   1  -2   5  123.29    3.46
   2  -2   5    9.27    0.89
   3  -2   5    3.34    0.80
   4  -2   5   30.12    2.93
   5  -2   5    3.42    1.49
  -4  -1   5   16.37    3.03
  -3  -1   5    9.19    1.63
  -2  -1   5   13.96    1.95
  -1  -1   5  127.76    4.19
   0  -1   5   11.56    0.95
   1  -1   5   21.19    1.08
   2  -1   5  113.84    4.43
   3  -1   5    7.80    1.47
   4  -1   5    1.15    1.00
   5  -1   5    7.59    2.36
  -5   0   5    9.43    2.66
  -4   0   5    7.72    1.42
  -3   0   5   64.25    2.13
  -2   0   5   12.96    0.77
  -1   0   5   31.18    1.96
   0   0   5  201.80    5.20
   1   0   5   10.74    0.89
   3   0   5   44.83    3.01
   4   0   5    3.80    1.74
   5   0   5   -0.11    1.72
  -5   1   5   23.94    3.51
  -4   1   5   12.57    1.04
  -2   1   5  131.97    3.03
  -1   1   5   12.46    0.98
   0   1   5   23.15    1.27
   1   1   5  114.63    4.98
   2   1   5    8.98    1.45
   3   1   5    1.67    1.48
   4   1   5    6.53    2.60
  -6   2   5    3.68    3.35
  -5   2   5    4.00    1.45
  -4   2   5   44.41    2.35
  -3   2   5   12.91    1.14
  -2   2   5   20.17    1.13
  -1   2   5  121.25    4.20
   0   2   5   10.85    1.16
   1   2   5    5.45    1.34
   2   2   5   31.16    3.21
   3   2   5    3.89    1.72
  -6   3   5   10.22    2.99
  -5   3   5    7.28    2.19
  -4   3   5    5.90    1.37
  -3   3   5   62.57    3.37
  -2   3   5   10.36    1.20
  -1   3   5    7.79    1.19
   0   3   5   50.94    3.48
   1   3   5    5.05    1.55
   2   3   5    0.28    1.76
   3   3   5    2.71    2.45
  -6   4   5    1.48    3.02
  -5   4   5   23.99    3.82
  -4   4   5    7.82    1.70
  -3   4   5    6.25    1.43
  -2   4   5   40.03    2.92
  -1   4   5    6.42    2.12
   0   4   5    2.06    1.37
   1   4   5    8.47    2.81
   2   4   5    3.87    3.94
  -5   5   5    1.43    1.93
  -4   5   5   17.86    3.40
  -3   5   5    6.75    2.34
  -2   5   5    0.63    1.57
  -1   5   5    9.33    4.54
   0   5   5    3.63    3.64
  -4   6   5    0.97    2.58
  -3   6   5   10.96    5.20
   2  -6   6    2.82    2.82
   0  -5   6    2.54    2.19
   1  -5   6   10.35    2.22
   2  -5   6   46.23    3.73
   3  -5   6   13.03    2.24
   4  -5   6   14.72    2.42
   5  -5   6   25.22    2.88
  -1  -4   6    5.67    2.90
   0  -4   6   54.63    3.33
   1  -4   6   16.13    2.37
   2  -4   6   24.41    2.06
   3  -4   6   80.78    3.97
   4  -4   6   19.47    2.16
   5  -4   6   17.85    2.95
  -3  -3   6    3.92    3.12
  -2  -3   6   40.37    4.11
  -1  -3   6   14.63    1.96
   0  -3   6   27.04    2.11
   1  -3   6  160.89    5.18
   2  -3   6   46.91    2.06
   3  -3   6   36.68    3.90
   4  -3   6   75.73    3.92
   5  -3   6   12.71    2.42
   6  -3   6   11.98    3.83
  -3  -2   6    6.69    1.70
  -2  -2   6   16.83    1.81
  -1  -2   6  169.31    6.28
   0  -2   6   55.69    2.41
   1  -2   6   59.79    2.21
   2  -2   6  230.60    6.87
   3  -2   6   50.41    2.46
   4  -2   6   28.34    4.03
   5  -2   6   38.53    3.76
  -4  -1   6    5.29    2.00
  -3  -1   6   80.72    5.45
  -2  -1   6   35.33    2.10
  -1  -1   6   49.00    2.26
   0  -1   6  354.41    8.78
   1  -1   6   91.64    2.96
   2  -1   6   71.15    3.60
   3  -1   6  146.09    7.66
   4  -1   6   26.98    2.36
   5  -1   6   17.98    3.32
  -5   0   6   26.58    4.08
  -4   0   6    8.71    2.10
  -3   0   6   24.11    1.39
  -2   0   6  245.48    5.45
  -1   0   6   85.82    2.48
   0   0   6   88.22    2.65
   1   0   6  345.09    9.95
   2   0   6   68.15    3.16
   4   0   6   47.32    4.67
   5   0   6    5.76    2.51
  -5   1   6    7.22    2.17
  -4   1   6   92.01    2.58
  -3   1   6   35.76    1.45
  -2   1   6   49.76    1.82
  -1   1   6  354.29    9.98
   0   1   6   92.09    3.18
   1   1   6   69.06    3.18
   2   1   6  153.00    6.69
   3   1   6   27.07    3.95
   4   1   6   15.88    3.45
  -5   2   6    6.74    2.16
  -4   2   6   15.59    1.69
  -3   2   6  173.48    4.88
  -2   2   6   56.28    2.14
  -1   2   6   56.11    2.45
   0   2   6  234.66    7.57
   1   2   6   43.36    2.98
   2   2   6   36.90    6.41
   3   2   6   33.82    3.94
  -6   3   6    4.06    2.39
  -5   3   6   47.69    3.42
  -4   3   6   17.25    2.23
  -3   3   6   21.17    2.34
  -2   3   6  163.30    6.75
  -1   3   6   46.01    2.85
   0   3   6   37.60    2.82
   1   3   6   76.59    4.83
   2   3   6    9.92    2.30
   3   3   6   10.73    4.67
  -6   4   6   -0.01    2.77
  -5   4   6    5.18    2.27
  -4   4   6   55.22    4.49
  -3   4   6   17.69    2.37
  -2   4   6   23.14    2.53
  -1   4   6   72.79    5.95
   0   4   6   15.09    3.10
   1   4   6   10.96    4.36
  -5   5   6    6.50    2.71
  -4   5   6    6.80    1.81
  -3   5   6   44.11    3.54
  -2   5   6   11.99    2.81
  -1   5   6    8.64    2.72
  -3   6   6    5.22    3.35
   0  -5   7    3.30    2.60
   1  -5   7    2.83    1.53
   2  -5   7    0.86    1.12
   3  -5   7    4.55    1.56
   4  -5   7    1.24    1.25
   5  -5   7    2.54    1.51
  -1  -4   7    4.04    1.79
   0  -4   7    2.00    1.04
   1  -4   7    6.27    1.60
   2  -4   7    3.15    0.99
   3  -4   7    7.56    1.73
   4  -4   7    3.60    1.12
   5  -4   7    0.29    1.20
  -2  -3   7    1.12    1.52
  -1  -3   7    6.61    1.43
   0  -3   7    7.10    1.24
   1  -3   7    8.87    1.08
   2  -3   7   11.94    1.22
   3  -3   7    1.11    0.71
   4  -3   7   11.46    1.55
   5  -3   7    2.51    1.53
  -3  -2   7    3.40    1.73
  -2  -2   7    7.94    1.49
  -1  -2   7    4.64    1.06
   0  -2   7   17.28    1.46
   1  -2   7    3.08    0.60
   2  -2   7   17.31    1.19
   3  -2   7   10.46    1.39
   4  -2   7    0.88    0.98
   5  -2   7    9.25    2.24
  -4  -1   7    4.69    1.66
  -3  -1   7    3.21    1.10
  -2  -1   7   14.46    1.74
  -1  -1   7    6.63    0.94
   0  -1   7   11.63    1.06
   1  -1   7   23.34    1.28
   2  -1   7    1.38    0.61
   4  -1   7    3.76    1.24
   5  -1   7    1.10    1.64
  -5   0   7    1.13    1.93
  -4   0   7    5.56    1.56
  -3   0   7    8.33    1.04
  -1   0   7   25.09    1.41
   0   0   7    3.21    0.48
   1   0   7   19.01    2.88
   2   0   7   15.75    1.78
   3   0   7    1.45    0.87
   4   0   7    6.94    2.17
   5   0   7    0.91    2.00
  -4   1   7    2.02    0.97
  -3   1   7   16.33    1.14
  -2   1   7    7.07    0.93
  -1   1   7   11.96    1.06
   0   1   7   23.86    1.42
   1   1   7    1.75    0.53
   2   1   7   16.21    3.73
   3   1   7    3.29    1.78
   4   1   7    1.18    1.93
  -5   2   7    4.05    1.42
  -4   2   7    7.62    1.22
  -3   2   7    2.68    0.75
  -2   2   7   17.92    1.43
  -1   2   7    4.33    0.80
   0   2   7   15.42    1.51
   1   2   7    9.77    1.73
   2   2   7    1.90    1.29
   3   2   7    6.21    1.97
  -5   3   7    0.79    1.11
  -4   3   7    9.59    1.68
  -3   3   7    6.75    1.43
  -2   3   7    5.15    1.24
  -1   3   7   11.88    1.76
   0   3   7    2.33    1.41
   1   3   7    8.91    1.88
   2   3   7    2.59    1.66
   3   3   7    1.76    3.85
  -5   4   7    3.36    1.43
  -4   4   7    1.05    1.01
  -3   4   7    7.90    1.70
  -2   4   7    3.21    1.23
  -1   4   7    6.35    2.23
   0   4   7    4.78    2.15
   1   4   7    0.12    2.46
  -5   5   7    2.52    2.24
  -4   5   7    3.33    1.48
  -3   5   7    1.22    1.23
  -2   5   7    3.30    2.08
  -1   5   7    1.06    1.78
   0   5   7    1.29    3.07
  -3   6   7    2.91    3.21
   0  -5   8    0.06    2.02
   1  -5   8   14.05    2.57
   2  -5   8   -0.29    1.08
   3  -5   8    1.93    1.28
   4  -5   8   15.64    2.68
   5  -5   8   -0.10    1.80
  -1  -4   8   10.84    3.78
   0  -4   8    0.32    0.96
   1  -4   8    2.67    1.28
   2  -4   8   35.96    2.43
   3  -4   8    0.27    0.87
   4  -4   8    3.91    1.19
   5  -4   8   16.40    2.98
  -2  -3   8    0.84    1.45
  -1  -3   8    3.58    1.17
   0  -3   8   44.08    2.84
   1  -3   8    0.91    0.61
   2  -3   8   11.16    1.45
   3  -3   8   48.07    2.75
   4  -3   8   -0.18    0.89
   5  -3   8    4.74    1.76
  -3  -2   8    2.11    1.74
  -2  -2   8   28.91    2.71
  -1  -2   8    2.43    0.98
   0  -2   8   14.38    1.40
   1  -2   8   84.48    3.06
   2  -2   8   -0.02    0.52
   3  -2   8   11.63    1.43
   4  -2   8   35.73    3.22
   5  -2   8    0.42    1.33
  -4  -1   8    9.20    2.47
  -3  -1   8    3.66    1.25
  -2  -1   8    6.68    1.39
  -1  -1   8   78.14    3.25
   0  -1   8    2.06    0.57
   1  -1   8   23.41    1.38
   2  -1   8   87.33    3.64
   3  -1   8   -0.08    0.77
   4  -1   8    6.01    1.46
   5  -1   8   17.01    3.30
  -5   0   8    4.61    3.43
  -4   0   8    2.06    1.27
  -3   0   8   42.94    2.39
  -2   0   8    3.03    0.65
  -1   0   8   20.51    1.45
   0   0   8  120.71    4.08
   1   0   8    1.02    0.48
   2   0   8   20.14    2.11
   3   0   8   57.06    3.40
   4   0   8    1.38    1.57
  -4   1   8    2.93    0.97
  -3   1   8    8.27    1.05
  -2   1   8   80.26    2.87
  -1   1   8    1.89    0.58
   0   1   8   23.71    1.50
   1   1   8   90.00    3.25
   2   1   8    1.26    0.94
   3   1   8    7.11    2.31
   4   1   8   12.37    3.20
  -5   2   8    2.20    1.54
  -4   2   8   30.40    2.16
  -3   2   8    2.25    0.75
  -2   2   8   10.96    1.28
  -1   2   8   78.64    3.30
   0   2   8    0.56    0.73
   1   2   8   13.91    1.60
   2   2   8   38.10    3.38
   3   2   8    0.72    1.50
  -5   3   8    0.92    1.11
  -4   3   8    2.81    1.14
  -3   3   8   39.85    2.96
  -2   3   8    0.96    0.85
  -1   3   8   10.68    1.73
   0   3   8   46.36    4.25
   1   3   8    0.19    1.51
   2   3   8    0.95    1.91
  -5   4   8   11.77    2.31
  -4   4   8    0.73    0.95
  -3   4   8    3.12    1.32
  -2   4   8   32.72    2.97
  -1   4   8    0.50    1.55
   0   4   8    1.93    1.86
   1   4   8   18.39    5.10
  -5   5   8    1.78    2.86
  -4   5   8   12.60    2.79
  -3   5   8    0.51    1.14
  -2   5   8    3.17    2.13
  -1   5   8   15.43    3.50
   0  -5   9   10.27    3.49
   1  -5   9    2.73    1.48
   2  -5   9   -0.06    1.75
   3  -5   9   16.09    3.73
   4  -5   9    1.28    1.25
  -1  -4   9    2.86    1.90
   0  -4   9    1.58    1.11
   1  -4   9   30.50    3.11
   2  -4   9    3.10    1.37
   3  -4   9    0.66    1.01
   4  -4   9   16.40    2.56
   5  -4   9    2.66    1.54
  -2  -3   9    1.28    1.69
  -1  -3   9   28.60    2.83
   0  -3   9    3.74    1.16
   1  -3   9    2.71    0.92
   2  -3   9   49.08    3.54
   3  -3   9    4.24    1.07
   4  -3   9    0.62    0.99
   5  -3   9   15.05    2.86
  -3  -2   9   21.52    5.01
  -2  -2   9    3.26    1.27
  -1  -2   9    4.00    1.11
   0  -2   9   67.14    2.85
   1  -2   9    8.67    1.26
   2  -2   9    2.76    0.85
   3  -2   9   43.05    2.73
   4  -2   9    5.19    1.61
   5  -2   9   -0.21    1.07
  -4  -1   9    1.27    1.82
  -3  -1   9    3.37    1.25
  -2  -1   9   54.91    3.17
  -1  -1   9    7.39    1.11
   0  -1   9    8.61    1.04
   1  -1   9   79.08    3.08
   2  -1   9    7.46    1.16
   3  -1   9    0.49    0.76
   4  -1   9   19.37    2.51
   5  -1   9    0.55    1.65
  -5   0   9    3.16    3.70
  -4   0   9   28.85    3.67
  -3   0   9    4.66    1.05
  -2   0   9   10.16    1.07
  -1   0   9   86.62    3.25
   0   0   9   10.15    1.13
   1   0   9    6.63    0.96
   2   0   9   56.00    3.47
   3   0   9    4.18    1.36
   4   0   9    0.55    1.51
  -4   1   9    4.39    1.27
  -3   1   9   55.29    2.61
  -2   1   9    7.93    0.95
  -1   1   9   10.27    1.11
   0   1   9   82.91    3.25
   1   1   9    7.96    1.46
   2   1   9    1.55    1.01
   3   1   9   21.35    3.64
   4   1   9    0.97    2.02
  -5   2   9   20.98    4.15
  -4   2   9    3.24    1.14
  -3   2   9    7.46    1.18
  -2   2   9   67.36    2.91
  -1   2   9    6.95    1.06
   0   2   9    3.89    0.85
   1   2   9   47.17    3.25
   2   2   9    2.95    1.40
   3   2   9   -0.06    1.45
  -5   3   9    2.05    1.55
  -4   3   9   29.95    2.66
  -3   3   9    5.29    1.39
  -2   3   9    3.88    1.21
  -1   3   9   47.29    3.24
   0   3   9    4.22    1.80
   1   3   9   -0.09    1.44
   2   3   9    9.24    2.97
  -5   4   9    2.91    1.82
  -4   4   9    1.09    1.13
  -3   4   9   31.35    3.05
  -2   4   9    3.97    1.37
  -1   4   9    2.56    1.81
   0   4   9   15.07    3.25
   1   4   9    1.62    2.01
  -5   5   9   12.58    5.13
  -4   5   9    2.86    1.49
  -3   5   9    1.00    1.26
  -2   5   9   13.96    3.41
  -1   5   9    1.85    2.06
   1  -5  10    6.07    2.05
   2  -5  10    6.27    2.64
   3  -5  10   25.20    4.78
   4  -5  10    6.67    2.02
  -1  -4  10    5.94    1.77
   0  -4  10    2.96    1.32
   1  -4  10   38.81    3.40
   2  -4  10   16.40    2.57
   3  -4  10   10.20    2.11
   4  -4  10   31.70    3.30
   5  -4  10    6.96    2.19
  -2  -3  10    2.30    1.88
  -1  -3  10   27.85    2.94
   0  -3  10   25.27    2.56
   1  -3  10   17.33    1.97
   2  -3  10   71.36    4.54
   3  -3  10   22.76    2.25
   4  -3  10    9.56    2.13
   5  -3  10   27.23    3.83
  -3  -2  10   11.95    2.77
  -2  -2  10   19.34    2.43
  -1  -2  10   12.95    1.87
   0  -2  10   94.05    4.29
   1  -2  10   53.11    2.91
   2  -2  10   26.83    2.00
   3  -2  10   80.08    3.76
   4  -2  10   14.20    2.56
   5  -2  10    4.57    1.64
  -4  -1  10    7.17    2.43
  -3  -1  10    3.39    1.32
  -2  -1  10   62.82    3.81
  -1  -1  10   53.61    2.69
   0  -1  10   37.47    1.98
   1  -1  10  134.71    4.51
   2  -1  10   52.58    2.53
   3  -1  10   18.63    2.23
   4  -1  10   45.63    3.32
   5  -1  10    2.94    2.22
  -4   0  10   21.61    3.44
  -3   0  10   28.43    2.26
  -2   0  10   22.51    2.15
  -1   0  10  125.12    4.58
   0   0  10   80.61    3.20
   1   0  10   41.53    2.09
   2   0  10  106.72    4.88
   3   0  10   22.72    2.73
   4   0  10    5.16    2.23
  -4   1  10    3.77    1.27
  -3   1  10   61.65    3.14
  -2   1  10   58.03    2.75
  -1   1  10   36.23    2.46
   0   1  10  134.65    4.65
   1   1  10   55.81    3.33
   2   1  10   18.31    2.35
   3   1  10   39.90    4.37
   4   1  10    4.64    2.62
  -5   2  10   16.82    4.18
  -4   2  10   17.60    2.19
  -3   2  10   14.18    1.89
  -2   2  10   89.03    3.78
  -1   2  10   54.63    2.68
   0   2  10   27.69    1.83
   1   2  10   78.76    4.34
   2   2  10   11.59    2.89
   3   2  10    2.59    2.41
  -5   3  10    1.90    1.74
  -4   3  10   27.17    3.67
  -3   3  10   27.53    2.68
  -2   3  10   18.03    2.32
  -1   3  10   73.34    4.24
   0   3  10   25.76    3.84
   1   3  10    5.21    2.21
   2   3  10   26.59    4.44
  -5   4  10    6.19    2.22
  -4   4  10    2.92    1.63
  -3   4  10   33.38    3.27
  -2   4  10   19.27    2.59
  -1   4  10    6.82    2.42
   0   4  10   25.74    4.17
   1   4  10    2.64    2.27
  -4   5  10    8.78    2.16
  -3   5  10    3.28    1.58
  -2   5  10   20.98    3.95
  -1   5  10    6.05    2.64
   1  -5  11    0.43    2.21
   2  -5  11   23.97    4.74
   3  -5  11    0.43    1.98
   4  -5  11   -0.11    1.44
  -1  -4  11    0.70    1.84
   0  -4  11   37.14    3.55
   1  -4  11   -0.17    1.07
   2  -4  11    0.55    1.16
   3  -4  11   37.48    3.74
   4  -4  11    0.15    1.16
  -2  -3  11   25.68    3.98
  -1  -3  11    0.49    1.06
   0  -3  11    1.29    0.96
   1  -3  11   78.32    3.89
   2  -3  11    1.86    1.15
   3  -3  11   -0.61    0.83
   4  -3  11   31.93    3.47
   5  -3  11    0.52    1.48
  -3  -2  11   -0.80    1.54
  -2  -2  11    1.73    1.20
  -1  -2  11   86.17    4.29
   0  -2  11    3.36    1.03
   1  -2  11    1.37    0.78
   2  -2  11   99.16    4.66
   3  -2  11    1.07    1.05
   4  -2  11    0.82    1.15
   5  -2  11   16.08    2.63
  -4  -1  11    1.75    2.66
  -3  -1  11   53.13    4.50
  -2  -1  11    1.52    0.99
  -1  -1  11    3.16    1.04
   0  -1  11  153.45    5.78
   1  -1  11    7.32    1.10
   2  -1  11    0.07    0.56
   3  -1  11   61.37    3.98
   4  -1  11   -0.23    1.11
   5  -1  11   -1.28    2.67
  -4   0  11    0.29    1.26
  -3   0  11    1.37    0.95
  -2   0  11  115.69    4.90
  -1   0  11    9.66    1.27
   0   0  11    1.53    0.67
   1   0  11  133.47    5.74
   2   0  11    3.81    1.25
   3   0  11    0.53    1.06
   4   0  11   16.28    5.03
  -4   1  11   47.40    5.43
  -3   1  11    2.12    0.87
  -2   1  11    1.52    0.77
  -1   1  11  146.20    6.01
   0   1  11    7.36    1.30
   1   1  11    1.22    0.88
   2   1  11   61.59    4.14
   3   1  11    0.40    1.66
   4   1  11    2.54    3.45
  -5   2  11    1.45    1.56
  -4   2  11    1.20    1.05
  -3   2  11   83.51    4.18
  -2   2  11    4.81    1.19
  -1   2  11    0.59    0.62
   0   2  11  104.54    4.14
   1   2  11    1.28    1.05
   2   2  11   -0.32    1.48
   3   2  11   12.89    3.55
  -5   3  11   22.66    5.53
  -4   3  11    0.61    1.25
  -3   3  11    1.27    1.36
  -2   3  11   75.01    4.27
  -1   3  11    2.29    1.19
   0   3  11   -0.26    1.34
   1   3  11   32.85    4.79
   2   3  11   -1.34    1.89
  -4   4  11   35.99    4.04
  -3   4  11    0.03    1.27
  -2   4  11    0.70    1.12
  -1   4  11   37.56    4.61
   0   4  11   -0.48    1.73
   1   4  11   -0.07    2.08
  -4   5  11    1.35    2.27
  -3   5  11   27.55    3.38
  -2   5  11   -0.70    1.82
  -1   5  11    2.11    2.32
   0  -4  12   16.54    2.91
   1  -4  12    8.28    2.09
   2  -4  12    4.52    1.72
   3  -4  12   34.87    3.61
   4  -4  12    4.61    1.75
  -2  -3  12   10.74    4.41
  -1  -3  12   13.10    2.21
   0  -3  12    4.23    1.63
   1  -3  12   46.23    3.03
   2  -3  12   15.50    2.54
   3  -3  12    6.21    1.70
   4  -3  12   33.09    3.62
   5  -3  12    1.96    1.72
  -2  -2  12    1.39    1.23
  -1  -2  12   40.94    3.06
   0  -2  12   26.02    2.34
   1  -2  12   10.73    1.63
   2  -2  12   74.31    3.83
   3  -2  12   11.48    2.36
   4  -2  12    3.98    1.74
   5  -2  12   24.45    3.19
  -3  -1  12   18.38    2.68
  -2  -1  12   19.39    2.42
  -1  -1  12    7.78    1.49
   0  -1  12   84.82    4.14
   1  -1  12   30.00    1.95
   2  -1  12   13.50    1.82
   4  -1  12    4.73    1.70
  -4   0  12    8.94    2.46
  -3   0  12    2.55    1.16
  -2   0  12   55.96    4.50
  -1   0  12   34.19    2.11
   0   0  12   15.08    1.58
   1   0  12   98.03    4.34
   2   0  12   22.15    2.66
   3   0  12    5.60    1.69
   4   0  12   23.71    4.17
  -4   1  12   20.97    2.64
  -3   1  12   21.15    2.47
  -2   1  12    6.70    1.25
  -1   1  12   82.25    4.28
   0   1  12   33.52    2.44
   1   1  12   15.51    2.05
   2   1  12   58.06    7.18
   3   1  12    8.14    2.66
  -5   2  12    6.11    2.11
  -4   2  12    0.68    1.05
  -3   2  12   34.75    2.90
  -2   2  12   29.01    2.47
  -1   2  12    8.75    1.55
   0   2  12   74.93    4.16
   1   2  12   15.33    2.34
   2   2  12    4.61    2.32
   3   2  12   17.44    5.67
  -5   3  12   10.05    2.81
  -4   3  12   10.50    2.51
  -3   3  12    2.17    1.18
  -2   3  12   41.54    4.05
  -1   3  12   19.26    2.58
   0   3  12    3.43    1.81
   1   3  12   29.43    4.42
   2   3  12    3.23    2.70
  -4   4  12   13.48    2.98
  -3   4  12   10.36    2.65
  -2   4  12    2.56    1.74
  -1   4  12   24.26    3.99
   0   4  12    4.89    2.48
  -3   5  12   15.10    4.10
  -2   5  12    4.70    2.59
   0  -4  13    5.16    2.00
   1  -4  13    2.82    1.62
   2  -4  13    1.74    1.47
   3  -4  13    4.00    1.79
   4  -4  13    4.18    2.81
  -1  -3  13    1.17    1.27
   0  -3  13    4.75    1.63
   1  -3  13    5.12    1.38
   2  -3  13    2.56    1.52
   3  -3  13    2.21    1.32
   4  -3  13    2.45    1.64
  -2  -2  13    2.36    1.38
  -1  -2  13    8.03    2.00
   0  -2  13    3.20    1.12
   1  -2  13    4.39    1.17
   2  -2  13    5.84    1.68
   3  -2  13    6.10    2.00
   4  -2  13    1.49    1.58
  -3  -1  13    7.15    2.27
  -2  -1  13    0.70    1.19
  -1  -1  13    5.72    1.36
   0  -1  13   10.37    1.61
   1  -1  13    6.53    1.14
   2  -1  13    3.70    1.18
   3  -1  13    4.40    1.88
   4  -1  13    3.49    2.13
  -4   0  13    0.43    1.59
  -3   0  13    3.26    1.60
  -2   0  13    8.78    1.62
  -1   0  13    3.61    1.09
   0   0  13    5.90    1.11
   1   0  13    6.45    1.33
   2   0  13    7.42    2.16
   3   0  13    2.04    1.82
   4   0  13    2.38    2.13
  -4   1  13    6.52    1.78
  -3   1  13    1.83    1.10
  -2   1  13    4.55    1.35
  -1   1  13    8.45    1.55
   0   1  13    5.77    1.30
   1   1  13    4.59    1.68
   2   1  13    3.76    1.81
   3   1  13    3.41    2.20
  -4   2  13    3.05    1.62
  -3   2  13    8.41    1.73
  -2   2  13    2.43    1.10
  -1   2  13    3.65    1.20
   0   2  13    4.34    1.67
   1   2  13    3.45    1.76
   2   2  13    1.90    2.06
  -4   3  13    0.94    1.64
  -3   3  13    1.17    1.08
  -2   3  13    4.94    1.43
  -1   3  13    3.36    1.73
   0   3  13    2.96    2.63
   1   3  13    4.01    2.20
  -4   4  13    2.62    1.94
  -3   4  13   -0.02    1.50
  -2   4  13    1.71    1.74
  -1   4  13    5.12    3.33
   0   4  13    1.21    2.24
   0  -4  14    8.63    3.54
   1  -4  14    0.25    1.99
   2  -4  14    4.16    1.87
   3  -4  14   13.44    2.81
  -1  -3  14    0.59    1.51
   0  -3  14    9.49    2.26
   1  -3  14   22.74    2.59
   2  -3  14    0.13    1.16
   3  -3  14    5.44    1.88
   4  -3  14    8.02    3.41
  -2  -2  14    6.71    2.13
  -1  -2  14   18.21    3.00
   0  -2  14    1.07    0.93
   1  -2  14   12.45    1.86
   2  -2  14   30.27    3.27
   3  -2  14    1.07    1.42
   4  -2  14    6.10    2.38
  -3  -1  14    4.62    2.02
  -2  -1  14    0.25    1.14
  -1  -1  14   15.01    2.07
   0  -1  14   38.21    2.67
   1  -1  14    0.40    0.68
   2  -1  14   14.78    2.85
   3  -1  14   23.66    3.70
   4  -1  14   -0.10    1.70
  -4   0  14    0.81    2.49
  -3   0  14    7.96    2.09
  -2   0  14   25.70    2.79
  -1   0  14    0.34    0.73
   0   0  14   19.13    2.18
   1   0  14   39.69    2.79
   2   0  14    0.41    1.24
   3   0  14    8.57    2.59
  -4   1  14    8.86    2.54
  -3   1  14   -0.67    0.88
  -2   1  14   10.77    1.90
  -1   1  14   36.26    2.75
   0   1  14    0.22    0.76
   1   1  14   13.53    2.69
   2   1  14   24.93    3.67
   3   1  14    0.95    2.93
  -4   2  14    6.08    2.06
  -3   2  14   16.55    2.42
  -2   2  14    0.10    0.88
  -1   2  14   13.28    2.05
   0   2  14   31.75    3.99
   1   2  14   -0.10    1.33
   2   2  14    4.18    3.27
  -4   3  14   -0.29    1.19
  -3   3  14    5.33    1.65
  -2   3  14   18.92    2.52
  -1   3  14    0.30    1.33
   0   3  14    7.25    3.31
   1   3  14    6.99    3.84
  -3   4  14   -0.61    1.61
  -2   4  14    6.76    2.45
  -1   4  14    7.11    3.83
   1  -4  15    1.49    2.28
   2  -4  15   27.22    5.43
   3  -4  15    4.15    1.96
  -1  -3  15    1.20    1.63
   0  -3  15   36.23    4.24
   1  -3  15    8.02    2.13
   2  -3  15    1.51    1.44
   3  -3  15   39.03    4.19
   4  -3  15    3.20    2.84
  -2  -2  15   29.21    3.95
  -1  -2  15    8.51    2.20
   0  -2  15    1.82    1.07
   1  -2  15   56.48    4.48
   2  -2  15   11.14    2.41
   3  -2  15    1.90    2.21
   4  -2  15   27.12    4.30
  -3  -1  15    4.02    2.93
  -2  -1  15    0.87    1.29
  -1  -1  15   65.51    3.80
   0  -1  15   17.40    2.15
   1  -1  15    2.48    1.28
   2  -1  15   57.65    5.09
   3  -1  15    5.83    2.38
   4  -1  15    2.69    2.18
  -3   0  15   46.11    4.16
  -2   0  15   12.86    2.09
  -1   0  15    2.72    1.10
   0   0  15   81.07    4.18
   1   0  15   17.45    2.19
   2   0  15    1.44    1.56
   3   0  15   30.65    4.53
  -4   1  15    3.58    2.81
  -3   1  15    0.68    1.37
  -2   1  15   57.95    4.60
  -1   1  15   15.72    2.18
   0   1  15    2.62    1.11
   1   1  15   56.16    4.86
   2   1  15    4.73    2.02
   3   1  15   -0.08    2.94
  -4   2  15   28.86    3.98
  -3   2  15    8.32    1.89
  -2   2  15    1.94    1.16
  -1   2  15   61.17    3.84
   0   2  15   10.94    2.60
   1   2  15    1.26    1.68
   2   2  15   26.65    6.42
  -4   3  15    1.12    1.98
  -3   3  15   38.64    3.61
  -2   3  15    7.27    1.82
  -1   3  15    1.52    1.71
   0   3  15   30.96    6.62
   1   3  15    2.37    3.02
  -3   4  15    1.42    2.01
  -2   4  15   24.43    4.07
  -1   4  15    5.15    3.49
   0  -3  16   19.52    3.28
   1  -3  16    1.57    1.55
   2  -3  16    0.56    1.48
   3  -3  16   16.75    4.71
  -1  -2  16    2.79    1.70
   0  -2  16   -0.11    0.94
   1  -2  16   38.71    3.72
   2  -2  16    2.71    1.63
   3  -2  16   -0.21    1.97
   4  -2  16   25.48    6.22
  -2  -1  16    0.29    1.19
  -1  -1  16   30.76    3.12
   0  -1  16    6.39    1.47
   1  -1  16    1.31    1.12
   2  -1  16   40.73    4.48
   3  -1  16    0.10    1.64
  -3   0  16   15.15    3.01
  -2   0  16    6.21    1.65
  -1   0  16    0.29    0.90
   0   0  16   44.97    3.69
   1   0  16    5.46    1.84
   2   0  16   -0.23    1.39
   3   0  16   25.11    4.11
  -3   1  16    1.45    1.52
  -2   1  16   28.51    3.76
  -1   1  16    5.86    1.47
   0   1  16    0.18    0.90
   1   1  16   39.97    4.03
   2   1  16    2.50    1.90
  -3   2  16    2.97    1.64
  -2   2  16    0.62    1.07
  -1   2  16   35.54    3.28
   0   2  16    1.71    1.65
   1   2  16    0.21    1.49
  -3   3  16   15.94    2.68
  -2   3  16    3.42    1.55
  -1   3  16    0.76    1.63
   0   3  16   21.84    5.79
  -2   4  16   16.70    4.88
   0  -3  17    2.60    2.86
   1  -3  17    3.50    1.82
   2  -3  17   17.94    3.29
  -1  -2  17    1.88    1.65
   0  -2  17   27.03    2.91
   1  -2  17    5.28    1.93
   2  -2  17    9.31    2.40
   3  -2  17    9.77    4.02
  -2  -1  17   20.67    3.30
  -1  -1  17    6.33    1.56
   0  -1  17    6.40    1.52
   1  -1  17   24.11    3.27
   2  -1  17    4.71    2.78
   3  -1  17    7.19    2.62
  -2   0  17    4.75    1.58
  -1   0  17   29.64    3.07
   0   0  17   10.31    2.14
   1   0  17   10.14    2.46
   2   0  17   15.58    3.24
   3   0  17    1.91    2.05
  -3   1  17   20.86    3.45
  -2   1  17    4.64    1.76
  -1   1  17    7.43    2.01
   0   1  17   28.67    3.03
   1   1  17    4.59    2.00
   2   1  17    5.08    2.41
  -3   2  17    3.26    1.78
  -2   2  17   22.51    2.87
  -1   2  17    5.11    1.60
   0   2  17    5.90    2.23
   1   2  17   10.70    4.42
  -3   3  17    0.67    3.23
  -2   3  17    3.05    1.47
  -1   3  17   18.92    3.63
   1  -3  18    0.27    2.23
   2  -3  18   24.67    3.77
   0  -2  18   28.17    3.11
   1  -2  18    0.37    1.42
   2  -2  18    1.57    2.36
  -1  -1  18    2.48    1.30
   0  -1  18    0.59    1.04
   1  -1  18   38.58    3.95
   2  -1  18    0.81    2.06
   3  -1  18    1.97    3.58
  -2   0  18   -0.22    1.12
  -1   0  18   36.38    3.91
   0   0  18    1.46    1.24
   1   0  18    0.70    1.52
   2   0  18   31.12    4.56
  -3   1  18   15.71    5.12
  -2   1  18    3.56    1.82
  -1   1  18    0.17    1.19
   0   1  18   35.26    4.08
   1   1  18    0.26    1.57
   2   1  18   -1.52    2.24
  -2   2  18   26.70    3.85
  -1   2  18    0.98    1.23
   0   2  18    0.71    1.55
  -2   3  18   -0.31    1.61
  -1   3  18   22.10    5.51
   0  -2  19    5.74    2.89
   1  -2  19    0.02    1.38
  -1  -1  19    0.51    1.13
   0  -1  19   10.59    2.49
   1  -1  19    4.61    1.89
   2  -1  19   -1.11    1.96
  -2   0  19   10.60    4.18
  -1   0  19    6.26    2.06
   0   0  19   -0.42    1.27
   1   0  19    6.29    3.01
   2   0  19    3.46    2.04
  -2   1  19    1.01    1.51
  -1   1  19    8.32    2.27
   0   1  19    2.74    1.83
   1   1  19   -1.11    1.55
  -2   2  19    5.98    2.95
  -1   2  19   -0.79    1.57
   0   2  19    7.66    2.55
   0  -1  20    5.10    2.03
  -1   0  20    2.25    1.75
   0   0  20    2.87    1.70
  -1   1  20    6.43    2.99
   0   1  20    2.67    2.49
   0   0  21   19.34    4.52
   0   0   0    0.00    0.00
;
_shelx_hkl_checksum              89921
#END Tags that were not found in dictionaries
loop_
_space_group_symop_operation_xyz
'x, y, z'
'-y, x-y, z'
'-x+y, -x, z'
'y, x, -z'
'x-y, -y, -z'
'-x, -x+y, -z'
'-x, -y, -z'
'y, -x+y, -z'
'x-y, x, -z'
'-y, -x, z'
'-x+y, y, z'
'x, x-y, z'
loop_
_atom_site_label
_atom_site_type_symbol
_atom_site_fract_x
_atom_site_fract_y
_atom_site_fract_z
_atom_site_U_iso_or_equiv
_atom_site_adp_type
_atom_site_occupancy
_atom_site_site_symmetry_order
_atom_site_calc_flag
_atom_site_refinement_flags_posn
_atom_site_refinement_flags_adp
_atom_site_refinement_flags_occupancy
La1 La 0.0000 0.0000 0.5000 0.039(3) Uani 0.246(10) 12 d S T .
La2 La 0.0000 0.0000 0.0000 0.0165(4) Uani 1 12 d S T P
Zn1 Zn 0.3333 0.6667 0.3364(4) 0.0230(16) Uani 0.534(12) 6 d S T P
Zn2 Zn 0.3333 0.6667 0.79987(16) 0.0186(5) Uani 1 6 d S T P
Mn1 Mn 0.3333 0.6667 0.4095(8) 0.034(3) Uani 0.466(12) 6 d S T P
As1 As 0.3333 0.6667 0.13326(12) 0.0125(4) Uani 1 6 d S T P
As2 As 0.3333 0.6667 0.61635(14) 0.0180(4) Uani 1 6 d S T P
loop_
_atom_site_aniso_label
_atom_site_aniso_U_11
_atom_site_aniso_U_22
_atom_site_aniso_U_33
_atom_site_aniso_U_23
_atom_site_aniso_U_13
_atom_site_aniso_U_12
La1 0.044(4) 0.044(4) 0.028(4) 0.000 0.000 0.022(2)
La2 0.0158(5) 0.0158(5) 0.0178(7) 0.000 0.000 0.0079(2)
Zn1 0.0149(14) 0.0149(14) 0.039(4) 0.000 0.000 0.0074(7)
Zn2 0.0208(7) 0.0208(7) 0.0141(9) 0.000 0.000 0.0104(4)
Mn1 0.024(3) 0.024(3) 0.053(7) 0.000 0.000 0.0122(13)
As1 0.0133(5) 0.0133(5) 0.0108(7) 0.000 0.000 0.0067(3)
As2 0.0202(6) 0.0202(6) 0.0135(8) 0.000 0.000 0.0101(3)
loop_
_atom_type_symbol
_atom_type_description
_atom_type_scat_dispersion_real
_atom_type_scat_dispersion_imag
_atom_type_scat_source
Mn Mn 0.3368 0.7283 'International Tables Vol C Tables 4.2.6.8 and 6.1.1.4'
Zn Zn 0.2839 1.4301 'International Tables Vol C Tables 4.2.6.8 and 6.1.1.4'
As As 0.0499 2.0058 'International Tables Vol C Tables 4.2.6.8 and 6.1.1.4'
La La -0.2871 2.4523 'International Tables Vol C Tables 4.2.6.8 and 6.1.1.4'
loop_
_geom_angle_atom_site_label_1
_geom_angle_atom_site_label_2
_geom_angle_atom_site_label_3
_geom_angle
_geom_angle_site_symmetry_1
_geom_angle_site_symmetry_3
Mn1 La1 Mn1 180.0 7_666 1_445
Mn1 La1 Mn1 100.7(3) 7_666 7_556
Mn1 La1 Mn1 79.3(3) 1_445 7_556
Mn1 La1 Mn1 79.3(3) 7_666 .
Mn1 La1 Mn1 100.7(3) 1_445 .
Mn1 La1 Mn1 180.0 7_556 .
Mn1 La1 Mn1 100.7(3) 7_666 7_566
Mn1 La1 Mn1 79.3(3) 1_445 7_566
Mn1 La1 Mn1 100.7(3) 7_556 7_566
Mn1 La1 Mn1 79.3(3) . 7_566
Mn1 La1 Mn1 79.3(3) 7_666 1_545
Mn1 La1 Mn1 100.7(3) 1_445 1_545
Mn1 La1 Mn1 79.3(3) 7_556 1_545
Mn1 La1 Mn1 100.7(3) . 1_545
Mn1 La1 Mn1 180.0(4) 7_566 1_545
Mn1 La1 As2 128.54(8) 7_666 7_556
Mn1 La1 As2 51.46(8) 1_445 7_556
Mn1 La1 As2 60.7(2) 7_556 7_556
Mn1 La1 As2 119.3(2) . 7_556
Mn1 La1 As2 128.54(8) 7_566 7_556
Mn1 La1 As2 51.46(8) 1_545 7_556
Mn1 La1 As2 60.7(2) 7_666 7_666
Mn1 La1 As2 119.3(2) 1_445 7_666
Mn1 La1 As2 128.54(8) 7_556 7_666
Mn1 La1 As2 51.46(8) . 7_666
Mn1 La1 As2 128.54(8) 7_566 7_666
Mn1 La1 As2 51.46(8) 1_545 7_666
As2 La1 As2 92.53(5) 7_556 7_666
Mn1 La1 As2 119.3(2) 7_666 1_445
Mn1 La1 As2 60.7(2) 1_445 1_445
Mn1 La1 As2 51.46(8) 7_556 1_445
Mn1 La1 As2 128.54(8) . 1_445
Mn1 La1 As2 51.46(8) 7_566 1_445
Mn1 La1 As2 128.54(8) 1_545 1_445
As2 La1 As2 87.47(5) 7_556 1_445
As2 La1 As2 180.0 7_666 1_445
Mn1 La1 As2 51.46(8) 7_666 .
Mn1 La1 As2 128.54(8) 1_445 .
Mn1 La1 As2 119.3(2) 7_556 .
Mn1 La1 As2 60.7(2) . .
Mn1 La1 As2 51.46(8) 7_566 .
Mn1 La1 As2 128.54(8) 1_545 .
As2 La1 As2 180.0 7_556 .
As2 La1 As2 87.47(5) 7_666 .
As2 La1 As2 92.53(5) 1_445 .
Mn1 La1 As2 128.54(8) 7_666 7_566
Mn1 La1 As2 51.46(8) 1_445 7_566
Mn1 La1 As2 128.54(8) 7_556 7_566
Mn1 La1 As2 51.46(8) . 7_566
Mn1 La1 As2 60.7(2) 7_566 7_566
Mn1 La1 As2 119.3(2) 1_545 7_566
As2 La1 As2 92.52(5) 7_556 7_566
As2 La1 As2 92.52(5) 7_666 7_566
As2 La1 As2 87.48(5) 1_445 7_566
As2 La1 As2 87.48(5) . 7_566
Mn1 La1 As2 51.46(8) 7_666 1_545
Mn1 La1 As2 128.54(8) 1_445 1_545
Mn1 La1 As2 51.46(8) 7_556 1_545
Mn1 La1 As2 128.54(8) . 1_545
Mn1 La1 As2 119.3(2) 7_566 1_545
Mn1 La1 As2 60.7(2) 1_545 1_545
As2 La1 As2 87.48(5) 7_556 1_545
As2 La1 As2 87.48(5) 7_666 1_545
As2 La1 As2 92.52(5) 1_445 1_545
As2 La1 As2 92.52(5) . 1_545
As2 La1 As2 180.00(6) 7_566 1_545
As1 La2 As1 87.34(5) 7 7_665
As1 La2 As1 92.66(5) 7 1_445
As1 La2 As1 180.00(5) 7_665 1_445
As1 La2 As1 180.00(5) 7 .
As1 La2 As1 92.66(5) 7_665 .
As1 La2 As1 87.34(5) 1_445 .
As1 La2 As1 87.34(5) 7 7_565
As1 La2 As1 87.34(5) 7_665 7_565
As1 La2 As1 92.66(5) 1_445 7_565
As1 La2 As1 92.66(5) . 7_565
As1 La2 As1 92.66(5) 7 1_545
As1 La2 As1 92.66(5) 7_665 1_545
As1 La2 As1 87.34(5) 1_445 1_545
As1 La2 As1 87.34(5) . 1_545
As1 La2 As1 180.00(5) 7_565 1_545
As1 La2 Zn2 135.76(2) 7 7_666
As1 La2 Zn2 85.78(5) 7_665 7_666
As1 La2 Zn2 94.22(5) 1_445 7_666
As1 La2 Zn2 44.24(2) . 7_666
As1 La2 Zn2 135.76(2) 7_565 7_666
As1 La2 Zn2 44.24(2) 1_545 7_666
As1 La2 Zn2 44.24(2) 7 1_444
As1 La2 Zn2 94.22(5) 7_665 1_444
As1 La2 Zn2 85.78(5) 1_445 1_444
As1 La2 Zn2 135.76(2) . 1_444
As1 La2 Zn2 44.24(2) 7_565 1_444
As1 La2 Zn2 135.76(2) 1_545 1_444
Zn2 La2 Zn2 180.00(5) 7_666 1_444
As1 La2 Zn2 85.78(5) 7 7_556
As1 La2 Zn2 135.76(2) 7_665 7_556
As1 La2 Zn2 44.24(2) 1_445 7_556
As1 La2 Zn2 94.22(5) . 7_556
As1 La2 Zn2 135.76(2) 7_565 7_556
As1 La2 Zn2 44.24(2) 1_545 7_556
Zn2 La2 Zn2 69.78(5) 7_666 7_556
Zn2 La2 Zn2 110.22(5) 1_444 7_556
As1 La2 Zn2 94.22(5) 7 1_554
As1 La2 Zn2 44.24(2) 7_665 1_554
As1 La2 Zn2 135.76(2) 1_445 1_554
As1 La2 Zn2 85.78(5) . 1_554
As1 La2 Zn2 44.24(2) 7_565 1_554
As1 La2 Zn2 135.76(2) 1_545 1_554
Zn2 La2 Zn2 110.22(5) 7_666 1_554
Zn2 La2 Zn2 69.78(5) 1_444 1_554
Zn2 La2 Zn2 180.0 7_556 1_554
As1 La2 Zn2 135.76(2) 7 7_566
As1 La2 Zn2 135.76(2) 7_665 7_566
As1 La2 Zn2 44.24(2) 1_445 7_566
As1 La2 Zn2 44.24(2) . 7_566
As1 La2 Zn2 85.78(5) 7_565 7_566
As1 La2 Zn2 94.22(5) 1_545 7_566
Zn2 La2 Zn2 69.78(5) 7_666 7_566
Zn2 La2 Zn2 110.22(5) 1_444 7_566
Zn2 La2 Zn2 69.78(5) 7_556 7_566
Zn2 La2 Zn2 110.22(5) 1_554 7_566
As1 La2 Zn2 44.24(2) 7 1_544
As1 La2 Zn2 44.24(2) 7_665 1_544
As1 La2 Zn2 135.76(2) 1_445 1_544
As1 La2 Zn2 135.76(2) . 1_544
As1 La2 Zn2 94.22(5) 7_565 1_544
As1 La2 Zn2 85.78(5) 1_545 1_544
Zn2 La2 Zn2 110.22(5) 7_666 1_544
Zn2 La2 Zn2 69.78(5) 1_444 1_544
Zn2 La2 Zn2 110.22(5) 7_556 1_544
Zn2 La2 Zn2 69.78(5) 1_554 1_544
Zn2 La2 Zn2 180.00(5) 7_566 1_544
Mn1 Zn1 As2 74.99(14) . 7_666
Mn1 Zn1 As2 74.99(14) . 7_676
As2 Zn1 As2 113.54(12) 7_666 7_676
Mn1 Zn1 As2 74.99(14) . 7_566
As2 Zn1 As2 113.54(12) 7_666 7_566
As2 Zn1 As2 113.54(12) 7_676 7_566
Mn1 Zn1 As1 180.0 . .
As2 Zn1 As1 105.01(14) 7_666 .
As2 Zn1 As1 105.01(14) 7_676 .
As2 Zn1 As1 105.01(14) 7_566 .
Mn1 Zn1 Zn2 127.75(10) . 7_666
As2 Zn1 Zn2 52.76(8) 7_666 7_666
As2 Zn1 Zn2 122.71(9) 7_676 7_666
As2 Zn1 Zn2 122.71(9) 7_566 7_666
As1 Zn1 Zn2 52.25(10) . 7_666
Mn1 Zn1 Zn2 127.75(10) . 7_566
As2 Zn1 Zn2 122.71(9) 7_666 7_566
As2 Zn1 Zn2 122.71(9) 7_676 7_566
As2 Zn1 Zn2 52.76(8) 7_566 7_566
As1 Zn1 Zn2 52.25(10) . 7_566
Zn2 Zn1 Zn2 86.43(14) 7_666 7_566
Mn1 Zn1 Zn2 127.75(10) . 7_676
As2 Zn1 Zn2 122.71(9) 7_666 7_676
As2 Zn1 Zn2 52.76(8) 7_676 7_676
As2 Zn1 Zn2 122.71(9) 7_566 7_676
As1 Zn1 Zn2 52.25(10) . 7_676
Zn2 Zn1 Zn2 86.43(14) 7_666 7_676
Zn2 Zn1 Zn2 86.43(14) 7_566 7_676
Mn1 Zn1 La1 47.11(8) . 1_665
As2 Zn1 La1 57.99(8) 7_666 1_665
As2 Zn1 La1 57.99(8) 7_676 1_665
As2 Zn1 La1 122.1(2) 7_566 1_665
As1 Zn1 La1 132.89(8) . 1_665
Zn2 Zn1 La1 97.30(4) 7_666 1_665
Zn2 Zn1 La1 174.86(17) 7_566 1_665
Zn2 Zn1 La1 97.30(4) 7_676 1_665
Mn1 Zn1 La1 47.11(8) . 1_565
As2 Zn1 La1 122.1(2) 7_666 1_565
As2 Zn1 La1 57.99(8) 7_676 1_565
As2 Zn1 La1 57.99(8) 7_566 1_565
As1 Zn1 La1 132.89(8) . 1_565
Zn2 Zn1 La1 174.86(17) 7_666 1_565
Zn2 Zn1 La1 97.30(4) 7_566 1_565
Zn2 Zn1 La1 97.30(4) 7_676 1_565
La1 Zn1 La1 78.77(12) 1_665 1_565
Mn1 Zn1 La1 47.11(8) . .
As2 Zn1 La1 57.99(8) 7_666 .
As2 Zn1 La1 122.1(2) 7_676 .
As2 Zn1 La1 57.99(8) 7_566 .
As1 Zn1 La1 132.89(8) . .
Zn2 Zn1 La1 97.30(4) 7_666 .
Zn2 Zn1 La1 97.30(4) 7_566 .
Zn2 Zn1 La1 174.86(17) 7_676 .
La1 Zn1 La1 78.77(12) 1_665 .
La1 Zn1 La1 78.77(12) 1_565 .
As2 Zn2 As1 110.80(6) . 7_666
As2 Zn2 As1 110.80(6) . 7_676
As1 Zn2 As1 108.11(6) 7_666 7_676
As2 Zn2 As1 110.80(6) . 7_566
As1 Zn2 As1 108.11(6) 7_666 7_566
As1 Zn2 As1 108.11(6) 7_676 7_566
As2 Zn2 Zn1 52.25(10) . 7_666
As1 Zn2 Zn1 58.55(10) 7_666 7_666
As1 Zn2 Zn1 125.94(3) 7_676 7_666
As1 Zn2 Zn1 125.94(3) 7_566 7_666
As2 Zn2 Zn1 52.25(10) . 7_566
As1 Zn2 Zn1 125.94(3) 7_666 7_566
As1 Zn2 Zn1 125.94(3) 7_676 7_566
As1 Zn2 Zn1 58.55(10) 7_566 7_566
Zn1 Zn2 Zn1 86.43(14) 7_666 7_566
As2 Zn2 Zn1 52.25(10) . 7_676
As1 Zn2 Zn1 125.94(3) 7_666 7_676
As1 Zn2 Zn1 58.55(10) 7_676 7_676
As1 Zn2 Zn1 125.94(3) 7_566 7_676
Zn1 Zn2 Zn1 86.43(14) 7_666 7_676
Zn1 Zn2 Zn1 86.43(14) 7_566 7_676
As2 Zn2 La2 138.66(3) . 1_666
As1 Zn2 La2 54.88(4) 7_666 1_666
As1 Zn2 La2 54.88(4) 7_676 1_666
As1 Zn2 La2 110.54(8) 7_566 1_666
Zn1 Zn2 La2 101.45(8) 7_666 1_666
Zn1 Zn2 La2 169.09(11) 7_566 1_666
Zn1 Zn2 La2 101.45(8) 7_676 1_666
As2 Zn2 La2 138.66(3) . 1_566
As1 Zn2 La2 110.54(8) 7_666 1_566
As1 Zn2 La2 54.88(4) 7_676 1_566
As1 Zn2 La2 54.88(4) 7_566 1_566
Zn1 Zn2 La2 169.09(11) 7_666 1_566
Zn1 Zn2 La2 101.45(8) 7_566 1_566
Zn1 Zn2 La2 101.45(8) 7_676 1_566
La2 Zn2 La2 69.78(5) 1_666 1_566
As2 Zn2 La2 138.66(3) . 1_556
As1 Zn2 La2 54.88(4) 7_666 1_556
As1 Zn2 La2 110.54(8) 7_676 1_556
As1 Zn2 La2 54.88(4) 7_566 1_556
Zn1 Zn2 La2 101.45(8) 7_666 1_556
Zn1 Zn2 La2 101.45(8) 7_566 1_556
Zn1 Zn2 La2 169.09(11) 7_676 1_556
La2 Zn2 La2 69.78(5) 1_666 1_556
La2 Zn2 La2 69.78(5) 1_566 1_556
Zn1 Mn1 As2 81.6(3) . 7_666
Zn1 Mn1 As2 81.6(3) . 7_566
As2 Mn1 As2 117.93(13) 7_666 7_566
Zn1 Mn1 As2 81.6(3) . 7_676
As2 Mn1 As2 117.93(13) 7_666 7_676
As2 Mn1 As2 117.93(13) 7_566 7_676
Zn1 Mn1 La1 117.2(2) . 1_565
As2 Mn1 La1 161.1(5) 7_666 1_565
As2 Mn1 La1 68.06(7) 7_566 1_565
As2 Mn1 La1 68.06(7) 7_676 1_565
Zn1 Mn1 La1 117.2(2) . 1_665
As2 Mn1 La1 68.06(7) 7_666 1_665
As2 Mn1 La1 161.1(5) 7_566 1_665
As2 Mn1 La1 68.06(7) 7_676 1_665
La1 Mn1 La1 100.7(3) 1_565 1_665
Zn1 Mn1 La1 117.2(2) . .
As2 Mn1 La1 68.06(7) 7_666 .
As2 Mn1 La1 68.06(7) 7_566 .
As2 Mn1 La1 161.1(5) 7_676 .
La1 Mn1 La1 100.7(3) 1_565 .
La1 Mn1 La1 100.7(3) 1_665 .
Zn1 Mn1 As2 180.0 . .
As2 Mn1 As2 98.4(3) 7_666 .
As2 Mn1 As2 98.4(3) 7_566 .
As2 Mn1 As2 98.4(3) 7_676 .
La1 Mn1 As2 62.8(2) 1_565 .
La1 Mn1 As2 62.8(2) 1_665 .
La1 Mn1 As2 62.8(2) . .
Zn2 As1 Zn2 108.12(6) 7_666 7_676
Zn2 As1 Zn2 108.12(6) 7_666 7_566
Zn2 As1 Zn2 108.11(6) 7_676 7_566
Zn2 As1 Zn1 69.20(6) 7_666 .
Zn2 As1 Zn1 69.20(6) 7_676 .
Zn2 As1 Zn1 69.20(6) 7_566 .
Zn2 As1 La2 80.88(4) 7_666 .
Zn2 As1 La2 163.67(8) 7_676 .
Zn2 As1 La2 80.88(4) 7_566 .
Zn1 As1 La2 127.12(3) . .
Zn2 As1 La2 163.67(8) 7_666 1_565
Zn2 As1 La2 80.88(4) 7_676 1_565
Zn2 As1 La2 80.88(4) 7_566 1_565
Zn1 As1 La2 127.12(3) . 1_565
La2 As1 La2 87.34(5) . 1_565
Zn2 As1 La2 80.88(4) 7_666 1_665
Zn2 As1 La2 80.88(4) 7_676 1_665
Zn2 As1 La2 163.67(8) 7_566 1_665
Zn1 As1 La2 127.12(3) . 1_665
La2 As1 La2 87.34(5) . 1_665
La2 As1 La2 87.34(5) 1_565 1_665
Mn1 As2 Mn1 117.93(13) 7_666 7_566
Mn1 As2 Mn1 117.93(13) 7_666 7_676
Mn1 As2 Mn1 117.93(13) 7_566 7_676
Mn1 As2 Zn1 23.4(3) 7_666 7_666
Mn1 As2 Zn1 121.03(6) 7_566 7_666
Mn1 As2 Zn1 121.03(6) 7_676 7_666
Mn1 As2 Zn1 121.03(6) 7_666 7_676
Mn1 As2 Zn1 121.03(6) 7_566 7_676
Mn1 As2 Zn1 23.4(3) 7_676 7_676
Zn1 As2 Zn1 113.54(12) 7_666 7_676
Mn1 As2 Zn1 121.03(6) 7_666 7_566
Mn1 As2 Zn1 23.4(3) 7_566 7_566
Mn1 As2 Zn1 121.03(6) 7_676 7_566
Zn1 As2 Zn1 113.54(12) 7_666 7_566
Zn1 As2 Zn1 113.54(12) 7_676 7_566
Mn1 As2 Zn2 98.4(3) 7_666 .
Mn1 As2 Zn2 98.4(3) 7_566 .
Mn1 As2 Zn2 98.4(3) 7_676 .
Zn1 As2 Zn2 74.99(14) 7_666 .
Zn1 As2 Zn2 74.99(14) 7_676 .
Zn1 As2 Zn2 74.99(14) 7_566 .
Mn1 As2 Mn1 81.6(3) 7_666 .
Mn1 As2 Mn1 81.6(3) 7_566 .
Mn1 As2 Mn1 81.6(3) 7_676 .
Zn1 As2 Mn1 105.01(14) 7_666 .
Zn1 As2 Mn1 105.01(14) 7_676 .
Zn1 As2 Mn1 105.01(14) 7_566 .
Zn2 As2 Mn1 180.0 . .
Mn1 As2 La1 138.2(3) 7_666 1_565
Mn1 As2 La1 60.47(15) 7_566 1_565
Mn1 As2 La1 60.47(15) 7_676 1_565
Zn1 As2 La1 161.55(16) 7_666 1_565
Zn1 As2 La1 74.92(9) 7_676 1_565
Zn1 As2 La1 74.92(9) 7_566 1_565
Zn2 As2 La1 123.46(4) . 1_565
Mn1 As2 La1 56.54(4) . 1_565
Mn1 As2 La1 60.48(15) 7_666 .
Mn1 As2 La1 60.48(15) 7_566 .
Mn1 As2 La1 138.2(3) 7_676 .
Zn1 As2 La1 74.92(9) 7_666 .
Zn1 As2 La1 161.55(16) 7_676 .
Zn1 As2 La1 74.92(9) 7_566 .
Zn2 As2 La1 123.46(4) . .
Mn1 As2 La1 56.54(4) . .
La1 As2 La1 92.52(5) 1_565 .
Mn1 As2 La1 60.48(15) 7_666 1_665
Mn1 As2 La1 138.2(3) 7_566 1_665
Mn1 As2 La1 60.48(15) 7_676 1_665
Zn1 As2 La1 74.92(9) 7_666 1_665
Zn1 As2 La1 74.92(9) 7_676 1_665
Zn1 As2 La1 161.55(16) 7_566 1_665
Zn2 As2 La1 123.46(4) . 1_665
Mn1 As2 La1 56.54(4) . 1_665
La1 As2 La1 92.52(5) 1_565 1_665
La1 As2 La1 92.52(5) . 1_665
loop_
_geom_bond_atom_site_label_1
_geom_bond_atom_site_label_2
_geom_bond_distance
_geom_bond_site_symmetry_2
La1 Mn1 2.700(5) 7_666
La1 Mn1 2.700(5) 1_445
La1 Mn1 2.700(5) 7_556
La1 Mn1 2.700(5) .
La1 Mn1 2.700(5) 7_566
La1 Mn1 2.700(5) 1_545
La1 As2 2.8783(16) 7_556
La1 As2 2.8783(16) 7_666
La1 As2 2.8783(16) 1_445
La1 As2 2.8783(16) .
La1 As2 2.8783(16) 7_566
La1 As2 2.8783(16) 1_545
La2 As1 3.0116(15) 7
La2 As1 3.0116(15) 7_665
La2 As1 3.0116(15) 1_445
La2 As1 3.0116(15) .
La2 As1 3.0116(15) 7_565
La2 As1 3.0116(15) 1_545
La2 Zn2 3.635(2) 7_666
La2 Zn2 3.635(2) 1_444
La2 Zn2 3.635(2) 7_556
La2 Zn2 3.635(2) 1_554
La2 Zn2 3.635(2) 7_566
La2 Zn2 3.635(2) 1_544
Zn1 Mn1 0.996(11) .
Zn1 As2 2.486(2) 7_666
Zn1 As2 2.486(2) 7_676
Zn1 As2 2.486(2) 7_566
Zn1 As1 2.771(6) .
Zn1 Zn2 3.037(4) 7_666
Zn1 Zn2 3.037(4) 7_566
Zn1 Zn2 3.037(4) 7_676
Zn1 La1 3.278(4) 1_665
Zn1 La1 3.278(4) 1_565
Zn2 As2 2.503(3) .
Zn2 As1 2.5686(15) 7_666
Zn2 As1 2.5687(15) 7_676
Zn2 As1 2.5687(15) 7_566
Zn2 Zn1 3.037(4) 7_666
Zn2 Zn1 3.037(4) 7_566
Zn2 Zn1 3.037(4) 7_676
Zn2 La2 3.636(2) 1_666
Zn2 La2 3.636(2) 1_566
Zn2 La2 3.636(2) 1_556
Mn1 As2 2.427(2) 7_666
Mn1 As2 2.427(2) 7_566
Mn1 As2 2.427(2) 7_676
Mn1 La1 2.700(5) 1_565
Mn1 La1 2.700(5) 1_665
Mn1 As2 2.821(11) .
As1 Zn2 2.5686(15) 7_666
As1 Zn2 2.5687(15) 7_676
As1 Zn2 2.5687(15) 7_566
As1 La2 3.0116(15) 1_565
As1 La2 3.0116(15) 1_665
As2 Mn1 2.427(2) 7_666
As2 Mn1 2.427(2) 7_566
As2 Mn1 2.427(2) 7_676
As2 Zn1 2.486(2) 7_666
As2 Zn1 2.486(2) 7_676
As2 Zn1 2.486(2) 7_566
As2 La1 2.8783(16) 1_565
As2 La1 2.8783(16) 1_665
