#------------------------------------------------------------------------------
#$Date: 2016-03-23 23:52:22 +0200 (Wed, 23 Mar 2016) $
#$Revision: 179516 $
#$URL: svn://www.crystallography.net/cod/cif/4/34/13/4341393.cif $
#------------------------------------------------------------------------------
#
# This file is available in the Crystallography Open Database (COD),
# http://www.crystallography.net/
#
# All data on this site have been placed in the public domain by the
# contributors.
#
data_4341393
loop_
_publ_author_name
'Ramachandran, Krishna K.'
'Stoyko, Stanislav S.'
'Mullen, C. Scott'
'Mar, Arthur'
_publ_section_title
;
 Rare-Earth Manganese Copper Phosphides REMnCu4P3 (RE = Gd-Ho): The First
 Quaternary Ordered Variants of the YCo5P3-Type Structure.
;
_journal_issue                   3
_journal_name_full               'Inorganic chemistry'
_journal_page_first              860
_journal_page_last               866
_journal_paper_doi               10.1021/ic502075x
_journal_volume                  54
_journal_year                    2015
_chemical_formula_structural     'Dy Mn Cu4 P3'
_chemical_formula_sum            'Cu4 Dy Mn P3'
_chemical_formula_weight         564.51
_chemical_name_common
'dysprosium manganese copper phosphide (1/1/4/3)'
_chemical_name_systematic
'dysprosium manganese copper phosphide (1/1/4/3)'
_space_group_crystal_system      orthorhombic
_space_group_IT_number           62
_space_group_name_Hall           '-P 2ac 2n'
_space_group_name_H-M_alt        'P n m a'
_symmetry_space_group_name_Hall  '-P 2ac 2n'
_symmetry_space_group_name_H-M   'P n m a'
_atom_sites_solution_primary     direct
_atom_sites_solution_secondary   difmap
_audit_creation_method           SHELXL-2013
_cell_angle_alpha                90
_cell_angle_beta                 90
_cell_angle_gamma                90
_cell_formula_units_Z            4
_cell_length_a                   12.6485(4)
_cell_length_b                   3.78410(10)
_cell_length_c                   10.8680(3)
_cell_measurement_reflns_used    8247
_cell_measurement_temperature    173(2)
_cell_measurement_theta_max      33.12
_cell_measurement_theta_min      2.47
_cell_volume                     520.18(3)
_computing_cell_refinement       'Bruker SAINT 7.68A (Bruker, 2009)'
_computing_data_collection       'Bruker APEX 2 (Bruker, 2008)'
_computing_data_reduction        'Bruker SAINT 7.68A'
_computing_molecular_graphics    'ATOMS 5.1 (Dowty, 1999)'
_computing_publication_material  'Bruker SHELXTL'
_computing_structure_refinement  'Bruker SHELXTL'
_computing_structure_solution    'Bruker SHELXTL'
_diffrn_ambient_temperature      173(2)
_diffrn_measured_fraction_theta_full 1.000
_diffrn_measured_fraction_theta_max 0.990
_diffrn_measurement_device_type  'Bruker PLATFORM/SMART APEX II CCD'
_diffrn_measurement_method       '\w and \f scans'
_diffrn_radiation_type           MoK\a
_diffrn_radiation_wavelength     0.71073
_diffrn_reflns_av_R_equivalents  0.0328
_diffrn_reflns_av_unetI/netI     0.0209
_diffrn_reflns_Laue_measured_fraction_full 1.000
_diffrn_reflns_Laue_measured_fraction_max 0.990
_diffrn_reflns_limit_h_max       19
_diffrn_reflns_limit_h_min       -19
_diffrn_reflns_limit_k_max       5
_diffrn_reflns_limit_k_min       -5
_diffrn_reflns_limit_l_max       16
_diffrn_reflns_limit_l_min       -16
_diffrn_reflns_number            7014
_diffrn_reflns_point_group_measured_fraction_full 1.000
_diffrn_reflns_point_group_measured_fraction_max 0.990
_diffrn_reflns_theta_full        25.242
_diffrn_reflns_theta_max         33.208
_diffrn_reflns_theta_min         2.471
_diffrn_source                   'fine-focus sealed tube'
_exptl_absorpt_coefficient_mu    33.350
_exptl_absorpt_correction_T_max  0.3243
_exptl_absorpt_correction_T_min  0.0293
_exptl_absorpt_correction_type   numerical
_exptl_absorpt_process_details   'Bruker SHELXTL (Sheldrick, 2013)'
_exptl_crystal_colour            black
_exptl_crystal_density_diffrn    7.208
_exptl_crystal_density_method    'not measured'
_exptl_crystal_description       needle
_exptl_crystal_F_000             1008
_exptl_crystal_size_max          0.198
_exptl_crystal_size_mid          0.145
_exptl_crystal_size_min          0.055
_refine_diff_density_max         2.274
_refine_diff_density_min         -3.462
_refine_diff_density_rms         0.929
_refine_ls_extinction_coef       0.0136(5)
_refine_ls_extinction_expression Fc^*^=kFc[1+0.001xFc^2^\l^3^/sin(2\q)]^-1/4^
_refine_ls_extinction_method     SHELXL
_refine_ls_goodness_of_fit_ref   1.168
_refine_ls_hydrogen_treatment    undef
_refine_ls_matrix_type           full
_refine_ls_number_parameters     56
_refine_ls_number_reflns         1115
_refine_ls_number_restraints     0
_refine_ls_restrained_S_all      1.168
_refine_ls_R_factor_all          0.0226
_refine_ls_R_factor_gt           0.0221
_refine_ls_shift/su_max          0.001
_refine_ls_shift/su_mean         0.000
_refine_ls_structure_factor_coef Fsqd
_refine_ls_weighting_details
'w=1/[\s^2^(Fo^2^)+(0.0245P)^2^+2.4645P] where P=(Fo^2^+2Fc^2^)/3'
_refine_ls_weighting_scheme      calc
_refine_ls_wR_factor_gt          0.0509
_refine_ls_wR_factor_ref         0.0512
_reflns_Friedel_coverage         0.000
_reflns_number_gt                1087
_reflns_number_total             1115
_reflns_threshold_expression     'I > 2\s(I)'
_cod_data_source_file            ic502075x_si_002.cif
_cod_data_source_block           DyMnCu4P3
_cod_depositor_comments
'Adding full bibliography for 4341391--4341394.cif.'
_cod_database_code               4341393
#BEGIN Tags that were not found in dictionaries:
_shelx_space_group_comment
;
The symmetry employed for this shelxl refinement is uniquely defined
by the following loop, which should always be used as a source of
symmetry information in preference to the above space-group names.
They are only intended as comments.
;
_shelx_estimated_absorpt_t_min   0.058
_shelx_estimated_absorpt_t_max   0.261
_shelxl_version_number           2013-4
_shelx_res_file
;
TITL DyMnCu4P3 Pnma lsf final refinement
CELL 0.71073  12.64850   3.78410  10.86800  90.0000  90.0000  90.0000
ZERR    4.00   0.00040   0.00010   0.00030   0.0000   0.0000   0.0000
LATT  1
SYMM 0.5-X, -Y, 0.5+Z
SYMM -X, 0.5+Y, -Z
SYMM 0.5+X, 0.5-Y, 0.5-Z
SFAC P MN CU DY
UNIT 12 4 16 4
TEMP -100
SIZE 0.055 0.145 0.198

L.S. 4
ACTA

WGHT    0.024500    2.464500
EXTI    0.013636
FVAR       0.08840
DY    4    0.291228    0.250000    0.920666    10.50000    0.00552    0.00463 =
         0.00503    0.00000    0.00000    0.00000
MN    2    0.018408    0.250000    0.790737    10.50000    0.01537    0.01009 =
         0.01140    0.00000    0.00511    0.00000
CU1   3    0.004967    0.250000    0.411022    10.50000    0.00683    0.00757 =
         0.00742    0.00000    0.00034    0.00000
CU2   3    0.064428    0.250000    0.039973    10.50000    0.00612    0.00615 =
         0.00773    0.00000   -0.00019    0.00000
CU3   3    0.305307    0.250000    0.629220    10.50000    0.00834    0.00619 =
         0.00675    0.00000    0.00066    0.00000
CU4   3    0.321489    0.250000    0.216306    10.50000    0.00722    0.00742 =
         0.00626    0.00000   -0.00023    0.00000
P1    1    0.116057    0.250000    0.593585    10.50000    0.00547    0.00475 =
         0.00479    0.00000    0.00033    0.00000
P2    1    0.129671    0.250000    0.244965    10.50000    0.00543    0.00500 =
         0.00440    0.00000   -0.00034    0.00000
P3    1    0.377797    0.250000    0.421932    10.50000    0.00481    0.00511 =
         0.00467    0.00000   -0.00052    0.00000
HKLF 4

REM  DyMnCu4P3 Pnma lsf final refinement
REM R1 =  0.0221 for    1087 Fo > 4sig(Fo)  and  0.0226 for all    1115 data
REM     56 parameters refined using      0 restraints

END

WGHT      0.0245      2.4645

REM Highest difference peak  2.274,  deepest hole -3.462,  1-sigma level  0.929
Q1    1   0.3196  0.0858  0.9236  11.00000  0.05    2.27
Q2    1   0.2700  0.0791  0.9296  11.00000  0.05    2.04
Q3    1  -0.0083  0.2500  0.7428  10.50000  0.05    1.90
Q4    1   0.0466  0.1160  0.7766  11.00000  0.05    1.63
Q5    1   0.3082  0.0987  0.2182  11.00000  0.05    1.49
Q6    1   0.0918  0.0852  0.0339  11.00000  0.05    1.35
Q7    1   0.2979  0.0935  0.6248  11.00000  0.05    1.30
Q8    1   0.3412  0.0947  0.4325  11.00000  0.05    1.28
Q9    1  -0.0192  0.0702  0.4212  11.00000  0.05    1.26
Q10   1   0.3296  0.1014  0.7139  11.00000  0.05    1.26
Q11   1   0.3812  0.0779  0.9826  11.00000  0.05    1.25
Q12   1   0.0680  0.0782 -0.0660  11.00000  0.05    1.25
Q13   1   0.0118  0.0881  0.4173  11.00000  0.05    1.23
Q14   1   0.3479  0.0895  0.2207  11.00000  0.05    1.23
Q15   1   0.3769  0.0765  0.8489  11.00000  0.05    1.20
Q16   1   0.2751 -0.0751  0.1936  11.00000  0.05    1.19
Q17   1   0.2332 -0.0673  0.9771  11.00000  0.05    1.16
Q18   1   0.0068 -0.0979  0.4014  11.00000  0.05    1.16
Q19   1   0.0703  0.0849  0.1142  11.00000  0.05    1.15
Q20   1   0.0367  0.0914  0.0139  11.00000  0.05    1.12
;
_shelx_res_checksum              12520
_shelx_hkl_file
;
  -2  -1 -16    0.58    0.34
  -1  -1 -16    6.45    0.85
   0  -1 -16    0.35    0.30
  -4   0 -16    5.12    0.51
  -3   0 -16    1.14    0.27
  -2   0 -16   12.79    0.76
  -1   0 -16   73.40    2.67
   0   0 -16   36.05    1.50
   1   0 -16   75.17    3.73
   2   0 -16   13.55    1.10
   3   0 -16    1.36    0.43
  -3   1 -16   58.04    3.07
  -2   1 -16    0.63    0.24
  -1   1 -16    6.00    0.57
   0   1 -16    0.09    0.27
  -3  -2 -15    1.98    0.59
  -2  -2 -15   10.12    0.81
  -1  -2 -15    2.44    0.41
   0  -2 -15    0.33    0.24
   1  -2 -15    2.26    0.39
   2  -2 -15   11.60    1.06
   3  -2 -15    1.33    0.46
   4  -2 -15   21.50    1.56
   5  -2 -15    1.29    0.45
  -7  -1 -15    0.22    0.32
  -6  -1 -15   24.98    1.22
  -5  -1 -15    0.48    0.22
  -4  -1 -15    6.04    0.58
  -3  -1 -15    4.92    0.52
  -2  -1 -15   18.07    0.97
  -1  -1 -15    0.09    0.18
   0  -1 -15   31.09    1.39
   1  -1 -15    0.25    0.20
   2  -1 -15   18.71    1.36
   3  -1 -15    5.09    0.75
   4  -1 -15    5.45    0.75
   5  -1 -15    1.16    0.40
   6  -1 -15   25.53    1.70
   7  -1 -15    0.26    0.28
   8  -1 -15    5.83    0.78
  -7   0 -15   27.21    1.24
  -6   0 -15   52.12    2.76
  -5   0 -15    2.01    0.33
  -4   0 -15   26.71    1.19
  -3   0 -15    1.51    0.30
  -2   0 -15   13.41    0.77
  -1   0 -15    3.41    0.41
   0   0 -15    0.65    0.22
   1   0 -15    3.32    0.40
   2   0 -15   14.37    1.14
   3   0 -15    1.63    0.45
   4   0 -15   25.99    1.69
   5   0 -15    2.56    0.54
   6   0 -15   53.35    2.88
   7   0 -15   29.26    1.84
   8   0 -15   50.94    2.83
  -7   1 -15    0.06    0.26
  -6   1 -15   27.53    1.01
  -5   1 -15    0.72    0.19
  -4   1 -15    6.19    0.46
  -3   1 -15    5.28    0.53
  -2   1 -15   19.86    0.98
  -1   1 -15    0.28    0.20
   0   1 -15   33.35    1.42
   1   1 -15    0.23    0.21
   2   1 -15   17.64    1.36
   3   1 -15    5.63    0.80
   4   1 -15    5.40    0.81
   5   1 -15    0.72    0.38
   6   1 -15   24.06    1.72
   7   1 -15    0.37    0.33
  -5   2 -15    1.71    0.50
  -4   2 -15   23.84    1.63
  -3   2 -15    1.47    0.34
  -2   2 -15   11.89    0.78
  -1   2 -15    2.63    0.41
   0   2 -15   -0.07    0.20
   1   2 -15    1.69    0.51
   2   2 -15   11.98    1.13
  -1  -3 -14    1.07    0.70
   0  -3 -14   -0.25    0.56
   1  -3 -14    2.21    0.85
   2  -3 -14   84.83    5.05
  -7  -2 -14   12.83    1.18
  -6  -2 -14   29.60    1.47
  -5  -2 -14    7.43    0.72
  -4  -2 -14   24.36    1.28
  -3  -2 -14   27.19    1.35
  -2  -2 -14   65.65    3.86
  -1  -2 -14   45.28    1.94
   0  -2 -14   77.29    2.93
   1  -2 -14   47.36    1.94
   2  -2 -14   69.33    2.59
   3  -2 -14   26.28    1.74
   4  -2 -14   26.54    1.71
   5  -2 -14    6.63    0.87
   6  -2 -14   34.09    1.97
  -9  -1 -14   23.49    1.14
  -8  -1 -14   39.12    1.65
  -7  -1 -14   41.60    2.34
  -6  -1 -14   35.56    1.56
  -5  -1 -14   13.01    0.80
  -4  -1 -14   61.18    2.38
  -3  -1 -14  103.47    3.57
  -2  -1 -14  125.59    4.26
  -1  -1 -14    2.80    0.40
   0  -1 -14   -0.01    0.18
   1  -1 -14    2.43    0.37
   2  -1 -14  125.87    4.24
   3  -1 -14  101.34    4.90
   4  -1 -14   68.75    3.34
   5  -1 -14   12.57    1.07
   6  -1 -14   37.28    2.15
   7  -1 -14   42.77    2.35
   8  -1 -14   42.24    2.29
  -9   0 -14   40.46    1.76
  -8   0 -14   12.83    0.62
  -7   0 -14   13.96    0.79
  -6   0 -14   37.89    1.54
  -5   0 -14    8.57    0.59
  -4   0 -14   28.77    1.28
  -3   0 -14   29.85    1.33
  -2   0 -14   75.92    2.74
  -1   0 -14   55.79    2.08
   0   0 -14   96.29    3.33
   1   0 -14   55.82    2.08
   2   0 -14   79.60    2.76
   3   0 -14   31.07    1.91
   4   0 -14   30.61    1.85
   5   0 -14    8.33    0.84
   6   0 -14   37.15    2.19
   7   0 -14   13.42    1.14
   8   0 -14   11.08    1.02
   9   0 -14   39.32    2.38
  -9   1 -14   25.66    1.76
  -8   1 -14   41.16    1.73
  -7   1 -14   41.17    1.75
  -6   1 -14   38.31    1.28
  -5   1 -14   14.28    0.66
  -4   1 -14   64.89    1.96
  -3   1 -14  103.06    2.91
  -2   1 -14  124.05    4.24
  -1   1 -14    2.33    0.36
   0   1 -14    0.30    0.19
   1   1 -14    1.99    0.35
   2   1 -14  124.67    5.90
   3   1 -14  103.85    4.97
   4   1 -14   57.90    3.29
   5   1 -14   14.49    1.20
   6   1 -14   31.59    2.15
   7   1 -14   34.40    2.31
   8   1 -14   33.32    2.26
   9   1 -14   19.22    1.53
  10   1 -14    0.38    0.35
  -8   2 -14    9.63    1.21
  -7   2 -14   12.86    1.25
  -6   2 -14   31.27    2.16
  -5   2 -14    8.22    0.72
  -4   2 -14   24.77    1.26
  -3   2 -14   27.48    1.32
  -2   2 -14   64.13    3.72
  -1   2 -14   46.07    1.92
   0   2 -14   76.72    2.91
   1   2 -14   43.25    1.89
   2   2 -14   59.57    3.52
   3   2 -14   23.90    1.78
   4   2 -14   22.37    1.74
   5   2 -14    6.90    0.99
   6   2 -14   28.31    2.03
   7   2 -14   10.80    1.27
  -3   3 -14   70.17    4.02
  -2   3 -14   78.10    3.17
  -1   3 -14    1.53    0.41
   0   3 -14    0.33    0.43
  -5  -3 -13    1.54    0.49
  -4  -3 -13   12.56    1.60
  -3  -3 -13   99.49    5.40
  -2  -3 -13   18.50    1.73
  -1  -3 -13   60.87    3.65
   0  -3 -13    4.35    0.86
   1  -3 -13   59.96    3.52
   2  -3 -13   19.11    1.56
   3  -3 -13  102.21    5.04
   4  -3 -13   13.23    1.19
   5  -3 -13    0.69    0.39
 -10  -2 -13    2.08    0.58
  -9  -2 -13    9.67    0.83
  -8  -2 -13   12.31    0.84
  -7  -2 -13  118.94    4.30
  -6  -2 -13    5.81    0.66
  -5  -2 -13  134.41    4.98
  -4  -2 -13    1.53    0.37
  -3  -2 -13   16.33    1.01
  -2  -2 -13    2.23    0.42
  -1  -2 -13   42.18    1.88
   0  -2 -13   -0.12    0.20
   1  -2 -13   42.30    1.86
   2  -2 -13    2.42    0.42
   3  -2 -13   17.03    0.97
   4  -2 -13    0.90    0.41
   5  -2 -13  150.05    6.72
   6  -2 -13    5.52    0.76
   7  -2 -13  126.21    5.70
 -11  -1 -13   64.97    3.78
 -10  -1 -13    4.61    0.76
  -9  -1 -13   52.42    3.20
  -8  -1 -13   20.62    1.06
  -7  -1 -13   13.99    0.81
  -6  -1 -13   13.38    0.80
  -5  -1 -13    1.63    0.31
  -4  -1 -13   20.90    1.06
  -3  -1 -13  133.19    4.83
  -2  -1 -13   29.54    1.35
  -1  -1 -13   82.86    3.05
   0  -1 -13    7.55    0.59
   1  -1 -13   86.74    3.06
   2  -1 -13   31.63    1.36
   3  -1 -13  147.10    6.67
   4  -1 -13   22.76    1.49
   5  -1 -13    1.50    0.43
   6  -1 -13   12.90    1.07
   7  -1 -13   11.43    1.05
   8  -1 -13   20.54    1.42
 -11   0 -13    1.74    0.35
 -10   0 -13    3.26    0.44
  -9   0 -13   10.69    0.70
  -8   0 -13   15.08    0.67
  -7   0 -13  132.56    4.61
  -6   0 -13    6.40    0.56
  -5   0 -13  164.57    5.46
  -4   0 -13    1.91    0.31
  -3   0 -13   20.34    0.98
  -2   0 -13    2.89    0.38
  -1   0 -13   55.87    2.09
   0   0 -13    0.13    0.17
   1   0 -13   55.12    2.07
   2   0 -13    3.32    0.40
   3   0 -13   19.13    1.37
   4   0 -13    1.66    0.44
   5   0 -13  162.25    7.55
   6   0 -13    6.07    0.78
   7   0 -13  131.09    6.40
   8   0 -13   12.03    1.09
   9   0 -13    9.58    0.93
 -11   1 -13   71.64    2.79
 -10   1 -13    4.85    0.58
  -9   1 -13   59.85    2.36
  -8   1 -13   22.76    1.15
  -7   1 -13   14.67    0.68
  -6   1 -13   14.65    0.67
  -5   1 -13    1.63    0.25
  -4   1 -13   23.64    0.89
  -3   1 -13  149.32    4.00
  -2   1 -13   31.13    1.11
  -1   1 -13   86.18    3.06
   0   1 -13    6.90    0.61
   1   1 -13   86.73    3.07
   2   1 -13   31.10    1.36
   3   1 -13  136.74    6.71
   4   1 -13   18.52    1.44
   5   1 -13    1.22    0.42
   6   1 -13   11.20    1.10
   7   1 -13   13.77    1.16
   8   1 -13   21.30    1.52
   9   1 -13   58.33    3.12
  10   1 -13    5.50    0.81
  -9   2 -13   11.52    0.91
  -8   2 -13   12.17    0.89
  -7   2 -13  123.75    4.46
  -6   2 -13    5.09    0.63
  -5   2 -13  142.45    4.09
  -4   2 -13    1.67    0.38
  -3   2 -13   16.81    1.00
  -2   2 -13    2.38    0.43
  -1   2 -13   41.27    1.83
   0   2 -13    0.18    0.22
   1   2 -13   39.20    1.79
   2   2 -13    2.42    0.41
   3   2 -13   15.26    1.35
   4   2 -13    1.65    0.53
   5   2 -13  143.71    6.89
   6   2 -13    5.74    0.90
   7   2 -13  123.02    5.90
   8   2 -13   12.99    1.16
   9   2 -13    8.68    1.04
  10   2 -13    3.12    0.62
  -5   3 -13    1.17    0.59
  -4   3 -13   12.75    1.01
  -3   3 -13   96.91    3.78
  -2   3 -13   20.18    1.22
  -1   3 -13   62.86    2.62
   0   3 -13    4.60    0.62
   1   3 -13   65.59    2.58
   2   3 -13   21.40    1.67
   4   3 -13   15.02    1.32
   5   3 -13    0.63    0.40
  -8  -3 -12   36.52    2.53
  -7  -3 -12    0.17    0.41
  -6  -3 -12   65.43    3.83
  -5  -3 -12    2.14    0.64
  -4  -3 -12    2.42    0.70
  -3  -3 -12    1.45    0.59
  -2  -3 -12    3.15    0.79
  -1  -3 -12    0.31    0.42
   0  -3 -12   -0.13    0.37
   1  -3 -12    0.22    0.41
   2  -3 -12    2.17    0.64
   3  -3 -12    0.78    0.45
   4  -3 -12    1.79    0.54
   5  -3 -12    1.91    0.53
 -11  -2 -12    5.86    0.94
 -10  -2 -12   58.00    2.38
  -9  -2 -12    0.05    0.25
  -8  -2 -12   72.80    2.90
  -7  -2 -12   10.30    0.91
  -6  -2 -12    0.52    0.30
  -5  -2 -12    2.54    0.49
  -4  -2 -12    2.05    0.45
  -3  -2 -12    0.10    0.25
  -2  -2 -12   27.18    1.46
  -1  -2 -12    0.87    0.42
   0  -2 -12   27.17    1.84
   1  -2 -12    1.43    0.46
   2  -2 -12   28.05    1.82
   3  -2 -12   -0.09    0.24
   4  -2 -12    1.98    0.50
   5  -2 -12    2.93    0.58
   6  -2 -12    0.59    0.35
   7  -2 -12    9.86    0.93
 -12  -1 -12   27.49    1.36
 -11  -1 -12    6.69    0.63
 -10  -1 -12   27.25    1.98
  -9  -1 -12   16.99    0.94
  -8  -1 -12   46.54    1.98
  -7  -1 -12    0.15    0.18
  -6  -1 -12   87.81    3.31
  -5  -1 -12    2.84    0.40
  -4  -1 -12    4.65    0.51
  -3  -1 -12    2.90    0.39
  -2  -1 -12    3.96    0.46
  -1  -1 -12    0.03    0.16
   0  -1 -12    0.12    0.18
   1  -1 -12    0.22    0.18
   2  -1 -12    4.46    0.48
   3  -1 -12    2.94    0.40
   4  -1 -12    5.70    0.74
   5  -1 -12    3.75    0.61
   6  -1 -12   90.36    4.53
   7  -1 -12    0.13    0.26
   8  -1 -12   48.78    2.71
 -13   0 -12   17.28    1.40
 -12   0 -12   95.80    3.50
 -11   0 -12    7.18    0.66
 -10   0 -12   65.64    2.58
  -9   0 -12   -0.17    0.14
  -8   0 -12   92.16    2.64
  -7   0 -12   11.87    0.71
  -6   0 -12    0.66    0.22
  -5   0 -12    4.13    0.44
  -4   0 -12    3.08    0.38
  -3   0 -12    0.23    0.16
  -2   0 -12   33.71    1.39
  -1   0 -12    1.03    0.25
   0   0 -12   31.31    1.33
   1   0 -12    1.77    0.28
   2   0 -12   32.64    1.38
   3   0 -12    0.12    0.16
   4   0 -12    2.79    0.53
   5   0 -12    3.51    0.59
   6   0 -12    0.43    0.29
   7   0 -12   10.52    0.97
   8   0 -12   76.16    4.33
   9   0 -12    0.33    0.30
 -12   1 -12   33.41    1.55
 -11   1 -12    7.68    0.76
 -10   1 -12   36.18    1.59
  -9   1 -12   19.30    1.07
  -8   1 -12   51.73    2.16
  -7   1 -12    0.35    0.18
  -6   1 -12  100.12    2.78
  -5   1 -12    3.20    0.35
  -4   1 -12    6.26    0.47
  -3   1 -12    2.80    0.32
  -2   1 -12    4.86    0.51
  -1   1 -12    0.52    0.21
   0   1 -12    0.54    0.21
   1   1 -12    0.12    0.18
   2   1 -12    4.12    0.47
   3   1 -12    2.47    0.36
   4   1 -12    3.98    0.68
   5   1 -12    3.72    0.64
   6   1 -12   82.12    4.58
   7   1 -12    0.36    0.32
   8   1 -12   55.95    2.87
   9   1 -12   18.51    1.32
  10   1 -12   33.73    1.92
 -11   2 -12    6.29    0.78
 -10   2 -12   56.19    2.51
  -9   2 -12    0.16    0.28
  -8   2 -12   71.18    2.98
  -7   2 -12    9.88    0.91
  -6   2 -12    0.59    0.25
  -5   2 -12    2.99    0.41
  -4   2 -12    2.32    0.37
  -3   2 -12    0.06    0.23
  -2   2 -12   25.79    1.37
  -1   2 -12    1.11    0.33
   0   2 -12   26.60    1.35
   1   2 -12    0.64    0.27
   2   2 -12   31.85    1.39
   3   2 -12    0.00    0.29
   4   2 -12    1.86    0.52
   5   2 -12    2.77    0.60
   6   2 -12    0.08    0.26
   7   2 -12   10.80    1.00
   8   2 -12   75.83    3.75
   9   2 -12    0.07    0.25
  10   2 -12   60.44    3.06
  11   2 -12    6.88    0.83
  -9   3 -12   11.37    1.49
  -7   3 -12    0.65    0.54
  -6   3 -12   62.86    4.09
  -5   3 -12    2.82    0.76
  -4   3 -12    1.41    0.39
  -3   3 -12    2.24    0.44
  -2   3 -12    4.35    0.57
  -1   3 -12    0.68    0.29
   0   3 -12    0.26    0.24
   1   3 -12    0.40    0.26
   2   3 -12    3.70    0.49
   3   3 -12    1.50    0.48
   4   3 -12    1.43    0.48
   5   3 -12    2.40    0.57
   6   3 -12   70.69    3.61
   7   3 -12    0.38    0.33
   8   3 -12   40.98    2.31
  -2   4 -12   24.42    1.80
   0   4 -12   21.92    1.67
   1   4 -12    1.24    0.48
  -3  -4 -11    1.08    0.51
  -2  -4 -11   14.70    1.40
  -1  -4 -11   54.62    3.34
   0  -4 -11    0.38    0.43
   1  -4 -11   54.38    3.36
   2  -4 -11   14.46    1.46
   3  -4 -11    1.53    0.63
   4  -4 -11   39.41    2.56
 -10  -3 -11    8.23    1.14
  -9  -3 -11   40.05    2.51
  -8  -3 -11   65.22    3.70
  -7  -3 -11    5.32    0.89
  -6  -3 -11    1.83    0.59
  -5  -3 -11    1.83    0.57
  -4  -3 -11   10.86    1.28
  -3  -3 -11  115.09    5.86
  -2  -3 -11   57.13    3.31
  -1  -3 -11   11.03    1.31
   0  -3 -11    7.60    1.10
   1  -3 -11   11.92    1.40
   2  -3 -11   57.33    3.44
   3  -3 -11  116.76    5.95
   4  -3 -11   10.90    1.28
   5  -3 -11    0.90    0.44
 -12  -2 -11    5.44    0.88
 -11  -2 -11    0.24    0.34
 -10  -2 -11   24.84    1.34
  -9  -2 -11   60.09    2.51
  -8  -2 -11    3.11    0.52
  -7  -2 -11   50.05    2.89
  -6  -2 -11   45.59    2.10
  -5  -2 -11   78.62    3.17
  -4  -2 -11   52.34    3.01
  -3  -2 -11    0.50    0.39
  -2  -2 -11   23.21    1.82
  -1  -2 -11   98.82    5.09
   0  -2 -11   -0.03    0.30
   1  -2 -11   97.84    4.94
   2  -2 -11   23.15    1.65
   3  -2 -11    0.75    0.36
   4  -2 -11   52.28    2.77
   5  -2 -11   84.50    4.00
   6  -2 -11   46.94    2.58
   7  -2 -11   47.35    2.57
 -14  -1 -11   14.41    1.29
 -13  -1 -11   37.64    1.69
 -12  -1 -11    4.18    0.50
 -11  -1 -11   44.89    2.75
 -10  -1 -11   10.14    0.68
  -9  -1 -11   54.24    2.14
  -8  -1 -11   91.63    3.44
  -7  -1 -11    5.37    0.55
  -6  -1 -11    3.58    0.46
  -5  -1 -11    1.82    0.34
  -4  -1 -11   14.73    0.86
  -3  -1 -11  167.98    5.80
  -2  -1 -11   82.20    3.04
  -1  -1 -11   14.63    0.83
   0  -1 -11   11.95    0.72
   1  -1 -11   15.37    0.83
   2  -1 -11   87.25    3.04
   3  -1 -11  182.58    5.79
   4  -1 -11   16.34    0.85
   5  -1 -11    2.42    0.49
   6  -1 -11    3.39    0.59
   7  -1 -11    4.67    0.66
   8  -1 -11   92.58    4.64
  13  -1 -11   38.64    3.10
  14  -1 -11   15.93    1.83
 -14   0 -11    0.27    0.35
 -13   0 -11    0.25    0.23
 -12   0 -11    7.88    0.71
 -11   0 -11    0.45    0.24
 -10   0 -11   29.31    1.38
  -9   0 -11   76.90    2.91
  -8   0 -11    3.57    0.42
  -7   0 -11   57.88    2.12
  -6   0 -11   57.46    2.16
  -5   0 -11  103.25    3.59
  -4   0 -11   61.99    2.29
  -3   0 -11    0.97    0.20
  -2   0 -11   31.05    1.32
  -1   0 -11  136.37    4.52
   0   0 -11    2.03    0.26
   1   0 -11  138.01    4.53
   2   0 -11   31.55    1.32
   3   0 -11    0.46    0.19
   4   0 -11   62.14    2.27
   5   0 -11   93.93    4.94
   6   0 -11   51.77    2.95
   7   0 -11   48.76    2.86
   8   0 -11    4.67    0.67
   9   0 -11   78.47    3.80
  10   0 -11   31.00    1.75
  14   0 -11    0.60    0.51
 -14   1 -11   16.86    1.52
 -13   1 -11   38.37    1.82
 -12   1 -11    3.75    0.55
 -11   1 -11   50.35    2.13
 -10   1 -11   11.34    0.86
  -9   1 -11   56.82    2.34
  -8   1 -11  102.29    3.71
  -7   1 -11    6.28    0.49
  -6   1 -11    4.18    0.41
  -5   1 -11    2.44    0.31
  -4   1 -11   16.82    0.74
  -3   1 -11  181.63    4.80
  -2   1 -11   86.88    3.06
  -1   1 -11   15.00    0.84
   0   1 -11   10.50    0.68
   1   1 -11   12.90    0.79
   2   1 -11   75.98    2.99
   3   1 -11  147.31    5.71
   4   1 -11   13.46    1.18
   5   1 -11    2.66    0.54
   6   1 -11    3.93    0.66
   7   1 -11    6.20    0.79
   8   1 -11  100.64    4.70
   9   1 -11   58.48    2.88
  10   1 -11   10.64    0.87
  11   1 -11   45.29    2.44
 -12   2 -11    5.56    0.72
 -11   2 -11    0.42    0.31
 -10   2 -11   24.02    1.40
  -9   2 -11   55.23    2.57
  -8   2 -11    3.08    0.54
  -7   2 -11   41.34    2.08
  -6   2 -11   43.40    1.64
  -5   2 -11   73.99    2.49
  -4   2 -11   47.95    1.74
  -3   2 -11    0.54    0.23
  -2   2 -11   26.36    1.30
  -1   2 -11  100.55    3.60
   0   2 -11   -0.03    0.18
   1   2 -11  103.65    3.54
   2   2 -11   25.99    1.18
   3   2 -11    0.20    0.18
   4   2 -11   51.17    2.76
   5   2 -11   83.71    4.01
   6   2 -11   49.94    2.61
   7   2 -11   53.72    2.63
   8   2 -11    3.49    0.57
   9   2 -11   65.32    3.13
  10   2 -11   25.16    1.53
  11   2 -11    0.11    0.22
  12   2 -11    5.73    0.69
 -10   3 -11    7.02    1.15
  -9   3 -11   35.61    1.84
  -8   3 -11   62.54    2.78
  -7   3 -11    4.26    0.61
  -6   3 -11    2.40    0.69
  -5   3 -11    2.04    0.62
  -4   3 -11   12.33    0.81
  -3   3 -11  120.00    4.19
  -2   3 -11   59.58    2.32
  -1   3 -11   13.55    0.82
   0   3 -11    9.68    0.66
   1   3 -11   12.08    0.75
   2   3 -11   60.28    2.23
   3   3 -11  121.82    4.06
   4   3 -11   11.99    1.04
   5   3 -11    2.42    0.51
   6   3 -11    2.20    0.50
   7   3 -11    3.94    0.64
   8   3 -11   68.42    3.44
   9   3 -11   36.35    2.16
  10   3 -11    8.00    0.90
  -4   4 -11   32.79    2.26
  -3   4 -11    1.10    0.49
  -2   4 -11   14.85    0.93
  -1   4 -11   58.57    2.31
   0   4 -11   -0.06    0.19
   1   4 -11   59.16    2.28
   2   4 -11   15.69    0.89
   3   4 -11    1.36    0.46
  -6  -4 -10   23.26    1.71
  -5  -4 -10    0.52    0.37
  -4  -4 -10   14.30    1.32
  -3  -4 -10   28.94    2.04
  -2  -4 -10   -0.03    0.32
  -1  -4 -10  188.57    9.12
   0  -4 -10   22.68    1.71
   1  -4 -10  191.47    9.16
   2  -4 -10    0.56    0.40
   3  -4 -10   34.43    2.23
   4  -4 -10   16.02    1.49
 -11  -3 -10    0.34    0.29
 -10  -3 -10   10.32    1.20
  -9  -3 -10   35.96    2.27
  -8  -3 -10    5.37    0.83
  -7  -3 -10   79.71    4.12
  -6  -3 -10    4.16    0.72
  -5  -3 -10  144.50    6.80
  -4  -3 -10    4.40    0.75
  -3  -3 -10  191.20    9.28
  -2  -3 -10   15.37    1.27
  -1  -3 -10   11.59    1.14
   0  -3 -10   -0.21    0.19
   1  -3 -10   13.35    1.22
   2  -3 -10   15.51    1.32
   3  -3 -10  201.54    9.50
   4  -3 -10    5.07    0.94
   5  -3 -10  139.53    6.86
   6  -3 -10    4.46    0.76
   7  -3 -10   87.66    5.66
   8  -3 -10    5.91    1.38
   9  -3 -10   38.65    3.35
  10  -3 -10   10.40    1.90
  11  -3 -10    0.32    0.72
 -14  -2 -10    1.12    0.45
 -13  -2 -10   77.60    2.88
 -12  -2 -10    1.11    0.46
 -11  -2 -10   72.90    2.79
 -10  -2 -10   51.64    2.11
  -9  -2 -10  116.37    4.11
  -8  -2 -10   17.42    1.06
  -7  -2 -10   46.62    2.09
  -6  -2 -10   44.33    2.50
  -5  -2 -10    0.27    0.31
  -4  -2 -10   29.28    1.94
  -3  -2 -10   47.12    2.85
  -2  -2 -10    0.38    0.30
  -1  -2 -10  313.62   14.52
   0  -2 -10   42.47    2.59
   1  -2 -10  311.64   14.59
   2  -2 -10    0.16    0.32
   3  -2 -10   51.27    2.86
   4  -2 -10   28.51    1.87
   5  -2 -10    0.29    0.29
   6  -2 -10   42.65    2.32
   7  -2 -10   50.97    2.12
   8  -2 -10   18.55    1.97
   9  -2 -10  117.99    7.35
  10  -2 -10   50.39    3.91
  11  -2 -10   76.97    5.28
  12  -2 -10   -0.29    0.56
 -14  -1 -10   20.23    1.11
 -13  -1 -10   88.45    3.29
 -12  -1 -10   34.91    1.57
 -11  -1 -10    0.41    0.32
 -10  -1 -10   16.00    0.90
  -9  -1 -10   46.57    1.91
  -8  -1 -10    8.80    0.64
  -7  -1 -10  105.81    3.84
  -6  -1 -10    5.32    0.56
  -5  -1 -10  204.85    7.16
  -4  -1 -10    7.12    0.65
  -3  -1 -10  294.59   10.00
  -2  -1 -10   22.73    1.13
  -1  -1 -10   20.58    1.03
   0  -1 -10    0.13    0.19
   1  -1 -10   20.88    1.03
   2  -1 -10   22.73    1.10
   3  -1 -10  309.30    9.96
   4  -1 -10    7.79    0.57
   5  -1 -10  219.74    9.75
   6  -1 -10    5.00    0.69
   7  -1 -10  106.60    4.08
   8  -1 -10    8.72    0.70
   9  -1 -10   54.16    3.60
  10  -1 -10   17.43    1.78
  11  -1 -10    0.26    0.49
  12  -1 -10   33.72    2.91
  14  -1 -10   23.42    2.25
  15  -1 -10   13.02    1.95
 -15   0 -10    1.81    0.59
 -14   0 -10    1.05    0.34
 -13   0 -10   90.01    3.31
 -12   0 -10    0.41    0.23
 -11   0 -10   87.76    3.17
 -10   0 -10   62.87    2.44
  -9   0 -10  153.89    4.18
  -8   0 -10   24.73    1.10
  -7   0 -10   62.55    2.31
  -6   0 -10   58.00    2.13
  -4   0 -10   41.70    1.66
  -3   0 -10   63.09    2.32
  -2   0 -10    0.26    0.17
  -1   0 -10  412.36   13.14
   0   0 -10   58.83    2.12
   1   0 -10  400.88   13.12
   2   0 -10    0.40    0.19
   3   0 -10   62.91    2.30
   4   0 -10   40.58    1.63
   5   0 -10    0.42    0.27
   6   0 -10   48.00    2.87
   7   0 -10   59.91    3.18
   8   0 -10   24.91    1.21
   9   0 -10  152.69    5.37
  10   0 -10   61.58    2.40
  11   0 -10   75.39    5.18
  12   0 -10    0.92    0.53
  13   0 -10   81.65    5.51
  14   0 -10    1.36    0.65
  15   0 -10    2.67    0.84
 -14   1 -10   20.56    1.21
 -13   1 -10   91.19    3.46
 -12   1 -10   31.88    1.65
 -11   1 -10    0.36    0.26
 -10   1 -10   15.26    1.00
  -9   1 -10   44.98    2.05
  -8   1 -10    8.76    0.81
  -7   1 -10  112.39    3.20
  -6   1 -10    5.91    0.48
  -5   1 -10  217.59    5.94
  -4   1 -10    7.94    0.54
  -3   1 -10  305.94    8.26
  -2   1 -10   22.26    1.11
  -1   1 -10   19.81    1.01
   0   1 -10   -0.03    0.17
   1   1 -10   16.92    0.96
   2   1 -10   21.95    1.08
   3   1 -10  323.68    9.99
   4   1 -10    8.19    0.58
   5   1 -10  219.41    9.77
   6   1 -10    5.55    0.72
   7   1 -10  111.99    5.13
   8   1 -10    9.52    0.79
   9   1 -10   47.05    1.93
  10   1 -10   16.66    0.88
  11   1 -10    0.20    0.18
  12   1 -10   33.43    2.64
  13   1 -10   81.28    5.50
  14   1 -10   19.30    1.96
  15   1 -10   13.43    1.59
 -14   2 -10    0.39    0.48
 -13   2 -10   66.94    2.97
 -12   2 -10    0.72    0.33
 -11   2 -10   64.89    2.87
 -10   2 -10   45.25    2.14
  -9   2 -10  102.22    4.19
  -8   2 -10   16.27    1.05
  -7   2 -10   43.72    2.06
  -6   2 -10   40.07    1.46
  -5   2 -10    0.52    0.22
  -4   2 -10   31.06    1.18
  -3   2 -10   53.80    1.72
  -2   2 -10    0.40    0.17
  -1   2 -10  331.14   10.47
   0   2 -10   45.21    1.74
   1   2 -10  336.67   10.41
   2   2 -10    0.27    0.17
   3   2 -10   51.81    1.93
   4   2 -10   32.20    1.26
   5   2 -10    1.22    0.35
   6   2 -10   40.65    2.23
   7   2 -10   48.01    2.50
   8   2 -10   16.68    1.15
   9   2 -10  115.78    5.23
  10   2 -10   48.84    1.98
  11   2 -10   70.44    2.71
  12   2 -10    0.29    0.20
  13   2 -10   66.63    4.71
  14   2 -10    0.81    0.55
 -11   3 -10    0.34    0.29
 -10   3 -10   10.27    0.93
  -9   3 -10   34.06    1.72
  -8   3 -10    6.85    0.73
  -7   3 -10   80.47    3.12
  -6   3 -10    4.08    0.55
  -5   3 -10  143.24    7.22
  -4   3 -10    5.53    0.56
  -3   3 -10  205.25    6.70
  -2   3 -10   16.19    0.85
  -1   3 -10   13.52    0.77
   0   3 -10    0.15    0.15
   1   3 -10   14.19    0.76
   2   3 -10   13.79    0.76
   3   3 -10  209.64    6.60
   4   3 -10    5.29    0.69
   5   3 -10  145.07    6.58
   6   3 -10    4.83    0.64
   7   3 -10   82.00    3.90
   8   3 -10    6.09    0.73
   9   3 -10   34.98    2.02
  10   3 -10   10.41    0.89
  11   3 -10    0.19    0.24
  -6   4 -10   23.57    1.80
  -5   4 -10    0.30    0.34
  -4   4 -10   17.22    1.40
  -3   4 -10   31.94    1.42
  -2   4 -10    0.13    0.19
  -1   4 -10  200.52    6.51
   0   4 -10   23.32    1.12
   1   4 -10  198.48    6.47
   2   4 -10    0.12    0.18
   3   4 -10   30.99    1.34
   4   4 -10   17.95    1.28
   5   4 -10    0.53    0.31
   6   4 -10   21.19    1.50
  -8  -4  -9   44.10    2.57
  -7  -4  -9    1.13    0.44
  -6  -4  -9   61.27    3.35
  -5  -4  -9    8.53    1.03
  -4  -4  -9   48.75    2.77
  -3  -4  -9   -0.01    0.28
  -2  -4  -9   18.54    1.43
  -1  -4  -9    3.83    0.68
   0  -4  -9    0.22    0.29
   1  -4  -9    3.94    0.71
   2  -4  -9   18.96    1.47
   3  -4  -9    0.44    0.31
   4  -4  -9   47.89    2.30
   5  -4  -9   10.68    1.85
   6  -4  -9   66.12    4.89
   7  -4  -9    2.14    1.08
   8  -4  -9   49.00    4.09
   9  -4  -9   14.56    2.43
 -13  -3  -9   32.48    2.43
 -12  -3  -9   99.02    4.95
 -11  -3  -9    1.11    0.44
 -10  -3  -9    1.35    0.46
  -9  -3  -9   12.78    1.10
  -8  -3  -9   18.42    1.36
  -7  -3  -9    2.80    0.57
  -6  -3  -9   40.73    2.38
  -5  -3  -9   14.29    1.15
  -4  -3  -9    1.65    0.44
  -3  -3  -9    0.68    0.33
  -2  -3  -9   29.83    1.91
  -1  -3  -9    3.18    0.59
   0  -3  -9   71.34    3.70
   1  -3  -9    2.47    0.54
   2  -3  -9   32.99    1.57
   3  -3  -9    0.11    0.24
   4  -3  -9    1.85    0.44
   5  -3  -9   15.87    1.12
   6  -3  -9   45.91    2.10
   7  -3  -9    3.28    1.06
   8  -3  -9   20.55    2.27
   9  -3  -9   13.15    2.12
  10  -3  -9    1.49    0.88
  11  -3  -9    1.33    0.88
  12  -3  -9   92.80    6.92
 -14  -2  -9    8.70    1.06
 -13  -2  -9    1.70    0.37
 -12  -2  -9    4.03    0.79
 -11  -2  -9    4.88    0.59
 -10  -2  -9   16.48    0.98
  -9  -2  -9   22.95    1.24
  -8  -2  -9   65.18    3.29
  -7  -2  -9    1.73    0.46
  -6  -2  -9   93.37    4.67
  -5  -2  -9   19.89    1.38
  -4  -2  -9   73.72    3.88
  -3  -2  -9    0.80    0.34
  -2  -2  -9   38.58    2.39
  -1  -2  -9    6.48    0.86
   0  -2  -9    0.16    0.24
   1  -2  -9    7.64    0.97
   2  -2  -9   43.71    2.58
   3  -2  -9    0.83    0.32
   4  -2  -9   79.22    3.13
   5  -2  -9   20.21    1.13
   6  -2  -9  104.88    3.76
   7  -2  -9    2.47    0.43
   8  -2  -9   63.89    4.52
   9  -2  -9   25.62    2.43
  10  -2  -9   18.01    2.07
  11  -2  -9    5.25    1.34
  12  -2  -9    4.66    1.29
  13  -2  -9    1.97    0.99
  14  -2  -9    8.65    1.78
 -15  -1  -9    3.06    0.64
 -14  -1  -9   62.00    2.44
 -13  -1  -9   48.03    1.99
 -12  -1  -9  135.83    4.72
 -11  -1  -9    2.39    0.54
 -10  -1  -9    0.82    0.28
  -9  -1  -9   19.81    1.05
  -8  -1  -9   27.97    1.32
  -7  -1  -9    6.23    0.62
  -6  -1  -9   71.04    2.73
  -5  -1  -9   22.84    1.19
  -4  -1  -9    1.87    0.37
  -3  -1  -9    0.06    0.20
  -2  -1  -9   38.64    1.77
  -1  -1  -9    3.48    0.48
   0  -1  -9  101.52    4.86
   1  -1  -9    5.25    0.70
   2  -1  -9   41.92    2.31
   3  -1  -9    0.20    0.20
   4  -1  -9    1.97    0.29
   5  -1  -9   24.62    0.98
   6  -1  -9   74.28    2.85
   7  -1  -9    5.73    0.60
   8  -1  -9   25.09    1.32
   9  -1  -9   22.73    2.11
  10  -1  -9    2.08    0.82
  11  -1  -9    1.79    0.73
  13  -1  -9   46.67    3.75
  14  -1  -9   65.60    4.65
  15  -1  -9    2.49    0.91
 -16   0  -9   34.73    2.42
 -15   0  -9    1.55    0.52
 -14   0  -9   11.58    0.82
 -13   0  -9    2.02    0.39
 -12   0  -9    4.44    0.54
 -11   0  -9    6.78    0.65
 -10   0  -9   17.40    0.99
  -9   0  -9   32.63    1.15
  -8   0  -9   81.22    2.87
  -7   0  -9    2.94    0.36
  -6   0  -9  115.15    3.91
  -5   0  -9   24.65    1.10
  -4   0  -9   98.54    3.34
  -3   0  -9    2.28    0.30
  -2   0  -9   60.84    2.25
  -1   0  -9   11.08    0.64
   0   0  -9    1.01    0.19
   1   0  -9   11.01    0.64
   2   0  -9   60.79    2.23
   3   0  -9    1.34    0.27
   4   0  -9   90.14    2.80
   5   0  -9   22.79    0.90
   6   0  -9  113.04    4.18
   7   0  -9    2.43    0.38
   8   0  -9   81.80    3.07
   9   0  -9   33.29    1.43
  10   0  -9   18.74    0.92
  11   0  -9    7.20    1.20
  12   0  -9    4.15    0.99
  13   0  -9    2.67    0.82
  14   0  -9    8.68    1.48
  15   0  -9    1.60    0.70
  16   0  -9   37.87    3.12
 -15   1  -9    2.25    0.39
 -14   1  -9   56.99    2.51
 -13   1  -9   47.14    2.09
 -12   1  -9  126.93    4.82
 -11   1  -9    0.78    0.30
 -10   1  -9    0.94    0.32
  -9   1  -9   19.67    1.14
  -8   1  -9   27.05    1.39
  -7   1  -9    6.25    0.51
  -6   1  -9   70.34    2.23
  -5   1  -9   23.52    0.97
  -4   1  -9    2.10    0.30
  -3   1  -9    0.02    0.15
  -2   1  -9   38.62    1.72
  -1   1  -9    3.80    0.47
   0   1  -9   93.15    3.54
   1   1  -9    3.63    0.46
   2   1  -9   46.01    1.70
   3   1  -9   -0.04    0.14
   4   1  -9    2.39    0.30
   5   1  -9   24.97    1.11
   6   1  -9   71.94    2.71
   7   1  -9    5.94    0.48
   8   1  -9   27.57    1.23
   9   1  -9   19.70    0.97
  10   1  -9    1.31    0.25
  11   1  -9    1.38    0.26
  12   1  -9  127.63    7.93
  13   1  -9   43.32    3.41
  14   1  -9   56.41    4.19
  15   1  -9    1.19    0.66
 -14   2  -9    7.04    0.59
 -13   2  -9    1.30    0.28
 -12   2  -9    3.60    0.55
 -11   2  -9    6.02    0.68
 -10   2  -9   15.08    0.98
  -9   2  -9   21.73    1.22
  -8   2  -9   61.24    2.52
  -7   2  -9    2.06    0.38
  -6   2  -9   95.67    2.82
  -5   2  -9   20.24    0.83
  -4   2  -9   78.29    2.34
  -3   2  -9    0.72    0.18
  -2   2  -9   44.09    1.41
  -1   2  -9    8.87    0.44
   0   2  -9   -0.06    0.12
   1   2  -9    6.88    0.51
   2   2  -9   43.22    1.63
   3   2  -9    0.89    0.19
   4   2  -9   80.34    2.67
   5   2  -9   17.92    0.91
   6   2  -9   93.62    3.49
   7   2  -9    1.69    0.28
   8   2  -9   59.34    2.37
   9   2  -9   23.53    1.10
  10   2  -9   14.77    0.83
  11   2  -9    4.83    0.49
  12   2  -9    3.34    0.41
  13   2  -9    1.54    0.65
  14   2  -9    7.74    1.36
 -12   3  -9   98.50    3.78
 -11   3  -9    1.33    0.37
 -10   3  -9    2.33    0.43
  -9   3  -9   13.38    0.87
  -8   3  -9   18.96    1.06
  -7   3  -9    3.30    0.46
  -6   3  -9   43.10    1.79
  -5   3  -9   14.86    0.66
  -4   3  -9    2.05    0.26
  -3   3  -9    0.26    0.17
  -2   3  -9   32.91    1.33
  -1   3  -9    2.54    0.32
   0   3  -9   72.61    2.56
   1   3  -9    2.69    0.33
   2   3  -9   30.61    1.26
   3   3  -9    0.03    0.11
   4   3  -9    2.07    0.27
   5   3  -9   13.51    1.01
   6   3  -9   40.40    2.20
   7   3  -9    2.44    0.44
   8   3  -9   16.94    0.94
   9   3  -9   11.46    0.74
  10   3  -9    1.79    0.33
  11   3  -9    0.98    0.25
  12   3  -9   96.57    3.70
  13   3  -9   32.54    1.84
  -9   4  -9   13.46    1.31
  -8   4  -9   45.16    2.77
  -7   4  -9    1.13    0.44
  -6   4  -9   63.35    3.54
  -5   4  -9    9.46    0.98
  -4   4  -9   47.71    2.82
  -3   4  -9    0.15    0.18
  -2   4  -9   19.22    0.96
  -1   4  -9    3.97    0.44
   0   4  -9    0.02    0.15
   1   4  -9    3.75    0.42
   2   4  -9   19.95    0.94
   3   4  -9    0.06    0.15
   4   4  -9   50.21    2.60
   5   4  -9   11.91    0.93
   6   4  -9   61.89    3.17
   7   4  -9    1.58    0.40
   8   4  -9   39.58    2.31
   0  -5  -8    0.09    0.31
   1  -5  -8   13.01    1.01
   2  -5  -8    5.92    0.75
   3  -5  -8   72.65    5.35
 -10  -4  -8    7.91    0.97
  -9  -4  -8    5.82    0.82
  -8  -4  -8    0.97    0.38
  -7  -4  -8    6.32    0.84
  -6  -4  -8    1.19    0.40
  -5  -4  -8   57.21    3.09
  -4  -4  -8   19.26    1.38
  -3  -4  -8    3.09    0.58
  -2  -4  -8    0.41    0.26
  -1  -4  -8   31.22    1.53
   0  -4  -8   41.79    1.88
   1  -4  -8   32.02    1.57
   2  -4  -8    0.32    0.26
   3  -4  -8    3.33    0.54
   4  -4  -8   20.35    1.23
   5  -4  -8   60.81    4.58
   6  -4  -8    2.41    1.00
   7  -4  -8    5.59    1.51
   8  -4  -8    0.71    0.87
   9  -4  -8    6.94    1.74
  10  -4  -8   10.61    2.13
 -12  -3  -8    6.39    0.85
 -10  -3  -8   36.77    2.12
  -9  -3  -8   79.18    3.86
  -8  -3  -8   24.41    1.63
  -7  -3  -8   55.38    2.90
  -6  -3  -8    1.52    0.38
  -5  -3  -8    2.80    0.51
  -4  -3  -8   27.39    1.76
  -3  -3  -8  145.22    6.68
  -2  -3  -8   11.55    0.93
  -1  -3  -8   36.67    1.58
   0  -3  -8   -0.05    0.17
   1  -3  -8   36.28    1.62
   2  -3  -8   11.27    0.77
   3  -3  -8  149.50    5.34
   4  -3  -8   31.76    1.56
   5  -3  -8    2.43    0.48
   6  -3  -8    1.45    0.44
   7  -3  -8   63.64    4.50
   8  -3  -8   28.29    2.79
   9  -3  -8   82.83    5.75
  10  -3  -8   38.44    3.53
  11  -3  -8   60.42    4.97
  12  -3  -8    6.59    1.64
  13  -3  -8   45.56    4.24
 -14  -2  -8   27.04    1.94
 -13  -2  -8   75.61    2.90
 -12  -2  -8   10.46    1.26
 -11  -2  -8   55.48    2.86
 -10  -2  -8   11.37    0.81
  -9  -2  -8    8.15    0.79
  -8  -2  -8    1.44    0.37
  -7  -2  -8   12.07    0.96
  -6  -2  -8    6.28    0.72
  -5  -2  -8  117.51    5.61
  -4  -2  -8   31.82    1.94
  -3  -2  -8    3.16    0.52
  -2  -2  -8    0.03    0.19
  -1  -2  -8   51.37    2.08
   0  -2  -8   70.58    2.72
   1  -2  -8   53.30    2.17
   2  -2  -8    1.69    0.32
   3  -2  -8    3.22    0.48
   4  -2  -8   36.92    1.75
   5  -2  -8  126.32    4.59
   6  -2  -8    3.31    0.50
   7  -2  -8   13.61    0.89
   8  -2  -8    2.34    0.89
   9  -2  -8    7.94    1.51
  10  -2  -8   14.04    2.07
  11  -2  -8   53.94    4.31
  12  -2  -8   12.44    2.08
  13  -2  -8   68.99    5.56
  14  -2  -8   28.77    3.12
  15  -2  -8   82.34    6.09
 -16  -1  -8    2.54    0.39
 -15  -1  -8    3.12    0.64
 -14  -1  -8    7.10    0.96
 -13  -1  -8   64.12    2.53
 -12  -1  -8    8.91    0.69
 -11  -1  -8   89.83    3.30
 -10  -1  -8   52.90    2.07
  -9  -1  -8  112.74    3.90
  -8  -1  -8   37.20    1.60
  -7  -1  -8   85.30    3.12
  -6  -1  -8    4.28    0.50
  -5  -1  -8    8.81    0.69
  -4  -1  -8   43.11    1.86
  -3  -1  -8  221.83   10.24
  -2  -1  -8   13.13    1.13
  -1  -1  -8   78.67    4.21
   0  -1  -8   -0.29    0.23
   1  -1  -8   88.65    3.20
   2  -1  -8   14.07    0.82
   3  -1  -8  242.22    7.95
   4  -1  -8   47.74    1.91
   5  -1  -8    8.42    0.64
   6  -1  -8    6.30    0.60
   7  -1  -8   82.24    3.31
   8  -1  -8   37.37    1.69
   9  -1  -8  117.53    7.18
  10  -1  -8   56.87    4.07
  11  -1  -8   93.85    6.12
  12  -1  -8    9.13    1.61
  13  -1  -8   67.01    4.79
  14  -1  -8    8.75    1.64
  15  -1  -8    4.76    1.25
  16  -1  -8    2.38    0.94
 -16   0  -8   12.11    0.78
 -15   0  -8   97.07    3.47
 -14   0  -8   36.06    2.30
 -13   0  -8   91.48    3.38
 -12   0  -8   11.61    0.79
 -11   0  -8   66.70    2.56
 -10   0  -8   13.26    0.84
  -9   0  -8    9.09    0.49
  -8   0  -8    1.71    0.29
  -7   0  -8   18.25    0.87
  -6   0  -8    4.48    0.45
  -5   0  -8  165.41    5.46
  -4   0  -8   46.31    1.75
  -3   0  -8    3.06    0.37
  -2   0  -8    0.53    0.20
  -1   0  -8   70.45    3.51
   0   0  -8   96.18    3.24
   1   0  -8   65.09    2.37
   2   0  -8    0.58    0.15
   3   0  -8    2.57    0.27
   4   0  -8   41.81    1.45
   5   0  -8  160.48    4.67
   6   0  -8    5.39    0.52
   7   0  -8   17.09    0.90
   8   0  -8    1.43    0.28
   9   0  -8    8.41    0.56
  10   0  -8   13.04    0.71
  11   0  -8   64.33    4.38
  12   0  -8   10.41    1.56
  13   0  -8   87.81    5.81
  14   0  -8   33.59    2.89
  15   0  -8   99.14    6.44
  16   0  -8   14.11    1.73
 -16   1  -8    2.52    0.42
 -15   1  -8    3.88    0.49
 -14   1  -8    9.76    0.58
 -13   1  -8   63.29    2.60
 -12   1  -8    8.59    0.79
 -11   1  -8   84.46    3.37
 -10   1  -8   48.60    2.16
  -9   1  -8  101.68    4.05
  -8   1  -8   35.50    1.69
  -7   1  -8   84.29    2.59
  -6   1  -8    4.48    0.44
  -5   1  -8    7.82    0.55
  -4   1  -8   42.34    1.52
  -3   1  -8  195.05    7.47
  -2   1  -8   13.19    0.83
  -1   1  -8   86.09    3.03
   0   1  -8    0.51    0.22
   1   1  -8   86.54    2.95
   2   1  -8   13.94    0.57
   3   1  -8  239.51    6.28
   4   1  -8   47.21    1.40
   5   1  -8    8.66    0.40
   6   1  -8    4.84    0.41
   7   1  -8   87.27    3.16
   8   1  -8   36.27    1.55
   9   1  -8  110.12    4.00
  10   1  -8   52.09    2.05
  11   1  -8   88.46    3.28
  12   1  -8    9.13    1.40
  13   1  -8   62.35    4.44
  14   1  -8    7.55    1.36
  15   1  -8    4.73    1.08
  16   1  -8    2.76    0.87
 -14   2  -8   31.20    1.18
 -13   2  -8   76.09    2.32
 -12   2  -8   10.50    0.59
 -11   2  -8   53.93    2.21
 -10   2  -8   11.76    0.79
  -9   2  -8    7.80    0.71
  -8   2  -8    1.84    0.33
  -7   2  -8   11.75    0.76
  -6   2  -8    3.08    0.32
  -5   2  -8  124.72    3.38
  -4   2  -8   36.47    1.18
  -3   2  -8    3.04    0.29
  -2   2  -8    0.22    0.13
  -1   2  -8   54.84    1.58
   0   2  -8   72.03    2.01
   1   2  -8   52.50    1.88
   2   2  -8    0.29    0.19
   3   2  -8    2.96    0.25
   4   2  -8   34.32    1.12
   5   2  -8  118.92    3.40
   6   2  -8    2.89    0.34
   7   2  -8   12.10    0.67
   8   2  -8    1.49    0.25
   9   2  -8    7.52    0.54
  10   2  -8   11.15    0.67
  11   2  -8   49.09    2.06
  12   2  -8    9.30    0.66
  13   2  -8   71.81    5.04
  14   2  -8   29.29    2.66
  15   2  -8   78.87    5.43
 -13   3  -8   47.38    1.62
 -12   3  -8    7.55    0.56
 -11   3  -8   62.93    1.97
 -10   3  -8   34.36    1.61
  -9   3  -8   78.46    2.94
  -8   3  -8   27.33    1.28
  -7   3  -8   54.69    2.19
  -6   3  -8    1.44    0.28
  -5   3  -8    2.65    0.27
  -4   3  -8   31.62    1.03
  -3   3  -8  147.91    3.93
  -2   3  -8   10.66    0.59
  -1   3  -8   35.86    1.38
   0   3  -8    0.25    0.14
   1   3  -8   33.45    1.35
   2   3  -8   10.21    0.56
   3   3  -8  143.53    4.71
   4   3  -8   29.26    1.17
   5   3  -8    3.05    0.29
   6   3  -8    1.51    0.32
   7   3  -8   55.16    2.19
   8   3  -8   24.60    1.21
   9   3  -8   73.55    2.91
  10   3  -8   33.10    1.55
  11   3  -8   59.90    2.47
  12   3  -8    5.63    0.56
  13   3  -8   44.31    1.97
 -10   4  -8    8.38    1.10
  -9   4  -8    6.41    0.66
  -8   4  -8    0.75    0.26
  -7   4  -8    7.46    0.60
  -6   4  -8    1.27    0.41
  -5   4  -8   57.24    3.23
  -4   4  -8   19.46    1.41
  -3   4  -8    3.81    0.42
  -2   4  -8    0.40    0.18
  -1   4  -8   31.61    1.31
   0   4  -8   40.64    1.59
   1   4  -8   29.99    1.29
   2   4  -8    0.17    0.14
   3   4  -8    3.86    0.39
   4   4  -8   19.55    0.90
   5   4  -8   60.14    2.98
   6   4  -8    1.18    0.34
   7   4  -8    6.71    0.68
   8   4  -8    1.19    0.34
   9   4  -8    6.60    0.75
  -1   5  -8   13.32    1.08
   0   5  -8    0.00    0.17
   1   5  -8   11.67    0.73
   2   5  -8    5.52    0.77
   3   5  -8   73.86    3.83
  -3  -5  -7   57.22    2.48
  -2  -5  -7   13.30    0.94
  -1  -5  -7  114.16    4.45
   0  -5  -7   15.38    1.03
   1  -5  -7  118.71    7.52
   2  -5  -7   14.86    1.05
   3  -5  -7   63.18    4.68
   4  -5  -7    0.01    0.66
 -11  -4  -7   14.55    1.17
 -10  -4  -7   17.79    1.34
  -5  -4  -7  200.53   11.22
  -4  -4  -7   54.70    3.60
  -3  -4  -7  116.79    7.01
  -2  -4  -7    0.04    0.17
  -1  -4  -7   13.62    0.82
   0  -4  -7    0.64    0.25
   1  -4  -7   14.50    0.86
   2  -4  -7    0.24    0.21
   3  -4  -7  122.86    4.53
   4  -4  -7   54.66    2.38
   5  -4  -7  202.99   12.06
   6  -4  -7   15.92    2.29
   7  -4  -7   92.19    6.43
   8  -4  -7    1.67    1.01
   9  -4  -7   25.34    2.93
  10  -4  -7   19.81    3.04
 -12  -3  -7   19.72    1.38
 -11  -3  -7   60.41    3.18
 -10  -3  -7    1.61    0.41
  -9  -3  -7  115.29    5.45
  -8  -3  -7   92.93    4.49
  -7  -3  -7  126.54    6.05
  -6  -3  -7   33.04    1.85
  -5  -3  -7    9.51    0.60
  -4  -3  -7    0.04    0.13
  -3  -3  -7  113.42    4.10
  -2  -3  -7   27.35    1.25
  -1  -3  -7  242.40    8.40
   0  -3  -7   31.46    1.41
   1  -3  -7  247.21    8.46
   2  -3  -7   27.66    1.32
   3  -3  -7  116.95    4.25
   4  -3  -7    0.17    0.19
   5  -3  -7    8.89    0.75
   6  -3  -7   35.75    1.70
   7  -3  -7  133.77    8.51
   8  -3  -7   99.58    6.68
   9  -3  -7  110.36    7.83
  10  -3  -7    2.20    1.06
  11  -3  -7   64.18    5.18
  12  -3  -7   18.60    2.80
  13  -3  -7   19.28    2.94
 -13  -2  -7   10.74    1.06
 -11  -2  -7   31.12    1.39
 -10  -2  -7   31.33    1.82
  -9  -2  -7   34.60    1.89
  -8  -2  -7    1.74    0.38
  -7  -2  -7  150.90    6.68
  -6  -2  -7   21.31    1.34
  -5  -2  -7  370.81   15.61
  -4  -2  -7  109.29    3.89
  -3  -2  -7  236.48    8.21
  -2  -2  -7    0.31    0.16
  -1  -2  -7   24.79    1.11
   0  -2  -7    0.11    0.16
   1  -2  -7   25.02    1.17
   2  -2  -7    0.21    0.20
   3  -2  -7  242.70    8.42
   4  -2  -7  111.41    4.15
   5  -2  -7  350.38   12.46
   6  -2  -7   23.78    1.26
   7  -2  -7  150.48    5.42
   8  -2  -7    2.07    0.90
   9  -2  -7   34.58    3.08
  10  -2  -7   29.23    2.96
  11  -2  -7   29.72    2.95
  12  -2  -7   17.99    2.63
  13  -2  -7   12.61    2.21
  14  -2  -7    0.67    0.82
  15  -2  -7   38.21    3.83
 -17  -1  -7    0.33    0.28
 -16  -1  -7    0.27    0.19
 -15  -1  -7   27.03    1.21
 -14  -1  -7    4.44    0.72
 -13  -1  -7   29.44    1.35
 -12  -1  -7   27.18    1.31
 -11  -1  -7   86.93    3.25
 -10  -1  -7    2.45    0.37
  -9  -1  -7  178.36    5.86
  -8  -1  -7  153.26    5.24
  -7  -1  -7  222.78    9.83
  -6  -1  -7   57.41    2.26
  -5  -1  -7   12.97    1.00
  -4  -1  -7    0.07    0.21
  -3  -1  -7  170.70    7.98
  -2  -1  -7   49.63    1.93
  -1  -1  -7  393.52   13.03
   0  -1  -7   60.10    2.34
   1  -1  -7  386.21   13.14
   2  -1  -7   54.07    2.11
   3  -1  -7  189.42    6.31
   4  -1  -7    0.41    0.25
   5  -1  -7   16.01    0.89
   6  -1  -7   57.99    2.39
   7  -1  -7  213.16    7.76
   8  -1  -7  170.39    5.68
   9  -1  -7  181.48   10.69
  10  -1  -7    2.52    0.96
  11  -1  -7   89.54    6.10
  12  -1  -7   32.23    2.91
  13  -1  -7   28.21    2.73
  14  -1  -7    3.62    1.14
  15  -1  -7   29.47    2.87
  16  -1  -7    0.07    0.52
 -17   0  -7   18.98    0.99
 -16   0  -7   37.34    1.58
 -15   0  -7   47.71    1.90
 -14   0  -7    0.08    0.27
 -13   0  -7   16.06    0.95
 -12   0  -7   23.12    1.18
 -11   0  -7   43.64    1.78
 -10   0  -7   44.41    1.83
  -9   0  -7   43.09    1.39
  -8   0  -7    2.30    0.28
  -7   0  -7  195.64    6.24
  -6   0  -7   31.61    1.30
  -5   0  -7  466.53   15.12
  -4   0  -7  156.59    5.04
  -3   0  -7  320.53   10.61
  -2   0  -7    1.14    0.21
  -1   0  -7   35.51    1.40
   0   0  -7    0.02    0.08
   1   0  -7   33.40    1.14
   2   0  -7    0.09    0.12
   3   0  -7  315.04   11.71
   4   0  -7  148.15    4.30
   5   0  -7  489.10   16.21
   6   0  -7   32.22    1.36
   7   0  -7  191.49    6.62
   8   0  -7    2.48    0.31
   9   0  -7   41.52    1.69
  10   0  -7   41.48    1.66
  11   0  -7   39.53    3.08
  12   0  -7   23.62    2.20
  13   0  -7   16.84    1.84
  14   0  -7   -0.06    0.43
  15   0  -7   49.61    3.83
  16   0  -7   37.16    3.21
  17   0  -7   17.39    2.08
 -16   1  -7    0.02    0.18
 -15   1  -7   26.13    1.25
 -14   1  -7    5.11    0.52
 -13   1  -7   28.79    1.37
 -12   1  -7   27.98    1.35
 -11   1  -7   89.61    3.31
 -10   1  -7    2.61    0.40
  -9   1  -7  168.68    6.08
  -8   1  -7  146.52    5.44
  -7   1  -7  201.31    5.95
  -6   1  -7   58.52    1.86
  -5   1  -7   13.41    0.66
  -4   1  -7    0.18    0.16
  -3   1  -7  166.92    4.82
  -2   1  -7   49.44    1.57
  -1   1  -7  363.91   12.19
   0   1  -7   62.69    2.16
   1   1  -7  404.82   10.45
   2   1  -7   53.00    1.53
   3   1  -7  182.71    4.90
   4   1  -7    0.62    0.11
   5   1  -7   14.23    0.53
   6   1  -7   57.53    2.21
   7   1  -7  220.87    7.58
   8   1  -7  148.95    5.46
   9   1  -7  174.04    6.13
  10   1  -7    1.99    0.27
  11   1  -7   87.22    3.24
  12   1  -7   29.80    2.53
  13   1  -7   27.99    2.50
  14   1  -7    6.19    1.26
  15   1  -7   25.02    2.48
  16   1  -7    0.15    0.50
 -15   2  -7   43.59    1.78
 -14   2  -7    0.21    0.20
 -13   2  -7   14.10    0.66
 -12   2  -7   17.59    0.76
 -11   2  -7   29.55    1.06
 -10   2  -7   33.48    1.45
  -9   2  -7   31.71    1.44
  -8   2  -7    2.21    0.34
  -7   2  -7  149.48    5.08
  -6   2  -7   23.59    0.82
  -5   2  -7  365.83    9.37
  -4   2  -7  112.36    3.02
  -3   2  -7  241.83    6.33
  -2   2  -7    0.23    0.10
  -1   2  -7   25.51    0.81
   0   2  -7    0.26    0.09
   1   2  -7   23.70    0.77
   2   2  -7    0.39    0.11
   3   2  -7  239.67    6.58
   4   2  -7  109.68    3.09
   5   2  -7  370.06    9.73
   6   2  -7   21.76    1.00
   7   2  -7  140.96    5.14
   8   2  -7    1.94    0.28
   9   2  -7   33.65    1.41
  10   2  -7   31.28    1.37
  11   2  -7   28.08    1.29
  12   2  -7   17.00    0.90
  13   2  -7   13.95    1.71
  14   2  -7   -0.35    0.39
  15   2  -7   42.27    3.49
 -14   3  -7    4.73    0.71
 -13   3  -7   24.14    0.94
 -12   3  -7   21.43    0.85
 -11   3  -7   64.66    1.94
 -10   3  -7    1.87    0.25
  -9   3  -7  120.81    3.28
  -8   3  -7   93.37    3.40
  -7   3  -7  132.41    4.58
  -6   3  -7   32.26    1.36
  -5   3  -7    9.41    0.43
  -4   3  -7    0.04    0.09
  -3   3  -7  115.92    3.10
  -2   3  -7   28.70    0.90
  -1   3  -7  243.88    7.75
   0   3  -7   31.52    1.22
   1   3  -7  241.01    7.74
   2   3  -7   26.81    1.08
   3   3  -7  110.38    3.72
   4   3  -7    0.02    0.08
   5   3  -7    8.53    0.46
   6   3  -7   29.92    1.70
   7   3  -7  131.46    4.72
   8   3  -7   95.08    3.52
   9   3  -7  112.62    4.25
  10   3  -7    1.71    0.30
  11   3  -7   59.06    2.48
  12   3  -7   18.83    1.03
  13   3  -7   20.74    1.13
  14   3  -7    3.07    1.04
 -11   4  -7   13.50    0.87
 -10   4  -7   19.11    1.04
  -9   4  -7   20.53    1.09
  -8   4  -7    1.41    0.30
  -7   4  -7   89.24    3.20
  -6   4  -7   12.81    0.73
  -5   4  -7  199.61    9.50
  -4   4  -7   51.37    2.92
  -3   4  -7  123.29    4.00
  -2   4  -7    0.22    0.15
  -1   4  -7   12.52    0.65
   0   4  -7    0.07    0.13
   1   4  -7   11.81    0.63
   2   4  -7    0.25    0.13
   3   4  -7  116.90    3.95
   4   4  -7   53.70    1.95
   5   4  -7  194.97    6.40
   6   4  -7   11.53    0.91
   7   4  -7   86.02    4.16
   8   4  -7    1.56    0.36
   9   4  -7   19.93    1.32
  10   4  -7   16.57    1.19
  11   4  -7   13.12    1.01
  -3   5  -7   56.46    3.20
  -2   5  -7   13.37    1.11
  -1   5  -7  117.77    4.00
   0   5  -7   15.49    0.84
   1   5  -7  117.47    3.99
   2   5  -7   12.55    0.74
   3   5  -7   58.14    2.16
   4   5  -7    0.09    0.22
  -6  -5  -6   73.60    5.00
  -5  -5  -6    0.67    0.53
  -4  -5  -6   53.34    3.87
  -3  -5  -6    1.83    0.74
  -2  -5  -6   11.63    1.69
  -1  -5  -6    1.22    0.71
   0  -5  -6    0.10    0.49
   1  -5  -6    1.50    0.36
   2  -5  -6   10.50    0.84
   3  -5  -6    1.29    0.83
   4  -5  -6   53.96    4.51
   5  -5  -6    0.40    0.68
  -8  -4  -6    8.40    1.02
  -7  -4  -6    0.08    0.33
  -6  -4  -6   10.97    1.19
  -5  -4  -6    0.38    0.35
  -4  -4  -6    9.22    1.10
  -3  -4  -6   15.62    1.48
  -2  -4  -6   30.68    2.31
  -1  -4  -6    1.90    0.62
   0  -4  -6  330.85   17.41
   1  -4  -6    1.02    0.53
   2  -4  -6   30.09    1.43
   3  -4  -6   14.65    0.91
   4  -4  -6    9.86    0.77
   5  -4  -6    0.13    0.55
   6  -4  -6   11.97    2.04
   7  -4  -6   -0.07    0.67
   8  -4  -6    8.13    1.83
   9  -4  -6    0.47    0.80
  10  -4  -6  103.97    7.71
  11  -4  -6   69.98    5.88
 -12  -3  -6    2.70    0.49
  -8  -3  -6   83.45    4.95
  -7  -3  -6   71.24    4.26
  -6  -3  -6  138.16    7.96
  -5  -3  -6    1.09    0.39
  -4  -3  -6  110.60    6.33
  -3  -3  -6    2.66    0.56
  -2  -3  -6   18.73    1.53
  -1  -3  -6    3.70    0.68
   0  -3  -6    0.29    0.32
   1  -3  -6    3.81    0.41
   2  -3  -6   19.79    1.00
   3  -3  -6    3.26    0.42
   4  -3  -6  114.54    4.11
   5  -3  -6    0.42    0.24
   6  -3  -6  150.28    5.29
   7  -3  -6   70.71    5.15
   8  -3  -6   82.08    5.99
   9  -3  -6    0.50    0.63
  10  -3  -6    4.13    1.34
  11  -3  -6    7.64    1.80
  12  -3  -6    1.82    1.05
  13  -3  -6   -0.40    0.69
  14  -3  -6   13.57    2.52
 -13  -2  -6    0.47    0.29
 -12  -2  -6  100.12    5.51
 -11  -2  -6  129.49    5.72
 -10  -2  -6  180.24    7.78
  -9  -2  -6    3.35    0.47
  -8  -2  -6   21.52    0.98
  -7  -2  -6    0.55    0.16
  -6  -2  -6   28.26    1.19
  -5  -2  -6    0.23    0.13
  -4  -2  -6   23.57    0.99
  -3  -2  -6   35.97    1.41
  -2  -2  -6   45.06    1.74
  -1  -2  -6    1.79    0.26
   0  -2  -6  563.51   18.99
   1  -2  -6    2.42    0.32
   2  -2  -6   45.43    1.84
   3  -2  -6   33.93    1.52
   4  -2  -6   23.93    1.19
   5  -2  -6    0.27    0.26
   6  -2  -6   30.79    1.54
   7  -2  -6    0.64    0.26
   8  -2  -6   20.78    2.30
   9  -2  -6    3.49    1.13
  10  -2  -6  162.68   10.78
  11  -2  -6  122.37    8.29
  12  -2  -6   98.01    7.17
  13  -2  -6    0.69    0.76
  14  -2  -6   77.61    6.07
  15  -2  -6   12.24    2.32
  16  -2  -6    2.41    1.12
 -17  -1  -6    3.30    0.55
 -16  -1  -6   23.18    1.11
 -15  -1  -6   78.70    2.79
 -14  -1  -6   18.95    0.90
 -13  -1  -6    0.85    0.35
 -12  -1  -6    3.37    0.43
 -11  -1  -6   10.25    0.69
 -10  -1  -6    4.21    0.44
  -9  -1  -6    0.10    0.15
  -8  -1  -6  123.01    4.29
  -7  -1  -6  123.39    3.63
  -6  -1  -6  211.94    7.18
  -5  -1  -6    2.31    0.25
  -4  -1  -6  180.05    6.16
  -3  -1  -6    5.88    0.36
  -2  -1  -6   35.09    1.38
  -1  -1  -6    5.79    0.40
   0  -1  -6    0.11    0.15
   1  -1  -6    6.02    0.52
   2  -1  -6   35.74    1.59
   3  -1  -6    6.79    0.63
   4  -1  -6  188.25    6.41
   5  -1  -6    2.14    0.36
   6  -1  -6  220.30   12.25
   7  -1  -6  129.82    4.61
   8  -1  -6  139.19    4.65
   9  -1  -6    0.28    0.54
  10  -1  -6    3.28    1.06
  11  -1  -6   11.56    1.90
  12  -1  -6    3.16    1.05
  13  -1  -6    0.23    0.54
  14  -1  -6   18.18    2.21
  16  -1  -6   22.83    2.60
  17  -1  -6    2.60    1.01
 -18   0  -6   14.22    1.24
 -17   0  -6    1.30    0.29
 -16   0  -6    3.68    0.42
 -15   0  -6   15.13    0.81
 -14   0  -6   92.75    3.20
 -13   0  -6    0.12    0.21
 -12   0  -6  120.40    4.27
 -11   0  -6  168.70    5.74
 -10   0  -6  229.08    7.53
  -9   0  -6    4.90    0.40
  -8   0  -6   32.41    1.10
  -7   0  -6    0.41    0.20
  -6   0  -6   49.22    1.80
  -5   0  -6    0.08    0.17
  -4   0  -6   41.70    1.53
  -3   0  -6   55.65    1.97
  -2   0  -6   61.94    2.22
  -1   0  -6    2.42    0.32
   0   0  -6  676.17   24.35
   1   0  -6    2.64    0.25
   2   0  -6   62.70    2.39
   3   0  -6   51.02    2.08
   4   0  -6   37.50    1.24
   5   0  -6    0.03    0.12
   6   0  -6   46.81    1.41
   7   0  -6    0.65    0.18
   8   0  -6   31.66    1.31
   9   0  -6    4.51    0.34
  10   0  -6  216.94    7.57
  11   0  -6  166.69    9.85
  12   0  -6  125.05    7.53
  13   0  -6    0.49    0.51
  14   0  -6   94.16    6.21
  15   0  -6   13.46    2.03
  16   0  -6    3.09    1.01
  17   0  -6    0.60    0.60
 -17   1  -6    2.41    0.38
 -16   1  -6   25.73    1.18
 -15   1  -6   77.65    2.83
 -14   1  -6   18.44    0.92
 -13   1  -6    0.30    0.14
 -12   1  -6    3.81    0.42
 -11   1  -6   11.04    0.70
 -10   1  -6    4.58    0.48
  -9   1  -6    0.09    0.16
  -8   1  -6  124.35    4.43
  -7   1  -6  124.72    3.47
  -6   1  -6  202.07    5.64
  -5   1  -6    2.01    0.25
  -4   1  -6  177.62    4.86
  -3   1  -6    6.86    0.37
  -2   1  -6   36.59    1.14
  -1   1  -6    6.08    0.41
   0   1  -6    0.64    0.15
   1   1  -6    6.08    0.30
   2   1  -6   36.19    1.10
   3   1  -6    6.59    0.30
   4   1  -6  180.37    4.95
   5   1  -6    1.87    0.16
   6   1  -6  209.79    5.75
   7   1  -6  122.47    4.41
   8   1  -6  123.55    4.47
   9   1  -6    0.08    0.09
  10   1  -6    3.32    0.30
  11   1  -6   10.88    0.59
  12   1  -6    3.72    0.97
  13   1  -6    0.15    0.44
  14   1  -6   19.78    2.09
  15   1  -6   81.61    5.52
  16   1  -6   26.42    2.54
  17   1  -6    1.19    0.71
 -16   2  -6    2.62    0.40
 -15   2  -6   12.61    0.76
 -14   2  -6   80.12    2.85
 -13   2  -6    0.22    0.13
 -12   2  -6  104.34    2.91
 -11   2  -6  129.22    3.46
 -10   2  -6  176.88    4.69
  -9   2  -6    2.73    0.35
  -8   2  -6   22.17    1.01
  -7   2  -6    0.66    0.19
  -6   2  -6   29.75    0.93
  -5   2  -6    0.24    0.09
  -4   2  -6   23.23    0.76
  -3   2  -6   36.26    1.07
  -2   2  -6   46.21    1.31
  -1   2  -6    2.00    0.18
   0   2  -6  552.51   14.56
   1   2  -6    2.14    0.18
   2   2  -6   44.40    1.57
   3   2  -6   34.88    1.10
   4   2  -6   22.51    0.76
   5   2  -6    0.40    0.08
   6   2  -6   27.87    0.92
   7   2  -6    0.52    0.16
   8   2  -6   20.47    0.99
   9   2  -6    2.57    0.31
  10   2  -6  170.61    6.11
  11   2  -6  121.26    4.49
  12   2  -6   99.77    3.78
  13   2  -6   -0.07    0.48
  14   2  -6   82.41    5.69
  15   2  -6   11.92    1.93
  16   2  -6    1.98    0.86
 -15   3  -6   57.60    3.02
 -14   3  -6   15.90    0.88
 -13   3  -6    0.30    0.17
 -12   3  -6    1.65    0.24
 -11   3  -6    6.49    0.43
 -10   3  -6    3.83    0.33
  -9   3  -6    0.11    0.11
  -8   3  -6   84.20    2.36
  -7   3  -6   72.05    2.02
  -6   3  -6  140.15    4.78
  -5   3  -6    0.61    0.12
  -4   3  -6  109.74    2.98
  -3   3  -6    2.87    0.23
  -2   3  -6   19.32    0.66
  -1   3  -6    4.10    0.24
   0   3  -6    0.28    0.10
   1   3  -6    3.08    0.29
   2   3  -6   18.53    0.79
   3   3  -6    2.56    0.25
   4   3  -6  105.75    3.57
   5   3  -6    0.47    0.11
   6   3  -6  137.47    4.53
   7   3  -6   69.77    2.70
   8   3  -6   82.02    3.14
   9   3  -6   -0.07    0.13
  10   3  -6    3.63    0.42
  11   3  -6    6.13    0.52
  12   3  -6    1.38    0.29
  13   3  -6    0.05    0.17
  14   3  -6   14.74    2.29
 -12   4  -6   69.01    3.75
 -11   4  -6   69.64    2.68
 -10   4  -6  105.90    3.77
  -9   4  -6    1.17    0.27
  -8   4  -6    7.89    0.56
  -7   4  -6    0.46    0.19
  -6   4  -6   11.03    0.64
  -5   4  -6    0.10    0.14
  -4   4  -6   10.83    0.85
  -3   4  -6   15.33    0.73
  -2   4  -6   30.67    1.19
  -1   4  -6    1.52    0.23
   0   4  -6  307.06    9.83
   1   4  -6    1.69    0.24
   2   4  -6   28.56    1.17
   3   4  -6   14.52    0.70
   4   4  -6    9.43    0.53
   5   4  -6    0.17    0.12
   6   4  -6   10.73    0.83
   7   4  -6    0.07    0.19
   8   4  -6    7.85    0.70
   9   4  -6    0.37    0.23
  10   4  -6   98.23    4.84
  11   4  -6   67.26    3.40
  12   4  -6   68.70    3.39
  -5   5  -6    0.14    0.25
  -4   5  -6   51.79    3.03
  -3   5  -6    1.34    0.38
  -2   5  -6    9.92    0.62
  -1   5  -6    1.45    0.26
   0   5  -6    0.56    0.19
   1   5  -6    1.66    0.28
   2   5  -6   10.27    0.62
   3   5  -6    1.56    0.27
   4   5  -6   55.17    2.06
   5   5  -6   -0.12    0.18
  -8  -5  -5    0.58    0.54
  -7  -5  -5    2.97    0.85
  -6  -5  -5    1.03    0.61
  -5  -5  -5   10.24    1.52
  -4  -5  -5   17.83    1.90
  -3  -5  -5   51.91    3.85
  -2  -5  -5   17.93    1.90
  -1  -5  -5    0.82    0.62
   0  -5  -5   12.76    1.85
   1  -5  -5    0.54    0.61
   2  -5  -5   18.90    2.13
   3  -5  -5   51.57    4.25
   4  -5  -5   21.75    2.47
   5  -5  -5   10.23    1.95
   6  -5  -5    1.17    0.99
 -11  -4  -5    5.36    1.01
 -10  -4  -5    7.87    1.20
  -9  -4  -5  108.78    6.48
  -8  -4  -5   19.55    1.75
  -7  -4  -5    7.48    1.13
  -6  -4  -5   22.32    1.86
  -5  -4  -5   52.11    3.46
  -4  -4  -5    4.97    0.89
  -3  -4  -5   21.97    1.85
  -2  -4  -5    7.28    1.12
  -1  -4  -5   52.65    3.62
   0  -4  -5    0.02    0.37
   1  -4  -5   54.60    3.78
   2  -4  -5    6.44    1.21
   3  -4  -5   22.17    2.13
   4  -4  -5    3.89    0.49
   5  -4  -5   55.48    4.13
   6  -4  -5   21.50    2.42
   7  -4  -5    6.82    1.63
   8  -4  -5   23.23    2.67
   9  -4  -5  104.24    7.68
  10  -4  -5    8.22    2.03
  11  -4  -5    7.77    2.02
 -11  -3  -5    4.69    0.82
 -10  -3  -5   15.36    1.43
  -9  -3  -5   30.94    2.26
  -8  -3  -5    3.06    0.63
  -7  -3  -5    9.28    0.98
  -6  -3  -5    2.25    0.52
  -5  -3  -5   18.77    1.45
  -4  -3  -5   39.73    2.64
  -3  -3  -5  111.51    6.51
  -2  -3  -5   33.65    2.28
  -1  -3  -5    1.46    0.43
   0  -3  -5   45.54    3.04
   1  -3  -5    1.49    0.53
   2  -3  -5   33.93    2.47
   3  -3  -5  113.95    4.11
   4  -3  -5   40.70    1.71
   5  -3  -5   18.75    0.98
   6  -3  -5    2.38    0.40
   7  -3  -5    8.92    1.69
   8  -3  -5    2.78    1.07
   9  -3  -5   30.73    3.16
  10  -3  -5   17.12    2.61
  11  -3  -5    2.45    1.14
  12  -3  -5   18.63    2.90
  14  -3  -5    7.24    1.88
 -15  -2  -5   44.64    2.46
 -14  -2  -5    5.45    0.64
 -13  -2  -5   19.58    1.12
 -12  -2  -5   69.73    3.72
 -10  -2  -5   13.58    1.18
  -9  -2  -5  207.80   10.97
  -8  -2  -5   36.35    2.33
  -7  -2  -5    7.77    0.77
  -6  -2  -5   36.20    2.30
  -5  -2  -5  105.82    5.70
  -4  -2  -5   19.49    1.35
  -3  -2  -5   87.07    4.83
  -2  -2  -5   12.99    1.01
  -1  -2  -5  136.52    7.52
   0  -2  -5    0.34    0.24
   1  -2  -5  137.22    4.72
   2  -2  -5   13.19    0.68
   3  -2  -5   84.46    3.13
   4  -2  -5   19.99    0.98
   5  -2  -5  102.04    3.78
   6  -2  -5   38.91    1.74
   7  -2  -5    8.76    0.73
   8  -2  -5   37.56    3.23
   9  -2  -5  190.73   12.09
  10  -2  -5   14.66    2.27
  11  -2  -5   10.71    1.97
  13  -2  -5   17.28    2.71
  14  -2  -5    5.61    1.58
  15  -2  -5   44.19    4.25
  16  -2  -5   27.11    3.20
 -18  -1  -5    0.31    0.26
 -17  -1  -5   58.82    2.97
 -16  -1  -5  116.59    5.27
 -15  -1  -5   68.59    2.42
 -14  -1  -5    9.77    0.57
 -13  -1  -5  135.09    4.41
 -12  -1  -5   27.57    1.23
 -11  -1  -5    2.66    0.38
 -10  -1  -5   26.29    1.09
  -9  -1  -5   48.66    1.82
  -8  -1  -5    9.01    0.59
  -7  -1  -5   29.35    1.48
  -6  -1  -5    3.77    0.45
  -5  -1  -5   26.73    1.07
  -4  -1  -5   68.37    2.48
  -3  -1  -5  199.81    6.74
  -2  -1  -5   54.28    1.99
  -1  -1  -5    6.83    0.39
   0  -1  -5  110.79    3.85
   1  -1  -5    6.39    0.45
   2  -1  -5   59.04    2.19
   3  -1  -5  196.17   11.23
   4  -1  -5   73.26    2.76
   5  -1  -5   27.25    1.28
   6  -1  -5    4.36    0.47
   7  -1  -5   31.94    1.34
   8  -1  -5    9.66    0.59
   9  -1  -5   49.67    3.90
  10  -1  -5   25.14    2.59
  11  -1  -5    2.25    0.92
  12  -1  -5   25.76    2.72
  13  -1  -5  123.84    8.69
  14  -1  -5    8.96    1.74
  15  -1  -5   67.51    5.16
  16  -1  -5  108.04    7.73
  17  -1  -5   56.32    4.69
 -18   0  -5   13.28    1.02
 -17   0  -5   26.50    1.18
 -16   0  -5   35.09    1.42
 -15   0  -5   53.40    2.00
 -14   0  -5    6.14    0.43
 -13   0  -5   24.88    1.06
 -12   0  -5   90.28    3.31
 -11   0  -5   14.38    0.79
 -10   0  -5   14.57    0.84
  -9   0  -5  264.53    6.96
  -8   0  -5   50.69    1.54
  -7   0  -5    7.97    0.45
  -6   0  -5   51.61    1.91
  -5   0  -5  145.08    6.50
  -4   0  -5   37.60    1.46
  -3   0  -5  157.31    5.00
  -2   0  -5   18.97    0.86
  -1   0  -5  200.64    9.67
   0   0  -5   -0.02    0.10
   1   0  -5  217.29    7.81
   2   0  -5   17.88    0.70
   3   0  -5  154.92    4.26
   4   0  -5   36.13    1.17
   5   0  -5  146.20    3.98
   6   0  -5   50.18    1.45
   7   0  -5    7.15    0.43
   8   0  -5   45.39    1.82
   9   0  -5  260.87    8.94
  10   0  -5   17.56    1.82
  11   0  -5   11.94    1.78
  12   0  -5   91.46    6.04
  13   0  -5   25.80    2.42
  14   0  -5    8.14    1.48
  15   0  -5   55.05    4.22
  16   0  -5   29.67    2.99
  17   0  -5   25.33    2.63
 -18   1  -5    0.43    0.36
 -17   1  -5   61.38    2.25
 -16   1  -5  119.04    3.94
 -15   1  -5   68.36    2.45
 -14   1  -5    9.22    0.57
 -13   1  -5  130.69    4.42
 -12   1  -5   25.84    0.89
 -11   1  -5    2.59    0.34
 -10   1  -5   23.84    1.09
  -9   1  -5   48.05    1.85
  -8   1  -5    9.89    0.58
  -7   1  -5   28.64    0.92
  -6   1  -5    4.35    0.31
  -5   1  -5   27.74    0.89
  -4   1  -5   72.42    1.99
  -3   1  -5  197.41    5.25
  -2   1  -5   55.93    1.57
  -1   1  -5    7.34    0.31
   0   1  -5  108.69    2.93
   1   1  -5    6.54    0.29
   2   1  -5   55.70    1.60
   3   1  -5  202.21    5.44
   4   1  -5   68.55    1.99
   5   1  -5   25.64    0.84
   6   1  -5    4.35    0.21
   7   1  -5   26.79    1.16
   8   1  -5    9.18    0.52
   9   1  -5   47.09    1.87
  10   1  -5   23.73    1.07
  11   1  -5    2.79    0.26
  12   1  -5   24.69    2.42
  13   1  -5  139.08    8.47
  14   1  -5    9.49    1.64
  15   1  -5   66.64    4.94
  16   1  -5  109.35    7.47
  17   1  -5   54.47    4.46
 -16   2  -5   30.45    1.32
 -15   2  -5   47.06    1.82
 -14   2  -5    5.43    0.50
 -13   2  -5   17.41    0.87
 -12   2  -5   69.98    2.06
 -11   2  -5    9.42    0.45
 -10   2  -5   12.92    0.54
  -9   2  -5  199.44    5.24
  -8   2  -5   35.53    1.41
  -7   2  -5    8.14    0.48
  -6   2  -5   35.82    1.08
  -5   2  -5  102.72    2.72
  -4   2  -5   18.71    0.62
  -3   2  -5   84.06    2.29
  -2   2  -5   12.15    0.44
  -1   2  -5  134.29    3.55
   0   2  -5    0.27    0.07
   1   2  -5  133.61    3.53
   2   2  -5   12.38    0.41
   3   2  -5   84.33    2.41
   4   2  -5   19.25    0.65
   5   2  -5   99.32    2.85
   6   2  -5   35.69    1.13
   7   2  -5    7.41    0.54
   8   2  -5   34.91    1.49
   9   2  -5  197.93    6.92
  10   2  -5   12.42    0.71
  11   2  -5    9.70    0.60
  12   2  -5   71.85    2.77
  13   2  -5   18.93    2.38
  14   2  -5    5.29    1.42
  15   2  -5   46.71    4.02
  16   2  -5   28.27    2.94
 -15   3  -5   46.22    2.56
 -14   3  -5    7.70    0.58
 -13   3  -5   93.44    3.26
 -12   3  -5   16.62    0.68
 -11   3  -5    3.65    0.31
 -10   3  -5   17.70    0.66
  -9   3  -5   31.83    1.03
  -8   3  -5    3.98    0.26
  -7   3  -5    9.49    0.41
  -6   3  -5    2.47    0.28
  -5   3  -5   17.45    0.60
  -4   3  -5   39.65    1.18
  -3   3  -5  112.04    3.02
  -2   3  -5   32.51    0.98
  -1   3  -5    1.27    0.14
   0   3  -5   45.83    1.31
   1   3  -5    0.98    0.16
   2   3  -5   32.55    1.19
   3   3  -5  111.24    3.66
   4   3  -5   38.98    1.41
   5   3  -5   16.55    0.71
   6   3  -5    2.48    0.22
   7   3  -5   10.13    0.62
   8   3  -5    3.29    0.38
   9   3  -5   31.09    1.43
  10   3  -5   15.88    0.90
  11   3  -5    3.34    0.41
  12   3  -5   16.89    0.96
  13   3  -5   92.65    3.63
  14   3  -5    8.03    1.86
 -12   4  -5   39.28    1.66
 -11   4  -5    6.37    0.54
 -10   4  -5    8.63    0.58
  -9   4  -5  106.48    3.76
  -8   4  -5   19.60    0.94
  -7   4  -5    7.52    0.51
  -6   4  -5   20.59    0.97
  -5   4  -5   49.48    1.89
  -4   4  -5    4.64    0.29
  -3   4  -5   21.68    0.90
  -2   4  -5    6.53    0.42
  -1   4  -5   52.75    1.90
   0   4  -5    0.02    0.09
   1   4  -5   53.21    1.90
   2   4  -5    6.99    0.42
   3   4  -5   20.38    0.89
   4   4  -5    3.87    0.33
   5   4  -5   48.72    1.80
   6   4  -5   20.44    0.90
   7   4  -5    7.37    0.66
   8   4  -5   18.99    1.21
   9   4  -5  102.21    4.91
  10   4  -5    7.39    0.68
  11   4  -5    5.92    0.60
  12   4  -5   36.98    2.05
  -6   5  -5    0.92    0.36
  -5   5  -5    8.67    0.84
  -4   5  -5   18.90    1.34
  -3   5  -5   51.87    2.93
  -2   5  -5   16.90    0.85
  -1   5  -5    0.36    0.18
   0   5  -5   12.04    0.67
   1   5  -5    0.77    0.20
   2   5  -5   17.37    0.85
   3   5  -5   52.98    1.99
   4   5  -5   18.94    0.90
   5   5  -5    8.72    0.55
   6   5  -5    0.78    0.31
  -8  -5  -4   14.46    1.69
  -7  -5  -4   93.02    5.85
  -6  -5  -4   28.77    2.51
  -5  -5  -4   34.72    2.91
  -4  -5  -4    8.02    1.38
  -3  -5  -4   80.63    5.38
  -2  -5  -4   19.15    2.01
  -1  -5  -4   46.06    3.52
   0  -5  -4    0.00    0.45
   1  -5  -4   46.44    3.63
   2  -5  -4   22.12    2.33
   3  -5  -4   82.01    5.74
   4  -5  -4    8.25    1.70
   5  -5  -4   34.47    3.44
   6  -5  -4   31.37    3.24
   7  -5  -4   80.92    6.63
 -13  -4  -4   24.67    2.23
 -12  -4  -4   23.13    2.07
 -11  -4  -4   80.77    5.03
 -10  -4  -4   70.01    4.64
  -9  -4  -4   41.42    3.02
  -8  -4  -4   -0.30    0.29
  -7  -4  -4    9.46    1.14
  -6  -4  -4    0.98    0.48
  -5  -4  -4   10.73    1.22
  -4  -4  -4   18.39    1.66
  -3  -4  -4  113.89    6.72
  -2  -4  -4   31.62    2.36
  -1  -4  -4  121.91    7.30
   0  -4  -4   21.75    1.95
   1  -4  -4  120.48    7.40
   2  -4  -4   30.02    2.49
   3  -4  -4  109.54    7.00
   4  -4  -4   16.81    1.88
   5  -4  -4   11.80    1.85
   6  -4  -4    1.37    0.76
   7  -4  -4    9.23    1.80
   8  -4  -4   -0.34    0.52
   9  -4  -4   39.02    3.89
  10  -4  -4   69.04    5.85
  11  -4  -4   74.18    6.28
  12  -4  -4   21.15    3.38
 -14  -3  -4   38.09    2.80
 -13  -3  -4   36.80    2.72
 -12  -3  -4    2.53    0.67
 -11  -3  -4   13.47    1.31
 -10  -3  -4   12.75    1.28
  -9  -3  -4    8.67    1.01
  -8  -3  -4   29.71    2.15
  -7  -3  -4  181.98   10.03
  -6  -3  -4   62.77    3.88
  -5  -3  -4   68.36    4.05
  -4  -3  -4   13.58    1.22
  -3  -3  -4  174.18    9.73
  -2  -3  -4   49.78    3.12
  -1  -3  -4  102.01    6.20
   0  -3  -4    0.08    0.25
   1  -3  -4  108.66    6.33
   2  -3  -4   48.77    3.28
   3  -3  -4  174.83   10.05
   4  -3  -4   14.24    1.53
   5  -3  -4   63.52    2.54
   6  -3  -4   61.71    2.48
   7  -3  -4  165.13   10.78
   8  -3  -4   27.80    2.82
   9  -3  -4    6.60    1.60
  10  -3  -4   12.45    2.22
  11  -3  -4   13.00    2.33
  12  -3  -4    3.61    1.39
  13  -3  -4   33.99    3.73
  14  -3  -4   31.60    3.70
  15  -3  -4   21.78    3.37
 -17  -2  -4    6.80    0.78
 -16  -2  -4    0.86    0.31
 -15  -2  -4   13.72    1.00
 -14  -2  -4   13.04    0.94
 -13  -2  -4   34.49    1.25
 -12  -2  -4   36.95    1.36
  -8  -2  -4    0.20    0.24
  -7  -2  -4   16.96    1.33
  -6  -2  -4    3.63    0.58
  -5  -2  -4   34.83    2.25
  -4  -2  -4   42.59    2.50
  -3  -2  -4  244.64   13.07
  -2  -2  -4   68.86    4.00
  -1  -2  -4  249.73   13.39
   0  -2  -4   41.70    2.64
   1  -2  -4  255.39   13.50
   3  -2  -4  234.57    8.20
   4  -2  -4   40.57    1.63
   5  -2  -4   37.12    1.54
   6  -2  -4    4.41    0.49
   7  -2  -4   16.76    1.02
   8  -2  -4    1.20    0.74
   9  -2  -4   67.87    5.37
  10  -2  -4  133.08    8.97
  11  -2  -4  115.27    8.50
  12  -2  -4   34.53    3.56
  13  -2  -4   30.29    3.35
  14  -2  -4   11.98    2.28
  15  -2  -4   10.10    2.15
  16  -2  -4    0.29    0.82
  17  -2  -4    3.58    1.33
 -18  -1  -4    7.57    0.52
 -17  -1  -4   13.42    0.69
 -16  -1  -4   65.59    3.09
 -15  -1  -4   30.87    1.70
 -14  -1  -4   54.40    1.91
 -13  -1  -4   55.95    1.93
 -12  -1  -4    4.42    0.35
 -11  -1  -4   21.96    1.00
 -10  -1  -4   22.33    0.78
  -9  -1  -4    8.85    0.53
  -4  -1  -4   21.87    1.34
  -3  -1  -4  306.67   10.01
  -2  -1  -4   98.02    5.29
  -1  -1  -4  214.78   11.73
   0  -1  -4    0.18    0.11
   1  -1  -4  215.09    7.42
   2  -1  -4   98.42    3.47
   3  -1  -4  291.90   10.21
   4  -1  -4   20.89    1.10
   5  -1  -4  108.81    4.22
   6  -1  -4  112.86    4.25
   7  -1  -4  307.84   10.06
   8  -1  -4   49.47    1.86
   9  -1  -4    8.08    1.63
  10  -1  -4   19.29    2.34
  11  -1  -4   14.89    2.35
  12  -1  -4    2.72    1.06
  13  -1  -4   47.31    4.31
  14  -1  -4   46.87    4.24
  15  -1  -4   28.48    3.02
  16  -1  -4   55.12    4.84
  17  -1  -4   12.20    2.12
  18  -1  -4    5.49    1.45
 -18   0  -4    0.19    0.22
 -17   0  -4    5.96    0.50
 -16   0  -4    0.87    0.21
 -15   0  -4   14.19    0.71
 -14   0  -4   15.61    0.74
 -13   0  -4   38.55    1.44
 -12   0  -4   48.36    1.45
 -11   0  -4  156.30    5.30
 -10   0  -4  175.88    5.95
  -9   0  -4   98.66    2.75
  -8   0  -4    0.28    0.14
  -7   0  -4   23.73    0.83
  -6   0  -4    5.76    0.52
  -5   0  -4   62.29    2.20
  -4   0  -4   65.43    2.29
  -3   0  -4  336.66   10.94
  -1   0  -4  335.94   11.46
   0   0  -4   64.14    1.90
   1   0  -4  357.92   12.70
   2   0  -4  118.46    3.19
   3   0  -4  350.32   11.63
   4   0  -4   65.44    1.84
   5   0  -4   59.71    1.72
   6   0  -4    5.50    0.35
   7   0  -4   21.27    0.92
   8   0  -4    0.30    0.09
   9   0  -4   97.46    3.48
  10   0  -4  166.67   10.46
  11   0  -4  144.07    9.42
  12   0  -4   45.13    3.66
  13   0  -4   33.85    3.13
  14   0  -4   14.32    2.10
  15   0  -4   14.01    2.12
  16   0  -4    0.97    0.70
  17   0  -4    5.39    1.34
  18   0  -4    0.39    0.64
 -18   1  -4    7.64    0.81
 -17   1  -4   12.15    0.71
 -16   1  -4   63.21    2.30
 -15   1  -4   32.19    1.30
 -14   1  -4   53.11    1.93
 -13   1  -4   54.45    1.94
 -12   1  -4    4.10    0.31
 -11   1  -4   17.65    0.66
 -10   1  -4   20.94    0.72
  -9   1  -4    7.47    0.48
  -8   1  -4   47.26    1.74
  -7   1  -4  295.05    7.59
  -6   1  -4  119.04    3.11
  -5   1  -4  118.29    3.10
  -4   1  -4   21.90    0.68
  -3   1  -4  288.60    7.73
  -2   1  -4   95.48    2.58
  -1   1  -4  211.01    5.66
   0   1  -4    0.14    0.06
   1   1  -4  216.82    5.09
   2   1  -4   97.12    2.30
   3   1  -4  297.87    6.94
   4   1  -4   20.67    0.67
   5   1  -4  115.60    3.23
   6   1  -4  115.73    3.24
   7   1  -4  283.66    9.94
   8   1  -4   47.00    1.84
   9   1  -4    7.84    0.47
  10   1  -4   21.35    0.96
  11   1  -4   20.21    0.88
  12   1  -4    4.27    1.16
  13   1  -4   51.19    4.16
  14   1  -4   49.15    4.11
  15   1  -4   32.10    3.04
  16   1  -4   66.97    4.90
  17   1  -4   13.43    2.12
 -17   2  -4    4.12    0.46
 -16   2  -4    1.05    0.24
 -15   2  -4   12.61    0.71
 -14   2  -4   12.37    0.68
 -13   2  -4   32.30    1.33
 -12   2  -4   36.88    1.18
 -11   2  -4  127.04    3.47
 -10   2  -4  133.72    3.64
  -9   2  -4   73.73    2.06
  -8   2  -4    0.33    0.09
  -7   2  -4   16.64    0.58
  -6   2  -4    4.02    0.21
  -5   2  -4   35.31    1.02
  -4   2  -4   38.61    1.12
  -3   2  -4  238.19    6.22
  -2   2  -4   68.17    1.86
  -1   2  -4  242.19    6.36
   0   2  -4   41.15    1.17
   1   2  -4  246.85    6.34
   2   2  -4   67.08    1.83
   3   2  -4  241.92    5.61
   4   2  -4   39.33    1.21
   5   2  -4   34.03    1.09
   6   2  -4    3.91    0.22
   7   2  -4   17.02    0.60
   8   2  -4    0.60    0.16
   9   2  -4   73.23    2.82
  10   2  -4  132.30    4.89
  11   2  -4  125.62    4.69
  12   2  -4   39.34    1.66
  13   2  -4   39.38    3.79
  14   2  -4   15.46    2.53
  15   2  -4   14.07    2.34
  16   2  -4    1.67    0.88
  17   2  -4    4.90    1.38
 -15   3  -4   24.22    1.14
 -14   3  -4   36.34    1.49
 -13   3  -4   35.96    1.44
 -12   3  -4    3.38    0.29
 -11   3  -4   13.45    0.54
 -10   3  -4   12.31    0.51
  -9   3  -4    9.06    0.40
  -8   3  -4   27.81    0.90
  -7   3  -4  178.53    4.66
  -6   3  -4   61.96    1.73
  -5   3  -4   64.65    1.80
  -4   3  -4   13.19    0.48
  -3   3  -4  173.26    4.54
  -2   3  -4   48.15    1.36
  -1   3  -4  107.50    2.84
   0   3  -4    0.30    0.07
   1   3  -4  106.85    3.46
   2   3  -4   47.88    1.65
   3   3  -4  174.17    5.51
   4   3  -4   13.40    0.58
   5   3  -4   64.35    2.17
   6   3  -4   60.99    1.87
   7   3  -4  175.93    4.97
   8   3  -4   26.78    1.28
   9   3  -4    8.32    0.58
  10   3  -4   11.81    0.74
  11   3  -4   10.86    0.73
  12   3  -4    2.92    0.38
  13   3  -4   34.98    1.64
  14   3  -4   38.56    3.89
  15   3  -4   33.94    3.55
 -12   4  -4   23.07    1.09
 -11   4  -4   80.06    2.83
 -10   4  -4   70.32    2.60
  -9   4  -4   40.10    1.62
  -8   4  -4    0.45    0.17
  -7   4  -4    7.94    0.51
  -6   4  -4    1.52    0.24
  -5   4  -4   10.57    0.57
  -4   4  -4   16.91    0.62
  -3   4  -4  110.37    3.00
  -2   4  -4   28.86    1.13
  -1   4  -4  120.43    3.97
   0   4  -4   22.88    0.93
   1   4  -4  121.45    3.98
   2   4  -4   28.36    1.13
   3   4  -4  106.80    3.64
   4   4  -4   16.93    0.75
   5   4  -4   10.56    0.54
   6   4  -4    1.76    0.23
   7   4  -4    8.25    0.68
   8   4  -4   -0.03    0.15
   9   4  -4   41.91    2.13
  10   4  -4   68.66    3.39
  11   4  -4   76.48    3.66
  12   4  -4   23.37    1.37
  13   4  -4   25.19    1.49
  -8   5  -4   14.41    1.17
  -7   5  -4   87.57    3.19
  -6   5  -4   28.01    1.78
  -5   5  -4   35.55    2.10
  -4   5  -4    7.75    0.76
  -3   5  -4   77.96    4.07
  -2   5  -4   19.02    0.91
  -1   5  -4   44.13    1.68
   0   5  -4    0.07    0.13
   1   5  -4   44.63    1.69
   2   5  -4   19.29    0.91
   3   5  -4   77.16    2.76
   4   5  -4    7.45    0.50
   5   5  -4   32.51    1.38
   6   5  -4   26.66    1.16
  -8  -5  -3   60.22    4.23
  -7  -5  -3    0.35    0.51
  -6  -5  -3    1.35    0.66
  -5  -5  -3    3.90    1.02
  -4  -5  -3    1.55    0.70
  -3  -5  -3    0.16    0.41
  -2  -5  -3  239.04   13.73
  -1  -5  -3    4.11    1.06
   0  -5  -3   66.98    4.87
   1  -5  -3    3.17    1.02
   2  -5  -3  219.10   13.81
   3  -5  -3    0.20    0.61
   4  -5  -3    1.47    0.88
   5  -5  -3    4.51    1.35
   6  -5  -3    0.57    0.82
   7  -5  -3   -0.20    0.72
   8  -5  -3   58.62    5.14
 -13  -4  -3    4.44    1.03
 -12  -4  -3    5.32    1.10
 -11  -4  -3   -0.11    0.37
 -10  -4  -3    8.73    1.29
  -9  -4  -3   16.11    1.66
  -8  -4  -3   36.23    2.68
  -7  -4  -3    0.77    0.50
  -6  -4  -3  403.17   21.84
  -5  -4  -3   20.57    1.84
  -4  -4  -3  108.62    6.68
  -3  -4  -3    0.00    0.31
  -2  -4  -3   37.58    2.81
  -1  -4  -3    0.67    0.44
   0  -4  -3    0.26    0.36
   1  -4  -3    0.98    0.50
   2  -4  -3   33.38    2.86
   3  -4  -3    0.84    0.54
   4  -4  -3  102.71    6.98
   5  -4  -3   18.59    2.12
   6  -4  -3  357.39   22.38
   7  -4  -3    0.20    0.61
   8  -4  -3   32.81    3.34
   9  -4  -3   13.52    2.44
  10  -4  -3    4.19    1.54
  11  -4  -3   -0.21    0.83
  12  -4  -3    5.57    1.80
 -15  -3  -3    0.30    0.45
 -14  -3  -3    0.96    0.51
 -13  -3  -3   30.43    2.49
 -12  -3  -3  187.35   10.40
 -11  -3  -3   -0.07    0.29
 -10  -3  -3   85.39    5.04
  -9  -3  -3   27.77    2.12
  -8  -3  -3  131.42    7.35
  -7  -3  -3    0.36    0.30
  -6  -3  -3    0.34    0.32
  -5  -3  -3   11.92    1.15
  -4  -3  -3    9.46    1.01
  -3  -3  -3    0.96    0.37
  -2  -3  -3  509.96   27.69
  -1  -3  -3    9.69    1.00
   0  -3  -3  120.89    7.06
   1  -3  -3   10.59    1.09
   2  -3  -3  502.32   27.86
   3  -3  -3    0.57    0.44
   4  -3  -3    8.99    1.34
   5  -3  -3   11.46    1.63
   6  -3  -3    0.53    0.17
   7  -3  -3    0.25    0.51
   8  -3  -3  113.76    8.07
   9  -3  -3   26.71    2.83
  10  -3  -3   73.84    5.96
  11  -3  -3    1.04    0.95
  12  -3  -3  152.07   11.46
  13  -3  -3   26.91    3.36
  14  -3  -3    0.44    0.89
  15  -3  -3    0.04    0.80
 -17  -2  -3   26.34    1.68
 -16  -2  -3  100.41    4.85
 -15  -2  -3    0.40    0.24
 -14  -2  -3    0.52    0.24
 -13  -2  -3    9.16    0.70
 -12  -2  -3   13.01    0.59
 -11  -2  -3    0.86    0.12
 -10  -2  -3   12.46    0.51
  -9  -2  -3   34.84    1.75
  -6  -2  -3  744.95   39.24
  -5  -2  -3   49.88    3.04
  -4  -2  -3  230.16    7.53
  -3  -2  -3    0.34    0.07
  -2  -2  -3  110.20    3.69
  -1  -2  -3    3.05    0.49
   0  -2  -3   -0.19    0.19
   1  -2  -3    2.93    0.52
   2  -2  -3  105.76    6.23
   3  -2  -3    0.40    0.33
   4  -2  -3  212.00   12.52
   5  -2  -3   49.50    1.92
   6  -2  -3  739.78   31.24
   7  -2  -3    2.01    0.35
   8  -2  -3   47.03    3.95
   9  -2  -3   35.54    3.31
  10  -2  -3   11.72    2.11
  11  -2  -3    1.00    0.86
  12  -2  -3   10.95    2.17
  13  -2  -3    7.94    1.83
  14  -2  -3    0.98    0.88
  15  -2  -3    0.63    0.86
  16  -2  -3   85.68    7.30
  17  -2  -3   21.64    3.29
 -18  -1  -3   13.03    0.68
 -17  -1  -3    1.65    0.26
 -16  -1  -3   29.18    1.17
 -15  -1  -3    0.73    0.23
 -14  -1  -3    0.30    0.14
 -13  -1  -3   51.92    1.77
 -12  -1  -3  261.99    8.27
 -11  -1  -3    0.93    0.15
 -10  -1  -3  127.38    5.86
  -9  -1  -3   55.27    2.05
  -3  -1  -3    1.06    0.23
  -2  -1  -3  856.37   41.58
  -1  -1  -3   22.35    1.34
   0  -1  -3  205.56   10.97
   1  -1  -3   22.34    0.87
   2  -1  -3  705.29   25.87
   3  -1  -3    1.29    0.22
   4  -1  -3   33.32    1.41
   5  -1  -3   21.20    1.08
   6  -1  -3    0.71    0.21
   7  -1  -3    0.99    0.18
   8  -1  -3  216.96    7.76
   9  -1  -3   41.94    3.88
  10  -1  -3  105.49    7.93
  11  -1  -3    0.37    0.63
  13  -1  -3   36.81    3.93
  14  -1  -3    0.85    0.76
  15  -1  -3    0.08    0.56
  16  -1  -3   27.90    3.02
  17  -1  -3    2.17    1.02
  18  -1  -3   11.04    2.04
 -18   0  -3   28.84    1.63
 -17   0  -3   32.34    1.77
 -16   0  -3  119.09    3.96
 -15   0  -3    0.41    0.15
 -14   0  -3    0.68    0.16
 -13   0  -3   11.80    0.58
 -12   0  -3   17.58    0.76
 -11   0  -3    0.15    0.09
 -10   0  -3   14.52    0.55
  -9   0  -3   52.45    1.49
  -8   0  -3   60.90    1.73
  -7   0  -3    3.18    0.24
  -6   0  -3  821.39   26.62
  -5   0  -3   76.51    2.67
  -4   0  -3  292.26   13.01
  -3   0  -3    0.85    0.20
  -2   0  -3  155.39    5.11
  -1   0  -3    5.85    0.48
   0   0  -3    0.31    0.25
   1   0  -3    5.90    0.38
   2   0  -3  158.31    4.33
   3   0  -3    0.35    0.12
   4   0  -3  295.21    8.17
   5   0  -3   78.39    3.37
   6   0  -3  866.94   36.52
   7   0  -3    2.44    0.19
   8   0  -3   58.05    2.20
   9   0  -3   49.62    1.88
  10   0  -3   13.25    1.95
  11   0  -3    0.31    0.50
  12   0  -3   17.75    2.03
  13   0  -3   12.74    1.95
  14   0  -3    0.47    0.58
  15   0  -3    0.21    0.53
  16   0  -3  127.54    8.09
  17   0  -3   32.55    3.13
  18   0  -3   29.38    2.93
 -18   1  -3   10.98    0.98
 -17   1  -3    1.21    0.24
 -16   1  -3   29.61    1.21
 -15   1  -3    0.52    0.17
 -14   1  -3    0.63    0.17
 -13   1  -3   46.88    1.77
 -12   1  -3  255.36    8.27
 -11   1  -3    1.02    0.14
 -10   1  -3  120.99    3.24
  -9   1  -3   48.48    1.41
  -8   1  -3  223.95    7.36
  -7   1  -3    0.88    0.10
  -6   1  -3    0.40    0.08
  -5   1  -3   22.66    0.67
  -4   1  -3   32.23    0.92
  -3   1  -3    1.05    0.10
  -2   1  -3  673.26   24.18
  -1   1  -3   21.94    0.63
   0   1  -3  199.70    5.24
   1   1  -3   21.51    0.56
   2   1  -3  807.94   24.98
   3   1  -3    1.07    0.09
   4   1  -3   31.48    0.97
   5   1  -3   22.12    0.69
   6   1  -3    0.33    0.06
   7   1  -3    0.95    0.09
   8   1  -3  236.35    9.63
   9   1  -3   49.81    1.96
  10   1  -3  126.97    4.42
  11   1  -3    0.88    0.15
  12   1  -3  255.11   15.40
  13   1  -3   55.55    4.14
  14   1  -3   -0.39    0.42
  15   1  -3    0.59    0.66
  16   1  -3   32.11    2.96
  17   1  -3    1.42    0.84
  18   1  -3   12.10    1.97
 -17   2  -3   27.52    1.22
 -16   2  -3  102.85    3.50
 -15   2  -3    0.36    0.16
 -14   2  -3    0.65    0.23
 -13   2  -3    8.52    0.50
 -12   2  -3   12.36    0.63
 -11   2  -3    0.24    0.09
 -10   2  -3   10.80    0.44
  -9   2  -3   34.71    1.06
  -8   2  -3   48.87    1.39
  -7   2  -3    1.52    0.15
  -6   2  -3  730.70   16.03
  -5   2  -3   48.92    1.15
  -4   2  -3  221.40    5.76
  -3   2  -3    0.18    0.06
  -2   2  -3  108.43    3.43
  -1   2  -3    3.12    0.15
   0   2  -3   -0.04    0.06
   1   2  -3    2.82    0.14
   2   2  -3  107.59    3.51
   3   2  -3    0.18    0.04
   4   2  -3  222.10    6.96
   5   2  -3   47.38    1.45
   6   2  -3  756.51   22.71
   7   2  -3    1.81    0.16
   8   2  -3   47.72    1.90
   9   2  -3   34.88    1.47
  10   2  -3   10.83    0.63
  11   2  -3   -0.01    0.11
  12   2  -3   14.71    0.76
  13   2  -3   10.72    2.02
  14   2  -3    0.25    0.60
  15   2  -3    0.41    0.60
  16   2  -3  104.59    7.09
  17   2  -3   30.03    2.93
 -16   3  -3   24.32    1.49
 -15   3  -3    0.89    0.23
 -14   3  -3    0.82    0.22
 -13   3  -3   30.29    1.26
 -12   3  -3  175.33    5.77
 -11   3  -3    0.38    0.12
 -10   3  -3   79.02    2.21
  -9   3  -3   25.62    0.84
  -8   3  -3  126.18    3.32
  -7   3  -3    0.17    0.08
  -6   3  -3    0.66    0.10
  -5   3  -3   11.23    0.34
  -4   3  -3    9.67    0.36
  -3   3  -3    0.49    0.09
  -2   3  -3  521.50   13.17
  -1   3  -3    9.92    0.36
   0   3  -3  126.50    3.22
   1   3  -3    9.86    0.36
   2   3  -3  520.56   15.96
   3   3  -3    0.61    0.12
   4   3  -3    9.39    0.44
   5   3  -3   11.52    0.50
   6   3  -3    0.61    0.12
   7   3  -3    0.38    0.10
   8   3  -3  123.99    5.54
   9   3  -3   25.52    1.21
  10   3  -3   75.60    3.03
  11   3  -3    0.28    0.16
  12   3  -3  175.54    6.39
  13   3  -3   32.28    1.48
  14   3  -3    0.73    0.83
  15   3  -3    1.13    0.92
 -12   4  -3    6.12    0.81
 -11   4  -3   -0.04    0.13
 -10   4  -3    4.50    0.42
  -9   4  -3   15.44    0.79
  -8   4  -3   30.10    1.30
  -7   4  -3    0.52    0.16
  -6   4  -3  398.58   12.85
  -5   4  -3   20.10    0.88
  -4   4  -3  111.32    2.98
  -3   4  -3    0.40    0.10
  -2   4  -3   38.30    1.12
  -1   4  -3    1.46    0.20
   0   4  -3    0.16    0.10
   1   4  -3    1.08    0.18
   2   4  -3   36.66    1.37
   3   4  -3    0.21    0.11
   4   4  -3  109.76    3.62
   5   4  -3   19.61    0.83
   6   4  -3  390.84   12.40
   7   4  -3    0.39    0.13
   8   4  -3   34.05    1.76
   9   4  -3   17.09    1.06
  10   4  -3    4.38    0.55
  11   4  -3   -0.06    0.15
  12   4  -3    6.25    0.60
  13   4  -3    5.45    0.63
  -9   5  -3   12.02    1.06
  -8   5  -3   56.99    2.18
  -7   5  -3    0.08    0.16
  -6   5  -3    0.20    0.15
  -5   5  -3    4.27    0.62
  -4   5  -3    1.71    0.40
  -3   5  -3    0.11    0.20
  -2   5  -3  236.13    7.53
  -1   5  -3    4.36    0.40
   0   5  -3   68.55    2.42
   1   5  -3    4.64    0.42
   2   5  -3  230.93    7.53
   3   5  -3    0.28    0.15
   4   5  -3    1.63    0.26
   5   5  -3    4.11    0.40
   6   5  -3    0.13    0.14
   7   5  -3    0.51    0.28
   8   5  -3   57.05    2.89
  -8  -5  -2    7.73    1.51
  -7  -5  -2   63.76    4.59
  -6  -5  -2    1.48    0.74
  -5  -5  -2    6.98    1.37
  -4  -5  -2   13.38    1.70
  -3  -5  -2   43.73    3.40
  -2  -5  -2    0.13    0.45
  -1  -5  -2    0.13    0.48
   0  -5  -2   -0.23    0.47
   1  -5  -2   -0.23    0.45
   2  -5  -2    0.53    0.61
   3  -5  -2   38.42    3.44
   4  -5  -2   12.80    2.11
   5  -5  -2    7.09    1.63
   6  -5  -2    1.45    1.00
   7  -5  -2   52.34    4.98
   8  -5  -2    9.84    2.18
 -13  -4  -2   23.17    2.24
 -12  -4  -2   26.14    2.31
 -11  -4  -2   60.43    4.25
 -10  -4  -2   12.15    1.45
  -9  -4  -2    3.28    0.87
  -8  -4  -2    7.14    1.24
  -7  -4  -2    0.51    0.46
  -6  -4  -2   40.73    2.99
  -5  -4  -2   14.66    1.49
  -4  -4  -2    9.22    1.36
  -3  -4  -2   33.43    2.49
  -2  -4  -2    1.60    0.59
  -1  -4  -2   11.06    1.28
   0  -4  -2   21.58    1.98
   1  -4  -2    9.29    1.37
   2  -4  -2    1.60    0.65
   3  -4  -2   28.26    2.53
   4  -4  -2    9.53    1.55
   5  -4  -2   13.05    1.89
   6  -4  -2   39.29    3.42
   7  -4  -2    0.95    0.73
   8  -4  -2    6.85    1.66
   9  -4  -2    1.25    0.92
  10  -4  -2    9.41    2.09
  11  -4  -2   50.67    5.11
  12  -4  -2   18.74    3.23
  13  -4  -2   17.70    3.21
 -13  -3  -2    8.32    1.33
 -12  -3  -2    0.52    0.44
 -11  -3  -2  116.05    6.83
 -10  -3  -2  155.63    8.75
  -9  -3  -2   28.84    2.31
  -8  -3  -2   22.04    1.81
  -7  -3  -2  135.21    7.70
  -6  -3  -2    0.89    0.43
  -5  -3  -2   37.86    2.65
  -4  -3  -2   24.92    1.95
  -3  -3  -2   85.73    5.15
  -2  -3  -2   -0.09    0.21
  -1  -3  -2    1.45    0.45
   0  -3  -2    0.18    0.25
   1  -3  -2    0.48    0.34
   2  -3  -2   -0.06    0.26
   3  -3  -2   82.75    5.30
   5  -3  -2   33.98    2.85
   6  -3  -2    1.16    0.63
   7  -3  -2  116.96    8.13
   8  -3  -2   15.44    2.37
   9  -3  -2   21.79    2.72
  10  -3  -2  123.91    9.48
  11  -3  -2   87.80    7.52
  12  -3  -2    0.52    0.80
  13  -3  -2    5.32    1.73
  14  -3  -2    1.55    1.12
  15  -3  -2    7.31    1.94
 -18  -2  -2   14.42    1.10
 -17  -2  -2    7.52    0.73
 -16  -2  -2    0.37    0.25
 -15  -2  -2  115.65    5.30
 -14  -2  -2   90.13    4.26
 -13  -2  -2   30.69    1.69
 -12  -2  -2   38.91    1.36
 -11  -2  -2  104.83    3.25
 -10  -2  -2   15.83    0.63
  -9  -2  -2    8.20    0.38
  -8  -2  -2   12.83    0.75
  -7  -2  -2    2.18    0.25
  -6  -2  -2  106.07    4.51
  -5  -2  -2   30.48    1.15
  -4  -2  -2   18.55    0.74
  -3  -2  -2   58.60    2.06
  -2  -2  -2    1.25    0.09
  -1  -2  -2   11.59    0.95
   0  -2  -2   38.06    2.48
   1  -2  -2   11.65    1.01
   2  -2  -2    0.93    0.34
   3  -2  -2   62.31    2.54
   4  -2  -2   18.50    0.76
   5  -2  -2   30.58    1.18
   6  -2  -2  104.43    2.86
   7  -2  -2    2.65    0.23
   8  -2  -2   14.14    0.70
   9  -2  -2    8.17    0.51
  10  -2  -2   14.24    0.81
  11  -2  -2  102.17    3.88
  12  -2  -2   38.59    1.70
  13  -2  -2   31.90    1.48
  14  -2  -2   78.38    6.70
  15  -2  -2  103.33    8.07
  16  -2  -2    0.68    0.89
  17  -2  -2    7.33    1.89
 -19  -1  -2   37.77    2.04
 -18  -1  -2   37.95    1.47
 -17  -1  -2   25.75    1.08
 -16  -1  -2   55.96    1.95
 -15  -1  -2    9.55    0.50
 -14  -1  -2    2.02    0.23
 -13  -1  -2   11.12    0.52
 -12  -1  -2    1.29    0.19
 -11  -1  -2  188.25    5.94
 -10  -1  -2  255.43    8.07
  -9  -1  -2   37.98    1.33
  -2  -1  -2    1.00    0.22
  -1  -1  -2    5.56    0.48
   0  -1  -2    0.34    0.16
   1  -1  -2    5.16    0.53
   2  -1  -2    2.39    0.44
   3  -1  -2  159.69    5.78
   4  -1  -2   44.46    1.24
   5  -1  -2   99.92    2.94
   6  -1  -2    1.39    0.13
   7  -1  -2  229.34    6.23
   8  -1  -2   29.75    1.31
   9  -1  -2   36.59    1.59
  10  -1  -2  262.23   11.19
  11  -1  -2  179.29    6.71
  12  -1  -2    1.27    0.24
  13  -1  -2   11.98    2.17
  14  -1  -2    2.21    1.09
  15  -1  -2    8.12    1.81
  16  -1  -2   52.96    4.59
  17  -1  -2   24.86    2.85
  18  -1  -2   43.37    3.72
 -18   0  -2   16.33    0.80
 -17   0  -2    7.82    0.48
 -16   0  -2    0.44    0.15
 -15   0  -2  133.48    4.37
 -14   0  -2  112.12    3.68
 -13   0  -2   34.92    1.29
 -12   0  -2   46.19    1.66
 -11   0  -2  131.53    4.13
 -10   0  -2   18.23    0.61
  -9   0  -2   15.54    0.54
  -8   0  -2   17.76    0.58
  -7   0  -2    3.48    0.20
  -6   0  -2  155.11    4.13
  -5   0  -2   45.99    1.29
  -4   0  -2   25.34    0.97
  -3   0  -2   82.97    2.81
  -2   0  -2    1.01    0.21
  -1   0  -2   13.30    0.66
   0   0  -2   66.91    3.20
   1   0  -2   15.61    0.55
   2   0  -2    0.79    0.13
   3   0  -2   83.99    2.98
   4   0  -2   26.38    1.14
   5   0  -2   42.98    1.67
   6   0  -2  165.37    6.68
   7   0  -2    3.11    0.20
   8   0  -2   17.86    0.74
   9   0  -2   16.03    0.68
  10   0  -2   19.90    2.14
  11   0  -2  125.81    8.22
  12   0  -2   47.10    3.83
  13   0  -2   37.26    3.19
  14   0  -2  115.92    7.47
  15   0  -2  138.24    8.67
  16   0  -2    0.16    0.53
  17   0  -2    9.38    1.72
  18   0  -2   16.85    2.04
 -18   1  -2   35.60    2.04
 -17   1  -2   25.45    1.11
 -16   1  -2   55.60    2.00
 -15   1  -2    8.38    0.50
 -14   1  -2    2.10    0.25
 -13   1  -2    9.74    0.52
 -12   1  -2    1.14    0.18
 -11   1  -2  185.14    4.91
 -10   1  -2  250.58    6.66
  -9   1  -2   37.12    1.09
  -8   1  -2   29.93    0.90
  -7   1  -2  232.57    5.99
  -6   1  -2    1.13    0.08
  -5   1  -2  107.37    2.75
  -4   1  -2   42.23    1.14
  -3   1  -2  171.00    4.38
  -2   1  -2    0.88    0.07
  -1   1  -2    5.55    0.19
   0   1  -2    0.08    0.03
   1   1  -2    5.74    0.17
   2   1  -2    0.85    0.08
   3   1  -2  174.04    5.29
   4   1  -2   43.06    1.36
   5   1  -2  108.97    3.31
   6   1  -2    1.02    0.09
   7   1  -2  239.72    7.21
   8   1  -2   32.23    0.98
   9   1  -2   38.78    1.53
  10   1  -2  270.54    8.90
  11   1  -2  196.47    6.58
  12   1  -2    1.18    0.71
  13   1  -2   13.16    1.89
  14   1  -2    2.31    0.86
  15   1  -2   11.44    1.79
  16   1  -2   58.78    4.34
  17   1  -2   29.96    2.73
  18   1  -2   39.65    3.36
 -17   2  -2    7.86    0.52
 -16   2  -2    0.58    0.18
 -15   2  -2  110.33    3.79
 -14   2  -2   86.69    3.06
 -13   2  -2   30.11    1.22
 -12   2  -2   36.87    1.42
 -11   2  -2  100.61    2.77
 -10   2  -2   15.20    0.54
  -9   2  -2    7.90    0.34
  -8   2  -2   12.82    0.46
  -7   2  -2    1.75    0.15
  -6   2  -2  102.42    2.31
  -5   2  -2   29.17    0.72
  -4   2  -2   18.84    0.47
  -3   2  -2   59.88    1.33
  -2   2  -2    1.03    0.07
  -1   2  -2   12.24    0.31
   0   2  -2   41.38    0.91
   1   2  -2   11.22    0.44
   2   2  -2    0.99    0.08
   3   2  -2   57.95    1.42
   4   2  -2   18.52    0.52
   5   2  -2   29.45    0.77
   6   2  -2  101.81    2.89
   7   2  -2    1.82    0.16
   8   2  -2   13.51    0.50
   9   2  -2    8.60    0.51
  10   2  -2   15.73    0.78
  11   2  -2  106.18    3.79
  12   2  -2   40.11    1.64
  13   2  -2   36.62    3.21
  14   2  -2   98.88    6.47
  15   2  -2  128.82    7.74
  16   2  -2    0.50    0.57
  17   2  -2    8.00    1.57
 -16   3  -2   40.77    2.23
 -15   3  -2    7.73    0.52
 -14   3  -2    2.17    0.29
 -13   3  -2    7.68    0.48
 -12   3  -2    0.97    0.20
 -11   3  -2  110.76    2.99
 -10   3  -2  148.37    3.91
  -9   3  -2   28.52    0.90
  -8   3  -2   20.01    0.66
  -7   3  -2  133.22    3.45
  -6   3  -2    1.11    0.12
  -5   3  -2   37.82    0.91
  -4   3  -2   25.42    0.78
  -3   3  -2   86.06    2.29
  -2   3  -2    0.08    0.06
  -1   3  -2    1.11    0.11
   0   3  -2    0.27    0.06
   1   3  -2    0.93    0.11
   2   3  -2    0.20    0.07
   3   3  -2   85.78    2.78
   4   3  -2   25.54    0.95
   5   3  -2   37.51    1.32
   6   3  -2    0.96    0.14
   7   3  -2  129.37    3.70
   8   3  -2   19.95    0.74
   9   3  -2   28.80    1.30
  10   3  -2  144.81    5.28
  11   3  -2  108.04    4.08
  12   3  -2    0.60    0.20
  13   3  -2    8.25    0.58
  14   3  -2    0.53    0.69
  15   3  -2   10.02    1.88
 -13   4  -2   22.19    1.56
 -12   4  -2   21.76    1.53
 -11   4  -2   59.06    2.21
 -10   4  -2    9.67    0.58
  -9   4  -2    1.50    0.24
  -8   4  -2    6.78    0.45
  -7   4  -2    0.62    0.16
  -6   4  -2   38.73    1.48
  -5   4  -2   12.17    0.61
  -4   4  -2   10.10    0.41
  -3   4  -2   29.59    0.93
  -2   4  -2    1.05    0.14
  -1   4  -2   10.77    0.42
   0   4  -2   23.32    0.91
   1   4  -2   10.72    0.52
   2   4  -2    1.13    0.18
   3   4  -2   29.27    1.14
   4   4  -2   10.03    0.50
   5   4  -2   12.15    0.59
   6   4  -2   38.31    1.43
   7   4  -2    0.33    0.13
   8   4  -2    7.35    0.43
   9   4  -2    1.23    0.29
  10   4  -2    9.69    0.77
  11   4  -2   62.39    2.94
  12   4  -2   22.51    1.37
  13   4  -2   22.54    1.38
  -9   5  -2   16.44    0.88
  -8   5  -2   10.37    0.65
  -7   5  -2   62.95    2.35
  -6   5  -2    1.36    0.26
  -5   5  -2    7.92    0.52
  -4   5  -2   14.46    1.06
  -3   5  -2   43.21    2.30
  -2   5  -2    0.75    0.19
  -1   5  -2    0.27    0.15
   0   5  -2    0.22    0.13
   1   5  -2    0.03    0.12
   2   5  -2    0.21    0.14
   3   5  -2   39.35    1.54
   4   5  -2   13.26    0.70
   5   5  -2    7.38    0.49
   6   5  -2    1.34    0.24
   7   5  -2   64.01    2.26
   8   5  -2   11.04    0.89
  -8  -5  -1    5.07    1.26
  -7  -5  -1   15.82    1.90
  -6  -5  -1    1.99    0.80
  -5  -5  -1   34.40    3.03
  -4  -5  -1   25.66    2.47
  -3  -5  -1   17.09    1.98
  -2  -5  -1   12.00    1.83
  -1  -5  -1   34.58    2.93
   0  -5  -1    4.84    1.16
   1  -5  -1   29.92    2.84
   2  -5  -1   10.66    1.81
   3  -5  -1   15.41    2.24
   4  -5  -1   21.21    2.49
   5  -5  -1   35.60    3.38
   6  -5  -1    0.68    0.84
   7  -5  -1   11.05    2.19
   8  -5  -1    3.58    1.45
 -13  -4  -1    0.10    0.48
 -12  -4  -1   12.00    1.79
 -11  -4  -1    0.39    0.54
 -10  -4  -1    7.30    1.34
  -9  -4  -1  111.26    6.92
  -8  -4  -1   47.60    3.50
  -7  -4  -1    3.39    0.87
  -6  -4  -1   27.41    2.36
  -5  -4  -1  111.19    7.01
  -4  -4  -1   16.97    1.71
  -3  -4  -1   12.86    1.46
  -2  -4  -1    2.30    0.68
  -1  -4  -1    0.90    0.48
   0  -4  -1    0.07    0.31
   1  -4  -1    0.53    0.45
   2  -4  -1    2.69    0.76
   3  -4  -1   13.61    1.59
   4  -4  -1   15.67    1.80
   5  -4  -1  100.37    7.17
   6  -4  -1   23.02    2.53
   7  -4  -1    3.54    1.13
   8  -4  -1   33.47    3.64
   9  -4  -1   94.01    7.50
  10  -4  -1    6.29    1.75
  11  -4  -1    0.75    0.96
  12  -4  -1    9.54    2.26
  13  -4  -1   -0.52    0.89
 -11  -3  -1    0.37    0.40
 -10  -3  -1   51.80    3.51
  -9  -3  -1   72.80    4.54
  -8  -3  -1    8.79    1.33
  -7  -3  -1   29.56    2.33
  -6  -3  -1    4.35    0.84
  -5  -3  -1   84.61    5.24
  -4  -3  -1   59.44    3.90
  -3  -3  -1   28.50    2.13
  -2  -3  -1   25.87    1.91
  -1  -3  -1   59.09    3.97
   0  -3  -1    8.30    0.94
   1  -3  -1   62.44    4.04
   2  -3  -1   23.78    1.92
   3  -3  -1   27.93    2.24
   4  -3  -1   55.22    3.99
   5  -3  -1   76.90    5.39
   6  -3  -1    4.80    1.08
   7  -3  -1   23.91    2.56
   8  -3  -1    9.63    1.78
   9  -3  -1   54.43    4.87
  10  -3  -1   43.83    4.12
  11  -3  -1    0.63    0.79
  12  -3  -1   51.25    4.68
  13  -3  -1   72.33    6.38
  14  -3  -1   10.63    2.28
  15  -3  -1   42.65    4.49
  16  -3  -1   31.28    3.76
 -18  -2  -1   35.27    2.05
 -17  -2  -1   31.40    1.86
 -16  -2  -1   57.13    2.84
 -15  -2  -1    3.64    0.51
 -14  -2  -1   38.17    2.05
 -13  -2  -1    0.49    0.20
 -12  -2  -1   24.93    1.35
 -11  -2  -1    1.97    0.20
 -10  -2  -1   11.90    0.50
  -9  -2  -1  218.09    6.43
  -8  -2  -1  102.05    3.09
  -7  -2  -1    1.27    0.17
  -6  -2  -1   51.77    1.58
  -5  -2  -1  240.75    8.00
  -4  -2  -1   35.22    1.32
  -3  -2  -1   24.70    0.93
  -2  -2  -1    4.80    0.24
  -1  -2  -1    1.28    0.14
   0  -2  -1    0.15    0.04
   1  -2  -1    1.09    0.08
   2  -2  -1    4.48    0.22
   3  -2  -1   23.83    0.93
   4  -2  -1   34.50    1.33
   5  -2  -1  233.40    8.04
   6  -2  -1   46.59    1.89
   7  -2  -1    1.61    0.20
   8  -2  -1   93.80    3.64
   9  -2  -1  206.72    7.42
  10  -2  -1   11.99    0.69
  11  -2  -1    1.53    0.26
  12  -2  -1   24.74    1.19
  13  -2  -1    1.07    0.25
  14  -2  -1   40.37    1.83
  15  -2  -1    3.62    0.45
  16  -2  -1   56.71    2.43
  17  -2  -1   31.59    3.50
 -19  -1  -1    0.10    0.21
 -18  -1  -1    9.97    0.57
 -17  -1  -1   11.09    0.60
 -16  -1  -1   44.07    1.61
 -15  -1  -1   60.86    2.09
 -14  -1  -1   14.50    0.64
 -13  -1  -1  114.23    3.68
 -12  -1  -1   85.51    2.26
 -11  -1  -1    1.37    0.14
 -10  -1  -1   74.15    2.43
  -9  -1  -1  102.48    3.30
  -8  -1  -1   13.80    0.55
  -7  -1  -1   51.89    2.24
  -2  -1  -1   40.38    2.44
  -1  -1  -1  117.33    3.99
   0  -1  -1   15.85    1.05
   1  -1  -1  107.77    6.47
   2  -1  -1   43.19    1.83
   3  -1  -1   46.30    1.68
   4  -1  -1  136.26    3.60
   5  -1  -1  163.79    5.11
   6  -1  -1    9.36    0.48
   7  -1  -1   48.04    1.97
   8  -1  -1   13.71    0.72
   9  -1  -1  101.96    3.84
  10  -1  -1   74.71    2.93
  11  -1  -1    1.56    0.25
  12  -1  -1   85.98    3.32
  13  -1  -1  116.20    4.41
  14  -1  -1   13.41    0.84
  15  -1  -1   65.00    2.59
  16  -1  -1   45.90    3.94
  17  -1  -1   11.99    2.02
  18  -1  -1   11.34    1.94
 -19   0  -1   77.91    3.81
 -18   0  -1   39.85    1.52
 -17   0  -1   34.01    1.33
 -16   0  -1   65.67    2.28
 -15   0  -1    4.33    0.33
 -14   0  -1   48.66    1.73
 -13   0  -1    1.20    0.17
 -12   0  -1   31.26    1.14
 -11   0  -1    2.50    0.23
 -10   0  -1   15.99    0.50
  -9   0  -1  277.51    7.16
  -8   0  -1  142.03    3.70
  -7   0  -1    0.37    0.08
  -6   0  -1   66.45    1.81
  -5   0  -1  302.48   10.39
  -4   0  -1   55.02    1.93
  -3   0  -1   32.50    1.82
  -2   0  -1    6.47    0.29
  -1   0  -1    1.01    0.13
   0   0  -1    0.26    0.10
   1   0  -1    1.19    0.43
   2   0  -1    6.29    0.29
   3   0  -1   33.20    0.96
   4   0  -1   56.76    2.05
   5   0  -1  339.33    9.74
   6   0  -1   67.74    1.90
   7   0  -1    0.38    0.06
   8   0  -1  140.41    3.85
   9   0  -1  280.79    7.43
  10   0  -1   13.94    0.75
  11   0  -1    3.14    0.34
  12   0  -1   31.29    1.39
  13   0  -1    1.22    0.23
  14   0  -1   51.54    3.90
  15   0  -1    4.55    1.11
  16   0  -1   71.32    4.97
  17   0  -1   41.57    3.25
  18   0  -1   42.50    3.46
  19   0  -1   80.00    5.65
 -18   1  -1   10.39    0.59
 -17   1  -1   11.77    0.51
 -16   1  -1   44.05    1.65
 -15   1  -1   60.19    2.15
 -14   1  -1   13.85    0.65
 -13   1  -1  113.94    3.78
 -12   1  -1   81.82    2.78
 -11   1  -1    1.10    0.16
 -10   1  -1   73.38    2.01
  -9   1  -1  101.19    2.73
  -8   1  -1   13.98    0.45
  -7   1  -1   49.55    1.36
  -6   1  -1    9.22    0.31
  -5   1  -1  167.05    3.68
  -4   1  -1  136.23    3.36
  -3   1  -1   47.53    1.05
  -2   1  -1   42.82    1.34
  -1   1  -1  123.61    3.05
   0   1  -1   15.95    0.44
   1   1  -1  121.10    3.04
   2   1  -1   42.14    1.01
   3   1  -1   47.11    1.13
   4   1  -1  135.59    3.44
   5   1  -1  173.84    5.22
   6   1  -1    8.92    0.33
   7   1  -1   49.98    1.48
   8   1  -1   14.40    0.52
   9   1  -1  105.41    3.71
  10   1  -1   78.48    2.78
  11   1  -1    1.64    0.17
  12   1  -1   92.21    5.76
  13   1  -1  124.15    7.46
  14   1  -1   16.90    1.82
  15   1  -1   70.58    4.61
  16   1  -1   47.50    3.62
  17   1  -1   15.43    1.76
  18   1  -1    9.69    1.64
 -18   2  -1   34.87    1.45
 -17   2  -1   31.80    1.31
 -16   2  -1   55.28    2.01
 -15   2  -1    3.81    0.36
 -14   2  -1   36.78    1.46
 -13   2  -1    0.92    0.18
 -12   2  -1   22.04    0.94
 -11   2  -1    1.60    0.20
 -10   2  -1   11.72    0.43
  -9   2  -1  209.05    5.47
  -8   2  -1   98.45    2.64
  -7   2  -1    1.37    0.13
  -6   2  -1   49.86    1.16
  -5   2  -1  245.07    5.19
  -4   2  -1   35.21    0.83
  -3   2  -1   24.62    0.58
  -2   2  -1    4.81    0.15
  -1   2  -1    1.23    0.07
   0   2  -1    0.10    0.04
   1   2  -1    0.96    0.08
   2   2  -1    4.36    0.18
   3   2  -1   24.50    0.69
   4   2  -1   36.22    0.91
   5   2  -1  229.90    5.52
   6   2  -1   51.60    1.27
   7   2  -1    1.59    0.15
   8   2  -1  100.41    2.83
   9   2  -1  207.55    5.82
  10   2  -1   11.39    0.62
  11   2  -1    1.48    0.21
  12   2  -1   24.72    1.10
  13   2  -1    0.82    0.64
  14   2  -1   44.79    3.49
  15   2  -1    4.29    1.11
  16   2  -1   61.63    4.35
  17   2  -1   37.36    3.06
 -16   3  -1   29.11    1.27
 -15   3  -1   46.50    1.80
 -14   3  -1   10.45    0.59
 -13   3  -1   79.74    2.80
 -12   3  -1   52.76    1.88
 -11   3  -1    0.53    0.15
 -10   3  -1   46.65    1.36
  -9   3  -1   64.51    1.84
  -8   3  -1   10.29    0.40
  -7   3  -1   30.52    0.90
  -6   3  -1    5.12    0.24
  -5   3  -1   87.99    1.95
  -4   3  -1   61.66    1.41
  -3   3  -1   28.14    0.84
  -2   3  -1   24.75    0.74
  -1   3  -1   67.19    1.76
   0   3  -1    8.64    0.32
   1   3  -1   65.88    1.76
   2   3  -1   24.64    0.74
   3   3  -1   28.69    0.84
   4   3  -1   59.84    2.02
   5   3  -1   84.57    2.78
   6   3  -1    4.53    0.29
   7   3  -1   30.40    1.00
   8   3  -1   10.94    0.47
   9   3  -1   66.63    2.02
  10   3  -1   44.67    1.91
  11   3  -1    0.43    0.17
  12   3  -1   52.93    2.17
  13   3  -1   85.47    3.20
  14   3  -1   11.29    1.88
  15   3  -1   56.02    4.22
  16   3  -1   35.44    3.13
 -13   4  -1    0.01    0.20
 -12   4  -1   13.09    1.02
 -11   4  -1    0.47    0.24
 -10   4  -1    6.90    0.46
  -9   4  -1  107.57    3.72
  -8   4  -1   43.92    1.69
  -7   4  -1    4.55    0.34
  -6   4  -1   26.22    1.09
  -5   4  -1  118.01    3.87
  -4   4  -1   17.27    0.61
  -3   4  -1   15.58    0.54
  -2   4  -1    2.89    0.22
  -1   4  -1    0.94    0.13
   0   4  -1    0.20    0.08
   1   4  -1    1.00    0.16
   2   4  -1    2.70    0.27
   3   4  -1   14.41    0.65
   4   4  -1   17.33    0.74
   5   4  -1  114.91    3.73
   6   4  -1   27.05    1.05
   7   4  -1    3.06    0.31
   8   4  -1   45.13    1.63
   9   4  -1  111.43    4.96
  10   4  -1    6.72    0.61
  11   4  -1    0.52    0.23
  12   4  -1   12.85    0.91
  13   4  -1    1.16    0.32
  14   4  -1   24.49    1.48
  -9   5  -1   33.80    1.46
  -8   5  -1    5.91    0.52
  -7   5  -1   14.89    0.78
  -6   5  -1    2.00    0.30
  -5   5  -1   35.98    1.44
  -4   5  -1   24.93    1.08
  -3   5  -1   17.23    1.20
  -2   5  -1   13.03    0.65
  -1   5  -1   32.54    1.28
   0   5  -1    4.25    0.39
   1   5  -1   33.92    1.30
   2   5  -1   11.95    0.64
   3   5  -1   16.94    0.81
   4   5  -1   24.51    1.05
   5   5  -1   35.11    1.39
   6   5  -1    1.62    0.27
   7   5  -1   13.80    0.74
   8   5  -1    5.06    0.66
  -8  -5   0   65.85    5.27
  -7  -5   0    0.15    0.53
  -6  -5   0   94.79    6.59
  -5  -5   0   -0.15    0.35
  -4  -5   0  237.89   14.83
  -3  -5   0    0.21    0.51
  -2  -5   0   15.72    1.94
  -1  -5   0   -0.21    0.45
   0  -5   0    0.22    0.49
   1  -5   0    0.15    0.51
   2  -5   0   13.81    2.11
   3  -5   0   -0.27    0.41
   4  -5   0  219.86   14.92
   5  -5   0   -0.13    0.58
   6  -5   0   87.73    6.85
   7  -5   0    0.16    0.77
   8  -5   0   73.14    5.95
   9  -5   0    0.24    0.82
 -13  -4   0    0.04    0.50
 -12  -4   0   78.06    5.41
 -11  -4   0    0.57    0.57
 -10  -4   0  178.19   10.73
  -9  -4   0   -0.07    0.42
  -8  -4   0   21.32    2.13
  -7  -4   0    0.58    0.48
  -6  -4   0   48.87    3.55
  -5  -4   0    0.00    0.32
  -4  -4   0   32.26    2.61
  -3  -4   0   -0.17    0.29
  -2  -4   0   25.59    2.26
  -1  -4   0    0.38    0.40
   0  -4   0  534.86   33.78
   1  -4   0    0.18    0.43
   2  -4   0   21.34    2.18
   3  -4   0    0.23    0.43
   4  -4   0   25.52    2.54
   5  -4   0   -0.01    0.42
   6  -4   0   41.23    3.63
   7  -4   0   -0.15    0.52
   8  -4   0   20.49    2.46
   9  -4   0    0.83    0.80
  10  -4   0  169.03   11.46
  11  -4   0    0.65    0.92
  12  -4   0   78.12    6.40
  13  -4   0    0.66    1.04
  -9  -3   0    1.51    0.62
  -8  -3   0  156.04    9.20
  -7  -3   0    0.23    0.36
  -6  -3   0  191.98   11.08
  -5  -3   0    0.00    0.28
  -4  -3   0  537.87   30.30
  -3  -3   0    0.26    0.29
  -2  -3   0   41.17    2.88
  -1  -3   0   -0.05    0.20
   0  -3   0    0.76    0.36
   1  -3   0    0.06    0.26
   2  -3   0   38.57    2.87
   3  -3   0    0.36    0.35
   4  -3   0  474.16   30.31
   5  -3   0    0.00    0.37
   6  -3   0  173.59   11.25
   7  -3   0    0.16    0.46
   8  -3   0  146.66    9.60
   9  -3   0    0.22    0.56
  10  -3   0    1.75    1.01
  11  -3   0    0.01    0.64
  12  -3   0   25.62    3.00
  13  -3   0   -0.32    0.79
  14  -3   0   58.34    5.00
  15  -3   0    0.73    0.93
  16  -3   0   11.66    2.46
 -18  -2   0    5.64    0.71
 -17  -2   0    0.13    0.21
 -16  -2   0   61.03    3.06
 -15  -2   0    0.36    0.21
 -14  -2   0   91.49    4.30
 -13  -2   0    0.46    0.19
 -12  -2   0  113.28    5.17
 -11  -2   0    0.30    0.14
 -10  -2   0  342.72   10.10
  -9  -2   0    0.39    0.09
  -8  -2   0   48.48    1.55
  -7  -2   0    0.04    0.06
  -6  -2   0  143.04    4.18
  -5  -2   0   -0.02    0.05
  -4  -2   0  100.23    2.60
  -3  -2   0   -0.04    0.06
  -2  -2   0   43.45    1.57
  -1  -2   0    0.16    0.10
   0  -2   0  945.57   38.40
   1  -2   0    0.44    0.09
   2  -2   0   42.42    1.57
   3  -2   0    0.28    0.08
   4  -2   0   92.28    3.39
   5  -2   0    0.14    0.10
   6  -2   0  131.07    4.82
   7  -2   0   -0.03    0.08
   8  -2   0   48.15    1.94
   9  -2   0    0.05    0.10
  10  -2   0  335.38   11.60
  11  -2   0    0.04    0.12
  12  -2   0  112.45    4.33
  13  -2   0    0.08    0.15
  14  -2   0   92.94    3.64
  15  -2   0    0.12    0.16
  16  -2   0   61.50    2.61
  17  -2   0    0.20    0.19
  18  -2   0    4.03    1.30
 -19  -1   0    0.25    0.22
 -18  -1   0  122.95    4.00
 -17  -1   0    0.29    0.14
 -16  -1   0   11.09    0.57
 -15  -1   0    0.00    0.10
 -14  -1   0   72.33    2.41
 -13  -1   0    0.05    0.09
 -12  -1   0   41.75    1.42
 -11  -1   0    0.02    0.05
 -10  -1   0    6.39    0.26
  -9  -1   0    0.12    0.07
  -8  -1   0  262.46    6.48
  -7  -1   0    0.10    0.05
  -6  -1   0  324.33    7.83
  -5  -1   0   -0.13    0.06
  -4  -1   0  965.31   27.01
  -3  -1   0    0.24    0.05
  -2  -1   0   90.46    3.76
  -1  -1   0    0.12    0.05
   1  -1   0    0.08    0.05
   2  -1   0   80.74    2.97
   3  -1   0    0.09    0.07
   4  -1   0  893.52   38.49
   5  -1   0    0.11    0.10
   6  -1   0  306.40   10.66
   7  -1   0   -0.07    0.08
   8  -1   0  261.84    9.00
   9  -1   0    0.09    0.10
  10  -1   0    6.20    0.45
  11  -1   0    0.09    0.12
  12  -1   0   40.64    1.79
  13  -1   0    0.23    0.15
  14  -1   0   71.93    2.92
  15  -1   0    0.06    0.15
  16  -1   0   11.41    0.77
  17  -1   0    0.35    0.20
  18  -1   0  124.87    8.02
 -19   0   0   -0.20    0.17
 -18   0   0    6.39    0.45
 -17   0   0    0.54    0.16
 -16   0   0   73.50    2.49
 -15   0   0    0.71    0.16
 -14   0   0  104.97    2.79
 -13   0   0    0.66    0.13
 -12   0   0  135.07    4.25
 -10   0   0  428.55   12.80
  -9   0   0    0.05    0.05
  -8   0   0   72.34    1.93
  -7   0   0   -0.07    0.04
  -6   0   0  217.24    5.51
  -5   0   0   -0.30    0.05
  -4   0   0  144.66    3.63
  -3   0   0    0.05    0.04
  -2   0   0   54.65    2.52
  -1   0   0    0.10    0.03
   1   0   0    0.15    0.03
   2   0   0   55.87    1.95
   3   0   0    0.27    0.04
   4   0   0  140.85    3.78
   5   0   0    0.01    0.11
   6   0   0  218.62    5.74
   7   0   0   -0.01    0.04
   8   0   0   75.06    2.61
   9   0   0    0.05    0.05
  10   0   0  408.42   14.05
  11   0   0    1.06    0.56
  12   0   0  132.59    4.82
  13   0   0    0.61    0.17
  14   0   0  105.78    3.94
  15   0   0    0.54    0.18
  16   0   0   77.26    5.20
  17   0   0    0.61    0.55
  18   0   0    5.32    1.21
  19   0   0    0.05    0.52
 -18   1   0  120.54    4.01
 -17   1   0    0.14    0.11
 -16   1   0   10.90    0.47
 -15   1   0   -0.01    0.09
 -14   1   0   73.67    2.48
 -13   1   0    0.21    0.10
 -12   1   0   39.79    1.45
 -11   1   0    0.13    0.08
 -10   1   0    6.51    0.34
  -9   1   0    0.32    0.08
  -8   1   0  257.35    6.60
  -7   1   0    0.06    0.07
  -6   1   0  320.90    7.97
  -5   1   0   -0.05    0.05
  -4   1   0  901.69   19.62
  -3   1   0    0.13    0.03
  -2   1   0   89.97    1.92
  -1   1   0    0.13    0.03
   1   1   0    0.10    0.03
   2   1   0   87.93    2.25
   3   1   0    0.07    0.04
   4   1   0  874.50   22.95
   5   1   0    0.10    0.06
   6   1   0  307.18    6.86
   7   1   0    0.00    0.05
   8   1   0  255.98    5.95
   9   1   0    0.89    0.13
  10   1   0    6.65    0.30
  11   1   0    0.08    0.08
  12   1   0   47.60    3.32
  13   1   0    0.08    0.42
  14   1   0   80.69    5.07
  15   1   0   -0.01    0.37
  16   1   0   11.59    1.45
  17   1   0    0.08    0.37
  18   1   0  130.89    7.83
 -18   2   0    5.14    0.47
 -17   2   0    0.07    0.11
 -16   2   0   58.90    2.10
 -15   2   0    0.00    0.11
 -14   2   0   87.46    3.06
 -13   2   0    0.31    0.12
 -12   2   0  113.06    3.71
 -11   2   0    0.19    0.10
 -10   2   0  336.73    8.59
  -9   2   0    0.09    0.06
  -8   2   0   48.41    1.33
  -7   2   0    0.06    0.06
  -6   2   0  140.07    3.06
  -5   2   0    0.01    0.05
  -4   2   0   99.10    2.16
  -3   2   0    0.11    0.04
  -2   2   0   44.25    0.99
  -1   2   0    0.09    0.03
   0   2   0  881.98   28.81
   1   2   0    0.24    0.05
   2   2   0   43.18    1.17
   3   2   0   -0.01    0.04
   4   2   0   97.36    2.33
   5   2   0   -0.08    0.06
   6   2   0  137.21    3.29
   7   2   0    0.12    0.06
   8   2   0   47.58    1.46
   9   2   0    0.11    0.07
  10   2   0  328.65   11.33
  11   2   0   -0.03    0.10
  12   2   0  117.93    4.14
  13   2   0    0.33    0.46
  14   2   0  103.49    6.22
  15   2   0    0.01    0.41
  16   2   0   65.94    4.50
  17   2   0   -0.05    0.42
 -16   3   0   10.96    0.63
 -15   3   0    0.27    0.16
 -14   3   0   50.66    1.92
 -13   3   0    0.01    0.11
 -12   3   0   23.48    0.99
 -11   3   0    0.16    0.11
 -10   3   0    1.90    0.18
  -9   3   0    0.19    0.08
  -8   3   0  155.46    4.06
  -7   3   0    0.13    0.07
  -6   3   0  199.84    5.03
  -5   3   0    0.18    0.06
  -4   3   0  593.41   12.25
  -3   3   0    0.24    0.07
  -2   3   0   43.52    1.21
  -1   3   0    0.08    0.05
   0   3   0    0.42    0.08
   1   3   0    0.14    0.06
   2   3   0   44.00    1.21
   3   3   0    0.17    0.07
   4   3   0  561.12   14.36
   5   3   0    0.08    0.08
   6   3   0  194.47    6.12
   7   3   0    0.16    0.09
   8   3   0  156.20    4.36
   9   3   0    0.37    0.10
  10   3   0    1.80    0.27
  11   3   0   -0.01    0.11
  12   3   0   25.15    1.17
  13   3   0    0.21    0.16
  14   3   0   58.42    4.22
  15   3   0   -0.18    0.48
  16   3   0   12.81    1.91
 -13   4   0    0.19    0.24
 -12   4   0   74.00    3.92
 -11   4   0    0.18    0.22
 -10   4   0  176.97    5.92
  -9   4   0    0.11    0.12
  -8   4   0   20.32    0.92
  -7   4   0    0.09    0.11
  -6   4   0   46.49    1.73
  -5   4   0    0.06    0.10
  -4   4   0   32.74    0.98
  -3   4   0    0.10    0.07
  -2   4   0   29.41    0.88
  -1   4   0    0.16    0.08
   0   4   0  658.05   16.03
   1   4   0    0.20    0.08
   2   4   0   28.17    1.08
   3   4   0    0.30    0.11
   4   4   0   31.42    1.20
   5   4   0    0.07    0.09
   6   4   0   46.68    1.68
   7   4   0    0.12    0.11
   8   4   0   21.82    0.91
   9   4   0    0.13    0.13
  10   4   0  181.73    7.87
  11   4   0    0.38    0.22
  12   4   0   74.91    3.63
  13   4   0   -0.02    0.17
  14   4   0   57.93    2.92
  -9   5   0    0.06    0.15
  -8   5   0   75.67    2.72
  -7   5   0    0.26    0.16
  -6   5   0   99.70    3.46
  -5   5   0    0.03    0.13
  -4   5   0  270.90    8.45
  -3   5   0    0.15    0.14
  -2   5   0   18.48    0.83
  -1   5   0   -0.05    0.11
   0   5   0    0.19    0.13
   1   5   0    0.07    0.12
   2   5   0   17.93    0.84
   3   5   0    0.07    0.12
   4   5   0  262.34    8.18
   5   5   0   -0.01    0.13
   6   5   0   98.84    3.35
   7   5   0   -0.13    0.13
   8   5   0   74.24    3.83
  -8  -5   1    5.92    1.42
  -7  -5   1   13.47    2.11
  -6  -5   1    1.67    0.84
  -5  -5   1   27.63    2.93
  -4  -5   1   20.42    2.31
  -3  -5   1   15.08    1.92
  -2  -5   1   10.91    1.81
  -1  -5   1   28.53    2.79
   0  -5   1    3.32    1.01
   1  -5   1   25.22    2.69
   2  -5   1   11.35    1.86
   3  -5   1   15.49    1.98
   4  -5   1   19.69    2.40
   5  -5   1   32.21    3.19
   6  -5   1    1.18    0.94
   7  -5   1   16.36    2.55
   8  -5   1    7.45    1.87
   9  -5   1   36.38    3.87
 -13  -4   1    1.13    0.69
 -12  -4   1   10.58    1.87
 -11  -4   1    0.14    0.50
 -10  -4   1    5.98    1.34
  -9  -4   1  105.75    7.07
  -8  -4   1   42.06    3.51
  -7  -4   1    2.99    0.90
  -6  -4   1   22.01    2.28
  -5  -4   1  102.41    7.04
  -4  -4   1   15.74    1.75
  -3  -4   1   12.62    1.49
  -2  -4   1    2.61    0.73
  -1  -4   1    0.39    0.38
   0  -4   1    0.30    0.39
   1  -4   1    1.15    0.55
   2  -4   1    3.40    0.82
   3  -4   1   10.67    1.44
   4  -4   1   17.33    1.83
   5  -4   1  109.49    7.21
   6  -4   1   27.48    2.59
   7  -4   1    3.59    1.14
   8  -4   1   48.47    3.99
   9  -4   1  113.92    7.72
  10  -4   1    9.10    2.00
  11  -4   1    0.79    0.96
  12  -4   1   11.68    2.38
  13  -4   1   -0.54    0.81
 -13  -3   1   82.29    3.92
 -12  -3   1   51.73    2.62
 -11  -3   1    0.41    0.19
 -10  -3   1   49.77    2.34
  -9  -3   1   67.96    2.59
  -8  -3   1   10.43    0.62
  -7  -3   1   28.71    1.28
  -6  -3   1    5.06    0.38
  -5  -3   1   83.91    3.11
  -4  -3   1   62.33    2.30
  -3  -3   1   29.98    1.23
  -2  -3   1   26.10    1.11
  -1  -3   1   54.53    3.95
   0  -3   1    7.48    0.90
   1  -3   1   53.93    3.96
   2  -3   1   21.43    1.86
   3  -3   1   25.15    2.13
   4  -3   1   58.53    3.99
   5  -3   1   82.13    3.10
   6  -3   1    4.71    0.35
   7  -3   1   29.15    1.28
   8  -3   1   10.16    0.64
   9  -3   1   66.60    2.62
  10  -3   1   50.20    4.20
  11  -3   1    1.01    0.83
  12  -3   1   50.22    4.46
  13  -3   1   90.37    6.49
  14  -3   1   10.77    2.16
  15  -3   1   50.41    4.47
  16  -3   1   30.86    3.41
 -17  -2   1   31.07    1.85
 -16  -2   1   56.39    2.84
 -15  -2   1    3.99    0.53
 -14  -2   1   38.65    2.06
 -13  -2   1    1.39    0.29
 -12  -2   1   25.16    1.35
 -11  -2   1    1.41    0.27
 -10  -2   1   12.80    0.77
  -9  -2   1  216.44    6.42
  -8  -2   1  101.49    3.08
  -7  -2   1    1.89    0.14
  -6  -2   1   51.56    1.58
  -5  -2   1  243.97    7.10
  -4  -2   1   34.93    1.00
  -3  -2   1   22.45    0.95
  -2  -2   1    4.24    0.28
  -1  -2   1    1.27    0.18
   0  -2   1    0.14    0.11
   1  -2   1    1.10    0.33
   2  -2   1    4.20    0.28
   3  -2   1   23.41    0.96
   4  -2   1   34.26    1.35
   5  -2   1  230.40    8.06
   6  -2   1   50.20    1.93
   7  -2   1    1.48    0.21
   8  -2   1   99.93    3.70
   9  -2   1  216.40    7.46
  10  -2   1   11.63    0.69
  11  -2   1    2.68    1.09
  12  -2   1   23.65    1.18
  13  -2   1    0.58    0.20
  14  -2   1   39.76    1.80
  15  -2   1    3.22    0.43
  16  -2   1   52.42    2.35
  17  -2   1   32.16    1.59
  18  -2   1   34.62    2.01
 -19  -1   1    0.38    0.26
 -18  -1   1   10.21    0.58
 -17  -1   1   11.52    0.60
 -16  -1   1   44.84    1.60
 -15  -1   1   61.56    2.09
 -14  -1   1   15.18    0.64
 -13  -1   1  119.83    3.68
 -12  -1   1   85.45    2.71
 -11  -1   1    1.42    0.17
 -10  -1   1   75.00    2.37
  -9  -1   1  104.24    2.67
  -8  -1   1   14.54    0.43
  -7  -1   1   50.30    1.32
  -6  -1   1    8.88    0.28
  -5  -1   1  167.93    4.21
  -4  -1   1  135.14    4.04
  -3  -1   1   46.28    1.43
  -2  -1   1   43.85    1.29
  -1  -1   1  116.47    5.12
   0  -1   1   17.14    0.64
   1  -1   1  121.05    4.03
   2  -1   1   40.57    1.49
   3  -1   1   44.71    1.68
   4  -1   1  133.06    4.64
   5  -1   1  168.29    5.83
   6  -1   1    9.21    0.50
   7  -1   1   50.98    1.99
   8  -1   1   13.39    0.71
   9  -1   1  104.01    3.84
  10  -1   1   75.40    2.90
  11  -1   1    1.34    0.23
  12  -1   1   83.67    3.26
  13  -1   1  116.37    4.35
  14  -1   1   13.59    0.84
  15  -1   1   59.76    2.51
  16  -1   1   44.62    1.97
  17  -1   1   11.23    0.79
  18  -1   1   10.80    0.78
  19  -1   1    0.13    0.51
 -19   0   1   79.23    3.81
 -18   0   1   40.79    1.52
 -17   0   1   34.47    1.33
 -16   0   1   67.33    2.28
 -15   0   1    4.49    0.34
 -14   0   1   49.99    1.71
 -13   0   1    1.44    0.15
 -12   0   1   31.96    0.92
 -11   0   1    2.92    0.19
 -10   0   1   14.41    0.48
  -9   0   1  285.09    7.02
  -8   0   1  143.00    3.65
  -7   0   1    0.52    0.06
  -6   0   1   68.32    1.75
  -5   0   1  343.53    9.96
  -4   0   1   56.72    1.77
  -3   0   1   33.37    0.86
  -2   0   1    5.90    0.17
  -1   0   1    0.95    0.05
   0   0   1    0.39    0.09
   1   0   1    1.24    0.08
   2   0   1    5.84    0.22
   3   0   1   33.56    0.95
   4   0   1   57.02    2.01
   5   0   1  320.24    8.52
   6   0   1   68.54    1.88
   7   0   1    0.45    0.08
   8   0   1  145.78    3.85
   9   0   1  280.32    7.42
  10   0   1   14.45    0.75
  11   0   1    3.70    0.33
  12   0   1   31.10    1.37
  13   0   1    1.07    0.22
  14   0   1   49.72    2.05
  15   0   1    4.11    0.46
  16   0   1   67.55    2.69
  17   0   1   34.78    1.61
  18   0   1   38.21    3.18
  19   0   1   84.46    5.50
 -18   1   1    9.92    0.57
 -17   1   1   11.06    0.60
 -16   1   1   44.95    1.33
 -15   1   1   60.70    1.73
 -14   1   1   14.50    0.53
 -13   1   1  116.34    3.06
 -12   1   1   83.70    2.77
 -11   1   1    1.03    0.22
 -10   1   1   73.80    2.44
  -9   1   1  103.68    2.71
  -8   1   1   13.75    0.44
  -7   1   1   51.16    1.35
  -6   1   1    9.11    0.30
  -5   1   1  169.03    4.30
  -4   1   1  134.04    2.94
  -3   1   1   46.20    1.05
  -2   1   1   42.28    0.95
  -1   1   1  122.15    2.98
   0   1   1   16.29    0.55
   1   1   1  118.15    3.83
   2   1   1   42.56    1.00
   3   1   1   47.82    1.14
   4   1   1  133.43    2.77
   5   1   1  170.16    3.73
   6   1   1    9.37    0.27
   7   1   1   51.11    1.12
   8   1   1   14.26    0.45
   9   1   1  107.26    2.55
  10   1   1   74.63    2.13
  11   1   1    1.74    0.16
  12   1   1   85.04    3.18
  13   1   1  117.09    4.26
  14   1   1   13.59    0.80
  15   1   1   66.93    4.34
  16   1   1   47.13    3.42
  17   1   1   12.09    1.46
  18   1   1   10.61    1.57
  19   1   1    0.23    0.45
 -18   2   1   35.62    1.43
 -17   2   1   31.72    1.05
 -16   2   1   54.19    1.61
 -15   2   1    3.89    0.29
 -14   2   1   39.75    1.18
 -13   2   1    1.43    0.20
 -12   2   1   23.59    0.95
 -11   2   1    1.52    0.19
 -10   2   1   11.72    0.53
  -9   2   1  215.23    5.46
  -8   2   1  100.61    2.63
  -7   2   1    1.72    0.13
  -6   2   1   50.76    1.16
  -5   2   1  242.14    5.19
  -4   2   1   35.39    0.83
  -3   2   1   24.02    0.58
  -2   2   1    4.34    0.15
  -1   2   1    1.20    0.09
   0   2   1    0.11    0.04
   1   2   1    1.33    0.10
   2   2   1    4.33    0.19
   3   2   1   24.59    0.71
   4   2   1   36.55    1.01
   5   2   1  238.00    5.56
   6   2   1   48.55    1.29
   7   2   1    1.40    0.14
   8   2   1  101.52    2.45
   9   2   1  212.25    5.00
  10   2   1   12.26    0.51
  11   2   1    2.11    0.25
  12   2   1   25.09    1.09
  13   2   1    1.48    0.61
  14   2   1   43.65    3.20
  15   2   1    4.33    1.00
  16   2   1   59.07    4.05
  17   2   1   37.98    2.87
  18   2   1   39.26    3.01
 -16   3   1   29.82    1.26
 -15   3   1   46.33    2.63
 -14   3   1    9.97    0.57
 -13   3   1   80.40    2.80
 -12   3   1   52.57    1.88
 -11   3   1    0.37    0.13
 -10   3   1   45.77    1.66
  -9   3   1   67.08    1.84
  -8   3   1    9.71    0.39
  -7   3   1   31.10    0.90
  -6   3   1    5.05    0.24
  -5   3   1   85.76    1.95
  -4   3   1   60.75    1.42
  -3   3   1   28.73    0.85
  -2   3   1   23.97    0.74
  -1   3   1   66.80    1.76
   0   3   1    8.89    0.33
   1   3   1   66.62    1.77
   2   3   1   24.82    0.75
   3   3   1   29.76    0.87
   4   3   1   62.72    1.70
   5   3   1   87.89    2.36
   6   3   1    4.93    0.30
   7   3   1   29.19    1.11
   8   3   1   10.51    0.50
   9   3   1   67.04    2.02
  10   3   1   47.65    1.52
  11   3   1    0.61    0.18
  12   3   1   55.12    2.15
  13   3   1   84.87    3.16
  14   3   1   11.06    1.67
  15   3   1   53.70    3.87
  16   3   1   33.06    2.85
 -13   4   1    0.11    0.24
 -12   4   1   11.78    0.98
 -11   4   1    0.83    0.31
 -10   4   1    8.08    0.71
  -9   4   1  107.60    3.71
  -8   4   1   45.26    1.69
  -7   4   1    4.12    0.36
  -6   4   1   27.06    1.09
  -5   4   1  117.14    3.86
  -4   4   1   17.30    0.61
  -3   4   1   14.85    0.53
  -2   4   1    2.90    0.23
  -1   4   1    0.75    0.15
   0   4   1    0.06    0.08
   1   4   1    0.72    0.13
   2   4   1    3.04    0.24
   3   4   1   13.55    0.65
   4   4   1   17.48    0.76
   5   4   1  115.68    3.74
   6   4   1   26.69    1.06
   7   4   1    3.59    0.34
   8   4   1   45.24    1.65
   9   4   1  109.22    3.62
  10   4   1    5.71    0.58
  11   4   1    0.09    0.18
  12   4   1   11.83    0.89
  13   4   1    0.41    0.24
  -9   5   1   34.09    1.45
  -8   5   1    6.19    0.49
  -7   5   1   13.66    0.75
  -6   5   1    1.96    0.30
  -5   5   1   35.41    1.44
  -4   5   1   24.56    1.09
  -3   5   1   17.15    0.85
  -2   5   1   12.10    0.54
  -1   5   1   32.59    1.29
   0   5   1    4.90    0.43
   1   5   1   30.93    1.28
   2   5   1   12.30    0.66
   3   5   1   17.52    0.83
   4   5   1   24.32    1.06
   5   5   1   33.71    1.39
   6   5   1    1.71    0.28
   7   5   1   14.08    0.75
   8   5   1    5.00    0.48
  -8  -5   2    9.32    1.85
  -7  -5   2   47.06    4.53
  -6  -5   2    0.99    0.75
  -5  -5   2    4.69    1.28
  -4  -5   2   11.12    1.89
  -3  -5   2   31.83    3.24
  -2  -5   2   -0.01    0.52
  -1  -5   2    0.15    0.45
   0  -5   2    0.14    0.44
   1  -5   2   -0.06    0.44
   2  -5   2    0.93    0.72
   3  -5   2   38.83    3.41
   4  -5   2   12.34    2.02
   5  -5   2    8.78    1.71
   6  -5   2    1.53    1.00
   8  -5   2   12.58    2.34
   9  -5   2   21.67    3.13
 -13  -4   2   26.00    2.66
 -12  -4   2   21.71    2.48
 -11  -4   2   59.17    4.64
 -10  -4   2    9.15    1.70
  -9  -4   2    1.27    0.69
  -8  -4   2    5.43    1.25
  -7  -4   2    0.08    0.42
  -6  -4   2   31.25    3.00
  -5  -4   2   10.39    1.62
  -4  -4   2    7.62    1.34
  -3  -4   2   25.15    2.41
  -2  -4   2    1.59    0.62
  -1  -4   2    9.10    1.38
   0  -4   2   20.08    1.95
   1  -4   2    9.65    1.23
   2  -4   2    0.81    0.50
   3  -4   2   32.06    2.58
   4  -4   2    8.05    1.38
   5  -4   2   11.03    1.71
   6  -4   2   42.11    3.34
   7  -4   2    0.01    0.51
   8  -4   2    7.09    1.58
   9  -4   2    0.79    0.83
  10  -4   2   12.15    2.12
  11  -4   2   58.64    4.93
  12  -4   2   21.55    2.73
  13  -4   2   21.73    3.14
 -16  -3   2   42.80    2.34
 -15  -3   2    8.03    0.75
 -14  -3   2    3.23    0.51
 -13  -3   2    8.80    0.71
 -12  -3   2    0.68    0.26
 -11  -3   2  117.27    5.08
 -10  -3   2  142.91    6.57
  -9  -3   2   30.10    1.55
  -8  -3   2   19.55    0.98
  -7  -3   2  125.65    4.68
  -6  -3   2    1.31    0.23
  -5  -3   2   36.94    1.54
  -4  -3   2   26.45    1.14
  -3  -3   2   88.72    3.15
  -2  -3   2   -0.01    0.15
  -1  -3   2    0.64    0.21
   0  -3   2    0.10    0.13
   1  -3   2    0.65    0.19
   2  -3   2    0.70    0.16
   3  -3   2   87.15    3.10
   4  -3   2   26.83    1.11
   5  -3   2   36.52    1.52
   6  -3   2    1.28    0.21
   7  -3   2  136.10    4.73
   8  -3   2   20.19    0.98
   9  -3   2   28.70    1.32
  10  -3   2  147.10    5.35
  11  -3   2  111.25    4.16
  12  -3   2    0.66    0.21
  13  -3   2    6.88    0.58
  14  -3   2    0.91    0.83
  15  -3   2    7.84    1.76
 -17  -2   2    8.35    0.75
 -16  -2   2    0.69    0.28
 -15  -2   2  109.47    5.28
 -14  -2   2   91.90    4.28
 -13  -2   2   31.39    1.71
 -12  -2   2   39.16    1.99
 -11  -2   2  102.29    4.68
 -10  -2   2   15.53    0.93
  -9  -2   2    7.88    0.57
  -8  -2   2   12.94    0.50
  -7  -2   2    2.10    0.15
  -6  -2   2  106.36    3.16
  -5  -2   2   29.48    1.43
  -4  -2   2   18.99    0.96
  -3  -2   2   55.53    2.12
  -2  -2   2    1.64    0.22
  -1  -2   2   10.82    0.57
   0  -2   2   37.93    1.53
   1  -2   2   11.22    0.57
   2  -2   2    0.88    0.16
   3  -2   2   60.32    2.14
   4  -2   2   19.75    0.82
   5  -2   2   30.45    1.23
   6  -2   2  105.42    3.72
   7  -2   2    1.98    0.26
   8  -2   2   12.58    0.70
   9  -2   2    8.19    0.54
  10  -2   2   17.79    0.86
  11  -2   2  104.06    3.88
  12  -2   2   38.69    1.71
  13  -2   2   32.87    1.50
  14  -2   2   90.45    3.54
  15  -2   2  115.03    4.35
  16  -2   2    0.55    0.24
  17  -2   2    7.03    0.64
  18  -2   2   14.00    2.09
 -18  -1   2   37.73    1.45
 -17  -1   2   27.54    1.08
 -16  -1   2   56.39    1.94
 -15  -1   2    8.79    0.48
 -14  -1   2    2.21    0.25
 -13  -1   2   10.77    0.50
 -12  -1   2    1.33    0.17
 -11  -1   2  188.61    5.77
 -10  -1   2  259.27    7.83
  -9  -1   2   38.13    1.27
  -8  -1   2   31.01    0.84
  -7  -1   2  237.35    5.84
  -6  -1   2    1.39    0.08
  -5  -1   2  107.90    2.67
  -4  -1   2   42.66    1.33
  -3  -1   2  179.62    5.13
  -2  -1   2    0.79    0.13
  -1  -1   2    5.79    0.36
   0  -1   2    0.33    0.10
   1  -1   2    5.28    0.31
   2  -1   2    0.78    0.13
   3  -1   2  176.93    5.80
   4  -1   2   44.18    1.61
   5  -1   2  106.74    3.75
   6  -1   2    1.04    0.17
   7  -1   2  228.28    8.02
   8  -1   2   32.32    1.33
   9  -1   2   37.78    1.60
  10  -1   2  250.93    8.97
  11  -1   2  186.67    6.68
  12  -1   2    1.28    0.25
  13  -1   2   10.22    0.68
  14  -1   2    2.48    0.35
  15  -1   2    8.36    0.65
  16  -1   2   54.40    2.32
  17  -1   2   26.79    1.34
  18  -1   2   37.98    1.77
 -19   0   2    0.86    0.30
 -18   0   2   17.00    0.79
 -17   0   2    7.80    0.48
 -16   0   2    0.49    0.15
 -15   0   2  135.17    4.26
 -14   0   2  113.10    3.59
 -13   0   2   36.09    1.26
 -12   0   2   49.57    1.33
 -11   0   2  130.15    3.32
 -10   0   2   18.26    0.56
  -9   0   2   15.75    0.48
  -8   0   2   17.30    0.52
  -7   0   2    3.36    0.18
  -6   0   2  158.16    3.96
  -5   0   2   45.40    1.17
  -4   0   2   24.86    0.82
  -3   0   2   86.81    2.13
  -2   0   2    0.73    0.07
  -1   0   2   13.22    0.55
   0   0   2   59.38    2.14
   1   0   2   13.03    0.64
   2   0   2    1.27    0.17
   3   0   2   84.55    2.36
   4   0   2   25.39    0.79
   5   0   2   45.31    1.34
   6   0   2  156.90    8.89
   7   0   2    3.39    0.27
   8   0   2   17.48    0.81
   9   0   2   14.61    0.75
  10   0   2   18.01    0.87
  11   0   2  124.31    4.58
  12   0   2   45.97    1.91
  13   0   2   33.76    1.51
  14   0   2  111.49    4.14
  15   0   2  133.97    4.89
  16   0   2    0.26    0.17
  17   0   2    8.45    0.65
  18   0   2   15.45    0.96
  19   0   2    0.31    0.49
 -18   1   2   38.69    1.46
 -17   1   2   26.12    1.08
 -16   1   2   55.02    1.94
 -15   1   2    9.88    0.41
 -14   1   2    1.91    0.18
 -13   1   2   10.93    0.42
 -12   1   2    1.30    0.14
 -11   1   2  191.93    4.82
 -10   1   2  260.29    6.53
  -9   1   2   37.95    1.06
  -8   1   2   30.72    0.74
  -7   1   2  239.32    5.12
  -6   1   2    1.06    0.07
  -5   1   2  105.76    2.35
  -4   1   2   41.55    0.96
  -3   1   2  170.25    4.27
  -2   1   2    0.86    0.05
  -1   1   2    5.74    0.16
   0   1   2    0.15    0.04
   1   1   2    5.72    0.17
   2   1   2    0.89    0.07
   3   1   2  171.02    3.93
   4   1   2   41.23    1.05
   5   1   2  105.76    2.23
   6   1   2    1.32    0.10
   7   1   2  230.65    4.80
   8   1   2   31.19    0.76
   9   1   2   41.29    1.07
  10   1   2  265.08    6.91
  11   1   2  193.79    5.11
  12   1   2    1.27    0.24
  13   1   2    9.58    0.63
  14   1   2    1.53    0.28
  15   1   2    8.71    0.63
  16   1   2   55.35    2.28
  17   1   2   27.74    2.31
  18   1   2   38.06    2.97
  19   1   2   37.26    2.97
 -18   2   2   13.11    1.00
 -17   2   2    7.44    0.39
 -16   2   2    0.48    0.13
 -15   2   2  113.77    3.05
 -14   2   2   93.36    2.47
 -13   2   2   31.80    0.98
 -12   2   2   38.33    1.13
 -11   2   2  103.20    2.72
 -10   2   2   16.32    0.53
  -9   2   2    8.87    0.33
  -8   2   2   12.99    0.44
  -7   2   2    1.73    0.14
  -6   2   2  101.31    2.31
  -5   2   2   29.74    0.72
  -4   2   2   18.23    0.47
  -3   2   2   58.38    1.18
  -2   2   2    0.95    0.06
  -1   2   2   11.40    0.38
   0   2   2   39.54    1.10
   1   2   2   12.19    0.39
   2   2   2    0.94    0.10
   3   2   2   58.57    1.59
   4   2   2   18.81    0.60
   5   2   2   29.54    0.84
   6   2   2  103.77    2.52
   7   2   2    2.06    0.33
   8   2   2   13.31    0.46
   9   2   2    9.21    0.36
  10   2   2   16.02    0.54
  11   2   2  105.64    3.70
  12   2   2   41.93    1.60
  13   2   2   35.00    2.58
  14   2   2   95.73    5.81
  15   2   2  124.55    7.10
  16   2   2    0.26    0.41
  17   2   2    8.68    1.34
  18   2   2   15.68    1.65
 -16   3   2   40.09    1.61
 -15   3   2    7.38    0.49
 -14   3   2    2.25    0.29
 -13   3   2    7.29    0.46
 -12   3   2    0.56    0.17
 -11   3   2  110.34    3.63
 -10   3   2  147.07    4.73
  -9   3   2   29.38    0.89
  -8   3   2   20.03    0.65
  -7   3   2  132.78    3.45
  -6   3   2    0.95    0.12
  -5   3   2   37.85    0.92
  -4   3   2   25.11    0.78
  -3   3   2   84.16    2.29
  -2   3   2    0.10    0.07
  -1   3   2    0.97    0.11
   0   3   2    0.12    0.07
   1   3   2    0.67    0.11
   2   3   2    0.32    0.08
   3   3   2   86.70    2.32
   4   3   2   26.45    0.82
   5   3   2   38.79    1.15
   6   3   2    1.17    0.15
   7   3   2  133.22    3.54
   8   3   2   20.08    0.83
   9   3   2   29.59    1.13
  10   3   2  154.16    4.21
  11   3   2  113.94    4.04
  12   3   2    0.55    0.18
  13   3   2    6.93    0.54
  14   3   2    1.91    0.73
  15   3   2    8.71    1.41
  16   3   2   48.84    3.46
 -13   4   2   24.83    1.58
 -12   4   2   23.64    1.53
 -11   4   2   58.51    3.16
 -10   4   2   10.49    0.87
  -9   4   2    1.54    0.24
  -8   4   2    6.21    0.43
  -7   4   2    0.60    0.15
  -6   4   2   39.07    1.49
  -5   4   2   12.07    0.62
  -4   4   2    9.76    0.42
  -3   4   2   30.70    0.95
  -2   4   2    1.01    0.14
  -1   4   2   10.47    0.43
   0   4   2   22.75    0.76
   1   4   2   10.13    0.43
   2   4   2    1.65    0.17
   3   4   2   31.29    0.98
   4   4   2    9.25    0.51
   5   4   2   13.06    0.62
   6   4   2   38.72    1.45
   7   4   2    0.50    0.16
   8   4   2    7.04    0.45
   9   4   2    1.18    0.22
  10   4   2   10.62    0.61
  11   4   2   59.54    2.93
  12   4   2   23.64    1.41
  13   4   2   21.77    1.39
  -8   5   2   11.77    0.67
  -7   5   2   64.27    2.35
  -6   5   2    1.03    0.23
  -5   5   2    8.27    0.54
  -4   5   2   15.12    0.77
  -3   5   2   41.37    1.63
  -2   5   2    0.53    0.15
  -1   5   2    0.02    0.11
   0   5   2    0.13    0.13
   1   5   2    0.28    0.15
   2   5   2    0.41    0.16
   3   5   2   40.53    1.58
   4   5   2   14.08    0.74
   5   5   2    7.95    0.52
   6   5   2    1.37    0.26
   7   5   2   63.13    2.29
   8   5   2   10.52    0.65
  -8  -5   3   43.38    4.30
  -7  -5   3   -0.24    0.56
  -6  -5   3    0.08    0.56
  -5  -5   3    3.10    1.09
  -4  -5   3    0.35    0.58
  -3  -5   3    0.05    0.50
  -2  -5   3  231.44   13.86
  -1  -5   3    3.31    1.03
   0  -5   3   72.11    4.99
   1  -5   3    4.91    1.16
   2  -5   3  231.65   13.81
   3  -5   3   -0.03    0.58
   4  -5   3    1.29    0.78
   5  -5   3    3.74    1.19
   6  -5   3    0.30    0.74
   7  -5   3   -0.16    0.62
   8  -5   3   56.66    4.64
   9  -5   3   16.99    2.57
 -12  -4   3    4.36    1.30
 -11  -4   3   -0.12    0.43
 -10  -4   3    4.10    1.21
  -9  -4   3   12.68    2.06
  -8  -4   3   24.65    2.72
  -7  -4   3    0.39    0.49
  -5  -4   3   15.35    1.87
  -4  -4   3  103.86    6.91
  -3  -4   3    0.32    0.40
  -2  -4   3   39.68    2.95
  -1  -4   3    1.00    0.50
   0  -4   3    0.66    0.45
   1  -4   3    1.08    0.50
   2  -4   3   39.64    2.87
   3  -4   3    0.11    0.42
   4  -4   3  116.97    6.96
   5  -4   3   23.76    2.17
   6  -4   3  425.87   22.27
   7  -4   3    1.02    0.67
   8  -4   3   35.23    3.02
   9  -4   3   19.27    2.19
  10  -4   3    4.96    1.33
  11  -4   3    0.31    0.69
  12  -4   3    6.26    1.61
  13  -4   3    4.09    1.38
 -16  -3   3   22.46    1.50
 -15  -3   3    0.68    0.31
 -14  -3   3    1.29    0.35
 -13  -3   3   29.22    1.74
 -12  -3   3  185.18    8.03
 -11  -3   3    0.53    0.22
 -10  -3   3   82.20    3.75
  -9  -3   3   26.38    1.44
  -8  -3   3  118.94    4.52
  -7  -3   3    0.17    0.14
  -6  -3   3    0.50    0.17
  -5  -3   3   10.55    0.65
  -4  -3   3    9.92    0.61
  -3  -3   3    0.43    0.19
  -2  -3   3  498.55   17.36
  -1  -3   3   10.67    0.64
   0  -3   3  113.68    4.35
   1  -3   3    9.82    0.59
   2  -3   3  551.00   17.34
   3  -3   3    0.24    0.16
   4  -3   3   10.50    0.58
   5  -3   3   11.51    0.64
   6  -3   3    0.27    0.16
   7  -3   3    0.15    0.15
   8  -3   3  126.79    4.54
   9  -3   3   27.23    1.24
  10  -3   3   79.98    3.08
  11  -3   3    0.34    0.20
  12  -3   3  181.08    6.46
  13  -3   3   32.23    1.53
  14  -3   3    1.36    0.33
  15  -3   3    1.37    0.34
 -17  -2   3   28.77    1.71
 -16  -2   3  101.81    4.86
 -15  -2   3    0.41    0.24
 -14  -2   3    1.21    0.30
 -13  -2   3    8.80    0.70
 -12  -2   3   13.98    0.90
 -11  -2   3    0.16    0.15
 -10  -2   3   11.42    0.76
  -9  -2   3   35.78    1.78
  -8  -2   3   50.31    2.35
  -7  -2   3    1.76    0.16
  -6  -2   3  722.86   31.43
  -5  -2   3   50.92    2.30
  -4  -2   3  218.30    9.67
  -3  -2   3    0.21    0.11
  -2  -2   3  108.42    3.80
  -1  -2   3    3.24    0.30
   0  -2   3   -0.11    0.14
   1  -2   3    2.45    0.28
   2  -2   3  111.80    3.82
   3  -2   3   -0.04    0.10
   4  -2   3  239.91    7.66
   5  -2   3   49.29    1.89
   6  -2   3  728.48   24.60
   7  -2   3    1.82    0.26
   8  -2   3   47.72    1.96
   9  -2   3   33.60    1.52
  10  -2   3   10.82    0.69
  11  -2   3    0.30    0.15
  12  -2   3   12.65    0.79
  13  -2   3    8.97    0.65
  14  -2   3    0.88    0.24
  15  -2   3    1.39    0.32
  16  -2   3  103.61    3.97
  17  -2   3   27.68    1.69
 -18  -1   3   12.74    0.66
 -17  -1   3    1.69    0.24
 -16  -1   3   29.43    1.15
 -15  -1   3    0.94    0.18
 -14  -1   3    0.32    0.12
 -13  -1   3   50.54    1.69
 -12  -1   3  273.51    8.02
 -11  -1   3    1.23    0.16
 -10  -1   3  119.65    3.77
  -9  -1   3   49.06    1.62
  -8  -1   3  227.24    6.83
  -7  -1   3    0.97    0.07
  -6  -1   3    0.39    0.08
  -5  -1   3   21.42    0.75
  -4  -1   3   33.69    1.53
  -3  -1   3    0.79    0.15
  -2  -1   3  871.69   33.53
  -1  -1   3   23.07    1.09
   0  -1   3  213.33    6.90
   1  -1   3   22.45    1.34
   2  -1   3  864.68   26.07
   3  -1   3    1.58    0.20
   4  -1   3   34.71    1.29
   5  -1   3   21.88    0.95
   6  -1   3    0.28    0.14
   7  -1   3    0.78    0.18
   8  -1   3  222.34    7.80
   9  -1   3   48.54    1.98
  10  -1   3  119.62    4.41
  11  -1   3    0.93    0.21
  12  -1   3  256.85    9.12
  13  -1   3   47.67    2.04
  14  -1   3    0.21    0.18
  15  -1   3    0.93    0.26
  16  -1   3   28.93    1.42
  17  -1   3    1.03    0.29
  18  -1   3   11.74    0.98
 -18   0   3   26.86    1.13
 -17   0   3   32.34    1.25
 -16   0   3  118.59    3.84
 -15   0   3    0.34    0.13
 -14   0   3    0.68    0.15
 -13   0   3   11.43    0.54
 -12   0   3   18.62    0.73
 -11   0   3    0.12    0.06
 -10   0   3   15.21    0.48
  -9   0   3   50.74    1.35
  -8   0   3   59.85    1.57
  -7   0   3    2.28    0.13
  -6   0   3  902.38   21.63
  -5   0   3   76.63    1.98
  -4   0   3  320.79    7.57
  -3   0   3    0.18    0.08
  -2   0   3  163.17    4.87
  -1   0   3    4.69    0.23
   0   0   3    2.10    0.40
   1   0   3    4.14    0.30
   2   0   3  137.90    7.27
   3   0   3    0.22    0.07
   4   0   3  299.14    8.19
   5   0   3   78.00    2.22
   6   0   3  856.97   23.11
   7   0   3    2.42    0.26
   8   0   3   60.54    2.23
   9   0   3   47.49    1.91
  10   0   3   13.65    0.73
  11   0   3    0.03    0.12
  12   0   3   18.15    0.90
  13   0   3   11.89    0.69
  14   0   3    0.92    0.22
  15   0   3    1.29    0.23
  16   0   3  118.40    4.41
  17   0   3   31.33    1.50
  18   0   3   28.88    1.73
 -18   1   3   10.87    0.63
 -17   1   3    1.29    0.22
 -16   1   3   30.52    1.16
 -15   1   3    0.88    0.18
 -14   1   3    0.60    0.12
 -13   1   3   50.92    1.40
 -12   1   3  266.36    6.68
 -11   1   3    0.90    0.12
 -10   1   3  119.17    3.14
  -9   1   3   49.22    1.35
  -8   1   3  228.81    5.70
  -7   1   3    0.79    0.07
  -6   1   3    0.50    0.06
  -5   1   3   22.29    0.54
  -4   1   3   32.47    0.76
  -3   1   3    1.23    0.08
  -2   1   3  821.20   25.18
  -1   1   3   21.66    0.53
   0   1   3  203.95    5.15
   1   1   3   21.51    0.54
   2   1   3  782.48   17.17
   3   1   3    1.19    0.09
   4   1   3   33.28    0.76
   5   1   3   22.51    0.56
   6   1   3    0.47    0.08
   7   1   3    0.97    0.11
   8   1   3  229.26    4.71
   9   1   3   51.45    1.18
  10   1   3  126.39    3.35
  11   1   3    1.62    0.17
  12   1   3  269.00    9.05
  13   1   3   49.55    2.00
  14   1   3    0.37    0.17
  15   1   3    0.42    0.18
  16   1   3   28.95    1.39
  17   1   3    2.02    0.36
 -17   2   3   28.21    1.14
 -16   2   3  102.58    2.78
 -15   2   3    0.68    0.13
 -14   2   3    0.75    0.13
 -13   2   3    8.61    0.38
 -12   2   3   13.85    0.50
 -11   2   3    0.23    0.08
 -10   2   3   11.04    0.42
  -9   2   3   36.48    1.02
  -8   2   3   50.19    1.17
  -7   2   3    1.73    0.12
  -6   2   3  738.65   16.08
  -5   2   3   49.97    1.14
  -4   2   3  221.42    4.93
  -3   2   3    0.15    0.04
  -2   2   3  106.32    3.45
  -1   2   3    2.85    0.16
   0   2   3   -0.06    0.08
   1   2   3    2.87    0.16
   2   2   3  111.67    3.49
   3   2   3    0.14    0.06
   4   2   3  223.61    4.97
   5   2   3   49.62    1.20
   6   2   3  747.77   14.94
   7   2   3    1.69    0.13
   8   2   3   49.85    1.15
   9   2   3   37.25    0.89
  10   2   3   12.57    0.40
  11   2   3    0.18    0.08
  12   2   3   13.87    0.56
  13   2   3   10.15    1.14
  14   2   3    1.03    0.49
  15   2   3    0.48    0.40
  16   2   3  109.10    6.37
  17   2   3   30.76    2.40
 -16   3   3   22.63    1.04
 -15   3   3    0.63    0.19
 -14   3   3    0.95    0.28
 -13   3   3   31.04    1.24
 -12   3   3  182.10    5.75
 -11   3   3    0.44    0.14
 -10   3   3   80.53    2.67
  -9   3   3   26.66    1.02
  -8   3   3  126.63    3.31
  -7   3   3    0.24    0.08
  -6   3   3    0.21    0.10
  -5   3   3   11.11    0.42
  -4   3   3    8.93    0.36
  -3   3   3    0.40    0.08
  -2   3   3  507.57   13.18
  -1   3   3    9.23    0.37
   0   3   3  123.38    3.24
   1   3   3   10.03    0.39
   2   3   3  523.34   13.20
   3   3   3    0.38    0.10
   4   3   3    9.40    0.40
   5   3   3   11.55    0.47
   6   3   3    0.29    0.11
   7   3   3    0.28    0.11
   8   3   3  126.32    3.42
   9   3   3   25.52    1.05
  10   3   3   81.74    2.75
  11   3   3    0.37    0.16
  12   3   3  188.01    6.31
  13   3   3   33.40    1.43
  14   3   3    1.19    0.56
  15   3   3    0.12    0.42
  16   3   3   25.46    2.22
 -12   4   3    6.92    0.70
 -11   4   3    0.05    0.20
 -10   4   3    4.69    0.63
  -9   4   3   16.06    1.14
  -8   4   3   33.38    1.31
  -7   4   3    0.41    0.15
  -6   4   3  401.22   12.85
  -5   4   3   18.70    0.86
  -4   4   3  109.54    3.00
  -3   4   3    0.16    0.09
  -2   4   3   36.47    1.14
  -1   4   3    1.19    0.16
   0   4   3    0.29    0.10
   1   4   3    1.23    0.16
   2   4   3   36.65    1.15
   3   4   3    0.43    0.12
   4   4   3  112.22    3.05
   5   4   3   20.21    0.87
   6   4   3  400.45   12.46
   7   4   3    0.47    0.16
   8   4   3   32.02    1.30
   9   4   3   16.04    0.80
  10   4   3    4.57    0.44
  11   4   3    0.19    0.22
  12   4   3    6.29    0.71
  13   4   3    5.11    0.65
  -8   5   3   55.81    2.16
  -7   5   3    0.16    0.15
  -6   5   3    0.06    0.15
  -5   5   3    4.35    0.44
  -4   5   3    1.19    0.24
  -3   5   3    0.25    0.16
  -2   5   3  238.62    6.24
  -1   5   3    3.66    0.32
   0   5   3   67.71    2.02
   1   5   3    3.56    0.39
   2   5   3  240.93    7.57
   3   5   3    0.10    0.14
   4   5   3    1.26    0.25
   5   5   3    3.99    0.42
   6   5   3    0.14    0.15
   7   5   3    0.07    0.16
   8   5   3   55.15    2.13
   9   5   3   11.76    1.11
  -7  -5   4   83.05    6.28
  -6  -5   4   26.88    2.84
  -5  -5   4   38.05    3.35
  -4  -5   4    7.23    1.54
  -3  -5   4   87.09    5.77
  -2  -5   4   22.11    2.29
  -1  -5   4   50.59    3.73
   0  -5   4    0.07    0.50
   1  -5   4   41.93    3.44
   2  -5   4   20.74    2.15
   3  -5   4   78.26    5.43
   4  -5   4    7.83    1.46
   5  -5   4   35.16    3.07
   6  -5   4   25.65    2.66
   7  -5   4   86.42    6.13
   8  -5   4   14.62    2.23
 -12  -4   4   18.00    2.74
 -11  -4   4   67.08    5.54
 -10  -4   4   67.29    5.28
  -9  -4   4   33.21    3.35
  -8  -4   4    0.08    0.52
  -7  -4   4    7.71    1.49
  -6  -4   4    1.84    0.73
  -5  -4   4   11.99    1.74
  -4  -4   4   16.94    1.86
  -3  -4   4  113.32    6.97
  -2  -4   4   33.76    2.56
  -1  -4   4  128.62    7.41
   0  -4   4   23.93    2.04
   1  -4   4  132.13    7.41
   2  -4   4   31.57    2.40
   3  -4   4  115.71    6.83
   4  -4   4   18.80    1.77
   5  -4   4   10.45    1.52
   6  -4   4    2.41    0.78
   7  -4   4    9.38    1.50
   8  -4   4    0.18    0.51
   9  -4   4   43.80    3.50
  10  -4   4   68.77    5.10
  11  -4   4   72.21    5.52
 -16  -3   4   45.22    2.51
 -15  -3   4   23.89    1.56
 -14  -3   4   37.12    2.06
 -13  -3   4   37.94    2.01
 -12  -3   4    3.43    0.50
 -11  -3   4   13.34    0.91
 -10  -3   4   13.10    0.88
  -9  -3   4    9.66    0.70
  -8  -3   4   29.75    1.56
  -7  -3   4  172.16    6.29
  -6  -3   4   61.01    2.43
  -5  -3   4   64.32    2.52
  -4  -3   4   13.95    0.76
  -3  -3   4  175.77    6.12
  -2  -3   4   49.97    1.97
  -1  -3   4  115.16    3.95
   0  -3   4    0.04    0.15
   1  -3   4  106.46    3.88
   2  -3   4   49.85    1.94
   3  -3   4  180.48    6.09
   4  -3   4   14.62    0.75
   5  -3   4   68.53    2.50
   6  -3   4   63.45    2.40
   7  -3   4  177.88    6.25
   8  -3   4   29.04    1.31
   9  -3   4    8.89    0.62
  10  -3   4   12.14    0.76
  11  -3   4   13.29    0.80
  12  -3   4    3.07    0.43
  13  -3   4   35.84    1.99
  14  -3   4   36.68    2.05
  15  -3   4   25.83    1.58
  16  -3   4   45.43    2.49
 -17  -2   4    5.29    0.68
 -16  -2   4    1.01    0.32
 -15  -2   4   13.06    0.97
 -14  -2   4   13.28    0.94
 -13  -2   4   34.94    1.83
 -12  -2   4   37.68    1.98
 -11  -2   4  126.64    5.82
 -10  -2   4  138.77    6.10
  -9  -2   4   73.55    3.44
  -8  -2   4    0.88    0.21
  -7  -2   4   15.84    0.95
  -6  -2   4    3.58    0.35
  -5  -2   4   36.20    1.73
  -4  -2   4   39.53    1.92
  -3  -2   4  244.38    8.23
  -2  -2   4   70.46    2.53
  -1  -2   4  250.66    8.41
   0  -2   4   46.62    1.69
   1  -2   4  260.81    8.44
   2  -2   4   70.18    2.54
   3  -2   4  247.93    8.23
   4  -2   4   40.34    1.57
   5  -2   4   36.11    1.44
   6  -2   4    3.94    0.38
   7  -2   4   16.25    0.84
   8  -2   4    0.52    0.18
   9  -2   4   73.38    2.83
  10  -2   4  138.09    4.94
  11  -2   4  132.17    4.73
  12  -2   4   37.93    1.69
  13  -2   4   33.67    1.57
  14  -2   4   13.80    0.98
  15  -2   4   13.25    1.00
  16  -2   4    0.83    0.33
  17  -2   4    6.34    0.77
 -17  -1   4   13.77    0.67
 -16  -1   4   64.26    2.19
 -15  -1   4   31.71    1.21
 -14  -1   4   53.06    1.81
 -13  -1   4   53.70    1.82
 -12  -1   4    4.35    0.29
 -11  -1   4   17.26    0.71
 -10  -1   4   19.96    0.77
  -9  -1   4    8.11    0.38
  -8  -1   4   45.64    1.53
  -7  -1   4  306.06    8.84
  -6  -1   4  119.31    3.58
  -4  -1   4   21.37    1.07
  -2  -1   4   95.53    3.09
  -1  -1   4  226.10    9.51
   0  -1   4    0.02    0.09
   1  -1   4  245.91    7.45
   2  -1   4   96.33    3.37
   3  -1   4  311.54   10.11
   4  -1   4   20.73    0.90
   5  -1   4  117.80    4.09
   6  -1   4  115.66    4.11
   7  -1   4  295.56    9.98
   8  -1   4   46.80    1.86
   9  -1   4    7.53    0.53
  10  -1   4   20.10    1.00
  11  -1   4   18.50    0.95
  12  -1   4    3.70    0.42
  13  -1   4   52.37    2.18
  14  -1   4   52.03    2.18
  15  -1   4   33.16    1.83
  16  -1   4   65.51    3.23
  17  -1   4   12.67    1.02
  18  -1   4    9.06    0.83
 -18   0   4    0.19    0.15
 -17   0   4    5.37    0.42
 -16   0   4    1.35    0.22
 -15   0   4   13.72    0.66
 -14   0   4   15.68    0.69
 -13   0   4   39.00    1.36
 -12   0   4   47.76    1.61
 -11   0   4  156.46    4.81
 -10   0   4  178.28    4.47
  -9   0   4   96.00    2.51
  -8   0   4    0.61    0.07
  -7   0   4   20.77    0.62
  -6   0   4    5.74    0.21
  -5   0   4   58.79    1.54
  -4   0   4   60.55    1.99
  -3   0   4  364.46   10.72
  -2   0   4  110.67    3.51
  -1   0   4  359.71   11.34
   0   0   4   64.27    3.24
   1   0   4  405.26   11.47
   2   0   4  100.77    3.61
   3   0   4  327.93   11.95
   4   0   4   58.99    1.79
   5   0   4   58.31    1.74
   6   0   4    5.69    0.30
   7   0   4   21.64    0.76
   8   0   4    0.47    0.15
   9   0   4   96.74    3.48
  10   0   4  174.84    6.10
  11   0   4  158.88    5.47
  12   0   4   46.63    1.90
  13   0   4   37.19    1.60
  14   0   4   15.79    0.86
  15   0   4   14.42    0.83
  16   0   4    1.12    0.35
  17   0   4    5.90    0.73
  18   0   4    0.35    0.29
 -18   1   4    7.52    0.50
 -17   1   4   13.16    0.66
 -16   1   4   62.27    2.17
 -15   1   4   31.14    1.21
 -14   1   4   52.03    1.81
 -13   1   4   53.72    1.51
 -12   1   4    4.24    0.23
 -11   1   4   18.58    0.60
 -10   1   4   20.28    0.64
  -9   1   4    8.16    0.31
  -8   1   4   44.78    1.26
  -7   1   4  295.62    6.43
  -6   1   4  117.35    2.59
  -5   1   4  117.57    2.59
  -4   1   4   21.78    0.61
  -3   1   4  316.10    7.70
  -2   1   4   99.10    2.54
  -1   1   4  225.77    5.66
   0   1   4    0.04    0.06
   1   1   4  217.01    5.56
   2   1   4   98.26    2.54
   3   1   4  298.39    7.60
   4   1   4   20.72    0.54
   5   1   4  117.37    2.48
   6   1   4  115.18    2.49
   7   1   4  290.41    6.06
   8   1   4   48.40    1.13
   9   1   4    8.16    0.31
  10   1   4   20.56    0.63
  11   1   4   18.73    0.89
  12   1   4    4.77    0.44
  13   1   4   53.92    2.13
  14   1   4   53.14    2.13
  15   1   4   33.25    1.46
  16   1   4   61.83    3.20
  17   1   4   11.56    0.99
  18   1   4    7.18    0.86
 -17   2   4    5.06    0.44
 -16   2   4    1.13    0.18
 -15   2   4   13.56    0.54
 -14   2   4   13.08    0.52
 -13   2   4   33.49    1.03
 -12   2   4   37.78    1.12
 -11   2   4  129.28    3.36
 -10   2   4  138.91    3.53
  -9   2   4   75.20    1.98
  -8   2   4    0.08    0.06
  -7   2   4   16.39    0.45
  -6   2   4    3.77    0.16
  -5   2   4   35.18    0.98
  -4   2   4   40.27    1.10
  -3   2   4  243.82    5.33
  -2   2   4   70.65    1.59
  -1   2   4  243.43    6.38
   0   2   4   41.95    1.20
   1   2   4  245.20    6.39
   2   2   4   69.38    1.60
   3   2   4  241.78    5.36
   4   2   4   39.85    0.99
   5   2   4   35.15    0.91
   6   2   4    4.05    0.20
   7   2   4   17.64    0.49
   8   2   4    0.16    0.07
   9   2   4   75.24    1.68
  10   2   4  137.15    2.95
  11   2   4  133.63    2.83
  12   2   4   40.43    1.08
  13   2   4   32.73    1.46
  14   2   4   13.82    0.79
  15   2   4   15.20    1.46
 -15   3   4   24.97    1.09
 -14   3   4   36.77    1.44
 -13   3   4   37.19    1.42
 -12   3   4    3.38    0.34
 -11   3   4   11.09    0.60
 -10   3   4   12.90    0.62
  -9   3   4    9.04    0.48
  -8   3   4   29.03    1.11
  -7   3   4  180.22    5.85
  -6   3   4   61.13    2.16
  -5   3   4   64.16    1.81
  -4   3   4   13.24    0.49
  -3   3   4  169.17    4.56
  -2   3   4   46.47    1.37
  -1   3   4  104.93    2.87
   0   3   4    0.23    0.09
   1   3   4  105.76    2.88
   2   3   4   47.39    1.39
   3   3   4  174.77    4.60
   4   3   4   13.45    0.53
   5   3   4   65.14    1.89
   6   3   4   63.30    1.84
   7   3   4  187.47    4.80
   8   3   4   28.39    0.98
   9   3   4    7.99    0.43
  10   3   4   13.09    0.67
  11   3   4   12.05    0.67
  12   3   4    2.38    0.41
  13   3   4   35.21    1.92
  15   3   4   26.49    2.19
 -12   4   4   20.67    1.49
 -11   4   4   75.91    3.96
 -10   4   4   72.64    3.69
  -9   4   4   40.06    2.29
  -8   4   4    0.02    0.12
  -7   4   4    8.59    0.51
  -6   4   4    1.55    0.23
  -5   4   4   10.51    0.57
  -4   4   4   17.22    0.64
  -3   4   4  111.96    3.03
  -2   4   4   28.35    0.94
  -1   4   4  119.47    3.30
   0   4   4   22.10    0.78
   1   4   4  120.87    3.31
   2   4   4   28.75    0.96
   3   4   4  111.22    3.06
   4   4   4   17.41    0.68
   5   4   4   10.92    0.51
   6   4   4    1.56    0.24
   7   4   4    8.04    0.52
   8   4   4    0.12    0.15
   9   4   4   40.99    1.61
  10   4   4   72.22    2.57
  11   4   4   74.11    3.69
  12   4   4   23.13    1.43
  13   4   4   24.80    1.54
  -7   5   4   90.54    3.20
  -6   5   4   28.48    1.26
  -5   5   4   35.96    1.48
  -4   5   4    8.21    0.55
  -3   5   4   78.59    2.89
  -2   5   4   20.04    0.78
  -1   5   4   43.57    1.41
   0   5   4   -0.01    0.11
   1   5   4   42.65    1.41
   2   5   4   20.72    0.96
   3   5   4   78.48    2.81
   4   5   4    6.54    0.57
   5   5   4   34.45    1.45
   6   5   4   27.33    1.24
   7   5   4   86.31    3.13
   8   5   4   15.61    1.29
  -7  -5   5    4.30    1.26
  -6  -5   5    0.90    0.75
  -5  -5   5   10.72    1.80
  -4  -5   5   20.58    2.18
  -3  -5   5   59.60    4.19
  -2  -5   5   16.96    1.90
  -1  -5   5    0.17    0.49
   0  -5   5   11.98    1.71
   1  -5   5    0.21    0.47
   2  -5   5   18.79    1.91
   3  -5   5   58.06    3.99
   4  -5   5   15.96    1.88
   5  -5   5    8.87    1.52
   6  -5   5    0.68    0.65
 -12  -4   5   42.44    3.73
 -11  -4   5    5.08    1.35
 -10  -4   5    6.22    1.48
  -9  -4   5  111.14    7.22
  -8  -4   5   19.28    2.18
  -7  -4   5    9.45    1.60
  -6  -4   5   24.26    2.30
  -5  -4   5   59.24    3.93
  -4  -4   5    3.81    0.92
  -3  -4   5   22.30    2.01
  -2  -4   5    6.74    1.13
  -1  -4   5   54.81    3.66
   0  -4   5   -0.01    0.27
   1  -4   5   53.68    3.61
   2  -4   5    5.56    0.97
   3  -4   5   22.69    1.90
   4  -4   5    3.47    0.80
   5  -4   5   50.12    3.55
   6  -4   5   23.91    2.09
   7  -4   5    7.91    1.34
   8  -4   5   22.40    2.13
 -15  -3   5   51.20    2.66
 -14  -3   5    7.89    0.74
 -13  -3   5   94.72    4.48
 -12  -3   5   15.61    1.11
 -11  -3   5    4.09    0.54
 -10  -3   5   16.39    1.09
  -9  -3   5   32.98    1.74
  -8  -3   5    2.55    0.41
  -7  -3   5   10.05    0.65
  -6  -3   5    2.22    0.33
  -5  -3   5   17.01    0.91
  -4  -3   5   41.46    1.70
  -3  -3   5  118.16    4.14
  -2  -3   5   33.93    1.46
  -1  -3   5    1.34    0.27
   0  -3   5   49.13    1.91
   1  -3   5    1.32    0.26
   2  -3   5   31.25    1.40
   3  -3   5  116.09    4.09
   4  -3   5   41.10    1.66
   5  -3   5   18.04    0.90
   6  -3   5    2.59    0.35
   7  -3   5   10.22    0.64
   8  -3   5    2.81    0.38
   9  -3   5   30.79    1.44
  10  -3   5   17.78    1.14
  11  -3   5    3.21    0.51
  12  -3   5   17.07    1.17
  13  -3   5   95.31    4.51
  14  -3   5    7.29    0.75
  15  -3   5   48.78    2.66
 -16  -2   5   28.68    1.75
 -15  -2   5   46.76    2.46
 -14  -2   5    5.55    0.64
 -13  -2   5   17.61    1.16
 -12  -2   5   68.38    3.38
 -11  -2   5    9.28    0.71
 -10  -2   5   13.57    0.87
  -9  -2   5  202.77    8.75
  -8  -2   5   36.58    1.82
  -7  -2   5    7.59    0.58
  -6  -2   5   35.50    1.81
  -5  -2   5   97.31    4.53
  -4  -2   5   18.07    1.05
  -3  -2   5   88.19    3.09
  -2  -2   5   11.97    0.64
  -1  -2   5  136.30    4.74
   0  -2   5    0.28    0.14
   1  -2   5  145.55    4.77
   2  -2   5   14.02    0.67
   3  -2   5   84.34    3.07
   4  -2   5   18.60    0.88
   5  -2   5  103.02    3.63
   6  -2   5   38.20    1.52
   7  -2   5    7.66    0.53
   8  -2   5   35.74    1.53
   9  -2   5  195.57    6.95
  10  -2   5   12.79    0.77
  11  -2   5    9.50    0.77
  12  -2   5   69.28    3.46
  13  -2   5   19.79    1.25
  14  -2   5    5.51    0.69
  15  -2   5   46.49    2.53
  16  -2   5   31.72    1.85
 -17  -1   5   58.49    2.10
 -16  -1   5  117.36    3.74
 -15  -1   5   68.19    2.30
 -14  -1   5    9.65    0.51
 -13  -1   5  136.15    4.22
 -12  -1   5   23.93    0.94
 -11  -1   5    2.63    0.25
 -10  -1   5   24.15    0.89
  -9  -1   5   46.67    1.58
  -8  -1   5    9.02    0.61
  -7  -1   5   26.68    1.39
  -6  -1   5    4.81    0.38
  -5  -1   5   26.68    1.35
  -4  -1   5   67.54    2.28
  -3  -1   5  199.61    6.29
  -2  -1   5   52.80    2.66
  -1  -1   5    5.66    0.33
   0  -1   5  108.53    3.90
   1  -1   5    7.34    0.31
   2  -1   5   55.78    2.01
   3  -1   5  196.10    6.80
   4  -1   5   70.83    2.54
   5  -1   5   26.84    1.13
   6  -1   5    4.14    0.38
   7  -1   5   27.97    1.20
   8  -1   5    8.86    0.57
   9  -1   5   47.03    1.90
  10  -1   5   24.49    1.14
  11  -1   5    2.79    0.36
  12  -1   5   21.61    1.41
  13  -1   5  131.15    6.12
  14  -1   5    9.36    0.80
  15  -1   5   64.16    3.38
  16  -1   5  117.53    5.47
  17  -1   5   58.05    3.12
 -18   0   5   13.03    0.70
 -17   0   5   25.87    1.09
 -16   0   5   35.17    1.32
 -15   0   5   54.89    1.89
 -14   0   5    5.42    0.37
 -13   0   5   24.17    0.95
 -12   0   5   90.81    2.92
 -11   0   5   12.26    0.55
 -10   0   5   15.09    0.61
  -9   0   5  261.80    6.60
  -8   0   5   45.81    1.27
  -7   0   5    6.62    0.26
  -6   0   5   47.14    1.61
  -5   0   5  143.12    4.50
  -4   0   5   35.62    1.20
  -3   0   5  150.80    4.77
  -2   0   5   16.32    0.65
  -1   0   5  215.28    6.97
   0   0   5   -0.02    0.09
   1   0   5  241.30    7.07
   2   0   5   16.77    0.75
   3   0   5  143.12    4.90
   4   0   5   34.35    1.09
   5   0   5  138.33    3.97
   6   0   5   47.16    1.48
   7   0   5    6.88    0.35
   8   0   5   47.03    1.47
   9   0   5  263.01    8.91
  10   0   5   15.01    0.76
  11   0   5   12.96    0.70
  12   0   5   91.30    3.35
  13   0   5   23.51    1.44
  14   0   5    6.07    0.62
  15   0   5   52.63    2.80
  16   0   5   33.66    1.98
  17   0   5   28.22    1.70
  18   0   5   13.05    1.10
 -18   1   5    0.58    0.27
 -17   1   5   60.39    2.10
 -16   1   5  110.52    3.72
 -15   1   5   66.85    2.29
 -14   1   5    9.30    0.50
 -13   1   5  132.93    4.21
 -12   1   5   23.33    0.76
 -11   1   5    2.44    0.19
 -10   1   5   23.30    0.73
  -9   1   5   46.58    1.30
  -8   1   5    9.00    0.33
  -7   1   5   26.75    0.79
  -6   1   5    4.72    0.20
  -5   1   5   27.17    0.78
  -4   1   5   70.59    1.88
  -3   1   5  204.47    5.17
  -2   1   5   54.58    1.50
  -1   1   5    6.53    0.27
   0   1   5  112.58    2.93
   1   1   5    5.94    0.28
   2   1   5   54.28    1.57
   3   1   5  201.68    6.39
   4   1   5   70.12    2.00
   5   1   5   27.80    0.92
   6   1   5    4.48    0.25
   7   1   5   26.93    0.84
   8   1   5    9.45    0.41
   9   1   5   48.88    1.33
  10   1   5   24.51    0.88
  11   1   5    3.18    0.28
  12   1   5   25.01    1.13
  13   1   5  137.96    6.12
  14   1   5    9.59    0.79
  15   1   5   67.78    3.39
  16   1   5  115.29    5.46
  17   1   5   59.88    3.13
 -16   2   5   28.25    1.68
 -15   2   5   45.87    1.71
 -14   2   5    5.32    0.31
 -13   2   5   18.70    0.65
 -12   2   5   69.63    1.94
 -11   2   5    9.56    0.39
 -10   2   5   13.06    0.47
  -9   2   5  200.64    5.07
  -8   2   5   35.22    1.25
  -7   2   5    8.08    0.31
  -6   2   5   36.90    1.03
  -5   2   5   99.65    2.66
  -4   2   5   19.10    0.58
  -3   2   5   85.29    2.26
  -2   2   5   11.96    0.55
  -1   2   5  133.94    3.58
   0   2   5    0.02    0.06
   1   2   5  133.44    3.59
   2   2   5   12.76    0.38
   3   2   5   84.00    1.98
   4   2   5   18.42    0.55
   5   2   5  101.10    2.37
   6   2   5   36.22    0.96
   7   2   5    8.20    0.33
   8   2   5   36.24    0.98
   9   2   5  198.80    4.20
  10   2   5   12.90    0.44
  11   2   5   10.35    0.40
  12   2   5   72.87    1.68
  13   2   5   17.80    1.18
  14   2   5    5.75    0.68
  15   2   5   46.81    2.50
  16   2   5   30.49    1.83
 -15   3   5   48.51    2.70
 -14   3   5    7.46    0.73
 -13   3   5   95.14    4.69
 -12   3   5   17.28    1.17
 -11   3   5    2.97    0.47
 -10   3   5   16.42    1.12
  -9   3   5   32.32    1.80
  -8   3   5    2.54    0.41
  -7   3   5    9.71    0.50
  -6   3   5    2.18    0.24
  -5   3   5   17.56    0.76
  -4   3   5   39.46    1.19
  -3   3   5  111.75    3.05
  -2   3   5   32.37    1.00
  -1   3   5    1.41    0.16
   0   3   5   45.34    1.35
   1   3   5    1.13    0.15
   2   3   5   32.77    1.03
   3   3   5  112.70    3.09
   4   3   5   40.29    1.25
   5   3   5   17.18    0.68
   6   3   5    2.48    0.26
   7   3   5    9.34    0.47
   8   3   5    2.74    0.29
   9   3   5   31.92    1.10
  10   3   5   16.71    0.84
  11   3   5    3.46    0.40
  12   3   5   17.95    0.93
  13   3   5   91.71    4.41
 -12   4   5   36.36    2.25
 -11   4   5    7.09    0.72
 -10   4   5    7.91    0.77
  -9   4   5  109.55    5.31
  -8   4   5   19.81    1.33
  -7   4   5    8.31    0.51
  -6   4   5   22.84    0.98
  -5   4   5   50.65    1.90
  -4   4   5    4.09    0.32
  -3   4   5   21.17    0.76
  -2   4   5    6.93    0.37
  -1   4   5   54.61    1.60
   0   4   5    0.19    0.10
   1   4   5   52.97    1.60
   2   4   5    7.19    0.38
   3   4   5   20.52    0.78
   4   4   5    4.11    0.34
   5   4   5   50.08    1.60
   6   4   5   22.19    0.87
   7   4   5    8.41    0.54
   8   4   5   18.39    0.93
   9   4   5  105.07    3.68
  10   4   5    7.92    0.60
  11   4   5    5.52    0.55
  12   4   5   37.42    2.14
  -7   5   5    2.68    0.53
  -6   5   5    1.18    0.27
  -5   5   5    9.06    0.61
  -4   5   5   19.28    0.96
  -3   5   5   51.74    2.08
  -2   5   5   17.94    0.74
  -1   5   5    0.64    0.18
   0   5   5   11.44    0.57
   1   5   5    0.49    0.16
   2   5   5   16.80    0.74
   3   5   5   54.19    2.82
   4   5   5   18.64    0.95
   5   5   5    8.47    0.60
   6   5   5    1.30    0.29
   7   5   5    3.64    0.69
  -6  -5   6   72.99    5.28
  -5  -5   6   -0.33    0.41
  -4  -5   6   55.45    4.07
  -3  -5   6    0.97    0.60
  -2  -5   6    9.97    1.54
  -1  -5   6    1.84    0.71
   0  -5   6   -0.20    0.37
   1  -5   6    1.75    0.66
   2  -5   6   10.74    1.54
   3  -5   6    2.08    0.75
 -11  -4   6   72.14    5.12
 -10  -4   6  109.24    6.96
  -9  -4   6    1.43    0.70
  -8  -4   6    9.27    1.51
  -7  -4   6    0.11    0.40
  -6  -4   6   13.78    1.54
  -5  -4   6    0.15    0.41
  -4  -4   6    9.78    1.42
  -3  -4   6   13.77    1.47
  -2  -4   6   28.29    2.28
  -1  -4   6    1.25    0.48
   0  -4   6  307.31   17.14
   1  -4   6    1.42    0.50
   2  -4   6   27.88    2.19
   3  -4   6   14.09    1.43
   4  -4   6   10.93    1.19
   5  -4   6   -0.22    0.35
 -14  -3   6   15.46    1.14
 -13  -3   6   -0.01    0.20
 -12  -3   6    2.33    0.44
 -11  -3   6    6.25    0.63
  -9  -3   6    0.09    0.17
  -8  -3   6   85.07    3.21
  -7  -3   6   70.30    2.75
  -6  -3   6  142.40    5.08
  -5  -3   6    0.50    0.19
  -4  -3   6  112.37    4.03
  -3  -3   6    2.74    0.36
  -2  -3   6   20.37    1.00
  -1  -3   6    4.19    0.44
   0  -3   6   -0.02    0.14
   1  -3   6    3.96    0.43
   2  -3   6   19.50    0.97
   3  -3   6    2.72    0.36
   4  -3   6  108.51    3.99
   5  -3   6    0.47    0.20
   6  -3   6  146.01    5.07
   7  -3   6   70.95    3.46
   8  -3   6   86.12    4.03
   9  -3   6    0.68    0.30
  10  -3   6    3.91    0.57
  11  -3   6    7.28    0.71
  12  -3   6    2.06    0.45
  13  -3   6    0.30    0.27
  14  -3   6   14.82    1.16
  15  -3   6   55.99    3.07
 -16  -2   6    2.00    0.44
 -15  -2   6   10.35    0.90
 -14  -2   6   76.48    3.81
 -13  -2   6   -0.04    0.15
 -12  -2   6  102.84    4.77
 -11  -2   6  118.66    5.66
 -10  -2   6  168.52    7.75
  -9  -2   6    2.71    0.39
  -8  -2   6   20.85    1.23
  -7  -2   6    0.25    0.17
  -6  -2   6   27.44    1.50
  -5  -2   6    0.13    0.14
  -4  -2   6   20.92    1.24
  -3  -2   6   34.88    1.42
  -2  -2   6   46.41    1.77
  -1  -2   6    1.90    0.27
   0  -2   6  592.18   19.09
   1  -2   6    2.08    0.27
   2  -2   6   46.75    1.78
   3  -2   6   35.52    1.44
   4  -2   6   22.25    1.02
   5  -2   6    0.06    0.12
   6  -2   6   27.51    1.25
   7  -2   6    0.39    0.22
   8  -2   6   21.86    1.33
   9  -2   6    2.40    0.43
  10  -2   6  179.67    7.88
  11  -2   6  125.66    5.80
  12  -2   6  103.31    4.88
  13  -2   6    0.05    0.18
  14  -2   6   76.66    3.90
  15  -2   6   12.95    1.05
  16  -2   6    2.65    0.54
 -17  -1   6    2.22    0.45
 -16  -1   6   24.93    1.53
 -15  -1   6   79.66    2.64
 -14  -1   6   18.64    0.81
 -13  -1   6    0.24    0.16
 -12  -1   6    2.08    0.36
 -11  -1   6    9.87    0.73
 -10  -1   6    3.60    0.43
  -9  -1   6    1.12    0.24
  -8  -1   6  125.42    5.65
  -7  -1   6  121.84    5.57
  -6  -1   6  218.82    9.22
  -5  -1   6    1.78    0.28
  -4  -1   6  175.25    5.75
  -3  -1   6    6.13    0.34
  -2  -1   6   34.62    1.28
  -1  -1   6    5.54    0.35
   0  -1   6    0.30    0.09
   1  -1   6    5.92    0.29
   2  -1   6   36.30    1.12
   3  -1   6    5.75    0.31
   4  -1   6  180.38    6.21
   5  -1   6    1.98    0.27
   6  -1   6  212.19    7.25
   7  -1   6  126.31    5.70
   8  -1   6  126.63    5.77
   9  -1   6    0.24    0.16
  10  -1   6    3.20    0.48
  11  -1   6   12.68    0.88
  12  -1   6    2.51    0.44
  13  -1   6   -0.04    0.15
  14  -1   6   18.30    1.27
  15  -1   6   77.75    3.92
  16  -1   6   25.42    1.63
  17  -1   6    1.97    0.48
 -17   0   6    1.41    0.25
 -16   0   6    2.78    0.33
 -15   0   6   15.36    0.72
 -14   0   6   89.90    3.00
 -13   0   6    0.06    0.10
 -12   0   6  115.98    3.75
 -11   0   6  161.31    5.09
 -10   0   6  215.87    6.72
  -9   0   6    3.54    0.36
  -8   0   6   29.74    1.09
  -7   0   6    0.45    0.10
  -6   0   6   44.68    1.54
  -5   0   6    0.07    0.08
  -4   0   6   36.82    1.28
  -3   0   6   51.24    1.76
  -2   0   6   57.27    2.05
  -1   0   6    2.66    0.25
   0   0   6  737.94   22.02
   1   0   6    2.60    0.28
   2   0   6   64.00    2.17
   3   0   6   52.53    1.90
   4   0   6   34.96    1.41
   5   0   6   -0.05    0.05
   6   0   6   44.11    1.41
   7   0   6    0.39    0.11
   8   0   6   30.65    1.24
   9   0   6    4.12    0.51
  10   0   6  222.77    9.74
  11   0   6  163.20    7.40
  12   0   6  117.24    5.49
  13   0   6   -0.08    0.14
  14   0   6   92.18    4.44
  15   0   6   15.99    1.15
  16   0   6    3.51    0.59
  17   0   6    1.16    0.37
 -17   1   6    2.49    0.32
 -16   1   6   24.63    1.04
 -15   1   6   78.86    2.64
 -14   1   6   18.26    0.80
 -13   1   6    0.28    0.12
 -12   1   6    2.80    0.27
 -11   1   6   10.05    0.40
 -10   1   6    3.91    0.22
  -9   1   6    0.04    0.07
  -8   1   6  125.61    4.05
  -7   1   6  125.10    4.00
  -6   1   6  215.22    5.49
  -5   1   6    2.16    0.16
  -4   1   6  183.60    4.72
  -3   1   6    5.43    0.25
  -2   1   6   35.58    1.04
  -1   1   6    5.64    0.27
   0   1   6    0.76    0.10
   1   1   6    5.79    0.30
   2   1   6   34.10    1.11
   3   1   6    5.90    0.35
   4   1   6  186.89    5.84
   5   1   6    2.32    0.24
   6   1   6  220.33    5.70
   7   1   6  128.51    3.13
   8   1   6  127.72    3.15
   9   1   6    0.18    0.13
  10   1   6    3.80    0.38
  11   1   6   10.51    0.60
  12   1   6    2.69    0.44
  13   1   6    0.08    0.17
  14   1   6   18.90    1.26
  15   1   6   75.32    3.88
  16   1   6   26.35    1.64
  17   1   6    1.43    0.43
 -16   2   6    1.52    0.39
 -15   2   6   12.34    0.91
 -14   2   6   77.45    2.70
 -13   2   6    0.12    0.12
 -12   2   6  104.79    4.96
 -11   2   6  125.76    5.93
 -10   2   6  180.43    5.57
  -9   2   6    2.33    0.23
  -8   2   6   21.92    0.83
  -7   2   6    0.48    0.11
  -6   2   6   28.77    0.85
  -5   2   6    0.16    0.09
  -4   2   6   23.00    0.90
  -3   2   6   34.71    1.30
  -2   2   6   45.69    1.64
  -1   2   6    1.96    0.23
   0   2   6  579.63   18.30
   1   2   6    2.04    0.20
   2   2   6   44.18    1.36
   3   2   6   34.83    1.11
   4   2   6   22.55    0.66
   5   2   6    0.14    0.08
   6   2   6   28.61    0.81
   7   2   6    0.36    0.10
   8   2   6   22.26    0.69
   9   2   6    3.32    0.25
  10   2   6  173.23    4.07
  11   2   6  123.74    3.01
  12   2   6  102.56    2.97
  13   2   6    0.21    0.18
  14   2   6   79.42    3.88
 -15   3   6   58.33    3.12
 -14   3   6   14.96    1.14
 -13   3   6    0.05    0.19
 -12   3   6    1.69    0.38
 -11   3   6    6.51    0.63
 -10   3   6    3.68    0.52
  -9   3   6    0.26    0.18
  -8   3   6   79.28    4.10
  -7   3   6   69.31    2.47
  -6   3   6  137.06    4.71
  -5   3   6    0.37    0.13
  -4   3   6  108.53    3.72
  -3   3   6    2.54    0.27
  -2   3   6   20.27    0.70
  -1   3   6    3.58    0.27
   0   3   6    0.13    0.09
   1   3   6    3.88    0.29
   2   3   6   19.83    0.72
   3   3   6    2.84    0.26
   4   3   6  110.37    3.07
   5   3   6    0.47    0.14
   6   3   6  140.18    3.90
   7   3   6   69.36    2.10
   8   3   6   82.33    2.44
   9   3   6    0.14    0.13
  10   3   6    4.29    0.39
  11   3   6    6.77    0.56
  12   3   6    2.43    0.39
 -11   4   6   70.48    3.70
  -9   4   6    1.48    0.39
  -8   4   6    7.72    0.76
  -7   4   6    0.16    0.15
  -6   4   6   10.78    0.62
  -5   4   6    0.12    0.12
  -4   4   6    9.18    0.56
  -3   4   6   15.24    0.62
  -2   4   6   29.26    1.00
  -1   4   6    1.54    0.21
   0   4   6  311.58    8.17
   1   4   6    1.30    0.19
   2   4   6   29.88    1.03
   3   4   6   15.39    0.65
   4   4   6    9.87    0.51
   5   4   6    0.15    0.14
   6   4   6   11.09    0.58
   7   4   6    0.24    0.15
   8   4   6    7.94    0.60
   9   4   6    1.00    0.27
  10   4   6  103.25    3.69
  11   4   6   68.18    2.65
  -6   5   6   80.42    4.02
  -5   5   6   -0.03    0.17
  -4   5   6   56.42    2.18
  -3   5   6    1.26    0.28
  -2   5   6    9.99    0.54
  -1   5   6    1.29    0.23
   0   5   6    0.26    0.15
   1   5   6    1.73    0.26
   2   5   6   10.40    0.56
   3   5   6    1.57    0.25
   4   5   6   56.13    2.16
   5   5   6    0.01    0.17
  -5  -5   7    5.08    1.10
  -4  -5   7    0.22    0.50
  -3  -5   7   55.21    4.00
  -2  -5   7   12.86    1.50
  -1  -5   7  109.02    7.02
 -11  -4   7   13.73    1.72
 -10  -4   7   19.28    2.01
  -9  -4   7   21.81    2.12
  -8  -4   7    1.34    0.61
  -7  -4   7   86.18    5.61
  -6  -4   7   13.94    1.49
  -5  -4   7  206.40   11.46
  -4  -4   7   57.69    3.72
  -3  -4   7  117.74    7.04
  -2  -4   7    0.04    0.29
  -1  -4   7   12.24    1.23
   0  -4   7    0.21    0.32
   1  -4   7   10.58    1.16
 -14  -3   7    4.85    0.68
 -13  -3   7   20.06    1.41
 -12  -3   7   18.59    1.29
 -11  -3   7   60.49    3.14
 -10  -3   7    1.82    0.40
  -9  -3   7  114.41    5.44
  -8  -3   7   94.97    3.57
  -7  -3   7  134.95    4.80
  -6  -3   7   31.93    1.45
  -5  -3   7    8.97    0.60
  -4  -3   7    0.44    0.18
  -3  -3   7  114.76    4.14
  -2  -3   7   26.25    1.25
  -1  -3   7  241.87    8.42
   0  -3   7   32.16    1.39
   1  -3   7  258.62    8.46
   2  -3   7   29.30    1.28
   3  -3   7  114.34    4.13
   4  -3   7    0.32    0.24
   5  -3   7    8.09    0.76
   6  -3   7   30.84    1.84
   7  -3   7  131.30    6.13
   8  -3   7   95.50    4.55
   9  -3   7  120.15    5.54
  10  -3   7    2.33    0.48
  11  -3   7   60.85    3.22
  12  -3   7   18.50    1.36
  13  -3   7   24.45    1.57
  14  -3   7    4.39    0.71
 -15  -2   7   39.08    2.27
 -14  -2   7    0.57    0.27
 -13  -2   7   12.32    0.94
 -12  -2   7   17.37    1.14
 -11  -2   7   25.47    1.59
 -10  -2   7   29.35    1.70
  -9  -2   7   31.76    1.76
  -8  -2   7    2.18    0.36
  -7  -2   7  147.85    6.61
  -6  -2   7   22.67    1.28
  -5  -2   7  372.73   15.62
  -4  -2   7  110.17    5.01
  -3  -2   7  244.89    8.26
  -2  -2   7    0.45    0.16
  -1  -2   7   23.90    1.07
   0  -2   7    0.29    0.14
   1  -2   7   25.09    1.07
   2  -2   7    0.22    0.14
   3  -2   7  265.49   10.76
   4  -2   7  110.82    5.12
   5  -2   7  326.57   15.68
   6  -2   7   20.18    1.34
   7  -2   7  145.33    6.71
   8  -2   7    2.80    0.46
   9  -2   7   31.93    1.86
  10  -2   7   30.16    1.82
  11  -2   7   31.92    1.78
  12  -2   7   18.22    1.26
  13  -2   7   13.84    1.07
  14  -2   7   -0.06    0.23
  15  -2   7   41.88    2.40
 -16  -1   7   -0.01    0.19
 -15  -1   7   25.78    1.59
 -14  -1   7    4.22    0.56
 -13  -1   7   24.44    1.53
 -12  -1   7   26.09    1.53
 -11  -1   7   85.61    4.08
 -10  -1   7    2.54    0.37
  -9  -1   7  174.75    7.80
  -8  -1   7  158.46    6.95
  -7  -1   7  233.13    9.71
  -6  -1   7   57.47    2.78
  -5  -1   7   14.74    0.87
  -4  -1   7    0.27    0.15
  -3  -1   7  180.21    5.71
  -2  -1   7   47.18    1.77
  -1  -1   7  377.20   12.16
   0  -1   7   56.73    1.77
   1  -1   7  400.05   10.47
   2  -1   7   50.31    1.84
   3  -1   7  180.05    5.79
   4  -1   7    0.65    0.24
   5  -1   7   12.08    0.92
   6  -1   7   57.74    2.90
   7  -1   7  230.29    9.84
   8  -1   7  161.95    7.10
   9  -1   7  186.02    7.98
  10  -1   7    2.60    0.44
  11  -1   7   88.90    4.24
  12  -1   7   27.35    1.67
  13  -1   7   26.35    1.68
  14  -1   7    6.53    0.78
  15  -1   7   27.37    1.74
  16  -1   7    0.04    0.26
 -17   0   7   19.09    1.27
 -16   0   7   36.62    2.04
 -15   0   7   44.83    2.45
 -14   0   7    0.21    0.18
 -13   0   7   15.41    1.00
 -12   0   7   20.76    1.25
 -11   0   7   36.97    1.96
 -10   0   7   39.30    2.03
  -9   0   7   41.29    2.04
  -8   0   7    1.80    0.28
  -7   0   7  194.20    6.03
  -6   0   7   29.82    1.09
  -5   0   7  503.61   15.00
  -4   0   7  154.92    4.86
  -3   0   7  336.10   10.50
  -2   0   7    0.23    0.11
  -1   0   7   34.38    1.30
   0   0   7    0.06    0.11
   1   0   7   35.42    1.32
   2   0   7    0.22    0.13
   3   0   7  370.45   10.66
   4   0   7  152.40    5.02
   5   0   7  473.48   15.17
   6   0   7   28.06    1.22
   7   0   7  183.59    6.20
   8   0   7    2.63    0.33
   9   0   7   40.84    1.63
  10   0   7   38.85    2.16
  11   0   7   36.87    2.09
  12   0   7   21.99    1.40
  13   0   7   15.18    1.11
  14   0   7    0.34    0.27
  15   0   7   50.48    2.66
  16   0   7   36.24    2.18
  17   0   7   17.29    1.36
 -17   1   7    0.40    0.24
 -16   1   7    0.10    0.19
 -15   1   7   27.84    1.55
 -14   1   7    4.87    0.49
 -13   1   7   28.03    1.52
 -12   1   7   27.91    1.49
 -11   1   7   89.14    2.91
 -10   1   7    2.93    0.26
  -9   1   7  179.86    5.62
  -8   1   7  158.23    5.00
  -7   1   7  233.51    7.00
  -6   1   7   59.81    1.98
  -5   1   7   14.38    0.52
  -4   1   7    0.16    0.08
  -3   1   7  185.93    4.70
  -2   1   7   50.85    1.46
  -1   1   7  388.46   10.02
   0   1   7   59.28    1.73
   1   1   7  360.73   12.62
   2   1   7   48.60    1.54
   3   1   7  171.33    4.79
   4   1   7    0.17    0.11
   5   1   7   15.20    0.63
   6   1   7   62.72    1.83
   7   1   7  234.78    5.98
   8   1   7  163.27    5.19
   9   1   7  178.35    5.81
  10   1   7    2.64    0.34
  11   1   7   87.15    3.08
  12   1   7   28.43    1.23
  13   1   7   27.73    1.67
  14   1   7    4.12    0.62
  15   1   7   28.26    1.73
  17   1   7    2.24    0.53
 -13   2   7   11.94    0.90
 -12   2   7   16.10    1.11
 -11   2   7   28.12    1.63
 -10   2   7   32.36    1.76
  -9   2   7   33.04    1.80
  -8   2   7    1.57    0.30
  -7   2   7  147.60    6.92
  -6   2   7   22.06    0.91
  -5   2   7  369.76   11.64
  -4   2   7  109.01    3.70
  -3   2   7  239.75    7.89
  -2   2   7    0.22    0.12
  -1   2   7   25.15    1.03
   0   2   7    0.05    0.11
   1   2   7   25.23    1.07
   2   2   7    0.06    0.12
   3   2   7  234.80    8.04
   4   2   7  103.15    3.88
   5   2   7  344.11   11.85
   6   2   7   22.25    1.11
   7   2   7  148.71    5.18
   8   2   7    2.09    0.38
   9   2   7   33.18    1.58
  10   2   7   32.96    1.58
  11   2   7   28.28    1.44
  12   2   7   17.81    1.37
  13   2   7   11.60    1.10
 -14   3   7    3.84    0.61
 -13   3   7   21.79    1.47
 -12   3   7   18.91    1.32
 -11   3   7   60.48    3.25
 -10   3   7    1.78    0.38
  -9   3   7  111.82    5.66
  -8   3   7   91.68    4.65
  -7   3   7  128.90    6.33
  -6   3   7   33.28    1.29
  -5   3   7    8.36    0.49
  -4   3   7    0.13    0.11
  -3   3   7  112.91    3.88
  -2   3   7   27.52    1.15
  -1   3   7  239.29    8.04
   0   3   7   32.19    1.31
   1   3   7  243.66    6.45
   2   3   7   27.98    0.97
   3   3   7  111.89    3.18
   4   3   7    0.08    0.11
   5   3   7    8.99    0.50
   6   3   7   31.58    1.14
   7   3   7  132.66    3.70
   8   3   7   93.88    2.76
   9   3   7  120.02    3.37
  10   3   7    2.50    0.31
  11   3   7   64.50    2.03
  12   3   7   22.51    2.04
  -9   4   7   21.08    1.47
  -8   4   7    1.49    0.40
  -7   4   7   84.58    4.45
  -6   4   7   13.12    0.71
  -5   4   7  201.00    6.67
  -4   4   7   52.26    2.05
  -3   4   7  115.47    4.12
  -2   4   7    0.18    0.14
  -1   4   7   12.34    0.56
   0   4   7    0.28    0.14
   1   4   7   11.26    0.56
   2   4   7    0.21    0.13
   3   4   7  117.85    3.37
   4   4   7   54.70    1.74
   5   4   7  197.50    5.46
   6   4   7   11.35    0.62
   7   4   7   86.56    2.62
   8   4   7    1.17    0.28
   9   4   7   21.07    1.09
  10   4   7   18.14    1.02
  11   4   7   13.93    0.90
  -5   5   7    4.46    0.69
  -4   5   7    0.10    0.26
  -3   5   7   53.93    2.25
  -2   5   7   12.56    1.15
  -1   5   7  117.15    3.34
   0   5   7   15.37    0.72
   1   5   7  116.87    3.36
   2   5   7   13.41    0.84
   3   5   7   58.60    2.31
 -10  -4   8    7.92    1.37
  -9  -4   8    5.88    1.16
  -8  -4   8    0.99    0.54
  -7  -4   8    6.39    0.67
  -6  -4   8    1.30    0.34
  -5  -4   8   58.82    2.45
  -4  -4   8   19.19    1.09
  -3  -4   8    3.60    0.47
  -2  -4   8    0.43    0.29
  -1  -4   8   31.78    1.93
   0  -4   8   42.27    2.36
   1  -4   8   38.80    2.12
   2  -4   8    0.14    0.29
   3  -4   8    2.83    0.58
 -13  -3   8   44.45    2.53
 -12  -3   8    5.51    0.74
 -11  -3   8   61.06    3.17
 -10  -3   8   36.37    2.02
  -9  -3   8   75.74    3.74
  -8  -3   8   25.68    1.27
  -7  -3   8   56.04    2.25
  -6  -3   8    1.40    0.28
  -5  -3   8    1.95    0.32
  -4  -3   8   29.64    1.35
  -3  -3   8  140.32    5.17
  -2  -3   8   10.31    0.65
  -1  -3   8   33.76    1.48
   0  -3   8    0.10    0.20
   1  -3   8   35.25    2.00
   2  -3   8   11.52    0.92
   3  -3   8  154.11    6.77
   4  -3   8   29.71    1.80
   5  -3   8    1.97    0.44
   6  -3   8    1.22    0.36
   7  -3   8   49.64    2.84
   8  -3   8   26.76    1.65
   9  -3   8   74.66    3.83
  10  -3   8   37.14    2.11
  11  -3   8   61.65    3.25
  12  -3   8    5.46    0.79
  13  -3   8   46.29    2.64
 -15  -2   8   76.14    3.89
 -14  -2   8   29.38    1.76
 -13  -2   8   71.17    3.65
 -12  -2   8    9.54    0.83
 -11  -2   8   50.93    2.65
 -10  -2   8   10.01    0.82
  -9  -2   8    8.80    0.70
  -8  -2   8    1.32    0.30
  -7  -2   8   11.93    0.85
  -6  -2   8    3.35    0.46
  -5  -2   8  120.02    5.52
  -4  -2   8   33.60    1.85
  -3  -2   8    3.12    0.34
  -2  -2   8    0.91    0.16
  -1  -2   8   51.22    2.01
   0  -2   8   66.64    3.41
   1  -2   8   51.49    2.66
   2  -2   8    0.23    0.21
   3  -2   8    3.40    0.52
   4  -2   8   35.52    1.97
   5  -2   8  116.68    5.61
   6  -2   8    2.98    0.49
   7  -2   8   10.72    0.90
   8  -2   8    0.89    0.31
   9  -2   8   12.32    0.90
  10  -2   8   11.19    0.94
  11  -2   8   55.07    2.82
  12  -2   8   13.05    1.02
  13  -2   8   77.10    3.84
  14  -2   8   29.73    1.91
 -16  -1   8    2.76    0.50
 -15  -1   8    4.05    0.57
 -14  -1   8    8.13    0.73
 -13  -1   8   63.58    3.16
 -12  -1   8    8.26    0.70
 -11  -1   8   82.93    4.13
 -10  -1   8   49.10    2.55
  -9  -1   8  109.45    5.06
  -8  -1   8   38.43    1.94
  -7  -1   8   88.31    3.99
  -6  -1   8    4.30    0.44
  -5  -1   8    7.96    0.61
  -4  -1   8   44.15    2.20
  -3  -1   8  247.40    7.31
  -2  -1   8   13.48    0.67
  -1  -1   8   85.37    3.14
   0  -1   8    0.04    0.13
   1  -1   8   79.21    2.88
   2  -1   8   13.12    0.69
   3  -1   8  236.10    7.39
   4  -1   8   44.83    1.72
   5  -1   8    7.35    0.67
   6  -1   8    4.50    0.58
   7  -1   8   78.31    4.08
   8  -1   8   36.41    2.04
   9  -1   8  111.61    5.23
  10  -1   8   51.23    2.72
  11  -1   8   89.23    4.31
  12  -1   8    8.82    0.83
  13  -1   8   65.62    3.35
  14  -1   8    8.44    0.86
  15  -1   8    4.53    0.70
  16  -1   8    3.12    0.62
 -16   0   8   11.12    0.93
 -15   0   8   93.02    4.58
 -14   0   8   32.19    1.84
 -13   0   8   82.38    4.11
 -12   0   8   11.24    0.80
 -11   0   8   59.88    3.03
 -10   0   8   12.45    0.83
  -9   0   8    7.83    0.60
  -8   0   8    1.46    0.27
  -7   0   8   16.52    0.97
  -6   0   8    4.09    0.29
  -5   0   8  173.01    5.32
  -4   0   8   46.37    1.61
  -3   0   8    2.62    0.27
  -2   0   8    0.52    0.15
  -1   0   8   64.56    2.30
   0   0   8   91.68    3.15
   1   0   8   66.88    2.31
   2   0   8    0.81    0.19
   3   0   8    2.66    0.33
   4   0   8   48.26    1.74
   5   0   8  169.88    5.49
   6   0   8    3.99    0.41
   7   0   8   15.84    0.83
   8   0   8    1.15    0.24
   9   0   8    7.55    0.55
  10   0   8   13.36    0.97
  11   0   8   62.81    3.21
  12   0   8   12.05    0.95
  13   0   8   90.41    4.35
  14   0   8   34.59    2.03
  15   0   8   99.99    4.82
  16   0   8   13.57    1.12
 -16   1   8    3.55    0.53
 -15   1   8    3.87    0.53
 -14   1   8    8.73    0.71
 -13   1   8   62.10    3.09
 -12   1   8    8.40    0.66
 -11   1   8   88.44    4.07
 -10   1   8   52.97    1.82
  -9   1   8  112.30    3.63
  -8   1   8   39.05    1.36
  -7   1   8   91.24    2.86
  -6   1   8    5.10    0.31
  -5   1   8    8.46    0.38
  -4   1   8   45.01    1.34
  -3   1   8  229.50    6.02
  -2   1   8   13.48    0.54
  -1   1   8   83.38    2.39
   0   1   8    0.11    0.11
   1   1   8   84.22    2.43
   2   1   8   13.71    0.60
   3   1   8  219.20    6.11
   4   1   8   42.93    1.43
   5   1   8    8.48    0.47
   6   1   8    4.82    0.36
   7   1   8   93.19    3.03
   8   1   8   40.48    1.53
   9   1   8  117.81    3.84
  10   1   8   54.25    2.01
  11   1   8   93.98    3.17
  12   1   8    9.29    0.64
  13   1   8   69.79    3.36
  14   1   8    8.26    0.83
  15   1   8    4.43    0.70
  16   1   8    3.18    0.61
 -12   2   8   10.79    0.84
 -11   2   8   51.73    2.72
 -10   2   8   11.96    0.85
  -9   2   8    7.64    0.66
  -8   2   8    1.15    0.28
  -7   2   8   11.18    0.82
  -6   2   8    3.03    0.43
  -5   2   8  120.26    4.10
  -4   2   8   36.22    1.39
  -3   2   8    3.02    0.33
  -2   2   8    0.07    0.11
  -1   2   8   51.44    1.98
   0   2   8   70.40    2.58
   1   2   8   52.71    2.03
   2   2   8    0.17    0.15
   3   2   8    3.03    0.41
   4   2   8   33.13    1.54
   5   2   8  117.92    4.32
   6   2   8    3.84    0.49
   7   2   8   11.82    0.79
   8   2   8    1.33    0.34
   9   2   8    7.69    0.70
  10   2   8   12.76    0.89
  11   2   8   50.17    2.18
  12   2   8   12.24    1.09
  13   2   8   73.03    4.04
 -13   3   8   46.33    2.61
 -12   3   8    6.19    0.76
 -11   3   8   59.99    3.26
 -10   3   8   34.56    2.04
  -9   3   8   73.43    3.87
  -8   3   8   25.57    1.59
  -7   3   8   52.54    2.89
  -6   3   8    1.17    0.31
  -5   3   8    2.16    0.29
  -4   3   8   29.79    1.25
  -3   3   8  141.80    4.91
  -2   3   8   10.19    0.60
  -1   3   8   35.18    1.44
   0   3   8    0.04    0.13
   1   3   8   34.31    1.47
   2   3   8   10.18    0.65
   3   3   8  139.58    5.04
   4   3   8   28.41    1.39
   5   3   8    2.48    0.40
   6   3   8    0.88    0.27
   7   3   8   56.60    2.30
   8   3   8   27.77    1.37
   9   3   8   75.50    3.03
  10   3   8   36.29    1.74
  11   3   8   63.50    2.67
  12   3   8    6.64    1.34
  13   3   8   49.06    3.26
  -9   4   8    6.14    0.80
  -8   4   8    0.83    0.34
  -7   4   8    7.41    0.75
  -6   4   8    1.33    0.39
  -5   4   8   60.19    2.25
  -4   4   8   18.47    0.95
  -3   4   8    3.12    0.39
  -2   4   8    0.48    0.19
  -1   4   8   31.09    1.39
   0   4   8   38.43    1.68
   1   4   8   29.85    1.40
   2   4   8    0.43    0.16
   3   4   8    3.71    0.37
   4   4   8   19.74    0.86
   5   4   8   55.53    1.89
   6   4   8    1.56    0.27
   7   4   8    5.99    0.51
   8   4   8    0.84    0.24
   9   4   8    6.03    0.64
  10   4   8   12.47    1.58
   0   5   8    0.19    0.32
   1   5   8   10.34    1.13
   2   5   8    5.56    0.94
   3   5   8   68.65    4.20
  -9  -4   9   13.50    0.92
  -8  -4   9   40.80    1.92
  -7  -4   9    1.37    0.46
  -6  -4   9   60.27    3.31
  -5  -4   9    9.15    0.93
  -4  -4   9   46.57    2.67
  -3  -4   9    0.10    0.28
  -2  -4   9   17.38    1.33
  -1  -4   9    3.67    0.63
   0  -4   9   -0.10    0.24
   1  -4   9    5.06    0.74
   2  -4   9   19.02    1.41
   3  -4   9    0.03    0.28
   4  -4   9   47.58    2.68
   5  -4   9    8.80    1.01
   6  -4   9   53.76    3.19
   7  -4   9    1.16    0.41
 -12  -3   9   94.92    4.75
 -11  -3   9    1.40    0.40
 -10  -3   9    1.69    0.42
  -9  -3   9   11.64    0.78
  -8  -3   9   17.48    0.99
  -7  -3   9    2.96    0.41
  -6  -3   9   41.42    1.78
  -5  -3   9   14.49    0.83
  -4  -3   9    1.67    0.42
  -3  -3   9   -0.03    0.20
  -2  -3   9   27.47    1.78
  -1  -3   9    2.49    0.45
   0  -3   9   70.64    3.57
   1  -3   9    2.82    0.48
   2  -3   9   29.70    1.80
   3  -3   9   -0.18    0.18
   4  -3   9    1.63    0.44
   5  -3   9   14.35    1.11
   6  -3   9   39.21    2.31
   7  -3   9    2.88    0.54
   8  -3   9   15.92    1.27
   9  -3   9   11.75    1.04
  10  -3   9    1.31    0.42
  11  -3   9    1.00    0.39
  12  -3   9   98.66    4.89
 -14  -2   9    7.70    0.77
 -13  -2   9    1.69    0.40
 -12  -2   9    3.11    0.51
 -11  -2   9    5.03    0.63
 -10  -2   9   14.54    1.06
  -9  -2   9   24.27    1.43
  -8  -2   9   62.50    3.07
  -7  -2   9    1.94    0.38
  -6  -2   9   95.68    4.51
  -5  -2   9   17.09    1.17
  -4  -2   9   77.29    2.89
  -3  -2   9    0.74    0.28
  -2  -2   9   39.62    2.27
  -1  -2   9    6.95    0.68
   0  -2   9    0.41    0.20
   1  -2   9    7.12    0.68
   2  -2   9   43.98    2.29
   3  -2   9    0.52    0.26
   4  -2   9   77.32    3.82
   5  -2   9   19.50    1.30
   6  -2   9   95.00    4.61
   7  -2   9    2.18    0.46
   8  -2   9   60.75    3.17
   9  -2   9   21.80    1.48
  10  -2   9   16.53    1.21
  11  -2   9    5.60    0.75
  12  -2   9    3.93    0.66
  13  -2   9    2.03    0.53
  14  -2   9    8.65    1.00
 -15  -1   9    1.96    0.43
 -14  -1   9   60.15    3.07
 -13  -1   9   45.14    2.44
 -12  -1   9  126.16    6.03
 -11  -1   9    1.18    0.29
 -10  -1   9    1.11    0.28
  -9  -1   9   17.33    1.15
  -8  -1   9   27.86    1.53
  -7  -1   9    6.01    0.55
  -6  -1   9   70.67    3.41
  -5  -1   9   24.53    1.37
  -4  -1   9    2.15    0.36
  -3  -1   9    0.05    0.15
  -2  -1   9   43.69    1.58
  -1  -1   9    3.92    0.38
   0  -1   9  108.30    3.47
   1  -1   9    3.50    0.37
   2  -1   9   40.63    1.62
   3  -1   9    0.18    0.15
   4  -1   9    1.92    0.31
   5  -1   9   24.89    1.48
   6  -1   9   69.63    3.52
   7  -1   9    5.77    0.70
   8  -1   9   25.25    1.62
   9  -1   9   18.46    1.29
  10  -1   9    1.28    0.36
  11  -1   9    1.33    0.37
  12  -1   9  132.15    6.25
  13  -1   9   47.49    2.64
  14  -1   9   62.34    3.27
  15  -1   9    1.56    0.48
 -16   0   9   36.88    2.07
 -14   0   9    9.73    0.81
 -13   0   9    2.19    0.39
 -12   0   9    4.12    0.52
 -11   0   9    6.46    0.57
 -10   0   9   17.73    1.07
  -9   0   9   30.27    1.66
  -8   0   9   78.34    3.74
  -7   0   9    2.10    0.34
  -6   0   9  115.40    5.18
  -5   0   9   24.67    0.98
  -4   0   9   97.71    3.23
  -3   0   9    1.43    0.23
  -2   0   9   59.92    2.16
  -1   0   9   10.34    0.56
   0   0   9    0.05    0.11
   1   0   9    9.57    0.55
   2   0   9   62.82    2.18
   3   0   9    1.62    0.26
   4   0   9  100.76    3.32
   5   0   9   25.23    1.08
   6   0   9  116.67    3.93
   7   0   9    2.57    0.34
   8   0   9   81.66    2.90
   9   0   9   30.64    1.37
  10   0   9   16.50    1.19
  11   0   9    6.04    0.75
  12   0   9    4.43    0.65
  13   0   9    1.50    0.44
  14   0   9   10.31    0.95
  15   0   9    1.47    0.45
 -16   1   9   37.00    2.05
 -15   1   9    1.35    0.35
 -14   1   9   59.78    2.99
 -13   1   9   45.97    2.38
 -12   1   9  136.03    5.99
 -11   1   9    1.78    0.32
 -10   1   9    1.24    0.27
  -9   1   9   19.41    0.82
  -8   1   9   27.79    1.06
  -7   1   9    5.74    0.36
  -6   1   9   76.65    2.45
  -5   1   9   24.90    0.83
  -4   1   9    1.76    0.20
  -3   1   9    0.31    0.12
  -2   1   9   41.33    1.33
  -1   1   9    3.90    0.30
   0   1   9  100.90    2.88
   1   1   9    3.60    0.32
   2   1   9   42.48    1.37
   3   1   9    0.12    0.12
   4   1   9    2.05    0.25
   5   1   9   23.30    0.89
   6   1   9   72.48    2.56
   7   1   9    5.72    0.46
   8   1   9   29.32    1.21
   9   1   9   20.73    0.98
  10   1   9    0.99    0.24
  11   1   9    1.81    0.33
  12   1   9  137.43    4.56
  13   1   9   51.95    2.66
  14   1   9   63.28    3.26
  15   1   9    2.13    0.52
  16   1   9   35.80    2.25
 -11   2   9    6.63    0.62
 -10   2   9   15.21    1.06
  -9   2   9   23.34    1.41
  -8   2   9   61.34    3.16
  -7   2   9    2.05    0.38
  -6   2   9   99.86    4.72
  -5   2   9   18.99    0.91
  -4   2   9   76.72    2.80
  -3   2   9    0.82    0.21
  -2   2   9   42.68    1.72
  -1   2   9    8.47    0.56
   0   2   9    0.30    0.18
   1   2   9    7.69    0.62
   2   2   9   44.76    1.86
   3   2   9    0.88    0.27
   4   2   9   75.34    2.99
   5   2   9   18.74    1.06
   6   2   9   90.83    3.59
   7   2   9    2.21    0.39
   8   2   9   63.35    2.58
   9   2   9   22.10    1.23
  10   2   9   15.69    0.96
  11   2   9    5.59    0.83
  12   2   9    3.63    0.70
  13   2   9    1.58    0.49
  14   2   9    7.63    1.01
 -11   3   9    1.22    0.37
 -10   3   9    1.78    0.41
  -9   3   9   12.12    0.97
  -8   3   9   18.05    1.26
  -7   3   9    2.63    0.47
  -6   3   9   38.66    2.31
  -5   3   9   13.92    0.76
  -4   3   9    1.96    0.30
  -3   3   9    0.15    0.15
  -2   3   9   30.60    1.34
  -1   3   9    2.35    0.35
   0   3   9   71.72    2.70
   1   3   9    2.28    0.36
   2   3   9   30.64    1.43
   3   3   9   -0.07    0.14
   4   3   9    2.13    0.41
   5   3   9   14.56    0.92
   6   3   9   39.89    1.84
   7   3   9    2.87    0.48
   8   3   9   20.17    1.14
   9   3   9   13.01    0.95
  10   3   9    2.50    0.47
  11   3   9    1.38    0.40
  12   3   9  101.33    3.86
  -8   4   9   39.98    2.49
  -7   4   9    1.35    0.42
  -6   4   9   60.38    3.37
  -5   4   9    9.19    0.64
  -4   4   9   47.28    1.94
  -3   4   9    0.14    0.18
  -2   4   9   18.61    0.99
  -1   4   9    3.04    0.42
   0   4   9    1.07    0.24
   1   4   9    3.67    0.47
   2   4   9   17.93    1.04
   3   4   9    0.22    0.22
   4   4   9   46.64    2.11
   5   4   9    9.01    0.85
   6   4   9   63.34    2.59
   7   4   9    1.42    0.38
   8   4   9   42.94    1.98
   9   4   9   14.13    1.31
  -8  -4  10    9.11    1.08
  -7  -4  10   26.36    1.82
  -6  -4  10   22.03    1.61
  -5  -4  10    0.53    0.35
  -4  -4  10   13.65    1.17
  -3  -4  10   29.72    1.88
  -2  -4  10    0.11    0.27
  -1  -4  10  196.55    8.96
   0  -4  10   21.17    1.50
   1  -4  10  203.58    9.02
   2  -4  10    0.84    0.37
   3  -4  10   31.86    1.96
   4  -4  10   15.35    1.25
   5  -4  10    0.72    0.38
   6  -4  10   22.18    1.58
   7  -4  10   25.51    1.75
   8  -4  10    8.89    1.06
 -11  -3  10    0.08    0.25
 -10  -3  10   10.09    0.93
  -9  -3  10   36.41    2.10
  -8  -3  10    5.42    0.73
  -7  -3  10   76.77    3.94
  -6  -3  10    3.79    0.61
  -5  -3  10  134.10    6.62
  -4  -3  10    4.77    0.68
  -3  -3  10  196.96    9.18
  -2  -3  10   13.38    1.07
  -1  -3  10   13.17    1.01
   0  -3  10    0.08    0.22
   1  -3  10   12.95    1.01
   2  -3  10   13.95    1.07
   3  -3  10  202.15    9.18
   4  -3  10    4.45    0.69
   5  -3  10  150.04    6.71
   6  -3  10    3.66    0.62
   7  -3  10   75.92    3.97
   8  -3  10    6.40    0.83
   9  -3  10   36.42    2.17
  10  -3  10   10.15    0.98
  11  -3  10    0.70    0.37
 -13  -2  10   72.27    3.67
 -12  -2  10    0.41    0.26
 -11  -2  10   70.26    3.51
 -10  -2  10   48.64    2.55
  -9  -2  10  113.10    5.28
  -8  -2  10   17.26    1.17
  -7  -2  10   46.80    2.48
  -6  -2  10   41.82    2.21
  -5  -2  10    0.30    0.24
  -4  -2  10   28.57    1.74
  -3  -2  10   48.07    2.67
  -2  -2  10    0.04    0.19
  -1  -2  10  324.67   14.31
   0  -2  10   37.41    2.20
   1  -2  10  333.13   14.31
   2  -2  10    0.26    0.21
   3  -2  10   50.94    2.68
   4  -2  10   28.86    1.76
   5  -2  10    0.06    0.20
   6  -2  10   41.01    2.29
   7  -2  10   46.83    2.56
   8  -2  10   17.57    1.26
   9  -2  10  111.75    5.40
  10  -2  10   45.38    2.63
  11  -2  10   65.12    3.60
  12  -2  10    0.52    0.33
  13  -2  10   73.79    3.84
 -14  -1  10   19.35    1.34
 -13  -1  10   81.90    4.16
 -12  -1  10   31.01    1.87
 -11  -1  10    0.15    0.18
 -10  -1  10   14.55    1.05
  -9  -1  10   46.53    2.43
  -8  -1  10    9.64    0.76
  -7  -1  10  103.55    5.02
  -6  -1  10    5.28    0.60
  -5  -1  10  213.90    9.64
  -4  -1  10    7.20    0.66
  -3  -1  10  311.45   13.59
  -2  -1  10   21.89    1.38
  -1  -1  10   22.31    0.94
   0  -1  10    0.10    0.14
   1  -1  10   20.66    0.94
   2  -1  10   24.71    1.05
   3  -1  10  336.27    9.99
   4  -1  10    8.58    0.59
   5  -1  10  228.63    7.18
   6  -1  10    5.60    0.69
   7  -1  10  110.94    5.18
   8  -1  10    9.11    0.82
   9  -1  10   46.21    2.55
  10  -1  10   15.29    1.18
  11  -1  10    0.34    0.27
  12  -1  10   33.67    2.06
  13  -1  10   87.07    4.38
  14  -1  10   19.03    1.47
 -15   0  10    2.82    0.50
 -14   0  10    0.88    0.30
 -13   0  10   82.86    4.08
 -12   0  10    0.98    0.29
 -11   0  10   79.65    3.87
 -10   0  10   56.89    2.93
  -9   0  10  144.92    6.73
  -8   0  10   22.66    1.34
  -7   0  10   62.16    3.01
  -6   0  10   56.30    2.74
  -4   0  10   42.14    1.59
  -3   0  10   63.62    2.25
  -2   0  10    0.45    0.16
  -1   0  10  422.47   13.12
   0   0  10   54.27    2.01
   1   0  10  429.39   13.13
   2   0  10    0.91    0.20
   3   0  10   62.83    2.26
   4   0  10   43.67    1.64
   6   0  10   59.77    2.14
   7   0  10   64.84    2.34
   8   0  10   23.08    1.11
   9   0  10  150.03    5.09
  10   0  10   58.87    3.11
  11   0  10   80.40    4.06
  12   0  10    0.71    0.33
  13   0  10   84.17    4.30
  14   0  10    1.23    0.42
  15   0  10    2.11    0.54
 -15   1  10   14.69    1.06
 -14   1  10   22.04    1.32
 -13   1  10   87.92    4.12
 -12   1  10   34.88    1.85
 -11   1  10    0.65    0.24
 -10   1  10   17.79    1.05
  -9   1  10   50.69    2.38
  -8   1  10   10.00    0.70
  -7   1  10  115.86    3.64
  -6   1  10    5.45    0.39
  -5   1  10  223.24    6.98
  -4   1  10    8.07    0.47
  -3   1  10  307.05    8.16
  -2   1  10   22.71    0.84
  -1   1  10   19.41    0.76
   0   1  10    0.01    0.11
   1   1  10   20.18    0.78
   2   1  10   23.24    0.85
   3   1  10  301.31   14.50
   4   1  10    7.96    0.51
   5   1  10  219.98    7.07
   6   1  10    4.98    0.46
   7   1  10  105.18    3.73
   8   1  10   10.16    0.61
   9   1  10   47.48    1.86
  10   1  10   16.92    0.89
  11   1  10    0.26    0.20
  12   1  10   36.71    1.54
  13   1  10   85.60    4.36
  14   1  10   21.14    1.52
  15   1  10   15.56    1.28
 -10   2  10   48.62    2.62
  -9   2  10  118.70    5.53
  -8   2  10   18.94    1.21
  -7   2  10   47.20    2.56
  -6   2  10   40.35    2.28
  -5   2  10    0.54    0.25
  -4   2  10   30.10    1.35
  -3   2  10   52.66    2.07
  -2   2  10    0.16    0.17
  -1   2  10  323.78   10.82
   0   2  10   42.70    1.84
   1   2  10  321.56   10.90
   2   2  10    0.15    0.23
   3   2  10   50.04    2.19
   4   2  10   30.94    1.50
   5   2  10    0.21    0.20
   6   2  10   39.37    1.86
   7   2  10   46.49    2.08
   8   2  10   16.25    1.01
   9   2  10  110.80    4.13
  10   2  10   47.57    2.79
  11   2  10   72.89    3.85
  12   2  10    0.94    0.41
  13   2  10   78.09    4.07
 -12   3  10   22.67    1.59
 -11   3  10   -0.14    0.20
 -10   3  10   10.47    0.94
  -9   3  10   35.37    2.14
  -8   3  10    6.56    0.70
  -7   3  10   77.84    4.09
  -6   3  10    2.91    0.53
  -5   3  10  141.37    6.95
  -4   3  10    5.10    0.51
  -3   3  10  207.04    6.88
  -2   3  10   13.91    0.82
  -1   3  10   12.70    0.79
   0   3  10    0.17    0.20
   1   3  10   12.57    0.83
   2   3  10   13.69    0.90
   3   3  10  197.12    7.06
   4   3  10    5.28    0.64
   5   3  10  141.41    5.17
   6   3  10    4.56    0.59
   7   3  10   74.57    3.14
   8   3  10    7.02    0.75
   9   3  10   36.96    1.80
  10   3  10   11.38    0.91
  11   3  10   -0.19    0.23
  12   3  10   24.70    1.76
  -6   4  10   21.08    1.58
  -5   4  10    0.83    0.36
  -4   4  10   15.31    0.91
  -3   4  10   28.52    1.41
  -2   4  10    0.16    0.20
  -1   4  10  192.51    6.75
   0   4  10   22.16    1.19
   1   4  10  191.91    6.80
   2   4  10    0.10    0.23
   3   4  10   29.06    1.55
   4   4  10   15.86    1.05
   5   4  10    0.62    0.32
   6   4  10   21.57    1.28
  -5  -4  11   49.43    2.87
  -4  -4  11   29.92    1.93
  -3  -4  11    1.34    0.45
  -2  -4  11   14.21    1.18
  -1  -4  11   53.60    3.02
   0  -4  11    0.08    0.25
   1  -4  11   54.77    3.05
   2  -4  11   13.94    1.18
   3  -4  11    0.59    0.35
   4  -4  11   29.78    1.96
   5  -4  11   53.81    2.94
   6  -4  11   31.88    2.05
  -9  -3  11   37.59    2.23
  -8  -3  11   66.52    3.48
  -7  -3  11    4.64    0.70
  -6  -3  11    2.19    0.51
  -5  -3  11    1.74    0.46
  -4  -3  11   10.94    1.00
  -3  -3  11  112.16    5.59
  -2  -3  11   53.53    2.97
  -1  -3  11   12.05    1.00
   0  -3  11    6.79    0.83
   1  -3  11    9.86    0.91
   2  -3  11   57.02    3.02
   3  -3  11  116.30    5.56
   4  -3  11   12.41    1.01
   5  -3  11    1.88    0.46
   6  -3  11    2.43    0.53
   7  -3  11    3.54    0.64
   8  -3  11   69.34    3.53
   9  -3  11   39.89    2.30
  10  -3  11    8.83    1.02
 -12  -2  11    6.13    0.76
 -11  -2  11    0.08    0.23
 -10  -2  11   25.94    1.57
  -9  -2  11   59.92    3.10
  -8  -2  11    2.85    0.51
  -7  -2  11   47.79    2.50
  -6  -2  11   46.99    2.52
  -5  -2  11   81.21    3.92
  -4  -2  11   51.99    2.69
  -3  -2  11    0.20    0.23
  -2  -2  11   24.31    1.53
  -1  -2  11   93.71    4.67
   0  -2  11   -0.08    0.17
   1  -2  11   93.83    4.67
   2  -2  11   22.05    1.46
   3  -2  11    0.23    0.24
   4  -2  11   49.30    2.63
   5  -2  11   82.79    3.93
   6  -2  11   50.77    2.58
   7  -2  11   47.93    2.58
   8  -2  11    4.32    0.66
   9  -2  11   62.87    3.21
  10  -2  11   23.48    1.62
  11  -2  11    0.20    0.27
  12  -2  11    5.74    0.81
 -13  -1  11   36.52    2.12
 -12  -1  11    3.55    0.55
 -11  -1  11   47.34    2.49
 -10  -1  11    9.54    0.81
  -9  -1  11   53.00    2.77
  -8  -1  11   94.60    4.58
  -7  -1  11    4.46    0.60
  -6  -1  11    3.33    0.51
  -5  -1  11    2.01    0.40
  -4  -1  11   14.16    1.05
  -3  -1  11  173.21    7.88
  -2  -1  11   83.44    4.07
  -1  -1  11   14.52    1.03
   0  -1  11   11.37    0.61
   1  -1  11   14.66    0.75
   2  -1  11   87.39    2.96
   3  -1  11  178.96    5.76
   4  -1  11   14.73    0.80
   5  -1  11    2.50    0.35
   6  -1  11    4.61    0.62
   7  -1  11    5.74    0.72
   8  -1  11   99.73    4.73
   9  -1  11   54.32    2.91
  10  -1  11   10.05    0.91
  11  -1  11   44.49    2.60
  12  -1  11    3.36    0.61
  13  -1  11   35.45    2.26
 -14   0  11    0.34    0.25
 -12   0  11    6.87    0.67
 -11   0  11    0.26    0.22
 -10   0  11   27.04    1.61
  -9   0  11   70.97    3.63
  -8   0  11    3.53    0.49
  -7   0  11   56.79    2.77
  -6   0  11   59.16    2.85
  -5   0  11  108.14    4.84
  -4   0  11   60.18    3.03
  -3   0  11    0.13    0.15
  -2   0  11   30.68    1.26
  -1   0  11  134.46    4.45
   0   0  11    0.27    0.14
   1   0  11  129.38    4.44
   2   0  11   30.31    1.24
   3   0  11    0.41    0.16
   4   0  11   62.71    2.25
   5   0  11  107.76    3.59
   6   0  11   59.62    2.17
   7   0  11   56.28    2.12
   8   0  11    4.54    0.47
   9   0  11   78.13    2.81
  10   0  11   27.61    1.76
  11   0  11    0.13    0.22
  12   0  11    6.50    0.84
  13   0  11    0.47    0.33
  14   0  11    0.41    0.32
 -12   1  11    3.97    0.55
 -11   1  11   47.49    2.41
 -10   1  11    9.70    0.77
  -9   1  11   56.23    2.72
  -8   1  11  101.47    4.52
  -7   1  11    6.27    0.56
  -6   1  11    4.29    0.39
  -5   1  11    1.69    0.26
  -4   1  11   15.87    0.77
  -3   1  11  179.39    5.72
  -2   1  11   86.18    2.96
  -1   1  11   16.19    0.76
   0   1  11   10.31    0.59
   1   1  11   14.46    0.73
   2   1  11   86.96    2.94
   3   1  11  179.60    5.70
   4   1  11   17.18    0.81
   5   1  11    1.93    0.28
   6   1  11    4.54    0.44
   7   1  11    5.53    0.50
   8   1  11   97.62    3.41
   9   1  11   52.18    2.09
  10   1  11    9.11    0.64
  11   1  11   46.83    1.90
  12   1  11    4.43    0.49
  13   1  11   41.75    2.33
  14   1  11   17.98    1.38
  -9   2  11   59.95    3.21
  -8   2  11    3.78    0.57
  -7   2  11   46.56    2.59
  -6   2  11   48.31    2.62
  -5   2  11   81.28    4.11
  -4   2  11   52.42    2.11
  -3   2  11    0.39    0.24
  -2   2  11   27.38    1.31
  -1   2  11  100.34    3.74
   0   2  11   -0.04    0.17
   1   2  11   96.67    3.80
   2   2  11   22.92    1.32
   3   2  11    0.87    0.29
   4   2  11   46.89    2.17
   5   2  11   73.71    4.67
   6   2  11   45.37    2.05
   7   2  11   43.26    1.99
   8   2  11    3.90    0.66
   9   2  11   59.39    3.33
  10   2  11   22.33    1.65
  11   2  11    0.20    0.27
  12   2  11    5.51    0.83
 -10   3  11    9.09    0.88
  -9   3  11   36.56    2.26
  -8   3  11   66.06    3.58
  -7   3  11    3.51    0.61
  -6   3  11    2.51    0.52
  -5   3  11    2.14    0.49
  -4   3  11   11.24    1.03
  -3   3  11  116.13    4.26
  -2   3  11   56.76    2.35
  -1   3  11   12.50    0.83
   0   3  11    9.94    0.84
   1   3  11   13.09    0.91
   2   3  11   57.39    2.50
   3   3  11  116.76    4.45
   4   3  11   10.78    0.97
   5   3  11    1.87    0.42
   6   3  11    2.48    0.49
   7   3  11    4.05    0.60
   8   3  11   66.74    2.84
   9   3  11   37.80    1.86
  10   3  11    6.25    0.90
  -3   4  11    1.00    0.32
  -2   4  11   15.20    0.96
  -1   4  11   56.63    3.40
   0   4  11    0.37    0.27
   1   4  11   57.77    3.45
   2   4  11   15.90    1.07
   3   4  11    1.15    0.39
   4   4  11   29.05    2.31
  -1  -4  12    0.44    0.32
   0  -4  12   18.26    1.39
   1  -4  12    0.79    0.37
  -8  -3  12   36.54    2.24
  -7  -3  12    0.31    0.32
  -6  -3  12   68.17    3.59
  -5  -3  12    2.34    0.55
  -4  -3  12    1.79    0.47
  -3  -3  12    1.72    0.44
  -2  -3  12    3.83    0.61
  -1  -3  12    0.43    0.28
   0  -3  12    0.01    0.20
   1  -3  12    0.44    0.27
   2  -3  12    3.58    0.60
   3  -3  12    1.38    0.39
   4  -3  12    1.36    0.39
   5  -3  12    3.18    0.56
   6  -3  12   68.24    3.48
   7  -3  12    0.07    0.25
   8  -3  12   37.89    2.26
 -10  -2  12   55.93    3.02
  -9  -2  12    0.23    0.25
  -8  -2  12   71.23    3.66
  -7  -2  12    9.23    0.88
  -6  -2  12    0.42    0.27
  -5  -2  12    2.44    0.50
  -4  -2  12    2.42    0.51
  -3  -2  12    0.04    0.22
  -2  -2  12   26.54    1.69
  -1  -2  12    0.82    0.31
   0  -2  12   27.70    1.67
   1  -2  12    1.17    0.33
   2  -2  12   26.20    1.64
   3  -2  12    0.57    0.27
   4  -2  12    2.65    0.49
   5  -2  12    3.04    0.51
   6  -2  12    1.07    0.32
   7  -2  12    9.95    0.89
   9  -2  12    0.35    0.30
  10  -2  12   56.45    3.10
 -12  -1  12   27.71    1.73
 -11  -1  12    6.34    0.76
 -10  -1  12   28.45    1.77
  -9  -1  12   14.58    1.14
  -8  -1  12   46.96    2.63
  -7  -1  12    0.23    0.23
  -6  -1  12   94.05    4.50
  -5  -1  12    3.50    0.54
  -4  -1  12    3.93    0.61
  -3  -1  12    2.30    0.46
  -2  -1  12    4.76    0.62
  -1  -1  12    0.33    0.21
   0  -1  12    0.24    0.21
   1  -1  12    0.24    0.15
   2  -1  12    4.27    0.42
   3  -1  12    3.01    0.36
   4  -1  12    5.92    0.52
   5  -1  12    3.30    0.51
   6  -1  12   90.18    4.47
   7  -1  12   -0.12    0.17
   8  -1  12   52.75    2.75
   9  -1  12   17.73    1.28
  10  -1  12   28.99    1.88
  11  -1  12    6.79    0.86
  12  -1  12   27.83    1.86
 -13   0  12   16.63    1.19
 -12   0  12   87.53    4.43
 -11   0  12    6.66    0.67
 -10   0  12   64.29    3.26
  -9   0  12    0.29    0.23
  -8   0  12   89.02    4.28
  -7   0  12   11.22    0.88
  -6   0  12    0.45    0.25
  -5   0  12    3.70    0.54
  -4   0  12    3.11    0.50
  -3   0  12    0.24    0.21
  -2   0  12   32.94    1.33
  -1   0  12    1.16    0.22
   0   0  12   30.71    1.25
   1   0  12    1.33    0.23
   2   0  12   31.70    1.31
   3   0  12    0.16    0.14
   4   0  12    3.01    0.35
   5   0  12    4.14    0.41
   6   0  12    0.90    0.22
   7   0  12   13.83    0.74
   8   0  12   94.69    3.22
   9   0  12    0.02    0.16
  10   0  12   69.06    3.45
  11   0  12    7.00    0.85
  12   0  12   94.02    4.65
  13   0  12   16.86    1.33
  -8   1  12   52.56    2.59
  -7   1  12    0.11    0.20
  -6   1  12   96.32    4.40
  -5   1  12    3.00    0.37
  -4   1  12    4.77    0.47
  -3   1  12    3.22    0.37
  -2   1  12    5.55    0.46
  -1   1  12    0.14    0.14
   0   1  12    0.13    0.23
   1   1  12    0.00    0.13
   2   1  12    4.55    0.43
   3   1  12    3.60    0.37
   4   1  12    5.34    0.47
   5   1  12    3.73    0.40
   6   1  12   98.68    3.28
   7   1  12    0.16    0.17
   8   1  12   54.12    2.00
   9   1  12   17.76    0.92
  10   1  12   31.03    1.38
  11   1  12    7.19    0.64
  12   1  12   28.42    1.94
  -8   2  12   74.34    3.84
  -7   2  12    9.12    0.89
  -6   2  12    0.49    0.31
  -5   2  12    2.71    0.55
  -4   2  12    3.54    0.63
  -3   2  12    0.31    0.24
  -2   2  12   29.50    1.50
  -1   2  12    0.92    0.33
   0   2  12   29.22    1.53
   1   2  12    0.62    0.32
   2   2  12   27.43    1.48
   3   2  12    0.20    0.25
   4   2  12    2.67    0.46
   5   2  12    2.48    0.44
   6   2  12    0.56    0.33
   7   2  12    8.47    0.90
   8   2  12   67.85    3.85
   9   2  12    0.02    0.23
  10   2  12   54.73    3.20
  11   2  12    5.71    0.82
  -9   3  12   12.70    1.12
  -8   3  12   37.62    2.32
  -7   3  12   -0.22    0.24
  -6   3  12   65.56    3.67
  -5   3  12    2.75    0.58
  -4   3  12    1.15    0.42
  -3   3  12    1.69    0.37
  -2   3  12    4.27    0.59
  -1   3  12    0.04    0.22
   0   3  12    0.01    0.24
   1   3  12    0.40    0.32
   2   3  12    3.18    0.58
   3   3  12    1.49    0.42
   4   3  12    1.16    0.39
   5   3  12    2.84    0.51
   6   3  12   65.48    2.86
   7   3  12    0.06    0.24
   8   3  12   32.57    2.30
  -2   4  12   21.46    1.89
  -5  -3  13    0.63    0.36
  -4  -3  13   13.48    1.13
  -3  -3  13   96.51    4.85
  -2  -3  13   19.98    1.43
  -1  -3  13   61.55    3.29
   0  -3  13    4.20    0.65
   1  -3  13   60.64    3.25
   2  -3  13   18.55    1.37
   3  -3  13   96.61    4.82
   4  -3  13   12.08    1.03
   5  -3  13    1.67    0.42
  -9  -2  13    8.99    0.90
  -8  -2  13    9.39    0.96
  -7  -2  13  116.51    5.71
  -6  -2  13    5.24    0.75
  -5  -2  13  151.09    6.79
  -4  -2  13    1.59    0.45
  -3  -2  13   17.30    1.25
  -2  -2  13    2.29    0.47
  -1  -2  13   43.38    2.38
   0  -2  13    0.03    0.19
   1  -2  13   42.26    2.33
   2  -2  13    2.40    0.47
   3  -2  13   15.00    1.14
   4  -2  13    1.51    0.40
   5  -2  13  135.85    6.56
   6  -2  13    4.30    0.64
   7  -2  13  107.13    5.59
   8  -2  13   11.41    0.98
   9  -2  13    7.89    0.94
 -11  -1  13   68.76    3.53
 -10  -1  13    4.83    0.68
  -9  -1  13   55.55    2.96
  -8  -1  13   22.26    1.44
  -7  -1  13   12.64    1.04
  -6  -1  13   14.20    1.08
  -5  -1  13    0.90    0.35
  -4  -1  13   20.51    1.43
  -3  -1  13  143.22    6.64
  -2  -1  13   27.97    1.76
  -1  -1  13   82.20    4.09
   0  -1  13    6.37    0.74
   1  -1  13   82.67    4.08
   2  -1  13   30.63    1.28
   3  -1  13  143.04    4.78
   4  -1  13   19.77    0.99
   5  -1  13    1.41    0.36
   6  -1  13   12.91    1.00
   7  -1  13   12.74    1.02
   8  -1  13   19.74    1.39
   9  -1  13   56.69    3.01
  10  -1  13    5.43    0.76
 -12   0  13    1.57    0.40
 -11   0  13    1.90    0.43
 -10   0  13    3.30    0.55
  -9   0  13    9.42    0.83
  -8   0  13   15.16    1.08
  -7   0  13  143.49    6.37
  -6   0  13    5.68    0.70
  -5   0  13  169.69    7.51
  -4   0  13    3.44    0.54
  -3   0  13   18.57    1.25
  -2   0  13    2.93    0.46
  -1   0  13   53.47    2.00
   0   0  13    0.23    0.15
   1   0  13   53.57    1.99
   2   0  13    2.95    0.34
   3   0  13   19.05    0.90
   4   0  13    1.51    0.26
   5   0  13  161.88    5.42
   6   0  13    6.18    0.53
   7   0  13  141.47    4.64
   8   0  13   15.22    0.82
   9   0  13   10.35    0.67
  10   0  13    3.32    0.59
  11   0  13    1.64    0.46
  -4   1  13   21.52    1.66
  -3   1  13  150.34    7.23
  -2   1  13   31.74    2.05
  -1   1  13   83.18    4.47
   0   1  13    7.30    0.90
   1   1  13   84.91    4.45
   2   1  13   29.63    1.94
   3   1  13  138.98    7.03
   4   1  13   20.84    1.48
   5   1  13    2.01    0.47
   6   1  13   13.54    1.10
   7   1  13   12.73    1.09
   8   1  13   20.33    1.49
   9   1  13   55.50    3.17
  10   1  13    3.76    0.65
  -7   2  13  118.42    6.02
  -6   2  13    5.25    0.82
  -5   2  13  145.33    7.17
  -4   2  13    1.72    0.52
  -3   2  13   17.12    1.46
  -2   2  13    2.87    0.49
  -1   2  13   45.67    2.02
   0   2  13   -0.11    0.22
   1   2  13   45.76    1.99
   2   2  13    2.85    0.47
   3   2  13   16.45    1.38
   4   2  13    1.98    0.51
   6   2  13    5.49    0.79
   7   2  13  114.66    6.01
   8   2  13   10.38    1.02
   9   2  13    8.82    0.92
  -6   3  13    9.38    1.00
  -5   3  13    0.66    0.40
  -4   3  13   11.87    1.20
  -3   3  13  103.99    5.39
  -2   3  13   21.96    1.31
  -1   3  13   67.72    2.84
   0   3  13    4.60    0.69
   1   3  13   62.45    2.82
   2   3  13   20.83    1.32
   3   3  13  100.66    3.99
   4   3  13   13.22    1.84
   5   3  13    0.82    0.36
  -6  -2  14   28.47    1.94
  -5  -2  14    6.51    0.87
  -4  -2  14   26.11    1.69
  -3  -2  14   24.26    1.64
  -2  -2  14   65.43    3.42
  -1  -2  14   44.21    2.50
   0  -2  14   75.86    3.85
   1  -2  14   42.24    2.44
   2  -2  14   65.53    3.38
   3  -2  14   24.70    1.61
   4  -2  14   23.21    1.54
   5  -2  14    5.56    0.73
   6  -2  14   28.52    1.81
  -9  -1  14   22.23    1.53
  -8  -1  14   37.97    2.25
  -7  -1  14   42.40    2.35
  -6  -1  14   37.85    2.19
  -5  -1  14   13.67    1.12
  -4  -1  14   62.93    3.28
  -3  -1  14  100.19    4.86
  -2  -1  14  120.10    5.77
  -1  -1  14    1.83    0.43
   0  -1  14   -0.20    0.18
   1  -1  14    2.98    0.48
   2  -1  14  115.94    5.72
   3  -1  14   86.83    4.71
   4  -1  14   60.91    3.15
   5  -1  14   12.73    0.98
   6  -1  14   34.02    2.01
   7  -1  14   40.72    2.24
   8  -1  14   37.09    2.17
   9  -1  14   22.30    1.50
 -10   0  14   73.21    3.79
  -9   0  14   42.74    2.36
  -8   0  14   12.51    1.02
  -7   0  14   14.43    1.10
  -6   0  14   37.16    2.14
  -5   0  14    7.74    0.79
  -4   0  14   31.41    1.78
  -3   0  14   30.94    1.78
  -2   0  14   72.30    3.67
  -1   0  14   51.31    2.75
   0   0  14   93.24    3.26
   1   0  14   53.06    2.00
   2   0  14   73.32    2.66
   3   0  14   31.53    1.29
   4   0  14   27.82    1.22
   5   0  14    8.43    0.55
   6   0  14   36.14    1.50
   7   0  14   14.64    0.78
   8   0  14   12.88    0.73
   9   0  14   44.38    1.74
  10   0  14   78.85    3.86
  -3   1  14  105.82    5.28
  -2   1  14  124.15    6.24
  -1   1  14    2.61    0.58
   0   1  14   -0.07    0.24
   1   1  14    2.92    0.57
   2   1  14  120.48    6.18
   3   1  14   94.89    5.11
   4   1  14   60.31    3.41
   5   1  14   12.93    1.10
   6   1  14   34.36    2.17
   7   1  14   38.33    2.39
   8   1  14   39.02    2.35
  -6   2  14   33.11    2.20
  -5   2  14    6.99    1.05
  -4   2  14   27.98    2.02
  -3   2  14   27.45    2.08
  -2   2  14   69.74    3.96
  -1   2  14   51.57    3.00
   0   2  14   79.57    4.36
   1   2  14   44.68    2.81
   3   2  14   27.09    1.88
   4   2  14   24.20    1.78
   5   2  14    6.94    0.93
   6   2  14   30.52    2.03
  -1   3  14    1.38    0.76
   0   3  14   -0.11    0.61
   1   3  14    1.37    0.75
  -2  -2  15   12.80    1.06
  -1  -2  15    1.50    0.43
   0  -2  15    0.01    0.22
   1  -2  15    2.60    0.50
   2  -2  15   10.45    0.95
  -6  -1  15   26.30    1.74
  -5  -1  15    0.75    0.34
  -4  -1  15    5.65    0.77
  -3  -1  15    4.51    0.66
  -2  -1  15   19.79    1.33
  -1  -1  15    0.10    0.23
   0  -1  15   30.52    1.84
   1  -1  15    0.14    0.22
   2  -1  15   15.78    1.19
   3  -1  15    4.66    0.64
   4  -1  15    4.59    0.63
   5  -1  15    0.91    0.30
   6  -1  15   24.06    1.56
  -8   0  15   53.15    2.85
  -7   0  15   29.68    1.83
  -6   0  15   55.86    2.88
  -5   0  15    1.30    0.40
  -4   0  15   25.75    1.59
  -3   0  15    1.60    0.39
  -2   0  15   13.05    1.01
  -1   0  15    4.10    0.56
   0   0  15    0.34    0.23
   1   0  15    2.98    0.35
   2   0  15   13.93    0.74
   3   0  15    1.54    0.27
   4   0  15   24.70    1.12
   5   0  15    1.81    0.29
   6   0  15   47.79    2.88
   7   0  15   27.61    1.23
   8   0  15   51.17    2.72
  -2   1  15   18.36    1.43
  -1   1  15    0.07    0.28
   0   1  15   30.12    2.03
   1   1  15    0.12    0.27
   2   1  15   18.02    1.37
   3   1  15    5.25    0.76
   4   1  15    5.69    0.79
   5   1  15    0.67    0.34
   6   1  15   24.82    1.72
  -4   2  15   23.67    1.91
  -3   2  15    1.77    0.59
  -2   2  15   13.00    1.28
  -1   2  15    3.00    0.70
   0   2  15    0.28    0.35
   1   2  15    2.55    0.63
   2   2  15   12.73    1.18
   3   2  15    1.30    0.48
  -2  -1  16    0.22    0.28
  -1  -1  16    6.05    0.76
   0  -1  16   -0.04    0.21
   1  -1  16    6.14    0.77
   2  -1  16    0.02    0.24
  -5   0  16   19.02    1.26
  -4   0  16    4.45    0.65
  -3   0  16    1.69    0.44
  -2   0  16   14.44    1.04
  -1   0  16   71.63    3.58
   0   0  16   33.35    1.96
   1   0  16   70.91    3.56
   2   0  16   12.01    0.95
   3   0  16    1.10    0.24
   4   0  16    5.34    0.48
   5   0  16   15.16    0.81
   0   1  16   -0.05    0.26
   1   1  16    7.08    0.89
   2   1  16    0.61    0.35
   0   0   0    0.00    0.00
;
_shelx_hkl_checksum              92601
#END Tags that were not found in dictionaries
loop_
_space_group_symop_operation_xyz
'x, y, z'
'-x+1/2, -y, z+1/2'
'-x, y+1/2, -z'
'x+1/2, -y+1/2, -z+1/2'
'-x, -y, -z'
'x-1/2, y, -z-1/2'
'x, -y-1/2, z'
'-x-1/2, y-1/2, z-1/2'
loop_
_atom_site_label
_atom_site_type_symbol
_atom_site_fract_x
_atom_site_fract_y
_atom_site_fract_z
_atom_site_U_iso_or_equiv
_atom_site_adp_type
_atom_site_occupancy
_atom_site_site_symmetry_order
_atom_site_calc_flag
_atom_site_refinement_flags_posn
_atom_site_refinement_flags_adp
_atom_site_refinement_flags_occupancy
Dy Dy 0.29123(2) 0.2500 0.92067(2) 0.00506(8) Uani 1 2 d S T P
Mn Mn 0.01841(6) 0.2500 0.79074(7) 0.01228(15) Uani 1 2 d S T P
Cu1 Cu 0.00497(4) 0.2500 0.41102(5) 0.00727(12) Uani 1 2 d S T P
Cu2 Cu 0.06443(4) 0.2500 0.03997(5) 0.00667(12) Uani 1 2 d S T P
Cu3 Cu 0.30531(4) 0.2500 0.62922(5) 0.00709(12) Uani 1 2 d S T P
Cu4 Cu 0.32149(5) 0.2500 0.21631(5) 0.00697(11) Uani 1 2 d S T P
P1 P 0.11606(9) 0.2500 0.59359(10) 0.00500(19) Uani 1 2 d S T P
P2 P 0.12967(8) 0.2500 0.24496(10) 0.00495(18) Uani 1 2 d S T P
P3 P 0.37780(9) 0.2500 0.42193(9) 0.00486(19) Uani 1 2 d S T P
loop_
_atom_site_aniso_label
_atom_site_aniso_U_11
_atom_site_aniso_U_22
_atom_site_aniso_U_33
_atom_site_aniso_U_23
_atom_site_aniso_U_13
_atom_site_aniso_U_12
Dy 0.00552(11) 0.00463(11) 0.00503(11) 0.000 0.00000(6) 0.000
Mn 0.0154(3) 0.0101(3) 0.0114(3) 0.000 0.0051(3) 0.000
Cu1 0.0068(2) 0.0076(2) 0.0074(2) 0.000 0.00034(17) 0.000
Cu2 0.0061(2) 0.0062(2) 0.0077(2) 0.000 -0.00019(17) 0.000
Cu3 0.0083(2) 0.0062(2) 0.0068(2) 0.000 0.00066(17) 0.000
Cu4 0.0072(2) 0.0074(2) 0.0063(2) 0.000 -0.00023(17) 0.000
P1 0.0055(4) 0.0047(4) 0.0048(4) 0.000 0.0003(3) 0.000
P2 0.0054(4) 0.0050(4) 0.0044(4) 0.000 -0.0003(3) 0.000
P3 0.0048(4) 0.0051(4) 0.0047(4) 0.000 -0.0005(3) 0.000
loop_
_atom_type_symbol
_atom_type_description
_atom_type_scat_dispersion_real
_atom_type_scat_dispersion_imag
_atom_type_scat_source
P P 0.1023 0.0942 'International Tables Vol C Tables 4.2.6.8 and 6.1.1.4'
Mn Mn 0.3368 0.7283 'International Tables Vol C Tables 4.2.6.8 and 6.1.1.4'
Cu Cu 0.3201 1.2651 'International Tables Vol C Tables 4.2.6.8 and 6.1.1.4'
Dy Dy -0.1892 4.4098 'International Tables Vol C Tables 4.2.6.8 and 6.1.1.4'
loop_
_geom_angle_atom_site_label_1
_geom_angle_atom_site_label_2
_geom_angle_atom_site_label_3
_geom_angle
_geom_angle_site_symmetry_1
_geom_angle_site_symmetry_3
P3 Dy P3 83.02(3) 2 2_565
P3 Dy P2 80.05(3) 2 2
P3 Dy P2 134.55(3) 2_565 2
P3 Dy P2 134.55(3) 2 2_565
P3 Dy P2 80.05(3) 2_565 2_565
P2 Dy P2 82.54(3) 2 2_565
P3 Dy P1 136.78(3) 2 2_565
P3 Dy P1 82.41(3) 2_565 2_565
P2 Dy P1 135.85(3) 2 2_565
P2 Dy P1 81.99(3) 2_565 2_565
P3 Dy P1 82.41(3) 2 2
P3 Dy P1 136.78(3) 2_565 2
P2 Dy P1 81.99(3) 2 2
P2 Dy P1 135.85(3) 2_565 2
P1 Dy P1 81.00(3) 2_565 2
P3 Dy Cu2 46.813(18) 2 1_556
P3 Dy Cu2 46.813(18) 2_565 1_556
P2 Dy Cu2 126.30(2) 2 1_556
P2 Dy Cu2 126.30(2) 2_565 1_556
P1 Dy Cu2 95.80(2) 2_565 1_556
P1 Dy Cu2 95.80(2) 2 1_556
P3 Dy Cu3 92.69(2) 2 .
P3 Dy Cu3 92.69(2) 2_565 .
P2 Dy Cu3 46.822(18) 2 .
P2 Dy Cu3 46.822(18) 2_565 .
P1 Dy Cu3 128.42(2) 2_565 .
P1 Dy Cu3 128.42(2) 2 .
Cu2 Dy Cu3 117.540(16) 1_556 .
P3 Dy Cu3 95.90(2) 2 2_565
P3 Dy Cu3 46.99(2) 2_565 2_565
P2 Dy Cu3 175.014(17) 2 2_565
P2 Dy Cu3 102.413(16) 2_565 2_565
P1 Dy Cu3 46.50(2) 2_565 2_565
P1 Dy Cu3 94.64(2) 2 2_565
Cu2 Dy Cu3 50.176(11) 1_556 2_565
Cu3 Dy Cu3 136.865(9) . 2_565
P3 Dy Cu3 46.99(2) 2 2
P3 Dy Cu3 95.90(2) 2_565 2
P2 Dy Cu3 102.413(16) 2 2
P2 Dy Cu3 175.014(17) 2_565 2
P1 Dy Cu3 94.64(2) 2_565 2
P1 Dy Cu3 46.50(2) 2 2
Cu2 Dy Cu3 50.176(11) 1_556 2
Cu3 Dy Cu3 136.865(9) . 2
Cu3 Dy Cu3 72.625(13) 2_565 2
P3 Dy Cu1 174.531(18) 2 2_565
P3 Dy Cu1 102.217(16) 2_565 2_565
P2 Dy Cu1 95.00(2) 2 2_565
P2 Dy Cu1 46.14(2) 2_565 2_565
P1 Dy Cu1 46.58(2) 2_565 2_565
P1 Dy Cu1 94.64(2) 2 2_565
Cu2 Dy Cu1 138.392(10) 1_556 2_565
Cu3 Dy Cu1 85.531(13) . 2_565
Cu3 Dy Cu1 88.908(12) 2_565 2_565
Cu3 Dy Cu1 132.950(14) 2 2_565
P3 Dy Cu1 102.217(16) 2 2
P3 Dy Cu1 174.531(18) 2_565 2
P2 Dy Cu1 46.14(2) 2 2
P2 Dy Cu1 95.00(2) 2_565 2
P1 Dy Cu1 94.64(2) 2_565 2
P1 Dy Cu1 46.58(2) 2 2
Cu2 Dy Cu1 138.392(10) 1_556 2
Cu3 Dy Cu1 85.531(13) . 2
Cu3 Dy Cu1 132.950(14) 2_565 2
Cu3 Dy Cu1 88.908(12) 2 2
Cu1 Dy Cu1 72.510(13) 2_565 2
P1 Mn P2 102.87(4) . 5_556
P1 Mn P2 102.87(4) . 5_566
P2 Mn P2 89.38(4) 5_556 5_566
P1 Mn P3 102.36(4) . 2_565
P2 Mn P3 154.77(5) 5_556 2_565
P2 Mn P3 85.53(3) 5_566 2_565
P1 Mn P3 102.36(4) . 2
P2 Mn P3 85.53(3) 5_556 2
P2 Mn P3 154.77(5) 5_566 2
P3 Mn P3 88.62(4) 2_565 2
P1 Mn Cu2 137.91(5) . 1_556
P2 Mn Cu2 106.69(3) 5_556 1_556
P2 Mn Cu2 106.69(3) 5_566 1_556
P3 Mn Cu2 51.94(2) 2_565 1_556
P3 Mn Cu2 51.94(2) 2 1_556
P1 Mn Cu3 137.85(4) . 6_557
P2 Mn Cu3 51.81(2) 5_556 6_557
P2 Mn Cu3 51.81(2) 5_566 6_557
P3 Mn Cu3 107.43(3) 2_565 6_557
P3 Mn Cu3 107.43(3) 2 6_557
Cu2 Mn Cu3 84.24(3) 1_556 6_557
P1 Mn Cu2 138.215(13) . 5_566
P2 Mn Cu2 107.77(3) 5_556 5_566
P2 Mn Cu2 50.80(3) 5_566 5_566
P3 Mn Cu2 51.12(3) 2_565 5_566
P3 Mn Cu2 107.65(3) 2 5_566
Cu2 Mn Cu2 56.223(19) 1_556 5_566
Cu3 Mn Cu2 56.621(18) 6_557 5_566
P1 Mn Cu2 138.215(13) . 5_556
P2 Mn Cu2 50.80(3) 5_556 5_556
P2 Mn Cu2 107.77(3) 5_566 5_556
P3 Mn Cu2 107.65(3) 2_565 5_556
P3 Mn Cu2 51.12(3) 2 5_556
Cu2 Mn Cu2 56.223(19) 1_556 5_556
Cu3 Mn Cu2 56.621(18) 6_557 5_556
Cu2 Mn Cu2 83.57(3) 5_566 5_556
P1 Mn Cu4 53.63(2) . 2_565
P2 Mn Cu4 155.34(4) 5_556 2_565
P2 Mn Cu4 89.26(2) 5_566 2_565
P3 Mn Cu4 49.44(3) 2_565 2_565
P3 Mn Cu4 105.39(4) 2 2_565
Cu2 Mn Cu4 97.27(3) 1_556 2_565
Cu3 Mn Cu4 138.902(13) 6_557 2_565
Cu2 Mn Cu4 90.211(14) 5_566 2_565
Cu2 Mn Cu4 151.29(4) 5_556 2_565
P1 Mn Cu4 53.63(2) . 2
P2 Mn Cu4 89.26(2) 5_556 2
P2 Mn Cu4 155.34(4) 5_566 2
P3 Mn Cu4 105.39(4) 2_565 2
P3 Mn Cu4 49.44(3) 2 2
Cu2 Mn Cu4 97.27(3) 1_556 2
Cu3 Mn Cu4 138.902(13) 6_557 2
Cu2 Mn Cu4 151.29(4) 5_566 2
Cu2 Mn Cu4 90.211(14) 5_556 2
Cu4 Mn Cu4 81.89(3) 2_565 2
P1 Mn Cu1 53.00(2) . 5_556
P2 Mn Cu1 50.48(3) 5_556 5_556
P2 Mn Cu1 106.12(4) 5_566 5_556
P3 Mn Cu1 154.12(4) 2_565 5_556
P3 Mn Cu1 89.527(19) 2 5_556
Cu2 Mn Cu1 139.264(13) 1_556 5_556
Cu3 Mn Cu1 97.74(3) 6_557 5_556
Cu2 Mn Cu1 152.08(4) 5_566 5_556
Cu2 Mn Cu1 91.003(14) 5_556 5_556
Cu4 Mn Cu1 106.63(3) 2_565 5_556
Cu4 Mn Cu1 55.548(18) 2 5_556
P2 Cu1 P1 103.54(4) . .
P2 Cu1 P1 113.48(3) . 5_556
P1 Cu1 P1 112.35(3) . 5_556
P2 Cu1 P1 113.48(3) . 5_566
P1 Cu1 P1 112.35(3) . 5_566
P1 Cu1 P1 102.02(5) 5_556 5_566
P2 Cu1 Cu4 100.35(3) . 6_556
P1 Cu1 Cu4 156.11(4) . 6_556
P1 Cu1 Cu4 56.59(3) 5_556 6_556
P1 Cu1 Cu4 56.59(3) 5_566 6_556
P2 Cu1 Cu1 124.62(3) . 5_566
P1 Cu1 Cu1 56.23(2) . 5_566
P1 Cu1 Cu1 121.90(4) 5_556 5_566
P1 Cu1 Cu1 56.12(3) 5_566 5_566
Cu4 Cu1 Cu1 109.02(3) 6_556 5_566
P2 Cu1 Cu1 124.62(3) . 5_556
P1 Cu1 Cu1 56.23(2) . 5_556
P1 Cu1 Cu1 56.12(3) 5_556 5_556
P1 Cu1 Cu1 121.90(4) 5_566 5_556
Cu4 Cu1 Cu1 109.02(3) 6_556 5_556
Cu1 Cu1 Cu1 88.62(3) 5_566 5_556
P2 Cu1 Mn 59.98(2) . 5_556
P1 Cu1 Mn 132.33(2) . 5_556
P1 Cu1 Mn 54.23(3) 5_556 5_556
P1 Cu1 Mn 115.20(3) 5_566 5_556
Cu4 Cu1 Mn 61.77(2) 6_556 5_556
Cu1 Cu1 Mn 170.79(4) 5_566 5_556
Cu1 Cu1 Mn 94.537(14) 5_556 5_556
P2 Cu1 Mn 59.98(2) . 5_566
P1 Cu1 Mn 132.33(2) . 5_566
P1 Cu1 Mn 115.20(3) 5_556 5_566
P1 Cu1 Mn 54.23(3) 5_566 5_566
Cu4 Cu1 Mn 61.77(2) 6_556 5_566
Cu1 Cu1 Mn 94.537(14) 5_566 5_566
Cu1 Cu1 Mn 170.79(4) 5_556 5_566
Mn Cu1 Mn 81.07(3) 5_556 5_566
P2 Cu1 Dy 59.63(2) . 2_564
P1 Cu1 Dy 60.50(2) . 2_564
P1 Cu1 Dy 165.24(3) 5_556 2_564
P1 Cu1 Dy 92.73(2) 5_566 2_564
Cu4 Cu1 Dy 135.139(14) 6_556 2_564
Cu1 Cu1 Dy 66.475(18) 5_566 2_564
Cu1 Cu1 Dy 115.28(3) 5_556 2_564
Mn Cu1 Dy 119.40(2) 5_556 2_564
Mn Cu1 Dy 73.869(17) 5_566 2_564
P2 Cu1 Dy 59.63(2) . 2_554
P1 Cu1 Dy 60.50(2) . 2_554
P1 Cu1 Dy 92.73(2) 5_556 2_554
P1 Cu1 Dy 165.24(3) 5_566 2_554
Cu4 Cu1 Dy 135.139(14) 6_556 2_554
Cu1 Cu1 Dy 115.28(3) 5_566 2_554
Cu1 Cu1 Dy 66.475(18) 5_556 2_554
Mn Cu1 Dy 73.869(17) 5_556 2_554
Mn Cu1 Dy 119.40(2) 5_566 2_554
Dy Cu1 Dy 72.510(13) 2_564 2_554
P2 Cu1 Dy 165.24(4) . 6_557
P1 Cu1 Dy 91.22(3) . 6_557
P1 Cu1 Dy 59.38(3) 5_556 6_557
P1 Cu1 Dy 59.38(3) 5_566 6_557
Cu4 Cu1 Dy 64.890(17) 6_556 6_557
Cu1 Cu1 Dy 63.99(2) 5_566 6_557
Cu1 Cu1 Dy 63.99(2) 5_556 6_557
Mn Cu1 Dy 109.75(2) 5_556 6_557
Mn Cu1 Dy 109.75(2) 5_566 6_557
Dy Cu1 Dy 130.463(12) 2_564 6_557
Dy Cu1 Dy 130.463(12) 2_554 6_557
P2 Cu2 P3 100.38(4) . 6_556
P2 Cu2 P3 113.30(3) . 2_554
P3 Cu2 P3 113.09(3) 6_556 2_554
P2 Cu2 P3 113.30(3) . 2_564
P3 Cu2 P3 113.09(3) 6_556 2_564
P3 Cu2 P3 104.07(5) 2_554 2_564
P2 Cu2 Cu2 121.48(3) . 5
P3 Cu2 Cu2 56.61(2) 6_556 5
P3 Cu2 Cu2 56.49(3) 2_554 5
P3 Cu2 Cu2 125.18(4) 2_564 5
P2 Cu2 Cu2 121.48(3) . 5_565
P3 Cu2 Cu2 56.61(2) 6_556 5_565
P3 Cu2 Cu2 125.18(4) 2_554 5_565
P3 Cu2 Cu2 56.49(3) 2_564 5_565
Cu2 Cu2 Cu2 91.38(3) 5 5_565
P2 Cu2 Cu3 56.57(2) . 2_564
P3 Cu2 Cu3 122.76(2) 6_556 2_564
P3 Cu2 Cu3 124.11(3) 2_554 2_564
P3 Cu2 Cu3 56.75(3) 2_564 2_564
Cu2 Cu2 Cu3 178.03(4) 5 2_564
Cu2 Cu2 Cu3 89.584(12) 5_565 2_564
P2 Cu2 Cu3 56.57(2) . 2_554
P3 Cu2 Cu3 122.76(2) 6_556 2_554
P3 Cu2 Cu3 56.75(3) 2_554 2_554
P3 Cu2 Cu3 124.11(3) 2_564 2_554
Cu2 Cu2 Cu3 89.584(12) 5 2_554
Cu2 Cu2 Cu3 178.03(4) 5_565 2_554
Cu3 Cu2 Cu3 89.40(2) 2_564 2_554
P2 Cu2 Mn 171.80(4) . 1_554
P3 Cu2 Mn 87.82(3) 6_556 1_554
P3 Cu2 Mn 62.70(3) 2_554 1_554
P3 Cu2 Mn 62.70(3) 2_564 1_554
Cu2 Cu2 Mn 63.21(2) 5 1_554
Cu2 Cu2 Mn 63.21(2) 5_565 1_554
Cu3 Cu2 Mn 118.77(2) 2_564 1_554
Cu3 Cu2 Mn 118.77(2) 2_554 1_554
P2 Cu2 Mn 61.35(3) . 5_566
P3 Cu2 Mn 61.62(2) 6_556 5_566
P3 Cu2 Mn 169.75(3) 2_554 5_566
P3 Cu2 Mn 86.18(2) 2_564 5_566
Cu2 Cu2 Mn 117.53(3) 5 5_566
Cu2 Cu2 Mn 60.57(2) 5_565 5_566
Cu3 Cu2 Mn 61.56(2) 2_564 5_566
Cu3 Cu2 Mn 117.46(3) 2_554 5_566
Mn Cu2 Mn 123.776(19) 1_554 5_566
P2 Cu2 Mn 61.35(3) . 5_556
P3 Cu2 Mn 61.62(2) 6_556 5_556
P3 Cu2 Mn 86.18(2) 2_554 5_556
P3 Cu2 Mn 169.75(3) 2_564 5_556
Cu2 Cu2 Mn 60.57(2) 5 5_556
Cu2 Cu2 Mn 117.53(3) 5_565 5_556
Cu3 Cu2 Mn 117.46(3) 2_564 5_556
Cu3 Cu2 Mn 61.56(2) 2_554 5_556
Mn Cu2 Mn 123.776(19) 1_554 5_556
Mn Cu2 Mn 83.57(3) 5_566 5_556
P2 Cu2 Dy 94.00(3) . 1_554
P3 Cu2 Dy 165.62(3) 6_556 1_554
P3 Cu2 Dy 60.16(3) 2_554 1_554
P3 Cu2 Dy 60.16(3) 2_564 1_554
Cu2 Cu2 Dy 115.24(2) 5 1_554
Cu2 Cu2 Dy 115.24(2) 5_565 1_554
Cu3 Cu2 Dy 65.816(16) 2_564 1_554
Cu3 Cu2 Dy 65.816(16) 2_554 1_554
Mn Cu2 Dy 77.81(2) 1_554 1_554
Mn Cu2 Dy 127.093(19) 5_566 1_554
Mn Cu2 Dy 127.093(19) 5_556 1_554
P2 Cu3 P2 103.08(5) 2_565 2
P2 Cu3 P1 114.78(3) 2_565 .
P2 Cu3 P1 114.78(3) 2 .
P2 Cu3 P3 110.72(3) 2_565 .
P2 Cu3 P3 110.72(3) 2 .
P1 Cu3 P3 102.96(4) . .
P2 Cu3 Cu4 125.32(4) 2_565 2
P2 Cu3 Cu4 57.45(3) 2 2
P1 Cu3 Cu4 57.36(2) . 2
P3 Cu3 Cu4 123.91(2) . 2
P2 Cu3 Cu4 57.45(3) 2_565 2_565
P2 Cu3 Cu4 125.32(4) 2 2_565
P1 Cu3 Cu4 57.36(2) . 2_565
P3 Cu3 Cu4 123.91(2) . 2_565
Cu4 Cu3 Cu4 90.91(2) 2 2_565
P2 Cu3 Cu2 55.14(3) 2_565 2_565
P2 Cu3 Cu2 122.01(3) 2 2_565
P1 Cu3 Cu2 123.17(2) . 2_565
P3 Cu3 Cu2 55.60(2) . 2_565
Cu4 Cu3 Cu2 179.24(2) 2 2_565
Cu4 Cu3 Cu2 89.844(12) 2_565 2_565
P2 Cu3 Cu2 122.01(3) 2_565 2
P2 Cu3 Cu2 55.14(3) 2 2
P1 Cu3 Cu2 123.17(2) . 2
P3 Cu3 Cu2 55.60(2) . 2
Cu4 Cu3 Cu2 89.844(12) 2 2
Cu4 Cu3 Cu2 179.24(2) 2_565 2
Cu2 Cu3 Cu2 89.40(2) 2_565 2
P2 Cu3 Mn 61.07(3) 2_565 6_657
P2 Cu3 Mn 61.07(3) 2 6_657
P1 Cu3 Mn 171.30(4) . 6_657
P3 Cu3 Mn 85.74(4) . 6_657
Cu4 Cu3 Mn 117.74(2) 2 6_657
Cu4 Cu3 Mn 117.74(2) 2_565 6_657
Cu2 Cu3 Mn 61.824(18) 2_565 6_657
Cu2 Cu3 Mn 61.824(18) 2 6_657
P2 Cu3 Dy 59.96(3) 2_565 .
P2 Cu3 Dy 59.96(3) 2 .
P1 Cu3 Dy 95.97(3) . .
P3 Cu3 Dy 161.07(4) . .
Cu4 Cu3 Dy 67.054(17) 2 .
Cu4 Cu3 Dy 67.054(17) 2_565 .
Cu2 Cu3 Dy 113.230(19) 2_565 .
Cu2 Cu3 Dy 113.230(19) 2 .
Mn Cu3 Dy 75.33(2) 6_657 .
P2 Cu3 Dy 164.38(3) 2_565 2_554
P2 Cu3 Dy 92.04(2) 2 2_554
P1 Cu3 Dy 60.62(2) . 2_554
P3 Cu3 Dy 59.14(2) . 2_554
Cu4 Cu3 Dy 66.421(15) 2 2_554
Cu4 Cu3 Dy 116.37(2) 2_565 2_554
Cu2 Cu3 Dy 113.26(2) 2_565 2_554
Cu2 Cu3 Dy 64.007(14) 2 2_554
Mn Cu3 Dy 125.562(18) 6_657 2_554
Dy Cu3 Dy 133.380(13) . 2_554
P2 Cu3 Dy 92.04(2) 2_565 2_564
P2 Cu3 Dy 164.38(3) 2 2_564
P1 Cu3 Dy 60.62(2) . 2_564
P3 Cu3 Dy 59.14(2) . 2_564
Cu4 Cu3 Dy 116.37(2) 2 2_564
Cu4 Cu3 Dy 66.421(15) 2_565 2_564
Cu2 Cu3 Dy 64.007(14) 2_565 2_564
Cu2 Cu3 Dy 113.26(2) 2 2_564
Mn Cu3 Dy 125.562(19) 6_657 2_564
Dy Cu3 Dy 133.380(13) . 2_564
Dy Cu3 Dy 72.626(13) 2_554 2_564
P3 Cu4 P1 114.93(3) . 2_554
P3 Cu4 P1 114.93(3) . 2_564
P1 Cu4 P1 101.35(4) 2_554 2_564
P3 Cu4 P2 100.36(4) . .
P1 Cu4 P2 112.94(3) 2_554 .
P1 Cu4 P2 112.94(3) 2_564 .
P3 Cu4 Cu3 121.54(2) . 2_554
P1 Cu4 Cu3 56.59(3) 2_554 2_554
P1 Cu4 Cu3 123.50(3) 2_564 2_554
P2 Cu4 Cu3 56.37(2) . 2_554
P3 Cu4 Cu3 121.54(2) . 2_564
P1 Cu4 Cu3 123.50(3) 2_554 2_564
P1 Cu4 Cu3 56.59(3) 2_564 2_564
P2 Cu4 Cu3 56.37(2) . 2_564
Cu3 Cu4 Cu3 90.91(2) 2_554 2_564
P3 Cu4 Cu1 103.13(4) . 6_656
P1 Cu4 Cu1 56.18(3) 2_554 6_656
P1 Cu4 Cu1 56.18(3) 2_564 6_656
P2 Cu4 Cu1 156.51(4) . 6_656
Cu3 Cu4 Cu1 109.65(2) 2_554 6_656
Cu3 Cu4 Cu1 109.65(2) 2_564 6_656
P3 Cu4 Mn 61.32(3) . 2_564
P1 Cu4 Mn 115.67(4) 2_554 2_564
P1 Cu4 Mn 54.50(3) 2_564 2_564
P2 Cu4 Mn 131.30(2) . 2_564
Cu3 Cu4 Mn 172.18(3) 2_554 2_564
Cu3 Cu4 Mn 93.242(14) 2_564 2_564
Cu1 Cu4 Mn 62.68(2) 6_656 2_564
P3 Cu4 Mn 61.32(3) . 2_554
P1 Cu4 Mn 54.50(3) 2_554 2_554
P1 Cu4 Mn 115.67(4) 2_564 2_554
P2 Cu4 Mn 131.30(2) . 2_554
Cu3 Cu4 Mn 93.242(14) 2_554 2_554
Cu3 Cu4 Mn 172.18(3) 2_564 2_554
Cu1 Cu4 Mn 62.68(2) 6_656 2_554
Mn Cu4 Mn 81.89(3) 2_564 2_554
P3 Cu4 Dy 169.12(4) . 1_554
P1 Cu4 Dy 59.78(2) 2_554 1_554
P1 Cu4 Dy 59.78(2) 2_564 1_554
P2 Cu4 Dy 90.52(3) . 1_554
Cu3 Cu4 Dy 64.820(17) 2_554 1_554
Cu3 Cu4 Dy 64.820(17) 2_564 1_554
Cu1 Cu4 Dy 65.985(17) 6_656 1_554
Mn Cu4 Dy 111.17(2) 2_564 1_554
Mn Cu4 Dy 111.17(2) 2_554 1_554
P3 Cu4 Dy 58.78(2) . 2_564
P1 Cu4 Dy 164.89(3) 2_554 2_564
P1 Cu4 Dy 93.67(2) 2_564 2_564
P2 Cu4 Dy 58.50(2) . 2_564
Cu3 Cu4 Dy 113.19(2) 2_554 2_564
Cu3 Cu4 Dy 64.110(15) 2_564 2_564
Cu1 Cu4 Dy 136.667(14) 6_656 2_564
Mn Cu4 Dy 74.602(17) 2_564 2_564
Mn Cu4 Dy 119.88(2) 2_554 2_564
Dy Cu4 Dy 128.845(14) 1_554 2_564
P3 Cu4 Dy 58.78(2) . 2_554
P1 Cu4 Dy 93.67(2) 2_554 2_554
P1 Cu4 Dy 164.89(3) 2_564 2_554
P2 Cu4 Dy 58.50(2) . 2_554
Cu3 Cu4 Dy 64.110(15) 2_554 2_554
Cu3 Cu4 Dy 113.19(2) 2_564 2_554
Cu1 Cu4 Dy 136.667(14) 6_656 2_554
Mn Cu4 Dy 119.88(2) 2_564 2_554
Mn Cu4 Dy 74.602(17) 2_554 2_554
Dy Cu4 Dy 128.845(14) 1_554 2_554
Dy Cu4 Dy 71.273(12) 2_564 2_554
Cu3 P1 Cu1 134.50(5) . .
Cu3 P1 Cu1 128.61(2) . 5_556
Cu1 P1 Cu1 67.65(3) . 5_556
Cu3 P1 Cu1 128.61(2) . 5_566
Cu1 P1 Cu1 67.65(3) . 5_566
Cu1 P1 Cu1 102.02(5) 5_556 5_566
Cu3 P1 Cu4 66.05(3) . 2_565
Cu1 P1 Cu4 129.17(2) . 2_565
Cu1 P1 Cu4 144.64(5) 5_556 2_565
Cu1 P1 Cu4 67.24(2) 5_566 2_565
Cu3 P1 Cu4 66.05(3) . 2
Cu1 P1 Cu4 129.17(2) . 2
Cu1 P1 Cu4 67.24(2) 5_556 2
Cu1 P1 Cu4 144.64(5) 5_566 2
Cu4 P1 Cu4 101.34(4) 2_565 2
Cu3 P1 Mn 110.77(5) . .
Cu1 P1 Mn 114.73(5) . .
Cu1 P1 Mn 72.77(3) 5_556 .
Cu1 P1 Mn 72.77(3) 5_566 .
Cu4 P1 Mn 71.87(3) 2_565 .
Cu4 P1 Mn 71.87(3) 2 .
Cu3 P1 Dy 72.88(3) . 2_554
Cu1 P1 Dy 72.91(3) . 2_554
Cu1 P1 Dy 74.635(18) 5_556 2_554
Cu1 P1 Dy 138.13(5) 5_566 2_554
Cu4 P1 Dy 136.40(5) 2_565 2_554
Cu4 P1 Dy 73.701(18) 2 2_554
Mn P1 Dy 139.457(14) . 2_554
Cu3 P1 Dy 72.88(3) . 2_564
Cu1 P1 Dy 72.91(3) . 2_564
Cu1 P1 Dy 138.13(5) 5_556 2_564
Cu1 P1 Dy 74.635(18) 5_566 2_564
Cu4 P1 Dy 73.701(18) 2_565 2_564
Cu4 P1 Dy 136.40(5) 2 2_564
Mn P1 Dy 139.457(14) . 2_564
Dy P1 Dy 81.00(3) 2_554 2_564
Cu2 P2 Cu1 118.52(5) . .
Cu2 P2 Cu3 68.29(3) . 2_554
Cu1 P2 Cu3 128.02(2) . 2_554
Cu2 P2 Cu3 68.29(3) . 2_564
Cu1 P2 Cu3 128.02(2) . 2_564
Cu3 P2 Cu3 103.08(5) 2_554 2_564
Cu2 P2 Cu4 103.01(5) . .
Cu1 P2 Cu4 138.47(5) . .
Cu3 P2 Cu4 66.18(3) 2_554 .
Cu3 P2 Cu4 66.18(3) 2_564 .
Cu2 P2 Mn 67.85(3) . 5_556
Cu1 P2 Mn 69.54(3) . 5_556
Cu3 P2 Mn 67.12(2) 2_554 5_556
Cu3 P2 Mn 135.44(5) 2_564 5_556
Cu4 P2 Mn 132.23(3) . 5_556
Cu2 P2 Mn 67.85(3) . 5_566
Cu1 P2 Mn 69.54(3) . 5_566
Cu3 P2 Mn 135.44(5) 2_554 5_566
Cu3 P2 Mn 67.12(2) 2_564 5_566
Cu4 P2 Mn 132.23(3) . 5_566
Mn P2 Mn 89.38(4) 5_556 5_566
Cu2 P2 Dy 138.198(17) . 2_564
Cu1 P2 Dy 74.23(3) . 2_564
Cu3 P2 Dy 138.11(5) 2_554 2_564
Cu3 P2 Dy 73.223(18) 2_564 2_564
Cu4 P2 Dy 74.86(3) . 2_564
Mn P2 Dy 143.39(5) 5_556 2_564
Mn P2 Dy 82.82(2) 5_566 2_564
Cu2 P2 Dy 138.198(17) . 2_554
Cu1 P2 Dy 74.23(3) . 2_554
Cu3 P2 Dy 73.223(18) 2_554 2_554
Cu3 P2 Dy 138.11(5) 2_564 2_554
Cu4 P2 Dy 74.86(3) . 2_554
Mn P2 Dy 82.82(2) 5_556 2_554
Mn P2 Dy 143.39(5) 5_566 2_554
Dy P2 Dy 82.54(3) 2_564 2_554
Cu4 P3 Cu2 117.63(5) . 6_656
Cu4 P3 Cu2 127.00(2) . 2_565
Cu2 P3 Cu2 66.91(3) 6_656 2_565
Cu4 P3 Cu2 127.00(2) . 2
Cu2 P3 Cu2 66.91(3) 6_656 2
Cu2 P3 Cu2 104.07(5) 2_565 2
Cu4 P3 Cu3 140.18(6) . .
Cu2 P3 Cu3 102.20(4) 6_656 .
Cu2 P3 Cu3 67.65(3) 2_565 .
Cu2 P3 Cu3 67.65(3) 2 .
Cu4 P3 Mn 69.25(3) . 2_554
Cu2 P3 Mn 67.27(3) 6_656 2_554
Cu2 P3 Mn 133.20(5) 2_565 2_554
Cu2 P3 Mn 65.36(2) 2 2_554
Cu3 P3 Mn 132.09(2) . 2_554
Cu4 P3 Mn 69.25(3) . 2_564
Cu2 P3 Mn 67.27(3) 6_656 2_564
Cu2 P3 Mn 65.36(2) 2_565 2_564
Cu2 P3 Mn 133.20(5) 2 2_564
Cu3 P3 Mn 132.09(2) . 2_564
Mn P3 Mn 88.62(4) 2_554 2_564
Cu4 P3 Dy 76.59(3) . 2_554
Cu2 P3 Dy 137.597(17) 6_656 2_554
Cu2 P3 Dy 138.86(5) 2_565 2_554
Cu2 P3 Dy 73.028(18) 2 2_554
Cu3 P3 Dy 73.87(3) . 2_554
Mn P3 Dy 84.116(19) 2_554 2_554
Mn P3 Dy 145.42(4) 2_564 2_554
Cu4 P3 Dy 76.59(3) . 2_564
Cu2 P3 Dy 137.597(17) 6_656 2_564
Cu2 P3 Dy 73.028(18) 2_565 2_564
Cu2 P3 Dy 138.86(5) 2 2_564
Cu3 P3 Dy 73.87(3) . 2_564
Mn P3 Dy 145.42(4) 2_554 2_564
Mn P3 Dy 84.116(19) 2_564 2_564
Dy P3 Dy 83.02(3) 2_554 2_564
loop_
_geom_bond_atom_site_label_1
_geom_bond_atom_site_label_2
_geom_bond_distance
_geom_bond_site_symmetry_2
Dy P3 2.8550(9) 2
Dy P3 2.8550(9) 2_565
Dy P2 2.8683(9) 2
Dy P2 2.8683(9) 2_565
Dy P1 2.9132(8) 2_565
Dy P1 2.9132(8) 2
Dy Cu2 3.1481(6) 1_556
Dy Cu3 3.1724(6) .
Dy Cu3 3.1950(5) 2_565
Dy Cu3 3.1950(5) 2
Dy Cu1 3.1994(5) 2_565
Dy Cu1 3.1994(5) 2
Mn P1 2.4731(13) .
Mn P2 2.6904(9) 5_556
Mn P2 2.6904(9) 5_566
Mn P3 2.7086(10) 2_565
Mn P3 2.7086(10) 2
Mn Cu2 2.7705(10) 1_556
Mn Cu3 2.8323(10) 6_557
Mn Cu2 2.8395(7) 5_566
Mn Cu2 2.8395(7) 5_556
Mn Cu4 2.8871(7) 2_565
Mn Cu4 2.8871(7) 2
Mn Cu1 2.9113(7) 5_556
Cu1 P2 2.3969(12) .
Cu1 P1 2.4313(12) .
Cu1 P1 2.4343(8) 5_556
Cu1 P1 2.4343(8) 5_566
Cu1 Cu4 2.7020(8) 6_556
Cu1 Cu1 2.7085(8) 5_566
Cu1 Cu1 2.7085(8) 5_556
Cu1 Mn 2.9113(8) 5_556
Cu1 Mn 2.9113(8) 5_566
Cu1 Dy 3.1994(5) 2_564
Cu1 Dy 3.1994(5) 2_554
Cu1 Dy 3.2641(6) 6_557
Cu2 P2 2.3758(12) .
Cu2 P3 2.3966(12) 6_556
Cu2 P3 2.3999(7) 2_554
Cu2 P3 2.3999(7) 2_564
Cu2 Cu2 2.6441(8) 5
Cu2 Cu2 2.6441(8) 5_565
Cu2 Cu3 2.6899(6) 2_564
Cu2 Cu3 2.6899(6) 2_554
Cu2 Mn 2.7705(10) 1_554
Cu2 Mn 2.8395(7) 5_566
Cu2 Mn 2.8395(7) 5_556
Cu2 Dy 3.1481(6) 1_554
Cu3 P2 2.4163(8) 2_565
Cu3 P2 2.4163(8) 2
Cu3 P1 2.4249(13) .
Cu3 P3 2.4322(12) .
Cu3 Cu4 2.6548(6) 2
Cu3 Cu4 2.6548(6) 2_565
Cu3 Cu2 2.6899(6) 2_565
Cu3 Cu2 2.6899(6) 2
Cu3 Mn 2.8323(10) 6_657
Cu3 Dy 3.1950(5) 2_554
Cu3 Dy 3.1950(5) 2_564
Cu4 P3 2.3455(11) .
Cu4 P1 2.4460(8) 2_554
Cu4 P1 2.4460(8) 2_564
Cu4 P2 2.4461(12) .
Cu4 Cu3 2.6548(6) 2_554
Cu4 Cu3 2.6548(6) 2_564
Cu4 Cu1 2.7020(8) 6_656
Cu4 Mn 2.8870(7) 2_564
Cu4 Mn 2.8870(7) 2_554
Cu4 Dy 3.2357(6) 1_554
Cu4 Dy 3.2474(5) 2_564
Cu4 Dy 3.2474(5) 2_554
P1 Cu1 2.4343(8) 5_556
P1 Cu1 2.4343(8) 5_566
P1 Cu4 2.4460(8) 2_565
P1 Cu4 2.4460(8) 2
P1 Dy 2.9132(8) 2_554
P1 Dy 2.9132(8) 2_564
P2 Cu3 2.4163(8) 2_554
P2 Cu3 2.4163(8) 2_564
P2 Mn 2.6905(9) 5_556
P2 Mn 2.6905(9) 5_566
P2 Dy 2.8683(9) 2_564
P2 Dy 2.8683(9) 2_554
P3 Cu2 2.3967(12) 6_656
P3 Cu2 2.3999(7) 2_565
P3 Cu2 2.3999(7) 2
P3 Mn 2.7086(10) 2_554
P3 Mn 2.7086(10) 2_564
P3 Dy 2.8550(9) 2_554
P3 Dy 2.8550(9) 2_564
