#------------------------------------------------------------------------------
#$Date: 2018-07-21 16:52:05 +0300 (Sat, 21 Jul 2018) $
#$Revision: 209173 $
#$URL: file:///home/coder/svn-repositories/cod/cif/4/34/16/4341616.cif $
#------------------------------------------------------------------------------
#
# This file is available in the Crystallography Open Database (COD),
# http://www.crystallography.net/
#
# All data on this site have been placed in the public domain by the
# contributors.
#
data_4341616
loop_
_publ_author_name
'Prakash, Jai'
'Leb\`egue, S\'ebastien'
'Malliakas, Christos D.'
'Ibers, James A.'
_publ_section_title
;
 Syntheses, Crystal Structures, Resistivity Studies, and Electronic
 Properties of Three New Barium Actinide Tellurides: BaThTe4, BaUTe4, and
 BaUTe6.
;
_journal_name_full               'Inorganic chemistry'
_journal_page_first              141111074323002
_journal_paper_doi               10.1021/ic502246p
_journal_year                    2014
_chemical_formula_sum            'Ba Te4 Th'
_chemical_formula_weight         879.78
_chemical_name_common            BaThTe4
_space_group_crystal_system      monoclinic
_space_group_IT_number           12
_space_group_name_Hall           '-I 2y'
_space_group_name_H-M_alt        'I 1 2/m 1'
_atom_sites_solution_primary     direct
_atom_sites_solution_secondary   difmap
_audit_creation_method           SHELXL-2014/6
_cell_angle_alpha                90
_cell_angle_beta                 91.54(3)
_cell_angle_gamma                90
_cell_formula_units_Z            4
_cell_length_a                   10.460(2)
_cell_length_b                   6.3800(13)
_cell_length_c                   12.580(3)
_cell_measurement_reflns_used    4687
_cell_measurement_temperature    100(2)
_cell_measurement_theta_max      30.48
_cell_measurement_theta_min      2.50
_cell_volume                     839.2(3)
_computing_cell_refinement       'Bruker SAINT'
_computing_data_collection       'Bruker APEX2'
_computing_data_reduction        'Bruker SAINT'
_computing_molecular_graphics    'Bruker SHELXTL'
_computing_publication_material  'Bruker SHELXTL'
_computing_structure_refinement  'SHELXL-2014/6 (Sheldrick, 2014)'
_computing_structure_solution    'SHELXL-2012/1 (Sheldrick, 2012)'
_diffrn_ambient_temperature      100(2)
_diffrn_measured_fraction_theta_full 0.996
_diffrn_measured_fraction_theta_max 0.996
_diffrn_measurement_device_type  'Bruker APEX-II CCD'
_diffrn_measurement_method       '\f and \w scans'
_diffrn_radiation_type           MoK\a
_diffrn_radiation_wavelength     0.71073
_diffrn_reflns_av_R_equivalents  0.0495
_diffrn_reflns_av_unetI/netI     0.0339
_diffrn_reflns_Laue_measured_fraction_full 0.996
_diffrn_reflns_Laue_measured_fraction_max 0.996
_diffrn_reflns_limit_h_max       14
_diffrn_reflns_limit_h_min       -14
_diffrn_reflns_limit_k_max       9
_diffrn_reflns_limit_k_min       -4
_diffrn_reflns_limit_l_max       17
_diffrn_reflns_limit_l_min       -17
_diffrn_reflns_number            7423
_diffrn_reflns_point_group_measured_fraction_full 0.996
_diffrn_reflns_point_group_measured_fraction_max 0.996
_diffrn_reflns_theta_full        25.242
_diffrn_reflns_theta_max         30.549
_diffrn_reflns_theta_min         3.240
_diffrn_source                   'fine-focus sealed tube'
_exptl_absorpt_coefficient_mu    35.886
_exptl_absorpt_correction_T_max  0.19868
_exptl_absorpt_correction_T_min  0.10694
_exptl_absorpt_correction_type   numerical
_exptl_absorpt_process_details   'face indexed (SADABS; Sheldrick, 2012/1)'
_exptl_crystal_colour            Black
_exptl_crystal_density_diffrn    6.963
_exptl_crystal_density_meas      ?
_exptl_crystal_density_method    'not measured'
_exptl_crystal_description       Needle
_exptl_crystal_F_000             1416
_exptl_crystal_size_max          0.082
_exptl_crystal_size_mid          0.063
_exptl_crystal_size_min          0.048
_refine_diff_density_max         4.145
_refine_diff_density_min         -3.485
_refine_diff_density_rms         0.479
_refine_ls_extinction_coef       0.00062(9)
_refine_ls_extinction_expression Fc^*^=kFc[1+0.001xFc^2^\l^3^/sin(2\q)]^-1/4^
_refine_ls_extinction_method     SHELXL
_refine_ls_goodness_of_fit_ref   1.678
_refine_ls_hydrogen_treatment    undef
_refine_ls_matrix_type           full
_refine_ls_number_parameters     35
_refine_ls_number_reflns         1386
_refine_ls_number_restraints     0
_refine_ls_restrained_S_all      1.678
_refine_ls_R_factor_all          0.0279
_refine_ls_R_factor_gt           0.0268
_refine_ls_shift/su_max          0.001
_refine_ls_shift/su_mean         0.000
_refine_ls_structure_factor_coef Fsqd
_refine_ls_weighting_details
'w=1/[\s^2^(Fo^2^)+(0.0217P)^2^] where P=(1.0000Fo^2^+0.0000Fc^2^)'
_refine_ls_weighting_scheme      calc
_refine_ls_wR_factor_gt          0.0738
_refine_ls_wR_factor_ref         0.0744
_reflns_Friedel_coverage         0.000
_reflns_number_gt                1346
_reflns_number_total             1386
_reflns_threshold_expression     'I > 2\s(I)'
_cod_data_source_file            ic502246p_si_001.cif
_cod_data_source_block           BaThTe4
_cod_depositor_comments
;
 Updating space group information.

 Antanas Vaitkus,
 2018-07-22

The following automatic conversions were performed:

'_exptl_crystal_density_meas' value 'not measured' was changed to '?'
- the value is perceived as not measured.

Automatic conversion script
Id: cif_fix_values 3008 2015-01-20 13:52:24Z robertas 
;
_cod_original_sg_symbol_H-M      'I 2/m'
_cod_database_code               4341616
_shelx_space_group_comment
;
The symmetry employed for this shelxl refinement is uniquely defined
by the following loop, which should always be used as a source of
symmetry information in preference to the above space-group names.
They are only intended as comments.
;
_shelxl_version_number           2014/6
_shelx_res_file
;
TITL BaThTe4 in I2/m after absorption correction and tidy
CELL 0.71073 10.46 6.38 12.58 90 91.54 90
ZERR 4 0.00209 0.00128 0.00252 0 0.03 0
LATT 2
SYMM -X,+Y,-Z

SFAC Te Ba Th
UNIT 16 4 4

L.S. 4
PLAN  20
BOND
fmap 2
acta
OMIT 1 0 1

WGHT    0.021700    0.000000    0.000000    0.000000    0.000000    1.000000
EXTI    0.000622
FVAR       0.03491
TH1   3    0.135377    0.000000    0.361301    10.50000    0.00993    0.00686 =
         0.00857    0.00000   -0.00071    0.00000
BA1   2    0.294286    0.500000    0.599244    10.50000    0.00672    0.00522 =
         0.00792    0.00000    0.00029    0.00000
TE1   1    0.095554    0.250337    0.140845    11.00000    0.00736    0.01857 =
         0.00759   -0.00083   -0.00071    0.00173
TE2   1    0.050434    0.500000    0.399491    10.50000    0.00527    0.00694 =
         0.00577    0.00000    0.00237    0.00000
TE3   1    0.330577    0.500000    0.885231    10.50000    0.01071    0.00460 =
         0.01168    0.00000   -0.00157    0.00000
HKLF 4

REM  BaThTe4 in I2/m after absorption correction and tidy
REM R1 =  0.0268 for    1346 Fo > 4sig(Fo)  and  0.0279 for all    1386 data
REM     35 parameters refined using      0 restraints

END

WGHT      0.0218     39.0666

REM Highest difference peak  4.145,  deepest hole -3.485,  1-sigma level  0.479
Q1    1   0.3277  0.5000  0.8376  10.50000  0.05    4.15
Q2    1   0.2850  0.5000  0.8987  10.50000  0.05    3.00
Q3    1   0.0141  0.5000  0.4010  10.50000  0.05    2.45
Q4    1   0.3197  0.5000  0.5793  10.50000  0.05    2.31
Q5    1   0.1225  0.2450  0.1647  11.00000  0.05    2.25
Q6    1   0.0590  0.1917  0.1341  11.00000  0.05    2.18
Q7    1   0.0939  0.2993  0.1140  11.00000  0.05    2.06
Q8    1   0.3306  0.5000  0.6171  10.50000  0.05    1.83
Q9    1   0.0913  0.0000  0.2976  10.50000  0.05    1.72
Q10   1  -0.0191  0.5000  0.3359  10.50000  0.05    1.70
Q11   1   0.1041  0.2274  0.1005  11.00000  0.05    1.69
Q12   1   0.0805  0.5000  0.3691  10.50000  0.05    1.66
Q13   1   0.0792  0.5000  0.4369  10.50000  0.05    1.47
Q14   1   0.1880  0.0000  0.1227  10.50000  0.05    1.36
Q15   1   0.1909  0.0000  0.4162  10.50000  0.05    1.30
Q16   1   0.4105  0.5000  0.8445  10.50000  0.05    1.28
Q17   1   0.0947  0.5000  0.8866  10.50000  0.05    1.23
Q18   1   0.4267  0.5000  0.6104  10.50000  0.05    1.19
Q19   1   0.0208  0.0000  0.3664  10.50000  0.05    1.15
Q20   1   0.2047  0.5000  0.8558  10.50000  0.05    1.08
;
_shelx_res_checksum              75014
_shelx_hkl_file
;
   1   0   0    0.00    0.01
  -1   0   0   -0.05    0.05
  -2   0   0    0.43    0.16
   2   0   0   -0.31    0.09
   3   0   0    0.10    0.16
  -3   0   0   -0.07    0.16
   4   0   0  233.55   15.39
  -4   0   0  211.45   15.37
   5   0   0   -0.06    0.17
  -5   0   0   -0.19    0.14
  -5   0   0    0.15    0.18
   6   0   0    6.47    0.57
   6   0   0    6.26    0.53
  -6   0   0    6.12    0.51
   6   0   0    5.07    0.60
  -6   0   0    4.56    0.48
  -7   0   0   -0.09    0.15
  -7   0   0    0.01    0.16
   7   0   0   -0.05    0.21
   7   0   0    0.00    0.19
   7   0   0   -0.26    0.16
   8   0   0    5.35    0.55
  -8   0   0    5.48    0.54
   8   0   0    6.46    0.61
   8   0   0    5.89    0.70
  -8   0   0    5.26    0.54
   9   0   0    0.07    0.24
   9   0   0   -0.24    0.18
   9   0   0    0.01    0.24
  -9   0   0   -0.04    0.16
  -9   0   0    0.17    0.23
  -9   0   0    0.07    0.21
  10   0   0    4.30    0.57
 -10   0   0    5.87    0.64
  10   0   0    5.26    0.60
 -10   0   0    4.04    0.54
 -10   0   0    4.15    0.54
  11   0   0   -0.07    0.25
 -11   0   0    0.06    0.24
  11   0   0    0.51    0.27
 -11   0   0    0.08    0.25
  12   0   0    9.31    0.88
 -12   0   0    9.56    0.90
 -12   0   0    8.87    0.82
  13   0   0   -0.13    0.29
 -13   0   0   -0.03    0.24
 -13   0   0    0.00    0.28
 -14   0   0    0.64    0.40
  14   0   0    0.35    0.39
 -14   0   0    0.71    0.33
   0  -1   0   -0.41    0.04
   0   1   0   -0.19    0.06
  -1  -1   0   28.70    2.10
  -1   1   0   32.09    2.07
   1   1   0   28.54    2.11
  -1   1   0   29.56    2.07
   2  -1   0   -0.04    0.09
  -2  -1   0   -0.06    0.14
  -2   1   0    0.05    0.12
   2   1   0    0.10    0.14
   3  -1   0  425.38   29.82
  -3  -1   0  419.26   29.85
   3   1   0  421.71   29.86
  -3   1   0  467.75   29.82
   4  -1   0    0.12    0.16
  -4  -1   0    0.01    0.18
  -4   1   0   -0.12    0.15
   4   1   0    0.22    0.21
   5  -1   0   24.09    1.94
  -5   1   0   26.23    1.68
   5   1   0   28.63    2.03
   5   1   0   24.82    1.69
  -5   1   0   27.84    1.95
   6  -1   0    0.07    0.19
  -6  -1   0   -0.33    0.12
  -6  -1   0   -0.07    0.17
   6   1   0   -0.01    0.21
  -6   1   0   -0.14    0.13
   6   1   0    0.02    0.17
  -6   1   0   -0.02    0.15
   6   1   0   -0.22    0.15
  -7  -1   0   44.43    2.80
   7  -1   0   44.02    2.80
   7  -1   0   45.16    2.81
   7  -1   0   46.14    3.25
  -7  -1   0   41.28    2.79
  -7   1   0   43.35    2.75
   7   1   0   45.22    3.29
   7   1   0   45.90    2.81
   7   1   0   43.95    2.82
   8  -1   0   -0.02    0.20
  -8  -1   0   -0.28    0.16
  -8  -1   0   -0.13    0.18
   8  -1   0    0.04    0.20
   8  -1   0   -0.10    0.16
  -8   1   0    0.00    0.14
   8   1   0    0.24    0.24
   8   1   0   -0.12    0.19
  -8   1   0    0.00    0.17
  -8   1   0    0.06    0.17
   8   1   0    0.34    0.21
   9  -1   0   13.07    1.27
  -9  -1   0   15.53    1.11
  -9  -1   0   14.57    1.09
   9  -1   0   14.93    1.11
   9   1   0   13.98    1.11
   9   1   0   15.04    1.10
  -9   1   0   14.82    1.06
  -9   1   0   15.32    1.11
   9   1   0   13.72    1.08
  -9   1   0   13.94    1.04
  10  -1   0    0.06    0.26
 -10  -1   0   -0.21    0.21
 -10  -1   0    0.15    0.23
 -10   1   0    0.07    0.21
  10   1   0    0.04    0.24
 -10   1   0    0.10    0.20
  10   1   0    0.00    0.23
 -10   1   0   -0.22    0.19
  11  -1   0    1.40    0.38
 -11  -1   0    1.18    0.36
 -11  -1   0    1.37    0.35
  11   1   0    1.11    0.35
 -11   1   0    0.33    0.32
 -11   1   0    1.04    0.29
  11   1   0    0.87    0.32
 -11   1   0    1.67    0.37
  12  -1   0   -0.15    0.28
 -12  -1   0    0.11    0.28
 -12  -1   0   -0.03    0.30
 -12   1   0   -0.13    0.25
  12   1   0   -0.06    0.29
 -12   1   0    0.12    0.29
  12   1   0   -0.11    0.24
 -12   1   0   -0.02    0.24
 -13  -1   0    2.01    0.45
  13  -1   0    1.75    0.47
  13   1   0    1.73    0.44
 -13   1   0    1.74    0.45
 -13   1   0    1.52    0.35
  13   1   0    1.17    0.39
  14  -1   0    0.45    0.36
 -14  -1   0    0.16    0.26
 -14   1   0    0.11    0.25
  14   1   0   -0.02    0.33
 -14   1   0    0.16    0.33
   0  -2   0  265.65   19.13
   0   2   0  289.10   19.14
  -1  -2   0   -0.04    0.11
   1   2   0   -0.13    0.14
  -2  -2   0   76.58    5.60
   2   2   0   83.91    5.62
  -3  -2   0    0.11    0.17
  -3   2   0    0.06    0.09
   3   2   0   -0.10    0.17
  -3   2   0   -0.02    0.11
  -4   2   0    2.81    0.33
   4   2   0    2.99    0.42
   5   2   0   -0.07    0.20
  -5   2   0    0.09    0.13
  -5   2   0   -0.14    0.13
   5   2   0    0.12    0.16
  -6   2   0  213.28   14.14
   6   2   0  207.13   14.25
   6   2   0  207.52   12.25
   6   2   0  195.16   12.33
  -6   2   0  197.83   12.31
  -7  -2   0   -0.06    0.16
  -7  -2   0    0.27    0.16
  -7   2   0    0.09    0.15
   7   2   0    0.06    0.20
   7   2   0    0.11    0.18
   7   2   0   -0.29    0.14
  -7   2   0    0.11    0.11
   7   2   0   -0.08    0.17
  -7   2   0    0.17    0.16
  -8  -2   0   12.75    0.93
   8   2   0   11.58    1.14
   8   2   0   12.32    0.92
  -8   2   0   11.32    0.80
   8   2   0   11.64    0.91
   8   2   0   10.06    0.91
  -8   2   0   12.18    0.92
  -8   2   0   12.30    0.88
  -9  -2   0    0.11    0.22
   9  -2   0    0.54    0.30
  -9   2   0   -0.19    0.19
  -9   2   0   -0.05    0.18
   9   2   0    0.37    0.25
   9   2   0   -0.06    0.23
   9   2   0   -0.30    0.19
  -9   2   0   -0.07    0.14
 -10  -2   0  100.63    6.48
  10  -2   0   94.18    6.46
 -10   2   0   99.75    6.35
 -10   2   0  110.68    6.54
  10   2   0  104.24    6.54
  10   2   0  117.72    6.36
  10   2   0  105.94    6.47
 -10   2   0  108.27    6.30
 -11  -2   0   -0.05    0.25
  11  -2   0    0.21    0.35
 -11   2   0   -0.27    0.17
 -11   2   0    0.26    0.26
 -11   2   0    0.00    0.23
  11   2   0   -0.11    0.28
  11   2   0   -0.23    0.24
  11   2   0    0.18    0.29
 -12  -2   0   77.42    5.04
  12  -2   0   78.82    5.09
  12   2   0   75.82    5.02
 -12   2   0   87.41    4.95
  12   2   0   87.32    5.12
 -12   2   0   73.94    5.06
  13  -2   0    0.09    0.38
 -13  -2   0    0.10    0.31
 -13   2   0   -0.22    0.27
  13   2   0    0.07    0.28
  13   2   0    0.13    0.30
 -13   2   0   -0.07    0.28
 -14  -2   0   23.03    1.89
  14  -2   0   26.67    1.98
  14   2   0   27.15    1.90
  14   2   0   26.21    1.96
 -14   2   0   24.69    1.93
 -14   2   0   30.31    1.97
   0  -3   0   -0.17    0.08
   0   3   0   -0.14    0.11
  -1  -3   0   22.02    1.62
   1   3   0   22.74    1.64
  -2  -3   0   -0.02    0.15
   2   3   0    0.02    0.16
  -3  -3   0  372.35   24.57
   3   3   0  367.92   24.59
   3   3   0  328.23   21.36
  -4   3   0   -0.04    0.09
   4   3   0    0.13    0.20
  -4   3   0    0.08    0.09
   4   3   0   -0.22    0.12
  -5   3   0   19.01    1.39
   5   3   0   20.48    1.25
  -5   3   0   18.65    1.23
  -5   3   0   18.59    1.39
   5   3   0   17.72    1.26
   5   3   0   19.12    1.55
   6   3   0    0.12    0.21
  -6   3   0   -0.17    0.14
   6   3   0   -0.06    0.17
  -6   3   0   -0.13    0.13
   6   3   0   -0.02    0.16
  -7   3   0   37.01    2.18
   7   3   0   39.62    2.72
   7   3   0   35.70    2.28
  -7   3   0   30.69    2.23
   7   3   0   35.87    2.18
   7   3   0   32.28    2.22
  -8  -3   0    0.06    0.20
   8   3   0    0.20    0.22
  -8   3   0    0.05    0.17
  -8   3   0    0.35    0.22
   8   3   0   -0.03    0.20
   8   3   0    0.25    0.18
  -9  -3   0   11.73    0.97
   9   3   0   12.59    0.91
   9   3   0   12.30    1.01
   9   3   0   11.02    0.96
  -9   3   0   13.05    0.95
  -9   3   0   12.17    0.98
 -10  -3   0    0.20    0.28
 -10   3   0   -0.03    0.22
 -10   3   0   -0.39    0.21
  10   3   0    0.33    0.27
  10   3   0   -0.21    0.21
  10   3   0   -0.24    0.24
 -11  -3   0    0.91    0.35
 -11   3   0    0.36    0.28
  11   3   0    0.64    0.29
 -11   3   0    0.83    0.33
  11   3   0    0.87    0.39
  11   3   0    1.03    0.35
 -12  -3   0    0.04    0.28
  12   3   0   -0.03    0.33
 -12   3   0    0.34    0.26
  12   3   0    0.19    0.26
 -12   3   0    0.14    0.29
  12   3   0    0.78    0.39
 -13  -3   0    0.91    0.40
 -13   3   0    0.97    0.36
  13   3   0    1.46    0.38
  13   3   0    1.46    0.48
 -13   3   0    1.28    0.41
 -14  -3   0   -0.56    0.29
  14   3   0    0.64    0.41
 -14   3   0   -0.01    0.29
 -14   3   0   -0.05    0.34
  14   3   0   -0.10    0.30
   0  -4   0  775.32   53.99
   0   4   0  731.23   54.00
   0   4   0  853.22   47.02
  -1  -4   0    0.06    0.11
  -1   4   0   -0.08    0.14
   1   4   0    0.03    0.14
   1   4   0   -0.23    0.15
  -2  -4   0    0.99    0.24
   2   4   0    1.56    0.31
   2   4   0    1.40    0.26
  -2   4   0    1.11    0.26
  -3   4   0   -0.09    0.15
   3   4   0    0.26    0.19
   3   4   0    0.14    0.23
  -4   4   0  122.87    7.31
   4   4   0  110.07    8.38
   4   4   0  119.74    7.22
   4   4   0  120.09    7.01
   4   4   0  123.62    7.31
   5   4   0    0.09    0.17
   5   4   0   -0.33    0.18
  -5   4   0    0.00    0.11
   5   4   0   -0.14    0.15
   6   4   0    1.06    0.26
   6   4   0    1.69    0.38
  -6   4   0    0.78    0.21
   6   4   0    1.36    0.28
   7   4   0    0.07    0.20
   7   4   0    0.05    0.21
  -7   4   0   -0.08    0.18
  -7   4   0   -0.20    0.15
   8   4   0    2.75    0.44
  -8   4   0    2.65    0.39
  -8   4   0    3.88    0.45
   8   4   0    3.02    0.46
  -9   4   0    0.30    0.22
  -9   4   0   -0.01    0.23
   9   4   0   -0.10    0.25
   9   4   0    0.01    0.23
 -10   4   0    1.65    0.34
  10   4   0    1.50    0.39
  10   4   0    1.56    0.41
 -10   4   0    1.45    0.37
 -11   4   0    0.33    0.25
 -11   4   0   -0.19    0.28
  11   4   0   -0.10    0.30
  11   4   0   -0.03    0.30
 -12  -4   0    8.00    0.93
 -12   4   0    8.61    0.84
  12   4   0    7.44    0.89
 -12   4   0    9.40    0.88
  12   4   0    7.47    0.91
 -13  -4   0    0.24    0.38
 -13   4   0   -0.55    0.24
  13   4   0    0.12    0.37
  13   4   0   -0.10    0.32
 -13   4   0    0.06    0.29
   0   5   0   -0.09    0.20
   0   5   0   -0.08    0.17
   1   5   0   14.13    1.07
  -1   5   0   16.30    1.15
   1   5   0   13.25    1.10
  -1   5   0   14.52    1.08
  -2   5   0   -0.02    0.21
   2   5   0    0.16    0.18
  -2   5   0    0.19    0.20
   2   5   0    0.05    0.20
  -3   5   0  190.92   12.49
   3   5   0  205.79   12.47
   3   5   0  214.74   14.31
   3   5   0  222.72   11.99
   3   5   0  216.90   12.46
  -3   5   0  181.92   12.47
  -4   5   0   -0.04    0.10
  -4   5   0   -0.03    0.20
   4   5   0    0.34    0.25
   4   5   0   -0.11    0.22
  -4   5   0   -0.24    0.23
   4   5   0   -0.09    0.14
   4   5   0    0.00    0.21
   5   5   0   12.22    0.87
  -5   5   0   10.43    0.95
  -5   5   0   12.71    0.79
   5   5   0   11.76    0.96
   5   5   0   12.11    1.10
   5   5   0   12.12    0.88
  -5   5   0   10.53    0.97
  -6   5   0    0.18    0.25
   6   5   0    0.02    0.19
  -6   5   0    0.07    0.25
   6   5   0   -0.12    0.19
  -6   5   0    0.13    0.15
   7   5   0   23.91    1.60
  -7   5   0   22.08    1.48
  -7   5   0   25.90    1.70
   7   5   0   21.99    1.56
  -7   5   0   21.24    1.68
  -8   5   0    0.01    0.21
   8   5   0    0.13    0.25
  -8   5   0    0.03    0.21
   8   5   0   -0.17    0.21
  -9   5   0    7.55    0.71
   9   5   0    7.94    0.78
   9   5   0    8.24    0.82
  -9   5   0    7.66    0.72
  10   5   0    0.11    0.30
 -10   5   0    0.06    0.21
 -10   5   0   -0.07    0.24
  10   5   0    0.26    0.30
  11   5   0    0.69    0.38
 -11   5   0    1.24    0.38
  11   5   0    1.00    0.39
 -11   5   0    0.80    0.31
  12   5   0    0.49    0.35
 -12   5   0   -0.07    0.28
  12   5   0   -0.22    0.33
 -12   5   0    0.21    0.30
   0   6   0  125.37    7.81
   0   6   0  127.23    7.78
  -1   6   0   -0.42    0.22
   1   6   0    0.30    0.26
  -1   6   0    0.04    0.19
   1   6   0    0.07    0.20
  -2   6   0   26.40    1.90
   2   6   0   26.64    1.85
  -2   6   0   23.06    1.82
   2   6   0   27.96    1.60
   2   6   0   26.53    1.83
   3   6   0   -0.10    0.21
  -3   6   0   -0.13    0.25
   3   6   0    0.23    0.26
  -3   6   0    0.11    0.24
   3   6   0    0.08    0.14
   4   6   0    1.52    0.38
   4   6   0    0.72    0.22
  -4   6   0    0.51    0.34
   4   6   0    0.67    0.31
  -4   6   0    0.73    0.33
  -5   6   0    0.00    0.25
  -5   6   0    0.02    0.28
   5   6   0   -0.22    0.28
  -5   6   0    0.01    0.13
   5   6   0   -0.07    0.27
   5   6   0    0.13    0.21
   6   6   0   69.64    4.42
  -6   6   0   73.68    4.36
   6   6   0   74.98    4.57
  -6   6   0   73.07    4.68
  -6   6   0   74.81    4.70
  -7   6   0    0.36    0.31
  -7   6   0    0.05    0.30
   7   6   0   -0.07    0.24
   7   6   0   -0.20    0.23
  -7   6   0   -0.15    0.16
  -8   6   0    4.44    0.66
   8   6   0    3.72    0.54
   8   6   0    4.99    0.61
  -8   6   0    4.54    0.51
  -9   6   0   -0.05    0.22
   9   6   0    0.13    0.27
   9   6   0   -0.02    0.32
  -9   6   0   -0.25    0.33
 -10   6   0   40.68    2.71
  10   6   0   43.88    2.90
 -10   6   0   41.14    2.83
 -10   6   0   41.09    2.99
  10   6   0   46.77    2.83
  11   6   0    0.19    0.33
 -11   6   0    0.07    0.30
  11   6   0    0.42    0.31
 -11   6   0   -0.30    0.35
 -11   6   0    0.01    0.26
   0   7   0   -0.22    0.21
   0   7   0   -0.02    0.25
  -1   7   0   10.44    1.02
   1   7   0   11.05    0.97
   1   7   0   12.19    1.03
  -1   7   0    9.78    0.96
   2   7   0   -0.12    0.27
   2   7   0   -0.05    0.27
  -2   7   0    0.14    0.30
  -2   7   0   -0.33    0.23
   3   7   0  139.73    8.34
  -3   7   0  134.24    8.38
  -3   7   0  129.13    8.34
   3   7   0  140.61    7.91
   3   7   0  127.70    8.33
   4   7   0    0.20    0.21
   4   7   0   -0.35    0.31
  -4   7   0    0.22    0.34
  -4   7   0   -0.08    0.29
   4   7   0   -0.09    0.29
   5   7   0    5.26    0.57
  -5   7   0    6.72    0.83
   5   7   0    5.84    0.78
   5   7   0    6.97    0.78
  -5   7   0    5.94    0.79
   6   7   0   -0.02    0.21
  -6   7   0   -0.12    0.19
  -6   7   0   -0.24    0.30
  -6   7   0   -0.22    0.28
  -7   7   0   20.84    1.48
   7   7   0   18.27    1.28
  -7   7   0   14.66    1.16
  -7   7   0   17.35    1.46
   8   7   0    0.32    0.32
  -8   7   0    0.16    0.21
   8   7   0    0.00    0.26
  -8   7   0    0.48    0.38
   9   7   0    6.55    0.79
  -9   7   0    6.00    0.85
  -9   7   0    6.81    0.66
   9   7   0    6.06    0.72
   0   8   0  260.12   15.83
   0   8   0  259.40   15.86
  -1   8   0   -0.16    0.29
   1   8   0   -0.59    0.27
  -1   8   0   -0.13    0.34
   1   8   0   -0.21    0.27
  -2   8   0    2.13    0.48
  -2   8   0    1.50    0.49
   2   8   0    1.71    0.50
   2   8   0    1.25    0.42
  -3   8   0   -0.39    0.34
  -3   8   0    0.10    0.28
   3   8   0   -0.01    0.34
   3   8   0   -0.04    0.31
   3   8   0    0.07    0.20
   4   8   0   36.88    2.53
   4   8   0   35.31    2.51
  -4   8   0   38.17    2.58
  -4   8   0   34.46    2.51
   4   8   0   33.77    2.23
   5   8   0    0.17    0.33
   5   8   0    0.47    0.42
  -5   8   0    0.15    0.31
   5   8   0   -0.12    0.21
  -5   8   0    0.40    0.42
  -6   8   0    0.27    0.40
   6   8   0    0.15    0.26
  -6   8   0   -0.19    0.34
  -7   8   0    0.43    0.23
  -7   8   0   -0.52    0.33
  -7   8   0    0.23    0.40
   7   8   0   -0.28    0.22
   0   9   0   -0.12    0.39
   0   9   0   -0.14    0.31
   1   9   0    6.06    0.84
  -1   9   0    6.65    0.86
  -1   9   0    6.55    0.91
   1   9   0    7.14    0.97
   2   9   0    0.09    0.33
  -2   9   0    0.23    0.36
   2   9   0   -0.29    0.30
  -2   9   0   -0.03    0.40
 -14   0   1   -0.29    0.32
 -14   0   1    0.11    0.28
  14   0  -1    0.52    0.34
 -13   0   1    1.52    0.39
 -13   0   1    2.46    0.49
  13   0  -1    0.76    0.38
 -12   0   1   -0.06    0.27
  12   0  -1   -0.03    0.27
 -12   0   1   -0.06    0.24
  11   0  -1   71.42    4.42
 -11   0   1   75.86    4.39
  11   0  -1   67.38    4.43
 -11   0   1   64.94    4.43
 -10   0   1    0.35    0.22
  10   0  -1   -0.17    0.21
 -10   0   1    0.07    0.24
  10   0  -1   -0.07    0.22
 -10   0   1   -0.19    0.21
   9   0  -1  164.10   11.57
  -9   0   1  167.02    9.73
   9   0  -1  158.16    9.99
  -9   0   1  177.86    9.98
   9   0  -1  154.76   10.04
  -9   0   1  166.64   10.06
   8   0  -1    0.05    0.17
   8   0  -1    0.22    0.22
   8   0  -1   -0.17    0.18
  -8   0   1   -0.30    0.17
  -8   0   1   -0.17    0.17
  -7   0   1  377.86   20.98
   7   0  -1  371.91   21.00
   7   0  -1  324.99   21.09
   7   0  -1  308.03   24.25
  -7   0   1  369.22   21.12
  -6   0   1   -0.36    0.13
   6   0  -1   -0.40    0.14
  -6   0   1   -0.05    0.15
   6   0  -1   -0.01    0.20
   6   0  -1    0.11    0.18
  -5   0   1    1.29    0.24
   5   0  -1    0.82    0.26
  -5   0   1    0.98    0.27
  -4   0   1   -0.18    0.16
   4   0  -1    0.06    0.18
   3   0  -1  426.31   28.86
  -3   0   1  413.10   28.86
   2   0  -1   -0.06    0.08
  -2   0   1   -0.26    0.10
   0   0   1   -0.02    0.04
   0   0  -1   -0.01    0.01
  -1   0  -1   -0.07    0.03
   2   0   1    0.10    0.10
  -2   0  -1    0.04    0.13
   4   0   1    0.09    0.18
  -4   0  -1   -0.02    0.19
  -5   0  -1    8.21    0.76
   5   0   1    8.76    0.77
  -5   0  -1    7.59    0.62
  -6   0  -1    0.12    0.16
   6   0   1   -0.41    0.14
   6   0   1   -0.16    0.16
   6   0   1   -0.24    0.19
  -6   0  -1   -0.16    0.15
   7   0   1    0.19    0.20
   7   0   1    0.15    0.20
  -7   0  -1    0.82    0.23
   7   0   1    0.46    0.26
  -7   0  -1    0.33    0.21
  -8   0  -1   -0.04    0.17
  -8   0  -1    0.17    0.20
   8   0   1    0.21    0.20
   8   0   1   -0.11    0.18
   8   0   1    0.49    0.27
  -9   0  -1   46.96    2.98
   9   0   1   45.72    3.52
  -9   0  -1   52.36    2.95
  -9   0  -1   47.43    3.01
   9   0   1   47.61    3.01
   9   0   1   41.39    2.99
 -10   0  -1   -0.10    0.20
 -10   0  -1    0.04    0.24
  10   0   1    0.19    0.25
 -10   0  -1   -0.24    0.22
  10   0   1   -0.29    0.23
 -11   0  -1   54.86    3.38
 -11   0  -1   48.67    3.30
  12   0   1    0.41    0.27
 -12   0  -1    0.14    0.24
 -12   0  -1   -0.31    0.26
  13   0   1    0.73    0.37
 -13   0  -1    0.22    0.35
 -13   0  -1    0.52    0.30
 -14   0  -1    0.04    0.32
 -14   0  -1   -0.03    0.26
  14   0   1    0.05    0.30
  14  -1  -1    0.28    0.36
 -14  -1   1    0.80    0.32
 -14   1   1    0.47    0.28
 -14   1   1    0.36    0.38
  14   1  -1    0.23    0.30
  13  -1  -1    0.12    0.31
 -13  -1   1   -0.01    0.24
  13   1  -1    0.30    0.32
 -13   1   1    0.19    0.30
  13   1  -1   -0.03    0.30
 -13   1   1   -0.22    0.24
  12  -1  -1   42.63    2.76
 -12  -1   1   42.35    2.76
 -12  -1   1   42.66    2.72
  12   1  -1   41.24    2.76
 -12   1   1   40.88    2.67
 -12   1   1   42.10    2.76
 -12   1   1   37.47    2.65
  12   1  -1   39.24    2.73
  11  -1  -1   -0.11    0.23
 -11  -1   1    0.10    0.28
 -11  -1   1   -0.28    0.24
 -11   1   1    0.27    0.23
 -11   1   1    0.18    0.26
  11   1  -1    0.27    0.25
 -11   1   1    0.25    0.25
  11   1  -1   -0.40    0.26
  10  -1  -1   56.96    3.54
 -10  -1   1   57.74    3.53
 -10  -1   1   52.47    3.50
 -10   1   1   56.20    3.41
  10   1  -1   55.40    3.51
 -10   1   1   56.51    3.47
 -10   1   1   48.36    3.51
  10   1  -1   56.60    3.55
   9  -1  -1   -0.14    0.20
  -9  -1   1    0.04    0.20
   9  -1  -1   -0.23    0.20
  -9  -1   1   -0.32    0.17
   9   1  -1   -0.14    0.19
   9   1  -1   -0.38    0.16
   9   1  -1   -0.12    0.20
  -9   1   1   -0.09    0.16
  -9   1   1   -0.08    0.19
  -9   1   1   -0.23    0.21
   8  -1  -1   31.78    2.51
  -8  -1   1   33.34    2.17
   8  -1  -1   32.32    2.19
  -8  -1   1   30.43    2.17
   8  -1  -1   34.58    2.17
  -8   1   1   34.25    2.14
   8   1  -1   36.31    2.61
   8   1  -1   32.27    2.19
  -8   1   1   35.44    2.12
   8   1  -1   32.89    2.18
  -7  -1   1    0.17    0.18
  -7  -1   1   -0.15    0.15
   7  -1  -1    0.01    0.19
   7  -1  -1    0.13    0.18
   7  -1  -1   -0.08    0.16
   7   1  -1    0.04    0.20
  -7   1   1   -0.06    0.14
   7   1  -1   -0.02    0.16
   7   1  -1   -0.11    0.19
  -7   1   1    0.10    0.15
  -6  -1   1  325.81   17.65
   6  -1  -1  269.68   20.26
  -6  -1   1  279.07   17.54
   6   1  -1  288.44   20.31
   6   1  -1  307.74   17.66
  -6   1   1  285.66   17.63
  -6   1   1  305.87   17.52
   6   1  -1  282.78   17.54
   5  -1  -1    0.09    0.20
  -5   1   1   -0.05    0.15
   5   1  -1    0.05    0.19
  -5   1   1   -0.08    0.12
   5   1  -1    0.09    0.15
   4  -1  -1  142.40    9.76
  -4  -1   1  147.82    9.79
   4   1  -1  133.74    9.79
  -4   1   1  138.95    9.74
  -3  -1   1   -0.16    0.14
   3  -1  -1    0.04    0.13
  -3   1   1   -0.04    0.12
   3   1  -1   -0.04    0.15
   2  -1  -1    6.30    0.44
  -2  -1   1    5.55    0.50
  -2   1   1    5.20    0.44
   2   1  -1    4.48    0.48
  -1  -1   1   -0.32    0.11
   1  -1  -1   -0.53    0.04
   1   1  -1   -0.39    0.10
  -1   1   1   -0.38    0.06
   0  -1   1    0.49    0.09
   0   1  -1    0.31    0.09
  -1  -1  -1   -0.51    0.11
   1  -1   1   -0.30    0.07
  -1   1  -1   -0.43    0.09
   1   1   1   -0.53    0.12
  -2   1  -1   10.99    0.84
   2   1   1   11.39    0.88
  -3  -1  -1   -0.08    0.18
  -3   1  -1    0.03    0.15
   3   1   1    0.14    0.18
  -4  -1  -1   85.52    5.85
  -4   1  -1   74.95    5.81
   4   1   1   88.64    5.85
  -5   1  -1   -0.29    0.13
   5   1   1   -0.04    0.19
  -5   1  -1   -0.31    0.16
   5   1   1   -0.04    0.15
   6  -1   1   26.95    2.02
  -6  -1  -1   26.33    1.72
  -6  -1  -1   24.24    1.72
  -6   1  -1   26.04    1.73
   6   1   1   27.84    1.76
  -6   1  -1   25.67    1.70
   6   1   1   28.66    2.05
   6   1   1   28.33    1.75
  -7  -1  -1   -0.06    0.17
   7  -1   1    0.01    0.16
   7  -1   1    0.00    0.17
  -7  -1  -1    0.34    0.20
   7  -1   1    0.30    0.22
  -7   1  -1   -0.20    0.15
   7   1   1   -0.09    0.19
   7   1   1   -0.30    0.14
  -7   1  -1   -0.10    0.14
   7   1   1   -0.22    0.18
  -8  -1  -1   55.17    3.84
  -8  -1  -1   65.10    3.86
   8  -1   1   59.97    3.86
   8   1   1   66.28    3.90
   8   1   1   58.41    3.85
  -8   1  -1   69.10    3.82
  -8   1  -1   51.47    3.72
  -8   1  -1   64.60    3.88
   8   1   1   66.09    4.51
  -9  -1  -1   -0.04    0.21
  -9  -1  -1    0.23    0.23
   9  -1   1    0.10    0.21
   9   1   1    0.23    0.23
  -9   1  -1    0.10    0.21
   9   1   1   -0.01    0.21
  -9   1  -1   -0.11    0.16
  -9   1  -1   -0.23    0.18
   9   1   1   -0.34    0.21
  10  -1   1    2.70    0.47
 -10  -1  -1    2.42    0.42
 -10  -1  -1    2.64    0.42
  10   1   1    3.33    0.48
 -10   1  -1    2.67    0.43
 -10   1  -1    1.36    0.36
  10   1   1    3.46    0.50
 -10   1  -1    2.77    0.38
 -11  -1  -1   -0.16    0.22
  11  -1   1    0.03    0.30
 -11  -1  -1   -0.24    0.24
 -11   1  -1    0.06    0.21
  11   1   1    0.20    0.28
  11   1   1   -0.38    0.21
 -11   1  -1   -0.14    0.22
 -11   1  -1    0.05    0.24
  12  -1   1    3.14    0.58
 -12  -1  -1    4.26    0.59
 -12  -1  -1    4.18    0.60
  12   1   1    4.19    0.61
 -12   1  -1    4.18    0.60
 -12   1  -1    3.74    0.52
  12   1   1    3.81    0.57
 -12   1  -1    4.15    0.61
 -13  -1  -1   -0.11    0.30
  13  -1   1   -0.06    0.28
 -13   1  -1    0.34    0.35
  13   1   1   -0.32    0.29
 -13   1  -1   -0.08    0.24
  13   1   1   -0.35    0.29
  14  -1   1   -0.20    0.33
 -14  -1  -1    0.32    0.33
 -14   1  -1    0.71    0.40
 -14   1  -1    0.17    0.26
  14   1   1    0.93    0.40
 -14  -2   1    0.21    0.32
  14  -2  -1   -0.19    0.34
 -14   2   1   -0.01    0.29
  14   2  -1    0.35    0.33
  14   2  -1    0.32    0.34
 -14   2   1   -0.05    0.30
 -13  -2   1   64.93    4.67
  13  -2  -1   71.15    4.72
  13   2  -1   77.02    4.67
 -13   2   1   66.45    4.71
  13   2  -1   80.56    4.77
 -13   2   1   82.53    4.62
 -12  -2   1    0.08    0.30
  12  -2  -1    0.39    0.32
 -12   2   1   -0.16    0.28
 -12   2   1    0.08    0.27
  12   2  -1   -0.22    0.25
  12   2  -1    0.19    0.31
  11  -2  -1    3.38    0.54
 -11  -2   1    2.47    0.47
  11   2  -1    2.96    0.51
  11   2  -1    3.62    0.53
 -11   2   1    3.39    0.41
  11   2  -1    4.68    0.63
 -11   2   1    2.95    0.53
 -11   2   1    4.15    0.52
  10  -2  -1   -0.19    0.26
 -10  -2   1   -0.25    0.23
 -10   2   1   -0.44    0.20
  10   2  -1    0.08    0.23
  10   2  -1    0.03    0.24
 -10   2   1   -0.08    0.16
 -10   2   1   -0.08    0.19
  10   2  -1    0.28    0.26
   9  -2  -1  228.70   12.32
  -9  -2   1  176.88   12.25
   9   2  -1  210.77   12.26
  -9   2   1  188.59   12.34
  -9   2   1  204.58   12.17
   9   2  -1  206.56   12.37
   9   2  -1  215.26   11.99
  -9   2   1  194.34   11.94
  -8  -2   1    0.08    0.20
   8  -2  -1   -0.13    0.21
   8   2  -1    0.11    0.20
   8   2  -1    0.06    0.20
   8   2  -1   -0.08    0.18
  -8   2   1    0.03    0.17
  -8   2   1   -0.16    0.12
  -8   2   1    0.17    0.17
  -7  -2   1    4.01    0.43
  -7  -2   1    4.06    0.46
   7  -2  -1    3.85    0.49
  -7   2   1    3.08    0.41
   7   2  -1    4.33    0.61
   7   2  -1    4.17    0.46
  -7   2   1    3.77    0.34
  -7   2   1    3.58    0.40
   7   2  -1    3.26    0.43
   7   2  -1    4.83    0.45
   6  -2  -1   -0.08    0.17
   6   2  -1    0.06    0.18
   6   2  -1   -0.17    0.13
  -6   2   1   -0.04    0.14
   6   2  -1   -0.25    0.20
  -6   2   1   -0.12    0.14
   5  -2  -1   81.59    5.47
   5   2  -1   84.35    4.80
   5   2  -1   82.77    5.56
  -5   2   1   76.13    4.77
  -5   2   1   66.66    5.44
   4  -2  -1   -0.02    0.14
   4   2  -1   -0.03    0.19
   4   2  -1   -0.15    0.13
  -4   2   1   -0.08    0.10
   3  -2  -1   23.65    1.57
  -3  -2   1   19.96    1.64
  -2  -2   1   -0.08    0.14
   2   2  -1    0.06    0.15
  -1  -2   1  414.49   29.98
   1   2  -1  458.24   29.99
   0  -2  -1   -0.01    0.10
   0  -2   1    0.03    0.09
   0   2  -1   -0.07    0.10
   1  -2   1   93.67    6.35
  -1  -2  -1   96.50    6.40
   1   2   1   87.46    6.38
  -1   2  -1   90.86    6.35
  -2  -2  -1   -0.01    0.18
   2  -2   1    0.00    0.08
   2   2   1    0.07    0.16
  -2   2  -1   -0.01    0.09
  -3  -2  -1   10.66    0.96
   3   2   1   11.72    0.96
  -3   2  -1   12.16    0.87
  -4   2  -1   -0.07    0.10
   4   2   1   -0.01    0.18
  -4   2  -1   -0.07    0.14
   4   2   1   -0.04    0.14
  -5   2  -1  125.41    9.21
   5   2   1  139.43    7.97
  -5   2  -1  122.00    8.01
   5   2   1  145.61    9.30
  -5   2  -1  132.74    9.21
   5   2   1  130.94    8.05
   6   2   1   -0.11    0.16
  -6   2  -1   -0.09    0.17
  -6   2  -1   -0.04    0.14
  -6   2  -1    0.06    0.15
   6   2   1   -0.33    0.21
   6   2   1   -0.26    0.16
  -7  -2  -1   42.05    2.74
  -7  -2  -1   43.30    2.73
   7   2   1   43.05    3.23
  -7   2  -1   41.35    2.76
   7   2   1   41.48    2.69
  -7   2  -1   45.45    2.65
   7   2   1   43.91    2.78
   7   2   1   42.78    2.73
  -7   2  -1   46.38    2.67
  -8  -2  -1    0.12    0.21
  -8   2  -1   -0.18    0.15
  -8   2  -1    0.40    0.21
   8   2   1    0.18    0.23
   8   2   1   -0.17    0.20
   8   2   1   -0.14    0.20
  -8   2  -1   -0.17    0.12
  -9  -2  -1   60.49    3.68
   9   2   1   61.54    3.75
   9   2   1   54.01    3.60
  -9   2  -1   65.80    3.73
  -9   2  -1   55.89    3.57
  -9   2  -1   58.47    3.57
   9   2   1   52.36    3.64
  10  -2   1   -0.04    0.27
 -10  -2  -1    0.20    0.27
  10   2   1    0.06    0.28
 -10   2  -1   -0.04    0.21
 -10   2  -1    0.00    0.22
  10   2   1    0.03    0.26
  10   2   1    0.03    0.27
 -10   2  -1    0.26    0.18
 -11  -2  -1    7.91    0.82
  11  -2   1    8.86    0.88
  11   2   1    8.67    0.86
 -11   2  -1    7.80    0.71
 -11   2  -1    8.32    0.81
 -11   2  -1    9.68    0.85
  11   2   1    9.14    0.84
  12  -2   1   -0.28    0.33
 -12  -2  -1   -0.31    0.25
 -12   2  -1   -0.21    0.26
 -12   2  -1   -0.12    0.28
  12   2   1   -0.03    0.29
  12   2   1    0.18    0.29
  13  -2   1   54.90    3.59
 -13  -2  -1   55.82    3.54
  13   2   1   54.95    3.58
 -13   2  -1   54.01    3.57
  13   2   1   50.49    3.50
 -13   2  -1   54.07    3.48
 -14  -2  -1   -0.54    0.28
  14  -2   1    0.33    0.40
  14   2   1    0.19    0.38
  14   2   1    0.38    0.32
 -14   2  -1    0.62    0.37
 -14   2  -1   -0.18    0.29
 -14  -3   1    0.32    0.35
 -14   3   1   -0.09    0.30
  14   3  -1    0.62    0.40
  14   3  -1    0.75    0.34
 -14   3   1    0.28    0.32
 -13  -3   1    0.18    0.32
 -13   3   1   -0.26    0.28
  13   3  -1   -0.15    0.32
  13   3  -1   -0.49    0.28
 -13   3   1    0.01    0.28
 -12  -3   1   34.22    2.34
  12   3  -1   32.60    2.37
 -12   3   1   35.87    2.26
 -12   3   1   31.39    2.33
  12   3  -1   34.16    2.24
  12   3  -1   34.23    2.31
 -11  -3   1   -0.25    0.25
 -11   3   1   -0.06    0.25
  11   3  -1    0.12    0.28
 -11   3   1    0.07    0.26
  11   3  -1   -0.19    0.24
  11   3  -1   -0.34    0.24
 -10  -3   1   53.13    3.33
 -10   3   1   46.57    3.32
  10   3  -1   51.25    3.26
 -10   3   1   53.69    3.22
  10   3  -1   52.70    3.23
  10   3  -1   50.88    3.35
  -9  -3   1    0.01    0.23
   9   3  -1   -0.14    0.20
  -9   3   1    0.03    0.19
  -9   3   1   -0.07    0.20
   9   3  -1    0.25    0.24
   9   3  -1   -0.08    0.20
  -8  -3   1   25.75    1.68
   8   3  -1   25.36    1.69
   8   3  -1   27.54    1.68
  -8   3   1   22.49    1.65
   8   3  -1   23.51    1.59
  -8   3   1   24.11    1.60
   7   3  -1    0.05    0.15
   7   3  -1    0.20    0.32
   7   3  -1   -0.29    0.16
  -7   3   1    0.26    0.18
  -7   3   1   -0.05    0.15
   7   3  -1   -0.02    0.18
  -6   3   1  230.40   14.40
   6   3  -1  275.41   17.22
   6   3  -1  252.32   14.90
   6   3  -1  244.87   14.45
  -6   3   1  233.96   14.87
   5   3  -1   -0.26    0.16
  -5   3   1    0.04    0.11
   5   3  -1    0.03    0.15
   5   3  -1   -0.23    0.14
   4   3  -1  108.26    6.67
   4   3  -1  112.13    7.74
  -3  -3   1    0.07    0.16
   3   3  -1   -0.06    0.15
   3   3  -1    0.16    0.17
  -2  -3   1    4.52    0.47
   2   3  -1    4.57    0.47
  -1  -3   1   -0.32    0.12
   1   3  -1   -0.14    0.13
   0  -3   1    0.35    0.12
   0  -3  -1    0.47    0.12
   0   3  -1    0.42    0.13
   0   3   1    0.51    0.14
  -1  -3  -1   -0.09    0.12
   1  -3   1   -0.24    0.07
   1   3   1    0.10    0.14
  -1   3  -1   -0.20    0.09
   2  -3   1    5.93    0.48
  -2  -3  -1    7.02    0.60
   2   3   1    7.34    0.60
  -2   3  -1    5.92    0.48
  -3  -3  -1    0.00    0.16
  -3   3  -1    0.00    0.09
  -3   3  -1   -0.05    0.14
   3   3   1    0.05    0.17
  -3   3  -1    0.01    0.10
   4   3   1   54.74    4.21
   4   3   1   60.60    3.63
  -4   3  -1   60.00    4.11
  -4   3  -1   59.62    4.12
  -5   3  -1    0.01    0.12
  -5   3  -1   -0.28    0.11
   5   3   1   -0.36    0.17
   5   3   1   -0.20    0.13
   5   3   1   -0.11    0.15
  -5   3  -1    0.10    0.14
   6   3   1   22.72    1.49
  -6   3  -1   21.05    1.45
   6   3   1   22.90    1.53
   6   3   1   23.97    1.83
  -6   3  -1   25.09    1.50
  -6   3  -1   21.34    1.69
   7   3   1   -0.05    0.18
   7   3   1    0.09    0.19
  -7   3  -1    0.06    0.15
   7   3   1   -0.12    0.23
   7   3   1   -0.14    0.13
  -7   3  -1    0.21    0.18
  -8  -3  -1   47.16    2.97
   8   3   1   48.90    2.93
  -8   3  -1   42.20    2.86
  -8   3  -1   44.39    2.98
   8   3   1   45.59    2.90
   8   3   1   52.65    3.03
  -9  -3  -1   -0.05    0.21
   9   3   1    0.04    0.19
  -9   3  -1   -0.15    0.21
  -9   3  -1   -0.31    0.17
   9   3   1   -0.03    0.23
   9   3   1    0.09    0.24
 -10  -3  -1    3.01    0.47
 -10   3  -1    2.27    0.41
 -10   3  -1    1.82    0.40
  10   3   1    1.86    0.44
  10   3   1    2.70    0.40
  10   3   1    2.53    0.50
 -11  -3  -1    0.04    0.30
 -11   3  -1    0.00    0.27
  11   3   1    0.01    0.24
  11   3   1    0.21    0.30
  11   3   1   -0.09    0.29
 -11   3  -1    0.25    0.28
 -12  -3  -1    4.20    0.64
 -12   3  -1    3.56    0.56
 -12   3  -1    4.42    0.62
  12   3   1    3.11    0.58
  12   3   1    3.54    0.60
  12   3   1    4.94    0.58
 -13  -3  -1    0.11    0.31
  13   3   1   -0.29    0.26
  13   3   1    0.55    0.37
 -13   3  -1    0.40    0.33
 -13   3  -1    0.22    0.33
 -14  -3  -1    0.24    0.35
 -14   3  -1    0.18    0.34
  14   3   1    0.02    0.34
 -14   3  -1   -0.18    0.31
  14   3   1    0.50    0.32
 -13  -4   1    2.58    0.56
  13   4  -1    1.41    0.48
  13   4  -1    2.64    0.58
 -13   4   1    1.73    0.47
 -13   4   1    2.27    0.48
 -12   4   1   -0.16    0.29
 -12   4   1    0.49    0.30
  12   4  -1    0.37    0.36
  12   4  -1    0.34    0.34
 -11   4   1   42.67    2.91
  11   4  -1   43.62    2.93
 -11   4   1   42.06    2.78
  11   4  -1   45.76    2.87
  10   4  -1   -0.28    0.27
 -10   4   1    0.23    0.27
 -10   4   1   -0.48    0.18
  10   4  -1    0.06    0.26
  -9   4   1  122.76    7.36
  -9   4   1  129.10    7.60
   9   4  -1  125.11    7.63
   9   4  -1  117.16    7.41
   8   4  -1    0.07    0.24
   8   4  -1    0.02    0.21
  -8   4   1    0.04    0.18
  -8   4   1   -0.10    0.17
   7   4  -1  194.52   12.50
  -7   4   1  224.14   12.49
   7   4  -1  203.72   12.91
  -7   4   1  229.51   12.89
  -6   4   1   -0.07    0.13
  -6   4   1    0.08    0.15
   6   4  -1    0.32    0.20
   6   4  -1    0.46    0.27
  -6   4   1   -0.16    0.20
   6   4  -1   -0.14    0.16
   5   4  -1    0.29    0.18
  -5   4   1    0.60    0.15
  -5   4   1    0.63    0.16
   5   4  -1    0.46    0.17
   5   4  -1    0.77    0.31
   4   4  -1   -0.03    0.13
   4   4  -1   -0.05    0.12
  -4   4   1   -0.08    0.18
   4   4  -1    0.15    0.19
   4   4  -1    0.06    0.20
   3   4  -1  195.24   14.21
   3   4  -1  200.47   12.38
  -3   4   1  218.94   12.38
  -2  -4   1   -0.02    0.14
  -2   4   1   -0.20    0.14
   2   4  -1   -0.06    0.15
   2   4  -1    0.06    0.17
  -1  -4   1    0.98    0.19
   1   4  -1    0.21    0.17
  -1   4   1    0.29    0.18
   1   4  -1    0.54    0.18
   0  -4   1   -0.03    0.10
   0  -4  -1    0.07    0.09
   0   4  -1    0.07    0.13
   0   4   1    0.07    0.14
   0   4  -1   -0.04    0.13
  -1  -4  -1   36.59    2.75
   1  -4   1   41.07    2.72
   1   4   1   34.78    2.45
   1   4   1   42.77    2.76
  -1   4  -1   40.35    2.48
  -1   4  -1   36.71    2.72
  -2  -4  -1   -0.03    0.15
  -2   4  -1    0.07    0.15
   2   4   1   -0.16    0.13
   2   4   1   -0.13    0.14
  -3   4  -1  150.87    9.83
   3   4   1  169.60    9.84
   3   4   1  166.41   11.29
   4   4   1   -0.14    0.21
   4   4   1   -0.24    0.17
   4   4   1    0.36    0.16
  -4   4  -1    0.09    0.18
   4   4   1    0.15    0.16
  -5   4  -1    3.03    0.44
  -5   4  -1    2.93    0.30
   5   4   1    2.54    0.34
   5   4   1    2.32    0.44
   5   4   1    2.51    0.34
   6   4   1   -0.08    0.19
   6   4   1    0.12    0.19
  -6   4  -1   -0.08    0.14
   6   4   1    0.09    0.23
  -6   4  -1    0.07    0.16
   7   4   1    0.62    0.25
   7   4   1    0.84    0.27
  -7   4  -1    0.78    0.23
  -7   4  -1    0.70    0.23
   8   4   1    0.01    0.21
  -8   4  -1    0.10    0.21
   8   4   1    0.27    0.23
  -8   4  -1   -0.02    0.19
   9   4   1   23.81    1.70
  -9   4  -1   22.20    1.58
   9   4   1   22.59    1.65
  -9   4  -1   26.68    1.69
 -10   4  -1    0.00    0.21
  10   4   1   -0.20    0.28
 -10   4  -1    0.16    0.28
  10   4   1   -0.15    0.22
 -11   4  -1   27.14    2.15
  11   4   1   32.50    2.34
 -11   4  -1   37.32    2.31
  11   4   1   37.35    2.31
 -12  -4  -1   -0.12    0.37
 -12   4  -1    0.29    0.30
  12   4   1   -0.43    0.29
  12   4   1   -0.13    0.32
 -12   4  -1    0.13    0.29
 -13  -4  -1    0.42    0.39
 -13   4  -1    1.69    0.45
  13   4   1   -0.15    0.37
 -13   4  -1    0.89    0.38
  13   4   1    0.21    0.38
  12   5  -1   25.65    1.88
 -12   5   1   26.39    1.81
  12   5  -1   24.88    1.91
 -12   5   1   25.25    1.88
  11   5  -1   -0.17    0.28
 -11   5   1   -0.08    0.25
  11   5  -1   -0.35    0.29
 -11   5   1   -0.05    0.24
  10   5  -1   34.68    2.35
 -10   5   1   35.95    2.35
  10   5  -1   36.07    2.42
 -10   5   1   33.45    2.28
  -9   5   1    0.35    0.25
   9   5  -1    0.10    0.27
  -9   5   1   -0.24    0.21
   9   5  -1   -0.11    0.26
   8   5  -1   20.96    1.42
  -8   5   1   17.46    1.29
  -8   5   1   19.32    1.34
   8   5  -1   18.82    1.37
  -7   5   1   -0.17    0.16
   7   5  -1    0.06    0.23
  -7   5   1    0.17    0.27
   7   5  -1   -0.23    0.19
  -6   5   1  151.66    9.73
   6   5  -1  168.52    9.69
  -6   5   1  161.46    9.32
   6   5  -1  169.18    9.70
  -6   5   1  159.08    9.77
   6   5  -1  144.56    9.37
   5   5  -1   -0.58    0.29
  -5   5   1   -0.16    0.20
   5   5  -1   -0.15    0.15
  -5   5   1   -0.11    0.24
  -5   5   1    0.13    0.13
   5   5  -1    0.15    0.18
   5   5  -1    0.15    0.22
   4   5  -1   77.24    4.63
   4   5  -1   73.03    4.89
  -4   5   1   73.49    4.87
  -4   5   1   84.98    4.93
  -4   5   1   76.32    4.58
   4   5  -1   86.98    4.90
   4   5  -1   76.40    5.60
   3   5  -1   -0.06    0.24
   3   5  -1   -0.13    0.11
  -3   5   1   -0.35    0.17
  -3   5   1   -0.31    0.22
   3   5  -1   -0.18    0.17
   3   5  -1    0.13    0.23
  -2   5   1    2.91    0.47
   2   5  -1    3.84    0.47
   2   5  -1    3.34    0.47
  -2   5   1    3.80    0.49
  -1   5   1    0.22    0.22
  -1   5   1   -0.10    0.16
   1   5  -1   -0.13    0.18
   1   5  -1   -0.16    0.16
   0   5   1    0.39    0.27
   0   5   1    0.91    0.23
   0   5  -1    0.67    0.23
   0   5  -1    1.05    0.29
  -1   5  -1    0.48    0.25
   1   5   1    0.11    0.21
   1   5   1    0.18    0.18
  -1   5  -1    0.05    0.16
   2   5   1    3.09    0.47
   2   5   1    3.42    0.43
  -2   5  -1    4.13    0.50
  -2   5  -1    3.28    0.50
   2   5   1    3.56    0.30
  -3   5  -1    0.16    0.22
  -3   5  -1   -0.22    0.21
   3   5   1    0.20    0.21
   3   5   1   -0.08    0.19
   3   5   1   -0.21    0.14
   4   5   1   46.31    2.76
   4   5   1   41.44    2.64
  -4   5  -1   43.05    2.49
  -4   5  -1   44.45    2.75
  -4   5  -1   40.36    2.75
   4   5   1   36.54    2.69
   4   5   1   41.34    3.09
   4   5   1   42.30    2.55
   5   5   1    0.17    0.26
  -5   5  -1   -0.07    0.21
   5   5   1    0.03    0.20
   5   5   1    0.20    0.19
  -5   5  -1   -0.04    0.23
  -5   5  -1    0.01    0.13
   5   5   1   -0.14    0.17
   6   5   1   13.84    1.02
  -6   5  -1   15.74    1.14
   6   5   1   12.84    1.03
  -6   5  -1   13.52    1.11
  -6   5  -1   14.34    0.95
   7   5   1   -0.18    0.21
   7   5   1    0.05    0.20
  -7   5  -1    0.02    0.26
  -7   5  -1   -0.09    0.17
   8   5   1   35.38    2.51
   8   5   1   41.84    2.63
  -8   5  -1   42.51    2.55
  -8   5  -1   42.17    2.47
  -8   5  -1   33.49    2.66
   9   5   1    0.02    0.25
  -9   5  -1    0.24    0.24
  -9   5  -1    0.00    0.22
   9   5   1    0.06    0.28
  10   5   1    1.38    0.41
  10   5   1    1.55    0.43
 -10   5  -1    1.80    0.44
 -10   5  -1    1.56    0.34
 -11   5  -1    0.07    0.22
 -11   5  -1    0.24    0.27
  11   5   1   -0.23    0.33
  11   5   1   -0.34    0.28
 -12   5  -1    1.17    0.41
  12   5   1    3.11    0.61
 -12   5  -1    2.13    0.48
  12   5   1    1.63    0.49
 -11   6   1    0.65    0.30
  11   6  -1    0.69    0.36
 -11   6   1    0.41    0.30
 -11   6   1   -0.01    0.36
  11   6  -1    0.96    0.42
  10   6  -1    0.26    0.34
  10   6  -1   -0.21    0.25
 -10   6   1   -0.25    0.32
 -10   6   1   -0.12    0.27
 -10   6   1    0.35    0.27
   9   6  -1  107.46    6.74
  -9   6   1  101.42    7.02
  -9   6   1  117.98    6.68
   9   6  -1  117.67    6.95
   8   6  -1    0.08    0.26
  -8   6   1   -0.14    0.31
  -8   6   1    0.02    0.21
   8   6  -1    0.25    0.27
   7   6  -1    8.10    0.72
  -7   6   1    7.38    0.84
  -7   6   1    5.96    0.79
   7   6  -1    8.30    0.74
  -7   6   1    7.43    0.64
   6   6  -1    0.12    0.30
   6   6  -1   -0.09    0.23
  -6   6   1   -0.21    0.26
  -6   6   1   -0.04    0.15
   6   6  -1    0.14    0.22
  -6   6   1    0.26    0.31
   5   6  -1   26.11    1.91
  -5   6   1   25.96    1.97
  -5   6   1   31.12    1.97
  -5   6   1   28.16    1.69
   5   6  -1   23.94    1.95
   5   6  -1   28.20    1.76
  -4   6   1    0.15    0.11
  -4   6   1   -0.21    0.23
  -4   6   1    0.07    0.28
   4   6  -1    0.01    0.26
   4   6  -1    0.29    0.17
   4   6  -1    0.32    0.27
   3   6  -1   19.27    1.36
  -3   6   1   17.94    1.41
   3   6  -1   18.82    1.14
   3   6  -1   14.64    1.33
  -3   6   1   17.32    1.35
  -2   6   1   -0.08    0.21
   2   6  -1    0.08    0.11
  -2   6   1    0.32    0.27
   2   6  -1    0.13    0.24
   2   6  -1   -0.15    0.25
   1   6  -1  140.20    8.22
  -1   6   1  124.02    8.16
  -1   6   1  132.75    8.23
   1   6  -1  136.28    8.19
   0   6   1   -0.08    0.25
   0   6  -1   -0.38    0.17
   0   6  -1    0.30    0.27
   0   6   1    0.01    0.20
   1   6   1   32.14    2.15
   1   6   1   32.37    2.21
  -1   6  -1   33.23    2.16
  -1   6  -1   30.01    2.18
   2   6   1   -0.17    0.12
  -2   6  -1   -0.21    0.17
   2   6   1   -0.26    0.19
   2   6   1    0.38    0.29
  -2   6  -1    0.10    0.26
   3   6   1    1.13    0.34
   3   6   1    2.07    0.41
  -3   6  -1    1.43    0.38
   3   6   1    1.17    0.23
  -3   6  -1    1.29    0.37
   4   6   1   -0.19    0.22
   4   6   1   -0.24    0.23
  -4   6  -1    0.46    0.31
  -4   6  -1   -0.35    0.20
   4   6   1   -0.15    0.16
  -5   6  -1   51.65    3.09
   5   6   1   53.16    3.18
  -5   6  -1   45.98    3.37
   5   6   1   49.65    3.39
   5   6   1   54.26    3.37
  -5   6  -1   55.37    3.40
  -6   6  -1   -0.13    0.24
   6   6   1    0.08    0.22
   6   6   1    0.12    0.25
  -6   6  -1    0.07    0.16
  -6   6  -1    0.01    0.26
  -7   6  -1   15.59    1.34
  -7   6  -1   17.88    1.20
   7   6   1   18.48    1.31
  -7   6  -1   16.68    1.39
   7   6   1   18.35    1.28
   8   6   1   -0.26    0.26
  -8   6  -1   -0.02    0.32
  -8   6  -1    0.18    0.20
   8   6   1   -0.29    0.23
   9   6   1   25.76    1.82
   9   6   1   26.71    1.78
  -9   6  -1   23.25    1.66
  -9   6  -1   24.79    1.90
  10   6   1    0.04    0.30
 -10   6  -1    0.05    0.36
  10   6   1   -0.24    0.31
 -10   6  -1    0.03    0.25
 -10   6  -1    0.23    0.32
 -11   6  -1    5.00    0.67
  11   6   1    6.23    0.81
 -11   6  -1    4.04    0.77
  11   6   1    6.21    0.77
 -11   6  -1    5.07    0.64
  -9   7   1    0.10    0.39
   9   7  -1    0.01    0.29
  -9   7   1    0.13    0.23
   9   7  -1   -0.12    0.27
   8   7  -1   12.36    1.02
   8   7  -1   10.89    0.98
  -8   7   1   11.20    0.88
  -8   7   1   10.95    1.11
  -7   7   1    0.58    0.38
  -7   7   1   -0.36    0.27
  -7   7   1   -0.10    0.20
   7   7  -1   -0.27    0.22
   6   7  -1  109.35    6.57
   6   7  -1  102.30    6.24
  -6   7   1  109.06    6.18
  -6   7   1  100.76    6.61
  -6   7   1   99.43    6.61
  -5   7   1    0.31    0.33
   5   7  -1    0.02    0.29
  -5   7   1   -0.12    0.30
   5   7  -1    0.03    0.22
  -5   7   1   -0.14    0.16
   5   7  -1   -0.18    0.30
   4   7  -1   44.01    2.68
   4   7  -1   47.89    2.96
  -4   7   1   38.54    2.96
  -4   7   1   43.80    2.97
   4   7  -1   43.42    2.95
   3   7  -1   -0.46    0.21
  -3   7   1   -0.03    0.26
   3   7  -1   -0.08    0.16
  -3   7   1    0.03    0.31
   3   7  -1    0.31    0.30
  -2   7   1    3.17    0.52
   2   7  -1    2.08    0.46
   2   7  -1    2.55    0.53
  -2   7   1    2.29    0.52
   1   7  -1   -0.02    0.28
   1   7  -1   -0.05    0.24
  -1   7   1    0.07    0.22
  -1   7   1    0.00    0.28
   0   7   1    0.57    0.36
   0   7  -1    0.71    0.31
   0   7  -1    0.53    0.33
   0   7   1    0.87    0.31
   1   7   1    0.32    0.31
  -1   7  -1   -0.02    0.30
  -1   7  -1   -0.03    0.24
   1   7   1   -0.01    0.26
   2   7   1    1.01    0.38
  -2   7  -1    1.31    0.42
  -2   7  -1    2.07    0.44
   2   7   1    1.08    0.35
  -3   7  -1    0.20    0.27
  -3   7  -1    0.02    0.32
   3   7   1    0.14    0.29
   3   7   1    0.19    0.28
   3   7   1    0.07    0.18
  -4   7  -1   26.22    1.83
  -4   7  -1   21.74    1.78
   4   7   1   22.60    1.77
   4   7   1   25.22    1.79
   4   7   1   24.01    1.56
   5   7   1    0.48    0.34
   5   7   1   -0.34    0.31
   5   7   1    0.21    0.22
  -5   7  -1   -0.08    0.31
  -5   7  -1   -0.07    0.28
  -6   7  -1   11.68    1.09
   6   7   1   11.08    0.89
  -6   7  -1    9.81    0.80
  -6   7  -1   12.95    1.11
  -7   7  -1    0.01    0.20
   7   7   1    0.19    0.25
  -7   7  -1    0.32    0.35
  -7   7  -1    0.17    0.36
  -8   7  -1   23.67    1.85
   8   7   1   23.18    1.64
  -8   7  -1   23.35    1.55
   8   7   1   22.76    1.71
  -9   7  -1    0.14    0.37
   9   7   1   -0.30    0.28
   9   7   1   -0.44    0.26
  -9   7  -1    0.14    0.24
  -7   8   1   77.94    4.93
   7   8  -1   74.95    4.61
  -7   8   1   74.80    4.51
  -7   8   1   71.91    4.93
   6   8  -1   -0.15    0.25
  -6   8   1   -0.04    0.34
  -6   8   1    0.27    0.39
   6   8  -1    0.19    0.36
   5   8  -1    0.47    0.40
  -5   8   1    0.17    0.36
   5   8  -1    0.16    0.24
   5   8  -1    0.74    0.41
  -5   8   1   -0.25    0.37
   4   8  -1   -0.29    0.28
  -4   8   1   -0.21    0.28
   4   8  -1   -0.23    0.23
  -4   8   1   -0.48    0.32
   4   8  -1    0.23    0.35
  -3   8   1   60.32    4.02
  -3   8   1   58.27    4.06
   3   8  -1   64.58    4.05
   3   8  -1   61.09    4.03
  -2   8   1   -0.46    0.31
  -2   8   1   -0.02    0.27
   2   8  -1   -0.25    0.29
   2   8  -1    0.11    0.32
   1   8  -1    1.30    0.48
  -1   8   1    1.87    0.46
   1   8  -1    0.71    0.38
  -1   8   1    0.93    0.44
   0   8   1   -0.10    0.26
   0   8  -1   -0.16    0.26
   0   8   1    0.02    0.31
   0   8  -1    0.21    0.37
   1   8   1   15.82    1.35
   1   8   1   15.53    1.30
  -1   8  -1   14.57    1.37
  -1   8  -1   16.88    1.35
  -2   8  -1    0.53    0.37
   2   8   1   -0.01    0.33
   2   8   1    0.09    0.28
  -2   8  -1   -0.33    0.34
   3   8   1   32.52    2.38
  -3   8  -1   33.14    2.43
  -3   8  -1   37.19    2.41
   3   8   1   31.53    2.36
   3   8   1   32.95    2.09
  -4   8  -1    0.18    0.37
   4   8   1    0.17    0.31
   4   8   1    0.04    0.33
  -4   8  -1   -0.22    0.28
   4   8   1    0.20    0.21
   5   8   1    1.24    0.47
   5   8   1    0.85    0.29
   5   8   1    0.20    0.38
  -5   8  -1    1.12    0.43
  -5   8  -1    0.85    0.44
  -6   8  -1    0.43    0.40
  -6   8  -1    0.23    0.39
   6   8   1    0.02    0.24
  -7   8  -1    1.84    0.31
  -7   8  -1    1.49    0.52
  -7   8  -1    0.67    0.45
   7   8   1    0.66    0.32
   2   9  -1    1.32    0.48
  -2   9   1    0.90    0.49
   2   9  -1    1.32    0.51
  -2   9   1    1.34    0.47
   1   9  -1   -0.12    0.34
   1   9  -1    0.20    0.34
  -1   9   1    0.15    0.32
  -1   9   1   -0.48    0.37
   0   9   1    0.12    0.32
   0   9   1    0.39    0.38
   0   9  -1    0.90    0.43
   0   9  -1    0.27    0.38
   1   9   1   -0.44    0.35
  -1   9  -1    0.03    0.33
  -1   9  -1    0.13    0.40
   1   9   1    0.02    0.31
   2   9   1    0.26    0.42
  -2   9  -1    0.93    0.53
   2   9   1    0.55    0.39
  -2   9  -1    0.75    0.41
 -14   0   2  130.91    8.32
  14   0  -2  129.76    8.28
 -14   0   2  139.44    8.23
 -13   0   2    0.31    0.34
 -13   0   2   -0.02    0.27
  13   0  -2    0.04    0.33
 -12   0   2   60.64    3.93
  12   0  -2   60.53    3.95
 -12   0   2   63.39    3.99
 -11   0   2   -0.08    0.25
  11   0  -2    0.11    0.27
  11   0  -2   -0.12    0.26
 -11   0   2    0.07    0.24
  10   0  -2  122.63    7.14
 -10   0   2  115.16    7.09
  10   0  -2  109.98    7.15
  -9   0   2   -0.15    0.19
  -9   0   2   -0.06    0.20
  -9   0   2    0.33    0.20
   9   0  -2   -0.19    0.20
   9   0  -2    0.27    0.28
   9   0  -2    0.00    0.22
   8   0  -2   93.43    7.07
  -8   0   2   95.44    6.13
  -8   0   2   91.54    6.06
   8   0  -2  103.89    6.10
   8   0  -2  113.44    6.15
  -7   0   2   -0.08    0.13
   7   0  -2    0.04    0.16
   7   0  -2    0.00    0.17
   7   0  -2   -0.14    0.18
  -7   0   2    0.05    0.17
   6   0  -2   22.00    1.43
  -6   0   2   21.48    1.42
   6   0  -2   22.41    1.43
  -6   0   2   19.22    1.40
   6   0  -2   22.49    1.68
   5   0  -2    0.05    0.18
  -5   0   2    0.23    0.14
  -5   0   2   -0.07    0.16
  -4   0   2   79.84    5.23
   4   0  -2   69.16    5.23
   3   0  -2   -0.06    0.12
  -3   0   2    0.03    0.14
   2   0  -2    2.29    0.27
  -2   0   2    2.39    0.29
   1   0  -2   -0.06    0.05
  -1   0   2   -0.02    0.09
   0   0   2   -0.35    0.14
  -1   0  -2    0.04    0.08
   1   0   2    0.00    0.09
  -2   0  -2    4.83    0.46
  -3   0  -2   -0.08    0.16
  -4   0  -2    0.65    0.21
  -5   0  -2    0.03    0.14
   6   0   2   61.17    3.45
  -6   0  -2   52.29    3.45
   6   0   2   52.34    3.45
  -6   0  -2   56.33    3.43
  -7   0  -2    0.05    0.15
   7   0   2   -0.23    0.16
  -7   0  -2   -0.12    0.17
   7   0   2    0.23    0.22
  -8   0  -2   13.54    0.99
   8   0   2   13.38    1.01
   8   0   2   13.36    1.01
  -8   0  -2   13.12    1.00
   9   0   2   -0.01    0.23
  -9   0  -2    0.36    0.25
  -9   0  -2   -0.05    0.19
   9   0   2   -0.35    0.18
  -9   0  -2    0.09    0.20
 -10   0  -2   92.65    5.66
  10   0   2   96.46    5.67
 -10   0  -2   90.58    5.49
 -10   0  -2   91.27    5.60
  10   0   2   82.50    5.61
 -11   0  -2   -0.10    0.27
  11   0   2    0.01    0.28
 -11   0  -2    0.23    0.25
 -12   0  -2  100.02    6.51
  12   0   2  111.88    6.58
 -12   0  -2  104.74    6.59
  13   0   2    0.19    0.30
 -13   0  -2   -0.04    0.25
 -13   0  -2   -0.19    0.30
 -14   0  -2  123.97    8.10
  14   0   2  133.88    8.06
 -14   0  -2  131.93    7.98
 -14  -1   2    0.40    0.29
  14  -1  -2   -0.03    0.33
 -14   1   2    0.13    0.33
 -14   1   2    0.03    0.25
  14   1  -2   -0.09    0.31
 -13  -1   2   42.34    2.86
  13  -1  -2   40.90    2.91
 -13   1   2   44.53    2.82
  13   1  -2   43.71    2.93
  13   1  -2   42.83    2.90
 -13   1   2   44.95    2.93
  12  -1  -2    0.17    0.30
 -12  -1   2   -0.15    0.28
 -12  -1   2    0.19    0.25
  12   1  -2   -0.43    0.26
 -12   1   2   -0.11    0.23
 -12   1   2   -0.29    0.24
  12   1  -2    0.28    0.28
 -12   1   2   -0.13    0.26
  11  -1  -2   26.33    1.78
 -11  -1   2   28.20    1.79
 -11  -1   2   24.13    1.73
  11   1  -2   24.86    1.78
 -11   1   2   22.72    1.76
 -11   1   2   24.25    1.70
 -11   1   2   25.41    1.69
  11   1  -2   22.39    1.77
 -10  -1   2    0.35    0.24
 -10  -1   2    0.22    0.22
  10  -1  -2    0.05    0.26
 -10   1   2   -0.14    0.20
  10   1  -2    0.22    0.26
  10   1  -2   -0.10    0.20
 -10   1   2    0.16    0.21
 -10   1   2    0.05    0.24
  -9  -1   2    2.10    0.36
   9  -1  -2    1.34    0.33
  -9  -1   2    1.94    0.36
   9  -1  -2    2.05    0.45
  -9   1   2    2.21    0.35
   9   1  -2    1.93    0.36
   9   1  -2    2.26    0.41
  -9   1   2    2.16    0.42
   9   1  -2    1.92    0.38
  -9   1   2    1.76    0.31
  -8  -1   2    0.04    0.19
   8  -1  -2    0.11    0.20
   8  -1  -2   -0.03    0.22
   8  -1  -2   -0.07    0.17
  -8  -1   2    0.01    0.17
   8   1  -2    0.02    0.19
  -8   1   2   -0.08    0.16
  -8   1   2    0.14    0.18
  -8   1   2    0.07    0.17
   8   1  -2   -0.13    0.21
   8   1  -2    0.02    0.18
   7  -1  -2   38.06    2.91
   7  -1  -2   34.74    2.49
   7  -1  -2   41.47    2.53
  -7  -1   2   46.17    2.53
  -7  -1   2   39.17    2.51
   7   1  -2   36.91    2.93
  -7   1   2   42.60    2.52
   7   1  -2   36.11    2.50
  -7   1   2   42.96    2.45
   7   1  -2   39.55    2.52
  -7   1   2   36.13    2.46
   6  -1  -2   -0.18    0.17
  -6  -1   2   -0.43    0.13
  -6  -1   2   -0.21    0.15
   6   1  -2   -0.16    0.16
  -6   1   2   -0.10    0.13
  -6   1   2    0.06    0.14
   6   1  -2    0.24    0.22
   6   1  -2   -0.09    0.17
   5  -1  -2   97.16    7.07
  -5   1   2   99.33    6.15
  -5   1   2  104.69    7.06
   5   1  -2  107.36    7.11
   5   1  -2   97.03    6.16
   4  -1  -2   -0.11    0.12
  -4  -1   2   -0.19    0.16
   4   1  -2   -0.12    0.16
  -4   1   2   -0.05    0.13
   3  -1  -2    1.15    0.24
  -3  -1   2    1.20    0.28
   3   1  -2    2.48    0.34
  -3   1   2    1.84    0.29
  -2  -1   2   -0.03    0.12
   2  -1  -2    0.06    0.09
  -2   1   2    0.02    0.10
   2   1  -2    0.06    0.13
   1  -1  -2   60.61    4.34
  -1  -1   2   62.69    4.37
  -1   1   2   63.40    4.34
   1   1  -2   63.94    4.37
   0  -1  -2   -0.23    0.06
   0  -1   2   -0.26    0.10
   0   1   2   -0.07    0.10
   0   1  -2    0.04    0.11
   1  -1   2   14.91    1.17
  -1  -1  -2   16.10    1.18
  -1   1  -2   17.75    1.18
  -2  -1  -2    0.03    0.15
   2  -1   2    0.09    0.11
  -2   1  -2    0.12    0.11
  -3  -1  -2   26.01    1.83
  -3   1  -2   23.52    1.79
  -4  -1  -2    0.05    0.19
   4   1   2   -0.11    0.17
  -4   1  -2   -0.03    0.13
  -4   1  -2   -0.07    0.16
   5   1   2   18.13    1.28
   5   1   2   17.60    1.50
  -5   1  -2   20.42    1.27
  -5   1  -2   20.47    1.48
   5   1   2   17.68    1.30
  -6  -1  -2   -0.25    0.14
  -6  -1  -2   -0.19    0.12
  -6   1  -2   -0.06    0.13
  -6   1  -2   -0.15    0.13
   6   1   2    0.05    0.21
   6   1   2   -0.02    0.14
   6   1   2    0.12    0.18
   7  -1   2   83.82    5.28
  -7  -1  -2   88.81    5.28
   7  -1   2   86.10    5.27
  -7  -1  -2   87.21    5.30
   7   1   2   81.72    5.27
  -7   1  -2   83.90    5.24
  -7   1  -2   83.55    5.14
   7   1   2   87.36    5.33
  -7   1  -2   88.51    5.31
   7   1   2   89.80    6.17
  -8  -1  -2   -0.03    0.19
   8  -1   2   -0.17    0.18
  -8  -1  -2   -0.18    0.18
   8   1   2    0.24    0.22
  -8   1  -2    0.44    0.23
  -8   1  -2   -0.12    0.17
   8   1   2   -0.18    0.18
   8   1   2   -0.03    0.20
  -8   1  -2   -0.16    0.17
  -9  -1  -2   12.53    0.99
  -9  -1  -2   13.16    0.99
   9  -1   2   13.15    1.04
  -9   1  -2   11.38    0.98
  -9   1  -2   12.33    0.94
   9   1   2   13.76    1.04
  -9   1  -2   14.23    1.01
   9   1   2   13.02    1.02
   9   1   2   11.15    0.99
 -10  -1  -2    0.15    0.22
 -10  -1  -2    0.01    0.23
  10  -1   2   -0.13    0.25
  10   1   2   -0.15    0.25
 -10   1  -2   -0.15    0.21
 -10   1  -2   -0.06    0.23
  10   1   2    0.06    0.23
 -10   1  -2   -0.06    0.18
 -11  -1  -2   80.55    4.55
  11  -1   2   66.56    4.52
 -11  -1  -2   66.32    4.52
  11   1   2   69.62    4.52
 -11   1  -2   75.81    4.45
  11   1   2   73.62    4.57
 -11   1  -2   71.21    4.56
 -11   1  -2   69.40    4.41
 -12  -1  -2    0.17    0.30
 -12  -1  -2   -0.27    0.26
  12  -1   2   -0.03    0.33
 -12   1  -2   -0.15    0.27
 -12   1  -2   -0.02    0.28
  12   1   2   -0.13    0.28
 -12   1  -2    0.09    0.25
  12   1   2   -0.02    0.26
  13  -1   2   39.20    2.81
 -13  -1  -2   37.16    2.74
  13   1   2   40.86    2.76
 -13   1  -2   44.64    2.83
 -13   1  -2   39.80    2.69
  13   1   2   47.70    2.97
 -14  -1  -2   -0.19    0.26
  14  -1   2   -0.05    0.29
  14   1   2   -0.06    0.31
 -14   1  -2    0.15    0.26
 -14   1  -2   -0.46    0.29
  14  -2  -2    9.34    1.12
 -14  -2   2   11.07    1.03
 -14   2   2   11.10    1.05
  14   2  -2   12.08    1.12
  14   2  -2   12.06    1.03
 -14   2   2   10.44    1.05
 -13  -2   2   -0.02    0.28
  13  -2  -2   -0.63    0.27
 -13   2   2   -0.08    0.31
  13   2  -2   -0.05    0.32
 -13   2   2   -0.21    0.30
  13   2  -2   -0.46    0.27
  12  -2  -2   -0.08    0.31
 -12  -2   2    0.83    0.36
 -12   2   2   -0.09    0.27
  12   2  -2   -0.17    0.34
  12   2  -2    0.43    0.32
 -12   2   2    0.48    0.31
  11  -2  -2    0.30    0.28
 -11  -2   2    0.04    0.27
 -11   2   2    0.08    0.27
  11   2  -2   -0.02    0.25
 -11   2   2    0.22    0.23
  11   2  -2   -0.33    0.22
 -11   2   2    0.07    0.20
  11   2  -2   -0.13    0.28
 -10  -2   2   23.51    1.61
 -10   2   2   20.92    1.60
  10   2  -2   23.69    1.60
 -10   2   2   22.95    1.56
  10   2  -2   23.27    1.64
 -10   2   2   21.17    1.47
  10   2  -2   22.11    1.57
  -9  -2   2    0.11    0.24
   9  -2  -2   -0.21    0.24
   9   2  -2   -0.28    0.19
  -9   2   2   -0.15    0.20
   9   2  -2   -0.04    0.21
   9   2  -2    0.19    0.23
  -9   2   2    0.15    0.16
  -9   2   2    0.25    0.23
  -8  -2   2   29.22    1.82
   8  -2  -2   27.73    2.07
   8  -2  -2   30.32    1.86
  -8   2   2   24.20    1.77
  -8   2   2   27.12    1.70
   8   2  -2   27.44    1.77
   8   2  -2   28.38    1.77
   8   2  -2   24.14    1.79
  -8   2   2   23.42    1.71
  -7  -2   2   -0.31    0.14
  -7  -2   2    0.03    0.18
   7  -2  -2   -0.02    0.18
   7   2  -2   -0.07    0.15
  -7   2   2   -0.05    0.11
   7   2  -2    0.18    0.17
   7   2  -2    0.14    0.21
  -7   2   2    0.17    0.18
  -7   2   2    0.12    0.16
   7   2  -2   -0.12    0.18
   6   2  -2    0.88    0.31
   6   2  -2    0.33    0.16
  -6   2   2    0.47    0.17
  -6   2   2    0.46    0.18
   6   2  -2    0.60    0.21
  -6   2   2    0.34    0.17
   5  -2  -2    0.08    0.17
   5   2  -2    0.27    0.15
  -5   2   2    0.16    0.13
   5   2  -2   -0.11    0.11
   5   2  -2   -0.07    0.18
  -5   2   2   -0.08    0.12
   4  -2  -2   70.74    4.81
   4   2  -2   62.48    4.87
  -4   2   2   71.48    4.79
   4   2  -2   69.97    4.21
   3  -2  -2   -0.04    0.10
  -3  -2   2   -0.07    0.15
   3   2  -2   -0.01    0.15
  -3   2   2   -0.04    0.09
  -2  -2   2  398.60   26.46
   2  -2  -2  382.03   26.39
  -2   2   2  395.10   26.39
   2   2  -2  361.73   26.46
   1  -2  -2   -0.03    0.07
  -1  -2   2    0.09    0.13
  -1   2   2    0.14    0.08
   1   2  -2    0.03    0.13
   0  -2  -2   28.05    2.03
   0  -2   2   28.28    2.05
   0  -2  -2   26.98    2.03
   0   2  -2   28.22    2.04
   1  -2   2    0.09    0.11
  -1  -2  -2   -0.05    0.13
  -1   2  -2   -0.10    0.10
  -2  -2  -2  356.16   26.01
   2  -2   2  414.03   25.96
  -2   2  -2  361.82   25.96
  -3  -2  -2   -0.01    0.20
  -3   2  -2   -0.05    0.10
   3   2   2    0.03    0.18
  -4   2  -2   87.23    6.71
  -4   2  -2  101.09    6.73
   4   2   2  104.89    5.89
   4   2   2   93.30    6.79
   5   2   2    0.04    0.16
  -5   2  -2   -0.05    0.15
  -5   2  -2   -0.07    0.13
  -5   2  -2    0.06    0.14
   5   2   2   -0.29    0.13
   5   2   2    0.12    0.21
   6   2   2   17.56    1.11
  -6   2  -2   15.49    1.26
   6   2   2   16.18    1.15
  -6   2  -2   15.18    1.11
  -6   2  -2   16.57    1.07
   6   2   2   15.35    1.35
  -7  -2  -2   -0.16    0.15
  -7  -2  -2    0.07    0.16
   7   2   2    0.21    0.23
  -7   2  -2   -0.14    0.18
   7   2   2    0.02    0.17
  -7   2  -2   -0.01    0.11
   7   2   2   -0.02    0.18
   7   2   2    0.06    0.19
  -7   2  -2   -0.15    0.12
  -7   2  -2    0.31    0.20
  -8  -2  -2  127.63    7.60
  -8   2  -2  117.40    8.78
  -8   2  -2  131.76    7.41
  -8   2  -2  125.96    7.65
   8   2   2  127.46    7.45
   8   2   2  123.47    7.58
   8   2   2  129.00    7.68
  -8   2  -2  117.35    7.50
  -9  -2  -2    0.28    0.24
   9   2   2    0.06    0.25
  -9   2  -2    0.15    0.15
   9   2   2    0.34    0.23
   9   2   2   -0.05    0.22
  -9   2  -2    0.16    0.21
  -9   2  -2    0.09    0.22
 -10  -2  -2   72.40    4.26
  10  -2   2   64.58    4.28
 -10   2  -2   60.73    4.25
 -10   2  -2   67.77    4.16
 -10   2  -2   71.20    4.13
  10   2   2   64.78    4.22
  10   2   2   62.50    4.28
  10   2   2   74.73    4.20
  11  -2   2    0.34    0.32
 -11  -2  -2    0.01    0.26
  11   2   2   -0.14    0.25
 -11   2  -2    0.19    0.26
  11   2   2   -0.14    0.26
 -11   2  -2   -0.09    0.27
 -12  -2  -2    1.18    0.37
  12  -2   2    0.74    0.41
 -12   2  -2    0.54    0.33
  12   2   2    3.35    0.55
 -12   2  -2    0.91    0.36
  12   2   2    0.74    0.35
 -13  -2  -2   -0.44    0.27
  13  -2   2   -0.73    0.32
  13   2   2    0.19    0.34
 -13   2  -2   -0.20    0.30
  13   2   2   -0.38    0.28
 -13   2  -2   -0.15    0.33
 -14  -2  -2   21.83    1.70
  14  -2   2   20.25    1.75
  14   2   2   21.16    1.73
  14   2   2   24.34    1.72
 -14   2  -2   23.72    1.73
 -14   2  -2   23.32    1.75
 -14  -3   2    0.06    0.34
 -14   3   2   -0.36    0.30
 -14   3   2    0.51    0.32
  14   3  -2   -0.33    0.36
 -13  -3   2   40.12    2.84
  13   3  -2   41.82    2.89
  13   3  -2   41.68    2.74
 -13   3   2   43.31    2.75
 -12  -3   2   -0.18    0.27
 -12   3   2   -0.07    0.25
  12   3  -2    0.61    0.34
  12   3  -2    0.05    0.33
  12   3  -2   -0.54    0.25
 -12   3   2   -0.07    0.25
 -11  -3   2   18.76    1.38
 -11   3   2   15.11    1.34
  11   3  -2   17.82    1.40
  11   3  -2   19.38    1.38
 -11   3   2   17.35    1.31
  11   3  -2   17.89    1.30
 -10  -3   2   -0.12    0.23
  10   3  -2    0.13    0.22
  10   3  -2    0.06    0.25
 -10   3   2   -0.06    0.22
  10   3  -2   -0.01    0.26
 -10   3   2   -0.05    0.21
  -9  -3   2    1.71    0.37
  -9   3   2    1.53    0.33
   9   3  -2    1.63    0.34
  -9   3   2    1.56    0.32
   9   3  -2    1.35    0.35
   9   3  -2    1.42    0.30
  -8  -3   2   -0.13    0.21
  -8   3   2    0.03    0.19
   8   3  -2    0.02    0.19
  -8   3   2    0.01    0.18
   8   3  -2   -0.02    0.20
   8   3  -2   -0.01    0.16
   7   3  -2   32.03    1.98
   7   3  -2   30.89    1.86
  -7   3   2   32.48    1.90
  -7   3   2   30.56    1.95
   7   3  -2   26.36    2.32
   7   3  -2   26.07    1.91
   6   3  -2    0.10    0.17
   6   3  -2   -0.13    0.14
   6   3  -2   -0.16    0.19
  -6   3   2   -0.08    0.12
  -6   3   2   -0.26    0.13
  -5   3   2   69.20    4.39
   5   3  -2   73.99    4.28
   5   3  -2   75.23    4.42
   5   3  -2   67.31    5.15
  -5   3   2   73.16    4.26
   4   3  -2    0.13    0.13
   4   3  -2   -0.08    0.16
   3   3  -2    1.00    0.27
   3   3  -2    1.04    0.26
  -2  -3   2   -0.01    0.15
   2   3  -2    0.03    0.14
   2   3  -2    0.15    0.16
  -1  -3   2   43.34    2.93
   1   3  -2   39.00    2.93
   0  -3   2   -0.05    0.12
   0  -3  -2   -0.16    0.09
   0  -3  -2    0.02    0.12
   0   3  -2   -0.02    0.12
  -1  -3  -2   13.55    1.01
   1  -3   2   12.74    0.96
  -1   3  -2   12.65    0.96
   2  -3   2   -0.10    0.09
  -2  -3  -2   -0.14    0.15
   2   3   2    0.08    0.16
  -2   3  -2    0.04    0.14
  -2   3  -2   -0.13    0.09
  -3  -3  -2   19.19    1.50
   3   3   2   18.38    1.47
  -3   3  -2   20.17    1.39
  -3   3  -2   18.31    1.27
   4   3   2    0.20    0.20
  -4   3  -2    0.01    0.12
  -4   3  -2    0.04    0.12
   4   3   2   -0.14    0.14
  -4   3  -2    0.19    0.17
  -5   3  -2   14.88    1.09
  -5   3  -2   13.78    1.09
   5   3   2   12.98    0.99
   5   3   2   13.17    0.96
   5   3   2   13.56    1.19
  -5   3  -2   15.08    0.93
  -5   3  -2   13.86    0.94
   6   3   2    0.04    0.18
   6   3   2    0.16    0.25
  -6   3  -2   -0.26    0.12
   6   3   2    0.23    0.17
  -6   3  -2    0.08    0.18
  -6   3  -2   -0.26    0.14
   6   3   2    0.01    0.12
  -7  -3  -2   70.60    4.20
  -7   3  -2   66.70    4.03
   7   3   2   62.49    4.20
   7   3   2   67.24    4.09
  -7   3  -2   66.51    4.19
   7   3   2   63.90    4.88
   7   3   2   72.22    4.11
  -8  -3  -2    0.22    0.22
  -8   3  -2   -0.25    0.19
   8   3   2   -0.06    0.20
  -8   3  -2    0.07    0.18
   8   3   2   -0.21    0.20
   8   3   2   -0.24    0.16
  -9  -3  -2   11.38    0.88
  -9   3  -2    8.96    0.82
   9   3   2    9.77    0.79
   9   3   2    9.17    0.89
   9   3   2    9.75    0.87
  -9   3  -2    9.78    0.81
 -10  -3  -2   -0.04    0.25
  10   3   2   -0.08    0.25
 -10   3  -2   -0.10    0.21
  10   3   2    0.41    0.29
 -10   3  -2   -0.38    0.19
  10   3   2    0.18    0.23
 -11  -3  -2   64.07    4.07
 -11   3  -2   58.80    3.96
  11   3   2   56.86    4.10
  11   3   2   71.04    4.04
 -11   3  -2   63.00    4.08
  11   3   2   68.41    4.01
 -12  -3  -2   -0.46    0.28
  12   3   2    0.26    0.31
  12   3   2   -0.15    0.25
  12   3   2   -0.21    0.28
 -12   3  -2   -0.28    0.26
 -12   3  -2    0.37    0.31
 -13  -3  -2   36.30    2.59
  13   3   2   35.09    2.60
 -13   3  -2   37.84    2.54
 -13   3  -2   38.09    2.60
  13   3   2   39.74    2.50
 -13  -4   2    0.03    0.35
  13   4  -2    0.03    0.36
  13   4  -2    0.22    0.36
 -13   4   2    0.07    0.33
 -13   4   2   -0.13    0.28
  12   4  -2   39.35    2.67
  12   4  -2   39.41    2.61
 -12   4   2   40.66    2.67
 -12   4   2   35.26    2.52
 -11   4   2   -0.03    0.25
 -11   4   2    0.31    0.30
  11   4  -2    0.08    0.30
  11   4  -2   -0.28    0.27
 -10   4   2   79.72    4.96
  10   4  -2   84.96    5.16
  10   4  -2   84.19    5.03
 -10   4   2   77.73    5.10
   9   4  -2    0.33    0.26
   9   4  -2    0.08    0.24
  -9   4   2   -0.24    0.22
  -9   4   2    0.16    0.21
  -8   4   2   58.00    3.71
  -8   4   2   65.77    3.85
   8   4  -2   55.54    3.86
   8   4  -2   65.45    3.78
   7   4  -2   -0.21    0.19
  -7   4   2   -0.34    0.14
   7   4  -2    0.08    0.20
  -7   4   2   -0.07    0.17
  -7   4   2    0.06    0.25
   6   4  -2   10.52    1.06
   6   4  -2    8.91    0.81
   6   4  -2   12.68    0.88
  -6   4   2   12.61    0.83
  -6   4   2   11.45    0.80
  -6   4   2   11.46    0.94
   5   4  -2   -0.07    0.15
   5   4  -2   -0.18    0.20
  -5   4   2    0.03    0.12
  -5   4   2    0.08    0.22
  -5   4   2   -0.13    0.12
   5   4  -2    0.14    0.16
   4   4  -2   39.74    2.38
  -4   4   2   38.16    2.29
   4   4  -2   42.81    2.52
   4   4  -2   34.95    2.82
   4   4  -2   35.81    2.31
   3   4  -2    0.24    0.21
   3   4  -2   -0.22    0.17
  -3   4   2   -0.01    0.16
  -2   4   2    4.97    0.45
   2   4  -2    3.34    0.45
   2   4  -2    3.59    0.45
  -1  -4   2    0.11    0.13
   1   4  -2    0.16    0.13
  -1   4   2    0.06    0.15
   1   4  -2    0.04    0.15
   0  -4   2    0.20    0.16
   0  -4  -2    0.28    0.13
   0   4   2   -0.11    0.16
   0   4  -2    0.29    0.15
   0   4  -2    0.16    0.18
  -1  -4  -2    0.30    0.14
   1  -4   2   -0.07    0.10
  -1   4  -2   -0.14    0.10
   1   4   2    0.30    0.16
  -1   4  -2   -0.15    0.13
  -2  -4  -2    0.54    0.22
  -2   4  -2    1.06    0.24
  -2   4  -2    0.86    0.16
   2   4   2    0.77    0.22
  -3   4  -2   -0.03    0.16
   3   4   2   -0.19    0.14
   3   4   2    0.02    0.12
   3   4   2    0.00    0.19
   3   4   2   -0.02    0.13
   4   4   2    0.23    0.20
   4   4   2    0.31    0.20
  -4   4  -2    0.04    0.11
   4   4   2    0.37    0.16
   4   4   2    1.16    0.23
  -4   4  -2    0.25    0.19
   5   4   2    0.31    0.18
   5   4   2   -0.09    0.15
  -5   4  -2    0.13    0.13
   5   4   2    0.26    0.22
  -5   4  -2   -0.08    0.13
  -5   4  -2   -0.11    0.17
   6   4   2   26.20    1.84
  -6   4  -2   30.39    1.92
  -6   4  -2   25.20    1.72
  -6   4  -2   30.76    1.79
   6   4   2   26.82    2.17
   6   4   2   26.95    1.79
   7   4   2   -0.48    0.18
  -7   4  -2    0.03    0.16
   7   4   2    0.11    0.21
  -7   4  -2   -0.11    0.17
  -8   4  -2    6.40    0.61
   8   4   2    5.65    0.66
   8   4   2    5.06    0.61
  -8   4  -2    6.05    0.56
   9   4   2    0.08    0.25
   9   4   2   -0.11    0.27
  -9   4  -2   -0.08    0.21
  -9   4  -2    0.09    0.21
  10   4   2   67.47    4.36
 -10   4  -2   67.78    4.30
  10   4   2   65.86    4.22
 -10   4  -2   68.85    4.15
 -11   4  -2   -0.26    0.24
 -11   4  -2   -0.07    0.25
  11   4   2   -0.06    0.28
  11   4   2    0.15    0.31
 -12  -4  -2   71.06    4.75
 -12   4  -2   73.55    4.76
 -12   4  -2   74.68    4.63
  12   4   2   74.27    4.81
  12   4   2   78.08    4.68
 -13  -4  -2   -0.26    0.32
  13   4   2    0.22    0.35
 -13   4  -2    0.29    0.33
 -13   4  -2   -0.34    0.28
  13   4   2    0.10    0.33
  12   5  -2   -0.12    0.33
  12   5  -2    0.27    0.34
 -12   5   2    0.02    0.29
 -12   5   2    0.01    0.30
 -11   5   2   16.83    1.26
 -11   5   2   16.73    1.29
  11   5  -2   16.64    1.33
  11   5  -2   15.15    1.33
  10   5  -2    0.20    0.32
 -10   5   2    0.03    0.27
  10   5  -2    0.16    0.32
 -10   5   2    0.22    0.27
   9   5  -2    1.75    0.38
  -9   5   2    0.99    0.29
  -9   5   2    1.68    0.38
   9   5  -2    1.25    0.38
  -8   5   2   -0.20    0.19
   8   5  -2    0.17    0.26
  -8   5   2   -0.21    0.20
   8   5  -2    0.23    0.25
  -7   5   2   22.35    1.47
  -7   5   2   24.80    1.54
   7   5  -2   22.03    1.53
  -7   5   2   20.91    1.63
   7   5  -2   21.83    1.56
   6   5  -2    0.06    0.25
   6   5  -2    0.04    0.21
   6   5  -2   -0.35    0.16
  -6   5   2    0.01    0.23
  -6   5   2    0.01    0.25
  -6   5   2    0.28    0.16
   5   5  -2   53.90    3.27
   5   5  -2   53.14    3.99
   5   5  -2   55.21    3.46
  -5   5   2   52.25    3.23
  -5   5   2   52.99    3.48
   5   5  -2   55.97    3.38
  -5   5   2   55.82    3.52
   4   5  -2   -0.31    0.14
  -4   5   2    0.15    0.23
  -4   5   2    0.02    0.26
  -4   5   2   -0.04    0.10
   4   5  -2   -0.15    0.19
   4   5  -2   -0.19    0.20
   4   5  -2   -0.34    0.21
  -3   5   2    0.68    0.25
  -3   5   2    0.97    0.34
  -3   5   2    0.74    0.12
   3   5  -2    0.86    0.29
   3   5  -2    0.57    0.16
   3   5  -2    0.16    0.24
   3   5  -2    0.54    0.24
   2   5  -2   -0.23    0.17
   2   5  -2    0.12    0.09
  -2   5   2    0.19    0.24
   2   5  -2   -0.07    0.20
  -2   5   2    0.32    0.23
  -1   5   2   35.19    2.37
   1   5  -2   38.43    2.37
  -1   5   2   33.02    2.31
   0   5   2    0.06    0.23
   0   5   2   -0.06    0.16
   0   5  -2   -0.24    0.17
   0   5  -2    0.16    0.18
  -1   5  -2    8.82    0.75
   1   5   2    8.64    0.75
   1   5   2    8.98    0.80
  -1   5  -2   10.02    0.82
  -2   5  -2   -0.11    0.16
   2   5   2   -0.08    0.20
  -2   5  -2    0.18    0.23
   2   5   2   -0.02    0.18
   2   5   2   -0.02    0.12
   3   5   2   11.33    0.77
  -3   5  -2   11.56    0.91
   3   5   2   10.19    0.88
  -3   5  -2   10.40    0.91
   3   5   2   11.46    0.92
  -4   5  -2   -0.15    0.19
  -4   5  -2   -0.22    0.21
   4   5   2   -0.31    0.19
   4   5   2   -0.21    0.16
   4   5   2   -0.15    0.24
  -4   5  -2    0.10    0.12
   4   5   2    0.04    0.15
   4   5   2    0.09    0.23
   5   5   2   10.32    1.05
   5   5   2   12.37    0.93
   5   5   2   11.93    0.87
   5   5   2   11.53    0.85
  -5   5  -2   11.11    0.93
  -5   5  -2   10.30    0.77
  -5   5  -2   12.72    0.96
   6   5   2    0.01    0.23
   6   5   2    0.07    0.18
  -6   5  -2   -0.25    0.23
  -6   5  -2    0.06    0.16
  -6   5  -2    0.01    0.25
   7   5   2   48.98    3.16
   7   5   2   49.09    3.27
  -7   5  -2   51.75    3.11
  -7   5  -2   53.98    3.34
  -8   5  -2   -0.09    0.18
   8   5   2   -0.14    0.23
  -8   5  -2    0.45    0.30
   8   5   2    0.50    0.28
  -8   5  -2    0.10    0.22
  -9   5  -2    8.34    0.99
   9   5   2   10.95    0.94
  -9   5  -2    8.90    0.77
   9   5   2    7.80    0.83
  -9   5  -2    9.00    0.82
 -10   5  -2   -0.40    0.30
  10   5   2   -0.35    0.26
 -10   5  -2   -0.28    0.23
 -10   5  -2    0.22    0.27
  10   5   2   -0.02    0.30
  11   5   2   46.15    3.18
 -11   5  -2   50.78    3.06
 -11   5  -2   49.50    3.14
  11   5   2   43.04    3.09
 -12   5  -2    0.09    0.28
  12   5   2    0.16    0.35
 -12   5  -2    0.21    0.31
  12   5   2   -0.36    0.29
 -11   6   2    0.24    0.42
 -11   6   2   -0.21    0.28
  11   6  -2   -0.11    0.29
 -11   6   2    0.27    0.28
  11   6  -2   -0.16    0.32
 -10   6   2   16.94    1.28
 -10   6   2   15.39    1.48
 -10   6   2   17.50    1.31
  10   6  -2   16.13    1.34
  10   6  -2   18.93    1.40
  -9   6   2   -0.01    0.21
   9   6  -2    0.56    0.32
  -9   6   2   -0.18    0.31
   9   6  -2    0.29    0.31
  -8   6   2    7.97    0.92
   8   6  -2    8.05    0.78
  -8   6   2    8.07    0.69
   8   6  -2    6.61    0.74
  -7   6   2    0.18    0.18
  -7   6   2    0.68    0.36
   7   6  -2   -0.02    0.22
   7   6  -2   -0.31    0.23
  -7   6   2    0.14    0.30
   6   6  -2    0.55    0.24
   6   6  -2    0.50    0.25
   6   6  -2    0.07    0.29
  -6   6   2    0.45    0.19
  -6   6   2    0.25    0.30
  -5   6   2   -0.29    0.22
  -5   6   2    0.27    0.30
   5   6  -2    0.19    0.19
   5   6  -2    0.29    0.31
  -5   6   2   -0.02    0.14
  -4   6   2   15.92    1.04
  -4   6   2   17.50    1.31
   4   6  -2   17.27    1.11
   4   6  -2   14.81    1.29
   4   6  -2   17.45    1.31
  -4   6   2   16.79    1.35
  -3   6   2    0.05    0.28
   3   6  -2   -0.44    0.20
   3   6  -2    0.06    0.15
   3   6  -2   -0.12    0.23
  -3   6   2   -0.01    0.23
   2   6  -2  124.30    7.05
  -2   6   2  126.89    7.52
   2   6  -2  123.03    7.47
  -2   6   2  128.44    7.49
   2   6  -2  101.10    7.44
   1   6  -2   -0.19    0.21
  -1   6   2    0.01    0.27
  -1   6   2    0.04    0.21
   1   6  -2   -0.25    0.23
   0   6  -2    8.55    0.84
   0   6   2    9.44    0.87
   0   6   2    7.69    0.74
   0   6  -2    8.15    0.78
  -1   6  -2   -0.40    0.21
   1   6   2    0.04    0.11
  -1   6  -2   -0.28    0.17
   1   6   2    0.03    0.20
   1   6   2   -0.21    0.23
   2   6   2  124.56    8.07
  -2   6  -2  140.17    8.09
   2   6   2  134.21    7.68
  -2   6  -2  115.57    8.07
   2   6   2  140.56    8.06
   3   6   2   -0.12    0.24
   3   6   2    0.05    0.23
  -3   6  -2   -0.01    0.27
   3   6   2   -0.03    0.15
  -3   6  -2   -0.23    0.22
   4   6   2   29.57    2.19
  -4   6  -2   35.82    2.26
   4   6   2   27.96    2.18
  -4   6  -2   34.84    1.97
   4   6   2   31.14    2.02
  -4   6  -2   34.43    2.26
  -5   6  -2    0.17    0.28
   5   6   2    0.23    0.30
  -5   6  -2    0.38    0.16
  -5   6  -2    0.04    0.30
   5   6   2   -0.05    0.19
   5   6   2    0.01    0.26
  -6   6  -2    5.31    0.52
   6   6   2    6.84    0.69
  -6   6  -2    6.49    0.77
   6   6   2    6.36    0.62
  -6   6  -2    6.76    0.76
  -7   6  -2    0.34    0.20
   7   6   2   -0.15    0.23
  -7   6  -2   -0.04    0.28
   7   6   2    0.29    0.29
  -8   6  -2   41.77    3.02
  -8   6  -2   48.95    2.79
   8   6   2   46.28    2.97
   8   6   2   41.04    2.85
   9   6   2   -0.09    0.26
  -9   6  -2   -0.04    0.20
  -9   6  -2    0.27    0.36
   9   6   2   -0.54    0.28
  10   6   2   36.81    2.66
  10   6   2   41.92    2.78
 -10   6  -2   40.73    2.68
 -10   6  -2   40.39    2.83
 -10   6  -2   40.45    2.58
 -11   6  -2    0.29    0.27
  11   6   2   -0.01    0.32
 -11   6  -2   -0.12    0.30
 -11   6  -2    0.49    0.41
  11   6   2    0.06    0.36
  -9   7   2    0.63    0.42
   9   7  -2    1.13    0.39
   9   7  -2    1.41    0.41
  -9   7   2    1.04    0.32
   8   7  -2    0.04    0.31
  -8   7   2    0.39    0.42
  -8   7   2   -0.23    0.32
   8   7  -2   -0.26    0.22
  -8   7   2   -0.08    0.22
  -7   7   2   11.62    0.86
   7   7  -2   10.18    0.93
  -7   7   2   12.44    1.17
  -7   7   2   11.75    1.10
  -6   7   2    0.02    0.16
  -6   7   2   -0.19    0.31
  -6   7   2   -0.21    0.28
   6   7  -2    0.24    0.23
   6   7  -2    0.05    0.33
   5   7  -2   31.46    2.22
   5   7  -2   30.93    1.98
  -5   7   2   31.31    1.92
  -5   7   2   32.36    2.25
   5   7  -2   29.82    2.25
  -5   7   2   29.78    2.27
   4   7  -2    0.22    0.20
   4   7  -2    0.12    0.29
   4   7  -2    0.07    0.31
  -4   7   2    0.02    0.32
  -4   7   2   -0.49    0.26
   3   7  -2    0.21    0.30
  -3   7   2    0.28    0.29
   3   7  -2    0.40    0.19
   3   7  -2    0.53    0.34
  -3   7   2    1.26    0.42
   2   7  -2    0.03    0.27
  -2   7   2   -0.16    0.22
   2   7  -2   -0.15    0.29
  -2   7   2    0.15    0.31
  -1   7   2   22.28    1.55
   1   7  -2   15.74    1.46
  -1   7   2   19.59    1.43
   1   7  -2   17.46    1.41
   0   7  -2   -0.30    0.25
   0   7  -2    0.14    0.25
   0   7   2   -0.25    0.29
   0   7   2    0.24    0.26
  -1   7  -2    5.58    0.78
  -1   7  -2    6.38    0.76
   1   7   2    5.34    0.75
   1   7   2    6.86    0.74
   2   7   2   -0.37    0.26
   2   7   2   -0.34    0.23
   2   7   2   -0.04    0.16
  -2   7  -2    0.21    0.29
  -2   7  -2   -0.04    0.30
   3   7   2    5.59    0.51
  -3   7  -2    4.96    0.66
   3   7   2    5.17    0.68
   3   7   2    5.93    0.70
  -3   7  -2    5.34    0.74
  -4   7  -2   -0.15    0.31
  -4   7  -2   -0.14    0.24
   4   7   2   -0.69    0.24
   4   7   2    0.64    0.33
   4   7   2    0.04    0.21
  -5   7  -2    5.74    0.78
  -5   7  -2    5.18    0.76
   5   7   2    6.29    0.75
   5   7   2    6.36    0.60
   5   7   2    5.59    0.77
  -6   7  -2    0.12    0.19
  -6   7  -2    0.32    0.32
   6   7   2   -0.14    0.22
  -6   7  -2    0.34    0.36
  -7   7  -2   30.00    2.23
  -7   7  -2   30.58    1.92
   7   7   2   30.04    2.02
   7   7   2   28.37    2.07
  -7   7  -2   32.37    2.23
   8   7   2    0.15    0.26
  -8   7  -2   -0.25    0.29
   8   7   2   -0.03    0.32
  -8   7  -2    0.20    0.23
  -9   7  -2    5.15    0.59
  -9   7  -2    5.03    0.81
   9   7   2    5.43    0.69
   9   7   2    4.72    0.69
  -6   8   2    1.89    0.57
   6   8  -2    2.50    0.58
  -6   8   2    1.96    0.53
   6   8  -2    2.69    0.43
  -6   8   2    2.62    0.35
   5   8  -2    0.04    0.25
  -5   8   2   -0.02    0.35
   5   8  -2   -0.46    0.30
  -5   8   2   -0.10    0.38
  -4   8   2    7.39    1.00
   4   8  -2    8.71    0.70
   4   8  -2    8.93    0.99
   4   8  -2    6.99    0.92
  -4   8   2    8.29    0.97
  -3   8   2   -0.24    0.33
   3   8  -2   -0.21    0.33
   3   8  -2   -0.40    0.17
   3   8  -2    0.20    0.34
  -3   8   2   -0.28    0.25
  -2   8   2    5.36    0.83
   2   8  -2    7.22    0.84
  -2   8   2    6.98    0.83
   2   8  -2    5.75    0.80
   1   8  -2   -0.28    0.28
  -1   8   2    0.47    0.38
  -1   8   2    0.37    0.31
   1   8  -2   -0.45    0.32
   0   8   2    0.32    0.39
   0   8  -2    0.14    0.37
   0   8  -2    0.51    0.33
   0   8   2    0.05    0.28
   1   8   2   -0.27    0.29
  -1   8  -2   -0.54    0.28
   1   8   2    0.23    0.29
  -1   8  -2   -0.06    0.26
  -2   8  -2    2.01    0.49
   2   8   2    1.85    0.46
   2   8   2    2.30    0.48
  -2   8  -2    2.09    0.54
   3   8   2    0.28    0.36
   3   8   2    0.12    0.34
  -3   8  -2   -0.22    0.36
   3   8   2    0.03    0.20
  -3   8  -2   -0.04    0.28
  -4   8  -2   -0.03    0.28
   4   8   2    0.42    0.26
   4   8   2    0.85    0.41
   4   8   2    0.53    0.38
  -4   8  -2    0.93    0.47
   5   8   2    0.11    0.37
  -5   8  -2    0.12    0.34
   5   8   2    0.13    0.34
   5   8   2    0.24    0.24
  -5   8  -2   -0.06    0.36
  -6   8  -2    5.75    0.84
  -6   8  -2    5.47    0.81
   6   8   2    5.33    0.63
   1   9  -2   10.96    1.22
  -1   9   2   12.14    1.12
   1   9  -2   10.89    1.11
  -1   9   2    9.03    1.12
   0   9   2    0.34    0.42
   0   9   2    0.20    0.31
   0   9  -2    0.38    0.36
   0   9  -2    0.52    0.41
   1   9   2    4.41    0.71
   1   9   2    4.33    0.73
  -1   9  -2    3.87    0.73
  -1   9  -2    3.08    0.66
 -14   0   3   -0.10    0.26
  14   0  -3    0.03    0.30
 -14   0   3   -0.35    0.30
 -13   0   3    1.42    0.40
 -13   0   3   -0.14    0.27
  13   0  -3    0.23    0.34
 -12   0   3   -0.13    0.27
 -12   0   3    0.18    0.26
  12   0  -3   -0.05    0.30
 -11   0   3  120.16    6.67
 -11   0   3   95.24    6.68
  11   0  -3  112.62    6.70
  11   0  -3  103.31    6.70
  10   0  -3    0.26    0.27
  10   0  -3    0.35    0.29
 -10   0   3   -0.17    0.22
 -10   0   3   -0.13    0.25
   9   0  -3    4.11    0.54
  -9   0   3    4.52    0.56
  -9   0   3    4.35    0.51
   9   0  -3    4.81    0.73
  -9   0   3    4.92    0.59
   9   0  -3    3.75    0.51
  -8   0   3    0.02    0.19
   8   0  -3   -0.04    0.19
   8   0  -3   -0.15    0.19
  -8   0   3   -0.02    0.17
   8   0  -3   -0.03    0.21
   7   0  -3   20.35    1.47
   7   0  -3   22.27    1.74
  -7   0   3   22.78    1.48
   7   0  -3   21.68    1.49
  -7   0   3   22.07    1.47
   6   0  -3   -0.17    0.15
   6   0  -3   -0.24    0.15
  -6   0   3   -0.19    0.14
  -6   0   3   -0.15    0.14
   6   0  -3   -0.03    0.15
   5   0  -3  112.60    8.09
   5   0  -3  118.99    7.05
   4   0  -3   -0.19    0.13
  -4   0   3   -0.23    0.16
   3   0  -3  139.70    9.54
  -3   0   3  135.72    9.54
   2   0  -3   -0.10    0.13
  -2   0   3   -0.01    0.15
   1   0  -3    6.00    0.55
  -1   0   3    7.85    0.57
   0   0  -3    0.06    0.10
   0   0   3    0.10    0.12
  -1   0  -3    1.55    0.21
   1   0   3    1.48    0.21
  -2   0  -3    0.10    0.13
   2   0   3   -0.05    0.13
  -3   0  -3  464.99   31.99
  -4   0  -3    0.12    0.19
  -4   0  -3    0.07    0.15
   5   0   3    3.53    0.38
  -5   0  -3    2.89    0.34
  -5   0  -3    2.27    0.41
  -5   0  -3    2.79    0.35
   6   0   3   -0.04    0.16
   6   0   3   -0.21    0.18
  -6   0  -3    0.06    0.15
  -6   0  -3   -0.25    0.15
  -7   0  -3  263.02   16.34
  -7   0  -3  253.70   16.45
   7   0   3  287.94   16.38
   7   0   3  286.97   16.48
   8   0   3    0.07    0.20
  -8   0  -3    0.03    0.18
  -8   0  -3    0.00    0.19
  -8   0  -3   -0.06    0.18
   8   0   3    0.04    0.21
  -9   0  -3  108.58    7.41
  -9   0  -3  120.93    7.21
  -9   0  -3  124.82    7.38
   9   0   3  133.34    7.42
   9   0   3  116.84    7.43
  10   0   3   -0.08    0.23
 -10   0  -3    0.00    0.22
 -10   0  -3    0.23    0.27
  10   0   3    0.10    0.27
 -11   0  -3   69.80    4.09
  11   0   3   60.08    4.05
 -11   0  -3   61.23    4.01
 -12   0  -3    0.29    0.28
 -12   0  -3    0.33    0.29
  12   0   3   -0.19    0.27
  13   0   3    2.83    0.55
 -13   0  -3    2.77    0.53
 -13   0  -3    2.78    0.50
  14   0   3   -0.11    0.30
 -14   0  -3    0.06    0.24
 -14   0  -3   -0.28    0.31
 -14  -1   3   10.22    0.91
  14  -1  -3    7.10    0.91
 -14   1   3    8.77    0.96
  14   1  -3    6.12    0.82
 -14   1   3    8.30    0.78
 -13  -1   3    0.07    0.30
  13  -1  -3    0.23    0.33
  13   1  -3    0.09    0.32
  13   1  -3   -0.03    0.36
 -13   1   3   -0.25    0.26
 -13   1   3   -0.19    0.23
  12  -1  -3    0.95    0.38
 -12  -1   3    1.01    0.36
 -12  -1   3    1.35    0.40
 -12   1   3    0.98    0.35
 -12   1   3    0.88    0.31
  12   1  -3    0.65    0.35
  12   1  -3    0.80    0.38
 -12   1   3    0.78    0.36
 -11  -1   3    0.05    0.25
 -11  -1   3   -0.09    0.24
  11  -1  -3    0.04    0.32
  11   1  -3    0.08    0.29
 -11   1   3    0.49    0.32
 -11   1   3   -0.05    0.22
 -11   1   3    0.14    0.21
  11   1  -3    0.03    0.26
 -10  -1   3   -0.10    0.19
 -10  -1   3    0.13    0.26
  10  -1  -3    1.57    0.39
  10   1  -3    0.23    0.27
 -10   1   3    0.51    0.26
 -10   1   3    0.08    0.24
 -10   1   3    0.28    0.23
  10   1  -3   -0.07    0.26
   9  -1  -3   -0.74    0.27
  -9  -1   3   -0.26    0.19
   9  -1  -3    0.14    0.20
  -9  -1   3   -0.46    0.16
   9   1  -3    0.12    0.23
  -9   1   3    0.05    0.20
  -9   1   3   -0.09    0.18
   9   1  -3    0.20    0.23
   9   1  -3    0.18    0.24
  -9   1   3    0.20    0.22
  -8  -1   3   31.76    2.11
  -8  -1   3   33.79    2.11
   8  -1  -3   32.59    2.11
   8  -1  -3   30.21    2.10
   8  -1  -3   31.71    2.45
   8   1  -3   32.54    2.48
   8   1  -3   31.02    2.10
  -8   1   3   34.56    2.05
   8   1  -3   31.17    2.11
   8   1  -3   35.81    2.08
  -8   1   3   27.93    2.04
  -8   1   3   32.12    2.10
   7  -1  -3    0.11    0.15
   7  -1  -3    0.00    0.17
   7  -1  -3   -0.11    0.19
  -7  -1   3   -0.08    0.16
  -7  -1   3   -0.24    0.15
  -7   1   3    0.15    0.17
   7   1  -3   -0.24    0.16
   7   1  -3    0.06    0.18
   7   1  -3   -0.07    0.17
  -7   1   3    0.04    0.16
  -7   1   3    0.00    0.14
   6  -1  -3   48.32    3.99
  -6  -1   3   53.34    3.48
   6   1  -3   62.72    3.51
   6   1  -3   55.00    3.46
  -6   1   3   61.30    3.45
   6   1  -3   54.65    4.03
  -6   1   3   56.33    3.48
   5  -1  -3   -0.01    0.14
  -5   1   3   -0.08    0.14
  -5   1   3   -0.06    0.12
   5   1  -3    0.02    0.14
   5   1  -3    0.04    0.14
   5   1  -3   -0.05    0.18
  -5   1   3   -0.07    0.11
   4  -1  -3   48.22    3.18
  -4   1   3   43.71    3.16
  -4   1   3   47.48    2.77
   4   1  -3   43.98    3.20
   4   1  -3   40.00    2.76
   3  -1  -3   -0.09    0.11
  -3  -1   3    0.09    0.16
   3   1  -3   -0.01    0.14
  -3   1   3   -0.06    0.11
  -2  -1   3   84.50    5.63
   2  -1  -3   87.39    5.59
   2   1  -3   79.60    5.62
  -2   1   3   70.83    5.58
   1  -1  -3   -0.21    0.10
  -1  -1   3   -0.24    0.12
  -1   1   3   -0.19    0.11
   1   1  -3   -0.25    0.12
   0  -1   3   60.09    4.41
   0  -1  -3   63.09    4.40
   0   1  -3   66.18    4.41
   0   1   3   62.89    4.40
   1  -1   3   -0.38    0.11
  -1  -1  -3   -0.24    0.11
   1   1   3   -0.05    0.13
  -1   1  -3   -0.29    0.11
  -2  -1  -3   12.63    0.92
   2  -1   3   11.67    0.90
  -2   1  -3   10.53    0.90
  -3  -1  -3    0.01    0.15
   3  -1   3   -0.10    0.13
  -3  -1  -3   -0.18    0.17
  -3   1  -3   -0.16    0.13
   4   1   3  167.76    9.89
  -4   1  -3  161.36    9.88
  -4   1  -3  161.37   11.35
  -5  -1  -3   -0.27    0.13
   5   1   3   -0.25    0.15
  -5   1  -3   -0.21    0.12
  -5   1  -3   -0.20    0.13
  -5   1  -3   -0.19    0.13
   5   1   3   -0.09    0.16
  -6  -1  -3  297.79   17.69
  -6  -1  -3  279.06   17.80
  -6   1  -3  302.48   20.46
  -6   1  -3  301.44   17.68
   6   1   3  293.07   17.82
  -6   1  -3  302.59   17.81
   6   1   3  293.64   17.71
   7  -1   3   -0.24    0.17
  -7  -1  -3    0.13    0.17
   7  -1   3   -0.08    0.15
  -7  -1  -3    0.03    0.18
   7   1   3   -0.14    0.15
   7   1   3    0.35    0.23
  -7   1  -3   -0.06    0.15
  -7   1  -3   -0.13    0.14
  -7   1  -3   -0.06    0.14
  -7   1  -3    0.31    0.19
   8  -1   3   24.88    1.69
  -8  -1  -3   27.16    1.68
  -8  -1  -3   20.55    1.65
   8   1   3   24.94    1.70
  -8   1  -3   25.18    1.63
  -8   1  -3   25.07    1.97
   8   1   3   22.94    1.67
   8   1   3   27.10    1.70
  -8   1  -3   24.64    1.68
  -8   1  -3   26.17    1.64
  -9  -1  -3   -0.11    0.21
   9  -1   3    0.49    0.26
  -9  -1  -3   -0.15    0.19
  -9   1  -3   -0.16    0.20
   9   1   3   -0.12    0.21
  -9   1  -3    0.10    0.20
  -9   1  -3   -0.07    0.19
  -9   1  -3    0.31    0.21
   9   1   3    0.02    0.24
 -10  -1  -3   41.23    2.89
  10  -1   3   43.07    2.94
 -10  -1  -3   50.06    2.93
 -10   1  -3   42.27    2.85
 -10   1  -3   45.07    2.94
 -10   1  -3   44.88    2.85
  10   1   3   43.65    2.92
  10   1   3   48.74    2.96
 -11  -1  -3   -0.18    0.25
 -11  -1  -3    0.10    0.26
  11  -1   3    0.26    0.31
  11   1   3    0.45    0.30
 -11   1  -3    0.02    0.25
  11   1   3    0.15    0.29
 -11   1  -3   -0.05    0.24
 -11   1  -3   -0.22    0.20
  12  -1   3    1.91    0.46
 -12  -1  -3    1.33    0.39
 -12  -1  -3    1.26    0.39
 -12   1  -3    1.53    0.34
  12   1   3    1.34    0.39
  12   1   3    2.70    0.50
 -12   1  -3    0.63    0.35
 -12   1  -3    1.17    0.42
  13  -1   3    0.47    0.37
 -13  -1  -3    0.25    0.31
  13   1   3   -0.19    0.27
 -13   1  -3    0.17    0.34
 -13   1  -3    0.01    0.23
  14  -1   3    1.23    0.46
 -14  -1  -3    0.37    0.34
 -14   1  -3    0.43    0.38
  14   1   3    1.22    0.39
 -14   1  -3    0.79    0.32
  14  -2  -3   -0.44    0.34
 -14  -2   3    0.35    0.33
  14   2  -3    0.24    0.41
 -14   2   3    0.20    0.35
  14   2  -3   -0.07    0.31
 -14   2   3    0.26    0.33
 -13  -2   3   25.22    1.81
  13  -2  -3   26.22    1.90
  13   2  -3   24.86    1.89
 -13   2   3   25.85    1.80
  13   2  -3   25.98    1.80
 -13   2   3   22.03    1.83
  12  -2  -3    0.40    0.35
 -12  -2   3    0.19    0.27
 -12   2   3    0.09    0.27
  12   2  -3    0.01    0.28
  12   2  -3    0.02    0.27
 -12   2   3   -0.17    0.26
  11  -2  -3    7.33    0.79
 -11  -2   3    6.18    0.70
 -11   2   3    5.18    0.65
 -11   2   3    5.43    0.56
  11   2  -3    6.48    0.75
  11   2  -3    4.96    0.64
  11   2  -3    6.76    0.83
 -11   2   3    6.38    0.75
  10  -2  -3   -0.23    0.25
 -10  -2   3   -0.31    0.23
  10   2  -3   -0.03    0.23
 -10   2   3   -0.14    0.17
 -10   2   3    0.36    0.25
  10   2  -3   -0.09    0.23
  10   2  -3    0.03    0.24
 -10   2   3    0.35    0.25
  -9  -2   3  107.45    6.99
   9  -2  -3  109.19    7.00
   9   2  -3  103.12    6.94
   9   2  -3  116.04    7.04
  -9   2   3  116.96    6.89
   9   2  -3  117.48    6.83
  -9   2   3  117.52    6.80
  -9   2   3  123.50    7.03
   8  -2  -3    0.11    0.21
  -8  -2   3   -0.11    0.20
   8   2  -3   -0.07    0.20
  -8   2   3   -0.05    0.17
   8   2  -3    0.09    0.19
  -8   2   3    0.04    0.14
  -8   2   3   -0.10    0.18
   8   2  -3    0.06    0.21
  -7  -2   3   18.02    1.23
   7  -2  -3   18.86    1.41
   7   2  -3   18.01    1.20
   7   2  -3   17.20    1.46
   7   2  -3   17.69    1.18
  -7   2   3   16.77    1.17
  -7   2   3   16.35    1.20
  -7   2   3   17.72    1.13
   7   2  -3   14.88    1.20
   6  -2  -3   -0.09    0.18
  -6  -2   3   -0.08    0.17
  -6   2   3    0.00    0.13
   6   2  -3   -0.13    0.18
   6   2  -3   -0.23    0.13
   6   2  -3   -0.06    0.14
  -6   2   3    0.08    0.15
  -6   2   3   -0.07    0.13
  -6   2   3   -0.16    0.11
   6   2  -3   -0.07    0.15
   5  -2  -3   61.63    4.60
   5   2  -3   68.95    3.97
   5   2  -3   66.71    4.03
  -5   2   3   66.87    4.59
   5   2  -3   62.99    4.67
  -5   2   3   64.03    4.02
   4  -2  -3   -0.09    0.13
   4   2  -3   -0.07    0.18
   4   2  -3   -0.43    0.11
  -4   2   3   -0.21    0.12
  -4   2   3   -0.27    0.11
   3  -2  -3    9.08    0.75
  -3  -2   3   10.86    0.85
  -3   2   3   10.23    0.75
   3   2  -3    9.95    0.84
   2  -2  -3   -0.14    0.09
  -2  -2   3   -0.10    0.15
  -2   2   3   -0.01    0.10
   2   2  -3   -0.14    0.13
  -1  -2   3   65.78    4.82
   1  -2  -3   63.32    4.78
   1   2  -3   73.97    4.83
  -1   2   3   72.87    4.78
   0  -2   3    0.00    0.12
   0  -2  -3   -0.03    0.09
   0   2   3    0.06    0.12
   0   2  -3    0.13    0.13
  -1  -2  -3  577.35   38.11
  -1  -2  -3  556.71   38.10
   1  -2   3  550.25   38.10
  -1   2  -3  533.72   38.09
   2  -2   3    0.01    0.11
  -2  -2  -3    0.10    0.16
  -2  -2  -3   -0.13    0.13
  -2   2  -3    0.03    0.11
   3  -2   3  204.96   13.99
  -3  -2  -3  189.38   14.03
  -3   2  -3  213.39   14.00
  -4   2  -3   -0.04    0.12
   4   2   3   -0.17    0.13
  -4   2  -3    0.13    0.13
  -5   2  -3  191.34   12.90
  -5   2  -3  183.96   11.23
   5   2   3  190.37   11.27
   5   2   3  179.01   11.17
  -6  -2  -3   -0.15    0.15
  -6  -2  -3   -0.10    0.14
  -6   2  -3   -0.10    0.15
   6   2   3    0.00    0.18
   6   2   3   -0.06    0.18
  -6   2  -3   -0.05    0.15
  -6   2  -3   -0.12    0.13
   6   2   3   -0.05    0.18
  -7  -2  -3    6.76    0.63
  -7  -2  -3    7.20    0.59
  -7   2  -3    6.95    0.71
  -7   2  -3    8.33    0.64
   7   2   3    7.49    0.65
  -7   2  -3    6.64    0.61
  -7   2  -3    6.98    0.53
   7   2   3    7.69    0.64
   7   2   3    6.66    0.65
  -8  -2  -3   -0.41    0.17
   8   2   3   -0.02    0.19
  -8   2  -3    0.18    0.15
   8   2   3    0.28    0.23
   8   2   3   -0.10    0.20
  -8   2  -3    0.04    0.22
  -8   2  -3   -0.01    0.19
  -8   2  -3   -0.04    0.17
  -9  -2  -3   71.86    4.38
   9   2   3   72.86    4.43
  -9   2  -3   66.92    4.40
   9   2   3   76.43    4.33
  -9   2  -3   63.05    4.25
  -9   2  -3   67.96    4.27
  -9   2  -3   78.41    5.10
   9   2   3   64.12    4.35
  10  -2   3    0.37    0.31
 -10  -2  -3    0.11    0.26
 -10   2  -3   -0.27    0.20
  10   2   3   -0.05    0.24
 -10   2  -3    0.00    0.18
  10   2   3   -0.17    0.23
 -10   2  -3    0.06    0.23
  10   2   3   -0.04    0.22
  11  -2   3   13.02    1.16
 -11  -2  -3   13.42    1.09
 -11   2  -3   12.28    1.08
  11   2   3   12.51    1.11
  11   2   3   12.54    1.06
 -11   2  -3   14.86    1.11
  12  -2   3   -0.11    0.32
 -12  -2  -3    0.14    0.32
  12   2   3   -0.20    0.28
  12   2   3    0.08    0.30
 -12   2  -3    0.07    0.29
 -12   2  -3   -0.38    0.23
 -13  -2  -3   41.65    2.77
  13  -2   3   39.70    2.79
 -13   2  -3   42.71    2.74
 -13   2  -3   40.24    2.79
  13   2   3   42.50    2.74
  13   2   3   37.84    2.79
 -14  -2  -3    0.27    0.34
  14  -2   3    0.56    0.42
 -14   2  -3    0.48    0.35
  14   2   3   -0.31    0.30
  14   2   3   -0.26    0.31
 -14   2  -3   -0.33    0.31
 -13  -3   3    0.05    0.32
  13   3  -3   -0.20    0.31
 -13   3   3   -0.24    0.28
  13   3  -3   -0.12    0.28
 -13   3   3    0.06    0.28
 -12  -3   3    0.61    0.32
 -12   3   3    0.96    0.36
  12   3  -3    0.02    0.27
  12   3  -3    1.23    0.40
 -12   3   3    0.68    0.35
  12   3  -3    0.65    0.34
 -11  -3   3   -0.22    0.24
  11   3  -3    0.22    0.28
  11   3  -3   -0.03    0.24
  11   3  -3    0.17    0.30
 -11   3   3   -0.10    0.27
 -11   3   3    0.50    0.31
 -10  -3   3   -0.32    0.24
  10   3  -3    0.55    0.32
 -10   3   3    0.62    0.28
 -10   3   3   -0.18    0.22
  10   3  -3   -0.13    0.27
  10   3  -3    0.32    0.23
  -9  -3   3    0.16    0.24
   9   3  -3   -0.12    0.19
   9   3  -3    0.29    0.26
   9   3  -3   -0.19    0.20
  -9   3   3    0.14    0.24
  -9   3   3   -0.18    0.21
  -8  -3   3   24.35    1.69
   8   3  -3   23.63    1.69
  -8   3   3   25.85    1.67
  -8   3   3   22.18    1.61
   8   3  -3   25.85    1.59
   8   3  -3   25.02    1.66
   7   3  -3    0.04    0.17
   7   3  -3    0.10    0.21
   7   3  -3   -0.06    0.13
  -7   3   3    0.39    0.19
  -7   3   3    0.30    0.16
   6   3  -3   47.31    2.87
  -6   3   3   51.77    2.95
   6   3  -3   46.38    2.84
  -6   3   3   48.64    2.86
   6   3  -3   43.26    3.45
   6   3  -3   43.69    2.95
  -5   3   3   -0.03    0.11
   5   3  -3   -0.19    0.19
   5   3  -3   -0.09    0.13
  -5   3   3   -0.02    0.12
   5   3  -3   -0.04    0.14
   4  -3  -3   32.61    2.38
   4   3  -3   35.25    2.50
   4   3  -3   31.88    2.11
  -4   3   3   32.37    2.36
  -4   3   3   37.00    2.10
   3   3  -3    0.03    0.12
   3   3  -3   -0.05    0.13
   3   3  -3    0.18    0.17
  -2  -3   3   54.99    3.98
   2   3  -3   52.58    3.47
  -2   3   3   60.55    3.53
   2   3  -3   56.47    3.98
  -1  -3   3    0.17    0.15
   1  -3  -3   -0.04    0.09
   1  -3  -3   -0.05    0.08
   1   3  -3    0.04    0.15
   1   3  -3   -0.12    0.12
   0  -3   3   48.37    3.27
   0  -3  -3   45.61    3.23
   0  -3  -3   43.65    3.24
   0   3  -3   46.76    3.26
   1  -3   3   -0.04    0.12
  -1  -3  -3    0.13    0.17
  -1  -3  -3   -0.04    0.14
  -1   3  -3   -0.16    0.11
   2  -3   3    7.74    0.63
  -2  -3  -3    7.90    0.69
  -2  -3  -3    7.94    0.74
  -2   3  -3    7.43    0.64
  -2   3  -3    7.88    0.62
   3  -3   3   -0.08    0.11
   3   3   3   -0.22    0.12
  -3   3  -3    0.05    0.14
  -3   3  -3    0.02    0.15
  -4   3  -3  108.32    6.70
   4   3   3  122.03    6.72
  -4   3  -3  103.70    7.65
  -4   3  -3  106.45    6.66
   5   3   3    0.01    0.16
   5   3   3    0.06    0.16
  -5   3  -3    0.07    0.14
  -5   3  -3    0.29    0.14
  -5   3  -3   -0.03    0.13
  -5   3  -3    0.07    0.17
  -6   3  -3  274.08   14.52
  -6   3  -3  246.09   17.18
   6   3   3  227.95   15.02
  -6   3  -3  252.84   14.99
   6   3   3  245.17   14.84
   6   3   3  244.60   14.56
  -7  -3  -3    0.03    0.20
   7   3   3    0.10    0.18
   7   3   3    0.11    0.20
  -7   3  -3    0.15    0.17
   7   3   3   -0.15    0.21
  -7   3  -3   -0.12    0.17
  -8  -3  -3   20.94    1.42
  -8   3  -3   19.85    1.37
   8   3   3   19.43    1.36
   8   3   3   18.13    1.40
  -8   3  -3   21.43    1.42
  -9  -3  -3   -0.16    0.22
  -9   3  -3    0.21    0.22
  -9   3  -3   -0.08    0.22
   9   3   3   -0.18    0.21
   9   3   3    0.22    0.27
   9   3   3    0.33    0.28
 -10  -3  -3   44.10    2.87
  10   3   3   41.25    2.89
 -10   3  -3   42.54    2.78
  10   3   3   44.41    2.81
  10   3   3   42.68    2.82
 -10   3  -3   45.99    2.87
 -11  -3  -3   -0.24    0.30
 -11   3  -3    0.34    0.30
  11   3   3   -0.04    0.27
  11   3   3    0.01    0.28
 -11   3  -3    0.01    0.27
  11   3   3    0.21    0.23
 -12  -3  -3    0.56    0.37
  12   3   3    1.11    0.43
  12   3   3    1.67    0.48
 -12   3  -3    1.00    0.39
 -12   3  -3    1.82    0.44
  12   3   3    1.59    0.36
 -13  -3  -3   -0.10    0.31
 -13   3  -3   -0.13    0.27
 -13   3  -3    0.52    0.35
  13   3   3    0.13    0.31
  13   3   3   -0.07    0.33
 -13  -4   3    1.15    0.42
 -13   4   3    0.56    0.34
 -13   4   3    0.80    0.35
  13   4  -3    0.64    0.40
  13   4  -3    0.67    0.40
 -12   4   3   -0.02    0.33
  12   4  -3   -0.11    0.32
  12   4  -3    0.06    0.32
 -12   4   3   -0.41    0.26
  11   4  -3   78.84    4.89
 -11   4   3   79.08    4.85
 -11   4   3   71.62    4.70
  11   4  -3   76.24    4.77
 -10   4   3   -0.06    0.22
 -10   4   3   -0.12    0.23
  10   4  -3   -0.09    0.26
  10   4  -3    0.04    0.26
  -9   4   3    1.09    0.30
   9   4  -3    1.39    0.36
   9   4  -3    0.96    0.33
  -9   4   3    0.98    0.31
  -8   4   3    0.25    0.22
  -8   4   3   -0.09    0.17
   8   4  -3    0.10    0.22
   8   4  -3   -0.15    0.19
   7   4  -3   14.52    1.12
  -7   4   3   15.39    1.08
   7   4  -3   15.48    1.09
  -7   4   3   14.91    1.05
  -7   4   3   15.00    1.17
  -6   4   3    0.39    0.25
   6   4  -3   -0.08    0.24
   6   4  -3    0.30    0.19
  -6   4   3   -0.18    0.15
  -6   4   3   -0.17    0.14
   6   4  -3   -0.11    0.17
   6   4  -3    0.12    0.26
  -5   4   3   54.19    3.07
  -5   4   3   51.74    3.19
   5   4  -3   48.52    3.09
   5   4  -3   43.13    2.99
   5   4  -3   48.22    3.15
  -5   4   3   47.14    2.97
   5   4  -3   54.01    3.66
  -4   4   3   -0.01    0.10
  -4   4   3   -0.12    0.19
   4   4  -3    0.14    0.14
   4   4  -3   -0.07    0.21
   4   4  -3   -0.05    0.12
   4   4  -3   -0.03    0.20
  -4   4   3   -0.13    0.11
   3   4  -3   62.98    4.08
  -3   4   3   65.87    4.10
  -3   4   3   70.06    4.08
   3   4  -3   61.77    3.86
   3   4  -3   59.19    3.97
   3   4  -3   73.45    4.67
   2   4  -3    0.06    0.14
  -2   4   3   -0.29    0.13
   2   4  -3    0.04    0.17
  -1  -4   3    1.70    0.29
  -1   4   3    2.32    0.32
   1   4  -3    2.08    0.31
   1   4  -3    1.87    0.30
   0  -4  -3   -0.17    0.09
   0  -4   3   -0.05    0.14
   0   4   3    0.02    0.14
   0   4  -3    0.04    0.13
   0   4  -3   -0.12    0.14
  -1  -4  -3    3.73    0.42
  -1  -4  -3    4.26    0.42
   1  -4   3    3.58    0.40
   1   4   3    4.00    0.40
  -1   4  -3    3.59    0.39
  -1   4  -3    4.18    0.42
  -2  -4  -3    0.34    0.18
  -2  -4  -3    0.15    0.15
  -2   4  -3   -0.08    0.12
  -2   4  -3   -0.22    0.15
   2   4   3   -0.11    0.14
   3   4   3  256.01   14.71
   3   4   3  263.60   14.25
  -3   4  -3  232.88   14.73
   3   4   3  224.64   14.69
   4   4   3    0.12    0.17
  -4   4  -3   -0.12    0.16
   4   4   3   -0.10    0.18
   4   4   3   -0.10    0.16
  -4   4  -3    0.07    0.12
  -5   4  -3    0.46    0.24
  -5   4  -3    1.00    0.21
  -5   4  -3    0.47    0.16
   5   4   3    0.71    0.22
   5   4   3    0.55    0.23
   6   4   3   -0.13    0.18
  -6   4  -3   -0.17    0.16
   6   4   3   -0.07    0.20
  -6   4  -3    0.29    0.17
  -6   4  -3    0.25    0.23
   7   4   3  191.73   11.24
  -7   4  -3  181.97   11.23
  -7   4  -3  187.15   11.17
  -7   4  -3  169.97   10.80
   7   4   3  190.49   10.88
   8   4   3    0.46    0.27
  -8   4  -3   -0.16    0.18
   8   4   3    0.05    0.27
  -8   4  -3   -0.07    0.19
   9   4   3   99.72    5.80
  -9   4  -3   94.68    5.74
  -9   4  -3   84.95    5.55
   9   4   3   89.48    5.61
  10   4   3   -0.02    0.28
 -10   4  -3    0.00    0.24
 -10   4  -3    0.01    0.25
  10   4   3    0.28    0.29
 -11   4  -3   35.75    2.64
 -11   4  -3   45.35    2.77
  11   4   3   40.68    2.73
  11   4   3   42.45    2.81
 -12  -4  -3   -0.03    0.31
  12   4   3   -0.30    0.33
 -12   4  -3    0.70    0.35
 -12   4  -3    0.21    0.30
  12   4   3   -0.31    0.27
 -13  -4  -3    3.00    0.63
 -13   4  -3    2.07    0.49
  13   4   3    1.99    0.54
 -13   4  -3    2.58    0.53
  13   4   3    2.64    0.59
  12   5  -3    0.73    0.37
 -12   5   3    1.32    0.42
 -12   5   3    0.40    0.33
  12   5  -3    0.73    0.40
  11   5  -3    0.42    0.34
  11   5  -3   -0.18    0.32
 -11   5   3    0.22    0.29
 -11   5   3    0.24    0.29
 -10   5   3    0.26    0.25
  10   5  -3    0.91    0.34
 -10   5   3   -0.17    0.28
  10   5  -3    0.24    0.29
  -9   5   3   -0.12    0.23
  -9   5   3   -0.33    0.21
   9   5  -3    0.48    0.31
   9   5  -3   -0.04    0.25
   8   5  -3   18.71    1.51
  -8   5   3   21.84    1.45
  -8   5   3   24.51    1.52
   8   5  -3   20.41    1.51
  -7   5   3   -0.17    0.17
  -7   5   3   -0.14    0.18
   7   5  -3    0.30    0.22
  -7   5   3    0.18    0.28
   7   5  -3   -0.09    0.23
  -6   5   3   29.61    2.13
   6   5  -3   29.46    1.94
   6   5  -3   30.50    2.00
   6   5  -3   30.38    2.08
  -6   5   3   33.08    2.15
  -6   5   3   30.27    1.90
   5   5  -3   -0.10    0.17
   5   5  -3   -0.13    0.25
  -5   5   3    0.07    0.22
  -5   5   3    0.13    0.15
   5   5  -3   -0.08    0.26
   5   5  -3    0.10    0.17
  -5   5   3    0.21    0.29
  -4   5   3   24.90    1.69
   4   5  -3   22.55    1.69
  -4   5   3   24.91    1.49
  -4   5   3   25.31    1.76
   4   5  -3   24.86    1.57
   4   5  -3   24.01    1.72
   4   5  -3   22.22    1.52
   4   5  -3   24.95    1.93
   3   5  -3   -0.24    0.19
  -3   5   3    0.00    0.10
   3   5  -3   -0.17    0.20
  -3   5   3   -0.20    0.18
   3   5  -3    0.08    0.21
  -3   5   3    0.00    0.27
   3   5  -3   -0.05    0.11
  -2   5   3   32.13    2.26
   2   5  -3   30.13    2.20
  -2   5   3   33.48    1.98
  -2   5   3   31.74    2.20
   2   5  -3   35.85    2.00
   2   5  -3   34.13    2.48
   2   5  -3   34.15    2.23
  -1   5   3   -0.06    0.19
  -1   5   3   -0.08    0.22
   1   5  -3    0.04    0.19
   1   5  -3    0.17    0.23
   0   5   3   32.01    1.88
   0   5  -3   28.84    2.11
   0   5   3   33.01    2.14
   0   5   3   31.28    2.06
   0   5  -3   31.35    2.09
   1   5   3    0.04    0.17
  -1   5  -3   -0.13    0.22
   1   5   3   -0.19    0.11
  -1   5  -3    0.14    0.18
   1   5   3    0.05    0.23
   2   5   3    5.17    0.59
  -2   5  -3    5.29    0.61
   2   5   3    5.26    0.54
   2   5   3    4.46    0.40
  -2   5  -3    3.95    0.52
  -3   5  -3   -0.11    0.19
   3   5   3   -0.22    0.17
   3   5   3    0.28    0.22
  -3   5  -3    0.04    0.10
   3   5   3    0.11    0.15
  -3   5  -3   -0.30    0.22
   4   5   3   86.13    5.30
   4   5   3   82.71    5.07
  -4   5  -3   93.24    5.35
  -4   5  -3   84.93    5.01
   4   5   3   82.82    5.23
  -4   5  -3   85.19    5.32
   4   5   3   82.30    5.29
  -5   5  -3   -0.26    0.21
   5   5   3   -0.03    0.23
   5   5   3    0.13    0.18
  -5   5  -3    0.02    0.14
  -5   5  -3    0.05    0.22
   5   5   3   -0.01    0.19
   6   5   3  169.06   10.04
   6   5   3  183.13   10.37
  -6   5  -3  166.37    9.97
  -6   5  -3  155.04   10.36
  -6   5  -3  176.71   10.40
  -7   5  -3    0.01    0.18
   7   5   3   -0.01    0.25
  -7   5  -3    0.43    0.29
   7   5   3   -0.29    0.20
  -8   5  -3   17.56    1.34
  -8   5  -3   16.55    1.18
   8   5   3   17.09    1.28
   8   5   3   14.44    1.28
  -8   5  -3   18.13    1.25
  -9   5  -3   -0.03    0.21
  -9   5  -3    0.01    0.29
   9   5   3    0.03    0.28
   9   5   3   -0.12    0.27
  -9   5  -3    0.11    0.25
 -10   5  -3   32.14    2.04
 -10   5  -3   29.55    2.15
 -10   5  -3   26.05    1.94
  10   5   3   29.53    2.03
  10   5   3   28.28    2.07
 -11   5  -3    0.10    0.35
  11   5   3   -0.04    0.30
 -11   5  -3    0.18    0.28
  11   5   3   -0.31    0.25
 -11   5  -3   -0.01    0.28
  12   5   3    1.44    0.44
 -12   5  -3    0.51    0.45
  12   5   3    0.87    0.42
 -12   5  -3    0.49    0.32
 -12   5  -3    0.68    0.36
 -11   6   3    6.13    0.72
  11   6  -3    6.27    0.80
  11   6  -3    7.23    0.83
 -11   6   3    5.31    0.71
 -10   6   3   -0.09    0.25
 -10   6   3    0.16    0.29
 -10   6   3   -0.13    0.35
  10   6  -3   -0.20    0.30
  10   6  -3   -0.17    0.28
   9   6  -3   46.52    3.12
  -9   6   3   46.68    2.97
  -9   6   3   46.16    3.26
   9   6  -3   49.51    3.04
   8   6  -3   -0.15    0.25
  -8   6   3    0.17    0.39
  -8   6   3   -0.10    0.20
   8   6  -3    0.01    0.24
  -8   6   3    0.09    0.29
  -7   6   3    8.50    0.74
  -7   6   3   10.97    0.98
   7   6  -3   10.31    0.84
  -7   6   3   10.20    1.02
   7   6  -3    9.27    0.85
   6   6  -3    0.42    0.24
   6   6  -3    0.21    0.32
   6   6  -3    0.09    0.21
  -6   6   3   -0.09    0.29
  -6   6   3   -0.19    0.15
  -6   6   3   -0.06    0.25
   5   6  -3   21.79    1.64
  -5   6   3   22.24    1.71
   5   6  -3   22.39    1.46
  -5   6   3   20.29    1.61
  -5   6   3   22.90    1.41
  -4   6   3    0.19    0.26
  -4   6   3   -0.02    0.30
   4   6  -3    0.08    0.27
   4   6  -3    0.43    0.32
   4   6  -3    0.07    0.17
  -4   6   3    0.07    0.13
   3   6  -3    2.09    0.43
  -3   6   3    2.04    0.24
  -3   6   3    2.76    0.47
  -3   6   3    2.20    0.48
   3   6  -3    2.44    0.29
   3   6  -3    2.38    0.45
   2   6  -3    0.08    0.23
  -2   6   3   -0.34    0.21
   2   6  -3    0.04    0.12
  -2   6   3   -0.75    0.22
   2   6  -3   -0.24    0.21
  -2   6   3    0.13    0.11
  -1   6   3   24.29    1.65
  -1   6   3   23.93    1.72
   1   6  -3   23.11    1.69
   1   6  -3   21.82    1.63
   0   6  -3    0.12    0.21
   0   6   3   -0.29    0.23
   0   6   3    0.43    0.25
   0   6   3   -0.04    0.11
   0   6  -3    0.27    0.29
   1   6   3  164.24    9.87
   1   6   3  155.87    9.90
   1   6   3  166.74    9.43
  -1   6  -3  143.30    9.90
  -1   6  -3  176.54    9.92
   2   6   3   -0.14    0.14
  -2   6  -3    0.37    0.30
  -2   6  -3    0.20    0.23
   2   6   3   -0.02    0.28
   2   6   3    0.34    0.24
   3   6   3   85.52    5.86
  -3   6  -3  100.16    5.93
  -3   6  -3   84.29    5.92
   3   6   3   97.50    5.60
   3   6   3  105.03    5.93
   4   6   3    0.19    0.26
  -4   6  -3   -0.11    0.25
   4   6   3    0.07    0.26
  -4   6  -3    0.01    0.14
  -4   6  -3   -0.10    0.26
   4   6   3   -0.21    0.16
  -5   6  -3   65.81    3.85
   5   6   3   65.79    4.12
   5   6   3   59.81    4.13
  -5   6  -3   68.82    4.19
  -5   6  -3   61.70    4.17
   5   6   3   65.83    3.93
   5   6   3   63.91    4.05
   6   6   3    0.00    0.25
  -6   6  -3   -0.23    0.17
   6   6   3   -0.14    0.20
  -6   6  -3   -0.49    0.24
  -6   6  -3   -0.35    0.25
  -7   6  -3    9.96    0.99
  -7   6  -3   10.78    0.83
   7   6   3   10.77    0.91
   7   6   3   10.96    0.95
  -8   6  -3    0.16    0.21
   8   6   3    0.11    0.30
  -8   6  -3   -0.17    0.28
   8   6   3   -0.05    0.24
  -9   6  -3   38.52    2.58
  -9   6  -3   41.33    2.81
   9   6   3   42.92    2.67
   9   6   3   38.70    2.72
  10   6   3    0.14    0.32
  10   6   3   -0.38    0.28
 -10   6  -3   -0.19    0.32
 -10   6  -3   -0.48    0.24
 -10   6  -3   -0.41    0.29
  -9   7   3    0.22    0.26
   9   7  -3    0.17    0.34
  -9   7   3   -0.07    0.36
   9   7  -3    0.30    0.31
  -8   7   3   13.97    1.00
   8   7  -3   12.32    1.06
   8   7  -3   13.04    1.10
  -8   7   3   12.38    1.21
  -8   7   3   11.50    1.22
  -7   7   3   -0.13    0.19
  -7   7   3    0.35    0.35
  -7   7   3    0.14    0.40
   7   7  -3    0.00    0.23
   6   7  -3   20.18    1.65
   6   7  -3   21.51    1.46
  -6   7   3   21.24    1.39
  -6   7   3   21.74    1.67
  -6   7   3   20.28    1.71
  -5   7   3    0.03    0.16
  -5   7   3   -0.27    0.27
  -5   7   3   -0.06    0.35
   5   7  -3    0.02    0.30
   5   7  -3    0.30    0.21
  -4   7   3   13.88    1.26
  -4   7   3   13.72    1.19
  -4   7   3   13.71    0.90
   4   7  -3   13.57    0.97
   4   7  -3   13.03    1.21
   4   7  -3   13.02    1.19
  -3   7   3   -0.23    0.26
   3   7  -3   -0.10    0.28
  -3   7   3   -0.19    0.29
   3   7  -3   -0.01    0.16
   3   7  -3   -0.02    0.32
   2   7  -3   16.80    1.37
   2   7  -3   17.78    1.11
   2   7  -3   16.51    1.40
  -2   7   3   15.84    1.44
  -2   7   3   19.50    1.40
  -1   7   3   -0.16    0.32
   1   7  -3    0.15    0.30
  -1   7   3    0.20    0.27
   1   7  -3    0.15    0.27
   0   7  -3   20.07    1.46
   0   7  -3   18.58    1.39
   0   7   3   15.86    1.34
   0   7   3   16.04    1.42
   1   7   3    0.23    0.30
   1   7   3    0.01    0.15
  -1   7  -3   -0.45    0.26
  -1   7  -3   -0.06    0.26
   1   7   3    0.14    0.24
   2   7   3    3.32    0.57
  -2   7  -3    2.26    0.52
  -2   7  -3    2.42    0.48
   2   7   3    3.37    0.51
   2   7   3    2.25    0.31
   3   7   3    0.02    0.25
  -3   7  -3    0.26    0.30
   3   7   3   -0.06    0.30
   3   7   3    0.27    0.17
  -3   7  -3   -0.31    0.25
  -4   7  -3   39.30    3.19
  -4   7  -3   53.40    3.24
   4   7   3   50.48    3.21
   4   7   3   44.43    2.95
   4   7   3   53.98    3.22
   5   7   3   -0.46    0.20
  -5   7  -3   -0.01    0.30
  -5   7  -3    0.07    0.35
   5   7   3    0.25    0.34
  -5   7  -3    0.08    0.18
   5   7   3   -0.18    0.30
   6   7   3   91.63    6.14
  -6   7  -3  102.79    6.07
  -6   7  -3  114.55    6.53
   7   7   3    0.03    0.29
  -7   7  -3   -0.05    0.32
  -7   7  -3   -0.10    0.21
   7   7   3    0.36    0.28
  -8   7  -3    8.44    1.03
   8   7   3    9.15    0.86
  -8   7  -3    8.14    0.78
   8   7   3    9.49    0.93
   9   7   3   -0.05    0.26
  -9   7  -3    0.25    0.39
  -9   7  -3    0.16    0.27
   9   7   3   -0.57    0.29
  -6   8   3    0.25    0.22
   6   8  -3   -0.09    0.23
  -6   8   3   -0.74    0.30
   6   8  -3   -0.14    0.38
  -6   8   3    0.38    0.39
   5   8  -3    8.27    0.72
  -5   8   3    8.97    1.07
  -5   8   3    8.69    1.00
   5   8  -3    6.11    0.92
   4   8  -3    0.05    0.38
   4   8  -3   -0.30    0.29
   4   8  -3    0.06    0.22
  -4   8   3    0.22    0.33
  -4   8   3   -0.30    0.37
   3   8  -3   10.06    1.16
   3   8  -3   14.94    0.95
  -3   8   3   14.98    1.35
   3   8  -3   11.10    1.23
  -3   8   3   14.12    1.21
   2   8  -3   -0.08    0.33
   2   8  -3   -0.09    0.30
  -2   8   3    0.96    0.43
  -2   8   3    0.30    0.32
   1   8  -3    0.23    0.36
  -1   8   3    0.45    0.42
   1   8  -3    0.07    0.27
  -1   8   3    0.56    0.35
   0   8   3   -0.09    0.32
   0   8  -3   -0.10    0.30
   0   8  -3    0.11    0.31
   0   8   3   -0.13    0.24
  -1   8  -3    8.06    0.93
  -1   8  -3    5.22    0.74
   1   8   3    7.15    0.82
   1   8   3    6.62    0.88
   2   8   3   -0.19    0.19
   2   8   3    0.08    0.29
   2   8   3    0.30    0.36
  -2   8  -3    0.10    0.37
  -2   8  -3   -0.69    0.24
  -3   8  -3   93.78    5.63
  -3   8  -3   92.16    5.64
   3   8   3   79.48    5.20
   3   8   3   84.36    5.55
   3   8   3   89.63    5.58
   4   8   3    0.33    0.36
  -4   8  -3    0.16    0.34
   4   8   3   -0.21    0.31
   4   8   3   -0.08    0.20
  -4   8  -3   -0.01    0.38
   5   8   3   -0.18    0.36
  -5   8  -3    0.45    0.35
   5   8   3    0.21    0.26
  -5   8  -3   -0.38    0.36
   5   8   3    0.85    0.40
   6   8   3   -0.02    0.23
  -6   8  -3    0.02    0.41
  -6   8  -3    0.06    0.31
 -14   0   4    0.21    0.34
 -14   0   4    0.23    0.30
  14   0  -4    0.50    0.36
  13   0  -4   -0.26    0.33
 -13   0   4    0.27    0.30
 -13   0   4   -0.08    0.28
 -12   0   4    0.02    0.27
 -12   0   4    0.50    0.28
  12   0  -4    0.06    0.30
 -11   0   4   -0.22    0.24
  11   0  -4   -0.01    0.27
  11   0  -4    0.31    0.36
 -11   0   4    0.00    0.25
 -10   0   4    1.13    0.30
  10   0  -4    0.93    0.31
  10   0  -4    0.41    0.28
 -10   0   4    1.11    0.35
  -9   0   4   -0.10    0.18
   9   0  -4   -0.30    0.20
  -9   0   4    0.16    0.24
   9   0  -4   -0.70    0.17
  -9   0   4   -0.21    0.21
  -8   0   4   41.28    2.66
   8   0  -4   41.40    2.68
   8   0  -4   38.45    2.68
  -8   0   4   46.27    2.69
   8   0  -4   40.52    3.12
   7   0  -4   -0.01    0.16
   7   0  -4   -0.10    0.17
  -7   0   4   -0.15    0.14
  -7   0   4    0.15    0.17
   7   0  -4    0.08    0.18
   6   0  -4   21.38    1.47
  -6   0   4   25.42    1.48
   6   0  -4   22.31    1.71
  -6   0   4   20.27    1.46
   6   0  -4   20.87    1.46
   5   0  -4    0.03    0.14
   5   0  -4   -0.10    0.14
   5   0  -4   -0.14    0.13
  -5   0   4   -0.08    0.13
  -5   0   4    0.12    0.15
  -4   0   4   79.04    5.52
   4   0  -4   86.85    5.53
  -4   0   4   69.96    4.79
   3   0  -4    0.03    0.15
  -3   0   4   -0.12    0.15
  -2   0   4   14.18    0.99
   2   0  -4   11.19    0.97
   1   0  -4    0.08    0.13
  -1   0   4   -0.13    0.14
   0   0   4  988.80   68.30
   0   0  -4 1000.00   68.30
   1   0   4   -0.10    0.12
  -1   0  -4   -0.21    0.11
   2   0   4   16.38    1.35
  -2   0  -4   19.03    1.36
   3   0   4   -0.13    0.14
  -3   0  -4    0.15    0.16
  -4   0  -4  287.74   17.10
  -4   0  -4  280.75   19.65
  -5   0  -4   -0.01    0.14
   5   0   4   -0.05    0.15
  -5   0  -4   -0.02    0.13
  -5   0  -4   -0.02    0.15
   5   0   4    0.10    0.17
  -6   0  -4   56.17    3.30
  -6   0  -4   58.30    3.85
   6   0   4   48.96    3.29
  -6   0  -4   48.25    3.26
   7   0   4    0.17    0.21
   7   0   4    0.14    0.19
  -7   0  -4    0.35    0.18
  -7   0  -4   -0.20    0.14
  -7   0  -4   -0.23    0.15
   8   0   4   22.47    1.46
  -8   0  -4   23.45    1.41
  -8   0  -4   18.23    1.41
   8   0   4   20.53    1.43
  -8   0  -4   19.39    1.40
  -8   0  -4   18.98    1.68
   9   0   4   -0.12    0.22
  -9   0  -4    0.04    0.20
   9   0   4   -0.14    0.23
  -9   0  -4   -0.48    0.18
  -9   0  -4   -0.05    0.20
 -10   0  -4    6.48    0.66
  10   0   4    4.89    0.64
 -10   0  -4    5.99    0.67
  10   0   4    5.09    0.63
 -11   0  -4    0.38    0.30
  11   0   4   -0.10    0.29
 -11   0  -4   -0.30    0.22
 -12   0  -4   16.28    1.28
  12   0   4   14.25    1.29
 -12   0  -4   16.25    1.23
  13   0   4    0.06    0.35
 -13   0  -4   -0.10    0.32
 -13   0  -4    0.20    0.29
  14   0   4    0.96    0.46
 -14   0  -4    0.46    0.33
 -14   0  -4    1.22    0.43
  14  -1  -4   -0.07    0.31
 -14  -1   4    0.02    0.29
 -14   1   4    0.08    0.27
  14   1  -4   -0.27    0.31
 -14   1   4    0.24    0.36
  13  -1  -4    4.74    0.71
 -13  -1   4    3.11    0.58
  13   1  -4    2.97    0.54
 -13   1   4    4.00    0.64
 -13   1   4    3.94    0.53
  13   1  -4    3.43    0.65
 -12  -1   4   -0.42    0.27
  12  -1  -4   -0.08    0.31
 -12   1   4   -0.19    0.23
 -12   1   4   -0.26    0.27
  12   1  -4    0.14    0.29
  12   1  -4   -0.02    0.27
 -11  -1   4    7.00    0.74
  11  -1  -4    5.75    0.72
 -11  -1   4    4.84    0.64
  11   1  -4    5.58    0.69
  11   1  -4    4.88    0.67
 -11   1   4    5.19    0.61
 -11   1   4    5.29    0.71
 -11   1   4    5.49    0.65
  10  -1  -4   -0.18    0.25
 -10  -1   4   -0.08    0.23
 -10  -1   4    0.32    0.26
  10   1  -4    0.17    0.25
  10   1  -4    0.06    0.24
 -10   1   4    0.02    0.25
 -10   1   4    0.06    0.22
 -10   1   4    0.11    0.22
  -9  -1   4    3.53    0.45
   9  -1  -4    3.57    0.56
   9  -1  -4    2.50    0.45
  -9  -1   4    3.11    0.46
   9   1  -4    2.28    0.42
  -9   1   4    3.58    0.45
   9   1  -4    2.85    0.44
  -9   1   4    3.74    0.46
   9   1  -4    4.18    0.50
  -9   1   4    2.67    0.42
  -8  -1   4   -0.17    0.20
   8  -1  -4   -0.08    0.23
   8  -1  -4    0.12    0.24
  -8  -1   4    0.53    0.22
  -8   1   4   -0.11    0.17
   8   1  -4   -0.11    0.20
   8   1  -4   -0.24    0.16
   8   1  -4    0.15    0.24
  -8   1   4    0.70    0.24
  -8   1   4   -0.11    0.17
   8   1  -4   -0.30    0.16
  -7  -1   4   26.05    1.69
  -7  -1   4   26.45    1.72
   7  -1  -4   26.01    1.69
   7  -1  -4   26.40    1.98
   7  -1  -4   27.69    1.73
   7   1  -4   26.22    1.69
   7   1  -4   22.81    1.97
  -7   1   4   25.06    1.66
   7   1  -4   24.70    1.70
  -7   1   4   24.00    1.69
  -7   1   4   25.80    1.67
  -6  -1   4   -0.19    0.15
   6  -1  -4    0.03    0.15
   6  -1  -4    0.05    0.16
  -6  -1   4    0.20    0.17
   6  -1  -4    0.17    0.18
  -6   1   4    0.37    0.17
   6   1  -4   -0.24    0.13
   6   1  -4    0.10    0.18
  -6   1   4    0.03    0.14
   6   1  -4   -0.22    0.20
  -5  -1   4   19.46    1.36
   5  -1  -4   20.38    1.56
   5   1  -4   20.12    1.35
  -5   1   4   18.61    1.36
  -5   1   4   19.52    1.33
   5   1  -4   22.66    1.61
  -5   1   4   22.19    1.61
   5   1  -4   23.00    1.39
   4  -1  -4   -0.02    0.13
  -4   1   4   -0.18    0.11
   4   1  -4    0.03    0.16
  -4   1   4   -0.05    0.12
   4   1  -4    0.15    0.14
  -3  -1   4  530.79   38.27
   3  -1  -4  623.39   38.25
   3   1  -4  510.25   38.26
  -3   1   4  557.83   38.23
   2  -1  -4    0.15    0.13
  -2  -1   4    0.09    0.14
  -2   1   4   -0.04    0.12
   2   1  -4    0.04    0.15
  -1  -1   4   19.19    1.31
   1  -1  -4   15.89    1.27
  -1   1   4   18.70    1.29
   1   1  -4   15.13    1.29
   0  -1  -4    0.00    0.12
   0  -1   4    0.05    0.13
   0   1  -4   -0.09    0.12
   0   1   4   -0.19    0.12
  -1  -1  -4   38.48    2.62
   1  -1   4   32.14    2.61
   1   1   4   37.33    2.62
  -1   1  -4   38.84    2.61
  -2  -1  -4   -0.08    0.12
   2  -1   4   -0.18    0.11
  -2   1  -4    0.04    0.13
   2   1   4    0.03    0.14
  -3  -1  -4  104.02    7.99
   3  -1   4  117.79    7.98
  -3   1  -4  121.91    7.98
  -4  -1  -4   -0.15    0.13
   4   1   4   -0.10    0.14
  -4   1  -4   -0.11    0.12
  -4   1  -4   -0.08    0.12
  -5  -1  -4    6.30    0.53
  -5  -1  -4    6.59    0.67
  -5   1  -4    6.29    0.53
   5   1   4    6.47    0.55
  -5   1  -4    6.62    0.51
  -5   1  -4    6.64    0.63
   5   1   4    4.58    0.53
  -6  -1  -4   -0.20    0.13
  -6  -1  -4    0.08    0.21
   6  -1   4   -0.05    0.16
  -6  -1  -4   -0.01    0.13
  -6   1  -4   -0.15    0.16
  -6   1  -4    0.16    0.15
  -6   1  -4    0.09    0.18
   6   1   4    0.35    0.20
   6   1   4    0.15    0.18
  -7  -1  -4   49.92    3.13
   7  -1   4   52.41    3.17
  -7  -1  -4   50.78    3.70
   7  -1   4   48.48    3.14
  -7  -1  -4   49.02    3.14
   7   1   4   50.05    3.16
  -7   1  -4   50.17    3.65
  -7   1  -4   44.38    3.05
  -7   1  -4   53.66    3.17
  -7   1  -4   48.93    3.10
   7   1   4   51.50    3.19
  -8  -1  -4   -0.33    0.18
  -8  -1  -4   -0.16    0.19
   8  -1   4    0.32    0.24
  -8   1  -4    0.19    0.21
   8   1   4    0.16    0.23
  -8   1  -4    0.33    0.24
  -8   1  -4   -0.11    0.16
  -8   1  -4   -0.03    0.19
   8   1   4    0.28    0.23
   8   1   4   -0.09    0.19
  -9  -1  -4   43.82    2.81
  -9  -1  -4   43.55    2.82
   9  -1   4   40.04    2.81
  -9   1  -4   43.04    2.83
  -9   1  -4   47.07    2.78
   9   1   4   47.63    2.84
  -9   1  -4   44.85    2.76
   9   1   4   38.10    2.84
 -10  -1  -4   -0.08    0.22
  10  -1   4   -0.22    0.23
 -10  -1  -4   -0.23    0.23
 -10   1  -4    0.21    0.22
 -10   1  -4   -0.44    0.20
 -10   1  -4    0.01    0.24
  10   1   4   -0.34    0.23
  10   1   4   -0.17    0.28
 -11  -1  -4   14.08    1.16
  11  -1   4   15.01    1.22
 -11  -1  -4   13.52    1.16
  11   1   4   15.97    1.24
 -11   1  -4   15.67    1.18
  11   1   4   14.39    1.20
 -11   1  -4   15.33    1.19
 -11   1  -4   13.35    1.09
 -12  -1  -4   -0.33    0.29
 -12  -1  -4   -0.14    0.25
  12  -1   4   -0.01    0.29
  12   1   4    0.60    0.34
 -12   1  -4   -0.02    0.22
  12   1   4   -0.37    0.28
 -12   1  -4    0.30    0.33
 -12   1  -4    0.09    0.29
  13  -1   4    0.66    0.36
 -13  -1  -4    0.19    0.33
 -13   1  -4    0.52    0.35
 -13   1  -4    0.57    0.27
  13   1   4    0.08    0.30
 -14  -1  -4   -0.10    0.27
  14  -1   4    0.43    0.39
  14   1   4    0.26    0.32
 -14   1  -4    0.20    0.26
 -14   1  -4    0.44    0.37
 -14  -2   4    2.44    0.51
  14  -2  -4    1.55    0.51
  14   2  -4    1.90    0.46
 -14   2   4    1.03    0.44
 -14   2   4    2.04    0.53
  14   2  -4    1.39    0.49
  13  -2  -4    0.22    0.38
 -13  -2   4   -0.37    0.27
 -13   2   4   -0.05    0.29
  13   2  -4    0.04    0.32
 -13   2   4   -0.28    0.31
  13   2  -4   -0.13    0.30
  12  -2  -4   84.23    5.02
 -12  -2   4   80.40    4.95
 -12   2   4   71.70    5.00
  12   2  -4   73.11    5.00
 -12   2   4   83.00    4.86
  12   2  -4   78.30    4.93
 -11  -2   4   -0.01    0.22
  11  -2  -4   -0.30    0.30
 -11   2   4   -0.12    0.19
 -11   2   4   -0.23    0.22
 -11   2   4    0.07    0.26
  11   2  -4   -0.27    0.25
  11   2  -4    0.10    0.27
  10  -2  -4   71.42    4.67
 -10  -2   4   74.98    4.65
  10   2  -4   76.15    4.63
  10   2  -4   77.57    4.70
 -10   2   4   74.19    4.54
 -10   2   4   69.81    4.52
  10   2  -4   77.31    4.57
 -10   2   4   71.26    4.66
   9  -2  -4   -0.18    0.23
  -9  -2   4    0.55    0.27
  -9   2   4   -0.17    0.20
   9   2  -4    0.05    0.23
   9   2  -4   -0.23    0.23
   9   2  -4    0.15    0.26
  -9   2   4    0.09    0.18
  -9   2   4   -0.33    0.18
  -8  -2   4    3.97    0.52
   8  -2  -4    4.85    0.55
   8   2  -4    5.00    0.56
  -8   2   4    4.46    0.50
   8   2  -4    3.52    0.48
   8   2  -4    4.11    0.51
  -8   2   4    3.95    0.50
  -8   2   4    4.72    0.43
   7  -2  -4   -0.07    0.20
   7  -2  -4   -0.06    0.20
  -7  -2   4    0.03    0.20
   7   2  -4    0.04    0.22
  -7   2   4   -0.23    0.13
  -7   2   4   -0.05    0.14
  -7   2   4   -0.08    0.15
   7   2  -4    0.24    0.20
   7   2  -4    0.10    0.18
   7   2  -4   -0.03    0.15
   6  -2  -4  465.47   29.38
   6   2  -4  361.98   25.60
   6   2  -4  447.98   24.81
  -6   2   4  445.24   25.39
  -6   2   4  425.61   25.61
   6   2  -4  451.73   25.43
  -6   2   4  402.36   24.80
   6   2  -4  408.83   29.44
   5  -2  -4   -0.08    0.14
   5   2  -4   -0.01    0.15
   5   2  -4    0.12    0.15
  -5   2   4    0.00    0.13
   5   2  -4   -0.05    0.11
  -5   2   4   -0.22    0.14
   4  -2  -4    0.71    0.18
  -4   2   4    0.38    0.16
   4   2  -4    0.37    0.19
   4   2  -4    0.35    0.16
  -4   2   4    0.52    0.16
   3  -2  -4    0.12    0.12
   3   2  -4   -0.08    0.14
  -3   2   4   -0.11    0.10
  -3   2   4   -0.28    0.10
   3   2  -4   -0.07    0.12
   2  -2  -4  130.15    9.18
  -2  -2   4  135.18    9.24
  -2   2   4  143.88    9.19
   2   2  -4  121.99    9.23
   1  -2  -4    0.08    0.11
  -1  -2   4   -0.08    0.12
   1   2  -4   -0.12    0.13
  -1   2   4    0.20    0.12
   0  -2   4  165.33   11.52
   0  -2  -4  168.59   11.49
   0   2   4  164.36   11.50
  -1  -2  -4    0.07    0.12
   1  -2   4    0.02    0.12
  -1   2  -4   -0.07    0.13
   2  -2   4   13.62    1.04
  -2  -2  -4   14.97    1.09
  -2   2  -4   11.65    1.03
   3  -2   4    0.04    0.13
  -3  -2  -4   -0.08    0.15
  -3   2  -4   -0.14    0.12
   3   2   4   -0.11    0.13
  -4  -2  -4    2.32    0.41
   4   2   4    3.87    0.39
   4   2   4    2.97    0.33
  -4   2  -4    3.13    0.33
  -4   2  -4    2.09    0.34
  -5  -2  -4    0.07    0.18
   5   2   4    0.03    0.17
  -5   2  -4    0.12    0.14
  -5   2  -4    0.07    0.14
  -5   2  -4    0.05    0.15
   5   2   4    0.06    0.16
  -6  -2  -4   15.11    1.12
  -6  -2  -4   17.47    1.15
  -6   2  -4   16.52    1.15
   6   2   4   17.32    1.15
   6   2   4   16.13    1.18
  -6   2  -4   17.79    1.33
  -6   2  -4   14.91    1.05
   6   2   4   17.26    1.17
  -6   2  -4   17.35    1.12
  -7  -2  -4    0.18    0.19
  -7  -2  -4   -0.01    0.16
   7   2   4   -0.21    0.19
  -7   2  -4   -0.29    0.15
   7   2   4    0.30    0.22
   7   2   4   -0.06    0.20
  -7   2  -4   -0.03    0.11
  -7   2  -4   -0.22    0.15
  -7   2  -4   -0.12    0.18
  -8  -2  -4    7.20    0.68
  -8   2  -4    8.26    0.68
   8   2   4    6.70    0.73
   8   2   4    7.07    0.70
   8   2   4    6.62    0.67
  -8   2  -4    6.85    0.76
  -8   2  -4    7.10    0.65
  -8   2  -4    7.36    0.55
  -9  -2  -4   -0.37    0.20
   9   2   4    0.04    0.23
   9   2   4    0.00    0.24
  -9   2  -4    0.05    0.17
  -9   2  -4   -0.14    0.19
   9   2   4    0.04    0.24
  -9   2  -4    0.04    0.21
 -10  -2  -4   94.35    5.96
  10  -2   4   95.06    5.97
 -10   2  -4   89.43    5.83
  10   2   4   91.59    5.93
  10   2   4  104.56    6.04
 -10   2  -4   95.25    5.99
  10   2   4  102.03    5.89
 -10   2  -4   97.82    5.82
  11  -2   4    0.66    0.34
 -11  -2  -4   -0.33    0.25
 -11   2  -4   -0.09    0.26
  11   2   4   -0.16    0.25
 -11   2  -4    0.00    0.25
  11   2   4   -0.16    0.27
 -12  -2  -4   37.70    2.66
  12  -2   4   39.65    2.70
  12   2   4   32.84    2.67
  12   2   4   40.91    2.62
 -12   2  -4   39.17    2.68
 -12   2  -4   46.68    2.67
  13  -2   4   -0.09    0.33
 -13  -2  -4   -0.19    0.31
  13   2   4    0.06    0.34
  13   2   4    0.07    0.33
 -13   2  -4    0.00    0.33
 -13   2  -4    0.07    0.32
  14  -2   4   59.61    3.86
 -14  -2  -4   52.69    3.80
 -14   2  -4   57.78    3.76
  14   2   4   55.72    3.86
 -14   2  -4   58.89    3.86
  14   2   4   64.00    3.79
 -13  -3   4    2.13    0.49
 -13   3   4    3.08    0.54
 -13   3   4    1.80    0.47
  13   3  -4    2.46    0.45
  13   3  -4    2.67    0.56
 -12  -3   4    0.19    0.30
  12   3  -4   -0.12    0.26
 -12   3   4    0.56    0.32
 -12   3   4    0.00    0.24
  12   3  -4   -0.07    0.31
  12   3  -4   -0.07    0.29
 -11  -3   4    5.69    0.68
 -11   3   4    4.82    0.64
 -11   3   4    6.55    0.70
  11   3  -4    4.46    0.56
  11   3  -4    4.60    0.64
  11   3  -4    5.36    0.69
 -10  -3   4   -0.31    0.24
  10   3  -4   -0.50    0.22
 -10   3   4   -0.06    0.24
 -10   3   4    0.41    0.26
  10   3  -4    0.34    0.27
  10   3  -4   -0.25    0.21
  -9  -3   4    1.68    0.40
  -9   3   4    1.43    0.34
   9   3  -4    2.62    0.35
  -9   3   4    2.35    0.42
   9   3  -4    1.92    0.41
   9   3  -4    1.89    0.40
  -8  -3   4    0.13    0.23
   8   3  -4   -0.12    0.20
   8   3  -4   -0.07    0.16
   8   3  -4   -0.07    0.21
  -8   3   4    0.18    0.22
  -8   3   4    0.02    0.18
  -7   3   4   24.92    1.54
  -7   3   4   24.59    1.62
   7   3  -4   22.35    1.56
  -7   3   4   21.73    1.48
   7   3  -4   20.82    1.43
   6   3  -4   -0.05    0.10
  -6   3   4    0.09    0.15
   6   3  -4   -0.02    0.15
   6   3  -4    0.12    0.17
   6   3  -4   -0.26    0.21
  -6   3   4    0.23    0.18
   5   3  -4   16.40    1.09
   5   3  -4   16.06    1.06
  -5   3   4   15.22    1.06
   5   3  -4   14.68    1.30
  -5   3   4   16.17    1.05
   4  -3  -4   -0.05    0.11
   4   3  -4    0.03    0.13
  -4   3   4    0.07    0.12
   4   3  -4    0.19    0.14
  -4   3   4   -0.04    0.11
   4   3  -4    0.04    0.17
   3  -3  -4  446.73   29.46
   3   3  -4  390.44   25.71
   3   3  -4  385.83   25.70
  -3   3   4  471.51   25.71
  -3   3   4  416.14   29.46
   3   3  -4  460.40   29.58
   2  -3  -4   -0.31    0.09
  -2   3   4   -0.07    0.10
   2   3  -4    0.03    0.16
   2   3  -4   -0.01    0.15
  -1  -3   4   13.47    1.12
   1  -3  -4   14.79    1.06
   1   3  -4   13.94    1.00
   1   3  -4   14.31    1.12
   0  -3  -4    0.07    0.10
   0  -3   4    0.03    0.13
   0  -3  -4   -0.29    0.12
   0   3  -4   -0.02    0.13
   0   3  -4    0.02    0.14
  -1  -3  -4   32.69    2.19
   1  -3   4   29.10    2.19
  -1  -3  -4   30.67    2.19
  -1   3  -4   28.26    2.18
  -2  -3  -4    0.02    0.17
  -2  -3  -4    0.10    0.14
   2  -3   4   -0.09    0.12
  -2   3  -4    0.06    0.12
  -2   3  -4    0.13    0.16
   2   3   4   -0.03    0.13
  -3  -3  -4  108.21    7.02
   3  -3   4   94.37    6.95
  -3   3  -4   94.88    6.95
   3   3   4   91.12    6.07
  -3   3  -4  111.00    6.09
   4  -3   4   -0.01    0.14
  -4  -3  -4    0.05    0.19
   4   3   4   -0.08    0.16
  -4   3  -4   -0.03    0.12
   4   3   4   -0.10    0.14
  -4   3  -4    0.05    0.13
  -4   3  -4   -0.17    0.14
  -4   3  -4    0.13    0.13
  -5   3  -4    4.99    0.49
  -5   3  -4    4.75    0.46
   5   3   4    4.86    0.53
  -5   3  -4    5.49    0.54
   5   3   4    4.71    0.40
   5   3   4    4.93    0.49
  -5   3  -4    5.56    0.46
  -6   3  -4   -0.21    0.17
  -6   3  -4    0.10    0.18
   6   3   4   -0.07    0.18
  -6   3  -4   -0.10    0.16
   6   3   4    0.07    0.16
   6   3   4    0.22    0.21
  -7  -3  -4   44.81    2.92
  -7   3  -4   46.43    2.92
   7   3   4   46.09    2.89
   7   3   4   46.98    2.97
  -7   3  -4   46.42    2.84
   7   3   4   44.87    2.86
  -8  -3  -4    0.01    0.19
   8   3   4    0.02    0.20
  -8   3  -4    0.05    0.19
   8   3   4   -0.03    0.23
  -8   3  -4   -0.15    0.19
   8   3   4   -0.12    0.19
  -9  -3  -4   45.10    2.67
   9   3   4   41.48    2.59
  -9   3  -4   39.49    2.65
   9   3   4   40.44    2.70
   9   3   4   37.94    2.63
  -9   3  -4   38.10    2.57
 -10  -3  -4    0.00    0.25
 -10   3  -4   -0.40    0.22
  10   3   4    0.20    0.25
 -10   3  -4   -0.13    0.25
  10   3   4    0.11    0.29
  10   3   4    0.36    0.32
 -11  -3  -4   14.36    1.14
  11   3   4   13.86    1.06
 -11   3  -4   12.66    1.07
 -11   3  -4   11.18    1.07
  11   3   4   11.83    1.12
  11   3   4   14.01    1.17
 -12  -3  -4    0.13    0.31
  12   3   4    0.27    0.32
 -12   3  -4   -0.09    0.27
 -12   3  -4    0.22    0.30
  12   3   4    0.51    0.32
 -13  -3  -4    0.04    0.32
  13   3   4    0.31    0.39
  13   3   4    0.59    0.30
 -13   3  -4    0.39    0.35
 -13   3  -4    0.54    0.37
 -13  -4   4    0.35    0.37
  13   4  -4   -0.01    0.33
 -13   4   4    0.17    0.32
  13   4  -4   -0.08    0.33
 -13   4   4    0.58    0.37
 -12   4   4    0.12    0.31
  12   4  -4    0.61    0.36
 -12   4   4    0.08    0.28
  12   4  -4    1.10    0.41
  11   4  -4    0.30    0.33
 -11   4   4    0.46    0.31
 -11   4   4   -0.47    0.25
  11   4  -4    0.06    0.31
  10   4  -4    0.64    0.31
 -10   4   4    0.15    0.26
  10   4  -4    0.53    0.32
 -10   4   4    0.00    0.25
  -9   4   4   -0.09    0.21
   9   4  -4   -0.31    0.24
  -9   4   4    0.27    0.25
   9   4  -4   -0.17    0.25
   8   4  -4   26.11    1.84
  -8   4   4   25.94    1.80
  -8   4   4   31.53    1.91
   8   4  -4   28.09    1.92
  -7   4   4    0.20    0.17
   7   4  -4   -0.20    0.18
  -7   4   4    0.08    0.18
   7   4  -4    0.19    0.19
  -7   4   4    0.11    0.26
  -6   4   4   23.35    1.55
  -6   4   4   20.99    1.41
   6   4  -4   19.84    1.43
   6   4  -4   20.07    1.40
  -6   4   4   21.75    1.38
   5   4  -4    0.07    0.16
  -5   4   4    0.11    0.14
   5   4  -4    0.18    0.21
   5   4  -4    0.07    0.16
  -5   4   4   -0.08    0.21
  -5   4   4   -0.13    0.13
   5   4  -4    0.12    0.26
  -4   4   4   45.28    2.78
   4   4  -4   49.41    2.90
  -4   4   4   43.53    3.00
  -4   4   4   48.81    2.87
   4   4  -4   47.76    3.41
   4   4  -4   42.54    2.96
   4   4  -4   46.49    2.80
   3   4  -4   -0.11    0.17
  -3   4   4    0.10    0.11
   3   4  -4    0.02    0.11
  -3   4   4    0.06    0.10
  -3   4   4   -0.11    0.16
  -3   4   4   -0.34    0.17
   3   4  -4    0.07    0.22
   3   4  -4    0.13    0.13
   3   4  -4   -0.19    0.17
  -2   4   4    3.86    0.50
  -2   4   4    4.13    0.35
   2   4  -4    3.11    0.33
   2   4  -4    5.62    0.50
   2   4  -4    4.84    0.52
   2   4  -4    3.46    0.48
   2   4  -4    4.09    0.34
  -2   4   4    4.50    0.47
  -1   4   4    0.09    0.15
  -1   4   4   -0.45    0.15
   1   4  -4    0.43    0.17
   1   4  -4    0.10    0.20
   1   4  -4   -0.10    0.15
   0   4   4  610.44   37.15
   0   4  -4  551.49   42.70
   0   4  -4  702.73   37.20
  -1  -4  -4   -0.16    0.13
   1  -4   4    0.21    0.16
   1   4   4   -0.04    0.14
  -1   4  -4   -0.15    0.13
   1   4   4   -0.04    0.11
   1   4   4    0.05    0.13
  -1   4  -4   -0.19    0.14
  -2  -4  -4   12.06    0.97
   2   4   4   12.52    0.82
  -2   4  -4   11.14    0.88
  -2   4  -4   10.69    0.93
   2   4   4   11.18    0.80
   2   4   4   12.87    0.87
  -3  -4  -4   -0.13    0.17
   3   4   4    0.13    0.16
  -3   4  -4    0.18    0.18
  -3   4  -4    0.09    0.17
   3   4   4   -0.24    0.13
  -3   4  -4   -0.07    0.11
   3   4   4   -0.12    0.15
  -4  -4  -4  178.82   12.61
  -4   4  -4  176.36   10.56
   4   4   4  172.32   10.94
   4   4   4  184.66   10.60
  -4   4  -4  168.53   10.88
   4   4   4  196.22   10.95
  -4   4  -4  189.34   10.96
  -5   4  -4   -0.03    0.19
  -5   4  -4    0.10    0.16
   5   4   4   -0.09    0.17
  -5   4  -4    0.02    0.16
  -5   4  -4    0.11    0.21
   5   4   4    0.10    0.19
  -6   4  -4   35.05    2.03
  -6   4  -4   31.83    2.07
   6   4   4   32.33    2.13
  -6   4  -4   32.57    2.14
   6   4   4   28.60    2.04
  -7   4  -4    0.07    0.21
  -7   4  -4    0.15    0.23
   7   4   4    0.40    0.24
   7   4   4    0.05    0.24
  -7   4  -4    0.32    0.20
  -8   4  -4   13.23    1.07
  -8   4  -4   11.98    0.98
  -8   4  -4   11.65    0.95
   8   4   4   14.28    1.05
   8   4   4   11.59    1.03
   9   4   4   -0.27    0.23
  -9   4  -4    0.20    0.24
   9   4   4    0.02    0.24
  -9   4  -4    0.23    0.26
 -10   4  -4    2.24    0.44
  10   4   4    2.46    0.51
 -10   4  -4    3.10    0.49
  10   4   4    2.60    0.50
 -11   4  -4    0.03    0.28
  11   4   4    0.08    0.30
  11   4   4   -0.14    0.30
 -11   4  -4    0.34    0.33
 -12  -4  -4   13.65    1.19
  12   4   4   11.56    1.14
  12   4   4   11.90    1.17
 -12   4  -4   12.46    1.11
 -12   4  -4   12.85    1.10
  12   5  -4    0.26    0.31
 -12   5   4   -0.36    0.26
 -12   5   4    0.25    0.29
  12   5  -4   -0.30    0.28
  11   5  -4    2.61    0.54
 -11   5   4    3.14    0.50
 -11   5   4    3.44    0.54
  11   5  -4    2.46    0.50
  10   5  -4   -0.11    0.29
 -10   5   4   -0.08    0.24
 -10   5   4   -0.23    0.25
  10   5  -4   -0.28    0.26
  -9   5   4    2.45    0.42
   9   5  -4    3.28    0.51
  -9   5   4    2.51    0.44
   9   5  -4    2.23    0.46
   8   5  -4   -0.14    0.24
   8   5  -4    0.02    0.23
  -8   5   4    0.45    0.34
  -8   5   4   -0.09    0.18
  -8   5   4   -0.03    0.24
  -7   5   4   16.24    1.13
  -7   5   4   14.35    1.31
   7   5  -4   16.96    1.17
   7   5  -4   16.86    1.21
  -7   5   4   15.90    1.17
  -6   5   4    0.01    0.30
  -6   5   4   -0.22    0.14
   6   5  -4   -0.13    0.29
   6   5  -4    0.38    0.22
   6   5  -4    0.12    0.20
  -6   5   4    0.15    0.19
  -5   5   4   13.39    0.88
  -5   5   4   12.58    1.08
   5   5  -4   12.33    0.91
  -5   5   4   12.89    1.05
   5   5  -4   11.95    1.05
   5   5  -4   11.77    0.90
   4   5  -4    0.26    0.16
  -4   5   4    0.06    0.14
   4   5  -4    0.36    0.17
  -4   5   4   -0.39    0.19
  -4   5   4   -0.03    0.27
   4   5  -4   -0.08    0.24
   4   5  -4   -0.16    0.24
   4   5  -4    0.53    0.29
  -3   5   4  276.74   16.71
   3   5  -4  294.60   19.16
  -3   5   4  276.74   16.05
   3   5  -4  261.21   16.07
   3   5  -4  253.88   16.66
  -3   5   4  294.08   16.68
  -2   5   4   -0.01    0.25
   2   5  -4    0.10    0.21
   2   5  -4    0.22    0.13
  -2   5   4    0.09    0.19
   2   5  -4    0.22    0.20
   2   5  -4    0.00    0.23
  -2   5   4   -0.05    0.11
   1   5  -4   10.55    0.81
   1   5  -4    8.88    0.60
   1   5  -4    7.68    0.79
  -1   5   4    9.33    0.85
  -1   5   4    8.83    0.77
  -1   5   4    9.09    0.61
   0   5   4   -0.15    0.23
   0   5  -4   -0.03    0.08
   0   5   4   -0.24    0.10
   0   5   4    0.09    0.18
   0   5  -4   -0.29    0.19
   0   5  -4   -0.18    0.17
   1   5   4   17.61    1.41
   1   5   4   21.40    1.30
  -1   5  -4   20.88    1.46
  -1   5  -4   21.86    1.26
  -1   5  -4   19.79    1.48
   1   5   4   21.13    1.50
  -2   5  -4   -0.04    0.22
   2   5   4    0.10    0.19
  -2   5  -4   -0.15    0.17
   2   5   4    0.05    0.24
  -2   5  -4    0.07    0.11
   2   5   4    0.00    0.15
   3   5   4   57.02    3.96
  -3   5  -4   68.46    4.00
  -3   5  -4   66.09    3.72
   3   5   4   62.58    3.94
  -3   5  -4   61.11    3.97
   3   5   4   61.65    3.89
   3   5   4   62.02    3.76
  -4   5  -4   -0.14    0.14
   4   5   4   -0.05    0.19
  -4   5  -4    0.09    0.22
   4   5   4   -0.02    0.22
   4   5   4   -0.09    0.23
  -4   5  -4   -0.27    0.21
   4   5   4    0.02    0.17
   5   5   4    2.94    0.41
  -5   5  -4    2.75    0.46
   5   5   4    3.45    0.46
  -5   5  -4    3.22    0.48
  -5   5  -4    3.40    0.38
  -6   5  -4    0.20    0.26
   6   5   4   -0.22    0.17
   6   5   4    0.24    0.25
  -6   5  -4    0.11    0.20
  -6   5  -4   -0.13    0.23
   7   5   4   34.91    2.05
   7   5   4   31.45    2.09
  -7   5  -4   29.90    1.97
  -7   5  -4   30.97    2.12
  -7   5  -4   27.16    2.01
  -8   5  -4   -0.03    0.19
  -8   5  -4   -0.13    0.21
   8   5   4    0.05    0.24
   8   5   4   -0.01    0.26
  -8   5  -4   -0.15    0.27
  -9   5  -4   26.74    1.80
   9   5   4   26.21    1.86
  -9   5  -4   25.80    1.84
  -9   5  -4   28.46    1.95
   9   5   4   25.51    1.90
 -10   5  -4    0.75    0.31
  10   5   4   -0.05    0.29
 -10   5  -4   -0.17    0.32
  10   5   4   -0.20    0.28
 -10   5  -4    0.13    0.27
  11   5   4   10.20    1.02
 -11   5  -4    9.08    0.92
  11   5   4    9.79    0.99
 -11   5  -4   11.27    1.16
 -11   5  -4    9.92    0.92
  10   6  -4   36.20    2.43
 -10   6   4   35.49    2.38
 -10   6   4   33.95    2.29
  10   6  -4   33.89    2.35
  -9   6   4   -0.21    0.21
  -9   6   4   -0.13    0.31
   9   6  -4    0.25    0.33
   9   6  -4    0.12    0.29
  -9   6   4    0.01    0.26
  -8   6   4    3.06    0.43
  -8   6   4    2.70    0.57
  -8   6   4    2.74    0.61
   8   6  -4    3.31    0.50
   8   6  -4    3.20    0.51
  -7   6   4   -0.33    0.29
   7   6  -4   -0.02    0.24
  -7   6   4   -0.04    0.34
  -7   6   4    0.06    0.20
   7   6  -4   -0.40    0.19
   6   6  -4  182.47   11.00
   6   6  -4  197.43   11.46
  -6   6   4  188.27   11.51
  -6   6   4  181.32   11.45
  -6   6   4  178.54   10.97
   6   6  -4  194.82   11.37
  -5   6   4    0.16    0.17
   5   6  -4   -0.24    0.29
   5   6  -4   -0.16    0.19
  -5   6   4    0.13    0.26
  -5   6   4   -0.01    0.31
   4   6  -4    0.83    0.37
   4   6  -4    2.01    0.30
   4   6  -4    1.06    0.39
  -4   6   4    1.91    0.41
  -4   6   4    1.61    0.25
  -4   6   4    1.72    0.47
   3   6  -4    0.04    0.15
   3   6  -4   -0.01    0.27
  -3   6   4    0.03    0.29
   3   6  -4   -0.21    0.25
  -3   6   4    0.09    0.14
  -3   6   4    0.02    0.27
   2   6  -4   46.12    2.71
  -2   6   4   45.54    2.97
   2   6  -4   41.02    2.99
  -2   6   4   45.52    3.05
  -2   6   4   46.91    2.71
   2   6  -4   45.10    2.98
  -1   6   4   -0.09    0.12
   1   6  -4    0.13    0.11
  -1   6   4   -0.07    0.18
  -1   6   4    0.01    0.28
   1   6  -4    0.01    0.25
   1   6  -4    0.00    0.23
   0   6   4   89.88    5.23
   0   6   4   91.53    5.62
   0   6  -4   88.58    5.21
   0   6  -4   88.64    5.56
   0   6   4   92.68    5.54
   0   6  -4   81.76    5.58
   1   6   4   -0.12    0.25
  -1   6  -4    0.10    0.26
  -1   6  -4   -0.18    0.20
   1   6   4   -0.05    0.21
   1   6   4    0.06    0.14
   2   6   4    5.29    0.49
   2   6   4    5.11    0.61
  -2   6  -4    5.83    0.70
   2   6   4    6.43    0.73
  -2   6  -4    5.74    0.66
  -3   6  -4    0.01    0.14
   3   6   4    0.15    0.24
  -3   6  -4   -0.05    0.28
  -3   6  -4    0.02    0.25
   3   6   4   -0.16    0.16
   3   6   4    0.04    0.27
   4   6   4    1.05    0.34
   4   6   4    1.32    0.27
  -4   6  -4    0.57    0.31
  -4   6  -4    0.64    0.34
  -4   6  -4    0.65    0.20
   4   6   4    0.98    0.32
  -5   6  -4   -0.14    0.16
   5   6   4   -0.14    0.23
  -5   6  -4    0.02    0.26
   5   6   4    0.12    0.20
  -5   6  -4    0.23    0.29
   5   6   4    0.12    0.31
  -6   6  -4    4.87    0.65
   6   6   4    4.42    0.54
  -6   6  -4    4.76    0.65
  -6   6  -4    4.41    0.50
   6   6   4    4.29    0.56
   7   6   4    0.10    0.27
  -7   6  -4    0.44    0.32
  -7   6  -4    0.17    0.23
   7   6   4    0.37    0.28
   8   6   4    1.67    0.43
  -8   6  -4    1.17    0.33
  -8   6  -4    2.23    0.50
   8   6   4    2.13    0.44
   9   6   4    0.05    0.30
  -9   6  -4    0.07    0.33
  -9   6  -4    0.32    0.27
   9   6   4   -0.15    0.25
 -10   6  -4   42.85    2.94
  10   6   4   42.29    2.86
  10   6   4   39.59    2.79
 -10   6  -4   41.80    2.71
 -10   6  -4   42.76    2.81
  -9   7   4    0.34    0.40
   9   7  -4    3.67    0.55
  -9   7   4    0.96    0.33
   9   7  -4    0.74    0.35
  -8   7   4    0.00    0.35
  -8   7   4    0.16    0.22
   8   7  -4   -0.10    0.29
  -8   7   4    0.42    0.37
   8   7  -4    0.10    0.29
   7   7  -4   12.87    0.99
  -7   7   4   11.16    0.91
  -7   7   4   12.72    1.23
  -7   7   4   11.19    1.11
  -6   7   4   -0.33    0.27
   6   7  -4    0.35    0.42
   6   7  -4   -0.23    0.20
  -6   7   4   -0.16    0.18
  -6   7   4    0.19    0.41
  -5   7   4    5.80    0.86
   5   7  -4    5.39    0.78
  -5   7   4    6.03    0.80
  -5   7   4    7.09    0.57
   5   7  -4    5.97    0.60
   4   7  -4   -0.32    0.17
  -4   7   4   -0.64    0.25
   4   7  -4   -0.19    0.33
   4   7  -4    0.65    0.40
  -4   7   4    0.11    0.38
  -4   7   4   -0.22    0.15
  -3   7   4  195.73   11.19
   3   7  -4  154.25   11.06
  -3   7   4  184.08   10.54
   3   7  -4  188.72   11.13
  -3   7   4  171.50   11.08
   3   7  -4  188.58   10.57
   2   7  -4    0.22    0.30
   2   7  -4   -0.16    0.32
   2   7  -4   -0.13    0.14
  -2   7   4    0.02    0.25
  -2   7   4    0.09    0.34
  -2   7   4   -0.02    0.14
  -1   7   4    6.14    0.48
   1   7  -4    5.36    0.72
  -1   7   4    6.91    0.85
   1   7  -4    6.98    0.83
  -1   7   4    6.11    0.71
   0   7  -4   -0.40    0.29
   0   7   4    0.22    0.27
   0   7   4   -0.04    0.15
   0   7   4    0.38    0.33
   0   7  -4    0.32    0.28
  -1   7  -4   12.41    1.18
  -1   7  -4   13.30    1.13
   1   7   4   10.46    1.05
   1   7   4   15.19    0.91
   1   7   4   13.88    1.21
   2   7   4    0.51    0.37
   2   7   4   -0.18    0.16
  -2   7  -4   -0.32    0.27
  -2   7  -4   -0.11    0.31
   2   7   4   -0.20    0.27
  -3   7  -4   40.19    2.93
   3   7   4   49.03    2.92
  -3   7  -4   39.75    2.89
   3   7   4   44.37    2.93
   3   7   4   42.94    2.68
   4   7   4   -0.09    0.20
   4   7   4    0.11    0.34
  -4   7  -4   -0.38    0.21
   4   7   4   -0.52    0.28
  -4   7  -4    0.50    0.33
  -5   7  -4    1.87    0.47
   5   7   4    1.43    0.34
   5   7   4    1.36    0.45
  -5   7  -4    1.62    0.28
  -5   7  -4    1.26    0.42
  -6   7  -4    0.23    0.34
   6   7   4   -0.19    0.22
  -6   7  -4    0.15    0.22
  -6   7  -4    0.48    0.35
  -7   7  -4   19.57    1.64
  -7   7  -4   21.78    1.42
   7   7   4   21.25    1.55
   7   7   4   19.00    1.48
  -8   7  -4    0.07    0.36
  -8   7  -4    0.00    0.26
   8   7   4    0.23    0.33
   8   7   4    0.20    0.29
  -6   8   4   18.40    1.22
   6   8  -4   18.13    1.57
   6   8  -4   17.92    1.29
  -6   8   4   15.73    1.48
  -6   8   4   16.70    1.61
  -5   8   4    0.02    0.37
   5   8  -4   -0.04    0.20
  -5   8   4    0.07    0.21
   5   8  -4   -0.13    0.41
  -5   8   4   -0.41    0.37
  -4   8   4   13.66    1.34
   4   8  -4   16.62    1.44
   4   8  -4   17.52    1.48
   4   8  -4   15.75    1.12
  -4   8   4   16.65    1.55
  -3   8   4   -0.10    0.32
   3   8  -4    1.30    0.48
   3   8  -4    0.14    0.35
   3   8  -4    0.14    0.20
  -3   8   4    0.45    0.45
  -2   8   4    0.90    0.38
   2   8  -4    0.01    0.36
  -2   8   4    0.02    0.38
   2   8  -4    0.53    0.37
  -1   8   4   -0.01    0.30
  -1   8   4    0.22    0.36
   1   8  -4    0.45    0.41
   1   8  -4   -0.13    0.29
   0   8   4  203.67   12.17
   0   8   4  180.25   12.05
   0   8  -4  214.10   12.19
   0   8  -4  191.59   12.10
   1   8   4    0.10    0.18
   1   8   4    0.28    0.39
   1   8   4    0.17    0.31
  -1   8  -4    0.14    0.36
  -1   8  -4    0.18    0.32
   2   8   4    3.34    0.64
   2   8   4    4.32    0.44
  -2   8  -4    3.67    0.70
  -2   8  -4    3.19    0.59
   2   8   4    4.91    0.68
   3   8   4   -0.12    0.32
   3   8   4    0.01    0.23
  -3   8  -4   -0.20    0.36
  -3   8  -4   -0.14    0.27
   3   8   4    0.26    0.34
   4   8   4   54.30    3.59
  -4   8  -4   51.29    3.60
   4   8   4   56.01    3.60
   4   8   4   55.26    3.33
  -4   8  -4   50.71    3.63
  -5   8  -4    0.08    0.36
  -5   8  -4    0.08    0.34
   5   8   4    0.23    0.27
  -6   8  -4    6.50    0.64
  -6   8  -4    5.96    0.86
   6   8   4    6.63    0.73
  -6   8  -4    6.93    0.89
 -14   0   5   -0.72    0.30
  14   0  -5    0.01    0.35
 -14   0   5   -0.04    0.29
 -13   0   5    1.45    0.45
  13   0  -5    0.00    0.28
 -13   0   5    0.73    0.34
  12   0  -5   -0.02    0.31
 -12   0   5   -0.06    0.25
 -12   0   5   -0.05    0.25
 -11   0   5   69.46    3.98
  11   0  -5   58.25    3.91
 -11   0   5   56.07    3.86
  10   0  -5   -0.15    0.25
 -10   0   5    0.05    0.25
  10   0  -5    0.06    0.26
 -10   0   5    0.24    0.25
  -9   0   5  103.30    6.12
  -9   0   5   98.99    6.16
   9   0  -5   97.27    6.14
   9   0  -5   97.73    6.15
  -8   0   5    0.23    0.20
   8   0  -5   -0.45    0.19
   8   0  -5   -0.18    0.19
  -8   0   5    0.24    0.22
  -8   0   5   -0.34    0.15
   8   0  -5   -0.19    0.19
   7   0  -5  262.73   19.17
   7   0  -5  279.68   16.70
   7   0  -5  284.40   16.61
  -7   0   5  270.92   16.58
  -7   0   5  285.06   16.70
   6   0  -5   -0.08    0.15
   6   0  -5   -0.04    0.16
   6   0  -5    0.16    0.17
  -6   0   5    0.04    0.15
  -6   0   5   -0.01    0.16
   5   0  -5    4.61    0.45
  -5   0   5    4.59    0.45
  -5   0   5    4.07    0.42
   5   0  -5    4.18    0.43
   5   0  -5    4.35    0.51
   4   0  -5   -0.31    0.15
  -4   0   5   -0.38    0.13
   4   0  -5   -0.16    0.14
  -4   0   5   -0.32    0.13
   3   0  -5  168.14   11.89
  -3   0   5  183.54   10.41
  -3   0   5  163.64   11.89
  -2   0   5   -0.04    0.14
   2   0  -5   -0.10    0.14
   1   0  -5   20.76    1.56
  -1   0   5   21.36    1.56
   0   0  -5   -0.12    0.12
   0   0   5   -0.02    0.14
   1   0   5  206.71   14.14
  -1   0  -5  202.29   14.14
   2   0   5   -0.08    0.15
  -2   0  -5   -0.04    0.15
  -3   0  -5  224.79   15.81
  -3   0  -5  232.45   13.75
   4   0   5   -0.07    0.13
  -4   0  -5    0.05    0.14
  -4   0  -5    0.11    0.14
  -4   0  -5    0.08    0.14
  -5   0  -5   16.74    1.19
  -5   0  -5   16.30    1.42
   5   0   5   19.62    1.23
   5   0   5   18.40    1.23
  -5   0  -5   18.63    1.21
  -6   0  -5   -0.12    0.17
   6   0   5   -0.08    0.16
   6   0   5   -0.01    0.18
  -6   0  -5   -0.04    0.15
  -6   0  -5   -0.10    0.14
   7   0   5   15.25    1.08
  -7   0  -5   12.88    1.04
  -7   0  -5   14.06    1.07
   7   0   5   15.26    1.10
  -7   0  -5   16.38    1.31
   8   0   5   -0.29    0.21
  -8   0  -5    0.02    0.20
  -8   0  -5    0.00    0.18
  -8   0  -5   -0.35    0.14
   8   0   5   -0.25    0.19
  -9   0  -5   82.85    4.88
   9   0   5   79.71    5.02
  -9   0  -5   83.57    4.97
  -9   0  -5   75.37    5.02
   9   0   5   79.49    5.01
 -10   0  -5   -0.25    0.19
  10   0   5   -0.10    0.29
 -10   0  -5   -0.09    0.22
  10   0   5   -0.26    0.27
 -11   0  -5    1.83    0.38
 -11   0  -5    1.52    0.39
  11   0   5    1.29    0.41
 -12   0  -5   -0.04    0.25
  12   0   5    0.33    0.34
 -12   0  -5    0.16    0.31
 -13   0  -5    0.76    0.38
  13   0   5    0.92    0.42
 -13   0  -5    0.36    0.28
 -14   0  -5   -0.57    0.24
 -14   0  -5   -0.34    0.34
  14   0   5   -0.07    0.35
  14  -1  -5    0.95    0.42
 -14  -1   5    2.53    0.50
 -14   1   5    2.31    0.53
  14   1  -5    3.19    0.55
 -14   1   5    2.21    0.43
  13  -1  -5    0.22    0.34
 -13  -1   5   -0.35    0.27
  13   1  -5   -0.03    0.35
  13   1  -5   -0.04    0.31
 -13   1   5   -0.28    0.27
 -13   1   5   -0.07    0.23
 -12  -1   5   81.46    5.15
  12  -1  -5   79.90    5.19
 -12   1   5   84.32    5.23
  12   1  -5   78.85    5.13
 -12   1   5   82.49    5.07
  12   1  -5   81.90    5.20
  11  -1  -5    0.05    0.27
 -11  -1   5   -0.01    0.27
 -11  -1   5   -0.01    0.28
 -11   1   5    0.04    0.24
  11   1  -5   -0.36    0.22
 -11   1   5   -0.24    0.29
  11   1  -5    0.01    0.28
 -11   1   5    0.44    0.30
 -10  -1   5   43.43    3.14
 -10  -1   5   47.65    3.15
  10  -1  -5   48.21    3.19
 -10   1   5   57.48    3.11
  10   1  -5   43.59    3.12
  10   1  -5   49.88    3.17
 -10   1   5   49.95    3.16
 -10   1   5   49.60    3.10
  -9  -1   5    0.04    0.26
   9  -1  -5    0.11    0.26
  -9  -1   5   -0.10    0.22
   9  -1  -5   -0.07    0.26
  -9   1   5   -0.02    0.22
   9   1  -5   -0.04    0.24
  -9   1   5   -0.06    0.19
  -9   1   5    0.08    0.19
   9   1  -5    0.05    0.23
   8  -1  -5   18.49    1.49
  -8  -1   5   17.70    1.29
  -8  -1   5   15.71    1.27
   8  -1  -5   19.10    1.33
   8   1  -5   18.67    1.27
   8   1  -5   18.38    1.30
  -8   1   5   17.17    1.24
   8   1  -5   17.27    1.26
  -8   1   5   17.56    1.23
  -8   1   5   17.56    1.27
   7  -1  -5   -0.17    0.16
   7  -1  -5   -0.03    0.18
   7  -1  -5    0.32    0.20
  -7  -1   5    0.38    0.21
  -7  -1   5    0.18    0.20
   7   1  -5    0.22    0.19
   7   1  -5   -0.05    0.22
  -7   1   5    0.24    0.20
   7   1  -5   -0.12    0.19
   7   1  -5    0.06    0.18
  -7   1   5   -0.31    0.14
  -7   1   5    0.21    0.16
  -6  -1   5  117.52    7.69
   6  -1  -5  134.73    8.88
  -6  -1   5  135.31    7.74
   6  -1  -5  117.81    7.70
   6  -1  -5  132.98    7.72
   6   1  -5  112.79    8.89
  -6   1   5  133.66    7.75
   6   1  -5  115.91    7.68
  -6   1   5  122.85    7.66
   6   1  -5  146.16    7.77
  -5  -1   5    0.14    0.15
  -5  -1   5    0.15    0.16
   5  -1  -5   -0.20    0.14
   5   1  -5    0.21    0.16
  -5   1   5   -0.08    0.12
   5   1  -5    0.06    0.14
   5   1  -5   -0.03    0.14
  -5   1   5   -0.18    0.11
   4  -1  -5   63.91    4.64
  -4   1   5   65.90    4.01
  -4   1   5   65.45    4.05
   4   1  -5   70.48    4.05
   4   1  -5   67.52    4.01
   4   1  -5   63.22    4.67
  -4   1   5   63.42    4.63
   3  -1  -5   -0.04    0.13
   3   1  -5   -0.05    0.12
   3   1  -5    0.08    0.16
  -3   1   5   -0.05    0.12
  -3   1   5   -0.15    0.12
   2  -1  -5   70.92    4.63
  -2  -1   5   65.03    4.65
   2   1  -5   65.31    4.64
  -2   1   5   62.02    4.61
  -1  -1   5    0.08    0.15
   1  -1  -5   -0.14    0.11
   1   1  -5   -0.06    0.13
  -1   1   5    0.13    0.15
   0  -1   5   13.25    1.07
   0  -1  -5   14.52    1.06
   0   1  -5   13.58    1.07
   0   1   5   12.83    1.05
  -1  -1  -5   -0.02    0.14
   1  -1   5   -0.09    0.12
   1   1   5   -0.12    0.14
  -1   1  -5   -0.10    0.14
   2  -1   5   13.25    1.03
  -2  -1  -5   11.26    1.02
   2   1   5   13.61    1.05
  -2   1  -5   14.81    1.06
   2   1   5   12.59    0.89
  -3  -1  -5   -0.01    0.15
   3   1   5   -0.07    0.12
  -3   1  -5   -0.30    0.11
  -3   1  -5   -0.14    0.13
  -4  -1  -5   68.51    4.18
  -4  -1  -5   73.48    4.86
  -4   1  -5   73.69    4.14
  -4   1  -5   65.65    4.81
   4   1   5   65.54    4.19
  -4   1  -5   63.62    4.18
   4   1   5   64.43    4.17
  -5  -1  -5   -0.27    0.11
  -5  -1  -5   -0.05    0.14
  -5  -1  -5   -0.14    0.18
  -5   1  -5   -0.09    0.13
   5   1   5    0.16    0.17
  -5   1  -5   -0.13    0.13
  -5   1  -5    0.02    0.19
   5   1   5   -0.16    0.17
   6  -1   5    0.84    0.24
  -6  -1  -5    0.78    0.22
  -6  -1  -5    0.53    0.21
  -6  -1  -5    0.62    0.27
   6  -1   5    1.31    0.24
   6   1   5    0.68    0.22
   6   1   5    0.59    0.25
  -6   1  -5    0.62    0.21
  -6   1  -5    1.08    0.23
  -6   1  -5    1.13    0.25
  -6   1  -5    0.42    0.23
  -7  -1  -5   -0.13    0.19
  -7  -1  -5   -0.05    0.17
   7  -1   5    0.17    0.22
  -7  -1  -5   -0.12    0.21
   7   1   5    0.11    0.20
  -7   1  -5    0.21    0.21
  -7   1  -5    0.11    0.18
   7   1   5   -0.29    0.17
  -7   1  -5   -0.08    0.16
  -7   1  -5   -0.22    0.16
  -8  -1  -5   49.99    3.00
  -8  -1  -5   47.37    3.00
   8   1   5   40.06    3.01
  -8   1  -5   44.05    3.01
   8   1   5   48.12    3.03
  -8   1  -5   49.29    2.93
   8   1   5   48.07    2.97
  -8   1  -5   49.86    3.53
  -8   1  -5   46.92    2.96
   9  -1   5    0.04    0.26
  -9  -1  -5   -0.10    0.19
  -9  -1  -5    0.18    0.24
   9   1   5   -0.03    0.22
  -9   1  -5   -0.04    0.18
   9   1   5    0.54    0.27
  -9   1  -5    0.00    0.21
  -9   1  -5   -0.25    0.21
 -10  -1  -5    6.95    0.79
  10  -1   5   10.18    0.91
 -10  -1  -5   10.51    0.88
 -10   1  -5   10.21    0.85
  10   1   5    8.79    0.88
  10   1   5   10.29    0.90
 -10   1  -5   10.10    0.80
 -10   1  -5    8.68    0.85
 -11  -1  -5   -0.10    0.25
 -11  -1  -5   -0.25    0.25
  11  -1   5   -0.12    0.29
  11   1   5    0.05    0.31
 -11   1  -5    0.38    0.29
 -11   1  -5   -0.07    0.22
 -11   1  -5    0.10    0.28
  11   1   5   -0.17    0.29
 -12  -1  -5    7.34    0.84
  12  -1   5    9.37    0.91
  12   1   5    7.01    0.86
 -12   1  -5    8.29    0.75
 -12   1  -5    7.53    0.88
  12   1   5    8.37    0.91
 -12   1  -5    7.64    0.90
  13  -1   5    0.12    0.36
 -13  -1  -5   -0.01    0.29
 -13   1  -5   -0.15    0.31
 -13   1  -5   -0.31    0.20
  13   1   5    0.03    0.33
  14  -1   5   16.00    1.46
 -14  -1  -5   16.90    1.36
 -14   1  -5   17.37    1.27
 -14   1  -5   16.50    1.41
  14   1   5   16.67    1.40
  14  -2  -5    0.24    0.31
 -14  -2   5   -0.02    0.31
  14   2  -5   -0.15    0.31
 -14   2   5   -0.04    0.30
  14   2  -5    0.19    0.39
 -13  -2   5   86.54    5.59
  13  -2  -5   91.80    5.66
  13   2  -5   82.42    5.62
 -13   2   5   92.19    5.47
 -13   2   5   81.30    5.63
  13   2  -5   95.51    5.58
  12  -2  -5   -0.28    0.34
 -12  -2   5    0.05    0.28
  12   2  -5    0.10    0.30
  12   2  -5   -0.13    0.33
 -12   2   5   -0.37    0.27
 -12   2   5   -0.11    0.31
  11  -2  -5    0.29    0.36
 -11  -2   5    0.87    0.36
  11   2  -5    1.25    0.39
 -11   2   5    1.30    0.39
 -11   2   5    0.78    0.33
  11   2  -5    0.96    0.36
 -11   2   5    0.62    0.26
  10  -2  -5   -0.13    0.29
 -10  -2   5   -0.06    0.23
  10   2  -5    0.01    0.25
 -10   2   5    0.16    0.26
  10   2  -5    0.50    0.29
 -10   2   5   -0.03    0.23
 -10   2   5    0.10    0.19
  10   2  -5    0.16    0.27
  -9  -2   5  281.46   15.73
   9  -2  -5  257.04   15.75
  -9   2   5  270.37   15.34
   9   2  -5  250.31   15.35
  -9   2   5  243.14   15.63
   9   2  -5  274.03   15.84
  -9   2   5  271.62   15.83
   9   2  -5  241.32   15.69
  -8  -2   5   -0.06    0.18
   8  -2  -5   -0.19    0.23
   8   2  -5    0.22    0.22
  -8   2   5   -0.08    0.17
  -8   2   5   -0.29    0.17
  -8   2   5    0.02    0.19
   8   2  -5    0.02    0.22
   8   2  -5   -0.46    0.18
   7  -2  -5    1.35    0.31
   7  -2  -5    1.46    0.35
  -7  -2   5    0.57    0.24
   7   2  -5    0.94    0.23
   7   2  -5    1.68    0.30
  -7   2   5    0.98    0.25
  -7   2   5    1.23    0.22
  -7   2   5    0.76    0.24
   7   2  -5    1.13    0.29
   6  -2  -5    0.00    0.19
  -6  -2   5   -0.19    0.13
   6  -2  -5   -0.39    0.15
   6   2  -5   -0.10    0.14
  -6   2   5   -0.09    0.13
   6   2  -5   -0.04    0.15
  -6   2   5   -0.07    0.16
   6   2  -5   -0.01    0.16
   6   2  -5   -0.18    0.16
  -6   2   5    0.12    0.14
   5  -2  -5    0.39    0.19
   5   2  -5    0.72    0.20
   5   2  -5    0.99    0.24
  -5   2   5    1.37    0.23
  -5   2   5    0.85    0.22
  -5   2   5    0.70    0.16
  -5   2   5    0.55    0.19
   5   2  -5    1.21    0.30
   5   2  -5    0.58    0.18
   4  -2  -5   -0.45    0.11
   4   2  -5   -0.16    0.13
   4   2  -5   -0.27    0.16
  -4   2   5   -0.03    0.13
   4   2  -5   -0.14    0.11
  -4   2   5   -0.10    0.13
   3  -2  -5   20.22    1.55
   3   2  -5   21.52    1.63
   3   2  -5   19.28    1.37
  -3   2   5   21.63    1.38
  -3   2   5   22.99    1.56
   2  -2  -5   -0.17    0.12
  -2   2   5   -0.09    0.12
   2   2  -5   -0.06    0.15
  -2   2   5    0.02    0.13
   2   2  -5   -0.23    0.11
   1  -2  -5  124.14    8.34
  -1   2   5  118.75    8.34
   1   2  -5  117.51    8.38
  -1   2   5  120.41    7.27
   0  -2  -5   -0.10    0.12
   0  -2   5    0.00    0.14
   0   2   5   -0.01    0.13
   0   2   5   -0.07    0.12
   0   2  -5   -0.03    0.13
   1  -2   5   61.07    4.60
  -1  -2  -5   66.01    4.60
   1   2   5   72.29    4.00
   1   2   5   57.85    4.59
  -1   2  -5   69.08    4.61
   2  -2   5   -0.22    0.11
  -2  -2  -5   -0.32    0.13
  -2   2  -5   -0.17    0.14
  -2   2  -5   -0.10    0.12
   2   2   5    0.06    0.13
  -3  -2  -5   25.56    1.99
   3   2   5   26.41    1.69
  -3   2  -5   25.97    1.97
  -3   2  -5   26.31    1.69
   3   2   5   28.78    1.73
  -4  -2  -5    0.07    0.19
   4   2   5    0.12    0.18
  -4   2  -5    0.13    0.14
  -4   2  -5   -0.04    0.13
   4   2   5    0.02    0.16
  -5  -2  -5  129.22    8.76
  -5  -2  -5  118.98    7.52
  -5   2  -5  113.23    7.32
   5   2   5  121.91    7.36
   5   2   5  128.82    7.53
   5   2   5  120.54    7.60
  -5   2  -5  128.20    8.70
  -5   2  -5  134.15    7.57
  -6  -2  -5    0.21    0.19
  -6  -2  -5   -0.05    0.23
   6   2   5    0.06    0.19
  -6   2  -5   -0.22    0.12
  -6   2  -5   -0.32    0.15
  -6   2  -5    0.17    0.18
  -6   2  -5    0.01    0.16
   6   2   5   -0.05    0.19
   6   2   5   -0.16    0.18
  -7  -2  -5   50.18    2.85
   7   2   5   43.05    2.81
  -7   2  -5   44.78    3.27
   7   2   5   44.64    2.89
  -7   2  -5   45.24    2.85
  -7   2  -5   40.31    2.75
   7   2   5   42.69    2.82
  -7   2  -5   44.92    2.74
  -8  -2  -5    0.20    0.24
  -8   2  -5   -0.05    0.15
   8   2   5    0.00    0.24
   8   2   5   -0.12    0.21
  -8   2  -5   -0.07    0.20
  -8   2  -5    0.16    0.23
   8   2   5    0.40    0.28
  -8   2  -5   -0.22    0.15
  -9  -2  -5   14.78    1.04
   9   2   5   13.56    1.07
  -9   2  -5   11.08    1.00
  -9   2  -5   12.29    0.88
   9   2   5   13.34    1.03
  -9   2  -5   12.30    0.98
   9   2   5   10.81    1.03
  10  -2   5   -0.17    0.26
 -10  -2  -5    0.17    0.27
  10   2   5   -0.35    0.22
 -10   2  -5    0.30    0.28
 -10   2  -5    0.47    0.29
  10   2   5   -0.30    0.27
  11  -2   5    2.60    0.53
 -11  -2  -5    2.76    0.51
 -11   2  -5    2.34    0.45
 -11   2  -5    1.84    0.42
  11   2   5    2.36    0.51
  11   2   5    1.24    0.40
 -12  -2  -5    0.04    0.30
  12  -2   5   -0.11    0.34
  12   2   5   -0.14    0.30
  12   2   5    0.08    0.30
 -12   2  -5    0.33    0.34
 -12   2  -5   -0.02    0.28
 -13  -2  -5   82.81    4.77
  13  -2   5   76.27    4.78
  13   2   5   63.33    4.64
  13   2   5   75.07    4.78
 -13   2  -5   66.94    4.74
 -13   2  -5   80.80    4.64
 -13  -3   5    0.39    0.37
  13   3  -5    0.00    0.34
 -13   3   5    0.16    0.33
 -13   3   5   -0.08    0.32
 -12  -3   5   74.69    4.45
 -12   3   5   63.74    4.33
  12   3  -5   65.10    4.37
 -12   3   5   71.82    4.46
  12   3  -5   69.03    4.48
  12   3  -5   70.71    4.33
 -11  -3   5    0.55    0.29
 -11   3   5    0.22    0.28
  11   3  -5    0.08    0.26
  11   3  -5    0.62    0.35
 -11   3   5    0.00    0.28
  11   3  -5    0.38    0.31
 -10  -3   5   45.48    3.07
  10   3  -5   51.33    3.06
  10   3  -5   48.49    2.98
  10   3  -5   44.82    3.10
 -10   3   5   50.75    3.02
 -10   3   5   42.87    3.07
  -9  -3   5   -0.32    0.21
  -9   3   5   -0.10    0.23
   9   3  -5    0.13    0.23
  -9   3   5    0.10    0.22
   9   3  -5   -0.04    0.21
   9   3  -5   -0.27    0.18
  -8  -3   5   14.73    1.10
  -8   3   5   14.06    1.03
   8   3  -5   14.25    1.11
  -8   3   5   13.97    1.07
   8   3  -5   11.87    1.03
   8   3  -5   14.98    0.98
   7   3  -5   -0.17    0.17
  -7   3   5   -0.04    0.25
  -7   3   5    0.04    0.18
   7   3  -5   -0.19    0.14
   7   3  -5    0.07    0.19
  -7   3   5    0.43    0.21
   6   3  -5  108.02    6.70
  -6   3   5  104.34    6.82
   6   3  -5   98.48    6.62
   6   3  -5  118.93    6.85
  -6   3   5  119.07    6.91
  -6   3   5  115.08    6.62
   6   3  -5  120.06    7.93
  -5   3   5    0.06    0.23
  -5   3   5    0.15    0.14
   5   3  -5    0.05    0.18
   5   3  -5   -0.02    0.15
   5   3  -5   -0.08    0.14
  -5   3   5    0.21    0.17
   4   3  -5   46.59    2.95
   4   3  -5   46.98    3.46
   4   3  -5   46.57    2.87
  -4   3   5   46.99    2.86
  -4   3   5   49.77    2.95
   3  -3  -5   -0.05    0.12
   3   3  -5   -0.13    0.15
  -3   3   5   -0.04    0.11
  -3   3   5    0.08    0.14
   3   3  -5   -0.04    0.12
  -3   3   5    0.10    0.11
   3   3  -5    0.14    0.12
   2  -3  -5   55.17    3.72
   2   3  -5   57.07    3.25
   2   3  -5   49.93    3.79
  -2   3   5   50.61    3.71
  -2   3   5   49.25    3.25
   2   3  -5   55.88    3.32
   1  -3  -5    0.07    0.11
   1   3  -5   -0.03    0.13
  -1   3   5    0.11    0.12
   1   3  -5   -0.18    0.14
  -1   3   5    0.04    0.12
   0  -3  -5   10.66    0.81
   0   3  -5    9.95    0.74
   0   3  -5   10.08    0.84
   0   3   5    8.77    0.68
  -1  -3  -5    0.12    0.16
  -1  -3  -5   -0.16    0.11
  -1   3  -5   -0.08    0.12
  -1   3  -5   -0.13    0.13
   1   3   5   -0.12    0.12
  -2  -3  -5   10.51    0.94
  -2   3  -5   10.96    0.93
   2   3   5   12.83    0.83
  -2   3  -5   10.79    0.82
  -2   3  -5   11.96    0.78
  -3  -3  -5   -0.08    0.17
   3   3   5   -0.14    0.13
  -3   3  -5    0.01    0.16
  -3   3  -5    0.03    0.15
  -3   3  -5    0.05    0.13
   3   3   5   -0.13    0.14
  -3   3  -5    0.00    0.12
  -4  -3  -5   49.93    4.00
  -4   3  -5   58.23    3.46
   4   3   5   52.82    3.47
   4   3   5   53.41    3.37
  -4   3  -5   57.72    3.96
  -4   3  -5   55.97    3.33
  -4   3  -5   59.64    3.44
  -5  -3  -5   -0.26    0.19
   5   3   5    0.07    0.18
  -5   3  -5   -0.23    0.18
  -5   3  -5    0.22    0.17
   5   3   5    0.00    0.14
   5   3   5    0.02    0.19
  -5   3  -5   -0.07    0.14
  -5   3  -5   -0.01    0.15
  -6  -3  -5    0.81    0.26
  -6  -3  -5    1.10    0.30
  -6   3  -5    0.97    0.26
  -6   3  -5    1.20    0.28
   6   3   5    1.19    0.29
   6   3   5    0.86    0.22
  -6   3  -5    1.12    0.26
  -6   3  -5    0.75    0.23
   6   3   5    0.87    0.27
  -7  -3  -5   -0.26    0.18
  -7   3  -5   -0.08    0.18
  -7   3  -5   -0.23    0.16
   7   3   5    0.05    0.24
   7   3   5   -0.02    0.23
   7   3   5    0.20    0.19
  -8  -3  -5   39.88    2.43
  -8   3  -5   33.70    2.34
   8   3   5   38.49    2.43
   8   3   5   36.04    2.46
   8   3   5   38.40    2.36
  -8   3  -5   34.76    2.41
  -9  -3  -5    0.00    0.23
   9   3   5   -0.39    0.20
  -9   3  -5   -0.27    0.22
   9   3   5    0.00    0.26
  -9   3  -5    0.15    0.23
   9   3   5    0.62    0.32
 -10  -3  -5    9.56    0.88
  10   3   5    8.92    0.88
 -10   3  -5    7.80    0.81
  10   3   5    9.92    0.92
  10   3   5    9.09    0.81
 -10   3  -5    7.94    0.83
 -11  -3  -5    0.00    0.31
  11   3   5    0.44    0.34
 -11   3  -5   -0.26    0.25
 -11   3  -5   -0.09    0.25
  11   3   5   -0.13    0.30
  11   3   5   -0.27    0.24
 -12  -3  -5    8.59    0.98
 -12   3  -5   12.06    0.98
 -12   3  -5    7.89    0.95
  12   3   5   10.30    0.90
  12   3   5    7.65    0.98
 -13  -3  -5    0.10    0.36
 -13   3  -5   -0.35    0.28
  13   3   5   -0.04    0.35
  13   3   5    0.21    0.32
 -13   3  -5    0.00    0.32
  12   4  -5    0.24    0.34
 -12   4   5    0.23    0.33
 -12   4   5    0.57    0.32
  12   4  -5    0.10    0.34
 -11   4   5   34.33    2.48
  11   4  -5   42.83    2.58
 -11   4   5   39.23    2.60
  11   4  -5   37.04    2.61
 -10   4   5    0.39    0.28
  10   4  -5   -0.06    0.27
 -10   4   5    0.17    0.27
  10   4  -5    0.31    0.29
   9   4  -5   72.89    4.83
  -9   4   5   79.60    4.67
  -9   4   5   76.36    4.82
   9   4  -5   77.15    4.71
   8   4  -5   -0.08    0.22
  -8   4   5    0.28    0.24
   8   4  -5   -0.14    0.19
  -8   4   5    0.14    0.27
  -8   4   5    0.25    0.23
   7   4  -5  169.97   10.55
  -7   4   5  175.63   10.61
  -7   4   5  165.63   10.53
   7   4  -5  176.18   10.23
  -7   4   5  179.47   10.21
  -6   4   5   -0.09    0.26
   6   4  -5    0.31    0.20
   6   4  -5    0.16    0.20
  -6   4   5    0.30    0.19
  -6   4   5   -0.13    0.16
   5   4  -5    2.39    0.34
   5   4  -5    2.34    0.34
  -5   4   5    2.30    0.46
  -5   4   5    2.89    0.35
  -5   4   5    3.26    0.36
   5   4  -5    3.15    0.54
   4   4  -5   -0.23    0.16
   4   4  -5    0.09    0.16
  -4   4   5    0.12    0.14
  -4   4   5   -0.09    0.25
  -4   4   5   -0.06    0.13
   4   4  -5    0.11    0.15
   3   4  -5   92.16    6.37
   3   4  -5   94.75    5.47
   3   4  -5   89.76    5.56
   3   4  -5   87.72    5.30
  -3   4   5   89.20    5.29
  -3   4   5   80.29    5.52
  -3   4   5   98.59    5.47
   3   4  -5   91.17    5.57
  -3   4   5   82.35    5.60
  -2   4   5   -0.38    0.19
   2   4  -5   -0.20    0.20
   2   4  -5    0.25    0.20
  -2   4   5    0.02    0.12
   2   4  -5    0.29    0.19
  -2   4   5   -0.07    0.10
   2   4  -5   -0.02    0.12
   2   4  -5    0.01    0.12
  -2   4   5   -0.10    0.16
   1   4  -5   12.23    0.96
   1   4  -5    9.68    0.87
  -1   4   5   11.95    0.94
   1   4  -5   12.11    0.87
  -1   4   5   10.76    0.73
   1   4  -5   10.74    0.73
  -1   4   5   10.79    0.75
  -1   4   5   10.12    0.81
   0   4  -5    0.08    0.20
   0   4   5    0.11    0.13
   0   4   5    0.04    0.21
   0   4   5    0.12    0.16
   0   4  -5    0.10    0.17
   0   4   5    0.04    0.12
   0   4  -5   -0.09    0.09
   0   4  -5    0.11    0.15
  -1  -4  -5  129.10    9.49
  -1   4  -5  126.77    7.98
  -1   4  -5  151.11    8.36
   1   4   5  149.54    8.36
  -1   4  -5  118.26    8.30
  -1   4  -5  132.16    9.51
   1   4   5  147.80    8.28
   1   4   5  141.18    8.28
   1   4   5  136.77    8.01
  -2  -4  -5    0.25    0.16
  -2   4  -5    0.10    0.12
   2   4   5    0.16    0.17
  -2   4  -5   -0.25    0.17
   2   4   5    0.15    0.14
  -2   4  -5    0.14    0.15
  -2   4  -5   -0.07    0.15
   2   4   5    0.06    0.16
  -3  -4  -5  124.85    8.95
  -3   4  -5  124.12    7.72
  -3   4  -5  131.54    8.91
   3   4   5  139.77    7.78
   3   4   5  133.14    7.76
  -3   4  -5  127.18    7.48
   3   4   5  114.29    7.53
  -3   4  -5  127.34    7.80
  -4  -4  -5   -0.18    0.20
  -4   4  -5    0.13    0.15
   4   4   5    0.28    0.20
  -4   4  -5    0.02    0.18
   4   4   5   -0.19    0.15
  -4   4  -5    0.00    0.16
  -4   4  -5    0.06    0.21
  -5  -4  -5   18.47    1.48
   5   4   5   18.04    1.26
   5   4   5   16.37    1.22
  -5   4  -5   17.48    1.26
  -5   4  -5   17.50    1.20
  -5   4  -5   17.41    1.17
  -5   4  -5   17.24    1.27
  -6   4  -5   -0.02    0.19
   6   4   5   -0.16    0.20
  -6   4  -5   -0.03    0.18
   6   4   5   -0.09    0.21
  -6   4  -5    0.11    0.18
  -7   4  -5    8.74    0.77
   7   4   5    7.27    0.75
  -7   4  -5    8.64    0.72
  -7   4  -5    7.46    0.69
   7   4   5    8.54    0.78
   8   4   5    0.25    0.28
  -8   4  -5    0.50    0.24
  -8   4  -5    0.17    0.27
  -8   4  -5    0.04    0.22
   8   4   5    0.04    0.27
   9   4   5   43.10    3.05
  -9   4  -5   46.70    3.02
  -9   4  -5   49.09    2.95
   9   4   5   47.34    3.02
  -9   4  -5   44.89    3.07
 -10   4  -5    0.18    0.26
 -10   4  -5    0.32    0.28
 -10   4  -5   -0.17    0.30
  10   4   5   -0.14    0.29
  10   4   5   -0.18    0.31
 -11  -4  -5    0.78    0.41
 -11   4  -5    1.10    0.37
  11   4   5    1.42    0.42
 -11   4  -5    1.38    0.40
  11   4   5    1.02    0.41
 -12  -4  -5   -0.07    0.36
  12   4   5   -0.09    0.34
  12   4   5   -0.06    0.35
 -12   4  -5   -0.37    0.28
 -12   4  -5   -0.38    0.25
  11   5  -5   -0.19    0.29
 -11   5   5    0.12    0.26
 -11   5   5   -0.04    0.29
  11   5  -5    0.02    0.29
 -10   5   5   33.62    2.16
  10   5  -5   31.28    2.17
  10   5  -5   30.75    2.13
 -10   5   5   27.60    2.05
   9   5  -5    0.07    0.27
  -9   5   5    0.50    0.25
   9   5  -5   -0.19    0.23
  -9   5   5    0.06    0.24
   8   5  -5   11.89    0.97
  -8   5   5   11.66    0.88
  -8   5   5   12.47    1.07
   8   5  -5    8.01    0.86
  -8   5   5   10.30    0.89
   7   5  -5   -0.03    0.21
  -7   5   5    0.28    0.30
  -7   5   5    0.32    0.21
   7   5  -5   -0.17    0.22
  -7   5   5   -0.01    0.21
  -6   5   5   68.68    4.40
   6   5  -5   80.12    4.46
   6   5  -5   65.05    4.31
  -6   5   5   75.89    4.58
  -6   5   5   67.31    4.28
  -5   5   5   -0.28    0.14
  -5   5   5   -0.02    0.22
  -5   5   5   -0.09    0.28
  -5   5   5   -0.28    0.15
   5   5  -5    0.06    0.17
   5   5  -5   -0.53    0.27
   5   5  -5   -0.07    0.18
   4   5  -5   34.86    2.28
   4   5  -5   40.19    2.36
   4   5  -5   39.62    2.83
  -4   5   5   33.17    2.25
   4   5  -5   35.00    2.48
  -4   5   5   38.01    2.45
  -4   5   5   39.24    2.54
   3   5  -5   -0.19    0.25
   3   5  -5   -0.09    0.20
  -3   5   5    0.29    0.28
   3   5  -5    0.03    0.14
  -3   5   5    0.00    0.21
   3   5  -5    0.26    0.26
  -3   5   5    0.14    0.13
  -2   5   5   33.81    2.22
  -2   5   5   34.02    2.31
   2   5  -5   33.21    2.52
   2   5  -5   37.95    2.31
   2   5  -5   31.91    2.24
  -2   5   5   32.44    2.04
   2   5  -5   33.38    2.05
   1   5  -5   -0.08    0.22
   1   5  -5    0.13    0.19
  -1   5   5   -0.23    0.17
  -1   5   5    0.06    0.12
  -1   5   5    0.51    0.28
   1   5  -5    0.15    0.12
   0   5   5    5.36    0.64
   0   5  -5    5.57    0.41
   0   5   5    5.79    0.54
   0   5   5    4.20    0.42
   0   5  -5    5.54    0.61
   0   5  -5    5.58    0.66
  -1   5  -5   -0.15    0.11
   1   5   5    0.07    0.14
  -1   5  -5    0.43    0.27
  -1   5  -5   -0.27    0.17
   1   5   5   -0.22    0.24
   1   5   5    0.15    0.19
   2   5   5    9.43    0.71
   2   5   5    8.96    0.68
   2   5   5    9.91    0.77
  -2   5  -5    9.06    0.79
   2   5   5    7.93    0.82
  -2   5  -5    9.14    0.84
  -3   5  -5    0.51    0.28
   3   5   5   -0.27    0.22
  -3   5  -5    0.17    0.22
   3   5   5   -0.05    0.18
   3   5   5    0.26    0.22
  -3   5  -5   -0.06    0.15
   3   5   5   -0.23    0.15
  -4   5  -5   43.06    2.62
   4   5   5   36.42    2.45
  -4   5  -5   36.82    2.58
   4   5   5   43.01    2.53
  -4   5  -5   37.78    2.39
   4   5   5   38.25    2.57
  -5   5  -5   -0.03    0.17
   5   5   5    0.17    0.24
   5   5   5   -0.28    0.19
  -5   5  -5    0.00    0.24
  -5   5  -5    0.07    0.27
  -6   5  -5    0.77    0.25
   6   5   5    0.23    0.25
   6   5   5    0.89    0.31
  -6   5  -5    0.58    0.29
   7   5   5    0.50    0.28
  -7   5  -5    0.07    0.22
   7   5   5    0.26    0.27
  -7   5  -5   -0.11    0.25
  -7   5  -5   -0.05    0.23
  -8   5  -5   30.91    2.20
  -8   5  -5   32.54    2.08
   8   5   5   28.86    2.16
  -8   5  -5   33.35    2.14
   8   5   5   32.40    2.16
  -9   5  -5   -0.20    0.24
   9   5   5    0.29    0.31
  -9   5  -5   -0.19    0.22
   9   5   5   -0.09    0.29
  -9   5  -5   -0.24    0.27
 -10   5  -5    5.22    0.67
 -10   5  -5    4.56    0.61
 -10   5  -5    5.51    0.75
  10   5   5    4.69    0.69
  10   5   5    6.21    0.76
  11   5   5   -0.11    0.34
 -11   5  -5   -0.44    0.34
 -11   5  -5    0.54    0.33
  11   5   5   -0.11    0.30
 -11   5  -5    0.05    0.31
  10   6  -5   -0.20    0.31
  10   6  -5    0.15    0.29
 -10   6   5   -0.12    0.24
 -10   6   5    0.01    0.29
   9   6  -5  147.16    8.50
  -9   6   5  129.68    8.15
  -9   6   5  139.50    8.45
   9   6  -5  137.75    8.24
  -9   6   5  130.32    8.59
  -8   6   5    0.15    0.37
   8   6  -5   -0.19    0.25
  -8   6   5    0.12    0.34
  -8   6   5    0.21    0.23
   8   6  -5    0.04    0.25
  -7   6   5    4.13    0.69
  -7   6   5    4.54    0.67
  -7   6   5    3.29    0.45
   7   6  -5    4.70    0.58
   7   6  -5    4.44    0.54
  -6   6   5   -0.03    0.32
   6   6  -5    0.01    0.24
   6   6  -5   -0.19    0.20
  -6   6   5   -0.13    0.18
  -6   6   5   -0.45    0.24
  -5   6   5    0.13    0.18
  -5   6   5    0.40    0.38
   5   6  -5    0.50    0.24
  -5   6   5    0.06    0.29
   5   6  -5    0.48    0.36
  -4   6   5   -0.05    0.15
   4   6  -5   -0.17    0.28
   4   6  -5   -0.08    0.18
   4   6  -5    0.05    0.33
  -4   6   5    0.06    0.33
  -4   6   5    0.01    0.27
  -3   6   5    3.75    0.55
  -3   6   5    2.63    0.57
   3   6  -5    2.80    0.50
   3   6  -5    2.78    0.55
   3   6  -5    2.93    0.36
  -3   6   5    3.75    0.36
   2   6  -5   -0.05    0.29
  -2   6   5    0.04    0.23
  -2   6   5   -0.01    0.13
  -2   6   5    0.04    0.32
   2   6  -5   -0.15    0.22
   2   6  -5   -0.04    0.14
   1   6  -5   35.11    2.45
  -1   6   5   34.49    2.51
   1   6  -5   39.06    2.52
  -1   6   5   37.06    2.42
  -1   6   5   36.79    2.21
   1   6  -5   35.48    2.19
   0   6  -5    0.05    0.29
   0   6   5    0.01    0.14
   0   6   5    0.01    0.27
   0   6   5    0.04    0.22
   0   6  -5    0.06    0.22
   0   6  -5    0.29    0.13
   1   6   5   33.94    2.28
   1   6   5   39.90    2.41
  -1   6  -5   32.22    2.06
  -1   6  -5   30.03    2.34
  -1   6  -5   33.99    2.32
   1   6   5   36.34    2.11
   2   6   5   -0.58    0.19
  -2   6  -5    0.06    0.13
  -2   6  -5    0.06    0.25
   2   6   5    0.08    0.16
   2   6   5   -0.42    0.25
  -2   6  -5   -0.04    0.28
   3   6   5    5.64    0.69
   3   6   5    4.81    0.54
  -3   6  -5    5.21    0.47
  -3   6  -5    7.03    0.72
  -3   6  -5    5.35    0.71
   3   6   5    5.00    0.62
  -4   6  -5    0.43    0.32
   4   6   5    0.29    0.21
   4   6   5    0.01    0.29
  -4   6  -5    0.21    0.17
  -4   6  -5    0.24    0.26
   4   6   5   -0.08    0.23
  -5   6  -5   62.20    3.68
   5   6   5   55.79    3.74
   5   6   5   64.63    3.86
  -5   6  -5   58.60    3.94
  -5   6  -5   62.83    3.95
   6   6   5    0.21    0.26
  -6   6  -5   -0.36    0.27
   6   6   5   -0.07    0.27
  -6   6  -5    0.01    0.21
  -6   6  -5    0.16    0.33
   7   6   5   18.71    1.43
   7   6   5   19.67    1.43
  -7   6  -5   19.11    1.34
  -7   6  -5   18.85    1.51
   8   6   5   -0.02    0.27
  -8   6  -5   -0.18    0.21
  -8   6  -5   -0.37    0.26
   8   6   5   -0.06    0.28
   9   6   5    4.54    0.67
  -9   6  -5    3.72    0.55
   9   6   5    4.77    0.67
  -9   6  -5    5.13    0.75
  10   6   5    0.37    0.36
 -10   6  -5   -0.06    0.27
 -10   6  -5   -0.08    0.27
  10   6   5    0.50    0.37
 -10   6  -5   -0.41    0.35
   8   7  -5    6.60    0.79
  -8   7   5    6.82    0.68
  -8   7   5    6.82    0.89
  -8   7   5    8.73    1.02
   8   7  -5    6.69    0.77
  -7   7   5   -0.56    0.35
  -7   7   5   -0.35    0.29
   7   7  -5   -0.11    0.29
  -7   7   5    0.15    0.24
   7   7  -5   -0.55    0.20
  -6   7   5   51.64    3.78
  -6   7   5   57.10    3.42
   6   7  -5   55.82    3.45
  -6   7   5   57.84    3.72
  -5   7   5   -0.30    0.17
  -5   7   5   -0.14    0.30
   5   7  -5    0.34    0.44
   5   7  -5   -0.06    0.23
  -5   7   5    0.05    0.38
  -4   7   5   21.91    1.62
   4   7  -5   19.76    1.64
  -4   7   5   18.82    1.69
   4   7  -5   19.69    1.38
  -4   7   5   21.99    1.35
   4   7  -5   21.11    1.68
  -3   7   5   -0.42    0.31
  -3   7   5    0.27    0.18
   3   7  -5   -0.16    0.31
   3   7  -5    0.30    0.35
  -3   7   5    0.15    0.31
   3   7  -5   -0.27    0.17
   2   7  -5   21.21    1.39
   2   7  -5   22.33    1.67
  -2   7   5   20.15    1.61
  -2   7   5   23.93    1.40
  -2   7   5   19.43    1.72
   2   7  -5   22.83    1.74
  -1   7   5    0.01    0.16
   1   7  -5    0.08    0.15
   1   7  -5    0.18    0.31
  -1   7   5    0.19    0.26
  -1   7   5   -0.22    0.30
   1   7  -5    0.10    0.35
   0   7   5    4.07    0.67
   0   7  -5    3.41    0.62
   0   7   5    3.78    0.38
   0   7  -5    3.58    0.36
   0   7   5    3.34    0.56
   0   7  -5    3.54    0.59
   1   7   5   -0.24    0.29
  -1   7  -5    0.24    0.37
   1   7   5   -0.22    0.16
  -1   7  -5    0.29    0.30
   1   7   5   -0.18    0.22
  -2   7  -5    5.89    0.77
   2   7   5    5.97    0.56
   2   7   5    6.29    0.80
  -2   7  -5    8.96    0.97
   2   7   5    7.65    0.80
   3   7   5    0.13    0.19
  -3   7  -5    0.39    0.39
  -3   7  -5    0.10    0.31
   3   7   5   -0.15    0.32
  -3   7  -5    0.25    0.18
   4   7   5   22.99    1.65
  -4   7  -5   25.35    1.59
  -4   7  -5   23.40    1.81
   4   7   5   26.59    1.86
  -4   7  -5   26.35    1.92
  -5   7  -5    0.17    0.19
  -5   7  -5   -0.07    0.34
  -5   7  -5    0.03    0.31
   5   7   5   -0.24    0.22
   6   7   5    0.90    0.33
   6   7   5    0.88    0.34
  -6   7  -5    1.46    0.31
  -6   7  -5    0.45    0.40
  -6   7  -5    0.81    0.38
  -7   7  -5    0.26    0.36
   7   7   5   -0.09    0.26
  -7   7  -5   -0.03    0.24
   7   7   5    0.20    0.28
   8   7   5   18.59    1.46
  -8   7  -5   18.94    1.38
   8   7   5   21.68    1.53
  -8   7  -5   17.26    1.57
   5   8  -5    1.99    0.61
  -5   8   5    0.58    0.27
  -5   8   5    1.03    0.47
   5   8  -5    0.97    0.30
  -5   8   5    0.65    0.45
  -4   8   5   -0.10    0.35
  -4   8   5    0.27    0.19
   4   8  -5   -0.38    0.42
   4   8  -5    0.35    0.42
  -4   8   5    0.04    0.31
   4   8  -5   -0.10    0.21
   3   8  -5   28.96    2.06
  -3   8   5   26.42    1.91
  -3   8   5   26.86    1.63
   3   8  -5   21.90    1.90
   3   8  -5   24.74    1.64
  -3   8   5   23.10    2.00
   2   8  -5    0.27    0.39
   2   8  -5    0.01    0.17
  -2   8   5   -0.04    0.18
  -2   8   5   -0.19    0.37
   2   8  -5    0.09    0.37
  -2   8   5   -0.01    0.30
  -1   8   5    1.57    0.27
   1   8  -5    1.90    0.47
  -1   8   5    0.82    0.48
  -1   8   5    1.65    0.47
   1   8  -5    1.28    0.49
   0   8  -5    0.17    0.29
   0   8   5    0.11    0.17
   0   8   5   -0.34    0.38
   0   8  -5    0.08    0.39
   0   8   5   -0.03    0.28
  -1   8  -5   41.52    3.22
   1   8   5   44.25    3.22
   1   8   5   49.03    2.86
  -1   8  -5   48.80    3.18
   1   8   5   48.11    3.13
   2   8   5    0.07    0.29
   2   8   5   -0.01    0.36
  -2   8  -5   -0.14    0.40
   2   8   5   -0.01    0.21
  -2   8  -5   -0.19    0.29
  -3   8  -5   26.56    2.07
   3   8   5   28.65    1.82
  -3   8  -5   28.43    2.15
   3   8   5   27.80    2.11
   4   8   5    0.19    0.34
  -4   8  -5    0.13    0.34
   4   8   5   -0.18    0.21
  -4   8  -5    0.08    0.39
  -5   8  -5   11.13    1.12
  -5   8  -5   12.32    1.23
   5   8   5   11.45    0.95
 -14   0   6   67.58    4.71
  14   0  -6   78.52    4.80
 -14   0   6   78.10    4.85
  13   0  -6    0.31    0.34
 -13   0   6   -0.07    0.28
 -13   0   6    0.11    0.32
  12   0  -6   12.35    1.12
 -12   0   6   12.08    1.14
 -12   0   6   13.61    1.10
 -11   0   6   -0.04    0.28
  11   0  -6   -0.11    0.30
 -11   0   6    0.17    0.26
  10   0  -6  102.43    6.39
 -10   0   6  107.38    6.45
  10   0  -6  100.14    6.41
 -10   0   6  102.70    6.37
   9   0  -6    0.26    0.26
  -9   0   6    0.15    0.21
   9   0  -6    0.01    0.24
  -9   0   6    0.15    0.22
   8   0  -6  188.54   11.30
  -8   0   6  182.66   11.28
  -8   0   6  178.90   11.36
  -8   0   6  201.28   11.02
   8   0  -6  182.36   11.36
   7   0  -6   -0.15    0.17
  -7   0   6    0.06    0.17
   7   0  -6   -0.23    0.18
  -7   0   6    0.22    0.20
   7   0  -6    0.12    0.20
   6   0  -6    1.28    0.31
  -6   0   6    2.19    0.34
  -6   0   6    2.29    0.34
   6   0  -6    2.22    0.32
   6   0  -6    2.35    0.36
  -5   0   6   -0.03    0.15
   5   0  -6    0.34    0.19
   5   0  -6   -0.15    0.14
  -5   0   6    0.05    0.14
   5   0  -6    0.03    0.17
   4   0  -6  161.14   11.12
   4   0  -6  148.61    9.66
   4   0  -6  156.33    9.61
  -4   0   6  172.60    9.61
  -3   0   6    0.05    0.14
  -3   0   6    0.02    0.13
   3   0  -6   -0.27    0.14
   3   0  -6   -0.04    0.13
  -2   0   6    3.55    0.35
   2   0  -6    2.89    0.39
   2   0  -6    4.11    0.36
   1   0  -6   -0.04    0.14
   0   0  -6    0.95    0.23
  -1   0  -6    0.03    0.13
  -1   0  -6    0.01    0.12
  -2   0  -6   18.60    1.56
   2   0   6   22.22    1.36
  -3   0  -6   -0.11    0.14
  -3   0  -6   -0.12    0.12
   3   0   6   -0.07    0.14
  -4   0  -6   47.70    3.34
  -4   0  -6   44.06    2.85
  -4   0  -6   48.51    2.88
   4   0   6   42.99    2.87
   4   0   6   46.28    2.89
   5   0   6    0.10    0.18
  -5   0  -6   -0.09    0.13
  -5   0  -6    0.10    0.16
  -5   0  -6    0.02    0.14
   5   0   6    0.12    0.17
  -6   0  -6   33.14    2.60
  -6   0  -6   33.76    2.22
   6   0   6   35.72    2.24
  -6   0  -6   35.29    2.21
  -7   0  -6   -0.01    0.18
  -7   0  -6    0.18    0.20
   7   0   6   -0.21    0.18
   7   0   6   -0.24    0.18
  -7   0  -6    0.24    0.21
  -7   0  -6   -0.26    0.15
  -8   0  -6    6.96    0.68
   8   0   6    7.05    0.69
   8   0   6    6.98    0.72
  -8   0  -6    6.48    0.65
  -8   0  -6    7.51    0.66
  -9   0  -6   -0.55    0.19
  -9   0  -6   -0.11    0.22
   9   0   6    0.13    0.25
   9   0   6   -0.20    0.23
 -10   0  -6   36.10    2.43
  10   0   6   37.02    2.49
 -10   0  -6   37.25    2.47
 -11   0  -6    0.08    0.27
 -11   0  -6   -0.09    0.29
  11   0   6   -0.03    0.27
 -12   0  -6   90.06    6.12
 -12   0  -6  105.58    6.22
  12   0   6  101.49    6.21
  13   0   6    0.04    0.32
 -13   0  -6   -0.13    0.28
 -13   0  -6    0.34    0.29
 -14  -1   6    0.26    0.31
  14  -1  -6    0.21    0.36
 -14   1   6   -0.29    0.26
  14   1  -6   -0.10    0.30
 -14   1   6   -0.09    0.29
  13  -1  -6   29.82    2.27
 -13  -1   6   31.01    2.24
  13   1  -6   33.97    2.27
 -13   1   6   36.06    2.34
 -13   1   6   30.02    2.16
 -12  -1   6    0.10    0.29
  12  -1  -6    0.32    0.35
 -12   1   6   -0.31    0.23
 -12   1   6   -0.40    0.27
  12   1  -6   -0.10    0.29
  12   1  -6   -0.07    0.31
  11  -1  -6    0.75    0.38
 -11  -1   6    0.70    0.33
 -11   1   6    0.04    0.24
 -11   1   6   -0.07    0.29
  11   1  -6    0.22    0.31
  11   1  -6    0.74    0.34
 -11   1   6    0.25    0.30
  10  -1  -6    0.30    0.30
 -10  -1   6    0.04    0.29
 -10  -1   6   -0.24    0.21
  10   1  -6   -0.37    0.23
 -10   1   6   -0.13    0.20
 -10   1   6    0.10    0.22
  10   1  -6   -0.46    0.22
 -10   1   6    0.17    0.26
  -9  -1   6    0.02    0.24
  -9  -1   6    0.79    0.32
   9  -1  -6    0.73    0.32
   9   1  -6   -0.01    0.24
  -9   1   6    0.27    0.27
  -9   1   6    0.40    0.22
   9   1  -6    1.03    0.33
  -9   1   6    0.71    0.28
  -8  -1   6   -0.06    0.20
   8  -1  -6   -0.22    0.25
  -8  -1   6   -0.15    0.20
   8  -1  -6    0.05    0.23
   8   1  -6   -0.01    0.21
  -8   1   6    0.18    0.21
  -8   1   6   -0.40    0.15
   8   1  -6    0.42    0.23
   8   1  -6   -0.03    0.23
  -8   1   6    0.23    0.23
   7  -1  -6    5.62    0.56
   7  -1  -6    5.00    0.62
  -7  -1   6    6.32    0.59
   7  -1  -6    5.91    0.60
  -7  -1   6    5.21    0.58
   7   1  -6    7.17    0.59
  -7   1   6    6.91    0.58
  -7   1   6    5.29    0.60
   7   1  -6    5.71    0.67
   7   1  -6    5.45    0.61
   7   1  -6    5.40    0.57
  -7   1   6    5.61    0.53
  -6  -1   6   -0.30    0.14
   6  -1  -6   -0.01    0.16
  -6  -1   6   -0.02    0.16
   6  -1  -6   -0.09    0.17
   6  -1  -6   -0.09    0.17
   6   1  -6   -0.15    0.16
   6   1  -6    0.24    0.18
  -6   1   6    0.02    0.15
  -6   1   6   -0.17    0.15
  -6   1   6   -0.17    0.14
   6   1  -6    0.13    0.18
  -5  -1   6  124.12    7.31
   5  -1  -6  120.67    7.34
  -5  -1   6  127.62    7.35
   5  -1  -6  119.06    7.30
   5  -1  -6  115.80    8.42
   5   1  -6  113.48    7.34
  -5   1   6  119.49    7.28
  -5   1   6  113.74    7.34
   5   1  -6  131.81    8.47
   5   1  -6  119.56    7.29
   4  -1  -6    0.33    0.17
  -4  -1   6   -0.17    0.13
   4  -1  -6   -0.05    0.12
  -4  -1   6   -0.20    0.13
   4   1  -6    0.06    0.14
  -4   1   6   -0.31    0.11
  -4   1   6    0.01    0.13
   4   1  -6   -0.10    0.13
   4   1  -6    0.03    0.16
   3  -1  -6   14.34    1.13
  -3   1   6   13.93    0.96
   3   1  -6   13.73    1.15
   3   1  -6   14.97    0.97
   3   1  -6   13.61    0.98
  -3   1   6   13.04    0.98
   2  -1  -6   -0.17    0.12
   2   1  -6   -0.13    0.12
  -2   1   6   -0.06    0.13
  -2   1   6   -0.14    0.12
   2   1  -6   -0.02    0.14
  -2   1   6   -0.14    0.12
   1  -1  -6   54.94    4.05
   1   1  -6   61.72    4.09
  -1   1   6   57.09    4.07
   1   1  -6   61.01    3.54
  -1   1   6   51.80    3.54
   0  -1  -6    0.02    0.12
   0   1  -6    0.11    0.13
   0   1   6   -0.08    0.12
   0   1   6    0.07    0.14
   0   1  -6    0.25    0.16
  -1  -1  -6    2.11    0.30
  -1   1  -6    1.71    0.31
   1   1   6    1.56    0.26
  -2  -1  -6   -0.17    0.11
  -2   1  -6    0.10    0.14
  -2   1  -6    0.14    0.14
   2   1   6   -0.03    0.14
   2   1   6    0.12    0.14
  -3  -1  -6   20.57    1.44
   3   1   6   18.42    1.22
  -3   1  -6   18.63    1.21
  -3   1  -6   16.25    1.18
   3   1   6   19.33    1.23
  -3   1  -6   16.38    1.41
  -4  -1  -6   -0.17    0.11
  -4  -1  -6   -0.02    0.17
  -4   1  -6   -0.03    0.15
   4   1   6   -0.18    0.13
  -4   1  -6   -0.19    0.12
  -4   1  -6   -0.10    0.13
   4   1   6    0.07    0.15
  -5  -1  -6    3.82    0.54
   5  -1   6    4.15    0.42
  -5  -1  -6    3.69    0.43
  -5  -1  -6    4.40    0.43
   5  -1   6    4.80    0.47
  -5   1  -6    4.33    0.41
  -5   1  -6    3.22    0.48
  -5   1  -6    4.42    0.43
   5   1   6    2.97    0.42
  -5   1  -6    4.89    0.44
  -6  -1  -6   -0.09    0.16
  -6  -1  -6   -0.12    0.21
   6  -1   6   -0.24    0.15
   6  -1   6    0.17    0.20
  -6  -1  -6   -0.07    0.17
  -6   1  -6    0.00    0.16
  -6   1  -6    0.08    0.16
   6   1   6   -0.13    0.16
  -6   1  -6    0.16    0.17
   6   1   6    0.07    0.18
  -6   1  -6    0.13    0.17
  -6   1  -6    0.11    0.18
  -7  -1  -6   96.37    5.51
  -7  -1  -6   91.12    5.48
  -7   1  -6   82.69    6.34
   7   1   6   97.95    5.55
  -7   1  -6   84.04    5.44
   7   1   6   91.25    5.51
  -7   1  -6   83.80    5.52
   7   1   6   86.53    5.37
   8  -1   6    0.13    0.26
  -8  -1  -6   -0.08    0.20
  -8  -1  -6   -0.13    0.18
  -8   1  -6    0.09    0.18
  -8   1  -6   -0.14    0.20
   8   1   6    0.22    0.24
   8   1   6   -0.22    0.22
  -8   1  -6    0.07    0.22
  -9  -1  -6   27.31    2.01
   9  -1   6   32.24    2.08
  -9  -1  -6   30.66    2.03
   9   1   6   32.26    2.08
  -9   1  -6   32.38    2.06
   9   1   6   27.37    2.05
  -9   1  -6   29.19    1.99
  -9   1  -6   29.06    1.98
  10  -1   6    0.28    0.29
 -10  -1  -6   -0.27    0.23
 -10  -1  -6   -0.20    0.21
 -10   1  -6    0.01    0.26
 -10   1  -6   -0.36    0.18
  10   1   6    0.42    0.34
 -10   1  -6    0.23    0.25
  10   1   6    0.20    0.28
  11  -1   6   70.52    4.99
 -11  -1  -6   81.49    4.98
 -11  -1  -6   70.35    4.98
  11   1   6   83.81    5.01
 -11   1  -6   86.11    4.93
  11   1   6   77.65    5.03
 -11   1  -6   75.18    5.03
 -11   1  -6   88.21    4.92
  12  -1   6    0.17    0.36
 -12  -1  -6   -0.44    0.25
 -12   1  -6   -0.27    0.26
 -12   1  -6   -0.60    0.21
  12   1   6   -0.02    0.32
 -13  -1  -6   23.40    1.88
  13  -1   6   25.52    1.95
 -13   1  -6   26.49    1.79
 -13   1  -6   31.29    2.01
  13   1   6   25.08    1.92
 -13  -2   6    0.31    0.34
  13  -2  -6   -0.20    0.37
  13   2  -6   -0.03    0.36
 -13   2   6    0.29    0.34
 -13   2   6   -0.05    0.32
  13   2  -6   -0.05    0.32
  12  -2  -6    0.55    0.42
 -12  -2   6    0.16    0.33
 -12   2   6    0.41    0.32
 -12   2   6    0.35    0.35
  12   2  -6    0.34    0.35
  12   2  -6    0.42    0.34
  11  -2  -6   -0.16    0.27
 -11  -2   6    0.22    0.30
 -11   2   6    0.15    0.28
 -11   2   6    0.05    0.22
 -11   2   6   -0.29    0.24
  11   2  -6    0.03    0.31
  11   2  -6    0.37    0.28
  10  -2  -6    1.11    0.35
 -10  -2   6    1.10    0.34
 -10   2   6    1.27    0.30
 -10   2   6    0.56    0.30
  10   2  -6    0.94    0.32
  10   2  -6    0.90    0.35
  10   2  -6    0.77    0.33
 -10   2   6    1.24    0.35
   9  -2  -6   -0.27    0.21
  -9  -2   6    0.02    0.25
  -9   2   6    0.15    0.19
   9   2  -6   -0.10    0.23
  -9   2   6   -0.11    0.21
   9   2  -6    0.31    0.29
   9   2  -6   -0.06    0.21
  -9   2   6    0.02    0.23
   8  -2  -6    2.48    0.42
  -8  -2   6    2.03    0.39
   8   2  -6    2.26    0.37
  -8   2   6    2.45    0.33
  -8   2   6    2.60    0.41
  -8   2   6    2.41    0.38
   8   2  -6    1.46    0.36
   8   2  -6    1.98    0.39
   7  -2  -6    0.21    0.22
  -7  -2   6    0.26    0.21
   7   2  -6    0.09    0.19
  -7   2   6    0.03    0.19
  -7   2   6    0.29    0.16
  -7   2   6    0.01    0.18
   7   2  -6    0.02    0.18
   7   2  -6   -0.11    0.18
  -7   2   6   -0.22    0.22
  -6  -2   6    1.26    0.30
   6  -2  -6    0.61    0.24
   6  -2  -6    1.43    0.30
   6   2  -6    1.11    0.26
  -6   2   6    1.12    0.25
  -6   2   6    0.98    0.21
   6   2  -6    0.64    0.21
   6   2  -6    1.05    0.33
   6   2  -6    1.20    0.27
  -6   2   6    1.05    0.30
  -6   2   6    1.43    0.28
   5  -2  -6   -0.33    0.13
  -5  -2   6    0.05    0.15
  -5   2   6   -0.04    0.13
  -5   2   6   -0.13    0.13
   5   2  -6    0.01    0.20
   5   2  -6   -0.10    0.14
  -5   2   6    0.13    0.13
   5   2  -6    0.07    0.15
   5   2  -6    0.15    0.15
   4  -2  -6   27.00    1.93
   4   2  -6   26.78    1.99
  -4   2   6   24.96    1.64
   4   2  -6   26.88    1.64
  -4   2   6   27.47    1.64
  -4   2   6   25.70    1.70
   4   2  -6   24.38    1.69
   4   2  -6   24.24    1.64
   3  -2  -6   -0.17    0.14
  -3   2   6    0.15    0.14
   3   2  -6    0.01    0.16
  -3   2   6   -0.16    0.12
  -3   2   6   -0.17    0.12
   3   2  -6    0.06    0.11
   3   2  -6   -0.23    0.13
   2  -2  -6  146.69   10.45
   2   2  -6  142.91   10.49
  -2   2   6  168.00   10.47
  -2   2   6  148.76    9.12
   2   2  -6  147.38    9.12
   1  -2  -6    0.03    0.13
   1   2  -6    0.14    0.14
  -1   2   6    0.09    0.14
   1   2  -6    0.25    0.17
  -1   2   6    0.02    0.13
   0  -2  -6  110.47    8.44
   0   2   6  126.22    7.37
   0   2   6  123.18    8.46
   0   2  -6  125.97    8.48
  -1  -2  -6   -0.02    0.13
   1   2   6   -0.04    0.13
  -1   2  -6   -0.11    0.15
  -2  -2  -6  194.17   13.35
  -2   2  -6  189.90   13.35
   2   2   6  194.83   11.62
  -2   2  -6  185.29   11.59
   2   2   6  196.90   11.53
  -3  -2  -6   -0.05    0.17
  -3   2  -6    0.06    0.13
  -3   2  -6   -0.12    0.13
   3   2   6   -0.10    0.12
   3   2   6    0.02    0.16
  -4  -2  -6   79.19    5.55
  -4  -2  -6   84.64    4.77
   4   2   6   79.99    4.76
  -4   2  -6   79.73    4.64
  -4   2  -6   73.20    4.78
   4   2   6   80.99    4.66
   4   2   6   73.33    4.80
  -4   2  -6   70.51    5.50
  -5  -2  -6   -0.29    0.14
  -5  -2  -6   -0.25    0.19
   5   2   6   -0.15    0.17
  -5   2  -6    0.05    0.12
  -5   2  -6    0.09    0.16
   5   2   6    0.01    0.18
   5   2   6    0.12    0.17
  -5   2  -6   -0.24    0.18
  -5   2  -6   -0.10    0.14
  -6  -2  -6   66.49    4.09
  -6  -2  -6   65.83    4.81
  -6   2  -6   62.49    3.98
   6   2   6   66.87    4.11
   6   2   6   62.91    4.14
   6   2   6   66.56    4.02
  -6   2  -6   70.11    4.12
  -6   2  -6   70.48    4.76
  -6   2  -6   62.88    4.01
  -7  -2  -6    0.07    0.20
   7   2   6   -0.07    0.21
  -7   2  -6    0.27    0.21
   7   2   6   -0.03    0.20
  -7   2  -6    0.15    0.21
   7   2   6    0.21    0.22
  -7   2  -6    0.05    0.18
  -7   2  -6   -0.18    0.14
  -8  -2  -6  162.99    9.74
  -8   2  -6  141.46    9.78
   8   2   6  152.44    9.83
   8   2   6  150.01    9.51
  -8   2  -6  170.66    9.65
   8   2   6  179.91    9.75
  -8   2  -6  164.26    9.49
  -9  -2  -6   -0.34    0.22
   9  -2   6    0.10    0.26
   9   2   6   -0.18    0.24
  -9   2  -6    0.02    0.23
   9   2   6    0.18    0.30
  -9   2  -6    0.11    0.19
   9   2   6   -0.09    0.25
  -9   2  -6    0.09    0.24
  10  -2   6   93.45    5.75
 -10  -2  -6   92.46    5.72
 -10   2  -6   93.53    5.75
  10   2   6   94.79    5.78
 -10   2  -6   88.78    5.56
  10   2   6   87.09    5.70
 -11  -2  -6    0.34    0.32
  11  -2   6   -0.21    0.28
  11   2   6   -0.05    0.29
 -11   2  -6    0.53    0.32
 -11   2  -6    0.01    0.28
  11   2   6    0.06    0.33
 -12  -2  -6    0.65    0.35
  12  -2   6    0.11    0.31
 -12   2  -6    0.19    0.32
  12   2   6   -0.26    0.29
  12   2   6    0.11    0.30
 -12   2  -6   -0.11    0.30
  13  -2   6   -0.50    0.32
 -13  -2  -6    0.46    0.37
 -13   2  -6    0.18    0.37
  13   2   6    0.48    0.31
 -13   2  -6   -0.15    0.32
  13   2   6   -0.03    0.33
 -13  -3   6   28.15    2.12
 -13   3   6   30.42    2.09
  13   3  -6   29.18    2.14
 -13   3   6   28.97    2.14
 -12  -3   6    0.10    0.31
 -12   3   6    0.04    0.28
  12   3  -6    0.20    0.34
  12   3  -6    0.04    0.27
 -12   3   6   -0.19    0.29
 -11  -3   6    0.94    0.38
  11   3  -6    0.61    0.30
 -11   3   6    0.18    0.28
 -11   3   6    0.72    0.37
  11   3  -6    0.55    0.37
  11   3  -6    0.81    0.37
 -10  -3   6    0.32    0.28
  10   3  -6    0.21    0.31
 -10   3   6    0.12    0.25
 -10   3   6   -0.25    0.23
  10   3  -6    0.47    0.32
  10   3  -6    0.15    0.26
  -9  -3   6   -0.11    0.21
  -9   3   6    0.92    0.31
   9   3  -6    0.25    0.28
  -9   3   6    0.10    0.25
   9   3  -6    0.28    0.21
   9   3  -6    0.60    0.29
  -8  -3   6    0.08    0.22
  -8   3   6   -0.09    0.20
   8   3  -6   -0.02    0.22
  -8   3   6    0.34    0.29
   8   3  -6    0.43    0.20
  -8   3   6   -0.01    0.20
   8   3  -6   -0.21    0.20
  -7   3   6    4.11    0.48
   7   3  -6    3.57    0.47
  -7   3   6    3.74    0.55
   7   3  -6    3.66    0.47
  -7   3   6    3.50    0.44
   7   3  -6    3.35    0.36
   6   3  -6   -0.13    0.17
   6   3  -6   -0.13    0.12
  -6   3   6   -0.10    0.24
   6   3  -6   -0.12    0.17
  -6   3   6   -0.02    0.17
  -6   3   6   -0.07    0.17
   5   3  -6  101.77    5.53
   5   3  -6   98.44    6.62
  -5   3   6   85.00    5.68
  -5   3   6   89.10    5.51
   5   3  -6   90.49    5.69
  -5   3   6   92.66    5.80
  -4   3   6   -0.05    0.23
   4   3  -6   -0.05    0.13
   4   3  -6    0.02    0.17
  -4   3   6    0.07    0.14
   4   3  -6   -0.13    0.14
  -4   3   6   -0.10    0.12
   3  -3  -6    9.56    0.82
  -3   3   6    9.36    0.72
   3   3  -6    9.62    0.73
   3   3  -6   11.49    0.77
  -3   3   6    9.60    0.89
  -3   3   6   11.14    0.76
   3   3  -6   11.86    0.95
   2  -3  -6   -0.06    0.12
  -2   3   6    0.15    0.12
  -2   3   6   -0.33    0.13
  -2   3   6    0.02    0.12
   2   3  -6   -0.08    0.17
   2   3  -6   -0.03    0.12
   2   3  -6   -0.10    0.17
   2   3  -6   -0.07    0.12
   1  -3  -6   44.90    3.22
  -1   3   6   47.01    2.73
   1   3  -6   46.55    3.28
   1   3  -6   47.58    2.72
   1   3  -6   44.81    2.85
  -1   3   6   43.64    3.23
  -1   3   6   42.30    2.82
   0  -3  -6   -0.21    0.12
   0   3   6    0.20    0.15
   0   3  -6    0.06    0.16
   0   3   6    0.05    0.13
   0   3  -6   -0.11    0.14
   0   3   6   -0.02    0.12
  -1  -3  -6    1.25    0.24
  -1   3  -6    1.28    0.21
   1   3   6    1.12    0.21
  -1   3  -6    1.56    0.21
  -1   3  -6    0.97    0.24
   1   3   6    1.19    0.22
  -1   3  -6    1.00    0.22
  -2  -3  -6    0.03    0.16
   2   3   6    0.19    0.14
  -2   3  -6   -0.19    0.13
  -2   3  -6    0.13    0.15
   2   3   6   -0.10    0.14
  -2   3  -6    0.14    0.11
  -2   3  -6    0.11    0.12
  -3  -3  -6   15.32    1.19
  -3   3  -6   14.25    1.16
   3   3   6   15.62    1.02
  -3   3  -6   13.29    0.95
   3   3   6   14.03    0.98
  -3   3  -6   13.85    0.98
  -3   3  -6   13.67    1.00
  -4  -3  -6    0.37    0.22
  -4   3  -6   -0.13    0.15
   4   3   6    0.03    0.16
   4   3   6   -0.26    0.12
  -4   3  -6    0.09    0.15
  -4   3  -6    0.04    0.14
  -4   3  -6    0.06    0.17
   4   3   6   -0.02    0.20
  -5  -3  -6    4.19    0.58
  -5   3  -6    3.90    0.42
  -5   3  -6    3.61    0.43
  -5   3  -6    3.88    0.51
  -5   3  -6    4.12    0.45
   5   3   6    3.21    0.38
   5   3   6    3.13    0.47
   5   3   6    4.23    0.48
  -6  -3  -6    0.20    0.20
  -6   3  -6    0.33    0.19
   6   3   6    0.32    0.20
  -6   3  -6    0.26    0.20
  -6   3  -6    0.34    0.20
   6   3   6   -0.39    0.17
  -6   3  -6    0.29    0.22
   6   3   6    0.01    0.22
  -7  -3  -6   84.69    4.85
   7   3   6   83.68    4.77
   7   3   6   69.95    4.90
  -7   3  -6   78.66    4.71
   7   3   6   72.77    4.78
  -7   3  -6   79.01    4.86
  -8  -3  -6   -0.47    0.22
  -8   3  -6    0.06    0.21
  -8   3  -6   -0.09    0.22
   8   3   6   -0.16    0.20
   8   3   6   -0.04    0.25
   8   3   6    0.26    0.26
  -9  -3  -6   25.36    1.86
   9   3   6   31.14    1.98
   9   3   6   26.60    1.87
   9   3   6   26.97    1.81
  -9   3  -6   26.17    1.81
  -9   3  -6   26.02    1.86
 -10  -3  -6    0.05    0.25
  10   3   6    0.04    0.24
  10   3   6    0.07    0.30
 -10   3  -6   -0.18    0.22
 -10   3  -6   -0.21    0.26
  10   3   6    0.21    0.28
 -11  -3  -6   74.82    4.74
  11   3   6   71.84    4.65
 -11   3  -6   75.86    4.60
  11   3   6   74.97    4.80
  11   3   6   76.05    4.65
 -11   3  -6   72.09    4.74
 -12  -3  -6   -0.14    0.31
 -12   3  -6   -0.05    0.30
 -12   3  -6   -0.15    0.27
  12   3   6   -0.03    0.31
  12   3   6   -0.11    0.29
 -13  -3  -6   26.12    1.98
 -13   3  -6   29.67    1.96
  13   3   6   26.22    1.99
  13   3   6   25.86    1.88
 -13   3  -6   25.27    1.95
 -12  -4   6    9.56    0.94
 -12   4   6    9.71    0.93
  12   4  -6    7.74    0.93
  12   4  -6    6.72    0.90
 -12   4   6    8.80    0.93
 -11   4   6   -0.11    0.26
  11   4  -6    0.12    0.30
 -11   4   6   -0.19    0.25
  11   4  -6    0.10    0.34
  10   4  -6   72.65    4.34
 -10   4   6   68.93    4.31
  10   4  -6   65.49    4.21
 -10   4   6   61.59    4.15
  -9   4   6   -0.03    0.23
   9   4  -6    0.00    0.26
  -9   4   6   -0.20    0.21
   9   4  -6    0.06    0.27
  -8   4   6  123.04    7.62
  -8   4   6  129.50    7.70
  -8   4   6  117.85    7.38
   8   4  -6  119.43    7.38
   8   4  -6  129.54    7.65
  -7   4   6    0.22    0.21
  -7   4   6   -0.06    0.28
  -7   4   6    0.04    0.21
   7   4  -6   -0.34    0.19
   7   4  -6   -0.14    0.21
   6   4  -6    1.04    0.28
   6   4  -6    1.52    0.33
  -6   4   6    1.29    0.29
  -6   4   6    1.61    0.30
  -6   4   6    2.18    0.49
  -5   4   6   -0.06    0.15
   5   4  -6    0.07    0.19
  -5   4   6   -0.22    0.17
   5   4  -6    0.35    0.19
  -5   4   6    0.09    0.30
   4   4  -6   85.47    5.41
  -4   4   6   97.41    5.24
   4   4  -6   89.72    5.26
  -4   4   6   79.17    5.54
   4   4  -6   83.22    6.28
  -4   4   6   92.42    5.41
   3   4  -6    0.07    0.20
  -3   4   6   -0.07    0.13
   3   4  -6   -0.15    0.13
   3   4  -6    0.22    0.24
  -3   4   6   -0.09    0.17
  -3   4   6    0.19    0.27
  -3   4   6    0.03    0.14
   3   4  -6    0.00    0.13
   2   4  -6    4.43    0.40
   2   4  -6    4.27    0.53
  -2   4   6    4.44    0.40
  -2   4   6    3.92    0.46
  -2   4   6    4.17    0.60
   2   4  -6    5.23    0.61
   2   4  -6    3.32    0.52
  -2   4   6    5.18    0.42
   2   4  -6    4.72    0.41
   1   4  -6    0.06    0.25
  -1   4   6    0.19    0.19
   1   4  -6    0.41    0.19
  -1   4   6    0.00    0.26
  -1   4   6    0.01    0.14
   1   4  -6   -0.20    0.15
   1   4  -6    0.04    0.11
  -1   4   6   -0.12    0.12
   0   4  -6    1.00    0.32
   0   4  -6    1.23    0.20
   0   4  -6    1.36    0.29
   0   4   6    0.85    0.22
   0   4   6    1.25    0.34
   0   4   6    1.39    0.22
   0   4  -6    1.68    0.30
   0   4   6    1.45    0.28
  -1   4  -6    0.01    0.12
  -1   4  -6   -0.03    0.11
   1   4   6   -0.19    0.20
   1   4   6    0.04    0.13
   1   4   6    0.15    0.16
  -1   4  -6    0.08    0.17
   1   4   6   -0.12    0.13
  -1   4  -6    0.19    0.23
  -1   4  -6    0.03    0.17
  -2  -4  -6    7.73    0.71
  -2   4  -6    7.62    0.56
  -2   4  -6    6.95    0.74
  -2   4  -6    7.09    0.70
   2   4   6    7.77    0.62
   2   4   6    6.89    0.70
  -2   4  -6    7.92    0.66
  -2   4  -6    6.71    0.57
   2   4   6    8.60    0.61
  -3  -4  -6   -0.13    0.20
  -3   4  -6    0.00    0.21
  -3   4  -6   -0.31    0.17
   3   4   6   -0.02    0.15
   3   4   6   -0.01    0.21
  -3   4  -6   -0.07    0.16
  -3   4  -6    0.02    0.15
   3   4   6   -0.03    0.19
  -3   4  -6    0.01    0.14
  -4  -4  -6   31.28    2.35
  -4   4  -6   29.16    1.91
   4   4   6   30.47    1.95
  -4   4  -6   26.63    2.04
  -4   4  -6   33.40    2.05
   4   4   6   28.60    2.02
   4   4   6   31.21    2.03
  -4   4  -6   33.83    1.98
  -5  -4  -6    0.41    0.24
  -5   4  -6   -0.27    0.17
  -5   4  -6   -0.29    0.22
   5   4   6   -0.12    0.18
  -5   4  -6   -0.03    0.17
   5   4   6   -0.02    0.20
  -5   4  -6   -0.07    0.20
   6   4   6   16.51    1.27
  -6   4  -6   20.26    1.24
  -6   4  -6   17.02    1.28
   6   4   6   17.64    1.31
  -6   4  -6   17.10    1.26
   7   4   6   -0.21    0.25
   7   4   6   -0.05    0.24
  -7   4  -6   -0.01    0.24
  -7   4  -6   -0.26    0.20
  -7   4  -6   -0.05    0.21
  -8   4  -6    7.12    0.69
  -8   4  -6    6.36    0.73
   8   4   6    7.02    0.79
   8   4   6    7.50    0.81
  -8   4  -6    6.96    0.71
  -9   4  -6   -0.15    0.24
   9   4   6   -0.19    0.26
  -9   4  -6   -0.13    0.23
   9   4   6   -0.13    0.26
 -10   4  -6   28.70    2.01
 -10   4  -6   34.07    2.10
  10   4   6   25.78    2.10
  10   4   6   29.90    2.08
 -11  -4  -6    0.38    0.37
 -11   4  -6   -0.28    0.26
  11   4   6    0.28    0.36
 -11   4  -6    0.40    0.29
  11   4   6    0.31    0.34
 -12  -4  -6   71.35    4.84
  12   4   6   73.98    4.91
 -12   4  -6   77.31    4.70
 -12   4  -6   75.07    4.85
  12   4   6   79.45    4.78
 -11   5   6    0.13    0.31
  11   5  -6   -0.02    0.30
  11   5  -6   -0.21    0.31
 -11   5   6    0.68    0.34
  10   5  -6    0.10    0.31
 -10   5   6    0.19    0.29
 -10   5   6   -0.17    0.27
  10   5  -6    0.13    0.34
   9   5  -6    0.72    0.34
   9   5  -6   -0.07    0.25
  -9   5   6    1.13    0.35
  -9   5   6    0.25    0.27
   8   5  -6   -0.20    0.26
  -8   5   6    0.09    0.23
  -8   5   6   -0.17    0.30
   8   5  -6    0.24    0.26
  -8   5   6    0.02    0.19
  -7   5   6    2.66    0.44
  -7   5   6    3.51    0.60
   7   5  -6    3.63    0.50
  -7   5   6    3.34    0.44
   7   5  -6    4.22    0.53
   6   5  -6   -0.14    0.21
   6   5  -6   -0.17    0.18
  -6   5   6   -0.11    0.16
  -6   5   6   -0.14    0.30
  -6   5   6    0.09    0.21
  -5   5   6   65.53    4.53
   5   5  -6   67.96    4.31
   5   5  -6   75.03    4.46
  -5   5   6   74.54    4.62
  -5   5   6   67.84    4.30
  -5   5   6   78.16    4.44
   4   5  -6    0.08    0.19
  -4   5   6    0.01    0.17
  -4   5   6    0.56    0.32
   4   5  -6    0.07    0.18
  -4   5   6   -0.03    0.14
  -4   5   6   -0.21    0.21
   3   5  -6    6.67    0.77
  -3   5   6    8.24    0.62
  -3   5   6    8.08    0.83
  -3   5   6    7.60    0.59
   3   5  -6    7.15    0.81
   3   5  -6    7.85    0.61
   3   5  -6    7.72    0.62
  -3   5   6    7.76    0.71
   3   5  -6    8.14    0.79
   2   5  -6   -0.14    0.28
   2   5  -6   -0.21    0.24
  -2   5   6   -0.13    0.19
  -2   5   6   -0.05    0.14
  -2   5   6    0.02    0.27
   2   5  -6   -0.26    0.21
   2   5  -6   -0.02    0.14
   1   5  -6   33.46    2.25
   1   5  -6   35.16    2.00
  -1   5   6   31.33    2.15
   1   5  -6   30.64    2.18
  -1   5   6   32.27    2.25
  -1   5   6   32.12    2.01
   0   5   6    0.06    0.13
   0   5  -6    0.17    0.28
   0   5   6   -0.02    0.15
   0   5  -6    0.04    0.21
   0   5  -6   -0.10    0.12
   0   5   6   -0.09    0.23
   0   5   6    0.28    0.19
   1   5   6    0.61    0.31
  -1   5  -6    0.66    0.26
   1   5   6    0.52    0.19
  -1   5  -6    0.37    0.30
   1   5   6    0.50    0.20
  -1   5  -6    0.26    0.14
   1   5   6    0.76    0.25
   2   5   6    0.14    0.20
  -2   5  -6    0.07    0.14
   2   5   6    0.18    0.24
  -2   5  -6   -0.09    0.20
   2   5   6    0.07    0.16
  -2   5  -6    0.34    0.30
  -3   5  -6    8.53    0.84
   3   5   6    9.72    0.71
  -3   5  -6    8.38    0.78
   3   5   6    8.19    0.83
   3   5   6    8.50    0.73
  -3   5  -6    9.05    0.67
  -4   5  -6    0.31    0.24
  -4   5  -6   -0.06    0.25
  -4   5  -6   -0.28    0.16
   4   5   6    0.08    0.22
   4   5   6   -0.40    0.15
   4   5   6   -0.01    0.25
  -5   5  -6    2.38    0.33
  -5   5  -6    2.02    0.43
  -5   5  -6    2.21    0.44
   5   5   6    1.80    0.34
   5   5   6    1.70    0.38
   6   5   6    0.07    0.26
  -6   5  -6   -0.19    0.22
  -6   5  -6   -0.16    0.22
   6   5   6   -0.28    0.22
  -6   5  -6   -0.11    0.20
  -7   5  -6   63.00    3.89
   7   5   6   64.82    3.95
   7   5   6   60.31    3.84
  -7   5  -6   57.39    3.75
  -7   5  -6   61.18    3.95
  -8   5  -6    0.28    0.30
  -8   5  -6    0.39    0.31
  -8   5  -6    0.10    0.24
   8   5   6   -0.33    0.28
   8   5   6   -0.03    0.28
  -9   5  -6   21.29    1.68
   9   5   6   22.41    1.67
  -9   5  -6   24.06    1.64
  -9   5  -6   19.57    1.55
   9   5   6   23.38    1.67
  10   5   6   -0.03    0.31
 -10   5  -6    0.04    0.28
 -10   5  -6    0.19    0.28
  10   5   6    0.01    0.30
 -11   5  -6   62.37    3.85
  11   5   6   62.40    3.81
 -11   5  -6   58.25    3.71
  11   5   6   52.13    3.87
  10   6  -6    2.31    0.51
  10   6  -6    2.29    0.50
 -10   6   6    0.93    0.36
 -10   6   6    1.50    0.43
   9   6  -6    0.07    0.33
   9   6  -6   -0.02    0.27
  -9   6   6    0.08    0.26
  -9   6   6    0.49    0.40
  -9   6   6    0.17    0.27
   8   6  -6    3.48    0.52
   8   6  -6    3.11    0.53
  -8   6   6    4.22    0.71
  -8   6   6    2.87    0.60
  -8   6   6    3.27    0.48
  -8   6   6    4.47    0.54
   7   6  -6   -0.11    0.22
  -7   6   6    0.06    0.20
  -7   6   6    0.20    0.39
   7   6  -6   -0.36    0.23
  -7   6   6    0.13    0.29
  -6   6   6    0.49    0.21
  -6   6   6    0.09    0.39
  -6   6   6    0.66    0.33
   6   6  -6    0.29    0.27
   6   6  -6   -0.20    0.24
  -5   6   6   -0.33    0.23
   5   6  -6   -0.12    0.20
  -5   6   6   -0.12    0.17
   5   6  -6   -0.14    0.20
  -5   6   6   -0.31    0.34
   4   6  -6    5.74    0.75
  -4   6   6    4.02    0.45
   4   6  -6    4.55    0.50
  -4   6   6    4.43    0.71
  -4   6   6    5.16    0.65
  -3   6   6    0.09    0.16
   3   6  -6   -0.17    0.30
   3   6  -6    0.17    0.17
  -3   6   6   -0.01    0.24
   3   6  -6    0.01    0.36
  -3   6   6   -0.02    0.32
  -2   6   6   68.49    4.07
  -2   6   6   60.09    3.92
   2   6  -6   63.08    3.97
   2   6  -6   62.13    4.00
  -2   6   6   58.11    3.66
   2   6  -6   59.05    3.67
   1   6  -6   -0.22    0.31
  -1   6   6    0.11    0.22
   1   6  -6   -0.01    0.26
  -1   6   6    0.47    0.36
  -1   6   6    0.37    0.18
   1   6  -6   -0.19    0.15
   0   6  -6   48.61    2.89
   0   6  -6   50.03    3.15
   0   6   6   47.79    2.91
   0   6   6   46.50    3.21
   0   6  -6   46.87    3.20
   0   6   6   47.38    3.09
  -1   6  -6   -0.31    0.28
   1   6   6   -0.01    0.29
   1   6   6    0.37    0.19
   1   6   6    0.11    0.23
  -1   6  -6    0.11    0.25
  -1   6  -6   -0.14    0.13
  -2   6  -6   73.68    4.51
  -2   6  -6   70.09    4.54
   2   6   6   62.50    4.49
   2   6   6   73.58    4.24
  -2   6  -6   71.48    4.18
   3   6   6   -0.23    0.16
  -3   6  -6    0.16    0.16
   3   6   6    0.14    0.24
  -3   6  -6    0.61    0.36
  -3   6  -6    0.32    0.26
   3   6   6   -0.26    0.28
   4   6   6   36.44    2.29
  -4   6  -6   33.77    2.40
  -4   6  -6   33.12    2.34
   4   6   6   31.67    2.18
   4   6   6   37.78    2.39
   5   6   6    0.07    0.23
  -5   6  -6   -0.14    0.31
   5   6   6   -0.13    0.25
  -5   6  -6    0.13    0.21
  -5   6  -6   -0.09    0.24
   6   6   6   25.96    1.86
  -6   6  -6   26.85    2.00
  -6   6  -6   28.15    1.80
   6   6   6   29.23    1.94
  -7   6  -6    0.02    0.30
  -7   6  -6   -0.38    0.22
   7   6   6   -0.13    0.28
   7   6   6   -0.11    0.27
  -8   6  -6   80.14    4.73
   8   6   6   84.28    4.84
   8   6   6   72.64    4.93
  -8   6  -6   72.80    4.98
  -9   6  -6   -0.16    0.25
  -9   6  -6   -0.47    0.27
   9   6   6   -0.31    0.28
  -9   6  -6   -0.04    0.34
   9   6   6    0.11    0.32
  -8   7   6    0.23    0.33
  -8   7   6   -0.43    0.39
  -8   7   6   -0.45    0.20
   8   7  -6   -0.23    0.29
   8   7  -6   -0.49    0.23
   7   7  -6    1.18    0.37
  -7   7   6    1.43    0.55
  -7   7   6    1.05    0.30
  -7   7   6    0.79    0.40
   7   7  -6    1.26    0.35
  -6   7   6    0.22    0.35
  -6   7   6    0.02    0.40
  -6   7   6   -0.29    0.18
   6   7  -6    0.18    0.24
  -5   7   6   40.00    3.06
  -5   7   6   43.99    2.72
  -5   7   6   42.33    2.98
   5   7  -6   46.72    2.76
  -4   7   6   -0.11    0.18
   4   7  -6   -0.16    0.40
  -4   7   6    0.14    0.30
  -4   7   6   -0.25    0.36
   4   7  -6    0.04    0.20
  -3   7   6    4.21    0.45
   3   7  -6    4.39    0.47
   3   7  -6    4.85    0.71
  -3   7   6    4.16    0.63
  -3   7   6    3.69    0.70
   3   7  -6    4.01    0.71
   2   7  -6    0.04    0.18
  -2   7   6   -0.03    0.37
   2   7  -6   -0.02    0.37
  -2   7   6    0.14    0.19
   2   7  -6    0.68    0.39
  -2   7   6   -0.10    0.24
   1   7  -6   21.25    1.62
  -1   7   6   22.93    1.74
   1   7  -6   19.79    1.69
  -1   7   6   22.07    1.57
  -1   7   6   21.38    1.37
   1   7  -6   19.95    1.36
   0   7   6   -0.11    0.16
   0   7  -6   -0.15    0.26
   0   7  -6   -0.08    0.15
   0   7   6   -0.34    0.31
   0   7   6    0.01    0.26
   0   7  -6    0.18    0.38
  -1   7  -6    0.42    0.18
   1   7   6    0.36    0.35
  -1   7  -6   -0.01    0.34
  -1   7  -6    0.46    0.31
   1   7   6    0.27    0.19
   2   7   6    0.40    0.36
   2   7   6    0.07    0.19
  -2   7  -6   -0.13    0.25
  -2   7  -6    0.03    0.16
  -2   7  -6    0.52    0.41
  -3   7  -6    4.71    0.69
  -3   7  -6    4.47    0.44
  -3   7  -6    3.80    0.70
   3   7   6    4.52    0.67
   3   7   6    4.60    0.50
   4   7   6   -0.16    0.32
   4   7   6    0.06    0.22
  -4   7  -6    0.17    0.35
  -4   7  -6   -0.21    0.17
  -4   7  -6   -0.25    0.25
  -5   7  -6    1.22    0.48
  -5   7  -6    1.75    0.45
  -5   7  -6    1.59    0.32
   5   7   6    2.12    0.38
  -6   7  -6   -0.63    0.33
   6   7   6   -0.04    0.26
  -6   7  -6    0.11    0.24
  -6   7  -6    0.25    0.33
   6   7   6    0.13    0.24
  -7   7  -6   38.14    2.46
   7   7   6   36.10    2.59
   7   7   6   40.19    2.52
  -7   7  -6   38.56    2.69
   8   7   6    0.62    0.31
  -8   7  -6   -0.12    0.32
  -8   7  -6    0.54    0.29
   8   7   6   -0.50    0.26
  -5   8   6   -0.40    0.33
  -5   8   6    0.48    0.47
  -5   8   6    0.05    0.20
   5   8  -6   -0.08    0.22
  -4   8   6   24.62    1.94
   4   8  -6   27.02    1.71
  -4   8   6   25.34    1.67
  -4   8   6   25.98    2.09
   4   8  -6   24.53    2.05
  -3   8   6    0.30    0.36
   3   8  -6   -0.52    0.34
   3   8  -6    0.15    0.50
  -3   8   6   -0.08    0.19
   3   8  -6   -0.18    0.20
  -3   8   6    0.31    0.46
   2   8  -6    5.65    0.81
  -2   8   6    5.53    0.53
   2   8  -6    5.36    0.86
  -2   8   6    5.67    0.90
   2   8  -6    5.41    0.53
  -2   8   6    7.03    0.80
  -1   8   6    0.07    0.39
  -1   8   6    0.34    0.20
  -1   8   6   -0.17    0.30
   1   8  -6    0.09    0.32
   1   8  -6   -0.15    0.17
   1   8  -6    0.06    0.42
   0   8  -6    1.14    0.44
   0   8  -6    0.30    0.43
   0   8   6    1.48    0.28
   0   8   6    1.23    0.47
  -1   8  -6   -0.29    0.35
   1   8   6   -0.22    0.34
   1   8   6    0.11    0.18
  -1   8  -6    0.22    0.36
   2   8   6   -0.20    0.33
  -2   8  -6    0.06    0.36
  -2   8  -6    0.71    0.46
   2   8   6    0.56    0.23
   3   8   6    0.07    0.37
  -3   8  -6   -0.09    0.30
   3   8   6   -0.08    0.23
  -3   8  -6   -0.18    0.39
  -4   8  -6   13.41    1.24
  -4   8  -6   12.22    1.29
  -4   8  -6   14.13    0.94
   4   8   6   12.05    1.01
   4   8   6   13.91    1.25
 -13   0   7    2.58    0.56
  13   0  -7    1.94    0.50
 -13   0   7    2.47    0.47
 -12   0   7   -0.20    0.27
  12   0  -7    0.42    0.35
 -12   0   7    0.03    0.31
 -11   0   7  106.60    6.43
 -11   0   7   98.97    6.50
  11   0  -7  104.67    6.44
 -10   0   7    0.44    0.30
  10   0  -7    0.03    0.27
  10   0  -7    0.26    0.28
 -10   0   7    0.53    0.30
  -9   0   7    4.45    0.59
   9   0  -7    6.19    0.68
   9   0  -7    6.20    0.68
  -9   0   7    5.99    0.67
  -8   0   7    0.13    0.21
   8   0  -7   -0.16    0.21
   8   0  -7    0.28    0.25
  -8   0   7   -0.10    0.22
   7   0  -7   47.17    3.02
  -7   0   7   49.78    2.93
  -7   0   7   44.84    3.01
  -7   0   7   46.40    2.99
   7   0  -7   45.61    3.00
   7   0  -7   48.50    3.48
   6   0  -7   -0.21    0.18
   6   0  -7   -0.02    0.18
   6   0  -7    0.13    0.20
  -6   0   7   -0.05    0.17
  -6   0   7    0.27    0.18
  -5   0   7  179.52   10.27
   5   0  -7  179.17   11.81
   5   0  -7  169.76   10.20
  -5   0   7  152.32   10.19
   5   0  -7  165.49   10.26
   4   0  -7   -0.46    0.13
  -4   0   7   -0.04    0.15
   4   0  -7   -0.33    0.14
   4   0  -7   -0.19    0.14
  -4   0   7   -0.14    0.14
   3   0  -7    2.17    0.35
   3   0  -7    1.79    0.28
   3   0  -7    1.81    0.30
  -3   0   7    2.04    0.31
  -3   0   7    3.83    0.36
   2   0  -7   -0.01    0.15
   2   0  -7   -0.24    0.12
  -2   0   7   -0.13    0.13
   2   0  -7   -0.03    0.15
  -2   0   7   -0.12    0.12
  -1   0   7   71.83    4.71
   1   0  -7   76.07    4.71
  -1   0   7   82.91    4.76
   1   0  -7   69.78    5.46
   1   0  -7   87.22    4.76
   0   0  -7    0.01    0.15
   0   0   7    0.27    0.16
   0   0   7   -0.02    0.13
   0   0  -7   -0.01    0.13
   0   0  -7    0.03    0.14
   1   0   7    5.61    0.56
  -1   0  -7    7.41    0.67
  -1   0  -7    6.69    0.56
  -1   0  -7    7.42    0.57
   1   0   7    9.54    0.61
  -2   0  -7   -0.23    0.17
  -2   0  -7   -0.02    0.14
   2   0   7   -0.08    0.15
   2   0   7   -0.35    0.12
   3   0   7  237.14   14.82
  -3   0  -7  275.26   17.17
   3   0   7  238.86   14.91
  -3   0  -7  239.10   14.81
   4   0   7   -0.12    0.15
  -4   0  -7   -0.05    0.15
  -4   0  -7    0.11    0.15
   4   0   7    0.11    0.17
  -5   0  -7    5.51    0.51
   5   0   7    5.28    0.53
   5   0   7    4.65    0.50
  -5   0  -7    5.10    0.59
  -5   0  -7    5.73    0.52
  -6   0  -7    0.00    0.21
  -6   0  -7    0.07    0.18
  -6   0  -7    0.22    0.18
   6   0   7   -0.04    0.19
  -6   0  -7   -0.07    0.17
   6   0   7    0.11    0.20
  -7   0  -7  128.43    7.88
   7   0   7  129.53    8.12
  -7   0  -7  128.49    8.07
   7   0   7  142.99    8.15
  -7   0  -7  135.27    8.14
  -8   0  -7   -0.11    0.21
   8   0   7   -0.05    0.22
   8   0   7    0.12    0.26
  -8   0  -7   -0.04    0.21
  -8   0  -7   -0.14    0.19
  -9   0  -7   44.84    2.95
  -9   0  -7   46.67    2.99
   9   0   7   48.03    3.00
   9   0   7   43.67    3.00
 -10   0  -7    0.00    0.26
 -10   0  -7    0.04    0.28
  10   0   7    0.16    0.30
 -11   0  -7   48.41    3.11
  11   0   7   45.65    3.14
 -11   0  -7   46.81    3.06
 -12   0  -7   -0.10    0.30
  12   0   7    0.26    0.37
 -12   0  -7   -0.21    0.26
 -13   0  -7    3.14    0.53
  13   0   7    3.72    0.65
 -13   0  -7    3.35    0.59
 -13  -1   7   -0.01    0.34
  13  -1  -7   -0.01    0.36
 -13   1   7    0.05    0.29
  13   1  -7   -0.28    0.33
 -13   1   7    0.08    0.31
  12  -1  -7   13.43    1.18
 -12  -1   7   12.64    1.12
 -12   1   7   14.98    1.20
  12   1  -7   11.15    1.12
 -12   1   7   13.17    1.05
  12   1  -7   11.48    1.12
 -11  -1   7    0.22    0.30
  11  -1  -7   -0.49    0.26
  11   1  -7    0.18    0.32
 -11   1   7   -0.25    0.25
 -11   1   7    0.04    0.23
  11   1  -7    0.07    0.31
 -10  -1   7    1.68    0.45
 -10  -1   7    1.03    0.33
  10  -1  -7    1.05    0.38
  10   1  -7    1.28    0.39
 -10   1   7    2.05    0.39
 -10   1   7    1.23    0.32
  10   1  -7    1.37    0.40
 -10   1   7    1.05    0.35
  -9  -1   7    0.22    0.25
   9  -1  -7   -0.19    0.24
  -9  -1   7   -0.23    0.24
   9   1  -7    0.23    0.28
  -9   1   7   -0.06    0.24
   9   1  -7    0.04    0.24
  -9   1   7   -0.06    0.23
  -9   1   7    0.05    0.21
   8  -1  -7    4.67    0.63
  -8  -1   7    3.40    0.49
  -8  -1   7    3.85    0.49
   8  -1  -7    2.54    0.45
  -8   1   7    3.07    0.42
  -8   1   7    3.03    0.47
   8   1  -7    3.74    0.50
   8   1  -7    2.71    0.43
   8   1  -7    3.68    0.54
  -8   1   7    4.82    0.52
   7  -1  -7   -0.49    0.17
   7  -1  -7    0.00    0.20
  -7  -1   7   -0.06    0.20
  -7  -1   7   -0.02    0.20
   7  -1  -7   -0.03    0.21
   7   1  -7    0.14    0.22
   7   1  -7    0.04    0.20
  -7   1   7    0.14    0.18
  -7   1   7    0.08    0.21
   7   1  -7    0.09    0.20
  -7   1   7   -0.16    0.18
   6  -1  -7   37.37    2.67
   6  -1  -7   38.16    2.32
  -6  -1   7   37.03    2.32
   6  -1  -7   32.97    2.30
   6   1  -7   34.59    2.32
   6   1  -7   33.85    2.28
  -6   1   7   33.86    2.25
  -6   1   7   34.46    2.32
   6   1  -7   36.91    2.71
   6   1  -7   38.79    2.29
  -6   1   7   35.88    2.28
   5  -1  -7    0.01    0.18
   5  -1  -7   -0.13    0.18
  -5  -1   7   -0.30    0.15
  -5  -1   7   -0.03    0.16
   5  -1  -7   -0.26    0.16
  -5   1   7   -0.21    0.14
   5   1  -7   -0.11    0.13
  -5   1   7   -0.07    0.14
  -5   1   7   -0.05    0.17
   5   1  -7   -0.10    0.18
   5   1  -7    0.03    0.16
   4  -1  -7   11.53    0.86
  -4  -1   7   11.46    0.86
   4  -1  -7   11.48    0.98
  -4  -1   7   11.58    0.87
   4  -1  -7   11.98    0.88
  -4   1   7   11.43    0.84
   4   1  -7   12.46    0.87
   4   1  -7   11.85    1.02
  -4   1   7   12.09    0.87
   4   1  -7   11.70    0.84
  -3  -1   7   -0.13    0.14
  -3  -1   7    0.18    0.14
   3  -1  -7   -0.18    0.12
   3  -1  -7    0.18    0.17
   3  -1  -7    0.01    0.14
   3   1  -7    0.47    0.17
   3   1  -7    0.05    0.14
  -3   1   7   -0.03    0.13
   3   1  -7   -0.04    0.13
  -3   1   7    0.13    0.15
   2  -1  -7   98.78    5.57
   2  -1  -7   97.52    6.41
   2   1  -7   85.73    5.57
  -2   1   7  103.27    5.54
  -2   1   7   79.94    5.57
   2   1  -7   78.65    5.51
   2   1  -7   95.06    6.43
   1  -1  -7   -0.25    0.13
   1   1  -7   -0.19    0.13
  -1   1   7   -0.18    0.13
   1   1  -7    0.03    0.13
  -1   1   7   -0.06    0.12
   1   1  -7    0.06    0.14
   1   1  -7   -0.17    0.11
   0  -1  -7  145.33    8.73
   0  -1  -7  132.53   10.03
   0   1  -7  157.15   10.06
   0   1   7  163.88    8.76
   0   1  -7  153.70    8.67
   0   1   7  131.81    8.67
   0   1  -7  125.85    8.72
  -1  -1  -7    0.05    0.15
  -1  -1  -7   -0.02    0.13
   1   1   7   -0.04    0.14
   1   1   7   -0.04    0.12
  -1   1  -7    0.09    0.13
  -1   1  -7    0.04    0.15
  -2  -1  -7   28.48    1.83
  -2  -1  -7   28.88    1.83
  -2  -1  -7   29.45    2.14
   2   1   7   28.89    1.85
  -2   1  -7   25.11    1.79
  -2   1  -7   28.90    2.12
   2   1   7   30.46    1.82
  -3  -1  -7    0.00    0.16
  -3  -1  -7    0.23    0.18
  -3   1  -7   -0.13    0.17
  -3   1  -7   -0.16    0.13
  -3   1  -7   -0.16    0.12
   3   1   7   -0.17    0.15
   3   1   7   -0.16    0.15
   4  -1   7   88.65    5.40
  -4  -1  -7   88.87    5.40
   4  -1   7   94.60    5.42
  -4  -1  -7   92.48    6.28
  -4   1  -7   89.10    5.37
  -4   1  -7   80.22    5.24
  -4   1  -7   82.75    6.25
  -4   1  -7   91.45    5.42
   4   1   7   93.59    5.43
   4   1   7   82.23    5.43
  -5  -1  -7    0.10    0.17
  -5  -1  -7   -0.15    0.19
   5  -1   7   -0.11    0.16
   5  -1   7    0.13    0.19
   5   1   7    0.14    0.19
  -5   1  -7   -0.14    0.14
  -5   1  -7    0.18    0.16
  -5   1  -7    0.18    0.17
   5   1   7    0.06    0.20
  -5   1  -7   -0.09    0.17
  -6  -1  -7  154.63    8.94
  -6  -1  -7  138.95   10.38
  -6   1  -7  154.31    8.71
  -6   1  -7  151.86    8.90
  -6   1  -7  157.48    8.98
   6   1   7  156.92    8.74
  -6   1  -7  141.82   10.34
   6   1   7  130.19    8.94
   6   1   7  140.34    9.00
  -7  -1  -7    0.01    0.18
  -7  -1  -7   -0.07    0.18
   7  -1   7   -0.13    0.22
   7   1   7   -0.07    0.21
   7   1   7    0.32    0.25
   7   1   7    0.13    0.22
  -7   1  -7    0.12    0.20
  -7   1  -7   -0.08    0.18
  -7   1  -7   -0.23    0.18
  -8  -1  -7   12.25    1.04
  -8  -1  -7   12.81    1.05
   8  -1   7   13.76    1.10
  -8   1  -7   13.72    1.07
  -8   1  -7   15.26    1.07
   8   1   7   12.62    1.07
   8   1   7   14.69    1.10
  -8   1  -7   14.47    1.02
   9  -1   7   -0.14    0.26
  -9  -1  -7    0.14    0.26
  -9  -1  -7   -0.20    0.22
  -9   1  -7   -0.23    0.19
  -9   1  -7    0.14    0.22
   9   1   7   -0.15    0.22
  -9   1  -7   -0.15    0.23
   9   1   7   -0.06    0.27
  10  -1   7   26.91    1.91
 -10  -1  -7   25.34    1.85
 -10  -1  -7   26.04    1.86
 -10   1  -7   27.46    1.86
  10   1   7   23.65    1.88
 -10   1  -7   29.02    1.82
 -10   1  -7   26.54    1.88
  10   1   7   27.68    1.91
  11  -1   7   -0.61    0.27
 -11  -1  -7   -0.03    0.30
 -11  -1  -7   -0.16    0.28
  11   1   7    0.19    0.32
 -11   1  -7    0.00    0.29
 -11   1  -7   -0.01    0.29
  11   1   7   -0.12    0.29
 -11   1  -7   -0.03    0.24
 -12  -1  -7   15.15    1.24
  12  -1   7   15.61    1.31
 -12   1  -7   13.36    1.12
 -12   1  -7   14.15    1.22
  12   1   7   14.84    1.25
  13  -1   7   -0.16    0.33
 -13  -1  -7    0.02    0.30
  13   1   7    0.03    0.34
 -13   1  -7    0.33    0.35
 -13   1  -7   -0.34    0.24
 -13  -2   7    5.25    0.69
  13  -2  -7    2.99    0.63
  13   2  -7    4.22    0.68
 -13   2   7    4.77    0.74
  13   2  -7    3.24    0.57
  12  -2  -7    0.60    0.40
 -12  -2   7   -0.08    0.31
 -12   2   7   -0.47    0.30
  12   2  -7   -0.20    0.29
 -12   2   7   -0.50    0.25
  12   2  -7   -0.35    0.28
  11  -2  -7    0.50    0.38
 -11  -2   7    1.12    0.41
 -11   2   7    0.65    0.26
 -11   2   7    0.97    0.36
 -11   2   7   -0.23    0.24
  11   2  -7    0.65    0.32
  11   2  -7    0.80    0.36
 -10  -2   7   -0.43    0.24
  10  -2  -7   -0.64    0.24
 -10   2   7   -0.19    0.24
  10   2  -7    0.22    0.27
 -10   2   7    0.17    0.28
 -10   2   7    0.09    0.21
  10   2  -7    0.27    0.32
  10   2  -7    0.21    0.29
   9  -2  -7  104.68    6.77
  -9  -2   7  105.19    6.77
   9   2  -7  108.28    6.60
  -9   2   7  109.76    6.80
  -9   2   7  116.49    6.66
  -9   2   7  118.27    6.60
   9   2  -7   99.64    6.69
   9   2  -7  113.57    6.82
  -8  -2   7    0.09    0.24
   8  -2  -7   -0.14    0.23
  -8   2   7    0.00    0.18
   8   2  -7    0.12    0.24
  -8   2   7   -0.04    0.22
  -8   2   7   -0.17    0.28
  -8   2   7    0.00    0.22
   8   2  -7    0.07    0.20
   8   2  -7    0.10    0.26
   7  -2  -7    0.80    0.27
  -7  -2   7    2.47    0.38
  -7   2   7    0.79    0.34
  -7   2   7    1.18    0.25
   7   2  -7    0.89    0.30
   7   2  -7    0.87    0.25
  -7   2   7    0.99    0.29
   7   2  -7    0.37    0.25
  -7   2   7    0.93    0.27
   6  -2  -7   -0.09    0.18
  -6  -2   7   -0.01    0.19
   6  -2  -7    0.00    0.19
  -6   2   7   -0.07    0.16
   6   2  -7    0.04    0.18
   6   2  -7    0.16    0.17
  -6   2   7    0.05    0.18
   6   2  -7   -0.07    0.19
  -6   2   7    0.01    0.17
   5  -2  -7   11.25    0.85
   5  -2  -7   12.65    0.97
  -5  -2   7   11.00    0.86
   5   2  -7   10.91    0.83
  -5   2   7   10.94    0.83
   5   2  -7   12.53    0.86
   5   2  -7   10.35    1.01
  -5   2   7   11.66    0.86
   5   2  -7   10.43    0.80
  -5   2   7   10.27    0.78
   4  -2  -7    0.01    0.18
   4  -2  -7    0.14    0.15
  -4  -2   7   -0.09    0.14
  -4   2   7    0.02    0.14
   4   2  -7   -0.02    0.13
   4   2  -7   -0.04    0.14
  -4   2   7   -0.10    0.13
  -4   2   7   -0.19    0.12
   4   2  -7   -0.10    0.16
   4   2  -7   -0.09    0.14
   3  -2  -7   20.02    1.49
  -3   2   7   16.43    1.29
   3   2  -7   18.33    1.52
   3   2  -7   18.98    1.24
  -3   2   7   19.93    1.26
   3   2  -7   19.39    1.26
  -3   2   7   20.42    1.26
   3   2  -7   20.69    1.31
   2  -2  -7   -0.10    0.15
  -2   2   7   -0.09    0.14
   2   2  -7    0.10    0.12
   2   2  -7   -0.10    0.14
   2   2  -7    0.13    0.19
  -2   2   7   -0.14    0.11
   1  -2  -7   36.88    2.49
   1   2  -7   30.89    2.15
   1   2  -7   38.23    2.54
  -1   2   7   32.97    2.16
   1   2  -7   33.89    2.09
  -1   2   7   32.19    2.11
   0  -2  -7   -0.06    0.14
   0   2  -7    0.30    0.19
   0   2   7   -0.02    0.14
   0   2   7   -0.06    0.13
  -1  -2  -7  311.27   21.74
   1   2   7  325.88   18.94
  -1   2  -7  310.19   21.75
   1   2   7  311.64   18.80
  -2  -2  -7    0.07    0.16
  -2   2  -7    0.03    0.12
  -2   2  -7   -0.13    0.13
  -2   2  -7   -0.04    0.17
   2   2   7   -0.12    0.15
   2   2   7   -0.29    0.14
  -3  -2  -7  283.05   20.31
  -3  -2  -7  276.19   17.56
  -3   2  -7  288.98   17.66
   3   2   7  294.94   17.69
  -3   2  -7  313.41   17.11
  -3   2  -7  308.78   17.50
   3   2   7  283.32   17.13
   3   2   7  279.01   17.56
  -3   2  -7  313.53   20.31
  -4  -2  -7    0.02    0.21
  -4  -2  -7   -0.09    0.15
  -4  -2  -7    0.19    0.16
  -4   2  -7    0.13    0.15
   4   2   7   -0.25    0.14
  -4   2  -7   -0.06    0.13
  -4   2  -7   -0.17    0.16
   4   2   7    0.02    0.18
   4   2   7   -0.04    0.15
  -4   2  -7   -0.17    0.12
  -5  -2  -7  156.07    9.92
  -5  -2  -7  153.58   11.51
  -5   2  -7  166.11   11.50
  -5   2  -7  156.75    9.85
  -5   2  -7  168.31    9.67
   5   2   7  157.36    9.92
   5   2   7  168.49    9.71
  -5   2  -7  180.25    9.99
   5   2   7  172.93   10.02
  -6  -2  -7    0.06    0.18
   6   2   7   -0.10    0.20
   6   2   7    0.26    0.21
  -6   2  -7   -0.35    0.19
  -6   2  -7    0.16    0.20
  -6   2  -7    0.05    0.15
   6   2   7    0.07    0.20
  -6   2  -7   -0.22    0.18
  -7  -2  -7   12.21    0.93
  -7   2  -7   11.34    0.93
   7   2   7   11.92    0.96
   7   2   7   12.35    0.95
   7   2   7   11.74    0.95
  -7   2  -7   10.54    0.82
  -7   2  -7   10.86    0.90
  -8  -2  -7    0.30    0.25
   8  -2   7   -0.11    0.24
   8   2   7    0.20    0.27
  -8   2  -7    0.24    0.18
   8   2   7   -0.01    0.25
  -8   2  -7   -0.06    0.22
  -8   2  -7    0.05    0.20
   8   2   7   -0.07    0.23
  -9  -2  -7    2.93    0.45
   9  -2   7   -0.38    0.27
   9   2   7   -0.11    0.26
  -9   2  -7    0.34    0.27
   9   2   7    0.49    0.30
  -9   2  -7    0.40    0.29
   9   2   7   -0.08    0.25
  10  -2   7   -0.44    0.29
 -10  -2  -7   -0.25    0.26
  10   2   7    0.06    0.31
  10   2   7   -0.80    0.26
 -10   2  -7   -0.25    0.25
 -10   2  -7   -0.21    0.25
  11  -2   7   11.08    1.08
 -11  -2  -7   13.75    1.09
  11   2   7   11.44    1.04
 -11   2  -7   11.83    1.06
 -11   2  -7   10.14    1.03
  11   2   7   11.22    1.07
  12  -2   7   -0.19    0.33
 -12  -2  -7    0.20    0.35
 -12   2  -7   -0.22    0.31
 -12   2  -7   -0.02    0.32
  12   2   7   -0.10    0.31
 -12   2  -7   -0.15    0.28
  12   2   7    0.26    0.36
 -13  -2  -7   10.44    1.04
  13  -2   7   10.05    1.14
  13   2   7   10.90    1.04
 -13   2  -7    9.25    1.04
  13   2   7   10.57    1.00
 -13   2  -7    9.79    1.04
 -13  -3   7    0.70    0.38
 -13   3   7    0.28    0.35
  13   3  -7    0.02    0.33
 -13   3   7   -0.45    0.27
 -12  -3   7   11.40    1.08
  12   3  -7    9.47    1.02
 -12   3   7    9.76    1.00
 -12   3   7   12.39    1.03
 -11  -3   7   -0.26    0.28
  11   3  -7    0.20    0.26
 -11   3   7    0.13    0.30
  11   3  -7    0.01    0.31
  11   3  -7   -0.22    0.30
 -11   3   7    0.03    0.29
 -10  -3   7    1.61    0.42
  10   3  -7    1.97    0.36
  10   3  -7    1.78    0.43
 -10   3   7    1.27    0.36
 -10   3   7    1.17    0.41
  10   3  -7    2.14    0.45
  -9  -3   7   -0.03    0.26
   9   3  -7    0.05    0.23
   9   3  -7   -0.14    0.20
   9   3  -7   -0.05    0.27
  -9   3   7    0.17    0.26
  -9   3   7   -0.37    0.19
  -8  -3   7    4.70    0.58
  -8   3   7    2.50    0.42
   8   3  -7    2.04    0.42
  -8   3   7    2.35    0.41
   8   3  -7    2.73    0.35
  -8   3   7    1.78    0.48
   8   3  -7    2.04    0.39
   7   3  -7    0.18    0.22
  -7   3   7    0.09    0.20
   7   3  -7    0.15    0.17
  -7   3   7   -0.13    0.26
  -7   3   7    0.13    0.20
   7   3  -7    0.25    0.22
   6   3  -7   27.48    1.86
   6   3  -7   28.97    1.79
  -6   3   7   29.02    1.85
  -6   3   7   28.83    1.90
  -6   3   7   29.59    2.03
   6   3  -7   27.69    1.91
   5   3  -7    0.03    0.19
  -5   3   7   -0.04    0.16
   5   3  -7    0.10    0.18
  -5   3   7    0.15    0.20
  -5   3   7   -0.08    0.26
  -4   3   7    7.72    0.65
   4   3  -7    7.96    0.80
  -4   3   7    8.42    0.64
   4   3  -7    7.96    0.65
   4   3  -7    8.18    0.66
  -4   3   7    8.04    0.81
   3   3  -7    0.10    0.15
  -3   3   7   -0.10    0.13
   3   3  -7    0.02    0.15
  -3   3   7    0.18    0.24
   3   3  -7    0.07    0.19
  -3   3   7   -0.03    0.12
   2  -3  -7   69.12    4.90
   2   3  -7   67.99    4.15
  -2   3   7   69.75    4.41
   2   3  -7   69.39    4.28
   2   3  -7   76.69    4.98
  -2   3   7   67.77    4.15
  -2   3   7   66.86    4.29
   1  -3  -7   -0.12    0.13
   1   3  -7    0.07    0.18
  -1   3   7    0.23    0.14
  -1   3   7   -0.36    0.12
   1   3  -7   -0.24    0.12
   1   3  -7    0.00    0.15
  -1   3   7   -0.23    0.22
   1   3  -7   -0.05    0.12
   0  -3  -7  126.00    8.71
   0   3   7  127.84    7.69
   0   3  -7  135.08    8.77
   0   3   7  118.91    7.35
   0   3  -7  119.61    7.58
   0   3  -7  118.48    7.34
   0   3   7  129.67    7.60
  -1  -3  -7    0.19    0.17
  -1   3  -7   -0.12    0.11
  -1   3  -7    0.22    0.16
   1   3   7   -0.11    0.13
   1   3   7    0.01    0.15
  -1   3  -7   -0.04    0.16
  -2  -3  -7   23.99    1.70
   2   3   7   22.34    1.46
  -2   3  -7   22.59    1.38
   2   3   7   21.44    1.41
  -2   3  -7   21.25    1.44
  -2   3  -7   21.23    1.41
  -2   3  -7   18.73    1.66
  -3  -3  -7   -0.25    0.18
   3   3   7   -0.06    0.13
   3   3   7   -0.09    0.15
  -3   3  -7   -0.06    0.15
  -3   3  -7   -0.06    0.14
   3   3   7    0.01    0.17
  -3   3  -7    0.11    0.14
  -3   3  -7   -0.10    0.20
  -4  -3  -7   71.06    5.31
  -4   3  -7   74.53    4.57
   4   3   7   72.99    4.61
  -4   3  -7   74.92    4.43
   4   3   7   75.04    4.48
   4   3   7   73.79    4.50
  -4   3  -7   76.49    5.30
  -5  -3  -7   -0.16    0.20
  -5  -3  -7   -0.22    0.21
   5   3   7   -0.02    0.16
  -5   3  -7    0.25    0.21
   5   3   7   -0.07    0.17
  -5   3  -7    0.24    0.19
   5   3   7    0.08    0.21
  -5   3  -7    0.05    0.19
  -6  -3  -7  121.84    7.96
  -6   3  -7  130.98    7.77
  -6   3  -7  135.13    9.22
   6   3   7  121.93    7.91
  -6   3  -7  126.60    7.76
   6   3   7  134.35    8.04
   6   3   7  136.33    7.80
  -6   3  -7  140.18    8.02
  -7  -3  -7    0.01    0.23
   7   3   7   -0.11    0.24
   7   3   7   -0.19    0.19
  -7   3  -7   -0.05    0.21
   7   3   7   -0.31    0.20
  -7   3  -7   -0.34    0.20
  -8  -3  -7   11.23    0.96
  -8   3  -7   11.54    0.94
  -8   3  -7    9.68    0.90
   8   3   7   12.25    1.01
   8   3   7   10.27    0.95
   8   3   7   11.85    0.91
  -9  -3  -7    0.31    0.30
   9   3   7   -0.09    0.26
  -9   3  -7    0.15    0.25
   9   3   7    0.13    0.23
   9   3   7   -0.17    0.26
  -9   3  -7   -0.27    0.23
 -10  -3  -7   21.54    1.78
  10   3   7   25.12    1.81
 -10   3  -7   24.31    1.77
 -10   3  -7   24.60    1.80
  10   3   7   27.98    1.74
  10   3   7   26.29    1.85
 -11  -3  -7   -0.54    0.30
 -11   3  -7   -0.19    0.28
  11   3   7    0.19    0.31
 -11   3  -7    0.16    0.28
  11   3   7   -0.24    0.25
 -12  -3  -7   11.91    1.13
  12   3   7   11.83    1.04
 -12   3  -7   12.49    1.12
 -12   3  -7   13.70    1.14
  12   3   7   10.31    1.10
 -12  -4   7    0.05    0.32
 -12   4   7    0.25    0.31
  12   4  -7   -0.47    0.29
 -12   4   7   -0.37    0.26
  12   4  -7   -0.45    0.32
 -11   4   7   77.40    4.55
  11   4  -7   70.69    4.44
 -11   4   7   69.14    4.39
  11   4  -7   63.70    4.52
  10   4  -7    0.11    0.32
  10   4  -7    0.04    0.31
 -10   4   7    0.05    0.28
 -10   4   7   -0.09    0.25
   9   4  -7    5.33    0.71
   9   4  -7    5.02    0.65
  -9   4   7    6.37    0.67
  -9   4   7    5.65    0.69
   8   4  -7   -0.06    0.23
  -8   4   7    0.19    0.24
   8   4  -7   -0.16    0.23
  -8   4   7    0.03    0.33
  -8   4   7    0.11    0.23
   7   4  -7   28.13    1.95
  -7   4   7   30.82    1.99
   7   4  -7   28.97    1.99
  -7   4   7   28.97    1.92
  -7   4   7   29.57    2.13
  -6   4   7    0.07    0.19
   6   4  -7   -0.35    0.19
   6   4  -7   -0.30    0.17
  -6   4   7   -0.07    0.19
  -6   4   7    0.12    0.30
   5   4  -7  104.93    5.91
  -5   4   7   97.94    6.08
  -5   4   7  101.67    5.91
  -5   4   7   97.01    6.23
   5   4  -7   92.65    6.08
   4   4  -7   -0.28    0.14
  -4   4   7   -0.13    0.12
  -4   4   7   -0.02    0.16
  -4   4   7   -0.06    0.28
   4   4  -7   -0.07    0.17
   3   4  -7    1.14    0.23
  -3   4   7    1.31    0.40
   3   4  -7    0.36    0.19
   3   4  -7    2.09    0.38
  -3   4   7    0.74    0.26
  -3   4   7    1.05    0.24
  -3   4   7    0.70    0.21
   2   4  -7   -0.33    0.18
   2   4  -7    0.21    0.15
   2   4  -7    0.06    0.23
  -2   4   7   -0.04    0.15
   2   4  -7   -0.04    0.15
  -2   4   7    0.07    0.15
  -2   4   7    0.13    0.18
  -2   4   7    0.16    0.27
  -1   4   7   36.73    2.41
   1   4  -7   38.44    2.31
   1   4  -7   41.22    2.48
  -1   4   7   36.26    2.31
  -1   4   7   37.00    2.40
   1   4  -7   41.89    2.39
  -1   4   7   34.22    2.53
   1   4  -7   35.75    2.78
   0   4  -7   -0.10    0.16
   0   4   7   -0.17    0.14
   0   4   7    0.06    0.15
   0   4  -7    0.03    0.16
   0   4  -7    0.06    0.13
   0   4   7    0.26    0.28
  -1   4  -7    9.27    0.70
   1   4   7    8.74    0.70
  -1   4  -7    9.73    0.86
  -1   4  -7    9.62    0.76
   1   4   7    9.84    0.74
  -1   4  -7    9.23    0.87
   1   4   7    8.08    0.86
  -1   4  -7    9.93    0.69
  -2  -4  -7   -0.38    0.17
   2   4   7    0.00    0.17
   2   4   7    0.38    0.18
   2   4   7    0.06    0.24
  -2   4  -7    0.54    0.32
  -2   4  -7    0.04    0.18
  -2   4  -7    0.03    0.13
  -2   4  -7   -0.12    0.13
  -2   4  -7   -0.01    0.16
  -3  -4  -7  178.80   11.78
   3   4   7  152.84    9.91
  -3   4  -7  187.56   11.78
  -3   4  -7  176.15   10.24
  -3   4  -7  158.16   10.19
  -3   4  -7  161.91    9.88
   3   4   7  162.06   10.24
  -3   4  -7  168.01   10.27
   3   4   7  173.10   10.26
  -4  -4  -7   -0.01    0.20
   4   4   7    0.03    0.22
   4   4   7   -0.24    0.17
   4   4   7    0.07    0.17
  -4   4  -7    0.05    0.18
  -4   4  -7    0.00    0.30
  -4   4  -7   -0.06    0.19
  -4   4  -7    0.04    0.17
  -5   4  -7    1.97    0.38
  -5   4  -7    2.54    0.38
  -5   4  -7    2.37    0.36
   5   4   7    1.48    0.35
   5   4   7    1.39    0.32
  -6   4  -7   -0.21    0.20
   6   4   7   -0.26    0.20
  -6   4  -7    0.12    0.22
   6   4   7    0.22    0.27
  -7   4  -7   98.86    5.99
   7   4   7   98.08    6.05
   7   4   7   98.77    5.85
  -7   4  -7   90.21    5.79
  -8   4  -7   -0.07    0.24
   8   4   7    0.11    0.29
   8   4   7   -0.39    0.28
  -8   4  -7   -0.24    0.23
   9   4   7   31.44    2.27
   9   4   7   33.81    2.22
  -9   4  -7   30.35    2.15
  -9   4  -7   33.50    2.23
 -10  -4  -7   -0.41    0.35
  10   4   7    0.18    0.32
  10   4   7    0.15    0.30
 -10   4  -7    0.04    0.31
 -10   4  -7   -0.05    0.26
 -11  -4  -7   35.82    2.37
  11   4   7   31.42    2.30
 -11   4  -7   32.34    2.32
 -11   4  -7   33.75    2.28
  11   4   7   33.16    2.38
 -11   5   7   -0.26    0.29
  11   5  -7   -0.02    0.32
  11   5  -7    0.15    0.32
 -11   5   7   -0.19    0.27
 -10   5   7    0.67    0.36
  10   5  -7    0.87    0.38
  10   5  -7    1.33    0.42
 -10   5   7    1.44    0.37
   9   5  -7   -0.07    0.29
  -9   5   7    0.05    0.34
  -9   5   7   -0.19    0.26
  -9   5   7   -0.23    0.24
   9   5  -7    0.01    0.27
  -8   5   7    3.99    0.66
   8   5  -7    2.61    0.45
  -8   5   7    3.14    0.47
  -8   5   7    2.89    0.48
   8   5  -7    3.21    0.51
  -7   5   7   -0.02    0.21
  -7   5   7    0.01    0.33
   7   5  -7   -0.08    0.23
  -7   5   7   -0.09    0.20
   7   5  -7    0.05    0.24
  -6   5   7   18.54    1.35
   6   5  -7   19.14    1.41
  -6   5   7   21.94    1.40
   6   5  -7   19.79    1.38
  -6   5   7   18.78    1.57
  -5   5   7   -0.03    0.20
  -5   5   7   -0.44    0.27
  -5   5   7   -0.09    0.18
  -5   5   7    0.13    0.26
   5   5  -7   -0.26    0.18
   5   5  -7    0.19    0.24
  -4   5   7    8.25    0.74
  -4   5   7    5.34    0.79
   4   5  -7    7.63    0.64
  -4   5   7    6.84    0.60
  -4   5   7    7.71    0.64
   4   5  -7    7.44    0.64
   3   5  -7    0.05    0.17
  -3   5   7   -0.04    0.29
   3   5  -7   -0.21    0.26
   3   5  -7    0.01    0.16
  -3   5   7   -0.23    0.15
  -3   5   7    0.04    0.16
  -3   5   7   -0.05    0.21
  -2   5   7   47.53    3.21
  -2   5   7   54.09    3.16
  -2   5   7   51.48    3.37
   2   5  -7   48.67    3.71
   2   5  -7   51.83    3.15
   2   5  -7   48.16    3.06
  -2   5   7   50.19    3.06
   2   5  -7   51.68    3.29
  -1   5   7    0.09    0.17
  -1   5   7    0.10    0.29
  -1   5   7   -0.18    0.20
   1   5  -7   -0.08    0.14
  -1   5   7   -0.04    0.15
   1   5  -7    0.16    0.31
   1   5  -7   -0.55    0.19
   0   5   7   88.90    5.27
   0   5  -7   87.02    5.41
   0   5  -7   85.04    5.09
   0   5   7   88.16    5.42
   0   5  -7   74.79    5.33
   0   5   7   90.63    5.11
  -1   5  -7   -0.03    0.31
   1   5   7    0.09    0.26
   1   5   7    0.13    0.17
  -1   5  -7    0.23    0.24
  -1   5  -7    0.04    0.15
   1   5   7   -0.03    0.18
  -2   5  -7   14.91    1.25
   2   5   7   15.10    1.05
   2   5   7   14.46    1.19
   2   5   7   15.22    1.09
  -2   5  -7   13.73    1.14
  -2   5  -7   16.13    1.02
  -3   5  -7   -0.10    0.21
   3   5   7    0.01    0.26
   3   5   7    0.10    0.18
  -3   5  -7   -0.01    0.16
  -3   5  -7    0.15    0.31
   3   5   7    0.06    0.21
   4   5   7   50.42    3.32
  -4   5  -7   55.03    3.47
   4   5   7   51.78    3.49
  -4   5  -7   56.50    3.53
  -4   5  -7   58.90    3.29
   4   5   7   51.46    3.44
  -5   5  -7    0.09    0.22
  -5   5  -7   -0.03    0.35
  -5   5  -7    0.09    0.23
  -5   5  -7   -0.14    0.19
   5   5   7   -0.09    0.20
   5   5   7    0.06    0.27
  -6   5  -7  104.62    5.82
   6   5   7   96.34    5.67
  -6   5  -7   89.18    5.63
  -6   5  -7   96.14    5.87
   6   5   7   82.09    5.84
   7   5   7   -0.09    0.24
   7   5   7   -0.08    0.28
  -7   5  -7   -0.37    0.22
  -7   5  -7    0.23    0.24
  -8   5  -7   10.31    0.88
  -8   5  -7    9.27    0.87
   8   5   7    8.78    0.88
   8   5   7    9.05    0.95
   9   5   7   -0.30    0.30
  -9   5  -7    0.28    0.28
   9   5   7   -0.20    0.30
  -9   5  -7   -0.34    0.24
  10   5   7   14.92    1.35
 -10   5  -7   16.51    1.35
  10   5   7   20.59    1.48
 -10   5  -7   16.83    1.34
   9   6  -7   52.21    3.68
   9   6  -7   54.85    3.57
  -9   6   7   59.19    3.66
  -9   6   7   55.65    3.81
  -9   6   7   59.30    3.54
  -9   6   7   54.55    3.80
   8   6  -7    0.23    0.30
   8   6  -7    0.29    0.30
  -8   6   7   -0.25    0.35
  -8   6   7    0.40    0.34
  -8   6   7    0.09    0.27
  -8   6   7   -0.29    0.22
  -7   6   7    1.70    0.35
   7   6  -7    1.82    0.40
  -7   6   7    1.71    0.53
  -7   6   7    1.95    0.48
   7   6  -7    0.69    0.34
  -7   6   7    1.57    0.35
   6   6  -7   -0.25    0.22
  -6   6   7    0.02    0.35
   6   6  -7    0.25    0.26
  -6   6   7    0.09    0.22
  -6   6   7    0.04    0.30
   5   6  -7    3.12    0.43
  -5   6   7    3.37    0.62
   5   6  -7    4.14    0.49
  -5   6   7    1.56    0.34
  -5   6   7    2.71    0.51
  -4   6   7   -0.02    0.36
  -4   6   7    0.00    0.27
  -4   6   7    0.07    0.18
   4   6  -7    0.08    0.22
   4   6  -7   -0.11    0.20
  -3   6   7    7.36    0.66
   3   6  -7    8.27    0.93
  -3   6   7    9.07    0.83
   3   6  -7    8.68    0.68
  -3   6   7    8.05    0.97
   2   6  -7    0.20    0.36
   2   6  -7   -0.13    0.16
  -2   6   7   -0.19    0.24
  -2   6   7   -0.47    0.26
  -2   6   7    0.07    0.18
   2   6  -7   -0.20    0.29
  -1   6   7   11.57    0.81
   1   6  -7   10.26    0.79
  -1   6   7    9.51    1.09
   1   6  -7   12.00    1.10
   1   6  -7   11.99    1.01
   0   6  -7   -0.28    0.32
   0   6  -7   -0.06    0.25
   0   6  -7   -0.17    0.15
   0   6   7   -0.12    0.18
   0   6   7    0.06    0.31
  -1   6  -7  138.65    7.92
  -1   6  -7  129.30    7.52
  -1   6  -7  138.96    7.99
   1   6   7  119.21    7.55
   1   6   7  114.41    7.93
  -2   6  -7   -0.12    0.24
  -2   6  -7   -0.11    0.16
  -2   6  -7   -0.65    0.25
   2   6   7    0.01    0.21
   2   6   7   -0.08    0.30
   2   6   7    0.33    0.20
   3   6   7  161.39    8.99
  -3   6  -7  147.09    9.10
  -3   6  -7  128.87    9.03
   3   6   7  159.27    9.10
  -3   6  -7  143.57    8.63
   3   6   7  142.17    8.69
  -4   6  -7    0.59    0.37
  -4   6  -7    0.09    0.25
   4   6   7    0.31    0.22
  -4   6  -7   -0.16    0.16
   4   6   7    0.14    0.24
   4   6   7    0.27    0.33
  -5   6  -7   69.72    4.53
  -5   6  -7   76.90    4.61
   5   6   7   73.56    4.51
  -5   6  -7   65.30    4.28
   5   6   7   70.83    4.34
  -6   6  -7   -0.11    0.26
   6   6   7    0.40    0.31
   6   6   7    0.08    0.26
  -6   6  -7    0.00    0.24
   7   6   7   11.60    1.07
  -7   6  -7   10.54    1.07
   7   6   7   13.01    1.02
  -7   6  -7   11.71    0.98
  -8   6  -7   -0.05    0.27
  -8   6  -7    0.62    0.31
   8   6   7    0.30    0.34
   8   6   7   -0.28    0.25
   9   6   7   -0.09    0.29
  -9   6  -7    0.59    0.35
   9   6   7    0.49    0.36
  -9   6  -7   -0.06    0.29
  -7   7   7    0.07    0.35
  -7   7   7    0.39    0.26
  -7   7   7    0.25    0.44
   7   7  -7    0.01    0.29
   7   7  -7    0.10    0.27
  -6   7   7   15.11    1.38
  -6   7   7   14.15    1.19
  -6   7   7   12.95    0.98
   6   7  -7    9.58    0.97
   5   7  -7   -0.01    0.22
  -5   7   7    0.20    0.32
  -5   7   7    0.31    0.41
  -5   7   7   -0.03    0.22
  -4   7   7    3.91    0.73
  -4   7   7    3.82    0.45
  -4   7   7    4.36    0.66
   4   7  -7    4.30    0.50
   3   7  -7    0.07    0.37
   3   7  -7    0.21    0.47
  -3   7   7    0.05    0.20
   3   7  -7   -0.24    0.19
  -3   7   7    0.55    0.33
  -3   7   7    0.22    0.40
  -2   7   7   30.41    2.07
  -2   7   7   28.79    2.23
   2   7  -7   32.46    2.17
  -2   7   7   29.25    1.86
   2   7  -7   26.07    2.16
   2   7  -7   28.49    1.85
   1   7  -7   -0.22    0.17
   1   7  -7    0.41    0.45
   1   7  -7   -0.04    0.29
  -1   7   7    0.13    0.19
  -1   7   7   -0.10    0.37
   0   7  -7   50.27    3.08
   0   7   7   50.35    3.47
   0   7  -7   52.57    3.48
   0   7  -7   47.31    3.37
   0   7   7   53.16    3.12
   1   7   7    0.20    0.37
  -1   7  -7    0.00    0.39
  -1   7  -7    0.22    0.19
   1   7   7   -0.15    0.18
  -1   7  -7    0.03    0.30
  -2   7  -7    6.84    0.95
   2   7   7    9.05    0.70
  -2   7  -7    7.40    0.86
   2   7   7    8.57    0.97
  -2   7  -7    7.60    0.64
   3   7   7   -0.58    0.30
  -3   7  -7    0.06    0.39
   3   7   7   -0.07    0.19
  -3   7  -7   -0.18    0.27
  -3   7  -7    0.01    0.18
   4   7   7   33.83    2.32
  -4   7  -7   38.40    2.28
  -4   7  -7   35.32    2.60
   4   7   7   38.33    2.57
  -4   7  -7   35.31    2.54
  -5   7  -7   -0.03    0.29
  -5   7  -7   -0.03    0.18
   5   7   7    0.44    0.31
  -5   7  -7    0.26    0.40
   5   7   7   -0.07    0.23
   6   7   7   67.36    4.00
  -6   7  -7   64.95    4.20
   6   7   7   63.84    4.14
  -6   7  -7   61.21    3.93
  -7   7  -7   -0.62    0.29
   7   7   7   -0.54    0.28
   7   7   7   -0.32    0.23
  -7   7  -7    0.10    0.27
  -4   8   7    0.35    0.32
  -4   8   7    0.24    0.21
  -4   8   7   -0.17    0.43
   4   8  -7   -0.16    0.20
   3   8  -7    0.97    0.57
  -3   8   7    0.18    0.22
  -3   8   7    0.68    0.49
   3   8  -7   -0.19    0.38
  -3   8   7    1.32    0.43
   3   8  -7    0.09    0.22
   2   8  -7    0.01    0.19
   2   8  -7   -0.48    0.39
   2   8  -7   -0.19    0.35
  -2   8   7   -0.14    0.20
  -2   8   7   -0.07    0.39
   1   8  -7    8.68    0.70
   1   8  -7    8.85    1.04
   1   8  -7    8.58    1.10
  -1   8   7    9.57    1.11
  -1   8   7    8.40    0.71
   0   8  -7   -0.03    0.35
   0   8  -7    0.32    0.20
   0   8   7   -0.01    0.40
   0   8  -7   -0.39    0.41
   0   8   7    0.25    0.22
  -1   8  -7   11.88    1.29
   1   8   7   11.63    0.87
  -1   8  -7   11.42    1.12
   1   8   7    9.95    1.19
  -1   8  -7   10.71    0.81
   2   8   7    0.51    0.43
   2   8   7   -0.03    0.17
  -2   8  -7    0.05    0.37
  -2   8  -7    0.14    0.44
  -2   8  -7    0.05    0.19
  -3   8  -7   68.12    4.70
  -3   8  -7   70.43    4.61
   3   8   7   71.65    4.30
   3   8   7   69.84    4.66
  -3   8  -7   71.75    4.25
  -4   8  -7    0.11    0.20
 -13   0   8   -0.47    0.33
 -13   0   8   -0.15    0.27
  13   0  -8    0.27    0.38
 -12   0   8   11.88    1.02
  12   0  -8    9.78    1.07
 -12   0   8   12.68    1.11
 -11   0   8   -0.20    0.26
  11   0  -8   -0.04    0.29
 -11   0   8   -0.24    0.28
 -10   0   8    2.16    0.42
  10   0  -8    1.22    0.41
 -10   0   8    1.22    0.37
  10   0  -8    1.07    0.40
   9   0  -8   -0.29    0.23
  -9   0   8   -0.01    0.24
   9   0  -8    0.72    0.32
  -9   0   8    0.24    0.25
  -8   0   8   53.95    3.58
  -8   0   8   59.47    3.63
   8   0  -8   58.12    3.63
   8   0  -8   55.26    3.61
   7   0  -8   -0.08    0.21
  -7   0   8    0.14    0.19
   7   0  -8   -0.06    0.23
  -7   0   8   -0.24    0.18
  -6   0   8   76.45    4.77
  -6   0   8   79.96    4.74
   6   0  -8   76.48    4.72
   6   0  -8   70.81    5.46
   6   0  -8   78.50    4.77
   5   0  -8    0.08    0.17
  -5   0   8    0.08    0.18
   5   0  -8   -0.02    0.18
  -5   0   8    0.08    0.17
   5   0  -8    0.39    0.23
   4   0  -8    9.42    0.88
  -4   0   8    9.53    0.75
   4   0  -8   10.36    0.75
   4   0  -8    9.95    0.76
  -4   0   8    8.99    0.76
   3   0  -8   -0.14    0.15
   3   0  -8   -0.03    0.15
  -3   0   8    0.06    0.16
   3   0  -8    0.32    0.21
  -3   0   8   -0.05    0.15
  -2   0   8   17.96    1.28
   2   0  -8   19.46    1.51
   2   0  -8   17.13    1.28
   2   0  -8   20.28    1.29
  -2   0   8   20.74    1.29
   1   0  -8    0.06    0.15
  -1   0   8    0.11    0.16
   1   0  -8   -0.05    0.13
   1   0  -8    0.07    0.16
  -1   0   8    0.28    0.16
   0   0  -8  374.21   21.10
   0   0   8  351.89   21.10
   0   0  -8  341.76   24.39
   0   0  -8  361.03   21.10
   0   0  -8  337.21   21.23
   0   0   8  353.08   21.24
  -1   0  -8   -0.12    0.14
  -1   0  -8    0.01    0.14
  -1   0  -8    0.06    0.17
   1   0   8   -0.27    0.14
   1   0   8    0.08    0.15
  -2   0  -8   25.12    1.52
   2   0   8   24.80    1.53
  -2   0  -8   23.00    1.51
  -2   0  -8   19.59    1.75
   2   0   8   21.83    1.53
  -3   0  -8   -0.16    0.16
  -3   0  -8    0.20    0.16
   3   0   8   -0.02    0.16
   3   0   8   -0.07    0.15
   4   0   8  276.02   15.88
   4   0   8  242.65   15.97
  -4   0  -8  285.94   15.87
  -4   0  -8  254.31   18.37
  -5   0  -8   -0.18    0.16
  -5   0  -8    0.09    0.17
  -5   0  -8    0.00    0.16
   5   0   8   -0.03    0.16
   5   0   8    0.05    0.20
  -6   0  -8   61.57    4.10
  -6   0  -8   67.40    4.25
   6   0   8   61.27    4.24
   6   0   8   73.64    4.27
  -6   0  -8   75.42    4.22
   7   0   8   -0.13    0.22
   7   0   8   -0.20    0.18
  -7   0  -8   -0.10    0.18
  -7   0  -8   -0.09    0.18
  -7   0  -8   -0.03    0.20
  -8   0  -8   84.60    5.56
  -8   0  -8   89.40    5.62
   8   0   8   98.26    5.66
   8   0   8   89.59    5.63
   9   0   8    0.16    0.30
  -9   0  -8    0.09    0.27
  -9   0  -8   -0.21    0.23
  10   0   8    5.06    0.69
 -10   0  -8    4.25    0.62
 -10   0  -8    5.63    0.65
 -11   0  -8   -0.12    0.24
  11   0   8   -0.06    0.34
 -11   0  -8   -0.22    0.26
 -12   0  -8   10.59    0.99
 -12   0  -8   12.37    1.07
  12   0   8   10.01    1.07
  13   0   8    0.00    0.35
 -13   0  -8    0.00    0.35
 -13   0  -8   -0.24    0.28
  13  -1  -8    4.92    0.71
 -13  -1   8    4.65    0.69
 -13   1   8    4.30    0.72
  13   1  -8    5.09    0.71
 -13   1   8    4.92    0.63
 -12  -1   8    0.21    0.33
  12  -1  -8   -0.21    0.33
 -12   1   8   -0.12    0.30
 -12   1   8   -0.05    0.28
  12   1  -8   -0.04    0.30
  12   1  -8   -0.05    0.33
  11  -1  -8   10.33    0.97
 -11  -1   8    8.08    0.94
 -11   1   8    8.97    0.91
  11   1  -8    9.77    0.93
  11   1  -8   10.36    0.96
 -11   1   8   10.16    0.88
  10  -1  -8    0.00    0.31
 -10  -1   8    0.30    0.28
 -10   1   8    0.11    0.27
  10   1  -8   -0.18    0.26
  10   1  -8    0.05    0.28
 -10   1   8    0.23    0.25
  -9  -1   8   43.36    2.80
  -9  -1   8   43.29    2.81
   9  -1  -8   43.58    2.81
   9   1  -8   45.15    2.79
  -9   1   8   42.29    2.74
  -9   1   8   37.66    2.79
  -9   1   8   44.19    2.76
   9   1  -8   40.91    2.81
  -8  -1   8    0.30    0.23
   8  -1  -8    0.19    0.26
  -8  -1   8    0.05    0.23
  -8   1   8    0.01    0.23
  -8   1   8   -0.17    0.20
  -8   1   8    0.12    0.21
   8   1  -8    0.06    0.23
   8   1  -8    0.18    0.26
   7  -1  -8   12.21    1.08
  -7  -1   8   12.57    0.93
   7  -1  -8   11.85    0.96
  -7  -1   8   11.01    0.93
  -7   1   8   12.36    0.92
   7   1  -8   12.25    0.94
   7   1  -8   10.98    0.95
  -7   1   8   10.38    0.93
  -7   1   8   10.29    0.90
   7   1  -8   11.51    0.91
   6  -1  -8   -0.13    0.16
  -6  -1   8   -0.34    0.16
  -6  -1   8   -0.06    0.19
   6  -1  -8   -0.01    0.22
   6  -1  -8   -0.10    0.18
   6   1  -8   -0.20    0.16
  -6   1   8   -0.04    0.17
  -6   1   8    0.06    0.19
   6   1  -8   -0.07    0.19
  -6   1   8    0.11    0.19
   6   1  -8    0.09    0.20
  -5  -1   8    7.84    0.69
  -5  -1   8    8.48    0.70
   5  -1  -8    8.54    0.72
   5  -1  -8    8.90    0.82
   5  -1  -8    7.52    0.69
   5   1  -8    9.19    0.85
   5   1  -8    9.05    0.69
   5   1  -8    8.00    0.70
  -5   1   8    8.33    0.70
  -5   1   8    7.99    0.67
  -5   1   8    7.82    0.68
  -4  -1   8    0.07    0.17
   4  -1  -8   -0.10    0.16
   4  -1  -8    0.02    0.17
   4  -1  -8    0.14    0.16
  -4  -1   8    0.10    0.17
   4   1  -8   -0.23    0.16
  -4   1   8   -0.02    0.17
  -4   1   8    0.05    0.16
  -4   1   8   -0.07    0.15
   4   1  -8   -0.27    0.15
   4   1  -8    0.26    0.17
   4   1  -8   -0.03    0.15
  -3  -1   8  315.58   19.60
   3  -1  -8  310.93   22.51
  -3  -1   8  299.31   19.49
   3  -1  -8  314.98   19.60
   3  -1  -8  341.50   19.50
   3   1  -8  339.25   19.62
  -3   1   8  309.30   19.62
   3   1  -8  352.62   19.48
   3   1  -8  320.19   22.54
  -3   1   8  353.25   19.49
  -2  -1   8    0.03    0.14
   2  -1  -8   -0.23    0.14
  -2  -1   8    0.00    0.14
   2  -1  -8    0.27    0.17
   2  -1  -8   -0.06    0.15
   2   1  -8   -0.01    0.18
   2   1  -8   -0.12    0.12
  -2   1   8   -0.07    0.15
   2   1  -8   -0.05    0.14
  -2   1   8   -0.03    0.13
  -1  -1   8    4.67    0.46
   1  -1  -8    5.13    0.49
   1  -1  -8    4.38    0.46
  -1  -1   8    5.00    0.48
   1  -1  -8    6.22    0.58
  -1   1   8    5.94    0.49
   1   1  -8    5.24    0.45
   1   1  -8    4.09    0.54
   1   1  -8    5.32    0.49
  -1   1   8    5.61    0.50
   1   1  -8    5.51    0.46
   0  -1   8    0.02    0.14
   0  -1  -8   -0.01    0.15
   0  -1  -8   -0.04    0.16
   0  -1  -8    0.05    0.15
   0  -1   8    0.04    0.14
   0   1  -8    0.08    0.14
   0   1  -8    0.04    0.13
   0   1   8   -0.03    0.13
   0   1   8   -0.03    0.14
   0   1  -8   -0.07    0.13
  -1  -1  -8   43.27    3.18
   1  -1   8   41.77    2.74
  -1  -1  -8   45.82    2.76
   1  -1   8   45.96    2.75
  -1  -1  -8   47.11    2.75
  -1  -1  -8   45.90    2.75
   1   1   8   42.52    2.77
  -1   1  -8   44.23    2.74
  -1   1  -8   41.40    3.19
  -1   1  -8   40.95    2.71
   1   1   8   42.02    2.73
   2  -1   8   -0.06    0.15
   2  -1   8    0.22    0.16
  -2  -1  -8   -0.36    0.14
  -2  -1  -8   -0.01    0.16
  -2  -1  -8    0.06    0.14
   2   1   8    0.00    0.15
  -2   1  -8   -0.02    0.14
   2   1   8    0.01    0.16
  -2   1  -8   -0.06    0.12
  -3  -1  -8    2.05    0.41
   3  -1   8    2.15    0.31
  -3  -1  -8    1.97    0.28
   3  -1   8    2.48    0.35
  -3  -1  -8    2.06    0.32
  -3   1  -8    1.00    0.30
   3   1   8    1.95    0.33
   3   1   8    2.20    0.32
  -3   1  -8    1.85    0.29
  -3   1  -8    1.85    0.27
   4  -1   8   -0.06    0.15
   4  -1   8    0.08    0.16
  -4  -1  -8   -0.11    0.16
  -4  -1  -8   -0.06    0.16
   4   1   8   -0.04    0.19
  -4   1  -8   -0.25    0.13
  -4   1  -8    0.21    0.18
  -4   1  -8    0.03    0.15
   4   1   8    0.23    0.18
  -4   1  -8   -0.03    0.16
   5  -1   8    2.89    0.41
  -5  -1  -8    2.72    0.49
  -5  -1  -8    2.86    0.39
   5   1   8    2.65    0.40
  -5   1  -8    2.66    0.36
  -5   1  -8    3.12    0.36
  -5   1  -8    2.17    0.43
   5   1   8    2.76    0.41
  -5   1  -8    3.08    0.39
   5   1   8    2.23    0.39
  -6  -1  -8   -0.20    0.17
   6  -1   8    0.00    0.19
   6   1   8    0.06    0.25
   6   1   8   -0.13    0.20
   6   1   8   -0.09    0.20
  -6   1  -8   -0.09    0.16
  -6   1  -8   -0.01    0.18
  -6   1  -8    0.15    0.20
   7  -1   8   37.22    2.69
  -7  -1  -8   46.91    2.70
   7   1   8   44.26    2.72
  -7   1  -8   36.30    2.67
   7   1   8   37.92    2.70
  -7   1  -8   42.67    2.64
  -7   1  -8   45.34    2.63
   8  -1   8   -0.14    0.25
  -8  -1  -8    0.19    0.23
  -8   1  -8    0.40    0.23
   8   1   8   -0.04    0.24
  -8   1  -8    0.11    0.22
   8   1   8    0.07    0.27
  -8   1  -8   -0.13    0.20
   9  -1   8   38.83    2.53
  -9  -1  -8   35.71    2.46
  -9  -1  -8   35.34    2.48
  -9   1  -8   33.05    2.40
  -9   1  -8   41.49    2.44
  -9   1  -8   39.02    2.49
   9   1   8   34.06    2.48
   9   1   8   40.92    2.54
  10  -1   8   -0.05    0.31
 -10  -1  -8    0.03    0.27
 -10  -1  -8    0.08    0.26
  10   1   8   -0.19    0.30
 -10   1  -8    0.03    0.27
 -10   1  -8    0.21    0.24
  10   1   8    0.10    0.31
 -10   1  -8    0.19    0.29
 -11  -1  -8   33.65    2.21
  11  -1   8   31.02    2.24
 -11   1  -8   32.39    2.21
  11   1   8   30.77    2.22
  11   1   8   29.95    2.23
 -11   1  -8   31.42    2.12
  12  -1   8    0.17    0.34
 -12  -1  -8    0.28    0.31
 -12   1  -8   -0.20    0.31
  12   1   8    0.12    0.33
 -12   1  -8    0.16    0.26
  13  -1   8    1.24    0.46
 -13  -1  -8   -0.06    0.34
 -13   1  -8   -0.02    0.30
 -13   1  -8    0.66    0.32
  13   1   8    0.28    0.38
 -13  -2   8   -0.20    0.31
  13  -2  -8    0.27    0.38
  13   2  -8   -0.34    0.29
  13   2  -8   -0.23    0.30
 -13   2   8    0.26    0.36
  12  -2  -8   36.50    2.32
 -12  -2   8   30.29    2.23
  12   2  -8   30.96    2.25
 -12   2   8   29.95    2.17
  12   2  -8   31.64    2.17
 -12   2   8   30.73    2.23
  11  -2  -8    0.08    0.33
 -11  -2   8   -0.37    0.31
 -11   2   8    0.02    0.24
  11   2  -8    0.04    0.31
 -11   2   8   -0.04    0.29
 -11   2   8    0.14    0.30
  11   2  -8    0.45    0.32
 -10  -2   8   36.93    2.45
  10  -2  -8   38.04    2.48
 -10   2   8   34.87    2.32
  10   2  -8   36.36    2.39
 -10   2   8   34.06    2.44
  10   2  -8   36.56    2.46
 -10   2   8   34.75    2.39
   9  -2  -8   -0.19    0.26
  -9  -2   8   -0.13    0.23
   9   2  -8   -0.16    0.23
  -9   2   8    0.04    0.21
   9   2  -8    0.09    0.23
  -9   2   8   -0.29    0.24
   9   2  -8    0.01    0.24
  -9   2   8   -0.52    0.22
  -8  -2   8    0.67    0.28
   8  -2  -8    0.66    0.32
  -8   2   8    0.76    0.35
  -8   2   8    0.41    0.25
   8   2  -8    0.46    0.27
   8   2  -8    1.33    0.35
   8   2  -8    0.91    0.30
  -8   2   8    0.62    0.25
  -8   2   8    0.72    0.29
   7  -2  -8   -0.02    0.21
  -7  -2   8    0.14    0.23
  -7   2   8   -0.15    0.19
  -7   2   8   -0.14    0.20
   7   2  -8    0.34    0.26
   7   2  -8    0.18    0.19
  -7   2   8    0.10    0.19
   7   2  -8   -0.03    0.23
  -6  -2   8  498.52   27.18
   6  -2  -8  446.75   27.14
  -6   2   8  436.65   27.32
  -6   2   8  421.49   27.08
  -6   2   8  462.95   26.47
   6   2  -8  470.26   27.11
   6   2  -8  442.10   27.32
  -5  -2   8   -0.30    0.15
   5  -2  -8    0.13    0.21
   5  -2  -8   -0.37    0.16
   5   2  -8    0.01    0.16
  -5   2   8    0.02    0.16
   5   2  -8   -0.14    0.17
  -5   2   8   -0.10    0.17
  -5   2   8    0.03    0.18
   5   2  -8   -0.07    0.17
   4  -2  -8    6.05    0.63
  -4  -2   8    6.28    0.56
   4  -2  -8    6.34    0.58
  -4   2   8    5.49    0.54
   4   2  -8    5.67    0.55
   4   2  -8    6.06    0.67
   4   2  -8    5.44    0.50
   4   2  -8    6.26    0.56
  -4   2   8    6.22    0.51
  -4   2   8    6.10    0.57
   3  -2  -8    0.16    0.16
  -3  -2   8   -0.11    0.16
   3  -2  -8   -0.19    0.14
  -3   2   8   -0.29    0.14
   3   2  -8   -0.10    0.12
   3   2  -8   -0.10    0.14
   3   2  -8   -0.08    0.13
   3   2  -8    0.12    0.16
   3   2  -8   -0.33    0.15
  -3   2   8    0.15    0.16
  -3   2   8   -0.11    0.14
   2  -2  -8  125.45    8.67
   2  -2  -8  123.36    7.50
   2   2  -8  131.04    8.72
   2   2  -8  116.82    7.31
   2   2  -8  116.19    7.45
  -2   2   8  125.73    7.56
  -2   2   8  126.92    7.47
  -2   2   8  125.31    7.31
   2   2  -8  125.54    7.56
   1  -2  -8    0.08    0.17
   1  -2  -8   -0.02    0.15
   1   2  -8   -0.15    0.11
   1   2  -8    0.00    0.14
   1   2  -8   -0.05    0.18
  -1   2   8    0.05    0.15
   1   2  -8    0.16    0.15
  -1   2   8   -0.02    0.14
  -1   2   8    0.18    0.14
   0  -2  -8   33.14    2.53
   0  -2  -8   33.89    2.19
   0   2  -8   33.20    2.13
   0   2   8   33.80    2.22
   0   2  -8   36.76    2.20
   0   2  -8   34.33    2.56
   0   2   8   36.07    2.14
   0   2  -8   35.18    2.13
   0   2   8   33.99    2.16
  -1  -2  -8   -0.13    0.14
  -1  -2  -8   -0.07    0.16
   1   2   8    0.01    0.14
  -1   2  -8   -0.08    0.12
  -1   2  -8   -0.10    0.16
   1   2   8   -0.06    0.13
  -1   2  -8    0.02    0.11
   1   2   8    0.09    0.16
  -2  -2  -8    4.94    0.60
  -2  -2  -8    5.13    0.51
  -2  -2  -8    5.63    0.52
   2   2   8    4.84    0.51
  -2   2  -8    5.71    0.44
  -2   2  -8    5.85    0.62
   2   2   8    5.44    0.51
   2   2   8    6.02    0.52
  -2   2  -8    6.58    0.50
   3  -2   8    0.04    0.19
  -3  -2  -8   -0.18    0.15
  -3  -2  -8    0.25    0.21
  -3   2  -8    0.11    0.21
   3   2   8    0.04    0.16
  -3   2  -8    0.31    0.17
   3   2   8   -0.07    0.16
   3   2   8   -0.09    0.18
  -3   2  -8    0.09    0.13
  -3   2  -8   -0.09    0.14
  -4  -2  -8    0.65    0.21
   4  -2   8    0.68    0.26
  -4  -2  -8    0.74    0.25
   4   2   8    0.70    0.24
   4   2   8    0.83    0.25
  -4   2  -8    0.52    0.17
   4   2   8    0.63    0.23
  -4   2  -8    0.62    0.24
  -4   2  -8    0.58    0.21
  -4   2  -8    0.69    0.20
   5  -2   8   -0.25    0.17
  -5  -2  -8   -0.09    0.18
  -5   2  -8   -0.18    0.15
   5   2   8    0.06    0.20
  -5   2  -8    0.03    0.17
   5   2   8   -0.10    0.18
  -5   2  -8    0.05    0.20
  -5   2  -8    0.01    0.17
   5   2   8    0.12    0.20
   6  -2   8   14.54    1.02
  -6  -2  -8   13.20    0.98
   6   2   8   12.25    0.98
  -6   2  -8   12.30    0.97
   6   2   8   12.99    1.02
   6   2   8   11.81    0.98
  -6   2  -8   11.76    0.94
  -6   2  -8   12.86    0.89
  -7  -2  -8   -0.09    0.20
   7  -2   8    0.01    0.22
  -7   2  -8    0.09    0.22
   7   2   8   -0.33    0.20
  -7   2  -8   -0.45    0.16
  -7   2  -8   -0.01    0.16
   7   2   8   -0.03    0.23
   7   2   8    0.03    0.21
   8  -2   8    0.87    0.32
  -8  -2  -8    1.17    0.32
   8   2   8    0.07    0.26
  -8   2  -8    0.68    0.28
   8   2   8    0.53    0.31
  -8   2  -8    0.74    0.24
   8   2   8    0.91    0.33
  -8   2  -8    0.71    0.27
   9  -2   8   -0.07    0.30
  -9  -2  -8    0.19    0.28
  -9   2  -8   -0.09    0.24
   9   2   8    0.02    0.28
  -9   2  -8    0.28    0.29
   9   2   8   -0.04    0.25
 -10  -2  -8   54.11    3.42
 -10   2  -8   51.13    3.34
 -10   2  -8   53.76    3.42
  10   2   8   58.26    3.41
  10   2   8   44.15    3.42
  11  -2   8   -0.36    0.34
 -11  -2  -8    0.00    0.30
 -11   2  -8   -0.14    0.27
 -11   2  -8   -0.24    0.28
  11   2   8    0.15    0.36
  11   2   8    0.23    0.34
 -12  -2  -8    4.02    0.64
  12  -2   8    4.56    0.69
  12   2   8    3.98    0.65
 -12   2  -8    3.09    0.59
  12   2   8    2.82    0.55
 -12   2  -8    3.43    0.61
 -12  -3   8   -0.44    0.28
 -12   3   8    0.12    0.30
 -12   3   8    0.21    0.33
  12   3  -8    0.17    0.36
 -11  -3   8   10.32    0.99
 -11   3   8   10.19    0.99
  11   3  -8    9.50    1.00
 -11   3   8   10.07    0.97
  11   3  -8   10.92    1.05
 -10  -3   8    0.11    0.29
 -10   3   8    0.10    0.28
  10   3  -8    0.13    0.31
  10   3  -8    0.12    0.26
 -10   3   8    0.06    0.29
  10   3  -8    0.19    0.30
  -9  -3   8   32.69    2.36
  -9   3   8   34.57    2.28
   9   3  -8   37.05    2.31
   9   3  -8   33.42    2.37
  -9   3   8   36.97    2.38
   9   3  -8   33.20    2.22
  -8  -3   8   -0.02    0.26
   8   3  -8    0.29    0.21
   8   3  -8   -0.43    0.24
  -8   3   8    0.08    0.23
   8   3  -8    0.03    0.25
  -8   3   8    0.02    0.23
  -8   3   8   -0.20    0.31
  -7  -3   8    8.30    0.92
  -7   3   8   12.20    1.02
   7   3  -8   10.03    0.76
   7   3  -8   11.49    0.91
   7   3  -8   11.05    0.89
  -7   3   8    9.35    0.82
  -7   3   8    9.62    0.86
  -6   3   8   -0.04    0.21
   6   3  -8   -0.02    0.18
  -6   3   8    0.33    0.31
   6   3  -8   -0.29    0.18
   6   3  -8   -0.01    0.16
  -6   3   8    0.28    0.20
  -5   3   8    7.12    0.79
   5   3  -8    5.38    0.60
  -5   3   8    6.66    0.59
   5   3  -8    6.15    0.61
  -5   3   8    6.36    0.60
  -4   3   8    0.00    0.15
   4   3  -8    0.04    0.16
  -4   3   8    0.22    0.29
   4   3  -8   -0.02    0.16
  -4   3   8    0.15    0.18
  -3   3   8  280.40   16.29
   3   3  -8  262.62   18.75
   3   3  -8  268.32   16.30
  -3   3   8  252.08   16.36
   3   3  -8  270.75   15.78
  -3   3   8  284.98   15.78
   2  -3  -8    0.19    0.19
   2   3  -8    0.08    0.19
  -2   3   8   -0.03    0.27
  -2   3   8   -0.07    0.14
   2   3  -8   -0.15    0.13
   2   3  -8    0.13    0.17
  -2   3   8   -0.12    0.13
   1  -3  -8    4.63    0.52
  -1   3   8    4.69    0.45
   1   3  -8    6.19    0.49
  -1   3   8    4.46    0.47
   1   3  -8    3.91    0.44
   1   3  -8    4.78    0.57
  -1   3   8    4.76    0.62
   1   3  -8    4.85    0.52
   0  -3  -8    0.03    0.17
   0   3  -8    0.05    0.13
   0   3   8    0.12    0.16
   0   3  -8   -0.05    0.17
   0   3   8    0.02    0.26
   0   3  -8   -0.05    0.18
   0   3   8   -0.04    0.16
  -1  -3  -8   36.30    2.64
  -1   3  -8   36.26    2.66
   1   3   8   37.79    2.30
  -1   3  -8   37.82    2.21
   1   3   8   33.77    2.19
   1   3   8   36.51    2.23
   1   3   8   34.79    2.38
  -1   3  -8   32.80    2.27
  -2  -3  -8   -0.02    0.17
   2   3   8    0.17    0.16
   2   3   8   -0.16    0.25
  -2   3  -8    0.10    0.15
   2   3   8    0.00    0.17
   2   3   8    0.00    0.14
  -2   3  -8    0.14    0.22
  -3  -3  -8    1.71    0.36
   3   3   8    2.19    0.29
  -3   3  -8    2.07    0.29
   3   3   8    0.76    0.30
   3   3   8    1.93    0.32
   3   3   8    1.84    0.33
  -3   3  -8    2.79    0.45
  -3   3  -8    1.62    0.28
  -4  -3  -8    0.01    0.20
  -4  -3  -8    0.02    0.20
  -4   3  -8    0.02    0.16
   4   3   8    0.02    0.19
   4   3   8    0.11    0.20
   4   3   8    0.30    0.19
  -4   3  -8    0.10    0.16
  -4   3  -8   -0.08    0.16
  -5  -3  -8    3.28    0.44
  -5   3  -8    2.19    0.35
   5   3   8    2.74    0.36
  -5   3  -8    2.43    0.36
   5   3   8    2.45    0.41
   5   3   8    2.55    0.40
  -5   3  -8    2.20    0.44
  -6  -3  -8   -0.26    0.20
  -6   3  -8   -0.02    0.18
   6   3   8   -0.13    0.20
  -6   3  -8    0.14    0.22
   6   3   8    0.09    0.24
   6   3   8   -0.10    0.21
  -7  -3  -8   36.89    2.42
   7   3   8   36.66    2.47
   7   3   8   38.86    2.42
  -7   3  -8   34.06    2.42
   7   3   8   39.56    2.39
  -7   3  -8   34.17    2.35
  -8  -3  -8    0.20    0.28
   8   3   8   -0.15    0.26
   8   3   8   -0.05    0.26
  -8   3  -8   -0.24    0.21
  -8   3  -8    0.37    0.26
   8   3   8    0.13    0.24
  -9  -3  -8   27.91    2.23
   9   3   8   34.08    2.20
   9   3   8   33.53    2.31
   9   3   8   35.70    2.27
  -9   3  -8   30.40    2.20
  -9   3  -8   36.92    2.30
 -10  -3  -8   -0.06    0.27
 -10   3  -8    0.03    0.30
 -10   3  -8   -0.27    0.26
  10   3   8   -0.19    0.30
  10   3   8   -0.30    0.26
 -11  -3  -8   28.79    1.99
 -11   3  -8   25.21    1.92
 -11   3  -8   27.19    1.98
  11   3   8   28.85    1.88
  11   3   8   24.52    1.97
 -12  -3  -8   -0.01    0.34
  12   3   8    0.33    0.32
  12   3   8    0.23    0.36
 -12   3  -8    0.18    0.33
 -12   3  -8   -0.12    0.29
  11   4  -8   -0.40    0.30
 -11   4   8   -0.01    0.31
 -11   4   8    0.38    0.35
  11   4  -8    0.29    0.33
 -10   4   8    0.81    0.35
  10   4  -8    1.70    0.45
  10   4  -8    1.35    0.42
 -10   4   8    1.01    0.39
   9   4  -8    0.10    0.26
  -9   4   8   -0.02    0.26
   9   4  -8    0.06    0.31
  -9   4   8    0.06    0.40
  -9   4   8   -0.19    0.24
  -8   4   8   34.48    2.42
  -8   4   8   37.52    2.37
   8   4  -8   33.10    2.37
   8   4  -8   39.34    2.47
  -8   4   8   36.93    2.57
  -7   4   8   -0.13    0.19
  -7   4   8   -0.26    0.19
  -7   4   8   -0.22    0.31
   7   4  -8   -0.27    0.23
   7   4  -8   -0.25    0.21
   6   4  -8   58.64    3.61
  -6   4   8   54.08    3.60
  -6   4   8   56.92    3.51
   6   4  -8   55.55    3.51
  -6   4   8   59.78    3.78
   5   4  -8    0.17    0.21
   5   4  -8    0.01    0.20
  -5   4   8   -0.21    0.18
  -5   4   8   -0.12    0.18
  -5   4   8    0.15    0.33
   4   4  -8    7.43    0.62
   4   4  -8    6.96    0.62
  -4   4   8    8.68    0.91
  -4   4   8    5.90    0.57
  -4   4   8    6.49    0.62
  -3   4   8    0.03    0.17
  -3   4   8    0.12    0.32
   3   4  -8    0.09    0.18
  -3   4   8   -0.09    0.17
   3   4  -8    0.16    0.16
  -3   4   8   -0.18    0.17
   2   4  -8    7.42    0.63
   2   4  -8    7.60    0.65
   2   4  -8    7.12    0.75
  -2   4   8    9.64    0.65
  -2   4   8    7.46    0.87
  -2   4   8    7.57    0.64
  -1   4   8   -0.03    0.15
  -1   4   8   -0.03    0.17
   1   4  -8   -0.23    0.19
  -1   4   8   -0.18    0.28
   1   4  -8   -0.18    0.15
   1   4  -8   -0.05    0.21
   1   4  -8    0.05    0.16
   0   4  -8  239.67   13.11
   0   4  -8  206.86   15.05
   0   4   8  220.45   12.67
   0   4   8  205.27   13.08
   0   4  -8  191.74   12.65
   0   4   8  237.48   13.20
  -1   4  -8    0.14    0.16
  -1   4  -8   -0.18    0.18
  -1   4  -8   -0.07    0.21
   1   4   8   -0.11    0.16
   1   4   8   -0.41    0.23
   1   4   8    0.12    0.17
  -2   4  -8   12.17    0.90
  -2   4  -8   12.70    1.12
   2   4   8   13.62    0.97
  -2   4  -8   11.43    0.96
   2   4   8   14.72    0.96
   2   4   8   14.30    1.10
  -2   4  -8   11.96    0.93
  -3  -4  -8    0.25    0.23
  -3   4  -8   -0.13    0.25
  -3   4  -8    0.04    0.21
   3   4   8   -0.23    0.23
   3   4   8   -0.12    0.20
  -3   4  -8    0.03    0.17
   3   4   8    0.12    0.20
  -3   4  -8    0.12    0.16
  -4   4  -8  171.77   10.34
   4   4   8  186.98   10.73
   4   4   8  172.65   10.72
  -4   4  -8  182.03   10.67
   4   4   8  165.68   10.37
  -5   4  -8    0.12    0.19
   5   4   8    0.23    0.27
  -5   4  -8    0.11    0.18
   5   4   8   -0.25    0.19
   6   4   8   44.70    2.82
  -6   4  -8   47.98    2.79
   6   4   8   43.05    2.90
  -6   4  -8   41.08    2.85
  -7   4  -8    0.23    0.25
   7   4   8   -0.06    0.26
  -7   4  -8    0.06    0.26
   7   4   8   -0.17    0.25
   8   4   8   61.74    3.79
   8   4   8   54.95    3.65
  -8   4  -8   56.80    3.63
  -8   4  -8   58.20    3.75
   9   4   8    0.04    0.33
  -9   4  -8    0.24    0.29
  -9   4  -8    0.15    0.28
   9   4   8    0.08    0.30
 -10  -4  -8    1.73    0.46
  10   4   8    1.30    0.45
 -10   4  -8    1.77    0.44
  10   4   8    1.71    0.45
 -10   4  -8    2.43    0.49
 -11  -4  -8    0.17    0.34
  11   4   8    0.01    0.33
 -11   4  -8    0.00    0.30
 -11   4  -8    0.18    0.30
  11   4   8    0.05    0.34
  10   5  -8   -0.23    0.29
  10   5  -8   -0.23    0.28
 -10   5   8    0.28    0.29
 -10   5   8   -0.26    0.26
  -9   5   8   32.76    2.24
   9   5  -8   33.40    2.20
  -9   5   8   32.05    2.34
   9   5  -8   30.67    2.26
  -9   5   8   32.26    2.18
   8   5  -8   -0.18    0.26
  -8   5   8   -0.06    0.25
   8   5  -8    0.14    0.28
  -8   5   8    0.00    0.23
  -8   5   8    0.07    0.33
  -7   5   8    7.41    0.96
  -7   5   8    7.61    0.74
  -7   5   8    7.35    0.74
   7   5  -8    9.85    0.84
   7   5  -8    7.82    0.79
   6   5  -8    0.23    0.24
  -6   5   8   -0.03    0.36
  -6   5   8    0.00    0.23
  -6   5   8   -0.20    0.20
   6   5  -8    0.01    0.23
  -5   5   8    5.44    0.69
  -5   5   8    5.85    0.58
   5   5  -8    5.32    0.58
   5   5  -8    6.33    0.63
  -5   5   8    5.11    0.80
  -5   5   8    5.71    0.59
   4   5  -8    0.22    0.20
  -4   5   8    0.12    0.20
  -4   5   8   -0.23    0.22
  -4   5   8    0.23    0.19
   4   5  -8    0.15    0.22
  -4   5   8   -0.33    0.31
  -3   5   8  195.93   11.30
  -3   5   8  197.47   11.68
  -3   5   8  172.46   11.82
  -3   5   8  198.53   11.69
   3   5  -8  196.04   11.31
   3   5  -8  192.29   11.67
  -2   5   8   -0.20    0.16
   2   5  -8    0.06    0.18
   2   5  -8    0.04    0.28
  -2   5   8   -0.18    0.15
   2   5  -8   -0.35    0.15
  -2   5   8   -0.27    0.28
  -1   5   8    2.90    0.38
  -1   5   8    3.07    0.57
  -1   5   8    3.10    0.42
   1   5  -8    3.17    0.51
   1   5  -8    3.68    0.40
   1   5  -8    2.96    0.39
   0   5   8   -0.01    0.19
   0   5  -8   -0.02    0.22
   0   5   8    0.49    0.35
   0   5   8   -0.14    0.15
   0   5  -8   -0.14    0.16
   1   5   8   23.85    1.85
  -1   5  -8   24.69    1.63
   1   5   8   27.25    1.72
   1   5   8   26.09    1.67
  -1   5  -8   25.80    1.79
   2   5   8    0.30    0.20
   2   5   8   -0.32    0.18
  -2   5  -8   -0.07    0.17
  -2   5  -8    0.20    0.20
   2   5   8    0.47    0.32
  -2   5  -8    0.24    0.26
  -3   5  -8    1.29    0.28
   3   5   8    0.72    0.26
   3   5   8    1.86    0.40
  -3   5  -8    1.30    0.34
  -3   5  -8    1.07    0.27
   3   5   8    0.81    0.27
  -4   5  -8    0.35    0.22
   4   5   8   -0.03    0.25
   4   5   8   -0.10    0.28
  -4   5  -8   -0.06    0.18
  -4   5  -8    0.01    0.24
   4   5   8   -0.02    0.21
  -5   5  -8    2.32    0.40
   5   5   8    2.35    0.43
   5   5   8    2.61    0.45
  -5   5  -8    2.30    0.37
   6   5   8   -0.15    0.24
   6   5   8    0.05    0.27
  -6   5  -8   -0.24    0.24
  -6   5  -8   -0.12    0.20
   7   5   8   30.96    1.89
  -7   5  -8   22.58    1.78
   7   5   8   23.88    1.78
  -7   5  -8   25.89    1.76
   8   5   8   -0.01    0.31
   8   5   8   -0.25    0.25
  -8   5  -8    0.02    0.27
  -8   5  -8    0.35    0.29
   9   5   8   27.50    1.93
  -9   5  -8   25.72    1.88
   9   5   8   24.03    1.85
  -9   5  -8   26.59    1.85
  10   5   8   -0.61    0.24
  10   5   8    0.13    0.34
 -10   5  -8   -0.41    0.27
 -10   5  -8   -0.13    0.26
   9   6  -8    0.24    0.31
  -9   6   8   -0.02    0.27
   9   6  -8    0.29    0.37
  -9   6   8   -0.11    0.28
  -9   6   8   -0.13    0.39
  -9   6   8   -0.04    0.38
  -8   6   8   -0.07    0.28
   8   6  -8    0.72    0.35
   8   6  -8    0.47    0.32
  -8   6   8   -0.01    0.37
  -8   6   8    0.46    0.37
  -8   6   8    0.33    0.28
  -7   6   8    0.08    0.24
   7   6  -8   -0.05    0.23
  -7   6   8   -0.07    0.29
  -7   6   8   -0.37    0.34
   7   6  -8    0.01    0.27
  -7   6   8    0.24    0.27
  -6   6   8  222.92   12.47
   6   6  -8  206.15   12.39
   6   6  -8  206.52   12.02
  -6   6   8  198.73   12.37
  -6   6   8  213.92   12.00
  -6   6   8  170.62   12.48
   5   6  -8    0.11    0.24
  -5   6   8   -0.19    0.22
  -5   6   8   -0.05    0.29
  -5   6   8   -0.14    0.33
  -5   6   8    0.21    0.21
   5   6  -8    0.47    0.25
  -4   6   8    4.17    0.70
  -4   6   8    4.60    0.61
  -4   6   8    3.20    0.43
   4   6  -8    4.02    0.50
   4   6  -8    3.71    0.48
  -4   6   8    4.47    0.51
  -3   6   8   -0.13    0.19
  -3   6   8    0.55    0.40
   3   6  -8   -0.01    0.19
  -2   6   8   45.94    2.79
   2   6  -8   44.26    2.79
   2   6  -8   48.37    3.06
  -2   6   8   42.16    3.08
  -1   6   8   -0.38    0.30
   1   6  -8    0.09    0.17
   1   6  -8   -0.17    0.31
  -1   6   8   -0.09    0.16
   0   6  -8   29.78    1.92
   0   6   8   26.96    1.77
   0   6  -8   26.56    1.99
   0   6   8   26.31    1.72
   0   6  -8   24.97    1.67
   0   6   8   24.32    1.94
  -1   6  -8    0.04    0.17
   1   6   8   -0.15    0.20
  -1   6  -8    0.12    0.28
   1   6   8    0.08    0.20
   1   6   8   -0.40    0.26
  -1   6  -8   -0.09    0.36
  -2   6  -8    1.90    0.43
   2   6   8    2.58    0.39
   2   6   8    1.72    0.33
  -2   6  -8    2.22    0.56
   2   6   8    2.18    0.53
  -2   6  -8    3.51    0.39
  -3   6  -8   -0.23    0.36
  -3   6  -8   -0.16    0.25
   3   6   8    0.58    0.35
  -3   6  -8   -0.22    0.18
   3   6   8    0.10    0.21
   3   6   8    0.06    0.24
  -4   6  -8    3.28    0.63
   4   6   8    2.27    0.41
  -4   6  -8    2.39    0.49
   4   6   8    1.93    0.42
   4   6   8    3.01    0.54
  -4   6  -8    2.15    0.36
   5   6   8   -0.03    0.24
  -5   6  -8    0.25    0.45
   5   6   8   -0.10    0.23
  -5   6  -8   -0.02    0.21
  -5   6  -8   -0.14    0.30
   6   6   8    9.69    0.85
  -6   6  -8    8.68    0.79
   6   6   8    9.04    0.88
  -7   6  -8    0.07    0.25
   7   6   8   -0.13    0.29
   7   6   8   -0.03    0.28
   8   6   8    0.55    0.36
  -8   6  -8    1.17    0.38
  -8   6  -8    0.26    0.29
   8   6   8    0.67    0.39
  -7   7   8    5.43    0.63
  -7   7   8    6.15    0.82
   7   7  -8    5.27    0.69
  -7   7   8    7.75    1.01
   7   7  -8    4.72    0.65
   6   7  -8    0.10    0.28
   6   7  -8    0.09    0.29
  -6   7   8    0.21    0.45
  -6   7   8    0.02    0.36
  -6   7   8    0.06    0.26
  -5   7   8    3.12    0.57
  -5   7   8    2.99    0.70
   5   7  -8    3.26    0.46
  -5   7   8    1.85    0.39
  -4   7   8   -0.07    0.31
  -4   7   8    0.03    0.46
  -4   7   8   -0.15    0.19
   4   7  -8   -0.08    0.21
   3   7  -8  129.02    7.60
  -3   7   8  130.08    7.59
   3   7  -8  128.01    8.05
  -3   7   8  123.67    8.12
   2   7  -8    0.12    0.38
  -2   7   8   -0.94    0.35
  -2   7   8   -0.15    0.19
   2   7  -8    0.30    0.20
   1   7  -8    1.34    0.48
  -1   7   8    1.91    0.34
  -1   7   8    2.43    0.61
   1   7  -8    3.71    0.41
   0   7  -8    0.12    0.32
   0   7  -8   -0.05    0.43
   0   7   8   -0.01    0.36
   0   7   8    0.06    0.20
   0   7  -8   -0.01    0.20
  -1   7  -8   17.41    1.58
  -1   7  -8   18.31    1.47
   1   7   8   19.19    1.56
  -1   7  -8   17.43    1.23
   1   7   8   18.59    1.27
  -2   7  -8   -0.43    0.27
  -2   7  -8   -0.31    0.44
  -2   7  -8   -0.16    0.18
   2   7   8    0.04    0.20
   2   7   8    0.13    0.38
   3   7   8    1.36    0.47
   3   7   8    0.74    0.28
  -3   7  -8    0.80    0.46
  -3   7  -8    1.32    0.29
  -3   7  -8    0.48    0.36
   4   7   8    0.06    0.23
   4   7   8   -0.02    0.24
  -4   7  -8   -0.08    0.41
  -4   7  -8   -0.28    0.18
   4   7   8   -0.14    0.38
  -4   7  -8   -0.33    0.28
  -5   7  -8    2.88    0.40
  -5   7  -8    1.80    0.63
   5   7   8    2.25    0.45
  -5   7  -8    1.90    0.50
   5   7   8    1.31    0.39
   6   7   8    0.18    0.30
  -6   7  -8    0.29    0.23
   6   7   8   -0.16    0.25
   2   8  -8    0.39    0.25
  -2   8   8   -0.41    0.39
  -2   8   8   -0.23    0.20
   2   8  -8    0.77    0.46
   1   8  -8   -0.28    0.34
   1   8  -8   -0.32    0.20
  -1   8   8    0.04    0.41
  -1   8   8    0.27    0.24
   0   8  -8   72.51    4.76
   0   8   8   63.61    4.68
   0   8  -8   74.48    4.28
   0   8  -8   70.74    4.64
   0   8   8   70.41    4.28
  -1   8  -8   -0.22    0.19
  -1   8  -8   -0.18    0.33
   1   8   8   -0.59    0.35
   1   8   8   -0.11    0.22
  -1   8  -8   -0.62    0.45
  -2   8  -8    3.64    0.44
  -2   8  -8    2.70    0.69
   2   8   8    3.61    0.47
   2   8   8    2.83    0.63
  -2   8  -8    2.21    0.57
 -13   0   9    0.44    0.36
  13   0  -9    0.70    0.41
  12   0  -9    0.03    0.37
 -12   0   9    0.21    0.28
 -12   0   9   -0.09    0.32
 -11   0   9   21.43    1.72
 -11   0   9   23.90    1.70
  11   0  -9   24.27    1.76
 -10   0   9    0.11    0.26
 -10   0   9    0.19    0.28
  10   0  -9   -0.26    0.27
   9   0  -9   19.97    1.50
  -9   0   9   19.32    1.47
  -9   0   9   21.32    1.52
   9   0  -9   20.02    1.50
   8   0  -9   -0.03    0.25
   8   0  -9    0.28    0.26
  -8   0   9   -0.20    0.20
  -8   0   9   -0.02    0.22
  -7   0   9  120.97    6.93
  -7   0   9  109.00    6.97
   7   0  -9  101.66    6.90
   7   0  -9  120.17    6.99
   6   0  -9    0.19    0.23
  -6   0   9    0.10    0.19
  -6   0   9   -0.21    0.19
   6   0  -9   -0.17    0.20
  -5   0   9   12.77    1.00
  -5   0   9   12.32    1.01
   5   0  -9   12.27    1.01
   5   0  -9   14.79    1.21
   5   0  -9   15.81    1.03
  -4   0   9    0.08    0.20
   4   0  -9    0.19    0.21
  -4   0   9    0.17    0.20
   4   0  -9    0.03    0.17
   4   0  -9    0.18    0.19
   3   0  -9   48.89    3.47
   3   0  -9   43.96    2.96
   3   0  -9   45.72    3.00
  -3   0   9   50.68    3.01
  -3   0   9   47.16    2.97
  -2   0   9   -0.07    0.16
   2   0  -9   -0.05    0.15
   2   0  -9    0.10    0.18
  -2   0   9    0.14    0.16
   2   0  -9    0.20    0.16
   1   0  -9   31.95    2.20
  -1   0   9   37.54    2.22
   1   0  -9   35.59    2.55
  -1   0   9   32.58    2.18
   1   0  -9   33.48    2.19
   0   0  -9    0.10    0.17
   0   0   9    0.17    0.16
   0   0   9   -0.16    0.17
   0   0  -9   -0.02    0.15
   0   0  -9   -0.03    0.16
   0   0  -9   -0.12    0.11
   1   0   9  243.60   15.02
  -1   0  -9  256.30   15.11
  -1   0  -9  274.27   15.02
   1   0   9  232.00   15.11
  -1   0  -9  245.51   17.37
  -2   0  -9    0.03    0.16
  -2   0  -9   -0.05    0.18
  -2   0  -9    0.07    0.16
   2   0   9   -0.06    0.14
   2   0   9    0.05    0.17
   3   0   9   77.17    4.29
  -3   0  -9   67.02    4.25
   3   0   9   69.43    4.30
  -3   0  -9   62.72    4.95
  -4   0  -9   -0.11    0.16
   4   0   9   -0.09    0.18
  -4   0  -9    0.22    0.18
   4   0   9   -0.05    0.18
  -4   0  -9    0.12    0.17
  -5   0  -9   60.61    3.39
   5   0   9   47.62    3.39
   5   0   9   55.92    3.42
  -5   0  -9   51.29    3.30
   6   0   9   -0.17    0.21
  -6   0  -9    0.07    0.19
  -6   0  -9    0.20    0.21
   6   0   9    0.03    0.21
   7   0   9   45.15    3.15
   7   0   9   45.35    3.15
  -7   0  -9   53.23    3.17
  -7   0  -9   50.86    3.11
  -8   0  -9    0.01    0.23
   8   0   9   -0.32    0.27
  -8   0  -9    0.10    0.25
  -9   0  -9   58.02    3.57
   9   0   9   54.21    3.62
  -9   0  -9   54.97    3.62
  10   0   9    0.48    0.35
 -10   0  -9    0.00    0.27
 -10   0  -9    0.08    0.30
 -11   0  -9   20.74    1.49
 -11   0  -9   20.51    1.55
  11   0   9   17.93    1.54
  12   0   9    0.29    0.39
 -12   0  -9   -0.19    0.30
 -12   0  -9    0.16    0.35
  13  -1  -9    0.49    0.39
 -13  -1   9    0.10    0.32
 -13   1   9    0.04    0.34
 -13   1   9   -0.39    0.31
  13   1  -9   -0.21    0.29
 -12  -1   9   78.39    4.88
  12  -1  -9   73.69    4.92
 -12   1   9   75.89    4.82
 -12   1   9   76.95    4.91
  12   1  -9   77.09    4.87
 -11  -1   9   -0.04    0.31
  11  -1  -9    0.31    0.33
  11   1  -9   -0.10    0.34
 -11   1   9    0.02    0.30
  11   1  -9    0.01    0.28
 -11   1   9    0.07    0.28
 -10  -1   9   23.37    1.88
  10  -1  -9   25.29    1.93
  10   1  -9   30.24    1.96
  10   1  -9   26.92    1.90
 -10   1   9   29.19    1.94
 -10   1   9   26.36    1.86
   9  -1  -9   -0.02    0.27
  -9  -1   9   -0.37    0.24
   9   1  -9    0.04    0.29
  -9   1   9   -0.22    0.23
  -9   1   9   -0.16    0.23
  -9   1   9    0.21    0.28
   9   1  -9   -0.21    0.25
   8  -1  -9    1.50    0.38
  -8  -1   9    0.07    0.26
  -8  -1   9    1.21    0.32
  -8   1   9    0.31    0.29
  -8   1   9    1.22    0.34
   8   1  -9    1.58    0.40
   8   1  -9    1.37    0.33
  -8   1   9    0.88    0.32
  -7  -1   9    0.12    0.22
  -7  -1   9   -0.19    0.22
   7  -1  -9    0.26    0.27
  -7   1   9    0.35    0.27
   7   1  -9    0.04    0.24
   7   1  -9    0.25    0.26
  -7   1   9    0.06    0.23
   7   1  -9    0.15    0.22
  -7   1   9    0.21    0.23
   6  -1  -9   21.05    1.63
   6  -1  -9   23.20    1.90
   6  -1  -9   22.03    1.68
  -6  -1   9   23.39    1.65
  -6  -1   9   29.51    1.68
  -6   1   9   25.84    1.63
  -6   1   9   22.36    1.61
   6   1  -9   27.56    1.65
   6   1  -9   24.32    1.63
   6   1  -9   22.51    1.66
   5  -1  -9   -0.23    0.17
   5  -1  -9   -0.03    0.20
  -5  -1   9    0.15    0.20
  -5  -1   9    0.13    0.19
   5  -1  -9    0.27    0.21
  -5   1   9    0.03    0.19
  -5   1   9    0.07    0.18
  -5   1   9    0.20    0.22
   5   1  -9    0.08    0.19
   5   1  -9   -0.16    0.17
   5   1  -9   -0.33    0.16
   4  -1  -9   10.15    0.90
   4  -1  -9   10.00    0.77
  -4  -1   9    9.61    0.77
  -4  -1   9    9.07    0.76
   4  -1  -9    9.18    0.76
   4   1  -9    8.87    0.88
  -4   1   9   11.64    0.78
   4   1  -9    8.91    0.77
   4   1  -9    8.07    0.76
   4   1  -9    9.01    0.74
  -4   1   9    9.76    0.78
  -4   1   9   10.12    0.77
   3  -1  -9    0.11    0.18
  -3  -1   9    0.14    0.17
   3  -1  -9    0.10    0.18
   3  -1  -9   -0.12    0.16
  -3  -1   9   -0.09    0.15
   3   1  -9    0.00    0.16
   3   1  -9   -0.40    0.15
   3   1  -9    0.09    0.18
  -3   1   9    0.05    0.16
  -3   1   9    0.05    0.18
  -3   1   9   -0.04    0.17
   3   1  -9    0.34    0.19
   2  -1  -9  107.99    6.93
   2  -1  -9  123.89    7.99
   2  -1  -9  110.76    6.89
  -2  -1   9  114.58    6.93
  -2  -1   9  106.83    6.90
  -2   1   9  126.81    6.74
   2   1  -9  102.86    7.98
   2   1  -9  114.28    6.95
  -2   1   9  112.29    6.88
   2   1  -9  117.15    6.72
   2   1  -9  116.55    6.87
  -2   1   9  107.31    6.94
   1  -1  -9   -0.07    0.15
   1  -1  -9   -0.11    0.14
  -1  -1   9    0.08    0.14
   1  -1  -9   -0.04    0.16
  -1  -1   9   -0.03    0.15
   1   1  -9   -0.21    0.14
   1   1  -9   -0.11    0.14
  -1   1   9    0.07    0.16
   1   1  -9    0.09    0.14
   1   1  -9   -0.02    0.14
   1   1  -9   -0.07    0.15
  -1   1   9    0.12    0.17
   0  -1   9    9.83    0.76
   0  -1   9   10.76    0.76
   0  -1  -9    9.12    0.76
   0  -1  -9   10.32    0.90
   0  -1  -9    9.89    0.76
   0   1  -9    8.73    0.73
   0   1  -9    9.19    0.90
   0   1   9    9.65    0.78
   0   1  -9   10.80    0.78
   0   1   9    9.93    0.76
   0   1  -9   10.77    0.75
  -1  -1  -9    0.01    0.16
   1  -1   9   -0.07    0.14
  -1  -1  -9   -0.19    0.12
  -1  -1  -9    0.08    0.17
   1  -1   9    0.22    0.16
  -1  -1  -9    0.05    0.15
  -1   1  -9   -0.04    0.15
  -1   1  -9    0.10    0.17
   1   1   9    0.05    0.15
  -1   1  -9   -0.04    0.14
  -1   1  -9    0.12    0.17
   1   1   9   -0.09    0.15
  -2  -1  -9   44.93    3.02
  -2  -1  -9   49.53    3.53
   2  -1   9   45.41    3.02
  -2  -1  -9   49.65    3.03
   2  -1   9   47.64    3.03
  -2   1  -9   51.66    3.54
   2   1   9   42.82    3.01
  -2   1  -9   50.51    2.95
   2   1   9   47.69    3.06
  -2   1  -9   52.12    3.00
  -3  -1  -9   -0.14    0.19
   3  -1   9   -0.19    0.16
  -3  -1  -9   -0.04    0.16
   3  -1   9   -0.09    0.16
  -3  -1  -9   -0.01    0.16
   3   1   9    0.09    0.18
   3   1   9   -0.03    0.17
   3   1   9   -0.04    0.18
  -3   1  -9   -0.28    0.17
  -3   1  -9   -0.04    0.15
  -3   1  -9    0.07    0.16
  -4  -1  -9   29.91    1.82
  -4  -1  -9   26.80    1.79
   4  -1   9   26.14    1.80
  -4   1  -9   26.97    1.77
   4   1   9   25.71    1.78
   4   1   9   29.22    1.86
  -4   1  -9   28.09    2.13
   4   1   9   29.73    1.83
  -4   1  -9   23.78    1.76
   5  -1   9    0.01    0.20
  -5  -1  -9    0.11    0.19
   5   1   9    0.04    0.23
   5   1   9   -0.19    0.21
  -5   1  -9   -0.22    0.16
  -5   1  -9   -0.31    0.16
  -5   1  -9    0.05    0.17
   5   1   9    0.09    0.23
   6  -1   9    7.69    0.70
  -6  -1  -9    6.39    0.65
   6   1   9    7.22    0.71
  -6   1  -9    6.47    0.65
  -6   1  -9    6.26    0.66
  -6   1  -9    7.56    0.63
   6   1   9    6.67    0.69
  -7  -1  -9   -0.14    0.21
   7  -1   9   -0.01    0.25
   7   1   9   -0.31    0.24
  -7   1  -9    0.00    0.25
  -7   1  -9   -0.06    0.22
   7   1   9    0.14    0.27
  -7   1  -9   -0.42    0.17
  -8  -1  -9    9.35    0.93
   8  -1   9   12.25    1.03
   8   1   9   12.70    1.03
  -8   1  -9   12.66    0.99
  -8   1  -9   11.39    0.95
  -8   1  -9   11.85    0.92
   8   1   9   11.36    1.00
  -9  -1  -9   -0.25    0.26
   9  -1   9   -0.23    0.29
  -9   1  -9    0.06    0.24
   9   1   9    0.30    0.32
  -9   1  -9    0.18    0.28
  -9   1  -9   -0.05    0.25
   9   1   9    0.52    0.30
  10  -1   9   13.37    1.25
 -10  -1  -9   14.87    1.21
 -10   1  -9   15.47    1.22
 -10   1  -9   14.62    1.22
  10   1   9   14.66    1.26
 -10   1  -9   15.88    1.16
  10   1   9   14.76    1.24
 -11  -1  -9    0.46    0.35
  11  -1   9    0.44    0.39
 -11   1  -9   -0.19    0.25
 -11   1  -9    0.29    0.26
  11   1   9    0.08    0.33
 -12  -1  -9    3.78    0.62
  12  -1   9    4.45    0.71
  12   1   9    3.78    0.65
 -12   1  -9    4.66    0.66
 -12   1  -9    3.59    0.53
  12  -2  -9   -0.34    0.37
 -12  -2   9    0.28    0.33
  12   2  -9   -0.08    0.33
  12   2  -9   -0.25    0.31
 -12   2   9    0.09    0.32
  11  -2  -9    6.99    0.85
 -11  -2   9    7.15    0.87
 -11   2   9    7.34    0.83
  11   2  -9    6.42    0.83
 -11   2   9    6.62    0.82
  11   2  -9    7.01    0.79
 -10  -2   9    0.09    0.30
  10  -2  -9    0.40    0.36
 -10   2   9    0.45    0.31
 -10   2   9   -0.15    0.27
  10   2  -9   -0.20    0.29
  10   2  -9   -0.20    0.28
 -10   2   9   -0.42    0.23
  -9  -2   9  165.05   10.93
   9  -2  -9  195.74   10.96
  -9   2   9  169.76   10.82
   9   2  -9  174.34   11.02
  -9   2   9  190.08   11.09
  -9   2   9  168.30   10.64
  -9   2   9  185.17   11.02
   9   2  -9  179.96   10.88
   9   2  -9  188.66   10.67
   8  -2  -9   -0.15    0.27
  -8  -2   9   -0.02    0.24
   8   2  -9    0.15    0.27
  -8   2   9    0.34    0.26
  -8   2   9    0.11    0.20
  -8   2   9   -0.15    0.23
   8   2  -9    0.09    0.25
   8   2  -9   -0.09    0.22
   7  -2  -9    0.11    0.24
  -7  -2   9    0.09    0.26
  -7   2   9    0.37    0.24
   7   2  -9    0.26    0.26
   7   2  -9    0.48    0.25
   7   2  -9    0.33    0.29
  -7   2   9   -0.01    0.19
  -7   2   9    0.48    0.25
  -6  -2   9    0.12    0.24
   6  -2  -9    0.20    0.25
   6   2  -9    0.31    0.25
  -6   2   9    0.31    0.24
  -6   2   9    0.03    0.19
   6   2  -9   -0.27    0.16
  -6   2   9    0.02    0.20
   6   2  -9   -0.18    0.17
  -5  -2   9   46.24    3.03
   5  -2  -9   48.66    3.03
   5  -2  -9   50.99    3.49
   5   2  -9   42.65    2.96
  -5   2   9   48.79    3.04
  -5   2   9   50.55    2.97
   5   2  -9   45.88    3.03
   5   2  -9   46.47    2.94
  -5   2   9   46.28    2.94
   4  -2  -9    0.07    0.19
   4  -2  -9    0.15    0.21
  -4  -2   9   -0.01    0.19
  -4   2   9   -0.32    0.14
   4   2  -9    0.08    0.19
  -4   2   9    0.00    0.19
  -4   2   9   -0.11    0.18
   4   2  -9    0.15    0.17
   4   2  -9   -0.12    0.17
  -3  -2   9   69.49    4.20
   3  -2  -9   70.55    4.84
   3  -2  -9   65.05    4.18
   3   2  -9   70.56    4.13
   3   2  -9   65.67    4.12
   3   2  -9   66.90    4.08
   3   2  -9   75.97    4.24
  -3   2   9   63.41    4.07
   3   2  -9   61.89    4.86
  -3   2   9   66.96    4.15
  -3   2   9   67.08    4.22
  -2  -2   9   -0.08    0.16
   2  -2  -9    0.26    0.19
   2  -2  -9    0.02    0.17
   2   2  -9   -0.10    0.16
   2   2  -9    0.02    0.16
   2   2  -9   -0.11    0.17
  -2   2   9    0.22    0.16
   2   2  -9    0.11    0.14
  -2   2   9    0.11    0.17
  -2   2   9   -0.02    0.15
   1  -2  -9    3.15    0.42
   1  -2  -9    3.38    0.47
  -1  -2   9    3.92    0.42
   1   2  -9    4.14    0.56
  -1   2   9    3.33    0.44
  -1   2   9    3.12    0.38
   1   2  -9    3.82    0.43
  -1   2   9    3.69    0.42
   1   2  -9    3.38    0.41
   1   2  -9    3.41    0.35
   0  -2  -9    0.17    0.16
   0  -2   9    0.15    0.16
   0  -2  -9    0.00    0.16
   0   2   9   -0.17    0.16
   0   2  -9   -0.15    0.15
   0   2   9   -0.19    0.14
   0   2  -9   -0.01    0.15
   0   2   9   -0.02    0.15
   0   2  -9   -0.17    0.17
   0   2  -9    0.04    0.13
   1  -2   9   27.59    1.77
  -1  -2  -9   28.19    2.07
  -1  -2  -9   27.15    1.78
   1   2   9   25.73    1.79
  -1   2  -9   29.45    2.11
   1   2   9   24.30    1.73
  -1   2  -9   30.98    1.76
   1   2   9   23.33    1.74
  -1   2  -9   27.92    1.71
   2  -2   9    0.06    0.19
  -2  -2  -9   -0.16    0.22
  -2  -2  -9   -0.07    0.16
  -2  -2  -9    0.07    0.19
  -2   2  -9    0.03    0.16
   2   2   9    0.09    0.17
   2   2   9    0.18    0.18
   2   2   9   -0.10    0.16
  -2   2  -9   -0.09    0.17
  -2   2  -9   -0.03    0.13
   3  -2   9   40.37    2.59
  -3  -2  -9   36.86    3.02
  -3   2  -9   37.85    2.52
  -3   2  -9   40.48    3.04
   3   2   9   41.75    2.55
  -3   2  -9   42.71    2.52
   3   2   9   41.79    2.63
   3   2   9   42.73    2.60
   4  -2   9    0.30    0.21
  -4  -2  -9   -0.23    0.17
  -4   2  -9   -0.17    0.22
  -4   2  -9    0.00    0.18
   4   2   9   -0.06    0.22
  -4   2  -9   -0.16    0.16
   4   2   9    0.11    0.19
   4   2   9    0.04    0.21
  -4   2  -9    0.16    0.17
   5  -2   9   53.48    3.69
  -5  -2  -9   62.92    3.73
   5   2   9   61.12    3.72
  -5   2  -9   61.11    3.73
  -5   2  -9   57.92    3.63
   5   2   9   61.86    3.65
  -5   2  -9   52.30    3.60
   5   2   9   63.08    3.76
  -6  -2  -9   -0.29    0.18
   6  -2   9    0.10    0.23
  -6   2  -9   -0.17    0.17
   6   2   9    0.04    0.24
  -6   2  -9   -0.36    0.17
  -6   2  -9    0.20    0.21
   6   2   9    0.08    0.22
   6   2   9   -0.02    0.24
  -7  -2  -9   23.34    1.70
   7  -2   9   24.03    1.71
   7   2   9   27.39    1.73
   7   2   9   25.74    1.76
   7   2   9   22.56    1.69
  -7   2  -9   23.35    1.66
  -7   2  -9   25.19    1.61
  -7   2  -9   24.02    1.71
  -8  -2  -9   -0.40    0.22
   8  -2   9   -0.10    0.30
  -8   2  -9   -0.29    0.22
  -8   2  -9   -0.10    0.21
   8   2   9   -0.03    0.28
   8   2   9   -0.35    0.25
   9  -2   9    0.75    0.36
  -9  -2  -9    0.81    0.35
   9   2   9    0.49    0.36
  -9   2  -9    0.75    0.31
  -9   2  -9    1.17    0.34
   9   2   9    1.09    0.38
  10  -2   9   -0.09    0.34
 -10  -2  -9   -0.31    0.26
  10   2   9   -0.10    0.31
 -10   2  -9    0.06    0.29
  10   2   9   -0.36    0.28
 -10   2  -9    0.22    0.28
 -11  -2  -9   -0.38    0.29
  11  -2   9    0.53    0.36
  11   2   9    0.20    0.36
 -11   2  -9    0.21    0.27
  11   2   9    0.63    0.38
 -11   2  -9    0.75    0.37
 -12  -2  -9    0.06    0.34
  12  -2   9    0.07    0.39
  12   2   9    0.08    0.31
 -12   2  -9   -0.13    0.26
  12   2   9    0.25    0.38
 -12   2  -9   -0.15    0.31
 -12  -3   9   67.61    4.40
  12   3  -9   67.50    4.42
 -12   3   9   69.17    4.29
 -12   3   9   65.63    4.40
 -11  -3   9    0.15    0.36
 -11   3   9    0.23    0.35
 -11   3   9   -0.29    0.24
  11   3  -9   -0.29    0.35
  11   3  -9   -0.43    0.29
 -10  -3   9   26.66    1.95
 -10   3   9   27.45    1.89
 -10   3   9   26.95    1.95
  10   3  -9   28.75    1.94
  10   3  -9   24.90    1.95
  -9  -3   9   -0.04    0.29
  -9   3   9    0.19    0.28
  -9   3   9   -0.15    0.33
  -9   3   9   -0.34    0.25
   9   3  -9   -0.07    0.26
   9   3  -9   -0.31    0.28
  -8  -3   9    0.81    0.33
   8   3  -9    1.30    0.38
  -8   3   9    1.15    0.43
   8   3  -9    0.63    0.35
  -8   3   9    0.66    0.29
   8   3  -9    0.76    0.26
  -8   3   9    0.58    0.31
  -7  -3   9    0.35    0.29
  -7   3   9    0.05    0.24
   7   3  -9    0.26    0.28
  -7   3   9    0.07    0.23
   7   3  -9   -0.13    0.24
  -7   3   9   -0.28    0.29
   7   3  -9    0.02    0.20
  -6   3   9   20.94    1.67
  -6   3   9   23.56    1.51
   6   3  -9   23.34    1.54
   6   3  -9   21.39    1.50
  -6   3   9   19.38    1.51
   5   3  -9   -0.16    0.19
  -5   3   9   -0.05    0.19
  -5   3   9    0.18    0.32
   5   3  -9    0.14    0.19
  -5   3   9   -0.08    0.19
   4   3  -9    5.88    0.60
   4   3  -9    6.88    0.61
  -4   3   9    6.56    0.80
  -4   3   9    6.37    0.61
  -4   3   9    6.79    0.60
  -3   3   9    0.00    0.17
  -3   3   9    0.03    0.16
   3   3  -9   -0.13    0.16
  -3   3   9   -0.30    0.29
   3   3  -9   -0.07    0.19
  -2   3   9  101.03    6.07
  -2   3   9   96.70    5.87
  -2   3   9   98.52    6.18
   2   3  -9   91.70    6.05
   2   3  -9  104.90    5.88
   1  -3  -9   -0.19    0.17
   1   3  -9   -0.01    0.15
  -1   3   9   -0.31    0.15
  -1   3   9   -0.06    0.28
   1   3  -9   -0.04    0.17
  -1   3   9    0.11    0.15
   1   3  -9   -0.07    0.21
   0  -3  -9    8.87    0.81
   0   3   9    9.04    0.68
   0   3   9    8.19    0.83
   0   3   9    8.51    0.61
   0   3  -9    7.49    0.81
   0   3  -9    7.60    0.64
   0   3  -9    8.66    0.68
   0   3   9    7.52    0.68
  -1  -3  -9    0.22    0.20
  -1   3  -9    0.18    0.17
   1   3   9   -0.01    0.17
   1   3   9    0.30    0.29
   1   3   9    0.30    0.17
   1   3   9   -0.09    0.15
  -1   3  -9    0.38    0.23
  -2  -3  -9   37.33    2.96
   2   3   9   40.80    2.59
   2   3   9   40.57    2.49
   2   3   9   37.05    2.49
   2   3   9   38.92    2.65
  -2   3  -9   41.55    3.00
  -2   3  -9   42.90    2.48
  -3  -3  -9   -0.28    0.23
  -3  -3  -9    0.10    0.24
   3   3   9    0.10    0.21
   3   3   9    0.42    0.28
   3   3   9    0.08    0.18
   3   3   9   -0.10    0.18
  -3   3  -9    0.40    0.22
  -3   3  -9   -0.06    0.18
  -4  -3  -9   22.68    1.61
   4   3   9   23.21    1.58
  -4   3  -9   24.57    1.60
  -4   3  -9   22.88    1.54
   4   3   9   22.31    1.55
   4   3   9   24.57    1.63
  -5  -3  -9    0.11    0.22
  -5   3  -9    0.00    0.21
   5   3   9    0.28    0.25
   5   3   9    0.05    0.23
  -5   3  -9   -0.02    0.20
   5   3   9   -0.12    0.21
  -6  -3  -9    5.83    0.64
   6   3   9    4.93    0.64
   6   3   9    4.48    0.52
  -6   3  -9    5.58    0.58
  -6   3  -9    3.57    0.53
   6   3   9    5.09    0.60
  -7  -3  -9    0.15    0.27
  -7   3  -9    0.11    0.23
   7   3   9    0.40    0.26
   7   3   9   -0.14    0.25
  -7   3  -9    0.23    0.26
   7   3   9   -0.16    0.25
  -8  -3  -9   12.07    0.98
   8   3   9   11.44    0.92
   8   3   9    9.60    0.94
  -8   3  -9    8.20    0.88
   8   3   9   10.83    0.99
  -8   3  -9   11.34    0.94
  -9  -3  -9    0.22    0.34
  -9   3  -9    0.31    0.29
   9   3   9   -0.05    0.24
  -9   3  -9   -0.05    0.26
   9   3   9    0.22    0.31
   9   3   9   -0.24    0.28
 -10  -3  -9   15.39    1.23
  10   3   9   12.01    1.20
  10   3   9   13.24    1.09
 -10   3  -9   14.71    1.16
 -10   3  -9   13.27    1.14
 -11  -3  -9   -0.44    0.30
  11   3   9    0.05    0.35
 -11   3  -9   -0.13    0.29
  11   3   9    0.13    0.31
 -11   3  -9    0.17    0.31
  11   4  -9   19.02    1.47
 -11   4   9   15.13    1.36
 -11   4   9   18.70    1.44
  11   4  -9   16.65    1.43
  10   4  -9   -0.04    0.29
  10   4  -9    0.49    0.31
 -10   4   9   -0.22    0.26
 -10   4   9    0.20    0.31
  -9   4   9   20.09    1.60
  -9   4   9   19.84    1.46
   9   4  -9   19.10    1.43
  -9   4   9   17.16    1.40
   9   4  -9   17.86    1.46
   8   4  -9    0.00    0.25
   8   4  -9   -0.28    0.26
  -8   4   9   -0.14    0.23
  -8   4   9    0.36    0.30
  -8   4   9    0.13    0.37
   7   4  -9   74.07    4.73
   7   4  -9   75.32    4.59
  -7   4   9   75.70    4.85
  -7   4   9   73.48    4.57
  -7   4   9   74.50    4.71
   6   4  -9    0.37    0.26
  -6   4   9    0.08    0.32
  -6   4   9    0.16    0.23
  -6   4   9    0.20    0.24
   6   4  -9   -0.32    0.21
  -5   4   9   10.05    0.84
   5   4  -9    9.80    0.85
  -5   4   9    9.02    0.84
  -5   4   9   11.51    1.08
   5   4  -9   12.06    0.90
  -4   4   9    0.00    0.18
  -4   4   9   -0.11    0.15
   4   4  -9   -0.20    0.17
   4   4  -9    0.10    0.21
  -4   4   9   -0.24    0.30
  -3   4   9   27.63    1.84
   3   4  -9   28.26    1.84
  -3   4   9   27.66    2.04
   3   4  -9   26.88    1.77
  -3   4   9   26.90    1.77
  -2   4   9   -0.12    0.16
   2   4  -9    0.16    0.19
   2   4  -9    0.06    0.18
  -2   4   9   -0.01    0.29
  -2   4   9   -0.10    0.17
   1   4  -9   21.77    1.54
   1   4  -9   23.97    1.61
  -1   4   9   24.90    1.57
  -1   4   9   23.52    1.63
   1   4  -9   27.43    1.71
  -1   4   9   22.80    1.79
   0   4  -9   -0.17    0.16
   0   4   9    0.15    0.20
   0   4   9   -0.24    0.16
   0   4  -9    0.33    0.25
   0   4   9   -0.16    0.26
   0   4  -9    0.16    0.18
  -1   4  -9  160.75    9.67
   1   4   9  164.13   10.09
   1   4   9  175.60   10.02
   1   4   9  157.09    9.69
  -2   4  -9   -0.08    0.15
   2   4   9   -0.36    0.18
   2   4   9   -0.28    0.25
   2   4   9   -0.26    0.17
   3   4   9   38.94    2.49
  -3   4  -9   40.66    2.47
  -3   4  -9   35.51    2.53
   3   4   9   42.71    2.67
   3   4   9   39.72    2.57
  -4   4  -9    0.20    0.20
   4   4   9   -0.24    0.20
   4   4   9    0.02    0.24
  -4   4  -9    0.28    0.22
  -5   4  -9   40.48    2.59
   5   4   9   44.48    2.66
   5   4   9   38.81    2.72
  -5   4  -9   41.44    2.69
   6   4   9   -0.32    0.21
  -6   4  -9   -0.33    0.21
   6   4   9   -0.32    0.22
  -6   4  -9    0.11    0.22
   7   4   9   26.48    1.86
  -7   4  -9   29.44    1.87
   7   4   9   25.44    1.90
  -7   4  -9   25.01    1.80
   8   4   9   -0.18    0.27
   8   4   9   -0.17    0.27
  -8   4  -9    0.46    0.28
  -8   4  -9   -0.14    0.23
  -9  -4  -9   32.32    2.43
   9   4   9   34.59    2.38
   9   4   9   35.32    2.45
  -9   4  -9   35.88    2.33
  -9   4  -9   35.00    2.38
 -10  -4  -9    0.39    0.29
 -10   4  -9   -0.43    0.22
 -10   4  -9    0.15    0.31
  10   4   9   -0.15    0.30
  10   4   9   -0.43    0.28
  10   5  -9   16.15    1.42
 -10   5   9   17.33    1.36
 -10   5   9   19.23    1.43
  10   5  -9   16.23    1.39
   9   5  -9   -0.18    0.29
  -9   5   9   -0.30    0.26
  -9   5   9    0.10    0.27
   9   5  -9   -0.07    0.30
  -9   5   9   -0.25    0.35
  -8   5   9    0.59    0.32
  -8   5   9    0.77    0.32
   8   5  -9    0.31    0.30
   8   5  -9    0.35    0.31
  -8   5   9    0.38    0.43
  -7   5   9    0.40    0.25
  -7   5   9    0.48    0.39
   7   5  -9   -0.24    0.24
   7   5  -9   -0.03    0.27
  -7   5   9    0.08    0.24
   6   5  -9   14.56    1.12
  -6   5   9   15.30    1.11
  -6   5   9   13.56    1.35
  -6   5   9   14.31    1.11
   6   5  -9   13.71    1.12
   5   5  -9    0.15    0.27
  -5   5   9    0.00    0.22
   5   5  -9   -0.20    0.19
  -5   5   9   -0.17    0.37
  -5   5   9    0.02    0.21
  -5   5   9   -0.03    0.26
  -4   5   9    4.59    0.76
   4   5  -9    5.73    0.58
   4   5  -9    5.30    0.58
  -4   5   9    5.49    0.60
  -4   5   9    4.43    0.51
   3   5  -9   -0.09    0.17
  -3   5   9   -0.21    0.19
   3   5  -9   -0.10    0.18
  -3   5   9   -0.25    0.17
  -3   5   9    0.18    0.37
  -2   5   9   72.39    4.44
   2   5  -9   65.68    4.06
   2   5  -9   66.31    4.30
  -2   5   9   64.35    4.05
   2   5  -9   66.94    4.19
  -2   5   9   67.68    4.20
   1   5  -9    0.14    0.21
   1   5  -9    0.25    0.30
  -1   5   9    0.02    0.20
  -1   5   9    0.28    0.36
   1   5  -9    0.25    0.20
  -1   5   9    0.11    0.18
   0   5   9    5.50    0.76
   0   5  -9    4.66    0.62
   0   5  -9    5.30    0.51
   0   5  -9    5.01    0.49
   0   5   9    4.50    0.55
   0   5   9    4.40    0.50
   1   5   9    0.22    0.22
  -1   5  -9    0.12    0.18
  -1   5  -9   -0.03    0.24
   1   5   9    0.04    0.19
   1   5   9   -0.19    0.31
   2   5   9   33.09    2.25
   2   5   9   33.79    2.13
   2   5   9   28.63    2.04
  -2   5  -9   32.41    2.02
   3   5   9    0.10    0.23
  -3   5  -9   -0.01    0.19
   3   5   9    0.09    0.30
  -3   5  -9    0.19    0.21
   3   5   9   -0.07    0.20
  -4   5  -9   18.66    1.30
  -4   5  -9   18.38    1.26
   4   5   9   18.84    1.35
   4   5   9   15.59    1.27
   5   5   9    0.10    0.25
   5   5   9   -0.17    0.24
  -5   5  -9    0.36    0.26
  -5   5  -9    0.18    0.22
   6   5   9    4.62    0.64
   6   5   9    4.83    0.63
  -6   5  -9    5.06    0.59
  -6   5  -9    4.81    0.60
   7   5   9   -0.17    0.27
   7   5   9    0.17    0.30
  -7   5  -9    0.07    0.26
  -7   5  -9   -0.10    0.22
   8   5   9    6.42    0.81
  -8   5  -9    7.53    0.83
  -8   5  -9    7.01    0.76
   8   5   9    9.15    0.93
   9   5   9   -0.39    0.29
  -9   5  -9   -0.17    0.30
  -9   5  -9    0.15    0.27
   9   5   9   -0.32    0.28
   8   6  -9    0.20    0.32
  -8   6   9   -0.09    0.37
  -8   6   9   -0.13    0.34
   8   6  -9    0.44    0.32
  -8   6   9   -0.17    0.23
  -8   6   9   -0.06    0.28
  -7   6   9    0.19    0.26
  -7   6   9    0.73    0.49
   7   6  -9    0.90    0.35
   7   6  -9    1.37    0.40
  -7   6   9    0.72    0.40
  -7   6   9    0.90    0.35
  -6   6   9    0.07    0.32
  -6   6   9    0.19    0.26
  -6   6   9    0.37    0.41
  -6   6   9   -0.25    0.22
   6   6  -9   -0.05    0.23
   6   6  -9   -0.30    0.24
   5   6  -9   25.18    1.66
  -5   6   9   26.21    1.95
   5   6  -9   25.02    1.72
  -5   6   9   22.77    1.67
  -5   6   9   21.90    1.63
   4   6  -9   -0.01    0.21
   4   6  -9    0.58    0.26
  -4   6   9    0.14    0.41
  -4   6   9    0.41    0.25
  -4   6   9    0.19    0.22
   3   6  -9   22.44    1.53
  -3   6   9   22.99    1.53
  -3   6   9   21.65    1.81
   3   6  -9   23.72    1.59
  -3   6   9   22.27    1.59
   2   6  -9   -0.38    0.32
  -2   6   9    0.35    0.38
  -2   6   9   -0.29    0.18
   2   6  -9   -0.32    0.22
   2   6  -9   -0.08    0.19
  -2   6   9    0.17    0.21
  -1   6   9    0.91    0.29
   1   6  -9    0.30    0.34
  -1   6   9    1.10    0.28
  -1   6   9    0.09    0.35
   1   6  -9    0.62    0.24
   0   6   9   -0.31    0.18
   0   6  -9   -0.56    0.24
   0   6  -9   -0.35    0.17
   0   6   9    0.13    0.35
   0   6   9   -0.05    0.24
   1   6   9   18.13    1.32
  -1   6  -9   20.06    1.49
   1   6   9   18.95    1.37
  -1   6  -9   17.68    1.29
   1   6   9   21.59    1.57
  -2   6  -9    0.20    0.21
   2   6   9   -0.13    0.23
   2   6   9   -0.06    0.31
  -2   6  -9    0.42    0.32
   2   6   9   -0.07    0.22
   3   6   9   12.77    0.96
  -3   6  -9   11.59    0.92
   3   6   9   11.88    0.99
   3   6   9   11.29    1.13
  -4   6  -9   -0.27    0.19
   4   6   9   -0.25    0.23
   4   6   9    0.11    0.25
   5   6   9   30.50    2.00
   5   6   9   29.43    2.06
  -5   6  -9   28.73    1.94
  -6   6  -9   -0.16    0.27
  -6   6  -9    0.05    0.23
   6   6   9   -0.12    0.26
   6   6   9    0.10    0.29
   7   6   9    7.33    0.86
  -7   6  -9    7.84    0.79
  -7   6  -9    9.99    0.87
   7   6   9    7.73    0.89
  -8   6  -9   -0.08    0.24
   8   6   9   -0.33    0.25
   8   6   9   -0.28    0.27
  -8   6  -9    0.37    0.31
  -6   7   9   12.78    1.05
   6   7  -9   12.66    1.07
   6   7  -9   12.54    1.10
  -6   7   9   15.45    1.44
  -5   7   9   -0.04    0.44
  -5   7   9    0.20    0.25
   5   7  -9   -0.24    0.23
   5   7  -9   -0.15    0.24
  -4   7   9    2.20    0.63
   4   7  -9    2.08    0.42
  -4   7   9    2.89    0.43
  -3   7   9   -0.07    0.21
  -3   7   9   -0.36    0.39
   3   7  -9   -0.19    0.19
  -2   7   9   45.97    2.87
   2   7  -9   46.16    3.18
   2   7  -9   42.66    2.85
  -2   7   9   52.01    3.31
   1   7  -9   -0.18    0.36
  -1   7   9   -0.22    0.38
  -1   7   9    0.16    0.24
   1   7  -9   -0.23    0.20
   0   7  -9    3.94    0.46
   0   7   9    3.54    0.47
   0   7  -9    4.28    0.68
   0   7   9    3.01    0.66
   1   7   9   -0.02    0.39
  -1   7  -9    0.01    0.19
  -1   7  -9    0.12    0.33
   1   7   9   -0.07    0.22
  -2   7  -9   20.46    1.70
   2   7   9   23.28    1.81
   2   7   9   22.29    1.64
   2   7   9   22.47    1.53
  -2   7  -9   22.09    1.49
   3   7   9   -0.09    0.23
   3   7   9    0.15    0.40
  -3   7  -9   -0.14    0.18
  -3   7  -9    0.12    0.34
   3   7   9   -0.15    0.25
  -4   7  -9   10.17    0.87
   4   7   9   11.34    0.93
   4   7   9   11.26    0.99
   5   7   9    0.09    0.26
  -5   7  -9   -0.28    0.21
   5   7   9    0.49    0.30
  12   0 -10    0.42    0.37
 -12   0  10    0.34    0.32
  11   0 -10   -0.05    0.29
 -11   0  10    0.02    0.29
 -11   0  10    0.15    0.31
 -10   0  10   51.86    3.46
 -10   0  10   58.58    3.53
  10   0 -10   50.21    3.48
  -9   0  10   -0.19    0.24
  -9   0  10    0.13    0.26
   9   0 -10   -0.31    0.30
   9   0 -10    0.14    0.30
  -8   0  10  152.10    9.62
  -8   0  10  159.75    9.55
   8   0 -10  170.19    9.58
   8   0 -10  144.76    9.62
   7   0 -10   -0.14    0.22
   7   0 -10    0.29    0.27
  -7   0  10   -0.25    0.24
  -7   0  10    0.10    0.25
   6   0 -10   45.86    2.73
   6   0 -10   38.71    2.66
  -6   0  10   39.32    2.71
  -6   0  10   41.96    2.69
   5   0 -10   -0.20    0.20
  -5   0  10   -0.09    0.20
   5   0 -10   -0.38    0.18
  -5   0  10    0.37    0.23
  -4   0  10  140.31    8.73
   4   0 -10  142.36    8.78
   4   0 -10  137.02    8.73
  -4   0  10  155.98    8.81
   3   0 -10    0.22    0.19
   3   0 -10    0.28    0.22
  -3   0  10    0.16    0.17
  -3   0  10    0.25    0.22
   3   0 -10    0.14    0.21
   2   0 -10    1.03    0.26
  -2   0  10    0.77    0.27
   2   0 -10    1.58    0.34
  -2   0  10    1.36    0.29
   2   0 -10    1.24    0.27
  -1   0  10   -0.19    0.16
   1   0 -10    0.02    0.17
   1   0 -10    0.00    0.17
   1   0 -10   -0.22    0.18
  -1   0  10   -0.23    0.17
   0   0  10    1.24    0.29
   0   0 -10    1.07    0.30
   0   0 -10    1.09    0.29
   0   0 -10    1.10    0.26
   0   0 -10    1.47    0.27
   0   0  10    1.42    0.27
  -1   0 -10    0.14    0.17
  -1   0 -10    0.01    0.16
   1   0  10   -0.15    0.17
   1   0  10   -0.08    0.17
  -1   0 -10   -0.01    0.19
  -2   0 -10   29.65    2.05
   2   0  10   35.43    2.11
  -2   0 -10   31.55    2.08
  -2   0 -10   32.71    2.41
  -2   0 -10   30.40    2.01
   2   0  10   30.67    2.07
  -3   0 -10    0.22    0.19
  -3   0 -10   -0.02    0.18
   3   0  10    0.08    0.18
   3   0  10    0.26    0.20
  -3   0 -10    0.11    0.17
   4   0  10   96.96    6.00
  -4   0 -10   91.05    5.99
  -4   0 -10  101.81    5.87
   4   0  10  102.07    6.06
   5   0  10   -0.05    0.22
  -5   0 -10    0.06    0.21
  -5   0 -10   -0.42    0.17
   5   0  10    0.16    0.23
  -6   0 -10    6.51    0.64
   6   0  10    6.92    0.71
   6   0  10    6.36    0.73
   7   0  10   -0.25    0.23
  -7   0 -10    0.04    0.22
   7   0  10    0.18    0.27
  -8   0 -10   34.84    2.34
   8   0  10   35.67    2.43
  -9   0 -10    0.17    0.28
   9   0  10   -0.41    0.29
  10   0  10    6.95    0.85
 -10   0 -10    6.69    0.76
  11   0  10   -0.08    0.34
 -11   0 -10   -0.23    0.31
 -11   0 -10   -0.25    0.32
 -12   0 -10   50.84    3.46
  12   0  10   48.68    3.46
 -12   0 -10   54.49    3.39
  12  -1 -10   -0.14    0.36
 -12  -1  10   -0.21    0.29
 -12   1  10    0.10    0.34
 -12   1  10    0.32    0.34
  12   1 -10    0.48    0.36
  11  -1 -10   25.03    1.77
 -11  -1  10   21.47    1.67
 -11   1  10   19.38    1.67
  11   1 -10   24.47    1.69
  11   1 -10   21.03    1.70
 -11   1  10   23.32    1.64
  10  -1 -10    0.32    0.38
 -10  -1  10    0.11    0.27
  10   1 -10    0.40    0.33
 -10   1  10   -0.42    0.24
  10   1 -10   -0.08    0.29
 -10   1  10    0.14    0.26
  -9  -1  10    0.84    0.34
   9  -1 -10    0.70    0.34
   9   1 -10    0.65    0.38
   9   1 -10    0.61    0.30
  -9   1  10    1.02    0.32
  -9   1  10    0.99    0.36
  -8  -1  10   -0.31    0.23
   8  -1 -10   -0.09    0.24
  -8   1  10    0.06    0.29
   8   1 -10   -0.36    0.23
   8   1 -10    0.10    0.26
  -8   1  10    0.20    0.24
  -8   1  10    0.10    0.28
   7  -1 -10    0.45    0.28
  -7  -1  10    1.43    0.34
  -7  -1  10    0.93    0.34
  -7   1  10    1.12    0.35
   7   1 -10    1.31    0.37
  -7   1  10    1.40    0.32
   7   1 -10    1.84    0.36
  -7   1  10    0.95    0.34
   6  -1 -10   -0.05    0.20
  -6  -1  10    0.25    0.23
  -6  -1  10   -0.06    0.22
  -6   1  10   -0.27    0.19
   6   1 -10    0.17    0.23
  -6   1  10   -0.16    0.20
   6   1 -10    0.11    0.23
  -6   1  10    0.13    0.21
   6   1 -10   -0.18    0.19
  -5  -1  10   67.49    4.36
   5  -1 -10   65.82    4.32
   5  -1 -10   69.61    4.36
  -5  -1  10   71.41    4.35
   5   1 -10   68.23    4.32
  -5   1  10   70.85    4.32
   5   1 -10   67.73    4.23
   5   1 -10   69.29    4.36
  -5   1  10   82.37    4.29
  -5   1  10   63.65    4.37
   4  -1 -10   -0.25    0.19
  -4  -1  10    0.15    0.21
   4  -1 -10   -0.13    0.20
  -4  -1  10    0.19    0.23
   4  -1 -10   -0.02    0.20
  -4   1  10   -0.20    0.16
   4   1 -10    0.06    0.19
   4   1 -10   -0.25    0.19
  -4   1  10    0.21    0.22
   4   1 -10    0.03    0.18
  -4   1  10    0.08    0.21
  -3  -1  10   35.49    2.36
  -3  -1  10   35.57    2.37
   3  -1 -10   37.19    2.35
   3  -1 -10   37.22    2.36
   3  -1 -10   38.74    2.75
   3   1 -10   35.52    2.34
   3   1 -10   33.70    2.36
  -3   1  10   39.81    2.40
   3   1 -10   40.00    2.32
  -3   1  10   32.65    2.33
  -3   1  10   35.83    2.32
   2  -1 -10    0.02    0.19
   2  -1 -10    0.30    0.20
  -2  -1  10   -0.20    0.14
  -2  -1  10    0.06    0.18
   2  -1 -10    0.18    0.19
   2   1 -10   -0.22    0.17
  -2   1  10    0.09    0.17
  -2   1  10    0.08    0.19
   2   1 -10   -0.04    0.16
   2   1 -10   -0.10    0.16
   2   1 -10    0.00    0.18
  -2   1  10    0.11    0.18
   2   1 -10    0.19    0.17
  -1  -1  10   26.30    1.80
   1  -1 -10   23.90    2.08
  -1  -1  10   28.34    1.81
   1  -1 -10   28.34    1.82
   1  -1 -10   29.45    1.82
  -1   1  10   26.96    1.83
   1   1 -10   28.74    1.78
  -1   1  10   25.75    1.80
   1   1 -10   27.26    1.83
   1   1 -10   28.97    2.13
   1   1 -10   27.02    1.77
   0  -1 -10    0.15    0.19
   0  -1  10   -0.08    0.18
   0  -1  10   -0.12    0.14
   0  -1 -10    0.19    0.20
   0  -1 -10   -0.07    0.19
   0   1 -10   -0.28    0.13
   0   1 -10   -0.04    0.17
   0   1  10   -0.13    0.16
   0   1 -10    0.00    0.16
   0   1  10   -0.14    0.17
   0   1 -10   -0.06    0.16
   0   1  10    0.15    0.19
   1  -1  10   20.68    1.39
  -1  -1 -10   22.63    1.40
  -1  -1 -10   19.64    1.63
   1  -1  10   20.55    1.39
  -1  -1 -10   22.15    1.41
  -1  -1 -10   20.09    1.39
  -1   1 -10   18.31    1.61
   1   1  10   18.05    1.40
  -1   1 -10   19.05    1.34
   1   1  10   20.69    1.38
  -1   1 -10   20.25    1.40
  -1   1 -10   20.43    1.36
   1   1  10   21.03    1.37
   2  -1  10   -0.31    0.17
  -2  -1 -10    0.04    0.18
   2  -1  10   -0.18    0.17
  -2  -1 -10    0.16    0.18
  -2  -1 -10   -0.10    0.20
   2   1  10   -0.12    0.17
  -2   1 -10   -0.31    0.14
  -2   1 -10    0.00    0.17
   2   1  10   -0.03    0.18
  -2   1 -10    0.04    0.17
   2   1  10   -0.13    0.18
   3  -1  10    0.97    0.27
  -3  -1 -10    1.18    0.29
  -3  -1 -10    2.59    0.37
  -3   1 -10    1.14    0.26
   3   1  10    1.17    0.28
   3   1  10    1.40    0.32
  -3   1 -10    1.10    0.26
   3   1  10    1.32    0.30
   4  -1  10   -0.05    0.18
  -4  -1 -10   -0.14    0.17
  -4  -1 -10    0.02    0.19
  -4   1 -10   -0.06    0.18
   4   1  10   -0.19    0.20
  -4   1 -10   -0.06    0.18
   4   1  10   -0.29    0.18
   4   1  10   -0.06    0.20
  -5  -1 -10   27.70    1.82
   5  -1  10   27.42    1.83
   5   1  10   27.21    1.85
  -5   1 -10   24.83    1.77
  -5   1 -10   25.29    1.76
   5   1  10   28.97    1.87
  -6  -1 -10   -0.07    0.23
   6  -1  10    0.04    0.24
   6   1  10    0.04    0.25
  -6   1 -10    0.27    0.22
   6   1  10    0.27    0.29
  -6   1 -10   -0.22    0.19
  -7  -1 -10   60.37    4.10
   7  -1  10   69.49    4.15
  -7   1 -10   62.90    3.99
  -7   1 -10   65.41    4.06
   7   1  10   69.43    4.17
   7   1  10   64.30    4.13
  -7   1 -10   63.06    4.13
  -8  -1 -10   -0.10    0.28
   8  -1  10    0.27    0.31
  -8   1 -10    0.31    0.26
   8   1  10   -0.26    0.25
   8   1  10    0.04    0.31
  -8   1 -10    0.49    0.27
  -8   1 -10    0.45    0.31
   9  -1  10   28.35    2.11
  -9  -1 -10   29.13    2.06
  -9   1 -10   30.24    1.99
  -9   1 -10   35.75    2.08
   9   1  10   27.91    2.07
   9   1  10   28.98    2.10
  -9   1 -10   27.37    2.06
  10  -1  10   -0.72    0.29
 -10  -1 -10    0.14    0.35
 -10   1 -10   -0.30    0.28
 -10   1 -10    0.27    0.28
  10   1  10    0.00    0.32
  10   1  10    0.49    0.38
  11  -1  10   51.21    3.46
 -11  -1 -10   46.41    3.39
 -11   1 -10   57.83    3.35
  11   1  10   47.86    3.43
 -11   1 -10   55.45    3.47
 -12  -1 -10    0.03    0.31
  12  -1  10    0.03    0.39
 -12   1 -10   -0.47    0.31
  12   1  10    0.11    0.36
 -12   1 -10    0.15    0.27
 -12  -2  10    0.68    0.39
  12  -2 -10    1.03    0.46
  12   2 -10    1.31    0.40
  12   2 -10    1.71    0.50
 -12   2  10    1.34    0.46
 -11  -2  10    0.20    0.33
  11  -2 -10    0.84    0.42
 -11   2  10    0.04    0.33
  11   2 -10   -0.38    0.32
  11   2 -10   -0.33    0.26
 -11   2  10    0.09    0.28
  10  -2 -10    5.49    0.75
 -10  -2  10    3.87    0.64
  10   2 -10    5.21    0.72
 -10   2  10    4.33    0.53
  10   2 -10    4.94    0.63
 -10   2  10    4.34    0.62
 -10   2  10    4.16    0.65
  -9  -2  10   -0.09    0.28
   9  -2 -10   -0.20    0.30
  -9   2  10   -0.18    0.26
   9   2 -10   -0.03    0.27
  -9   2  10    0.14    0.28
  -9   2  10   -0.09    0.33
   9   2 -10    0.11    0.32
  -9   2  10    0.15    0.23
  -8  -2  10   32.94    2.13
   8  -2 -10   29.83    2.13
  -8   2  10   31.77    2.02
   8   2 -10   29.70    2.12
  -8   2  10   32.60    2.13
   8   2 -10   27.65    2.07
   8   2 -10   29.36    2.04
  -8   2  10   30.28    2.07
   7  -2 -10   -0.29    0.24
  -7  -2  10    0.07    0.25
   7   2 -10   -0.10    0.22
  -7   2  10   -0.31    0.20
   7   2 -10   -0.36    0.21
  -7   2  10    0.12    0.23
  -7   2  10   -0.08    0.20
   7   2 -10    0.42    0.28
  -6  -2  10    0.30    0.27
   6  -2 -10   -0.13    0.22
   6   2 -10    0.08    0.22
   6   2 -10    0.17    0.21
   6   2 -10    0.04    0.23
  -6   2  10    0.45    0.23
  -6   2  10    0.10    0.22
  -6   2  10    0.24    0.25
  -5  -2  10   -0.30    0.20
   5  -2 -10    0.20    0.24
   5   2 -10   -0.21    0.16
  -5   2  10   -0.01    0.21
  -5   2  10    0.30    0.24
  -5   2  10    0.40    0.21
   5   2 -10   -0.22    0.19
   5   2 -10    0.01    0.21
   4  -2 -10    6.27    0.59
   4  -2 -10    5.59    0.66
  -4  -2  10    4.74    0.58
   4   2 -10    5.43    0.60
  -4   2  10    6.24    0.59
  -4   2  10    5.14    0.52
   4   2 -10    4.96    0.58
   4   2 -10    4.39    0.49
   4   2 -10    4.91    0.50
  -4   2  10    5.73    0.60
   3  -2 -10    0.13    0.19
   3  -2 -10   -0.03    0.21
  -3  -2  10   -0.16    0.18
  -3   2  10    0.04    0.18
  -3   2  10    0.39    0.20
   3   2 -10    0.07    0.19
   3   2 -10    0.16    0.21
   3   2 -10    0.03    0.16
  -3   2  10    0.06    0.20
   2  -2 -10   15.23    1.29
   2  -2 -10   17.00    1.14
  -2  -2  10   17.09    1.15
   2   2 -10   13.59    1.08
  -2   2  10   18.26    1.13
  -2   2  10   14.90    1.08
  -2   2  10   14.51    1.13
   2   2 -10   14.02    1.05
   2   2 -10   16.66    1.14
  -1  -2  10   -0.25    0.16
   1  -2 -10    0.31    0.20
   1  -2 -10   -0.11    0.16
   1   2 -10    0.02    0.17
  -1   2  10   -0.04    0.16
  -1   2  10   -0.15    0.16
   1   2 -10   -0.06    0.16
  -1   2  10   -0.29    0.16
   1   2 -10   -0.16    0.14
   0  -2 -10  126.62    8.77
   0  -2 -10  109.02    7.57
   0  -2  10  128.76    7.58
   0   2 -10  120.73    7.38
   0   2  10  126.54    7.65
   0   2  10  125.79    7.39
   0   2 -10  138.31    7.52
   0   2  10  126.75    7.54
   0   2 -10  118.01    7.61
  -1  -2 -10    0.03    0.20
  -1  -2 -10   -0.04    0.18
   1  -2  10    0.23    0.19
   1   2  10   -0.14    0.16
   1   2  10    0.14    0.19
  -1   2 -10    0.00    0.14
   1   2  10   -0.08    0.17
  -1   2 -10    0.15    0.19
  -1   2 -10   -0.06    0.17
  -2  -2 -10   36.54    2.57
   2  -2  10   43.99    2.60
  -2  -2 -10   36.81    3.01
  -2   2 -10   40.76    2.52
   2   2  10   37.86    2.56
  -2   2 -10   39.58    2.51
   2   2  10   43.58    2.54
   2   2  10   43.79    2.63
   3  -2  10   -0.22    0.20
  -3  -2 -10    0.02    0.19
  -3   2 -10    0.21    0.15
   3   2  10   -0.13    0.19
   3   2  10    0.07    0.20
   3   2  10   -0.20    0.20
  -3   2 -10   -0.06    0.16
  -4  -2 -10   39.38    2.49
   4  -2  10   40.25    2.50
   4   2  10   40.18    2.46
   4   2  10   34.73    2.47
  -4   2 -10   39.74    2.44
  -4   2 -10   38.14    2.39
   4   2  10   35.41    2.51
  -5  -2 -10    0.08    0.22
   5  -2  10    0.02    0.23
   5   2  10    0.05    0.24
   5   2  10   -0.28    0.22
  -5   2 -10   -0.20    0.19
   5   2  10    0.20    0.24
  -5   2 -10    0.07    0.17
  -6  -2 -10   95.94    6.13
   6  -2  10   94.41    6.12
  -6   2 -10  101.61    6.18
   6   2  10  109.94    6.22
  -6   2 -10   98.86    6.03
   6   2  10  102.96    6.13
   6   2  10   89.80    5.99
  -6   2 -10  101.33    5.97
  -7  -2 -10    0.00    0.25
   7  -2  10   -0.10    0.29
   7   2  10    0.05    0.27
  -7   2 -10   -0.06    0.24
   7   2  10    0.03    0.27
   7   2  10   -0.22    0.26
  -7   2 -10   -0.09    0.25
  -7   2 -10    0.02    0.19
   8  -2  10  115.85    7.16
  -8  -2 -10  111.00    7.14
  -8   2 -10  114.56    7.16
   8   2  10  122.78    7.14
  -8   2 -10  126.28    6.97
   8   2  10  102.63    7.17
   9  -2  10    0.05    0.29
  -9  -2 -10   -0.23    0.26
   9   2  10    0.19    0.34
  -9   2 -10   -0.07    0.28
   9   2  10    0.11    0.29
  -9   2 -10   -0.31    0.24
  10  -2  10   78.70    4.94
 -10  -2 -10   69.43    4.86
 -10   2 -10   79.94    4.78
  10   2  10   68.63    4.82
  10   2  10   85.64    4.97
 -10   2 -10   78.87    4.91
  11  -2  10    0.13    0.38
 -11  -2 -10   -0.13    0.36
  11   2  10    0.21    0.35
 -11   2 -10   -0.02    0.30
 -11   2 -10   -0.31    0.30
  11   2  10    0.13    0.31
 -11  -3  10   24.65    1.70
 -11   3  10   18.82    1.62
  11   3 -10   21.40    1.67
 -11   3  10   19.94    1.60
 -10  -3  10   -0.23    0.28
 -10   3  10    0.29    0.32
  10   3 -10    0.05    0.29
  10   3 -10    0.45    0.34
 -10   3  10    0.05    0.29
  -9  -3  10    0.59    0.33
   9   3 -10    0.98    0.38
  -9   3  10    0.51    0.40
  -9   3  10    0.83    0.35
   9   3 -10    1.05    0.39
  -9   3  10    0.74    0.34
  -8  -3  10    0.17    0.27
  -8   3  10   -0.25    0.23
  -8   3  10   -0.08    0.23
   8   3 -10    0.07    0.28
  -8   3  10   -0.17    0.31
   8   3 -10   -0.28    0.27
  -7  -3  10    2.35    0.46
   7   3 -10    1.78    0.42
  -7   3  10    1.03    0.35
   7   3 -10    2.02    0.42
  -7   3  10    1.48    0.50
  -7   3  10    2.04    0.39
  -6   3  10    0.17    0.24
   6   3 -10    0.28    0.24
  -6   3  10   -0.14    0.32
  -6   3  10   -0.06    0.21
   6   3 -10    0.30    0.25
  -5   3  10   61.00    3.81
   5   3 -10   53.82    3.64
   5   3 -10   55.84    3.54
  -5   3  10   55.26    3.62
  -5   3  10   60.51    3.54
   4   3 -10    0.01    0.21
   4   3 -10    0.04    0.19
  -4   3  10   -0.26    0.19
  -4   3  10   -0.08    0.19
  -4   3  10    0.13    0.32
   3   3 -10   29.65    1.80
   3   3 -10   26.32    1.85
  -3   3  10   27.01    2.01
  -3   3  10   25.93    1.78
  -3   3  10   27.96    1.86
   2   3 -10   -0.31    0.16
  -2   3  10   -0.39    0.27
  -2   3  10   -0.13    0.21
   2   3 -10    0.00    0.20
  -2   3  10    0.02    0.19
  -1   3  10   23.42    1.44
   1   3 -10   19.41    1.41
  -1   3  10   23.36    1.65
   1   3 -10   22.18    1.46
  -1   3  10   20.91    1.48
  -1   3  10   19.38    1.39
   0  -3 -10   -0.07    0.20
   0   3  10   -0.18    0.17
   0   3 -10    0.25    0.18
   0   3  10    0.11    0.20
   0   3 -10    0.21    0.22
   0   3  10    0.05    0.18
   0   3  10    0.08    0.31
  -1  -3 -10   16.99    1.37
  -1   3 -10   15.70    1.15
   1   3  10   16.70    1.20
   1   3  10   15.01    1.14
   1   3  10   16.69    1.32
   1   3  10   16.97    1.12
  -2  -3 -10    0.08    0.24
  -2  -3 -10    0.14    0.19
   2   3  10   -0.01    0.19
  -2   3 -10   -0.25    0.18
   2   3  10    0.09    0.20
   2   3  10   -0.15    0.20
   2   3  10   -0.13    0.29
  -3  -3 -10    0.70    0.28
   3   3  10    2.90    0.42
   3   3  10    2.03    0.43
   3   3  10    1.59    0.30
  -3   3 -10    1.19    0.28
   3   3  10    1.26    0.33
  -4  -3 -10   -0.17    0.21
   4   3  10    0.31    0.21
  -4   3 -10   -0.06    0.21
   4   3  10   -0.28    0.22
   4   3  10   -0.06    0.22
  -5  -3 -10   25.89    1.77
  -5   3 -10   25.87    1.77
   5   3  10   25.11    1.71
  -5   3 -10   25.32    1.70
   5   3  10   28.54    1.76
   5   3  10   21.98    1.76
  -6  -3 -10   -0.30    0.24
   6   3  10   -0.27    0.24
   6   3  10    0.18    0.25
  -6   3 -10   -0.12    0.22
   6   3  10    0.22    0.28
  -6   3 -10   -0.07    0.22
  -7  -3 -10   55.25    3.53
   7   3  10   57.28    3.48
  -7   3 -10   56.58    3.44
  -7   3 -10   56.13    3.55
   7   3  10   57.79    3.51
   7   3  10   46.53    3.55
  -8  -3 -10    0.10    0.28
  -8   3 -10   -0.11    0.25
  -8   3 -10   -0.27    0.24
   8   3  10   -0.14    0.29
   8   3  10   -0.21    0.28
   8   3  10    0.04    0.25
  -9  -3 -10   26.86    1.93
  -9   3 -10   25.18    1.86
  -9   3 -10   26.37    1.91
   9   3  10   26.68    1.95
   9   3  10   26.47    1.84
   9   3  10   27.58    1.97
 -10  -3 -10   -0.17    0.32
  10   3  10   -0.38    0.26
 -10   3 -10   -0.04    0.28
  10   3  10    0.07    0.34
 -10   3 -10   -0.08    0.27
 -11  -3 -10   44.53    3.00
 -11   3 -10   40.27    2.97
  11   3  10   45.40    2.88
 -11   3 -10   43.48    2.93
  11   3  10   45.88    3.05
 -10   4  10   37.82    2.42
  10   4 -10   37.26    2.44
 -10   4  10   31.74    2.45
  10   4 -10   35.09    2.51
  -9   4  10    0.24    0.32
   9   4 -10   -0.09    0.30
   9   4 -10    0.64    0.34
  -9   4  10    0.52    0.35
  -9   4  10    0.20    0.38
   8   4 -10  111.88    6.98
  -8   4  10  113.93    6.97
  -8   4  10  115.79    7.10
   8   4 -10  109.27    6.78
  -8   4  10  108.01    6.74
  -7   4  10   -0.14    0.24
   7   4 -10   -0.35    0.24
   7   4 -10    0.09    0.27
  -7   4  10   -0.55    0.29
  -7   4  10    0.06    0.25
  -6   4  10   24.99    2.04
  -6   4  10   28.54    1.86
   6   4 -10   26.70    1.82
   6   4 -10   26.33    1.85
  -6   4  10   25.75    1.80
  -5   4  10    0.00    0.37
   5   4 -10   -0.27    0.23
  -5   4  10   -0.36    0.18
   5   4 -10    0.10    0.24
  -5   4  10    0.13    0.22
  -4   4  10   87.10    5.28
  -4   4  10   80.64    5.62
   4   4 -10   90.60    5.46
   4   4 -10   89.30    5.30
  -4   4  10   88.83    5.45
  -3   4  10    0.25    0.23
   3   4 -10    0.24    0.22
   3   4 -10   -0.12    0.18
  -3   4  10    0.36    0.23
  -3   4  10    0.03    0.32
  -2   4  10    1.03    0.43
  -2   4  10    2.20    0.35
   2   4 -10    0.73    0.25
  -2   4  10    1.35    0.32
   2   4 -10    1.34    0.33
  -1   4  10   -0.56    0.28
  -1   4  10   -0.19    0.16
   1   4 -10   -0.15    0.18
   1   4 -10    0.07    0.19
  -1   4  10    0.10    0.19
   0   4  10    0.32    0.23
   0   4 -10    0.55    0.22
   0   4  10    1.24    0.28
   0   4  10    0.22    0.34
   0   4 -10    0.62    0.26
   1   4  10   -0.30    0.27
   1   4  10    0.12    0.24
  -1   4 -10    0.03    0.17
   1   4  10   -0.24    0.17
   2   4  10   17.47    1.28
   2   4  10   17.80    1.42
   2   4  10   18.60    1.33
  -2   4 -10   18.02    1.25
  -3   4 -10    0.10    0.20
   3   4  10    0.25    0.32
   3   4  10    0.03    0.23
   3   4  10    0.15    0.23
  -4   4 -10   71.36    4.40
   4   4  10   72.58    4.42
  -4   4 -10   68.48    4.25
   4   4  10   66.40    4.28
   5   4  10   -0.03    0.25
  -5   4 -10    0.16    0.25
  -5   4 -10   -0.01    0.22
   5   4  10   -0.05    0.23
   6   4  10    1.81    0.45
   6   4  10    2.14    0.45
  -6   4 -10    2.38    0.43
  -6   4 -10    2.94    0.49
  -7   4 -10   -0.15    0.22
  -7   4 -10    0.13    0.27
   7   4  10   -0.34    0.23
   7   4  10   -0.25    0.24
   8   4  10   30.81    2.04
  -8   4 -10   29.67    1.98
   8   4  10   29.89    2.09
  -8   4 -10   24.48    1.99
  -9  -4 -10    0.13    0.33
   9   4  10    0.48    0.35
   9   4  10   -0.57    0.29
  -9   4 -10   -0.21    0.27
  -9   4 -10   -0.27    0.26
 -10  -4 -10    7.16    0.86
 -10   4 -10    5.18    0.75
  10   4  10    7.05    0.86
 -10   4 -10    7.81    0.86
  10   4  10    6.43    0.87
   9   5 -10    0.57    0.35
  -9   5  10    0.39    0.45
  -9   5  10    0.36    0.33
  -9   5  10    0.74    0.35
   9   5 -10    0.60    0.38
   8   5 -10   -0.39    0.25
  -8   5  10    0.06    0.40
   8   5 -10    0.39    0.30
  -8   5  10   -0.17    0.27
  -8   5  10   -0.12    0.26
  -7   5  10    0.73    0.31
  -7   5  10    0.61    0.47
  -7   5  10    0.83    0.33
   7   5 -10    0.53    0.33
   7   5 -10    0.75    0.36
  -6   5  10    0.23    0.25
   6   5 -10    0.08    0.23
  -6   5  10   -0.05    0.27
   6   5 -10   -0.18    0.25
  -6   5  10   -0.28    0.41
   5   5 -10   46.92    2.83
  -5   5  10   40.84    3.11
  -5   5  10   42.12    2.80
   5   5 -10   43.15    2.89
  -5   5  10   46.09    2.89
   4   5 -10   -0.12    0.19
   4   5 -10    0.15    0.22
  -4   5  10   -0.21    0.37
  -4   5  10   -0.25    0.22
  -4   5  10   -0.16    0.18
   3   5 -10   21.44    1.44
  -3   5  10   21.20    1.49
  -3   5  10   19.33    1.73
  -3   5  10   19.46    1.43
   3   5 -10   22.57    1.51
   2   5 -10   -0.15    0.20
   2   5 -10    0.17    0.20
  -2   5  10    0.04    0.33
  -2   5  10   -0.27    0.19
  -2   5  10   -0.19    0.19
  -1   5  10   18.42    1.33
   1   5 -10   18.13    1.28
  -1   5  10   18.79    1.56
   1   5 -10   18.80    1.31
  -1   5  10   17.61    1.28
   1   5 -10   18.57    1.43
   0   5 -10    0.04    0.18
   0   5  10    0.71    0.41
   0   5 -10    0.03    0.21
   0   5  10   -0.28    0.19
   0   5  10    0.21    0.24
   1   5  10   10.32    0.84
   1   5  10   10.35    1.07
   1   5  10   10.73    0.90
  -1   5 -10   10.08    0.83
  -2   5 -10    0.22    0.21
   2   5  10    0.42    0.36
   2   5  10    0.06    0.24
   2   5  10    0.12    0.23
   3   5  10    0.53    0.30
  -3   5 -10    0.92    0.28
   3   5  10    0.72    0.29
   3   5  10    0.07    0.32
  -4   5 -10   -0.05    0.21
   4   5  10   -0.21    0.21
   4   5  10    0.36    0.30
  -4   5 -10   -0.11    0.22
   5   5  10   16.64    1.30
  -5   5 -10   18.70    1.27
  -5   5 -10   18.74    1.33
   5   5  10   14.82    1.31
  -6   5 -10   -0.03    0.24
   6   5  10    0.26    0.31
   6   5  10   -0.09    0.30
  -6   5 -10    0.31    0.30
  -7   5 -10   44.46    2.83
   7   5  10   47.56    2.91
   7   5  10   40.36    2.96
  -7   5 -10   43.85    2.93
   8   5  10   -0.10    0.30
  -8   5 -10    0.20    0.27
  -8   5 -10   -0.12    0.24
   8   5  10    0.15    0.33
  -9   5 -10   20.06    1.63
   9   5  10   20.82    1.64
   9   5  10   21.45    1.70
  -9   5 -10   23.10    1.62
  -7   6  10    0.28    0.44
  -7   6  10   -0.07    0.28
   7   6 -10    0.19    0.31
  -7   6  10    0.07    0.27
   7   6 -10   -0.08    0.27
  -6   6  10    0.61    0.30
   6   6 -10   -0.05    0.25
   6   6 -10   -0.01    0.29
  -6   6  10    0.80    0.45
  -6   6  10    0.53    0.32
   5   6 -10   -0.10    0.23
   5   6 -10    0.13    0.26
  -5   6  10   -0.11    0.21
  -5   6  10    0.02    0.25
  -5   6  10   -0.08    0.40
  -4   6  10    0.48    0.30
  -4   6  10    0.97    0.28
  -4   6  10    0.61    0.43
   4   6 -10    0.86    0.30
   4   6 -10    0.66    0.29
  -3   6  10   -0.10    0.34
  -3   6  10    0.07    0.22
   3   6 -10   -0.05    0.22
   3   6 -10   -0.21    0.18
  -3   6  10    0.64    0.29
   2   6 -10    6.47    0.71
  -2   6  10    7.76    0.71
  -2   6  10    8.51    0.75
  -2   6  10    6.89    0.94
   2   6 -10    8.62    0.71
  -1   6  10   -0.08    0.22
  -1   6  10    0.00    0.37
   1   6 -10    0.13    0.22
   1   6 -10   -0.34    0.22
   1   6 -10   -0.20    0.33
  -1   6  10    0.15    0.23
   0   6  10   51.40    3.62
   0   6  10   51.86    3.46
   0   6 -10   52.59    3.49
   0   6 -10   57.16    3.59
   0   6 -10   56.69    3.33
   0   6  10   54.04    3.34
   1   6  10    0.01    0.26
  -1   6 -10    0.15    0.22
   1   6  10    0.00    0.34
   1   6  10    0.10    0.24
   2   6  10   14.35    1.07
  -2   6 -10   14.03    1.03
   2   6  10   11.48    1.06
   2   6  10   14.72    1.25
   3   6  10    0.20    0.25
   3   6  10    0.00    0.35
   3   6  10   -0.03    0.24
  -3   6 -10    0.05    0.21
   4   6  10   24.09    1.60
  -4   6 -10   21.50    1.55
   4   6  10   22.15    1.63
  -5   6 -10   -0.05    0.23
   5   6  10    0.04    0.27
   5   6  10    0.06    0.30
  -5   6 -10    0.20    0.27
   6   6  10   46.34    3.09
  -6   6 -10   50.66    3.16
  -6   6 -10   47.15    3.03
   6   6  10   47.28    3.20
   7   6  10   -0.16    0.30
   7   6  10   -0.09    0.27
  -7   6 -10   -0.43    0.25
  -7   6 -10    0.15    0.30
  -4   7  10    0.02    0.24
   4   7 -10   -0.20    0.24
  -4   7  10    0.32    0.43
  -3   7  10   13.77    1.01
   3   7 -10   11.71    0.98
  -3   7  10   11.88    1.37
   2   7 -10   -0.22    0.22
  -2   7  10    0.58    0.27
  -2   7  10   -0.05    0.37
   1   7 -10   10.72    1.17
   1   7 -10   11.52    0.91
  -1   7  10   11.33    0.91
  -1   7  10   10.82    1.24
   0   7 -10    0.02    0.20
   0   7  10    0.00    0.28
   0   7  10   -0.32    0.43
   0   7  10   -0.18    0.22
   0   7 -10    0.27    0.39
  -1   7 -10    8.09    0.93
  -1   7 -10    6.34    0.65
   1   7  10    7.85    0.82
   1   7  10    8.12    1.03
   1   7  10    7.16    0.69
   2   7  10    0.19    0.25
   2   7  10    0.26    0.38
  -2   7 -10    0.12    0.22
   2   7  10    0.19    0.25
   3   7  10    0.53    0.45
   3   7  10    0.44    0.31
   3   7  10    0.16    0.27
  -3   7 -10    0.57    0.29
   4   7  10    0.11    0.26
   4   7  10   -0.34    0.27
  -4   7 -10   -0.23    0.20
  12   0 -11    0.26    0.36
 -12   0  11   -0.31    0.28
 -11   0  11   45.97    3.04
 -11   0  11   46.41    3.12
  11   0 -11   44.29    3.06
  10   0 -11    0.30    0.32
 -10   0  11   -0.35    0.26
 -10   0  11    0.42    0.33
  -9   0  11   16.43    1.27
  -9   0  11   15.35    1.26
   9   0 -11   15.42    1.26
  -8   0  11   -0.17    0.27
  -8   0  11   -0.03    0.25
   8   0 -11    0.11    0.27
   8   0 -11    0.27    0.32
  -7   0  11   46.94    3.01
   7   0 -11   42.04    3.01
   7   0 -11   43.74    2.98
  -7   0  11   51.56    3.06
   6   0 -11   -0.05    0.23
  -6   0  11    0.11    0.23
  -6   0  11   -0.06    0.25
   6   0 -11    0.14    0.26
  -5   0  11  133.11    8.02
  -5   0  11  126.49    7.94
   5   0 -11  137.33    8.01
   5   0 -11  123.56    7.94
   4   0 -11    0.00    0.22
  -4   0  11   -0.06    0.22
  -4   0  11    0.23    0.21
   4   0 -11   -0.09    0.21
  -3   0  11   46.79    2.95
   3   0 -11   45.77    2.94
  -3   0  11   48.22    2.98
   3   0 -11   43.59    2.97
   2   0 -11    0.08    0.21
  -2   0  11   -0.19    0.18
   2   0 -11   -0.04    0.21
  -2   0  11    0.07    0.20
  -1   0  11   96.92    6.04
   1   0 -11   96.76    6.04
  -1   0  11  100.83    6.00
   1   0 -11   95.98    5.98
   1   0 -11   97.98    5.98
   0   0  11   -0.01    0.18
   0   0 -11    0.02    0.21
   0   0 -11    0.33    0.20
   0   0  11   -0.05    0.20
   0   0 -11    0.31    0.22
  -1   0 -11    8.84    0.72
   1   0  11    8.17    0.73
  -1   0 -11    9.61    0.72
   1   0  11    7.83    0.72
  -1   0 -11    7.01    0.71
  -2   0 -11    0.01    0.18
  -2   0 -11    0.17    0.20
   2   0  11   -0.45    0.17
  -2   0 -11    0.09    0.19
   2   0  11   -0.13    0.20
   3   0  11   66.57    4.18
   3   0  11   65.08    4.21
  -3   0 -11   67.07    4.16
  -3   0 -11   68.65    4.20
   4   0  11    0.00    0.20
  -4   0 -11   -0.02    0.19
  -4   0 -11   -0.09    0.20
   4   0  11    0.08    0.22
   5   0  11    5.03    0.57
  -5   0 -11    3.75    0.51
   5   0  11    4.68    0.57
  -6   0 -11   -0.70    0.18
   6   0  11    0.04    0.26
   6   0  11    0.19    0.26
  -7   0 -11   38.32    2.67
   7   0  11   44.69    2.78
   8   0  11   -0.16    0.30
  -8   0 -11   -0.22    0.25
   9   0  11    2.54    0.53
  -9   0 -11    3.23    0.51
 -10   0 -11   -0.09    0.29
  10   0  11   -0.11    0.31
 -11   0 -11   33.38    2.39
  11   0  11   37.57    2.51
 -11  -1  11   -0.25    0.27
  11  -1 -11   -0.34    0.29
  11   1 -11    0.36    0.38
 -11   1  11    0.06    0.26
  11   1 -11   -0.01    0.37
 -11   1  11    0.08    0.34
 -10  -1  11    1.98    0.47
  10  -1 -11    2.33    0.53
 -10   1  11    2.79    0.46
 -10   1  11    4.00    0.63
  10   1 -11    2.50    0.50
  10   1 -11    2.85    0.54
   9  -1 -11   -0.18    0.29
  -9  -1  11   -0.01    0.28
   9   1 -11   -0.28    0.27
   9   1 -11    0.02    0.31
  -9   1  11    0.15    0.27
  -9   1  11   -0.14    0.29
   8  -1 -11    3.15    0.53
  -8  -1  11    3.85    0.55
   8   1 -11    2.99    0.49
   8   1 -11    3.19    0.55
  -8   1  11    2.29    0.48
  -8   1  11    3.05    0.47
  -7  -1  11    0.08    0.25
   7  -1 -11   -0.26    0.24
   7   1 -11   -0.05    0.26
  -7   1  11    0.02    0.26
   7   1 -11   -0.01    0.26
  -7   1  11    0.01    0.24
  -6  -1  11    4.36    0.54
   6  -1 -11    2.79    0.48
  -6   1  11    4.63    0.54
   6   1 -11    3.10    0.52
  -6   1  11    3.80    0.53
   6   1 -11    3.50    0.50
  -6   1  11    3.82    0.51
  -5  -1  11    0.48    0.27
  -5  -1  11   -0.02    0.21
   5  -1 -11    0.01    0.24
   5   1 -11    0.07    0.24
  -5   1  11    0.05    0.20
  -5   1  11    0.34    0.27
  -5   1  11    0.04    0.24
   5   1 -11    0.10    0.20
   5   1 -11   -0.19    0.19
  -4  -1  11    0.90    0.29
   4  -1 -11    1.09    0.32
   4  -1 -11    0.25    0.25
  -4  -1  11    0.43    0.26
  -4   1  11    0.69    0.25
  -4   1  11    1.23    0.32
   4   1 -11    1.19    0.32
  -4   1  11    0.45    0.27
   4   1 -11    0.33    0.26
   4   1 -11    0.65    0.24
   3  -1 -11    0.01    0.20
  -3  -1  11   -0.24    0.18
  -3  -1  11    0.18    0.21
   3  -1 -11    0.09    0.23
   3   1 -11    0.14    0.20
  -3   1  11    0.16    0.22
   3   1 -11    0.18    0.21
   3   1 -11   -0.32    0.17
  -3   1  11    0.00    0.21
  -3   1  11   -0.12    0.18
   2  -1 -11   53.71    3.58
  -2  -1  11   58.98    3.57
  -2  -1  11   55.02    3.58
   2  -1 -11   57.78    3.56
  -2   1  11   59.00    3.56
  -2   1  11   52.22    3.59
  -2   1  11   63.68    3.52
   2   1 -11   53.38    3.53
   2   1 -11   57.96    3.54
   2   1 -11   50.14    3.58
   2   1 -11   62.56    3.49
  -1  -1  11    0.22    0.23
   1  -1 -11   -0.21    0.16
  -1  -1  11   -0.25    0.17
   1  -1 -11    0.07    0.20
  -1   1  11   -0.14    0.19
   1   1 -11   -0.38    0.17
  -1   1  11   -0.03    0.19
   1   1 -11   -0.05    0.16
  -1   1  11   -0.08    0.19
   1   1 -11    0.13    0.20
   0  -1 -11  135.58    9.30
   0  -1  11  155.67    9.33
   0  -1 -11  148.21    9.26
   0  -1  11  168.07    9.29
   0  -1 -11  162.97    9.28
   0   1  11  141.59    9.25
   0   1  11  156.40    9.34
   0   1  11  158.16    9.05
   0   1 -11  155.88    9.25
   0   1 -11  148.92    9.04
   0   1 -11  150.90    9.33
  -1  -1 -11    0.11    0.20
  -1  -1 -11    0.03    0.18
   1  -1  11    0.16    0.21
  -1   1 -11    0.16    0.19
   1   1  11   -0.09    0.18
   1   1  11   -0.03    0.21
   1   1  11    0.01    0.18
  -1   1 -11    0.19    0.19
  -1   1 -11   -0.18    0.17
   2  -1  11   21.73    1.60
  -2  -1 -11   25.35    1.61
  -2  -1 -11   23.72    1.60
  -2   1 -11   23.95    1.60
   2   1  11   23.01    1.57
  -2   1 -11   23.13    1.56
  -2   1 -11   25.33    1.56
   2   1  11   21.45    1.61
   2   1  11   21.33    1.58
  -3  -1 -11    0.02    0.21
   3  -1  11   -0.07    0.22
  -3  -1 -11    0.05    0.21
  -3   1 -11   -0.01    0.18
   3   1  11   -0.33    0.18
   3   1  11    0.22    0.24
  -3   1 -11   -0.11    0.20
  -4  -1 -11   36.78    2.51
   4  -1  11   42.67    2.53
  -4  -1 -11   37.08    2.51
  -4   1 -11   36.70    2.45
   4   1  11   41.26    2.54
  -4   1 -11   38.66    2.47
   4   1  11   37.07    2.55
  -5  -1 -11    0.05    0.19
   5  -1  11    0.21    0.24
  -5  -1 -11   -0.13    0.18
   5   1  11    0.13    0.27
  -5   1 -11   -0.02    0.22
  -5   1 -11   -0.21    0.18
   5   1  11    0.05    0.26
  -6  -1 -11   22.04    1.62
  -6  -1 -11   23.38    1.64
   6  -1  11   20.72    1.64
   6   1  11   26.54    1.70
  -6   1 -11   23.32    1.59
   6   1  11   24.06    1.68
  -6   1 -11   22.59    1.62
   7  -1  11   -0.03    0.29
  -7  -1 -11   -0.22    0.24
   7   1  11    0.44    0.33
   7   1  11    0.11    0.29
  -7   1 -11   -0.18    0.24
  -7   1 -11    0.25    0.24
   8  -1  11    7.47    0.86
  -8  -1 -11    7.19    0.81
   8   1  11    8.30    0.91
  -8   1 -11    6.55    0.70
  -8   1 -11    8.57    0.81
   8   1  11    7.26    0.83
   9  -1  11   -0.34    0.34
  -9  -1 -11    0.14    0.30
  -9   1 -11   -0.14    0.24
   9   1  11   -0.03    0.32
   9   1  11    0.19    0.37
 -10  -1 -11   10.73    1.05
  10  -1  11   10.36    1.09
  10   1  11   11.12    1.07
 -10   1 -11   12.05    0.97
 -10   1 -11   11.06    1.07
  11  -1  11   -0.43    0.32
 -11  -1 -11    0.55    0.34
  11   1  11   -0.13    0.31
 -11   1 -11   -0.04    0.32
 -11   1 -11   -0.09    0.28
  11  -2 -11    4.39    0.73
 -11  -2  11    3.96    0.66
  11   2 -11    4.40    0.72
 -11   2  11    5.64    0.78
  11   2 -11    6.68    0.76
  10  -2 -11   -0.32    0.31
 -10  -2  11    0.57    0.37
  10   2 -11   -0.22    0.30
 -10   2  11    0.25    0.31
  10   2 -11    0.35    0.35
 -10   2  11    0.03    0.31
 -10   2  11   -0.32    0.24
  -9  -2  11   61.09    3.67
   9  -2 -11   54.17    3.66
  -9   2  11   56.55    3.54
   9   2 -11   57.49    3.59
   9   2 -11   54.39    3.69
  -9   2  11   62.78    3.60
  -9   2  11   55.57    3.74
  -9   2  11   47.44    3.65
  -8  -2  11    0.01    0.27
   8  -2 -11    0.09    0.30
  -8   2  11    0.24    0.29
  -8   2  11    0.07    0.29
   8   2 -11    0.32    0.26
  -8   2  11    0.21    0.24
   8   2 -11   -0.26    0.29
   8   2 -11   -0.06    0.28
   7  -2 -11    1.72    0.42
  -7  -2  11    2.79    0.49
   7   2 -11    3.33    0.47
  -7   2  11    3.76    0.52
   7   2 -11    4.24    0.56
  -7   2  11    2.90    0.42
  -7   2  11    2.73    0.48
   7   2 -11    3.71    0.53
  -6  -2  11   -0.06    0.25
   6  -2 -11   -0.03    0.25
   6   2 -11    0.19    0.24
  -6   2  11   -0.13    0.21
  -6   2  11   -0.01    0.25
   6   2 -11    0.24    0.27
   6   2 -11    0.21    0.23
  -6   2  11   -0.02    0.22
   5  -2 -11    0.04    0.22
  -5  -2  11   -0.12    0.20
   5   2 -11    0.97    0.31
   5   2 -11   -0.12    0.21
  -5   2  11    0.22    0.23
  -5   2  11   -0.05    0.22
  -5   2  11    0.14    0.21
   5   2 -11    0.45    0.25
  -4  -2  11    0.01    0.23
   4  -2 -11   -0.08    0.23
  -4   2  11   -0.10    0.19
   4   2 -11   -0.09    0.18
  -4   2  11   -0.21    0.20
   4   2 -11    0.00    0.22
  -4   2  11    0.03    0.20
   4   2 -11    0.12    0.21
   4   2 -11    0.15    0.19
  -3  -2  11   30.85    1.97
   3  -2 -11   30.44    1.96
  -3   2  11   26.28    1.89
  -3   2  11   29.84    1.91
  -3   2  11   29.25    1.97
   3   2 -11   27.47    1.90
   3   2 -11   28.59    1.96
   3   2 -11   29.62    1.88
  -2  -2  11   -0.11    0.20
   2  -2 -11   -0.06    0.20
   2   2 -11    0.10    0.21
  -2   2  11   -0.29    0.17
  -2   2  11    0.27    0.22
   2   2 -11   -0.03    0.16
   2   2 -11    0.10    0.21
  -2   2  11   -0.21    0.20
  -1  -2  11   14.23    1.08
   1  -2 -11   14.35    1.09
   1   2 -11   13.18    1.08
  -1   2  11   15.41    1.11
   1   2 -11   14.40    1.01
  -1   2  11   15.34    1.08
   1   2 -11   16.22    1.09
  -1   2  11   13.40    1.05
   0  -2  11    0.41    0.22
   0  -2 -11   -0.03    0.19
   0   2  11   -0.13    0.19
   0   2 -11    0.19    0.18
   0   2 -11   -0.40    0.15
   0   2 -11   -0.10    0.15
   0   2  11   -0.05    0.19
   0   2  11   -0.18    0.20
   1  -2  11  119.15    7.23
  -1  -2 -11  124.73    7.24
  -1  -2 -11  110.88    7.21
  -1   2 -11  112.12    7.14
  -1   2 -11  129.21    7.05
   1   2  11  106.56    7.28
  -1   2 -11  121.67    7.27
   1   2  11  122.89    7.21
   2  -2  11   -0.15    0.19
  -2  -2 -11    0.05    0.22
  -2   2 -11   -0.12    0.18
  -2   2 -11    0.03    0.20
   2   2  11    0.18    0.23
   2   2  11   -0.10    0.21
   2   2  11   -0.12    0.20
  -2   2 -11   -0.13    0.15
  -3  -2 -11  179.35   12.05
   3  -2  11  193.25   12.06
   3   2  11  212.67   12.15
  -3   2 -11  196.95   11.75
   3   2  11  189.03   12.04
  -3   2 -11  205.28   11.97
   3   2  11  219.63   11.77
   4  -2  11   -0.14    0.23
  -4  -2 -11   -0.01    0.23
  -4   2 -11    0.04    0.21
   4   2  11    0.23    0.24
   4   2  11    0.02    0.23
  -4   2 -11   -0.08    0.18
   4   2  11   -0.26    0.23
   5  -2  11  113.11    6.47
  -5  -2 -11  101.79    6.45
   5   2  11   95.32    6.52
   5   2  11  104.33    6.32
  -5   2 -11  101.75    6.29
   5   2  11  110.46    6.46
  -5   2 -11  105.51    6.35
   6  -2  11    0.18    0.28
  -6  -2 -11   -0.04    0.22
  -6   2 -11   -0.09    0.24
   6   2  11    0.31    0.30
  -6   2 -11   -0.01    0.20
   6   2  11    0.01    0.29
   6   2  11   -0.10    0.25
   7  -2  11   16.65    1.26
  -7  -2 -11   13.83    1.19
   7   2  11   14.52    1.20
   7   2  11   15.23    1.25
  -7   2 -11   15.49    1.18
   8  -2  11    0.02    0.30
  -8  -2 -11    0.04    0.29
  -8   2 -11    0.16    0.30
  -8   2 -11   -0.15    0.27
   8   2  11   -0.02    0.29
   8   2  11    0.02    0.29
   9  -2  11   48.92    3.07
  -9  -2 -11   47.16    3.02
  -9   2 -11   44.67    2.93
   9   2  11   41.55    3.04
  -9   2 -11   44.56    3.04
   9   2  11   43.88    3.01
  10  -2  11   -0.09    0.37
 -10  -2 -11   -0.27    0.30
 -10   2 -11   -0.14    0.28
  10   2  11    0.01    0.30
 -10   2 -11    0.03    0.31
  10   2  11    0.02    0.32
 -11  -2 -11    2.63    0.58
  11  -2  11    2.44    0.60
  11   2  11    3.53    0.58
  11   2  11    2.13    0.53
 -11   2 -11    1.96    0.50
 -11   2 -11    3.11    0.60
 -11  -3  11    0.06    0.35
  11  -3 -11   -0.20    0.40
 -10  -3  11    3.23    0.59
  10   3 -11    2.65    0.57
 -10   3  11    3.31    0.59
 -10   3  11    2.64    0.55
  10   3 -11    3.24    0.59
  -9  -3  11   -0.32    0.28
  -9   3  11    0.05    0.26
  -9   3  11   -0.22    0.27
  -9   3  11   -0.75    0.33
   9   3 -11    0.49    0.35
   9   3 -11   -0.36    0.28
  -8  -3  11    4.06    0.66
   8   3 -11    3.75    0.58
   8   3 -11    4.50    0.66
  -8   3  11    3.69    0.68
  -8   3  11    2.95    0.52
  -8   3  11    3.86    0.57
  -7  -3  11   -0.25    0.25
   7   3 -11    0.20    0.30
  -7   3  11   -0.21    0.35
  -7   3  11   -0.14    0.24
   7   3 -11    0.04    0.29
  -7   3  11   -0.01    0.25
  -6  -3  11    2.50    0.48
  -6   3  11    2.35    0.44
  -6   3  11    2.19    0.57
  -6   3  11    1.89    0.39
   6   3 -11    2.63    0.45
   6   3 -11    2.30    0.42
  -5   3  11    0.04    0.35
   5   3 -11   -0.45    0.19
  -5   3  11   -0.11    0.22
  -5   3  11    0.28    0.25
   5   3 -11    0.28    0.25
  -4   3  11    1.09    0.31
   4   3 -11    0.60    0.27
   4   3 -11    0.19    0.25
  -4   3  11    0.59    0.27
  -4   3  11    0.28    0.39
   3   3 -11    0.00    0.21
  -3   3  11   -0.11    0.31
  -3   3  11   -0.12    0.23
   3   3 -11   -0.24    0.21
  -3   3  11    0.05    0.20
   2   3 -11   48.76    2.99
   2   3 -11   44.07    2.89
  -2   3  11   46.39    2.99
  -2   3  11   43.30    3.13
  -2   3  11   48.29    2.90
  -1   3  11   -0.01    0.19
  -1   3  11   -0.10    0.19
  -1   3  11    0.16    0.36
  -1   3  11    0.13    0.22
   1   3 -11    0.05    0.22
   1   3 -11    0.23    0.22
   0   3 -11  119.26    7.63
   0   3  11  134.25    7.78
   0   3  11  113.60    7.65
   0   3  11  119.92    7.41
   0   3  11  130.23    7.53
   0   3 -11  130.48    7.41
  -1  -3 -11   -0.38    0.20
   1   3  11   -0.03    0.19
   1   3  11   -0.18    0.31
  -1   3 -11    0.20    0.21
   1   3  11    0.21    0.23
  -1   3 -11    0.26    0.21
   1   3  11   -0.27    0.19
  -2  -3 -11   20.63    1.42
  -2  -3 -11   20.04    1.40
   2   3  11   18.36    1.36
   2   3  11   19.96    1.34
   2   3  11   20.46    1.43
  -2   3 -11   18.70    1.36
   2   3  11   18.97    1.51
  -3  -3 -11   -0.23    0.21
   3   3  11    0.52    0.34
   3   3  11    0.32    0.24
   3   3  11   -0.15    0.21
  -3   3 -11    0.22    0.22
   3   3  11    0.14    0.22
  -4  -3 -11   38.46    2.34
   4   3  11   32.96    2.33
  -4   3 -11   31.60    2.22
   4   3  11   36.50    2.24
   4   3  11   32.75    2.26
  -5  -3 -11   -0.32    0.23
   5   3  11    0.16    0.25
   5   3  11    0.27    0.30
  -5   3 -11    0.04    0.23
   5   3  11    0.52    0.31
  -6  -3 -11   20.73    1.52
   6   3  11   20.09    1.50
   6   3  11   20.20    1.46
  -6   3 -11   20.06    1.51
  -6   3 -11   21.32    1.47
   6   3  11   20.30    1.55
  -7  -3 -11   -0.12    0.26
  -7   3 -11    0.28    0.30
  -7   3 -11    0.28    0.29
   7   3  11   -0.17    0.27
   7   3  11   -0.05    0.28
   7   3  11   -0.02    0.26
  -8  -3 -11    6.69    0.80
   8   3  11    6.47    0.83
   8   3  11    8.55    0.76
   8   3  11    5.31    0.75
  -8   3 -11    5.73    0.75
  -8   3 -11    7.54    0.80
  -9  -3 -11   -0.18    0.33
   9   3  11   -0.32    0.29
  -9   3 -11    0.24    0.34
   9   3  11   -0.43    0.29
  -9   3 -11   -0.33    0.27
 -10  -3 -11   10.95    1.07
  10   3  11   11.22    0.96
 -10   3 -11   11.21    1.05
 -10   3 -11   11.05    1.05
  10   3  11    8.54    1.06
  10   4 -11   -0.10    0.32
 -10   4  11   -0.11    0.26
 -10   4  11    0.22    0.34
  10   4 -11   -0.23    0.31
  -9   4  11   13.31    1.15
  -9   4  11   13.64    1.32
   9   4 -11   10.33    1.12
  -9   4  11   14.25    1.17
   9   4 -11   14.43    1.19
   8   4 -11    0.07    0.29
  -8   4  11    0.39    0.40
  -8   4  11    0.22    0.29
   8   4 -11   -0.23    0.31
  -8   4  11    0.06    0.27
   7   4 -11   30.47    2.04
   7   4 -11   29.34    2.08
  -7   4  11   29.70    2.01
  -7   4  11   29.90    2.07
  -7   4  11   26.86    2.22
   6   4 -11    0.13    0.25
   6   4 -11    0.20    0.26
  -6   4  11    0.44    0.27
  -6   4  11   -0.02    0.40
  -6   4  11    0.01    0.23
   5   4 -11   87.20    5.30
  -5   4  11   85.50    5.28
  -5   4  11   87.25    5.50
  -5   4  11   81.23    5.12
   5   4 -11   79.64    5.13
   4   4 -11   -0.31    0.20
  -4   4  11   -0.21    0.21
  -4   4  11   -0.15    0.35
  -4   4  11   -0.08    0.20
   4   4 -11    0.02    0.24
  -3   4  11   30.39    2.18
  -3   4  11   32.94    2.12
  -3   4  11   32.25    2.40
   3   4 -11   34.91    2.13
   3   4 -11   32.40    2.20
  -2   4  11   -0.05    0.19
  -2   4  11    0.09    0.22
  -2   4  11    0.03    0.33
   2   4 -11   -0.23    0.20
   2   4 -11    0.03    0.21
  -1   4  11   56.37    3.81
  -1   4  11   59.47    3.66
   1   4 -11   55.72    3.51
   1   4 -11   55.57    3.61
  -1   4  11   57.65    3.52
   0   4 -11    0.58    0.26
   0   4  11   -0.04    0.21
   0   4 -11    0.05    0.20
   0   4  11    0.14    0.35
   0   4  11   -0.21    0.20
   1   4  11    7.18    0.93
  -1   4 -11    8.49    0.74
   1   4  11    8.45    0.78
   1   4  11    9.03    0.76
  -1   4 -11    8.38    0.74
  -2   4 -11   -0.16    0.20
   2   4  11    0.12    0.34
   2   4  11    0.16    0.24
   2   4  11   -0.25    0.20
  -3   4 -11   51.72    3.24
   3   4  11   51.30    3.27
   3   4  11   50.42    3.37
   3   4  11   54.69    3.46
   4   4  11   -0.07    0.23
  -4   4 -11   -0.06    0.22
   4   4  11    0.24    0.27
   5   4  11    1.80    0.41
  -5   4 -11    1.87    0.41
   5   4  11    1.97    0.44
   6   4  11    0.22    0.29
   6   4  11    0.03    0.25
  -6   4 -11    0.11    0.26
  -6   4 -11    0.07    0.27
  -7   4 -11   31.15    2.05
  -7   4 -11   27.45    2.09
   7   4  11   33.08    2.17
   7   4  11   28.36    2.08
  -8  -4 -11   -0.03    0.31
   8   4  11   -0.02    0.31
  -8   4 -11   -0.01    0.29
  -8   4 -11    0.35    0.35
   8   4  11    0.22    0.34
  -9  -4 -11    1.69    0.51
  -9   4 -11    2.35    0.47
  -9   4 -11    2.19    0.47
   9   4  11    1.72    0.50
   9   4  11    1.47    0.49
  -8   5  11    1.89    0.45
  -8   5  11    1.33    0.57
  -8   5  11    1.71    0.43
   8   5 -11    1.39    0.42
   8   5 -11    1.80    0.48
  -7   5  11   -0.08    0.27
  -7   5  11   -0.22    0.42
   7   5 -11    0.21    0.30
   7   5 -11   -0.13    0.28
  -7   5  11    0.02    0.26
   6   5 -11    0.95    0.37
  -6   5  11    1.69    0.37
  -6   5  11    2.34    0.65
  -6   5  11    3.12    0.48
   6   5 -11    1.14    0.38
  -5   5  11    0.41    0.48
  -5   5  11    0.03    0.24
  -5   5  11   -0.15    0.22
   5   5 -11    0.04    0.26
   5   5 -11   -0.15    0.26
  -4   5  11    0.90    0.49
   4   5 -11    0.65    0.28
   4   5 -11    0.34    0.28
  -4   5  11    0.84    0.29
  -4   5  11    0.22    0.24
   3   5 -11   -0.01    0.20
  -3   5  11    0.23    0.26
   3   5 -11    0.09    0.22
  -3   5  11    0.00    0.21
  -3   5  11    0.21    0.44
  -2   5  11   35.12    2.29
   2   5 -11   38.19    2.37
  -2   5  11   35.91    2.38
  -2   5  11   32.41    2.57
   2   5 -11   34.19    2.28
  -1   5  11    0.05    0.22
  -1   5  11    0.13    0.40
   1   5 -11   -0.08    0.21
  -1   5  11    0.15    0.23
   1   5 -11    0.12    0.24
   0   5 -11  107.75    5.99
   0   5  11   92.42    6.34
   0   5 -11  100.33    6.18
   0   5  11   97.38    5.99
   0   5  11   98.71    6.20
   1   5  11   -0.09    0.25
  -1   5 -11   -0.32    0.18
   1   5  11   -0.79    0.33
   1   5  11   -0.38    0.20
  -1   5 -11    0.21    0.23
   2   5  11   12.51    1.14
   2   5  11   13.07    1.26
   2   5  11   14.24    1.10
  -2   5 -11   16.77    1.11
   3   5  11    0.02    0.25
  -3   5 -11    0.02    0.21
   3   5  11   -0.13    0.25
   3   5  11    0.15    0.34
  -4   5 -11   27.22    1.85
   4   5  11   26.86    1.95
   4   5  11   28.49    1.90
  -5   5 -11   -0.25    0.22
   5   5  11    0.13    0.30
   5   5  11    0.55    0.33
   6   5  11   13.30    1.21
  -6   5 -11   12.23    1.16
  -6   5 -11   16.11    1.17
   6   5  11   16.23    1.21
  -7   5 -11   -0.11    0.28
   7   5  11    0.01    0.32
   7   5  11   -0.39    0.30
  -7   5 -11   -0.12    0.27
   8   5  11    6.67    0.83
   8   5  11    4.94    0.74
  -8   5 -11    5.62    0.76
  -8   5 -11    6.34    0.74
   6   6 -11    0.07    0.27
   6   6 -11    0.05    0.30
  -6   6  11    0.32    0.29
  -6   6  11   -0.09    0.25
  -6   6  11   -0.18    0.41
   5   6 -11    1.23    0.40
   5   6 -11    0.43    0.29
  -5   6  11    0.52    0.30
  -5   6  11    0.09    0.42
  -5   6  11    0.48    0.31
   4   6 -11    0.03    0.24
  -4   6  11   -0.05    0.25
   4   6 -11   -0.44    0.23
  -4   6  11    0.12    0.43
  -4   6  11    0.04    0.22
  -3   6  11   16.91    1.26
  -3   6  11   14.86    1.49
   3   6 -11   16.26    1.20
   3   6 -11   17.39    1.27
  -3   6  11   15.02    1.19
  -2   6  11    0.33    0.42
   2   6 -11   -0.35    0.22
   2   6 -11    0.12    0.23
  -2   6  11    0.12    0.24
  -2   6  11    0.24    0.28
   1   6 -11    4.68    0.56
  -1   6  11    4.60    0.57
  -1   6  11    3.73    0.50
   1   6 -11    2.99    0.47
  -1   6  11    4.24    0.75
   0   6 -11   -0.39    0.19
   0   6 -11   -0.23    0.22
   0   6  11    0.03    0.37
   0   6  11    0.11    0.24
   0   6  11    0.00    0.24
   1   6  11   61.71    3.96
  -1   6 -11   59.92    3.76
   1   6  11   51.71    3.64
   1   6  11   61.54    3.81
  -1   6 -11   61.06    3.64
   2   6  11    0.38    0.40
  -2   6 -11   -0.12    0.20
   2   6  11    0.35    0.27
   2   6  11    0.08    0.30
   3   6  11  111.14    6.92
  -3   6 -11  115.05    6.59
   3   6  11  109.97    6.83
   3   6  11  102.00    6.61
   4   6  11    0.37    0.32
   4   6  11    0.14    0.29
  -4   6 -11    0.11    0.24
   5   6  11   46.47    3.00
  -5   6 -11   48.80    2.98
   5   6  11   43.66    3.08
  -6   6 -11    0.27    0.28
   6   6  11    0.14    0.31
   6   6  11   -0.02    0.30
  -6   6 -11    0.54    0.33
  -3   7  11    0.10    0.46
  -3   7  11    0.17    0.27
   3   7 -11   -0.03    0.30
   3   7 -11    0.36    0.27
  -2   7  11   20.08    1.47
  -2   7  11   20.30    1.55
  -2   7  11   22.58    1.82
   2   7 -11   20.53    1.46
   1   7 -11   -0.37    0.21
  -1   7  11   -0.03    0.38
  -1   7  11    0.15    0.27
  -1   7  11   -0.37    0.20
   0   7  11   69.59    4.33
   0   7 -11   61.76    3.92
   0   7  11   64.50    4.09
   0   7  11   60.59    3.93
  -1   7 -11   -0.08    0.26
   1   7  11    0.17    0.47
   1   7  11   -0.39    0.25
   1   7  11   -0.15    0.25
  -2   7 -11    8.19    0.78
   2   7  11    9.91    0.83
   2   7  11    8.89    0.89
   2   7  11    7.98    1.05
  11   0 -12   -0.02    0.29
 -11   0  12   -0.14    0.31
  10   0 -12    4.20    0.67
 -10   0  12    5.49    0.72
 -10   0  12    4.94    0.75
   9   0 -12    0.00    0.32
  -9   0  12    0.07    0.29
  -9   0  12    0.10    0.31
  -8   0  12   36.70    2.57
   8   0 -12   38.39    2.55
  -8   0  12   38.43    2.56
  -7   0  12    0.10    0.27
   7   0 -12    0.10    0.26
   7   0 -12    0.25    0.29
  -7   0  12    0.14    0.26
  -6   0  12   70.41    4.51
  -6   0  12   70.44    4.46
   6   0 -12   72.55    4.51
   6   0 -12   70.00    4.47
   5   0 -12   -0.12    0.24
   5   0 -12    0.14    0.26
  -5   0  12    0.43    0.27
  -5   0  12   -0.14    0.23
  -4   0  12    1.28    0.38
   4   0 -12    1.48    0.35
  -4   0  12    2.12    0.40
   4   0 -12    1.73    0.35
   3   0 -12   -0.09    0.22
   3   0 -12    0.03    0.24
  -3   0  12    0.23    0.22
  -3   0  12   -0.17    0.21
   2   0 -12    7.08    0.69
  -2   0  12    7.17    0.68
   2   0 -12    7.48    0.68
  -2   0  12    7.13    0.70
   1   0 -12   -0.10    0.21
  -1   0  12    0.40    0.27
   1   0 -12   -0.15    0.20
  -1   0  12   -0.06    0.19
   1   0 -12    0.32    0.23
   0   0  12   30.00    1.95
   0   0 -12   27.58    1.91
   0   0  12   26.25    1.93
   0   0 -12   31.42    1.95
   1   0  12    0.05    0.21
  -1   0 -12   -0.18    0.20
   1   0  12   -0.35    0.18
  -1   0 -12   -0.10    0.21
   2   0  12    8.92    0.82
  -2   0 -12    9.85    0.83
  -2   0 -12   10.68    0.83
   2   0  12    9.60    0.84
  -3   0 -12   -0.51    0.17
   3   0  12   -0.07    0.21
  -3   0 -12    0.13    0.23
   3   0  12   -0.03    0.23
  -4   0 -12  176.31   10.11
   4   0  12  150.85   10.10
  -4   0 -12  158.70   10.02
   4   0  12  175.18   10.04
  -5   0 -12    0.20    0.24
  -5   0 -12    0.03    0.25
   5   0  12   -0.33    0.22
   5   0  12   -0.08    0.26
   6   0  12   35.38    2.36
  -6   0 -12   33.88    2.31
  -7   0 -12   -0.14    0.26
   7   0  12    0.21    0.33
  -8   0 -12  112.40    7.31
   8   0  12  125.78    7.42
   9   0  12   -0.15    0.32
  -9   0 -12   -0.56    0.27
 -10   0 -12    3.48    0.57
  10   0  12    2.56    0.55
 -11  -1  12    5.07    0.71
  11  -1 -12    4.30    0.69
  11   1 -12    4.24    0.66
 -11   1  12    4.11    0.60
 -11   1  12    4.24    0.68
 -10  -1  12   -0.17    0.29
  10  -1 -12    0.12    0.35
  10   1 -12   -0.39    0.31
  10   1 -12   -0.10    0.31
 -10   1  12   -0.06    0.28
 -10   1  12    0.31    0.34
   9  -1 -12   70.74    4.66
  -9  -1  12   71.05    4.66
  -9   1  12   69.99    4.70
   9   1 -12   76.01    4.75
  -9   1  12   72.75    4.61
   9   1 -12   78.55    4.67
  -8  -1  12    0.14    0.28
   8  -1 -12    0.22    0.30
   8   1 -12   -0.22    0.26
   8   1 -12    0.48    0.32
  -8   1  12   -0.44    0.23
  -8   1  12    0.37    0.34
  -7  -1  12    3.92    0.58
   7  -1 -12    3.27    0.53
  -7   1  12    3.70    0.57
   7   1 -12    4.93    0.64
   7   1 -12    4.34    0.56
  -7   1  12    4.03    0.54
  -6  -1  12    0.10    0.27
   6  -1 -12   -0.06    0.26
  -6   1  12    0.35    0.26
  -6   1  12   -0.16    0.23
   6   1 -12   -0.38    0.24
   6   1 -12   -0.02    0.21
  -5  -1  12    2.64    0.48
   5  -1 -12    2.75    0.47
   5   1 -12    3.44    0.49
  -5   1  12    3.76    0.49
   5   1 -12    4.59    0.57
  -5   1  12    3.34    0.50
  -4  -1  12   -0.02    0.21
   4  -1 -12    0.18    0.26
   4   1 -12   -0.21    0.23
  -4   1  12    0.07    0.24
  -4   1  12   -0.09    0.23
   4   1 -12   -0.06    0.22
  -4   1  12    0.23    0.23
   4   1 -12   -0.34    0.21
   3  -1 -12  108.46    6.35
   3  -1 -12  107.14    6.38
  -3  -1  12  103.10    6.35
   3   1 -12  101.93    6.20
  -3   1  12   99.46    6.22
   3   1 -12  104.99    6.32
  -3   1  12   98.15    6.33
  -3   1  12  115.38    6.42
   3   1 -12   99.94    6.39
   3   1 -12   93.96    6.31
   2  -1 -12   -0.27    0.22
  -2  -1  12   -0.11    0.21
   2  -1 -12    0.10    0.24
  -2   1  12   -0.24    0.19
   2   1 -12   -0.07    0.18
   2   1 -12    0.31    0.24
  -2   1  12    0.18    0.26
   2   1 -12   -0.09    0.23
  -2   1  12    0.09    0.22
  -1  -1  12   -0.42    0.17
   1  -1 -12    0.23    0.24
   1  -1 -12   -0.01    0.20
   1   1 -12    0.11    0.20
  -1   1  12    0.08    0.21
  -1   1  12    0.13    0.23
   1   1 -12    0.28    0.24
  -1   1  12   -0.10    0.19
   1   1 -12    0.59    0.26
   0  -1 -12   -0.03    0.22
   0  -1  12    0.19    0.22
   0  -1 -12   -0.11    0.20
   0  -1 -12   -0.13    0.22
   0   1 -12    0.20    0.22
   0   1 -12   -0.11    0.21
   0   1  12   -0.11    0.21
   0   1  12    0.05    0.23
   0   1 -12    0.59    0.25
   0   1  12   -0.17    0.21
  -1  -1 -12   43.93    3.00
  -1  -1 -12   48.47    3.03
   1  -1  12   47.24    3.02
  -1   1 -12   49.29    3.04
   1   1  12   48.02    3.01
  -1   1 -12   46.55    2.98
  -1   1 -12   49.44    2.95
   1   1  12   43.50    3.04
  -2  -1 -12    0.19    0.24
  -2  -1 -12   -0.05    0.24
   2  -1  12   -0.07    0.21
  -2   1 -12   -0.14    0.19
   2   1  12   -0.08    0.22
  -2   1 -12   -0.18    0.21
  -2   1 -12    0.09    0.20
   2   1  12   -0.10    0.21
  -3  -1 -12   19.21    1.28
  -3  -1 -12   16.56    1.24
   3  -1  12   16.51    1.26
  -3   1 -12   18.12    1.21
   3   1  12   15.61    1.24
   3   1  12   17.41    1.29
  -3   1 -12   15.65    1.23
  -3   1 -12   16.10    1.25
  -4  -1 -12   -0.11    0.24
  -4  -1 -12   -0.08    0.23
   4  -1  12   -0.02    0.23
   4   1  12   -0.05    0.23
   4   1  12    0.09    0.25
  -4   1 -12    0.30    0.25
  -4   1 -12    0.41    0.23
   5  -1  12   22.64    1.56
  -5  -1 -12   23.28    1.56
  -5  -1 -12   21.17    1.53
  -5   1 -12   21.08    1.48
   5   1  12   21.24    1.58
   5   1  12   19.98    1.55
  -5   1 -12   19.94    1.50
   6  -1  12    0.25    0.31
  -6  -1 -12    0.13    0.29
  -6  -1 -12   -0.17    0.24
   6   1  12   -0.19    0.28
  -6   1 -12    0.30    0.27
   6   1  12   -0.18    0.26
  -6   1 -12    0.07    0.24
  -7  -1 -12   21.78    1.75
  -7  -1 -12   24.58    1.80
   7  -1  12   27.96    1.83
  -7   1 -12   23.63    1.74
   7   1  12   28.39    1.84
   7   1  12   23.04    1.79
  -7   1 -12   24.12    1.70
  -8  -1 -12   -0.11    0.26
   8  -1  12   -0.10    0.31
  -8   1 -12    0.03    0.27
   8   1  12   -0.22    0.29
   8   1  12   -0.25    0.28
  -9  -1 -12   13.68    1.17
  -9   1 -12   14.44    1.11
   9   1  12   12.75    1.20
 -10  -1 -12    0.17    0.29
  10  -1  12    0.42    0.44
  10   1  12   -0.20    0.33
 -10   1 -12    0.10    0.29
 -10  -2  12    7.91    0.94
  10  -2 -12    7.40    0.94
 -10   2  12    8.83    0.96
  10   2 -12    8.81    0.99
  10   2 -12    8.75    0.84
  -9  -2  12   -0.05    0.30
   9  -2 -12   -0.16    0.33
   9   2 -12   -0.29    0.26
  -9   2  12   -0.21    0.26
  -9   2  12    0.44    0.28
  -9   2  12   -0.17    0.31
   9   2 -12   -0.03    0.30
   8  -2 -12    8.76    0.92
  -8  -2  12    7.47    0.90
  -8   2  12    8.17    0.79
  -8   2  12    9.05    0.89
   8   2 -12   11.51    0.98
  -8   2  12    9.34    0.91
   8   2 -12    9.51    0.85
   7  -2 -12   -0.44    0.25
  -7  -2  12   -0.18    0.27
  -7   2  12    0.10    0.27
   7   2 -12    0.44    0.30
   7   2 -12   -0.04    0.30
  -7   2  12    0.19    0.25
   7   2 -12   -0.24    0.26
  -7   2  12    0.20    0.28
   6  -2 -12  249.73   14.67
  -6  -2  12  257.21   14.70
   6   2 -12  251.08   14.60
  -6   2  12  239.32   14.60
  -6   2  12  252.10   14.79
  -6   2  12  216.52   14.29
   6   2 -12  232.12   14.75
   5  -2 -12   -0.09    0.26
  -5  -2  12    0.23    0.28
   5   2 -12    0.18    0.22
  -5   2  12   -0.04    0.24
   5   2 -12    0.18    0.26
  -5   2  12    0.06    0.23
   5   2 -12    0.08    0.21
   5   2 -12   -0.13    0.22
  -5   2  12   -0.18    0.22
   4  -2 -12   10.13    0.94
  -4  -2  12   11.90    0.98
   4   2 -12   11.09    0.94
  -4   2  12   12.42    0.91
  -4   2  12   12.84    0.98
   4   2 -12   10.70    0.87
   4   2 -12    9.99    0.94
  -4   2  12   11.76    0.95
  -3  -2  12    0.03    0.22
   3  -2 -12   -0.10    0.24
   3   2 -12   -0.03    0.21
  -3   2  12    0.21    0.24
  -3   2  12   -0.24    0.18
   3   2 -12   -0.22    0.18
  -3   2  12    0.13    0.24
   3   2 -12   -0.01    0.22
   2  -2 -12  106.58    6.30
  -2  -2  12   98.83    6.30
  -2   2  12   92.01    6.34
  -2   2  12  107.64    6.15
   2   2 -12  100.18    6.23
  -2   2  12  105.56    6.25
   2   2 -12  111.44    6.15
   2   2 -12   96.56    6.34
   1  -2 -12   -0.02    0.22
  -1  -2  12   -0.10    0.20
  -1   2  12   -0.18    0.22
  -1   2  12    0.05    0.23
   1   2 -12    0.24    0.24
   1   2 -12   -0.26    0.20
  -1   2  12    0.07    0.21
   1   2 -12    0.05    0.18
   0  -2  12    0.59    0.27
   0  -2 -12    0.18    0.24
   0   2  12    0.45    0.26
   0   2  12    0.30    0.22
   0   2 -12    0.32    0.25
   0   2 -12    0.18    0.20
   0   2  12    0.48    0.26
   0   2 -12    0.37    0.24
   1  -2  12   -0.14    0.24
  -1  -2 -12    0.33    0.24
  -1  -2 -12   -0.19    0.20
   1   2  12    0.14    0.21
   1   2  12   -0.06    0.22
  -1   2 -12   -0.49    0.18
  -1   2 -12    0.06    0.16
  -1   2 -12   -0.07    0.18
   1   2  12   -0.12    0.21
   2  -2  12   45.73    2.77
  -2  -2 -12   44.30    2.75
   2   2  12   42.48    2.78
  -2   2 -12   42.53    2.75
   2   2  12   42.77    2.69
   2   2  12   38.91    2.70
  -2   2 -12   42.11    2.67
  -2   2 -12   39.60    2.65
  -3  -2 -12    0.26    0.25
   3  -2  12   -0.23    0.23
  -3   2 -12    0.11    0.18
   3   2  12   -0.19    0.24
  -3   2 -12    0.27    0.25
   3   2  12   -0.17    0.23
   3   2  12    0.39    0.25
   4  -2  12    4.59    0.62
  -4  -2 -12    4.06    0.56
   4   2  12    3.65    0.57
  -4   2 -12    6.39    0.64
  -4   2 -12    4.03    0.46
   4   2  12    4.72    0.58
   4   2  12    3.96    0.56
   5  -2  12    0.23    0.27
  -5  -2 -12   -0.27    0.23
   5   2  12    0.24    0.28
   5   2  12    0.16    0.29
  -5   2 -12    0.11    0.20
   5   2  12   -0.02    0.27
  -5   2 -12    0.15    0.25
   6  -2  12   46.78    2.81
  -6  -2 -12   40.38    2.77
   6   2  12   41.82    2.84
   6   2  12   39.47    2.76
  -6   2 -12   42.06    2.73
  -7  -2 -12   -0.29    0.26
   7  -2  12    0.01    0.30
  -7   2 -12    0.12    0.30
   7   2  12   -0.19    0.27
   7   2  12    0.10    0.30
   8  -2  12    1.92    0.49
  -8  -2 -12    1.38    0.42
   8   2  12    1.44    0.49
  -8   2 -12    1.73    0.43
   8   2  12    1.89    0.46
  -9  -2 -12   -0.34    0.29
   9  -2  12   -0.04    0.33
   9   2  12   -0.12    0.33
   9   2  12    0.04    0.36
  -9   2 -12   -0.02    0.31
 -10  -2 -12   14.51    1.35
  10   2  12   14.80    1.42
  10   2  12   16.87    1.36
 -10   2 -12   19.59    1.40
  10  -3 -12   -0.37    0.33
 -10  -3  12   -0.15    0.34
  10   3 -12   -0.40    0.31
 -10   3  12   -0.26    0.29
 -10   3  12    0.04    0.41
 -10   3  12   -0.06    0.28
   9  -3 -12   62.59    3.89
  -9  -3  12   67.20    3.85
   9   3 -12   55.28    3.72
  -9   3  12   57.06    3.72
   9   3 -12   55.75    3.83
  -9   3  12   52.23    3.79
  -9   3  12   57.54    3.93
  -8  -3  12   -0.02    0.32
   8   3 -12   -0.02    0.30
  -8   3  12   -0.01    0.27
   8   3 -12   -0.08    0.28
  -8   3  12    0.07    0.41
  -8   3  12    0.09    0.26
  -7  -3  12    2.56    0.53
  -7   3  12    3.26    0.53
   7   3 -12    2.62    0.52
  -7   3  12    3.86    0.58
  -7   3  12    3.32    0.66
   7   3 -12    4.24    0.59
  -6  -3  12    0.03    0.27
  -6   3  12    0.04    0.39
  -6   3  12   -0.42    0.21
   6   3 -12   -0.21    0.24
  -6   3  12   -0.15    0.22
   6   3 -12   -0.31    0.24
  -5   3  12    1.91    0.40
   5   3 -12    5.28    0.61
  -5   3  12    1.46    0.36
   5   3 -12    2.43    0.47
  -5   3  12    2.20    0.58
   4   3 -12    0.17    0.23
  -4   3  12    0.16    0.25
  -4   3  12   -0.21    0.33
   4   3 -12    0.02    0.24
  -4   3  12    0.36    0.27
  -3   3  12   82.36    5.64
  -3   3  12   86.52    5.49
   3   3 -12   88.37    5.33
  -3   3  12   86.18    5.32
   3   3 -12   94.63    5.51
   2   3 -12    0.21    0.23
  -2   3  12    0.10    0.24
   2   3 -12   -0.10    0.21
  -2   3  12    0.29    0.25
   1  -3 -12    0.65    0.29
   1   3 -12    0.75    0.28
   1   3 -12    0.27    0.26
  -1   3  12    0.28    0.26
  -1   3  12    0.83    0.28
  -1   3  12    0.01    0.22
  -1   3  12    0.05    0.34
   0  -3 -12    0.19    0.27
   0   3  12    0.14    0.23
   0   3 -12    0.09    0.21
   0   3  12    0.11    0.35
   0   3  12   -0.09    0.21
   0   3 -12    0.13    0.23
   0   3  12    0.15    0.22
  -1  -3 -12   40.60    2.74
  -1  -3 -12   41.92    2.76
   1   3  12   44.70    2.91
   1   3  12   39.34    2.68
   1   3  12   44.02    2.80
  -1   3 -12   41.67    2.76
   1   3  12   42.34    2.68
  -1   3 -12   44.25    2.68
  -2  -3 -12   -0.16    0.22
  -2   3 -12    0.11    0.20
   2   3  12    0.20    0.24
  -2   3 -12   -0.01    0.23
   2   3  12    0.00    0.33
   2   3  12    0.30    0.26
   2   3  12   -0.31    0.22
  -3  -3 -12   16.53    1.24
   3   3  12   15.25    1.20
   3   3  12   15.03    1.31
   3   3  12   16.39    1.17
  -3   3 -12   15.06    1.19
   3   3  12   17.04    1.26
  -4  -3 -12    0.00    0.26
   4   3  12   -0.14    0.22
   4   3  12   -0.26    0.23
  -4   3 -12   -0.33    0.22
   4   3  12    0.03    0.28
  -5  -3 -12   17.56    1.36
  -5   3 -12   21.24    1.37
   5   3  12   16.49    1.29
   5   3  12   16.58    1.39
   5   3  12   17.84    1.37
  -6  -3 -12   -0.43    0.26
   6   3  12   -0.15    0.27
   6   3  12   -0.26    0.31
  -6   3 -12    0.15    0.26
   6   3  12    0.35    0.32
  -7  -3 -12   22.07    1.66
   7   3  12   22.29    1.60
  -7   3 -12   22.35    1.64
   7   3  12   23.08    1.73
   7   3  12   22.47    1.68
  -8  -3 -12    0.10    0.33
  -8   3 -12    0.29    0.32
   8   3  12   -0.06    0.30
   8   3  12    0.02    0.32
  -9  -3 -12   14.81    1.27
  -9   3 -12   13.85    1.21
   9   3  12   14.92    1.18
  -9   3 -12   15.57    1.28
   9   3  12   11.69    1.23
   9   4 -12   -0.23    0.31
   9   4 -12    0.25    0.36
  -9   4  12    0.11    0.28
  -9   4  12    0.16    0.44
  -9   4  12    0.01    0.31
   8   4 -12   21.91    1.70
  -8   4  12   21.66    1.67
   8   4 -12   24.89    1.73
  -8   4  12   23.06    1.65
  -8   4  12   20.04    1.82
  -7   4  12    0.16    0.40
   7   4 -12   -0.05    0.27
  -7   4  12    0.04    0.26
  -7   4  12    0.37    0.31
   7   4 -12   -0.08    0.29
   6   4 -12   57.77    3.56
  -6   4  12   54.90    3.65
  -6   4  12   56.73    3.88
  -6   4  12   56.86    3.56
   6   4 -12   55.17    3.65
  -5   4  12   -0.28    0.23
  -5   4  12    1.10    0.50
   5   4 -12   -0.45    0.24
  -5   4  12   -0.07    0.25
   5   4 -12   -0.19    0.22
   4   4 -12    0.64    0.30
  -4   4  12    0.38    0.27
  -4   4  12    0.47    0.43
   4   4 -12    0.82    0.32
  -4   4  12   -0.06    0.25
  -3   4  12   -0.16    0.38
  -3   4  12   -0.44    0.22
   3   4 -12    0.14    0.24
   3   4 -12   -0.24    0.23
  -3   4  12   -0.06    0.21
  -2   4  12    3.25    0.48
   2   4 -12    2.58    0.43
  -2   4  12    1.83    0.58
  -2   4  12    2.78    0.45
   2   4 -12    2.65    0.42
   1   4 -12    0.11    0.23
  -1   4  12    0.08    0.25
  -1   4  12   -0.39    0.20
  -1   4  12   -0.11    0.34
   1   4 -12   -0.07    0.24
   0   4 -12   19.80    1.40
   0   4  12   18.69    1.42
   0   4 -12   20.04    1.36
   0   4  12   19.23    1.60
   0   4  12   17.20    1.34
   1   4  12    0.08    0.23
   1   4  12   -0.14    0.22
   1   4  12   -0.02    0.37
  -1   4 -12    0.32    0.24
  -1   4 -12    0.13    0.23
  -2   4 -12    5.18    0.61
   2   4  12    4.09    0.70
   2   4  12    5.22    0.61
   2   4  12    4.88    0.60
  -2   4 -12    4.54    0.59
   3   4  12   -0.11    0.25
   3   4  12   -0.48    0.20
   3   4  12   -0.11    0.34
  -3   4 -12    0.07    0.24
  -4   4 -12  118.81    7.10
   4   4  12  109.79    7.36
   4   4  12  125.71    7.14
   5   4  12   -0.05    0.29
  -5   4 -12   -0.16    0.25
   5   4  12    0.21    0.31
   6   4  12   22.89    1.86
   6   4  12   27.84    1.87
  -6   4 -12   26.44    1.83
  -7  -4 -12    0.43    0.34
  -7   4 -12   -0.12    0.27
   7   4  12   -0.08    0.34
   7   4  12   -0.05    0.31
  -8  -4 -12   84.19    5.63
  -8   4 -12   91.77    5.51
   8   4  12   94.75    5.58
   8   4  12   84.44    5.71
  -8   4 -12   91.49    5.70
   7   5 -12    2.48    0.51
  -7   5  12    4.66    0.84
  -7   5  12    3.32    0.55
  -7   5  12    3.54    0.55
   7   5 -12    2.45    0.52
  -6   5  12    0.07    0.27
  -6   5  12   -0.26    0.23
   6   5 -12   -0.25    0.24
   6   5 -12   -0.27    0.24
  -6   5  12    0.17    0.40
  -5   5  12    1.79    0.61
   5   5 -12    3.58    0.55
  -5   5  12    2.39    0.46
  -5   5  12    2.56    0.46
   5   5 -12    2.68    0.49
   4   5 -12   -0.05    0.25
  -4   5  12   -0.36    0.25
  -4   5  12    0.35    0.25
  -4   5  12   -0.09    0.41
   4   5 -12   -0.19    0.23
   3   5 -12   60.44    3.81
  -3   5  12   65.88    3.83
  -3   5  12   57.82    4.04
  -3   5  12   53.65    3.66
   3   5 -12   57.78    3.68
  -2   5  12   -0.25    0.24
  -2   5  12    0.13    0.43
   2   5 -12    0.00    0.22
  -2   5  12   -0.16    0.21
   2   5 -12    0.28    0.25
  -1   5  12    0.12    0.41
   1   5 -12   -0.12    0.23
  -1   5  12   -0.01    0.22
   1   5 -12    0.08    0.27
  -1   5  12    0.03    0.24
   0   5  12    0.22    0.41
   0   5  12    0.53    0.28
   0   5  12    0.18    0.25
   0   5 -12    0.01    0.26
   0   5 -12    0.36    0.27
   1   5  12   29.70    2.20
  -1   5 -12   28.65    1.92
   1   5  12   27.89    2.02
   1   5  12   30.59    1.96
  -1   5 -12   27.96    1.99
   2   5  12    0.62    0.39
  -2   5 -12   -0.18    0.24
   2   5  12   -0.16    0.25
  -2   5 -12   -0.01    0.25
   2   5  12    0.29    0.27
   3   5  12   11.14    0.97
   3   5  12   12.53    1.17
  -3   5 -12   11.23    0.96
   3   5  12   10.55    1.01
   4   5  12    0.28    0.31
   4   5  12    0.22    0.28
  -4   5 -12    0.19    0.27
   5   5  12   13.00    1.18
  -5   5 -12   16.06    1.15
   5   5  12   12.24    1.14
   6   5  12   -0.14    0.30
   6   5  12   -0.07    0.34
  -6   5 -12   -0.21    0.27
   7   5  12   17.61    1.43
  -7   5 -12   15.46    1.33
   7   5  12   17.51    1.39
  -5   6  12    0.13    0.48
   5   6 -12   -0.01    0.27
  -5   6  12   -0.11    0.24
  -5   6  12    0.09    0.27
   5   6 -12    0.13    0.29
  -4   6  12    4.68    0.88
   4   6 -12    4.37    0.61
  -4   6  12    4.96    0.63
  -4   6  12    4.28    0.59
   4   6 -12    5.91    0.67
  -3   6  12   -0.07    0.24
  -3   6  12   -0.17    0.45
   3   6 -12   -0.35    0.20
   3   6 -12    0.07    0.28
  -3   6  12    0.43    0.29
  -2   6  12   45.34    2.88
   2   6 -12   45.77    2.86
  -2   6  12   43.84    2.99
   2   6 -12   45.95    2.96
  -2   6  12   44.01    3.23
  -1   6  12    0.63    0.43
   1   6 -12   -0.07    0.21
  -1   6  12   -0.04    0.23
   1   6 -12    0.02    0.26
  -1   6  12    0.21    0.28
   0   6  12    1.07    0.33
   0   6  12    0.53    0.46
   0   6 -12    0.97    0.33
   0   6  12    0.88    0.35
   0   6 -12    0.48    0.29
   1   6  12   -0.07    0.25
   1   6  12    0.07    0.40
   1   6  12    0.18    0.29
  -1   6 -12    0.29    0.26
  -1   6 -12   -0.48    0.26
   2   6  12   16.21    1.29
  -2   6 -12   17.58    1.28
   2   6  12   17.06    1.37
   2   6  12   17.93    1.51
  -2   6 -12   17.21    1.31
   3   6  12    0.70    0.43
  -3   6 -12   -0.05    0.24
   3   6  12    0.14    0.27
   3   6  12    0.01    0.27
   4   6  12    5.67    0.70
  -4   6 -12    5.26    0.65
   4   6  12    4.70    0.67
 -10   0  13    0.00    0.30
  10   0 -13    0.23    0.36
   9   0 -13    0.33    0.34
  -9   0  13    0.42    0.31
  -8   0  13    0.10    0.32
   8   0 -13    0.33    0.31
  -8   0  13    0.10    0.29
  -7   0  13   21.49    1.59
   7   0 -13   22.07    1.61
  -7   0  13   21.35    1.64
   6   0 -13   -0.17    0.26
   6   0 -13    0.04    0.28
  -6   0  13    0.03    0.28
  -6   0  13    0.16    0.29
   5   0 -13   20.83    1.55
   5   0 -13   22.06    1.60
  -5   0  13   20.26    1.58
  -5   0  13   23.56    1.59
   4   0 -13   -0.29    0.24
   4   0 -13   -0.01    0.24
  -4   0  13   -0.29    0.20
  -4   0  13   -0.25    0.24
   3   0 -13   15.48    1.16
   3   0 -13   14.35    1.17
  -3   0  13   14.06    1.14
  -3   0  13   15.58    1.18
   2   0 -13   -0.11    0.21
  -2   0  13    0.07    0.25
  -2   0  13    0.04    0.24
   2   0 -13    0.37    0.26
   2   0 -13   -0.15    0.22
  -1   0  13   31.38    2.22
   1   0 -13   35.86    2.24
   1   0 -13   33.91    2.19
   1   0 -13   31.80    2.19
  -1   0  13   32.19    2.20
   0   0  13    0.01    0.23
   0   0  13   -0.05    0.23
   0   0 -13   -0.26    0.19
   0   0 -13   -0.14    0.22
   1   0  13  169.28    9.85
  -1   0 -13  159.55    9.90
   1   0  13  167.19    9.91
  -1   0 -13  151.14    9.82
   2   0  13    0.04    0.27
  -2   0 -13    0.19    0.25
   2   0  13   -0.28    0.21
  -2   0 -13    0.07    0.24
  -3   0 -13    8.79    0.78
   3   0  13    7.78    0.78
  -3   0 -13    6.75    0.73
   3   0  13    8.38    0.79
  -4   0 -13   -0.08    0.23
  -4   0 -13   -0.31    0.24
   4   0  13    0.00    0.24
  -5   0 -13   48.38    3.12
   5   0  13   44.92    3.10
  -5   0 -13   49.21    3.08
   6   0  13    0.28    0.32
  -6   0 -13    0.23    0.27
  -6   0 -13    0.21    0.28
   7   0  13   62.67    4.09
  -7   0 -13   63.57    4.02
  -8   0 -13   -0.09    0.27
   8   0  13   -0.04    0.33
  -9   0 -13   17.50    1.33
   9   0  13   14.82    1.36
  10   0  13    0.25    0.41
 -10   0 -13    0.19    0.31
  10  -1 -13    7.44    0.90
 -10  -1  13    8.93    1.00
 -10   1  13    8.62    0.98
 -10   1  13    8.74    0.87
  10   1 -13    8.75    0.95
  -9  -1  13    0.31    0.33
   9  -1 -13   -0.04    0.34
   9   1 -13    0.29    0.35
   9   1 -13    0.43    0.34
  -9   1  13   -0.26    0.26
  -9   1  13    0.37    0.32
   8  -1 -13    7.56    0.85
  -8  -1  13    6.16    0.82
   8   1 -13    6.82    0.78
  -8   1  13    7.35    0.88
  -8   1  13    7.95    0.77
   8   1 -13    7.83    0.89
  -7  -1  13   -0.12    0.29
   7  -1 -13    0.21    0.31
   7   1 -13   -0.08    0.28
   7   1 -13    0.11    0.28
  -7   1  13    0.39    0.29
  -7   1  13    0.06    0.31
   6  -1 -13    0.20    0.31
  -6  -1  13    0.38    0.30
  -6   1  13    0.89    0.35
  -6   1  13    0.49    0.31
   6   1 -13    0.58    0.34
   6   1 -13    0.54    0.30
   5  -1 -13    0.07    0.28
  -5  -1  13    0.40    0.28
   5   1 -13    0.26    0.29
   5   1 -13   -0.01    0.24
  -5   1  13    0.27    0.29
  -5   1  13    0.32    0.26
  -4  -1  13    2.35    0.46
   4  -1 -13    1.59    0.38
  -4   1  13    1.84    0.41
  -4   1  13    1.49    0.35
   4   1 -13    2.12    0.39
   4   1 -13    1.51    0.40
  -3  -1  13    0.76    0.29
   3  -1 -13    0.04    0.25
  -3   1  13   -0.32    0.23
   3   1 -13    0.26    0.24
  -3   1  13    0.44    0.27
   3   1 -13   -0.19    0.20
   3   1 -13    0.18    0.27
  -2  -1  13   91.53    5.92
   2  -1 -13   90.77    5.93
  -2   1  13   98.06    5.93
  -2   1  13  102.94    6.01
   2   1 -13   91.26    5.78
   2   1 -13   97.10    5.89
   2   1 -13   98.91    5.98
   1  -1 -13    0.06    0.23
   1  -1 -13    0.03    0.24
  -1  -1  13   -0.27    0.21
   1  -1 -13    0.26    0.27
  -1   1  13   -0.07    0.24
   1   1 -13   -0.23    0.21
   1   1 -13    0.40    0.28
  -1   1  13   -0.16    0.22
   1   1 -13    0.08    0.25
   0  -1 -13    0.77    0.30
   0  -1 -13    0.53    0.30
   0  -1 -13    1.29    0.33
   0  -1  13    0.99    0.31
   0   1 -13    0.85    0.31
   0   1 -13    0.38    0.24
   0   1 -13    1.24    0.33
   0   1  13    0.93    0.30
   0   1  13    1.00    0.34
  -1  -1 -13    0.13    0.24
  -1  -1 -13    0.34    0.26
   1  -1  13   -0.16    0.22
  -1   1 -13   -0.28    0.22
   1   1  13   -0.40    0.19
  -1   1 -13   -0.04    0.21
  -1   1 -13   -0.35    0.19
   1   1  13   -0.14    0.22
   2  -1  13   49.20    3.28
  -2  -1 -13   53.04    3.28
  -2  -1 -13   52.36    3.29
   2   1  13   51.42    3.25
  -2   1 -13   50.01    3.19
  -2   1 -13   52.72    3.30
   2   1  13   49.03    3.31
  -2   1 -13   49.43    3.22
  -3  -1 -13   -0.09    0.24
   3  -1  13   -0.06    0.25
  -3  -1 -13   -0.04    0.25
   3   1  13    0.01    0.26
   3   1  13    0.27    0.26
  -3   1 -13   -0.05    0.21
  -3   1 -13   -0.16    0.20
  -3   1 -13   -0.33    0.24
  -4  -1 -13    2.97    0.49
  -4  -1 -13    2.58    0.47
   4  -1  13    2.92    0.51
  -4   1 -13    2.79    0.48
   4   1  13    3.66    0.54
  -4   1 -13    4.64    0.52
  -4   1 -13    3.67    0.53
   4   1  13    4.15    0.58
   5  -1  13    0.00    0.26
  -5  -1 -13    0.01    0.28
  -5  -1 -13    0.12    0.23
  -5   1 -13   -0.37    0.24
   5   1  13    0.08    0.27
   5   1  13   -0.13    0.26
  -5   1 -13   -0.16    0.24
  -6  -1 -13    8.40    0.89
   6  -1  13   12.49    1.01
   6   1  13   10.86    0.97
   6   1  13    8.85    0.93
  -6   1 -13    9.83    0.87
  -7  -1 -13   -0.28    0.27
   7  -1  13   -0.04    0.33
   7   1  13   -0.03    0.32
   7   1  13   -0.04    0.29
  -7   1 -13    0.13    0.25
   8  -1  13    0.13    0.33
  -8  -1 -13   -0.14    0.28
   8   1  13    0.76    0.38
  -8   1 -13    0.19    0.28
   9  -1  13    0.06    0.37
  -9  -1 -13   -0.53    0.26
   9   1  13    0.17    0.36
  -9   1 -13   -0.07    0.28
  10  -2 -13    0.08    0.38
 -10  -2  13    0.12    0.37
 -10   2  13   -0.62    0.28
  10   2 -13   -0.24    0.27
 -10   2  13   -0.44    0.44
  10   2 -13    0.78    0.38
   9  -2 -13   73.38    4.58
  -9  -2  13   66.02    4.55
   9   2 -13   77.50    4.52
  -9   2  13   73.71    4.47
  -9   2  13   63.94    4.59
   9   2 -13   70.28    4.62
  -8  -2  13    0.25    0.33
   8  -2 -13   -0.12    0.31
  -8   2  13   -0.47    0.28
  -8   2  13   -0.42    0.26
   8   2 -13    0.41    0.31
   8   2 -13   -0.28    0.30
  -7  -2  13    1.22    0.43
   7  -2 -13    0.36    0.35
  -7   2  13    0.83    0.36
   7   2 -13    0.04    0.32
   7   2 -13    0.47    0.31
  -7   2  13    0.85    0.35
  -7   2  13    1.10    0.34
   6  -2 -13   -0.25    0.26
  -6  -2  13    0.20    0.30
  -6   2  13   -0.21    0.29
  -6   2  13   -0.08    0.23
   6   2 -13    0.27    0.24
   6   2 -13   -0.10    0.26
   6   2 -13   -0.64    0.24
   6   2 -13    0.50    0.26
  -6   2  13   -0.37    0.25
  -5  -2  13  117.68    7.39
   5  -2 -13  120.84    7.37
  -5   2  13  130.29    7.44
  -5   2  13  112.60    7.18
   5   2 -13  123.21    7.20
   5   2 -13  113.30    7.27
   5   2 -13  122.21    7.27
   5   2 -13  116.23    7.40
  -5   2  13  117.31    7.30
   4  -2 -13   -0.05    0.26
  -4  -2  13    0.08    0.28
  -4   2  13   -0.10    0.22
  -4   2  13   -0.12    0.22
   4   2 -13   -0.06    0.24
   4   2 -13   -0.28    0.24
  -4   2  13    0.26    0.30
   4   2 -13    0.07    0.23
  -3  -2  13   54.58    3.23
   3  -2 -13   45.84    3.18
   3   2 -13   53.07    3.23
  -3   2  13   43.87    3.21
   3   2 -13   45.88    3.11
   3   2 -13   53.71    3.14
  -3   2  13   50.13    3.15
  -2  -2  13    0.15    0.24
   2  -2 -13   -0.04    0.25
  -2   2  13    0.17    0.24
   2   2 -13   -0.14    0.22
   2   2 -13   -0.32    0.22
  -2   2  13   -0.28    0.23
  -2   2  13   -0.06    0.22
   2   2 -13   -0.17    0.18
  -1  -2  13   18.85    1.47
   1  -2 -13   20.89    1.50
   1   2 -13   20.23    1.39
  -1   2  13   19.15    1.43
  -1   2  13   21.40    1.46
   1   2 -13   20.32    1.48
   1   2 -13   20.56    1.45
  -1   2  13   21.92    1.52
   0  -2 -13   -0.33    0.21
   0  -2  13    0.00    0.24
   0  -2 -13    0.14    0.25
   0   2  13    0.03    0.24
   0   2 -13    0.09    0.20
   0   2  13   -0.04    0.23
   0   2 -13   -0.09    0.23
   0   2  13    0.04    0.25
   0   2 -13   -0.26    0.23
  -1  -2 -13    3.76    0.52
   1  -2  13    3.03    0.47
   1   2  13    3.33    0.48
   1   2  13    3.55    0.54
  -1   2 -13    2.70    0.46
   1   2  13    3.83    0.53
  -1   2 -13    3.45    0.49
  -1   2 -13    3.22    0.40
  -2  -2 -13    0.02    0.25
   2  -2  13   -0.45    0.24
  -2   2 -13   -0.35    0.18
   2   2  13    0.03    0.22
  -2   2 -13    0.13    0.23
  -2   2 -13   -0.08    0.24
   2   2  13   -0.14    0.22
   2   2  13   -0.08    0.22
  -3  -2 -13   37.39    2.35
   3  -2  13   36.01    2.35
   3   2  13   33.33    2.35
   3   2  13   29.32    2.27
  -3   2 -13   30.04    2.29
   3   2  13   38.62    2.31
  -3   2 -13   35.01    2.21
  -3   2 -13   37.45    2.29
   4  -2  13   -0.13    0.28
  -4  -2 -13   -0.02    0.25
   4   2  13   -0.48    0.22
  -4   2 -13   -0.12    0.20
   4   2  13   -0.21    0.26
  -4   2 -13   -0.25    0.23
  -5  -2 -13    8.32    0.88
   5  -2  13    9.15    0.89
   5   2  13    9.97    0.94
   5   2  13    8.71    0.87
  -5   2 -13    9.24    0.87
   6  -2  13   -0.26    0.28
  -6  -2 -13    0.26    0.31
  -6   2 -13    0.10    0.29
   6   2  13    0.10    0.30
   6   2  13    0.39    0.32
   7  -2  13    6.83    0.85
  -7  -2 -13    6.64    0.81
   7   2  13    6.78    0.81
  -7   2 -13    9.16    0.89
   7   2  13    6.63    0.86
  -8  -2 -13    0.27    0.32
   8  -2  13   -0.12    0.32
  -8   2 -13   -0.20    0.28
   8   2  13   -0.15    0.33
   8   2  13    0.02    0.35
   9  -2  13    1.07    0.44
  -9  -2 -13    0.90    0.41
  -9   2 -13    0.39    0.35
   9   2  13    0.38    0.41
   9   2  13    0.67    0.41
   9  -3 -13   -0.13    0.36
  -9  -3  13   -0.04    0.34
   9   3 -13    0.23    0.35
  -9   3  13   -0.22    0.30
  -9   3  13    0.17    0.30
  -9   3  13   -0.43    0.38
   8  -3 -13    6.04    0.78
  -8  -3  13    4.45    0.70
  -8   3  13    5.18    0.85
   8   3 -13    5.85    0.77
  -8   3  13    7.64    0.82
   8   3 -13    5.95    0.78
  -8   3  13    5.46    0.73
   7  -3 -13    0.15    0.34
  -7  -3  13    0.21    0.34
   7   3 -13   -0.25    0.30
  -7   3  13    0.18    0.29
  -7   3  13    0.24    0.29
  -7   3  13    0.39    0.46
   7   3 -13   -0.05    0.30
  -6  -3  13    0.79    0.37
   6  -3 -13    0.31    0.34
   6   3 -13    0.70    0.36
  -6   3  13    0.28    0.28
  -6   3  13    1.07    0.36
   6   3 -13    1.12    0.38
  -6   3  13    0.66    0.48
   5  -3 -13    0.00    0.30
  -5  -3  13    0.21    0.30
  -5   3  13    0.13    0.28
  -5   3  13    0.23    0.45
   5   3 -13   -0.06    0.27
  -5   3  13    0.12    0.28
   5   3 -13   -0.40    0.23
   4  -3 -13    2.64    0.48
   4   3 -13    1.09    0.37
  -4   3  13    0.60    0.44
  -4   3  13    1.60    0.39
   4   3 -13    1.81    0.42
  -4   3  13    1.58    0.38
   3  -3 -13    0.03    0.28
  -3   3  13    0.17    0.25
  -3   3  13    0.05    0.24
   3   3 -13   -0.13    0.24
   3   3 -13    0.15    0.25
   2  -3 -13   92.55    5.46
   2   3 -13   91.48    5.31
  -2   3  13   82.51    5.31
  -2   3  13   85.74    5.50
   2   3 -13   84.81    5.49
   1  -3 -13   -0.24    0.27
  -1   3  13    0.14    0.38
  -1   3  13   -0.22    0.21
  -1   3  13   -0.48    0.20
   1   3 -13    0.12    0.25
   1   3 -13    0.02    0.24
   0  -3 -13    1.01    0.34
   0   3 -13    0.43    0.28
   0   3  13    1.92    0.52
   0   3  13    1.19    0.37
   0   3 -13    1.16    0.35
   0   3  13    0.74    0.28
   0   3  13    1.27    0.36
  -1  -3 -13    0.03    0.29
  -1  -3 -13   -0.03    0.25
   1   3  13    0.14    0.36
  -1   3 -13    0.16    0.25
   1   3  13   -0.56    0.21
  -1   3 -13    0.31    0.25
   1   3  13    0.16    0.25
   1   3  13    0.02    0.24
  -2  -3 -13   42.40    2.86
  -2   3 -13   47.11    2.80
   2   3  13   45.39    2.91
   2   3  13   43.98    2.81
  -2   3 -13   40.93    2.86
   2   3  13   42.60    2.79
   2   3  13   43.22    2.99
  -3  -3 -13    0.26    0.29
   3   3  13   -0.27    0.33
   3   3  13    0.19    0.29
  -3   3 -13    0.57    0.30
  -3   3 -13   -0.07    0.23
   3   3  13   -0.42    0.25
   3   3  13    0.21    0.29
  -4  -3 -13    2.71    0.50
   4   3  13    3.21    0.56
  -4   3 -13    2.66    0.48
   4   3  13    2.19    0.48
   4   3  13    3.37    0.48
  -5  -3 -13    0.17    0.31
   5   3  13    0.44    0.31
   5   3  13   -0.02    0.29
  -5   3 -13   -0.22    0.26
   5   3  13   -0.25    0.27
  -6  -3 -13    7.82    0.89
   6   3  13    7.12    0.83
  -6   3 -13    8.50    0.84
   6   3  13    9.85    0.93
   6   3  13    6.87    0.79
  -7  -3 -13    0.02    0.30
  -7   3 -13   -0.26    0.27
   7   3  13   -0.23    0.32
   7   3  13   -0.38    0.28
  -8  -3 -13    0.44    0.37
   8   3  13    0.02    0.33
  -8   3 -13   -0.17    0.29
   8   3  13    0.22    0.33
  -8   4  13    0.61    0.34
  -8   4  13    0.07    0.41
  -8   4  13   -0.16    0.26
   8   4 -13   -0.01    0.39
   8   4 -13   -0.39    0.29
  -7   4  13   12.55    1.43
  -7   4  13   13.17    1.16
  -7   4  13   14.26    1.17
   7   4 -13   14.33    1.20
   7   4 -13   13.14    1.19
   6   4 -13    0.17    0.30
  -6   4  13   -0.37    0.25
   6   4 -13   -0.17    0.29
  -6   4  13   -0.13    0.25
  -6   4  13   -0.04    0.41
  -5   4  13   21.05    1.44
  -5   4  13   18.79    1.70
   5   4 -13   20.31    1.46
   5   4 -13   15.37    1.42
  -5   4  13   19.35    1.44
  -4   4  13   -0.10    0.26
  -4   4  13   -0.10    0.26
   4   4 -13    0.17    0.26
  -4   4  13   -0.30    0.38
   4   4 -13    0.21    0.27
  -3   4  13    7.93    0.79
   3   4 -13    8.42    0.81
   3   4 -13    8.33    0.83
  -3   4  13    8.82    0.84
  -3   4  13    9.31    1.13
   2   4 -13    0.16    0.26
  -2   4  13    0.04    0.26
  -2   4  13    0.01    0.44
  -2   4  13    0.14    0.28
   2   4 -13   -0.03    0.24
  -1   4  13   24.63    1.77
   1   4 -13   25.01    1.77
  -1   4  13   26.40    2.04
  -1   4  13   26.40    1.84
   1   4 -13   26.35    1.84
   0   4  13   -0.22    0.20
   0   4 -13    0.03    0.24
   0   4 -13   -0.12    0.25
   0   4  13   -0.16    0.35
   0   4  13    0.06    0.24
  -1   4 -13  100.18    6.41
   1   4  13  102.09    6.65
   1   4  13  103.16    6.77
  -1   4 -13  115.56    6.66
   1   4  13  111.77    6.46
   2   4  13    0.07    0.27
  -2   4 -13   -0.14    0.23
   2   4  13   -0.04    0.27
   2   4  13   -0.41    0.32
  -2   4 -13   -0.15    0.27
  -3   4 -13    4.86    0.62
   3   4  13    4.15    0.58
   3   4  13    3.40    0.68
   3   4  13    3.97    0.61
  -4   4 -13    0.05    0.27
   4   4  13    0.30    0.30
   4   4  13   -0.04    0.29
   5   4  13   37.81    2.48
   5   4  13   36.05    2.56
  -5   4 -13   36.44    2.45
  -6  -4 -13   -0.38    0.33
  -6   4 -13   -0.28    0.25
   6   4  13    0.23    0.36
   6   4  13   -0.19    0.28
  -7  -4 -13   47.17    2.90
   7   4  13   42.87    2.86
   7   4  13   40.93    2.93
  -7   4 -13   38.36    2.78
   6   5 -13    0.34    0.34
  -6   5  13   -0.24    0.24
   6   5 -13    0.46    0.34
  -6   5  13    0.14    0.31
  -6   5  13   -0.17    0.43
   5   5 -13   -0.05    0.27
  -5   5  13    0.01    0.30
  -5   5  13   -0.25    0.43
  -5   5  13   -0.08    0.26
   5   5 -13   -0.06    0.25
   4   5 -13    0.39    0.31
  -4   5  13    1.15    0.56
  -4   5  13    1.25    0.35
  -4   5  13    1.33    0.39
   4   5 -13    1.01    0.34
   3   5 -13   -0.19    0.22
  -3   5  13    0.01    0.24
   3   5 -13   -0.15    0.28
  -3   5  13    0.13    0.26
  -3   5  13    0.12    0.42
  -2   5  13   54.15    3.75
   2   5 -13   64.41    3.90
  -2   5  13   62.33    3.90
   2   5 -13   59.10    3.75
  -2   5  13   62.84    4.15
  -1   5  13    0.03    0.25
  -1   5  13   -0.36    0.27
  -1   5  13    0.22    0.45
   1   5 -13   -0.05    0.27
   1   5 -13    0.12    0.25
   0   5 -13    0.75    0.31
   0   5  13    0.59    0.31
   0   5  13    0.12    0.43
   0   5 -13    0.88    0.33
   0   5  13    0.59    0.29
  -1   5 -13   -0.03    0.23
  -1   5 -13   -0.15    0.25
   1   5  13    0.26    0.42
   1   5  13   -0.02    0.26
   1   5  13    0.00    0.28
  -2   5 -13   35.07    2.38
   2   5  13   32.18    2.40
   2   5  13   34.10    2.32
  -2   5 -13   35.11    2.29
   2   5  13   39.33    2.60
  -3   5 -13   -0.16    0.25
   3   5  13    0.20    0.38
   3   5  13   -0.34    0.26
   3   5  13    0.22    0.31
   4   5  13    2.51    0.53
   4   5  13    2.95    0.49
  -4   5 -13    1.87    0.45
  -5   5 -13    0.53    0.32
   5   5  13    0.55    0.35
   5   5  13    0.21    0.32
  -3   6  13   17.20    1.75
   3   6 -13   20.95    1.54
   3   6 -13   20.09    1.48
  -3   6  13   21.81    1.49
  -3   6  13   19.81    1.55
  -2   6  13   -0.03    0.29
  -2   6  13    0.26    0.25
   2   6 -13   -0.11    0.24
  -2   6  13    0.43    0.44
   2   6 -13   -0.23    0.25
   1   6 -13   13.15    1.10
  -1   6  13   15.26    1.44
  -1   6  13   12.62    1.10
   1   6 -13   13.80    1.15
  -1   6  13   14.05    1.18
   0   6 -13    0.40    0.30
   0   6  13   -0.33    0.24
   0   6  13    0.29    0.26
   0   6  13   -0.04    0.41
   0   6 -13    0.17    0.29
  -1   6 -13    5.88    0.65
   1   6  13    4.36    0.60
   1   6  13    3.17    0.57
   1   6  13    4.65    0.79
  -1   6 -13    4.78    0.63
   2   6  13   -0.17    0.26
   2   6  13   -0.17    0.26
  -2   6 -13   -0.15    0.24
   2   6  13    0.01    0.39
  -2   6 -13   -0.15    0.28
   9   0 -14    0.28    0.37
  -9   0  14    0.04    0.31
   8   0 -14   71.58    4.69
  -8   0  14   75.37    4.69
   7   0 -14   -0.40    0.24
  -7   0  14    0.09    0.31
  -6   0  14   73.16    4.57
  -6   0  14   67.35    4.61
   6   0 -14   75.34    4.58
   5   0 -14    0.07    0.28
   5   0 -14    0.34    0.33
  -5   0  14   -0.23    0.24
  -5   0  14   -0.07    0.27
  -4   0  14   75.12    4.85
   4   0 -14   75.61    4.85
   4   0 -14   80.35    4.89
  -4   0  14   77.34    4.91
  -3   0  14    0.18    0.27
  -3   0  14   -0.01    0.26
   3   0 -14    0.05    0.27
   3   0 -14    0.36    0.27
   2   0 -14    0.14    0.27
   2   0 -14    0.12    0.25
  -2   0  14    0.04    0.27
   2   0 -14    0.85    0.32
  -2   0  14    0.11    0.26
  -1   0  14    0.23    0.25
   1   0 -14    0.06    0.26
  -1   0  14   -0.09    0.24
   1   0 -14    0.09    0.24
   0   0 -14   12.32    1.01
   0   0  14   11.03    0.99
   0   0  14   11.58    0.99
   0   0 -14   11.44    0.97
  -1   0 -14   -0.36    0.19
  -1   0 -14   -0.22    0.21
   1   0  14   -0.28    0.24
   1   0  14    0.04    0.29
  -2   0 -14   23.96    1.71
   2   0  14   27.60    1.76
  -2   0 -14   22.48    1.74
  -3   0 -14    0.19    0.27
   3   0  14   -0.04    0.27
  -3   0 -14    0.00    0.26
  -4   0 -14  102.37    6.06
   4   0  14   93.96    6.08
  -4   0 -14   97.22    6.12
  -5   0 -14   -0.34    0.25
   5   0  14    0.32    0.32
  -5   0 -14    0.19    0.31
  -6   0 -14    0.41    0.32
  -6   0 -14    1.95    0.46
   6   0  14    0.67    0.40
  -7   0 -14   -0.07    0.26
   7   0  14   -0.25    0.32
  -7   0 -14   -0.31    0.29
   8   0  14   36.77    2.62
  -8   0 -14   36.40    2.54
  -8   0 -14   39.53    2.60
  -9   0 -14    0.33    0.36
   9   0  14   -0.14    0.33
   9  -1 -14    3.25    0.59
  -9  -1  14    3.71    0.62
  -9   1  14    4.33    0.61
  -9   1  14    4.33    0.67
   9   1 -14    3.19    0.65
   9   1 -14    4.11    0.62
   8  -1 -14    0.04    0.32
  -8  -1  14    0.09    0.31
   8   1 -14   -0.46    0.27
   8   1 -14    0.25    0.34
  -8   1  14    0.25    0.33
  -8   1  14   -0.09    0.27
  -7  -1  14    5.69    0.77
   7  -1 -14    5.35    0.72
   7   1 -14    5.81    0.71
  -7   1  14    6.04    0.72
   7   1 -14    5.94    0.77
  -7   1  14    6.61    0.80
   6  -1 -14    0.26    0.31
  -6  -1  14   -0.02    0.27
  -6   1  14    0.28    0.29
  -6   1  14   -0.16    0.26
   6   1 -14    0.10    0.28
   6   1 -14    0.04    0.32
  -5  -1  14   17.61    1.43
   5  -1 -14   19.76    1.45
   5   1 -14   21.43    1.42
  -5   1  14   16.69    1.39
  -5   1  14   18.68    1.48
   5   1 -14   19.94    1.46
  -4  -1  14    0.40    0.32
   4  -1 -14   -0.14    0.29
  -4   1  14    0.00    0.27
   4   1 -14   -0.04    0.22
   4   1 -14   -0.54    0.21
  -4   1  14   -0.18    0.26
   4   1 -14   -0.17    0.24
  -3  -1  14   28.79    1.96
   3  -1 -14   28.93    1.98
   3   1 -14   27.77    1.91
  -3   1  14   25.83    1.93
   3   1 -14   30.32    1.99
  -3   1  14   27.16    1.98
  -2  -1  14   -0.23    0.24
   2  -1 -14    0.04    0.28
  -2   1  14   -0.07    0.28
  -2   1  14    0.01    0.23
   2   1 -14   -0.08    0.21
   2   1 -14   -0.23    0.23
   1  -1 -14    5.47    0.66
   1  -1 -14    6.26    0.68
  -1  -1  14    5.19    0.64
  -1   1  14    5.51    0.70
   1   1 -14    6.25    0.66
   1   1 -14    5.79    0.70
  -1   1  14    5.90    0.67
   0  -1 -14    0.05    0.26
   0  -1  14   -0.01    0.25
   0   1 -14   -0.07    0.21
   0   1 -14    0.39    0.26
   0   1  14    0.09    0.24
   0   1  14    0.10    0.27
  -1  -1 -14   26.61    1.84
   1  -1  14   25.41    1.84
  -1   1 -14   27.85    1.78
   1   1  14   26.71    1.87
  -1   1 -14   23.60    1.83
   1   1  14   27.65    1.83
  -1   1 -14   24.25    1.85
  -2  -1 -14    0.21    0.28
   2  -1  14    0.22    0.26
   2   1  14   -0.28    0.22
  -2   1 -14    0.07    0.25
  -2   1 -14   -0.01    0.21
   2   1  14    0.11    0.28
  -3  -1 -14    5.56    0.67
   3  -1  14    5.82    0.69
   3   1  14    4.94    0.67
   3   1  14    5.53    0.68
  -3   1 -14    5.88    0.64
  -3   1 -14    6.10    0.71
   4  -1  14    0.15    0.29
  -4  -1 -14   -0.27    0.27
  -4   1 -14   -0.10    0.24
   4   1  14    0.13    0.30
   4   1  14    0.12    0.29
  -4   1 -14   -0.22    0.27
   5  -1  14   37.93    2.35
  -5  -1 -14   36.33    2.33
  -5   1 -14   33.46    2.34
   5   1  14   31.65    2.35
   5   1  14   35.23    2.36
  -5   1 -14   30.65    2.24
   6  -1  14   -0.05    0.28
  -6  -1 -14    0.22    0.31
   6   1  14   -0.19    0.28
  -6   1 -14    0.03    0.28
  -6   1 -14    0.28    0.28
   6   1  14    0.22    0.31
  -7  -1 -14   27.02    1.87
   7  -1  14   27.16    1.91
  -7   1 -14   24.95    1.77
   7   1  14   22.69    1.85
   8  -1  14    0.15    0.35
  -8  -1 -14   -0.17    0.30
   8   1  14   -0.03    0.32
  -8   1 -14   -0.40    0.24
   9  -2 -14   -0.43    0.34
  -9  -2  14   -0.25    0.33
  -9   2  14    0.10    0.32
   9   2 -14   -0.11    0.31
   9   2 -14   -0.57    0.32
   8  -2 -14   41.77    2.73
  -8  -2  14   37.25    2.71
   8   2 -14   37.11    2.72
   8   2 -14   39.60    2.60
  -8   2  14   41.12    2.73
  -8   2  14   38.92    2.59
   7  -2 -14    0.82    0.33
  -7  -2  14   -0.20    0.30
   7   2 -14   -0.38    0.28
   7   2 -14    0.79    0.31
  -7   2  14   -0.18    0.28
  -7   2  14   -0.33    0.26
   7   2 -14   -0.07    0.27
  -6  -2  14    0.57    0.38
   6  -2 -14    0.90    0.38
   6   2 -14    0.18    0.25
  -6   2  14    0.75    0.31
   6   2 -14    0.09    0.30
   6   2 -14    0.34    0.30
  -6   2  14    0.27    0.34
  -5  -2  14    0.08    0.29
   5  -2 -14    0.08    0.32
   5   2 -14    0.04    0.24
  -5   2  14   -0.31    0.23
   5   2 -14    0.32    0.31
  -5   2  14   -0.22    0.27
  -5   2  14   -0.10    0.30
   5   2 -14   -0.14    0.29
  -4  -2  14    0.73    0.32
   4  -2 -14    0.31    0.29
   4   2 -14    0.72    0.34
  -4   2  14    0.73    0.34
   4   2 -14    0.31    0.26
   4   2 -14    0.16    0.29
  -4   2  14    0.70    0.30
  -4   2  14    0.29    0.30
  -3  -2  14   -0.08    0.28
   3  -2 -14   -0.14    0.29
   3   2 -14    0.05    0.23
  -3   2  14    0.27    0.29
   3   2 -14   -0.15    0.24
   3   2 -14   -0.07    0.26
  -3   2  14   -0.18    0.26
  -3   2  14    0.33    0.25
   2  -2 -14    4.60    0.63
  -2  -2  14    4.94    0.66
  -2   2  14    4.83    0.62
  -2   2  14    4.05    0.56
   2   2 -14    4.69    0.61
   2   2 -14    5.81    0.55
  -2   2  14    4.43    0.62
   2   2 -14    4.24    0.62
  -1  -2  14    0.02    0.26
   1  -2 -14    0.19    0.28
  -1   2  14   -0.02    0.22
   1   2 -14   -0.17    0.23
   1   2 -14   -0.04    0.20
   1   2 -14   -0.11    0.23
  -1   2  14    0.04    0.24
  -1   2  14   -0.09    0.23
   0  -2 -14   55.17    3.68
   0  -2 -14   60.76    3.70
   0  -2  14   64.13    3.73
   0   2  14   54.86    3.64
   0   2 -14   58.97    3.63
   0   2  14   53.15    3.72
   0   2 -14   60.56    3.74
   0   2  14   55.16    3.61
   0   2 -14   56.42    3.59
   1  -2  14    0.31    0.30
  -1  -2 -14    0.01    0.27
  -1   2 -14    0.12    0.22
   1   2  14    0.08    0.29
   1   2  14    0.05    0.25
  -1   2 -14    0.24    0.27
  -1   2 -14   -0.11    0.24
   1   2  14   -0.22    0.25
  -2  -2 -14    1.31    0.38
   2  -2  14    0.41    0.32
  -2   2 -14    0.65    0.33
   2   2  14    3.01    0.47
   2   2  14    0.80    0.36
  -2   2 -14    0.46    0.32
  -3  -2 -14   -0.22    0.25
   3  -2  14    0.19    0.28
  -3   2 -14    0.00    0.22
   3   2  14   -0.57    0.23
   3   2  14    0.13    0.26
  -3   2 -14    0.10    0.27
  -3   2 -14    0.29    0.28
  -4  -2 -14    6.45    0.81
   4  -2  14   10.22    0.90
  -4   2 -14    8.88    0.85
  -4   2 -14    8.02    0.88
   4   2  14    8.55    0.87
   4   2  14    9.28    0.86
   5  -2  14   -0.17    0.29
  -5  -2 -14    0.08    0.30
  -5   2 -14    0.31    0.31
   5   2  14   -0.04    0.28
   5   2  14    0.20    0.30
  -5   2 -14    0.03    0.29
   6  -2  14   83.34    5.48
  -6  -2 -14   93.87    5.50
   6   2  14   83.48    5.56
   6   2  14   86.00    5.47
  -6   2 -14   89.15    5.39
  -7  -2 -14   -0.04    0.33
   7  -2  14    0.28    0.34
  -7   2 -14   -0.09    0.29
   7   2  14    0.47    0.40
   7   2  14   -0.01    0.34
   8  -2  14   48.47    3.26
  -8  -2 -14   44.99    3.20
   8   2  14   48.87    3.18
   8   2  14   47.50    3.28
  -8   2 -14   50.18    3.18
   8  -3 -14   -0.31    0.34
  -8  -3  14    0.31    0.37
   8   3 -14   -0.24    0.28
  -8   3  14   -0.05    0.41
  -8   3  14    0.36    0.35
  -8   3  14    0.32    0.34
  -7  -3  14    8.35    0.95
   7  -3 -14    6.88    0.87
   7   3 -14    7.28    0.89
  -7   3  14    7.14    1.03
  -7   3  14    7.08    0.85
  -7   3  14    7.60    0.88
   7   3 -14    7.16    0.86
  -6  -3  14    0.20    0.34
   6  -3 -14    0.15    0.30
  -6   3  14   -0.05    0.43
   6   3 -14    0.12    0.31
  -6   3  14    0.43    0.32
  -6   3  14    0.09    0.29
   6   3 -14    0.17    0.30
   5  -3 -14   16.17    1.33
  -5  -3  14   15.20    1.33
  -5   3  14   16.11    1.51
  -5   3  14   18.12    1.31
  -5   3  14   15.07    1.28
   5   3 -14   15.55    1.28
   5   3 -14   16.03    1.30
   4  -3 -14   -0.14    0.28
  -4  -3  14    0.13    0.32
  -4   3  14   -0.15    0.27
   4   3 -14   -0.21    0.26
  -4   3  14   -0.18    0.25
  -4   3  14    0.36    0.41
   4   3 -14   -0.15    0.26
   3  -3 -14   25.67    1.64
   3   3 -14   19.00    1.59
  -3   3  14   20.99    1.81
  -3   3  14   23.45    1.65
  -3   3  14   22.06    1.60
   3   3 -14   20.65    1.56
   2  -3 -14   -0.04    0.31
  -2   3  14    0.11    0.28
   2   3 -14   -0.26    0.25
   2   3 -14   -0.13    0.23
  -2   3  14    0.00    0.26
   1  -3 -14    4.03    0.63
  -1   3  14    5.59    0.68
   1   3 -14    3.94    0.59
  -1   3  14    4.96    0.79
   1   3 -14    5.85    0.66
  -1   3  14    5.78    0.69
   0  -3 -14   -0.26    0.26
   0  -3 -14    0.07    0.29
   0   3  14   -0.02    0.25
   0   3  14   -0.14    0.38
   0   3 -14    0.30    0.29
   0   3 -14    0.08    0.27
   0   3  14    0.25    0.29
  -1  -3 -14   25.68    1.76
  -1  -3 -14   23.56    1.75
   1   3  14   24.44    1.79
   1   3  14   21.74    1.69
   1   3  14   23.02    1.89
  -1   3 -14   25.88    1.73
   1   3  14   23.83    1.72
  -1   3 -14   26.50    1.77
  -2  -3 -14    0.21    0.29
  -2   3 -14   -0.15    0.23
   2   3  14   -0.04    0.25
   2   3  14   -0.07    0.37
   2   3  14    0.06    0.27
  -2   3 -14    0.28    0.32
   2   3  14    0.53    0.28
  -3  -3 -14    4.74    0.68
  -3   3 -14    4.56    0.62
  -3   3 -14    5.50    0.68
   3   3  14    4.98    0.67
   3   3  14    5.27    0.70
   3   3  14    4.84    0.79
   3   3  14    5.81    0.63
  -4  -3 -14   -0.03    0.30
  -4   3 -14   -0.15    0.25
  -4   3 -14    0.04    0.30
   4   3  14    0.04    0.27
   4   3  14   -0.25    0.26
   4   3  14   -0.47    0.27
  -5  -3 -14   34.44    2.25
  -5   3 -14   29.67    2.19
   5   3  14   32.33    2.15
   5   3  14   31.24    2.29
  -6  -3 -14    0.33    0.27
  -6   3 -14    0.15    0.30
   6   3  14   -0.38    0.28
   6   3  14   -0.43    0.28
  -7  -3 -14   23.48    1.76
  -7   3 -14   22.29    1.72
   7   3  14   24.20    1.82
  -7   4  14    0.13    0.44
   7   4 -14   -0.10    0.32
   6   4 -14   51.49    3.42
   6   4 -14   54.34    3.36
  -6   4  14   46.73    3.61
  -6   4  14   52.68    3.35
  -6   4  14   52.14    3.43
  -5   4  14   -0.24    0.26
  -5   4  14    0.30    0.48
   5   4 -14    0.22    0.32
  -5   4  14   -0.08    0.27
   5   4 -14   -0.31    0.26
   4   4 -14   50.73    3.18
  -4   4  14   43.29    3.23
  -4   4  14   48.39    3.17
   4   4 -14   51.56    3.26
  -4   4  14   52.95    3.52
  -3   4  14   -0.12    0.27
  -3   4  14   -0.09    0.24
  -3   4  14   -0.41    0.39
   3   4 -14   -0.07    0.24
   3   4 -14    0.08    0.28
   2   4 -14    0.06    0.27
  -2   4  14    1.22    0.51
   2   4 -14    0.57    0.32
  -2   4  14    0.73    0.31
  -2   4  14   -0.07    0.27
  -1   4  14    0.23    0.29
   1   4 -14    0.03    0.27
   1   4 -14   -0.09    0.28
  -1   4  14    0.14    0.42
  -1   4  14    0.10    0.27
   0   4  14    5.88    0.89
   0   4 -14    6.36    0.73
   0   4 -14    6.04    0.74
   0   4  14    6.90    0.80
   0   4  14    6.28    0.73
   1   4  14    0.11    0.40
   1   4  14   -0.17    0.22
   1   4  14    0.13    0.26
  -1   4 -14    0.18    0.28
  -1   4 -14   -0.05    0.25
  -2   4 -14   16.76    1.31
   2   4  14   17.94    1.31
  -2   4 -14   14.78    1.24
   2   4  14   16.24    1.31
   2   4  14   14.51    1.43
   3   4  14    0.50    0.32
  -3   4 -14    0.37    0.32
   3   4  14    0.20    0.31
   3   4  14    0.19    0.45
  -3   4 -14    0.42    0.30
   4   4  14   70.54    4.22
  -4   4 -14   70.37    4.31
   4   4  14   65.88    4.35
  -4   4 -14   60.50    4.19
  -5  -4 -14    0.32    0.33
   5   4  14    0.26    0.34
   5   4  14   -0.28    0.31
  -5   4 -14   -0.17    0.29
  -6  -4 -14    0.07    0.38
   6   4  14    0.34    0.34
   6   4  14    1.66    0.45
  -6   4 -14    0.05    0.30
  -4   5  14   -0.10    0.28
   4   5 -14    0.34    0.30
  -4   5  14    0.29    0.31
   4   5 -14   -0.09    0.26
  -4   5  14   -0.25    0.41
   3   5 -14   18.53    1.44
  -3   5  14   16.46    1.37
   3   5 -14   20.60    1.42
  -3   5  14   19.71    1.45
  -3   5  14   15.99    1.67
   2   5 -14   -0.10    0.25
  -2   5  14   -0.17    0.22
  -2   5  14    0.10    0.29
  -2   5  14   -0.33    0.42
   2   5 -14    0.10    0.28
  -1   5  14    4.18    0.62
   1   5 -14    3.47    0.57
  -1   5  14    4.45    0.61
   1   5 -14    5.46    0.65
  -1   5  14    4.23    0.80
   0   5  14   -0.48    0.37
   0   5 -14    0.09    0.28
   0   5 -14   -0.14    0.26
   0   5  14   -0.37    0.27
   0   5  14   -0.17    0.28
   1   5  14   17.86    1.35
  -1   5 -14   16.05    1.35
   1   5  14   16.57    1.39
   1   5  14   17.14    1.58
  -1   5 -14   19.28    1.36
   2   5  14   -0.17    0.29
   2   5  14   -0.32    0.36
  -2   5 -14   -0.33    0.24
   2   5  14   -0.03    0.29
  -2   5 -14   -0.05    0.33
   3   5  14    3.29    0.60
  -3   5 -14    4.70    0.65
   3   5  14    4.48    0.67
  -3   5 -14    3.94    0.58
   4   5  14    0.41    0.32
  -4   5 -14    0.01    0.28
   4   5  14    0.10    0.31
  -8   0  15   -0.03    0.31
   8   0 -15   -0.32    0.27
  -7   0  15   29.32    2.21
   7   0 -15   35.07    2.28
   6   0 -15   -0.04    0.32
  -6   0  15   -0.37    0.26
  -5   0  15   48.33    3.40
   5   0 -15   56.62    3.44
   4   0 -15   -0.17    0.28
   4   0 -15   -0.52    0.28
  -4   0  15    0.04    0.28
   3   0 -15  107.14    6.13
   3   0 -15   85.14    6.02
  -3   0  15   93.60    6.06
   3   0 -15  104.53    6.07
   2   0 -15    0.24    0.27
  -2   0  15   -0.10    0.27
   2   0 -15   -0.24    0.24
  -1   0  15   67.02    4.33
   1   0 -15   65.63    4.29
   1   0 -15   70.91    4.34
   0   0 -15   -0.06    0.27
   0   0  15    0.31    0.30
   0   0 -15   -0.36    0.25
  -1   0 -15    7.98    0.79
  -1   0 -15    8.40    0.82
   1   0  15    6.97    0.81
  -2   0 -15    0.25    0.31
   2   0  15   -0.14    0.28
  -2   0 -15   -0.42    0.22
   3   0  15    1.13    0.38
  -3   0 -15    1.31    0.39
  -3   0 -15    1.88    0.43
   4   0  15   -0.06    0.28
  -4   0 -15   -0.08    0.26
  -4   0 -15    0.07    0.28
  -5   0 -15    0.77    0.37
   5   0  15    1.67    0.45
  -5   0 -15    0.86    0.34
  -6   0 -15   -0.23    0.29
   6   0  15    0.20    0.32
  -6   0 -15    0.11    0.33
   7   0  15    5.66    0.81
  -7   0 -15    6.37    0.80
  -7   0 -15    5.44    0.69
   8  -1 -15    8.27    0.94
  -8  -1  15    8.92    0.91
  -8   1  15    6.67    0.83
   8   1 -15    7.87    0.91
  -8   1  15   10.46    0.99
   8   1 -15    8.01    0.96
  -7  -1  15   -0.16    0.27
   7  -1 -15    0.08    0.32
  -7   1  15   -0.24    0.30
   7   1 -15    0.01    0.36
   7   1 -15    0.39    0.33
  -7   1  15   -0.26    0.27
   6  -1 -15    4.35    0.62
  -6  -1  15    4.83    0.70
  -6   1  15    4.84    0.65
  -6   1  15    4.36    0.65
   6   1 -15    3.99    0.65
   6   1 -15    5.14    0.65
   5  -1 -15    0.10    0.31
  -5  -1  15   -0.43    0.27
   5   1 -15    0.17    0.27
   5   1 -15   -0.19    0.27
  -5   1  15   -0.31    0.28
  -5   1  15    0.01    0.32
   5   1 -15   -0.14    0.26
   4  -1 -15    0.67    0.34
  -4  -1  15    0.77    0.34
   4   1 -15    0.89    0.33
   4   1 -15    1.04    0.36
  -4   1  15    0.02    0.26
  -4   1  15    0.59    0.34
  -3  -1  15    0.09    0.29
   3  -1 -15   -0.10    0.29
   3   1 -15    0.01    0.27
  -3   1  15    0.38    0.31
   3   1 -15   -0.07    0.29
  -3   1  15   -0.10    0.28
   2  -1 -15   22.59    1.55
   2  -1 -15   19.29    1.51
  -2  -1  15   20.84    1.54
  -2   1  15   19.18    1.50
   2   1 -15   19.02    1.47
  -2   1  15   21.68    1.56
   2   1 -15   21.27    1.54
  -1  -1  15    0.20    0.28
   1  -1 -15    0.10    0.29
   1  -1 -15    0.02    0.28
   1   1 -15    0.08    0.25
   1   1 -15    0.42    0.31
  -1   1  15    0.27    0.30
  -1   1  15   -0.07    0.27
   0  -1 -15   85.54    5.27
   0  -1  15   89.29    5.31
   0   1  15   85.30    5.33
   0   1 -15   89.66    5.23
   0   1  15   80.05    5.24
   0   1 -15   74.41    5.28
  -1  -1 -15    0.00    0.28
   1  -1  15   -0.27    0.26
  -1   1 -15   -0.27    0.25
  -1   1 -15    0.15    0.26
   1   1  15    0.17    0.29
   1   1  15    0.11    0.27
   2  -1  15   13.16    1.14
  -2  -1 -15   12.15    1.11
   2   1  15   14.01    1.13
  -2   1 -15   14.96    1.18
  -2   1 -15   13.99    1.07
   2   1  15   12.52    1.14
  -3  -1 -15   -0.22    0.25
   3  -1  15   -0.11    0.27
   3   1  15    0.50    0.33
  -3   1 -15   -0.03    0.29
   3   1  15    0.24    0.30
  -3   1 -15    0.34    0.27
   4  -1  15   15.18    1.24
  -4  -1 -15   15.71    1.23
   4   1  15   14.59    1.25
   4   1  15   14.47    1.22
  -4   1 -15   14.98    1.17
  -4   1 -15   14.01    1.22
   5  -1  15   -0.49    0.28
  -5  -1 -15   -0.09    0.29
   5   1  15   -0.06    0.28
   5   1  15    0.04    0.34
  -5   1 -15    0.14    0.31
  -5   1 -15    0.31    0.28
  -6  -1 -15    1.32    0.42
   6  -1  15    2.37    0.51
  -6   1 -15    1.81    0.49
  -6   1 -15    1.49    0.39
   6   1  15    2.18    0.49
   7  -1  15    0.38    0.42
  -7  -1 -15   -0.01    0.29
  -7   1 -15   -0.32    0.28
   7   1  15   -0.29    0.28
  -7   1 -15    0.36    0.33
   7  -2 -15    7.09    0.88
  -7  -2  15    5.99    0.84
  -7   2  15    8.29    0.79
   7   2 -15    8.92    0.95
  -7   2  15    7.99    0.91
   7   2 -15    7.60    0.79
  -6  -2  15    0.02    0.32
   6  -2 -15    0.25    0.34
   6   2 -15    0.09    0.34
  -6   2  15    0.09    0.26
  -6   2  15    0.17    0.34
   6   2 -15    0.27    0.28
  -5  -2  15    2.53    0.50
   5  -2 -15    2.46    0.50
  -5   2  15    1.75    0.41
  -5   2  15    1.27    0.44
   5   2 -15    1.62    0.40
   5   2 -15    2.09    0.45
   4  -2 -15    0.21    0.36
  -4  -2  15    0.13    0.30
  -4   2  15    0.15    0.26
   4   2 -15    0.01    0.28
   4   2 -15    0.17    0.26
  -4   2  15   -0.22    0.28
  -3  -2  15   25.62    1.92
   3  -2 -15   27.18    1.95
   3   2 -15   26.89    1.81
  -3   2  15   28.75    1.95
   3   2 -15   28.03    1.93
  -3   2  15   24.80    1.84
   3   2 -15   26.88    1.89
  -2  -2  15   -0.13    0.26
   2  -2 -15   -0.33    0.26
  -2   2  15    0.52    0.34
   2   2 -15   -0.40    0.25
   2   2 -15    0.16    0.29
   2   2 -15    0.08    0.22
  -2   2  15   -0.17    0.24
  -1  -2  15    4.41    0.66
   1  -2 -15    4.40    0.62
   1  -2 -15    3.84    0.60
  -1   2  15    4.55    0.56
   1   2 -15    5.13    0.65
   1   2 -15    5.10    0.55
   1   2 -15    5.13    0.68
  -1   2  15    5.58    0.69
   0  -2 -15    0.12    0.28
   0  -2  15    0.22    0.30
   0   2 -15    0.03    0.23
   0   2 -15   -0.13    0.27
   0   2 -15    0.22    0.28
   0   2  15   -0.17    0.26
   0   2  15   -0.26    0.27
   1  -2  15   31.43    2.07
  -1  -2 -15   27.20    2.01
   1   2  15   29.76    2.00
  -1   2 -15   28.91    1.90
  -1   2 -15   27.22    1.99
   1   2  15   28.42    2.05
  -1   2 -15   28.92    2.05
  -2  -2 -15    0.22    0.30
   2  -2  15   -0.05    0.27
  -2   2 -15    0.12    0.29
   2   2  15    0.04    0.29
  -2   2 -15   -0.18    0.30
  -2   2 -15    0.03    0.23
   2   2  15   -0.12    0.25
   3  -2  15   81.06    5.19
  -3  -2 -15   86.16    5.18
  -3   2 -15   79.60    5.20
   3   2  15   86.88    5.16
  -3   2 -15   74.97    5.03
   3   2  15   82.53    5.24
   4  -2  15    0.13    0.29
  -4  -2 -15    0.19    0.30
   4   2  15   -0.15    0.30
  -4   2 -15   -0.22    0.29
  -4   2 -15   -0.12    0.27
   4   2  15   -0.38    0.28
   5  -2  15   46.84    3.32
  -5  -2 -15   51.09    3.33
   5   2  15   52.45    3.31
   5   2  15   48.64    3.37
  -5   2 -15   55.74    3.30
  -5   2 -15   47.43    3.33
   6  -2  15   -0.14    0.33
  -6  -2 -15    0.13    0.35
  -6   2 -15    0.57    0.33
   6   2  15   -0.11    0.31
  -6   2 -15    0.12    0.36
   6   2  15   -0.50    0.28
   7  -2  15   15.58    1.34
  -7  -2 -15   13.08    1.26
   7   2  15   18.13    1.32
   7   2  15   14.39    1.32
  -6  -3  15    3.73    0.71
   6  -3 -15    3.82    0.68
   6   3 -15    4.41    0.66
   6   3 -15    3.92    0.63
  -6   3  15    4.28    0.66
  -6   3  15    3.60    0.62
  -6   3  15    5.74    0.88
   5  -3 -15    0.11    0.35
  -5  -3  15   -0.31    0.26
  -5   3  15    0.48    0.47
  -5   3  15   -0.37    0.27
   5   3 -15   -0.04    0.28
   5   3 -15   -0.50    0.24
  -5   3  15    0.04    0.30
   4  -3 -15    0.82    0.36
  -4  -3  15    1.90    0.46
   4   3 -15    0.14    0.34
   4   3 -15    0.75    0.35
  -4   3  15    1.19    0.42
  -4   3  15    0.40    0.29
  -4   3  15    0.47    0.46
  -3  -3  15    0.58    0.36
   3  -3 -15    0.00    0.30
   3   3 -15   -0.27    0.25
  -3   3  15   -0.18    0.26
   3   3 -15    0.27    0.29
  -3   3  15    0.90    0.45
  -3   3  15    0.03    0.31
   2  -3 -15   15.16    1.37
  -2   3  15   17.16    1.39
   2   3 -15   19.57    1.41
   2   3 -15   17.68    1.34
  -2   3  15   18.06    1.59
  -2   3  15   17.34    1.35
   1  -3 -15    0.35    0.37
   1   3 -15   -0.01    0.27
  -1   3  15    0.23    0.28
   1   3 -15    0.05    0.28
  -1   3  15   -0.28    0.24
  -1   3  15   -0.14    0.39
   0  -3 -15   77.95    4.69
   0  -3 -15   72.59    4.67
   0   3  15   74.90    4.72
   0   3  15   73.85    4.85
   0   3  15   76.67    4.59
   0   3 -15   71.48    4.57
   0   3 -15   67.19    4.69
  -1  -3 -15   -0.47    0.27
   1   3  15    0.12    0.30
   1   3  15   -0.04    0.42
  -1   3 -15   -0.07    0.27
   1   3  15   -0.29    0.28
  -1   3 -15    0.23    0.28
  -2  -3 -15   11.22    1.03
   2   3  15   12.06    1.20
   2   3  15   10.80    1.02
  -2   3 -15   10.29    1.00
   2   3  15   11.86    1.07
  -2   3 -15   10.87    1.01
  -3  -3 -15   -0.42    0.28
   3   3  15    0.02    0.29
  -3   3 -15    0.18    0.29
  -3   3 -15   -0.06    0.28
   3   3  15    0.09    0.32
  -4  -3 -15   11.60    1.13
  -4   3 -15   13.70    1.16
  -4   3 -15   13.48    1.13
   4   3  15   12.95    1.17
  -5  -3 -15    0.30    0.33
  -5   3 -15   -0.07    0.29
  -5   3 -15    0.24    0.33
   5   3  15    0.04    0.30
  -6  -3 -15    1.33    0.41
   6   3  15    1.63    0.49
  -6   3 -15    0.89    0.44
   5   4 -15   41.59    2.71
  -5   4  15   42.08    3.04
  -5   4  15   39.39    2.75
   5   4 -15   37.71    2.74
  -5   4  15   41.18    2.70
   4   4 -15   -0.05    0.26
   4   4 -15    0.02    0.28
  -4   4  15    0.15    0.32
  -4   4  15    0.03    0.48
  -4   4  15   -0.16    0.25
  -3   4  15   68.76    4.44
   3   4 -15   71.05    4.56
  -3   4  15   66.77    4.56
  -3   4  15   77.13    4.85
   3   4 -15   73.06    4.44
  -2   4  15    0.31    0.47
   2   4 -15   -0.22    0.26
  -2   4  15    0.17    0.29
  -2   4  15   -0.12    0.27
   2   4 -15   -0.26    0.26
   1   4 -15   44.11    2.94
   1   4 -15   44.42    3.03
  -1   4  15   46.96    3.27
  -1   4  15   46.34    2.97
  -1   4  15   45.92    3.06
   0   4  15    0.36    0.32
   0   4 -15    0.19    0.30
   0   4  15   -0.14    0.38
   0   4 -15   -0.10    0.28
   0   4  15   -0.15    0.27
  -1   4 -15    6.63    0.81
   1   4  15    8.68    0.93
  -1   4 -15    7.44    0.83
   1   4  15    8.17    1.06
   1   4  15    6.59    0.82
   2   4  15   -0.40    0.26
  -2   4 -15    0.03    0.30
   2   4  15   -0.05    0.25
   2   4  15    0.27    0.45
  -2   4 -15    0.29    0.32
   3   4  15    1.06    0.40
   3   4  15    1.75    0.45
  -3   4 -15    2.04    0.45
  -3   4 -15    1.36    0.44
  -4  -4 -15    0.23    0.37
   4   4  15   -0.02    0.31
  -4   4 -15   -0.18    0.28
   4   4  15   -0.26    0.32
  -4   4 -15   -0.10    0.33
   1   5 -15   -0.29    0.27
  -1   5  15    0.25    0.50
   0   5  15   56.54    3.83
   0   5  15   58.22    3.71
   0   5 -15   57.47    3.82
   0   5 -15   60.93    3.72
   0   5  15   57.25    4.02
  -7   0  16   -0.35    0.27
   7   0 -16    0.16    0.33
   6   0 -16   37.93    2.54
  -6   0  16   36.11    2.53
  -5   0  16    0.02    0.30
   5   0 -16    0.13    0.31
  -4   0  16   11.66    1.05
   4   0 -16   12.80    1.05
   4   0 -16   10.32    1.00
   3   0 -16    0.11    0.30
   3   0 -16    0.23    0.31
  -3   0  16   -0.36    0.27
   2   0 -16    1.88    0.45
  -2   0  16    0.19    0.32
   2   0 -16    0.78    0.34
   1   0 -16   -0.03    0.26
  -1   0  16   -0.23    0.24
   1   0 -16    0.16    0.29
   0   0 -16    6.32    0.76
   0   0  16    7.41    0.84
   0   0 -16    7.37    0.83
  -1   0 -16    0.05    0.28
  -1   0 -16   -0.06    0.25
   1   0  16    0.33    0.30
  -2   0 -16    0.59    0.31
  -2   0 -16    0.82    0.38
   2   0  16    1.11    0.37
  -3   0 -16   -0.21    0.25
   3   0  16    0.11    0.29
  -3   0 -16   -0.46    0.26
  -4   0 -16   81.41    5.11
  -4   0 -16   77.67    5.01
   4   0  16   80.38    5.07
  -5   0 -16    0.39    0.35
  -5   0 -16    0.12    0.31
   5   0  16    0.15    0.35
  -6   0 -16    5.74    0.75
  -6   0 -16    6.74    0.75
   6   0  16    3.76    0.67
   7  -1 -16    0.37    0.38
   7   1 -16    1.32    0.41
   6  -1 -16    0.36    0.38
  -6  -1  16    0.30    0.35
   6   1 -16    0.08    0.32
  -6   1  16   -0.27    0.32
  -6   1  16   -0.18    0.27
   6   1 -16   -0.17    0.27
   6   1 -16    0.09    0.34
  -5  -1  16    2.70    0.56
   5  -1 -16    3.56    0.61
   5   1 -16    2.77    0.48
  -5   1  16    2.36    0.50
   5   1 -16    3.59    0.60
  -5   1  16    2.78    0.57
   4  -1 -16   -0.07    0.31
  -4  -1  16   -0.09    0.29
  -4   1  16   -0.39    0.27
   4   1 -16    0.00    0.33
   4   1 -16   -0.25    0.28
  -4   1  16    0.51    0.35
   3  -1 -16    9.28    0.97
  -3  -1  16   11.66    1.02
   3  -1 -16   10.21    0.98
   3   1 -16   10.01    1.01
  -3   1  16   12.37    1.01
   3   1 -16   11.51    0.97
  -3   1  16   10.46    1.03
   2  -1 -16   -0.04    0.28
   2  -1 -16   -0.09    0.29
  -2  -1  16    0.54    0.34
  -2   1  16    0.40    0.35
   2   1 -16    0.10    0.30
  -2   1  16    0.31    0.30
   2   1 -16   -0.04    0.26
  -1  -1  16    4.01    0.63
   1  -1 -16    3.44    0.55
   1   1 -16    2.63    0.47
   1   1 -16    3.75    0.59
  -1   1  16    3.71    0.55
  -1   1  16    2.63    0.54
   0  -1 -16   -0.08    0.29
   0  -1  16   -0.49    0.24
   0   1  16    0.42    0.32
   0   1 -16    0.16    0.25
   0   1 -16   -0.17    0.27
   0   1  16   -0.08    0.27
  -1  -1 -16   42.09    2.80
   1  -1  16   42.30    2.82
  -1   1 -16   41.82    2.73
  -1   1 -16   43.04    2.81
   1   1  16   40.79    2.82
   1   1  16   40.13    2.75
   2  -1  16    0.41    0.36
  -2  -1 -16   -0.01    0.27
   2   1  16    0.40    0.37
  -2   1 -16   -0.19    0.25
  -2   1 -16    0.03    0.32
   2   1  16   -0.28    0.26
   3  -1  16   30.10    2.18
  -3  -1 -16   31.56    2.17
  -3   1 -16   31.85    2.11
   3   1  16   32.04    2.18
   3   1  16   30.62    2.21
  -3   1 -16   29.76    2.19
   4  -1  16   -0.43    0.28
  -4  -1 -16   -0.41    0.25
  -4   1 -16    0.39    0.28
   4   1  16   -0.07    0.33
  -4   1 -16    0.53    0.34
   5  -1  16   32.14    2.29
  -5  -1 -16   30.59    2.23
   5   1  16   32.85    2.28
  -5   1 -16   33.16    2.30
  -5   1 -16   32.55    2.17
   6  -1  16   -0.15    0.33
  -6  -1 -16   -0.07    0.32
  -6   1 -16    0.34    0.31
  -6   1 -16    0.15    0.35
   6   1  16   -0.44    0.31
  -6  -2  16   80.57    5.25
   6  -2 -16   81.99    5.23
   6   2 -16   82.95    5.13
  -6   2  16   83.82    5.30
   6   2 -16   82.52    5.29
  -6   2  16   81.24    5.13
  -5  -2  16   -0.26    0.30
   5  -2 -16    0.13    0.35
   5   2 -16    0.68    0.32
  -5   2  16   -0.07    0.32
  -5   2  16   -0.24    0.28
   5   2 -16   -0.17    0.33
   4  -2 -16    7.72    0.92
  -4  -2  16    9.33    0.94
   4   2 -16    6.03    0.87
   4   2 -16    9.68    0.82
  -4   2  16    9.36    0.84
  -4   2  16    9.50    0.94
   3  -2 -16    0.31    0.35
  -3  -2  16    0.30    0.33
  -3   2  16   -0.08    0.30
   3   2 -16   -0.13    0.25
  -3   2  16    0.22    0.30
   3   2 -16   -0.05    0.30
   2  -2 -16   71.03    4.41
  -2  -2  16   60.05    4.39
   2  -2 -16   65.26    4.40
   2   2 -16   68.33    4.43
  -2   2  16   74.00    4.34
   2   2 -16   69.18    4.29
  -2   2  16   73.17    4.47
  -1  -2  16   -0.26    0.29
   1  -2 -16   -0.01    0.28
   1  -2 -16    0.06    0.32
   1   2 -16    0.21    0.31
  -1   2  16   -0.26    0.30
   1   2 -16    0.10    0.23
   1   2 -16   -0.18    0.30
  -1   2  16    0.22    0.29
   0  -2 -16    5.36    0.70
   0  -2  16    5.40    0.72
   0   2  16    5.86    0.74
   0   2 -16    5.13    0.70
   0   2 -16    5.52    0.59
   0   2 -16    4.64    0.67
   0   2  16    4.87    0.65
  -1  -2 -16    0.58    0.33
   1  -2  16   -0.20    0.28
  -1   2 -16   -0.01    0.31
   1   2  16    0.10    0.32
  -1   2 -16   -0.10    0.29
   1   2  16   -0.05    0.33
   2  -2  16   67.63    4.38
  -2  -2 -16   68.67    4.37
   2   2  16   62.79    4.31
  -2   2 -16   69.63    4.40
   2   2  16   68.25    4.40
  -2   2 -16   70.95    4.29
  -3  -2 -16    0.35    0.33
   3  -2  16   -0.16    0.32
  -3   2 -16    0.12    0.30
   3   2  16    0.25    0.33
  -3   2 -16   -0.38    0.26
   3   2  16    0.58    0.30
  -4  -2 -16    6.15    0.79
   4  -2  16    6.66    0.84
  -4   2 -16    6.24    0.85
  -4   2 -16    9.40    0.89
   4   2  16    6.16    0.78
   4   2  16    7.93    0.92
  -5  -2 -16    0.03    0.29
   5  -2  16    0.31    0.36
   5   2  16   -0.10    0.30
   5   2  16   -0.04    0.32
  -5   2 -16   -0.15    0.34
  -5  -3  16    1.83    0.49
   5  -3 -16    1.79    0.51
  -5   3  16    1.67    0.45
   5   3 -16    1.72    0.48
   5   3 -16    1.92    0.49
  -5   3  16    2.06    0.64
   4  -3 -16    0.55    0.35
  -4  -3  16   -0.47    0.32
  -4   3  16   -0.26    0.43
   4   3 -16   -0.13    0.32
  -4   3  16    0.19    0.33
  -4   3  16   -0.50    0.28
   4   3 -16    0.75    0.40
   3  -3 -16    9.71    0.97
  -3   3  16    8.23    0.96
   3   3 -16   10.18    0.94
   3   3 -16    8.67    0.94
  -3   3  16    8.32    0.96
  -3   3  16    7.62    1.12
  -2  -3  16    0.43    0.32
   2  -3 -16   -0.16    0.32
   2   3 -16    0.00    0.27
  -2   3  16   -0.25    0.45
  -2   3  16   -0.27    0.28
   2   3 -16    0.24    0.33
  -2   3  16   -0.20    0.30
   1  -3 -16    2.96    0.53
  -1  -3  16    2.96    0.64
   1  -3 -16    2.21    0.51
  -1   3  16    2.75    0.53
  -1   3  16    1.89    0.64
  -1   3  16    2.46    0.52
   1   3 -16    3.50    0.55
   1   3 -16    2.90    0.57
   0  -3 -16   -0.06    0.31
   0   3  16    0.13    0.42
   0   3 -16   -0.37    0.27
   0   3  16   -0.59    0.26
   0   3 -16   -0.03    0.27
   0   3  16   -0.06    0.30
  -1  -3 -16   39.80    2.58
  -1   3 -16   32.37    2.55
   1   3  16   37.90    2.59
  -1   3 -16   39.29    2.54
   1   3  16   36.81    2.73
  -2  -3 -16    0.01    0.34
   2   3  16    0.29    0.35
  -2   3 -16   -0.10    0.29
   2   3  16   -0.37    0.38
  -2   3 -16   -0.26    0.30
  -3  -3 -16   25.59    2.00
  -3   3 -16   28.38    1.99
  -3   3 -16   27.04    2.02
   3   3  16   30.19    2.09
  -4  -3 -16    0.31    0.32
   4   3  16   -0.04    0.32
  -4   3 -16    0.04    0.29
  -4   3 -16    0.08    0.33
   2   4 -16    0.51    0.33
  -2   4  16    0.82    0.39
  -2   4  16    1.36    0.64
  -2   4  16    0.65    0.37
   2   4 -16    0.18    0.33
  -1   4  16    0.04    0.32
   1   4 -16    0.02    0.30
   1   4 -16    0.26    0.33
  -1   4  16   -0.10    0.27
  -1   4  16   -0.04    0.47
   0   4  16    6.52    0.78
   0   4 -16    4.67    0.67
   0   4  16    3.70    0.77
   0   4  16    3.84    0.62
   0   4 -16    4.71    0.68
   1   4  16    0.15    0.32
   1   4  16   -0.33    0.27
   1   4  16   -0.22    0.43
  -1   4 -16    0.40    0.36
  -1   4 -16    0.10    0.34
   5   0 -17   16.68    1.39
  -5   0  17   18.57    1.44
   5   0 -17   18.14    1.42
   4   0 -17   -0.20    0.29
  -4   0  17   -0.26    0.28
   4   0 -17    0.13    0.31
  -3   0  17    4.95    0.71
   3   0 -17    5.10    0.69
   2   0 -17    0.24    0.30
  -2   0  17    0.51    0.33
   1   0 -17   18.21    1.40
  -1   0  17   17.32    1.41
   0   0 -17    0.16    0.30
   0   0  17   -0.27    0.29
  -1   0 -17   66.73    4.18
   1   0  17   59.98    4.05
  -1   0 -17   62.18    4.02
  -2   0 -17    0.27    0.32
   2   0  17   -0.37    0.28
  -2   0 -17   -0.34    0.28
  -3   0 -17    0.70    0.35
   3   0  17    0.50    0.37
   4   0  17    0.17    0.32
  -4   0 -17    0.47    0.31
   4  -1 -17    9.62    1.04
   4  -1 -17   10.86    1.05
  -4  -1  17   10.09    1.05
   4   1 -17   12.50    1.10
  -4   1  17   13.35    1.09
  -4   1  17   12.32    1.15
   4   1 -17   12.00    1.03
  -3  -1  17   -0.25    0.28
   3  -1 -17    0.26    0.35
   3  -1 -17    0.15    0.32
   3   1 -17   -0.16    0.27
  -3   1  17   -0.16    0.34
   3   1 -17   -0.10    0.30
  -3   1  17   -0.22    0.28
   2  -1 -17   53.04    3.34
  -2  -1  17   51.12    3.37
  -2   1  17   52.54    3.31
   2   1 -17   48.67    3.27
  -2   1  17   48.35    3.37
   2   1 -17   49.46    3.36
  -1  -1  17    0.14    0.33
   1  -1 -17   -0.02    0.28
   1   1 -17    0.10    0.34
  -1   1  17   -0.04    0.30
  -1   1  17    0.04    0.29
   1   1 -17   -0.29    0.25
   0  -1 -17    1.14    0.40
   0  -1  17    0.85    0.37
   0   1 -17    0.91    0.35
   0   1  17    1.62    0.48
   0   1 -17    1.02    0.41
   0   1  17    1.43    0.40
   1  -1  17    0.29    0.34
  -1  -1 -17   -0.24    0.27
   1   1  17   -0.05    0.30
  -1   1 -17   -0.31    0.23
  -1   1 -17   -0.04    0.27
   2  -1  17   30.64    2.03
  -2  -1 -17   25.05    1.97
   2   1  17   29.43    2.01
  -2   1 -17   29.77    1.94
  -2   1 -17   25.02    1.99
   3  -1  17    0.15    0.32
  -3  -1 -17    0.04    0.32
  -3   1 -17   -0.03    0.32
   3   1  17    0.22    0.34
  -3   1 -17   -0.19    0.27
   4  -1  17    1.60    0.44
  -4  -1 -17    1.72    0.44
  -4   1 -17    1.30    0.44
  -4   1 -17    0.52    0.33
   4   1  17    0.66    0.35
   4  -2 -17   -0.21    0.33
   3  -2 -17   17.20    1.41
  -3  -2  17   15.84    1.41
   3  -2 -17   17.29    1.43
  -3   2  17   16.87    1.43
   3   2 -17   17.59    1.44
  -3   2  17   18.44    1.33
  -2  -2  17   -0.07    0.31
   2  -2 -17   -0.32    0.31
   2  -2 -17   -0.12    0.31
  -2   2  17    0.26    0.32
   2   2 -17   -0.22    0.29
  -2   2  17   -0.58    0.28
   1  -2 -17   49.94    3.25
  -1  -2  17   48.71    3.27
  -1   2  17   44.58    3.27
  -1   2  17   55.22    3.21
   1   2 -17   45.34    3.25
   0  -2 -17    0.03    0.33
   0  -2  17    0.55    0.37
   0   2  17    0.11    0.33
   0   2 -17    0.22    0.34
   0   2  17    0.03    0.33
   1  -2  17    0.40    0.37
  -1  -2 -17    0.92    0.42
   1   2  17    1.47    0.44
   1   2  17    1.03    0.42
  -1   2 -17    1.39    0.44
   2  -2  17   -0.17    0.32
  -2  -2 -17   -0.02    0.32
   2   2  17   -0.03    0.29
   2   2  17   -0.18    0.32
  -2   2 -17    0.90    0.41
   3  -2  17   16.29    1.35
  -3  -2 -17   13.44    1.29
   3   2  17   17.60    1.33
   3   2  17   15.93    1.36
  -3   2 -17   17.19    1.39
   0   0   0    0.00    0.00
;
_shelx_hkl_checksum              62027
loop_
_space_group_symop_id
_space_group_symop_operation_xyz
1 'x, y, z'
2 '-x, y, -z'
3 'x+1/2, y+1/2, z+1/2'
4 '-x+1/2, y+1/2, -z+1/2'
5 '-x, -y, -z'
6 'x, -y, z'
7 '-x+1/2, -y+1/2, -z+1/2'
8 'x+1/2, -y+1/2, z+1/2'
loop_
_atom_site_label
_atom_site_type_symbol
_atom_site_fract_x
_atom_site_fract_y
_atom_site_fract_z
_atom_site_U_iso_or_equiv
_atom_site_adp_type
_atom_site_occupancy
_atom_site_site_symmetry_order
_atom_site_calc_flag
_atom_site_refinement_flags_posn
_atom_site_refinement_flags_adp
_atom_site_refinement_flags_occupancy
Th1 Th 0.13538(3) 0.0000 0.36130(2) 0.00847(12) Uani 1 2 d S T P
Ba1 Ba 0.29429(5) 0.5000 0.59924(4) 0.00662(13) Uani 1 2 d S T P
Te1 Te 0.09555(4) 0.25034(7) 0.14084(3) 0.01119(13) Uani 1 1 d . . .
Te2 Te 0.05043(5) 0.5000 0.39949(4) 0.00595(13) Uani 1 2 d S T P
Te3 Te 0.33058(6) 0.5000 0.88523(4) 0.00903(14) Uani 1 2 d S T P
loop_
_atom_site_aniso_label
_atom_site_aniso_U_11
_atom_site_aniso_U_22
_atom_site_aniso_U_33
_atom_site_aniso_U_23
_atom_site_aniso_U_13
_atom_site_aniso_U_12
Th1 0.00993(18) 0.00686(17) 0.00857(17) 0.000 -0.00071(11) 0.000
Ba1 0.0067(2) 0.0052(2) 0.0079(2) 0.000 0.00029(16) 0.000
Te1 0.0074(2) 0.0186(2) 0.0076(2) -0.00083(14) -0.00071(14) 0.00173(14)
Te2 0.0053(2) 0.0069(2) 0.0058(2) 0.000 0.00237(17) 0.000
Te3 0.0107(3) 0.0046(3) 0.0117(3) 0.000 -0.00157(19) 0.000
loop_
_atom_type_symbol
_atom_type_description
_atom_type_scat_dispersion_real
_atom_type_scat_dispersion_imag
_atom_type_scat_source
Te Te -0.5308 1.6751 'International Tables Vol C Tables 4.2.6.8 and 6.1.1.4'
Ba Ba -0.3244 2.2819 'International Tables Vol C Tables 4.2.6.8 and 6.1.1.4'
Th Th -7.2400 8.8979 'International Tables Vol C Tables 4.2.6.8 and 6.1.1.4'
loop_
_geom_angle_atom_site_label_1
_geom_angle_atom_site_label_2
_geom_angle_atom_site_label_3
_geom_angle
_geom_angle_site_symmetry_1
_geom_angle_site_symmetry_3
Te3 Th1 Te3 89.47(3) 7_556 3_444
Te3 Th1 Te1 150.168(11) 7_556 6
Te3 Th1 Te1 88.56(3) 3_444 6
Te3 Th1 Te1 150.168(11) 7_556 .
Te3 Th1 Te1 88.56(3) 3_444 .
Te1 Th1 Te1 59.52(2) 6 .
Te3 Th1 Te1 86.26(3) 7_556 7
Te3 Th1 Te1 150.142(11) 3_444 7
Te1 Th1 Te1 109.25(3) 6 7
Te1 Th1 Te1 80.85(3) . 7
Te3 Th1 Te1 86.26(3) 7_556 4_545
Te3 Th1 Te1 150.142(11) 3_444 4_545
Te1 Th1 Te1 80.85(3) 6 4_545
Te1 Th1 Te1 109.25(3) . 4_545
Te1 Th1 Te1 59.00(2) 7 4_545
Te3 Th1 Te2 83.101(14) 7_556 .
Te3 Th1 Te2 73.658(12) 3_444 .
Te1 Th1 Te2 124.586(18) 6 .
Te1 Th1 Te2 67.803(16) . .
Te1 Th1 Te2 76.493(17) 7 .
Te1 Th1 Te2 134.780(15) 4_545 .
Te3 Th1 Te2 83.102(14) 7_556 1_545
Te3 Th1 Te2 73.657(12) 3_444 1_545
Te1 Th1 Te2 67.803(16) 6 1_545
Te1 Th1 Te2 124.586(17) . 1_545
Te1 Th1 Te2 134.781(15) 7 1_545
Te1 Th1 Te2 76.494(17) 4_545 1_545
Te2 Th1 Te2 144.49(2) . 1_545
Te3 Ba1 Te3 134.86(3) 7_556 7_566
Te3 Ba1 Te2 76.899(15) 7_556 .
Te3 Ba1 Te2 76.899(15) 7_566 .
Te3 Ba1 Te1 137.790(17) 7_556 3
Te3 Ba1 Te1 84.945(18) 7_566 3
Te2 Ba1 Te1 136.41(2) . 3
Te3 Ba1 Te1 84.945(18) 7_556 8
Te3 Ba1 Te1 137.790(17) 7_566 8
Te2 Ba1 Te1 136.405(19) . 8
Te1 Ba1 Te1 53.33(2) 3 8
Te3 Ba1 Te2 67.677(13) 7_556 5_566
Te3 Ba1 Te2 67.677(14) 7_566 5_566
Te2 Ba1 Te2 45.58(2) . 5_566
Te1 Ba1 Te2 151.741(11) 3 5_566
Te1 Ba1 Te2 151.741(11) 8 5_566
Te3 Ba1 Te3 88.477(18) 7_556 .
Te3 Ba1 Te3 88.477(17) 7_566 .
Te2 Ba1 Te3 139.83(3) . .
Te1 Ba1 Te3 77.54(3) 3 .
Te1 Ba1 Te3 77.54(3) 8 .
Te2 Ba1 Te3 94.25(3) 5_566 .
Te3 Ba1 Te1 76.69(2) 7_556 7
Te3 Ba1 Te1 125.594(18) 7_566 7
Te2 Ba1 Te1 69.36(2) . 7
Te1 Ba1 Te1 91.16(3) 3 7
Te1 Ba1 Te1 68.00(3) 8 7
Te2 Ba1 Te1 110.08(3) 5_566 7
Te3 Ba1 Te1 143.340(16) . 7
Te3 Ba1 Te1 125.594(18) 7_556 4
Te3 Ba1 Te1 76.69(2) 7_566 4
Te2 Ba1 Te1 69.36(2) . 4
Te1 Ba1 Te1 68.00(3) 3 4
Te1 Ba1 Te1 91.16(3) 8 4
Te2 Ba1 Te1 110.08(3) 5_566 4
Te3 Ba1 Te1 143.340(16) . 4
Te1 Ba1 Te1 52.18(2) 7 4
Te1 Te1 Te1 180.0 6_565 6
Te1 Te1 Th1 119.759(11) 6_565 .
Te1 Te1 Th1 60.240(11) 6 .
Te1 Te1 Th1 60.500(11) 6_565 7
Te1 Te1 Th1 119.501(10) 6 7
Th1 Te1 Th1 99.16(3) . 7
Te1 Te1 Ba1 116.664(10) 6_565 3_444
Te1 Te1 Ba1 63.335(10) 6 3_444
Th1 Te1 Ba1 89.86(3) . 3_444
Th1 Te1 Ba1 170.722(16) 7 3_444
Te1 Te1 Ba1 116.092(11) 6_565 7
Te1 Te1 Ba1 63.909(11) 6 7
Th1 Te1 Ba1 117.511(19) . 7
Th1 Te1 Ba1 85.07(3) 7 7
Ba1 Te1 Ba1 88.84(3) 3_444 7
Te2 Te2 Th1 103.903(13) 5_566 1_565
Te2 Te2 Th1 103.904(13) 5_566 .
Th1 Te2 Th1 144.49(2) 1_565 .
Te2 Te2 Ba1 68.62(3) 5_566 .
Th1 Te2 Ba1 84.995(12) 1_565 .
Th1 Te2 Ba1 84.996(12) . .
Te2 Te2 Ba1 65.79(3) 5_566 5_566
Th1 Te2 Ba1 105.649(12) 1_565 5_566
Th1 Te2 Ba1 105.649(12) . 5_566
Ba1 Te2 Ba1 134.42(2) . 5_566
Th1 Te3 Th1 90.53(3) 7_556 3
Th1 Te3 Ba1 88.612(18) 7_556 7_556
Th1 Te3 Ba1 112.534(13) 3 7_556
Th1 Te3 Ba1 88.612(17) 7_556 7_566
Th1 Te3 Ba1 112.534(13) 3 7_566
Ba1 Te3 Ba1 134.86(3) 7_556 7_566
Th1 Te3 Ba1 179.65(2) 7_556 .
Th1 Te3 Ba1 89.12(3) 3 .
Ba1 Te3 Ba1 91.523(17) 7_556 .
Ba1 Te3 Ba1 91.523(18) 7_566 .
loop_
_geom_bond_atom_site_label_1
_geom_bond_atom_site_label_2
_geom_bond_distance
_geom_bond_site_symmetry_2
Th1 Te3 3.1989(9) 7_556
Th1 Te3 3.2105(9) 3_444
Th1 Te1 3.2177(7) 6
Th1 Te1 3.2177(7) .
Th1 Te1 3.2347(7) 7
Th1 Te1 3.2347(7) 4_545
Th1 Te2 3.3495(6) .
Th1 Te2 3.3495(6) 1_545
Ba1 Te3 3.4545(7) 7_556
Ba1 Te3 3.4545(7) 7_566
Ba1 Te2 3.5322(13) .
Ba1 Te1 3.5590(9) 3
Ba1 Te1 3.5590(9) 8
Ba1 Te2 3.6062(10) 5_566
Ba1 Te3 3.6075(10) .
Ba1 Te1 3.6316(9) 7
Ba1 Te1 3.6315(9) 4
Te1 Te1 3.1857(11) 6_565
Te1 Te1 3.1943(11) 6
Te1 Th1 3.2347(7) 7
Te1 Ba1 3.5590(9) 3_444
Te1 Ba1 3.6315(9) 7
Te2 Te2 2.7661(12) 5_566
Te2 Th1 3.3495(6) 1_565
Te2 Ba1 3.6063(10) 5_566
Te3 Th1 3.1989(9) 7_556
Te3 Th1 3.2104(9) 3
Te3 Ba1 3.4545(7) 7_556
Te3 Ba1 3.4545(7) 7_566
