#------------------------------------------------------------------------------
#$Date: 2016-03-23 23:52:22 +0200 (Wed, 23 Mar 2016) $
#$Revision: 179516 $
#$URL: svn://www.crystallography.net/cod/cif/4/34/13/4341392.cif $
#------------------------------------------------------------------------------
#
# This file is available in the Crystallography Open Database (COD),
# http://www.crystallography.net/
#
# All data on this site have been placed in the public domain by the
# contributors.
#
data_4341392
loop_
_publ_author_name
'Ramachandran, Krishna K.'
'Stoyko, Stanislav S.'
'Mullen, C. Scott'
'Mar, Arthur'
_publ_section_title
;
 Rare-Earth Manganese Copper Phosphides REMnCu4P3 (RE = Gd-Ho): The First
 Quaternary Ordered Variants of the YCo5P3-Type Structure.
;
_journal_issue                   3
_journal_name_full               'Inorganic chemistry'
_journal_page_first              860
_journal_page_last               866
_journal_paper_doi               10.1021/ic502075x
_journal_volume                  54
_journal_year                    2015
_chemical_formula_structural     'Tb Mn Cu4 P3'
_chemical_formula_sum            'Cu4 Mn P3 Tb'
_chemical_formula_weight         560.93
_chemical_name_common
'terbium manganese copper phosphide (1/1/4/3)'
_chemical_name_systematic
'terbium manganese copper phosphide (1/1/4/3)'
_space_group_crystal_system      orthorhombic
_space_group_IT_number           62
_space_group_name_Hall           '-P 2ac 2n'
_space_group_name_H-M_alt        'P n m a'
_symmetry_space_group_name_Hall  '-P 2ac 2n'
_symmetry_space_group_name_H-M   'P n m a'
_atom_sites_solution_primary     direct
_atom_sites_solution_secondary   difmap
_audit_creation_method           SHELXL-2013
_cell_angle_alpha                90
_cell_angle_beta                 90
_cell_angle_gamma                90
_cell_formula_units_Z            4
_cell_length_a                   12.6535(4)
_cell_length_b                   3.79550(10)
_cell_length_c                   10.8761(3)
_cell_measurement_reflns_used    8813
_cell_measurement_temperature    173(2)
_cell_measurement_theta_max      33.26
_cell_measurement_theta_min      3.22
_cell_volume                     522.34(3)
_computing_cell_refinement       'Bruker SAINT 7.68A (Bruker, 2009)'
_computing_data_collection       'Bruker APEX 2 (Bruker, 2008)'
_computing_data_reduction        'Bruker SAINT 7.68A'
_computing_molecular_graphics    'ATOMS 5.1 (Dowty, 1999)'
_computing_publication_material  'Bruker SHELXTL'
_computing_structure_refinement  'Bruker SHELXTL'
_computing_structure_solution    'Bruker SHELXTL'
_diffrn_ambient_temperature      173(2)
_diffrn_measured_fraction_theta_full 1.000
_diffrn_measured_fraction_theta_max 0.995
_diffrn_measurement_device_type  'Bruker PLATFORM/SMART APEX II CCD'
_diffrn_measurement_method       '\w and \f scans'
_diffrn_radiation_type           MoK\a
_diffrn_radiation_wavelength     0.71073
_diffrn_reflns_av_R_equivalents  0.0235
_diffrn_reflns_av_unetI/netI     0.0158
_diffrn_reflns_Laue_measured_fraction_full 1.000
_diffrn_reflns_Laue_measured_fraction_max 0.995
_diffrn_reflns_limit_h_max       19
_diffrn_reflns_limit_h_min       -19
_diffrn_reflns_limit_k_max       5
_diffrn_reflns_limit_k_min       -5
_diffrn_reflns_limit_l_max       16
_diffrn_reflns_limit_l_min       -16
_diffrn_reflns_number            7202
_diffrn_reflns_point_group_measured_fraction_full 1.000
_diffrn_reflns_point_group_measured_fraction_max 0.995
_diffrn_reflns_theta_full        25.242
_diffrn_reflns_theta_max         33.279
_diffrn_reflns_theta_min         2.469
_diffrn_source                   'fine-focus sealed tube'
_exptl_absorpt_coefficient_mu    32.446
_exptl_absorpt_correction_T_max  0.3074
_exptl_absorpt_correction_T_min  0.0164
_exptl_absorpt_correction_type   numerical
_exptl_absorpt_process_details   'Bruker SHELXTL (Sheldrick, 2013)'
_exptl_crystal_colour            black
_exptl_crystal_density_diffrn    7.133
_exptl_crystal_density_method    'not measured'
_exptl_crystal_description       needle
_exptl_crystal_F_000             1004
_exptl_crystal_size_max          0.214
_exptl_crystal_size_mid          0.080
_exptl_crystal_size_min          0.054
_refine_diff_density_max         2.812
_refine_diff_density_min         -2.969
_refine_diff_density_rms         0.755
_refine_ls_extinction_coef       0.0050(3)
_refine_ls_extinction_expression Fc^*^=kFc[1+0.001xFc^2^\l^3^/sin(2\q)]^-1/4^
_refine_ls_extinction_method     SHELXL
_refine_ls_goodness_of_fit_ref   1.097
_refine_ls_hydrogen_treatment    undef
_refine_ls_matrix_type           full
_refine_ls_number_parameters     56
_refine_ls_number_reflns         1129
_refine_ls_number_restraints     0
_refine_ls_restrained_S_all      1.097
_refine_ls_R_factor_all          0.0209
_refine_ls_R_factor_gt           0.0200
_refine_ls_shift/su_max          0.001
_refine_ls_shift/su_mean         0.000
_refine_ls_structure_factor_coef Fsqd
_refine_ls_weighting_details
'w=1/[\s^2^(Fo^2^)+(0.0202P)^2^+3.7561P] where P=(Fo^2^+2Fc^2^)/3'
_refine_ls_weighting_scheme      calc
_refine_ls_wR_factor_gt          0.0447
_refine_ls_wR_factor_ref         0.0451
_reflns_Friedel_coverage         0.000
_reflns_number_gt                1077
_reflns_number_total             1129
_reflns_threshold_expression     'I > 2\s(I)'
_cod_data_source_file            ic502075x_si_002.cif
_cod_data_source_block           TbMnCu4P3
_cod_depositor_comments
'Adding full bibliography for 4341391--4341394.cif.'
_cod_database_code               4341392
#BEGIN Tags that were not found in dictionaries:
_shelx_space_group_comment
;
The symmetry employed for this shelxl refinement is uniquely defined
by the following loop, which should always be used as a source of
symmetry information in preference to the above space-group names.
They are only intended as comments.
;
_shelx_estimated_absorpt_t_min   0.055
_shelx_estimated_absorpt_t_max   0.273
_shelxl_version_number           2013-4
_shelx_res_file
;
TITL TbMnCu4P3 Pnma lsf final refinement
CELL 0.71073  12.65350   3.79550  10.87610  90.0000  90.0000  90.0000
ZERR    4.00   0.00040   0.00010   0.00030   0.0000   0.0000   0.0000
LATT  1
SYMM 0.5-X, -Y, 0.5+Z
SYMM -X, 0.5+Y, -Z
SYMM 0.5+X, 0.5-Y, 0.5-Z
SFAC P MN CU TB
UNIT 12 4 16 4
TEMP -100
SIZE 0.054 0.08 0.214

L.S. 4
ACTA

WGHT    0.020200    3.756100
EXTI    0.004981
FVAR       0.07063
TB    4    0.291391    0.250000    0.920606    10.50000    0.00617    0.00452 =
         0.00607    0.00000    0.00004    0.00000
MN    2    0.018405    0.250000    0.790651    10.50000    0.01744    0.00975 =
         0.01291    0.00000    0.00527    0.00000
CU1   3    0.004992    0.250000    0.410798    10.50000    0.00779    0.00743 =
         0.00852    0.00000    0.00029    0.00000
CU2   3    0.064298    0.250000    0.039657    10.50000    0.00675    0.00619 =
         0.00894    0.00000   -0.00035    0.00000
CU3   3    0.305353    0.250000    0.629150    10.50000    0.00934    0.00624 =
         0.00786    0.00000    0.00072    0.00000
CU4   3    0.321700    0.250000    0.216277    10.50000    0.00801    0.00757 =
         0.00726    0.00000   -0.00035    0.00000
P1    1    0.115603    0.250000    0.594065    10.50000    0.00635    0.00457 =
         0.00580    0.00000   -0.00018    0.00000
P2    1    0.129808    0.250000    0.244313    10.50000    0.00617    0.00515 =
         0.00554    0.00000   -0.00010    0.00000
P3    1    0.378146    0.250000    0.421988    10.50000    0.00524    0.00504 =
         0.00592    0.00000   -0.00021    0.00000
HKLF 4

REM  TbMnCu4P3 Pnma lsf final refinement
REM R1 =  0.0200 for    1077 Fo > 4sig(Fo)  and  0.0209 for all    1129 data
REM     56 parameters refined using      0 restraints

END

WGHT      0.0202      3.7561

REM Highest difference peak  2.812,  deepest hole -2.969,  1-sigma level  0.755
Q1    1  -0.0098  0.2500  0.7442  10.50000  0.05    2.81
Q2    1   0.0696  0.2500  0.7925  10.50000  0.05    2.24
Q3    1   0.2828  0.0830  0.8788  11.00000  0.05    1.25
Q4    1   0.2974  0.0148  0.4199  11.00000  0.05    1.18
Q5    1   0.2890  0.0785  0.9669  11.00000  0.05    1.17
Q6    1   0.0289 -0.0292 -0.0174  11.00000  0.05    1.04
Q7    1   0.1609 -0.0301  0.5239  11.00000  0.05    1.04
Q8    1   0.2506  0.0332  0.1898  11.00000  0.05    1.03
Q9    1   0.3528 -0.0352  0.9807  11.00000  0.05    1.03
Q10   1   0.3133 -0.0075  0.6654  11.00000  0.05    1.03
Q11   1   0.0580 -0.0004  0.3610  11.00000  0.05    1.01
Q12   1   0.0061 -0.0305  0.4510  11.00000  0.05    1.00
Q13   1   0.1010 -0.0366  0.1844  11.00000  0.05    0.99
Q14   1   0.0570  0.0248  0.4992  11.00000  0.05    0.99
Q15   1   0.3514 -0.0442  0.1992  11.00000  0.05    0.97
Q16   1   0.4672  0.0002  0.4393  11.00000  0.05    0.96
Q17   1   0.3119  0.0874  0.6028  11.00000  0.05    0.95
Q18   1   0.1439  0.0404  0.0125  11.00000  0.05    0.95
Q19   1   0.2632 -0.0447  0.6001  11.00000  0.05    0.95
Q20   1   0.3739  0.0425  0.4584  11.00000  0.05    0.94
;
_shelx_res_checksum              37910
_shelx_hkl_file
;
  -2  -1 -16    0.34    0.26
  -1  -1 -16    2.99    0.47
   0  -1 -16    0.02    0.23
   1  -1 -16    3.57    0.52
  -3   0 -16    1.16    0.34
  -2   0 -16    7.36    0.72
  -1   0 -16   43.20    1.76
   0   0 -16   22.19    1.16
   1   0 -16   41.62    1.75
   2   0 -16    7.99    0.54
   3   0 -16    0.96    0.23
   4   0 -16    3.20    0.53
   5   0 -16   10.23    0.82
  -2   1 -16    0.10    0.24
  -1   1 -16    3.88    0.38
   0   1 -16   -0.15    0.15
   1   1 -16    3.89    0.39
   2   1 -16    0.20    0.18
   3   1 -16   31.49    1.06
  -5  -2 -15    0.76    0.29
  -4  -2 -15   12.79    0.83
  -3  -2 -15    0.82    0.29
  -2  -2 -15    5.84    0.63
  -1  -2 -15    1.05    0.32
   0  -2 -15    0.10    0.22
   1  -2 -15    1.44    0.35
   2  -2 -15    7.17    0.71
   3  -2 -15    0.89    0.31
   4  -2 -15   11.87    0.83
  -8  -1 -15    3.91    0.51
  -7  -1 -15    0.10    0.25
  -6  -1 -15   15.11    0.90
  -5  -1 -15    0.49    0.26
  -4  -1 -15    3.82    0.51
  -3  -1 -15    2.33    0.42
  -2  -1 -15   10.87    0.75
  -1  -1 -15    0.08    0.21
   0  -1 -15   16.17    0.95
   1  -1 -15   -0.03    0.20
   2  -1 -15   10.53    0.76
   3  -1 -15    2.82    0.47
   4  -1 -15    4.23    0.40
   5  -1 -15    0.40    0.19
   6  -1 -15   15.24    0.67
   7  -1 -15   -0.05    0.28
  -7   0 -15   16.61    0.98
  -6   0 -15   28.92    1.36
  -5   0 -15    1.03    0.32
  -4   0 -15   13.64    0.86
  -3   0 -15    1.00    0.30
  -2   0 -15    8.50    0.66
  -1   0 -15    1.78    0.35
   0   0 -15    0.39    0.17
   1   0 -15    2.05    0.28
   2   0 -15    9.09    0.50
   3   0 -15    1.40    0.25
   4   0 -15   14.82    0.66
   5   0 -15    1.96    0.29
   6   0 -15   28.54    1.01
   7   0 -15   16.84    0.74
  -6   1 -15   14.18    0.92
  -5   1 -15    0.08    0.24
  -4   1 -15    3.19    0.48
  -3   1 -15    3.18    0.33
  -2   1 -15   11.57    0.55
  -1   1 -15    0.14    0.16
   0   1 -15   17.19    0.69
   1   1 -15   -0.05    0.15
   2   1 -15   10.93    0.55
   3   1 -15    2.57    0.32
   4   1 -15    3.19    0.36
   5   1 -15    0.45    0.20
   6   1 -15   15.10    0.69
   7   1 -15    0.31    0.27
  -5   2 -15    1.29    0.37
  -4   2 -15   14.02    0.89
  -3   2 -15    0.80    0.22
  -2   2 -15    7.04    0.51
  -1   2 -15    1.67    0.27
   0   2 -15    0.06    0.17
   1   2 -15    1.70    0.29
   2   2 -15    6.89    0.51
   3   2 -15    0.60    0.22
   4   2 -15   13.20    0.86
   3  -3 -14   43.79    1.78
  -7  -2 -14    8.30    0.67
  -6  -2 -14   19.22    1.06
  -5  -2 -14    4.11    0.51
  -4  -2 -14   14.28    0.85
  -3  -2 -14   15.58    0.89
  -2  -2 -14   38.20    1.59
  -1  -2 -14   25.85    1.23
   0  -2 -14   48.01    1.80
   1  -2 -14   27.50    1.28
   2  -2 -14   40.87    1.66
   3  -2 -14   17.08    0.95
   4  -2 -14   16.47    0.93
   5  -2 -14    3.78    0.51
   6  -2 -14   18.79    1.04
   7  -2 -14    7.24    0.72
   8  -2 -14    5.96    0.72
  -9  -1 -14   13.76    0.86
  -8  -1 -14   22.73    0.80
  -7  -1 -14   26.49    1.23
  -6  -1 -14   19.44    1.03
  -5  -1 -14    7.54    0.60
  -4  -1 -14   35.50    1.49
  -3  -1 -14   61.16    2.21
  -2  -1 -14   80.02    2.63
  -1  -1 -14    1.78    0.36
   0  -1 -14   -0.15    0.16
   1  -1 -14    1.44    0.33
   2  -1 -14   73.94    2.63
   3  -1 -14   61.91    1.61
   4  -1 -14   36.15    1.10
   5  -1 -14    7.33    0.50
   6  -1 -14   21.28    0.80
   7  -1 -14   24.44    0.90
   8  -1 -14   22.36    0.85
   9  -1 -14   12.98    0.95
  -9   0 -14   25.66    1.26
  -8   0 -14    9.34    0.70
  -7   0 -14    8.59    0.67
  -6   0 -14   21.92    1.12
  -5   0 -14    4.49    0.53
  -4   0 -14   15.62    0.91
  -3   0 -14   20.56    1.04
  -2   0 -14   46.64    1.79
  -1   0 -14   32.13    0.96
   0   0 -14   54.04    1.42
   1   0 -14   30.97    0.97
   2   0 -14   45.31    1.29
   3   0 -14   20.11    0.76
   4   0 -14   17.85    0.70
   5   0 -14    4.44    0.40
   6   0 -14   22.64    0.84
   7   0 -14    9.31    0.52
   8   0 -14    7.30    0.53
   9   0 -14   24.74    1.25
  -8   1 -14   22.22    1.17
  -7   1 -14   25.59    1.26
  -6   1 -14   21.02    1.10
  -5   1 -14    7.26    0.69
  -4   1 -14   36.31    1.07
  -3   1 -14   65.74    1.61
  -2   1 -14   73.95    1.86
  -1   1 -14    1.65    0.25
   0   1 -14    0.04    0.14
   1   1 -14    1.65    0.25
   2   1 -14   75.75    1.90
   3   1 -14   60.17    1.62
   4   1 -14   34.96    1.11
   5   1 -14    7.24    0.51
   6   1 -14   19.20    0.79
   7   1 -14   26.15    0.93
   8   1 -14   22.93    0.87
   9   1 -14   12.31    0.63
  10   1 -14    0.27    0.24
  -7   2 -14    8.21    0.51
  -6   2 -14   17.88    0.73
  -5   2 -14    4.75    0.41
  -4   2 -14   13.80    0.63
  -3   2 -14   15.68    0.67
  -2   2 -14   38.85    1.70
  -1   2 -14   28.21    0.94
   0   2 -14   43.91    1.29
   1   2 -14   26.92    0.93
   2   2 -14   41.70    1.21
   3   2 -14   16.72    0.70
   4   2 -14   14.55    0.65
   5   2 -14    3.77    0.58
   6   2 -14   18.47    1.17
  -5  -3 -13    0.79    0.32
  -4  -3 -13    7.88    0.82
  -3  -3 -13   65.51    2.46
   2  -3 -13   11.46    0.78
   3  -3 -13   60.11    2.23
   4  -3 -13    8.73    0.67
   5  -3 -13    0.52    0.27
   6  -3 -13    5.90    0.65
 -10  -2 -13    1.65    0.37
  -9  -2 -13    3.73    0.52
  -8  -2 -13    7.31    0.72
  -7  -2 -13   72.63    1.78
  -6  -2 -13    3.30    0.32
  -5  -2 -13   87.97    2.89
  -4  -2 -13    0.59    0.25
  -3  -2 -13    9.41    0.64
  -2  -2 -13    1.48    0.32
  -1  -2 -13   26.74    1.19
   0  -2 -13    0.03    0.18
   1  -2 -13   27.44    1.23
   2  -2 -13    1.42    0.32
   3  -2 -13    9.19    0.67
   4  -2 -13    1.24    0.31
   5  -2 -13   85.44    2.96
   6  -2 -13    3.37    0.35
   7  -2 -13   72.24    1.84
   8  -2 -13    7.01    0.51
   9  -2 -13    4.56    0.42
 -11  -1 -13   41.45    1.25
 -10  -1 -13    2.02    0.40
  -9  -1 -13   34.16    1.01
  -8  -1 -13   11.76    0.53
  -7  -1 -13    6.81    0.64
  -6  -1 -13    9.15    0.64
  -5  -1 -13    1.67    0.32
  -4  -1 -13   13.17    0.78
  -3  -1 -13   83.42    2.80
  -2  -1 -13   18.46    0.94
  -1  -1 -13   50.24    1.88
   0  -1 -13    3.86    0.47
   1  -1 -13   53.21    1.92
   2  -1 -13   19.80    0.70
   3  -1 -13   85.67    2.05
   4  -1 -13   13.47    0.59
   5  -1 -13    1.31    0.23
   6  -1 -13    8.28    0.50
   7  -1 -13    8.47    0.50
   8  -1 -13   12.25    0.59
   9  -1 -13   33.94    1.08
  10  -1 -13    2.19    0.31
  11  -1 -13   39.94    1.87
 -12   0 -13    0.55    0.30
 -11   0 -13    1.12    0.25
 -10   0 -13    1.29    0.34
  -9   0 -13    5.58    0.61
  -8   0 -13    9.77    0.70
  -7   0 -13   87.31    2.86
  -6   0 -13    4.44    0.52
  -5   0 -13  100.61    3.26
  -4   0 -13    1.17    0.28
  -3   0 -13   11.46    0.71
  -2   0 -13    1.75    0.23
  -1   0 -13   32.87    0.95
   0   0 -13    0.02    0.11
   1   0 -13   31.21    0.95
   2   0 -13    1.88    0.25
   3   0 -13   10.44    0.50
   4   0 -13    0.85    0.20
   5   0 -13  102.17    2.39
   6   0 -13    3.83    0.36
   7   0 -13   85.88    2.10
   8   0 -13    9.91    0.53
   9   0 -13    5.22    0.44
  10   0 -13    1.81    0.28
  11   0 -13    0.90    0.24
 -10   1 -13    2.82    0.49
  -9   1 -13   33.57    1.49
  -8   1 -13   13.23    0.84
  -7   1 -13    8.13    0.65
  -6   1 -13    8.16    0.64
  -5   1 -13    1.56    0.23
  -4   1 -13   13.64    0.57
  -3   1 -13   86.04    2.03
  -2   1 -13   18.71    0.68
  -1   1 -13   52.39    1.36
   0   1 -13    3.96    0.34
   1   1 -13   52.55    1.38
   2   1 -13   18.99    0.71
   3   1 -13   86.61    2.07
   4   1 -13   13.33    0.59
   5   1 -13    1.07    0.23
   6   1 -13    8.36    0.50
   7   1 -13    8.16    0.50
   8   1 -13   12.29    0.59
   9   1 -13   31.74    1.07
  10   1 -13    2.73    0.33
  11   1 -13   41.70    1.72
  -9   2 -13    4.56    0.60
  -8   2 -13    7.94    0.50
  -7   2 -13   72.76    1.83
  -6   2 -13    3.32    0.34
  -5   2 -13   89.99    2.15
  -4   2 -13    0.46    0.18
  -3   2 -13    9.52    0.49
  -2   2 -13    1.58    0.24
  -1   2 -13   26.64    0.89
   0   2 -13    0.17    0.15
   1   2 -13   27.18    0.90
   2   2 -13    1.18    0.23
   3   2 -13    9.37    0.50
   4   2 -13    1.06    0.22
   5   2 -13   90.01    2.18
   6   2 -13    4.08    0.60
   7   2 -13   66.87    2.76
   8   2 -13    6.23    0.78
   9   2 -13    4.53    0.69
  -7   3 -13    5.26    0.65
  -6   3 -13    6.03    0.49
  -5   3 -13    0.48    0.20
  -4   3 -13    8.74    0.58
  -2   3 -13   12.89    0.91
  -1   3 -13   38.95    1.75
   0   3 -13    2.54    0.48
   1   3 -13   38.83    1.77
   2   3 -13   13.96    0.97
   3   3 -13   61.11    2.49
   4   3 -13    8.31    0.88
   5   3 -13    0.73    0.35
  -8  -3 -12   22.70    1.23
  -7  -3 -12   -0.06    0.23
  -6  -3 -12   38.78    1.76
  -5  -3 -12    1.41    0.37
  -4  -3 -12    1.56    0.39
  -3  -3 -12    0.51    0.27
   1  -3 -12    0.22    0.21
   2  -3 -12    2.62    0.40
   3  -3 -12    0.76    0.27
   4  -3 -12    0.80    0.28
   5  -3 -12    0.93    0.29
   6  -3 -12   40.89    1.66
   7  -3 -12    0.32    0.23
   8  -3 -12   22.71    1.15
 -11  -2 -12    3.65    0.51
 -10  -2 -12   34.27    1.47
  -9  -2 -12    0.06    0.20
  -8  -2 -12   43.20    1.76
  -7  -2 -12    6.78    0.42
  -6  -2 -12    0.28    0.15
  -5  -2 -12    1.89    0.34
  -4  -2 -12    1.37    0.29
  -3  -2 -12    0.14    0.17
  -2  -2 -12   17.13    0.87
  -1  -2 -12    0.45    0.21
   0  -2 -12   15.12    0.83
   1  -2 -12    0.29    0.19
   2  -2 -12   16.89    0.88
   3  -2 -12   -0.15    0.14
   4  -2 -12    1.52    0.23
   5  -2 -12    2.25    0.27
   6  -2 -12    0.47    0.17
   7  -2 -12    6.08    0.45
   8  -2 -12   44.69    1.29
   9  -2 -12    0.23    0.17
  10  -2 -12   32.81    1.08
  11  -2 -12    3.35    0.56
 -13  -1 -12    1.39    0.36
 -12  -1 -12   17.18    0.70
 -11  -1 -12    3.48    0.36
 -10  -1 -12   17.90    0.67
  -9  -1 -12   12.01    0.52
  -8  -1 -12   30.47    0.91
  -7  -1 -12    0.02    0.19
  -6  -1 -12   51.06    1.91
  -5  -1 -12    1.57    0.32
  -4  -1 -12    3.21    0.41
  -3  -1 -12    2.20    0.34
  -2  -1 -12    2.26    0.34
  -1  -1 -12    0.14    0.15
   0  -1 -12    0.10    0.11
   1  -1 -12    0.06    0.11
   2  -1 -12    3.08    0.29
   3  -1 -12    2.16    0.26
   4  -1 -12    3.46    0.32
   5  -1 -12    2.03    0.26
   6  -1 -12   56.28    1.45
   7  -1 -12    0.06    0.13
   8  -1 -12   29.58    0.97
   9  -1 -12   10.49    0.54
  10  -1 -12   17.29    0.72
  11  -1 -12    3.54    0.37
  12  -1 -12   16.49    0.72
 -13   0 -12    9.13    0.55
 -12   0 -12   51.20    1.44
 -11   0 -12    3.86    0.37
 -10   0 -12   40.40    1.61
  -9   0 -12    0.21    0.22
  -8   0 -12   55.91    2.03
  -7   0 -12    7.78    0.60
  -6   0 -12    0.30    0.18
  -5   0 -12    2.83    0.39
  -4   0 -12    1.73    0.32
  -3   0 -12   -0.09    0.11
  -2   0 -12   18.86    0.63
  -1   0 -12    0.52    0.15
   0   0 -12   17.12    0.62
   1   0 -12    0.61    0.16
   2   0 -12   19.21    0.68
   3   0 -12    0.09    0.12
   4   0 -12    1.54    0.22
   5   0 -12    2.51    0.28
   6   0 -12    0.30    0.15
   7   0 -12    7.56    0.46
   8   0 -12   56.70    1.51
   9   0 -12    0.19    0.15
  10   0 -12   37.19    1.17
  11   0 -12    4.10    0.40
  12   0 -12   49.74    1.95
  13   0 -12    8.38    0.53
 -12   1 -12   17.35    1.02
 -11   1 -12    4.52    0.57
 -10   1 -12   16.80    0.99
  -9   1 -12   12.49    0.80
  -8   1 -12   30.52    1.35
  -7   1 -12    0.03    0.12
  -6   1 -12   54.64    1.39
  -5   1 -12    2.04    0.24
  -4   1 -12    3.27    0.31
  -3   1 -12    1.93    0.24
  -2   1 -12    2.45    0.26
  -1   1 -12    0.30    0.14
   0   1 -12    0.25    0.14
   1   1 -12    0.17    0.13
   2   1 -12    2.40    0.27
   3   1 -12    1.75    0.25
   4   1 -12    3.50    0.33
   5   1 -12    2.26    0.28
   6   1 -12   53.87    1.45
   7   1 -12    0.03    0.14
   8   1 -12   27.37    0.95
   9   1 -12   10.92    0.45
  10   1 -12   17.38    0.59
  11   1 -12    3.75    0.32
  12   1 -12   16.20    0.59
  13   1 -12    1.03    0.39
 -11   2 -12    3.61    0.55
 -10   2 -12   35.73    1.56
  -9   2 -12    0.19    0.17
  -8   2 -12   44.48    1.27
  -7   2 -12    6.83    0.47
  -6   2 -12    0.13    0.15
  -5   2 -12    1.97    0.27
  -4   2 -12    1.56    0.24
  -3   2 -12    0.18    0.14
  -2   2 -12   17.06    0.65
  -1   2 -12    0.74    0.18
   0   2 -12   16.48    0.64
   1   2 -12    0.80    0.18
   2   2 -12   17.05    0.66
   3   2 -12    0.39    0.16
   4   2 -12    1.35    0.24
   5   2 -12    2.03    0.28
   6   2 -12    0.70    0.21
   7   2 -12    6.27    0.49
   8   2 -12   43.11    1.34
   9   2 -12    0.33    0.21
  10   2 -12   32.40    1.16
  11   2 -12    3.47    0.42
  -8   3 -12   21.96    0.86
  -7   3 -12    0.08    0.17
  -6   3 -12   42.18    1.81
  -5   3 -12    1.92    0.29
  -4   3 -12    1.82    0.28
  -3   3 -12    1.11    0.24
  -2   3 -12    2.12    0.44
  -1   3 -12    0.14    0.22
   0   3 -12    0.11    0.25
   1   3 -12    0.36    0.25
   2   3 -12    2.91    0.50
   3   3 -12    0.75    0.32
   4   3 -12    1.39    0.41
   5   3 -12    1.77    0.29
   6   3 -12   40.97    1.30
   7   3 -12   -0.03    0.18
   8   3 -12   22.16    0.93
   9   3 -12    7.95    0.83
  -4  -4 -11   20.03    1.21
  -3  -4 -11    0.44    0.31
  -2  -4 -11    8.48    0.90
  -1  -4 -11   29.50    1.59
   0  -4 -11    0.19    0.28
   1  -4 -11   30.13    1.64
   2  -4 -11    9.06    0.99
   3  -4 -11    0.92    0.42
 -10  -3 -11    4.66    0.59
  -9  -3 -11   22.32    1.23
  -8  -3 -11   40.56    1.75
  -7  -3 -11    3.54    0.52
  -6  -3 -11    0.69    0.29
  -5  -3 -11    1.15    0.32
  -4  -3 -11    7.65    0.75
  -3  -3 -11   67.98    2.59
  -2  -3 -11   31.78    1.50
   1  -3 -11    6.78    0.52
   2  -3 -11   33.24    1.35
   3  -3 -11   72.71    2.43
   4  -3 -11    6.79    0.55
   5  -3 -11    1.31    0.31
   6  -3 -11    1.02    0.28
   7  -3 -11    2.48    0.41
   8  -3 -11   42.22    1.23
   9  -3 -11   24.68    0.88
  10  -3 -11    4.29    0.41
 -12  -2 -11    3.15    0.35
 -11  -2 -11    0.02    0.14
 -10  -2 -11   12.50    0.81
  -9  -2 -11   38.95    1.57
  -8  -2 -11    2.22    0.39
  -7  -2 -11   28.80    0.87
  -6  -2 -11   26.76    0.84
  -5  -2 -11   51.59    1.80
  -4  -2 -11   32.14    1.26
  -3  -2 -11    0.47    0.20
  -2  -2 -11   15.76    0.79
  -1  -2 -11   65.50    2.17
   0  -2 -11    0.08    0.16
   1  -2 -11   63.88    2.18
   2  -2 -11   15.36    0.81
   3  -2 -11    0.33    0.14
   4  -2 -11   31.54    0.95
   5  -2 -11   53.69    1.37
   6  -2 -11   26.90    0.88
   7  -2 -11   26.73    0.90
   8  -2 -11    1.86    0.26
   9  -2 -11   36.10    1.12
  10  -2 -11   14.03    0.95
  11  -2 -11   -0.02    0.24
  12  -2 -11    2.71    0.51
 -14  -1 -11    9.32    0.70
 -13  -1 -11   21.45    0.81
 -12  -1 -11    1.43    0.25
 -11  -1 -11   25.11    0.88
 -10  -1 -11    5.47    0.39
  -9  -1 -11   33.25    0.95
  -8  -1 -11   58.24    1.43
  -7  -1 -11    2.33    0.36
  -6  -1 -11    1.83    0.32
  -5  -1 -11    0.90    0.24
  -4  -1 -11    9.32    0.59
  -3  -1 -11  111.46    3.36
  -2  -1 -11   47.76    1.74
  -1  -1 -11    8.95    0.39
   0  -1 -11    6.31    0.34
   1  -1 -11    8.86    0.41
   2  -1 -11   50.18    1.28
   3  -1 -11  110.59    2.45
   4  -1 -11    8.68    0.44
   5  -1 -11    1.78    0.23
   6  -1 -11    1.64    0.23
   7  -1 -11    3.34    0.32
   8  -1 -11   57.19    1.51
   9  -1 -11   31.65    1.01
  10  -1 -11    5.16    0.65
  11  -1 -11   27.05    0.98
  12  -1 -11    1.47    0.30
  13  -1 -11   20.50    0.87
  14  -1 -11    9.62    0.93
 -14   0 -11    0.14    0.18
 -13   0 -11   -0.03    0.15
 -12   0 -11    5.42    0.44
 -11   0 -11    0.21    0.15
 -10   0 -11   16.15    0.65
  -9   0 -11   45.70    1.71
  -8   0 -11    1.92    0.34
  -7   0 -11   32.28    1.33
  -6   0 -11   33.39    1.32
  -5   0 -11   61.51    2.07
  -4   0 -11   36.36    0.97
  -3   0 -11    0.34    0.13
  -2   0 -11   17.96    0.60
  -1   0 -11   84.61    1.89
   0   0 -11    0.20    0.12
   1   0 -11   81.72    1.90
   2   0 -11   17.73    0.63
   3   0 -11    0.37    0.14
   4   0 -11   36.89    1.04
   5   0 -11   59.32    1.52
   6   0 -11   30.85    0.96
   7   0 -11   33.86    1.01
   8   0 -11    2.32    0.23
   9   0 -11   45.40    1.04
  10   0 -11   15.70    0.55
  11   0 -11    0.20    0.13
  12   0 -11    4.17    0.33
  13   0 -11    0.10    0.15
  14   0 -11   -0.01    0.27
 -13   1 -11   22.12    1.17
 -12   1 -11    1.90    0.41
 -11   1 -11   26.97    1.28
 -10   1 -11    4.99    0.58
  -9   1 -11   33.24    1.42
  -8   1 -11   60.05    1.47
  -7   1 -11    3.39    0.30
  -6   1 -11    2.20    0.25
  -5   1 -11    1.46    0.20
  -4   1 -11    9.60    0.44
  -3   1 -11  112.07    2.43
  -2   1 -11   50.54    1.28
  -1   1 -11    7.91    0.40
   0   1 -11    6.18    0.35
   1   1 -11    8.48    0.41
   2   1 -11   50.61    1.30
   3   1 -11  109.28    2.46
   4   1 -11    9.19    0.45
   5   1 -11    1.37    0.18
   6   1 -11    1.95    0.20
   7   1 -11    3.08    0.25
   8   1 -11   56.17    1.23
   9   1 -11   32.96    0.85
  10   1 -11    5.56    0.37
  11   1 -11   27.69    0.78
  12   1 -11    1.72    0.23
  13   1 -11   21.42    0.70
  14   1 -11    8.04    0.89
 -12   2 -11    3.36    0.52
 -11   2 -11   -0.06    0.21
 -10   2 -11   13.64    0.62
  -9   2 -11   36.93    1.11
  -8   2 -11    2.08    0.27
  -7   2 -11   28.13    0.91
  -6   2 -11   27.16    0.88
  -5   2 -11   50.91    1.36
  -4   2 -11   31.43    0.95
  -3   2 -11    0.29    0.14
  -2   2 -11   15.70    0.60
  -1   2 -11   62.58    1.59
   0   2 -11   -0.15    0.10
   1   2 -11   64.91    1.61
   2   2 -11   14.98    0.59
   3   2 -11    0.45    0.12
   4   2 -11   32.52    0.78
   5   2 -11   51.57    1.12
   6   2 -11   27.49    0.74
   7   2 -11   27.90    0.97
   8   2 -11    2.09    0.31
   9   2 -11   37.56    1.23
  10   2 -11   14.63    0.71
  11   2 -11    0.11    0.20
  12   2 -11    3.55    0.43
 -10   3 -11    4.42    0.43
  -9   3 -11   23.88    0.89
  -8   3 -11   39.16    1.23
  -7   3 -11    2.64    0.32
  -6   3 -11    1.15    0.24
  -5   3 -11    1.23    0.24
  -4   3 -11    7.15    0.49
  -3   3 -11   71.35    1.80
  -2   3 -11   33.91    1.54
  -1   3 -11    6.89    0.71
   0   3 -11    5.74    0.65
   1   3 -11    7.16    0.73
   2   3 -11   32.99    1.04
   3   3 -11   71.28    1.84
   4   3 -11    7.93    0.49
   5   3 -11    0.88    0.23
   6   3 -11    1.95    0.30
   7   3 -11    2.16    0.33
   8   3 -11   41.28    1.36
   9   3 -11   24.74    1.37
  10   3 -11    3.27    0.43
  -4   4 -11   20.27    1.21
  -3   4 -11    0.57    0.31
  -2   4 -11    8.81    0.88
  -1   4 -11   32.65    1.62
   0   4 -11    0.07    0.27
   1   4 -11   31.31    1.09
   2   4 -11    8.20    0.55
   3   4 -11    0.48    0.22
   4   4 -11   19.87    0.86
   5   4 -11   30.81    1.54
  -8  -4 -10    5.76    0.71
  -6  -4 -10   10.43    0.86
  -5  -4 -10    0.20    0.26
  -4  -4 -10    8.15    0.84
  -3  -4 -10   15.25    1.04
  -2  -4 -10   -0.11    0.24
  -1  -4 -10  118.12    4.09
   0  -4 -10   12.97    0.98
   1  -4 -10  116.01    4.12
   2  -4 -10    0.02    0.25
   3  -4 -10   16.76    1.18
 -11  -3 -10    0.09    0.17
 -10  -3 -10    7.03    0.51
  -9  -3 -10   20.62    1.13
  -8  -3 -10    3.40    0.50
  -7  -3 -10   47.61    1.90
  -6  -3 -10    2.07    0.40
  -5  -3 -10   92.52    3.10
  -4  -3 -10    3.32    0.49
  -3  -3 -10  128.36    4.11
  -2  -3 -10    8.02    0.66
   1  -3 -10    7.41    0.53
   2  -3 -10    8.12    0.56
   3  -3 -10  123.36    3.86
   4  -3 -10    3.79    0.45
   5  -3 -10   92.09    2.93
   6  -3 -10    2.68    0.29
   7  -3 -10   47.77    1.31
   8  -3 -10    2.64    0.47
   9  -3 -10   20.06    1.16
  10  -3 -10    6.16    0.72
  11  -3 -10    0.48    0.31
 -13  -2 -10   42.24    1.26
 -12  -2 -10    0.63    0.19
 -11  -2 -10   41.40    1.23
 -10  -2 -10   29.43    1.31
  -9  -2 -10   72.62    2.43
  -8  -2 -10   11.19    0.48
  -7  -2 -10   30.15    0.87
  -6  -2 -10   25.30    0.78
  -5  -2 -10    0.06    0.15
  -4  -2 -10   18.91    0.85
  -3  -2 -10   28.79    1.12
  -2  -2 -10    0.16    0.15
  -1  -2 -10  221.34    6.24
   0  -2 -10   26.81    1.12
   1  -2 -10  220.19    6.27
   2  -2 -10    0.13    0.11
   3  -2 -10   29.76    0.86
   4  -2 -10   19.02    0.66
   5  -2 -10    0.12    0.12
   6  -2 -10   25.49    0.83
   7  -2 -10   28.11    0.91
   8  -2 -10   11.05    0.77
   9  -2 -10   70.60    2.59
  10  -2 -10   29.92    1.07
  11  -2 -10   42.31    1.36
  12  -2 -10    1.01    0.26
  13  -2 -10   41.90    1.38
  14  -2 -10    0.19    0.36
 -14  -1 -10   11.79    0.58
 -13  -1 -10   50.71    1.41
 -12  -1 -10   20.23    0.74
 -11  -1 -10    0.39    0.13
 -10  -1 -10    9.78    0.45
  -9  -1 -10   28.87    0.84
  -8  -1 -10    5.66    0.34
  -7  -1 -10   63.31    2.15
  -6  -1 -10    3.48    0.40
  -5  -1 -10  140.71    4.09
  -4  -1 -10    5.12    0.42
  -3  -1 -10  202.86    5.74
  -2  -1 -10   12.80    0.68
  -1  -1 -10   12.80    0.45
   0  -1 -10    0.30    0.12
   1  -1 -10   13.60    0.49
   2  -1 -10   14.16    0.52
   3  -1 -10  205.89    4.18
   4  -1 -10    5.32    0.36
   5  -1 -10  138.36    3.00
   6  -1 -10    3.00    0.29
   7  -1 -10   65.52    1.34
   8  -1 -10    4.86    0.41
   9  -1 -10   28.52    0.97
  10  -1 -10   10.81    0.57
  11  -1 -10    0.45    0.20
  12  -1 -10   17.83    0.79
  13  -1 -10   50.30    1.52
  14  -1 -10   11.41    0.64
  15  -1 -10    6.78    0.83
 -15   0 -10    1.10    0.24
 -14   0 -10    0.34    0.19
 -13   0 -10   51.84    1.41
 -12   0 -10    0.45    0.16
 -11   0 -10   48.50    1.33
 -10   0 -10   38.46    1.09
  -9   0 -10   82.75    2.78
  -8   0 -10   12.55    0.74
  -7   0 -10   35.78    1.41
  -6   0 -10   34.95    1.33
  -5   0 -10    0.33    0.11
  -4   0 -10   25.42    0.72
  -3   0 -10   34.67    0.92
  -2   0 -10    0.12    0.10
  -1   0 -10  281.53    5.56
   0   0 -10   36.01    0.97
   1   0 -10  281.86    5.58
   2   0 -10    0.14    0.12
   3   0 -10   35.13    0.97
   4   0 -10   23.01    0.75
   5   0 -10    0.14    0.10
   6   0 -10   34.49    0.81
   7   0 -10   37.15    0.87
   8   0 -10   14.40    0.48
   9   0 -10   88.24    1.71
  10   0 -10   36.19    1.17
  11   0 -10   50.69    1.46
  12   0 -10    0.67    0.22
  13   0 -10   48.92    1.50
  14   0 -10    0.34    0.22
  15   0 -10    0.69    0.26
 -14   1 -10   11.06    0.81
 -13   1 -10   49.93    1.98
 -12   1 -10   18.88    1.05
 -11   1 -10    0.55    0.25
 -10   1 -10   11.05    0.51
  -9   1 -10   27.90    0.70
  -8   1 -10    5.10    0.34
  -7   1 -10   67.65    1.58
  -6   1 -10    3.07    0.27
  -5   1 -10  139.50    2.95
  -4   1 -10    5.95    0.34
  -3   1 -10  209.58    4.16
  -2   1 -10   13.16    0.50
  -1   1 -10   12.06    0.47
   0   1 -10    0.09    0.11
   1   1 -10   11.36    0.47
   2   1 -10   13.89    0.41
   3   1 -10  201.13    3.40
   4   1 -10    5.79    0.27
   5   1 -10  139.65    2.46
   6   1 -10    3.13    0.24
   7   1 -10   64.90    1.33
   8   1 -10    5.17    0.33
   9   1 -10   26.87    0.74
  10   1 -10   10.81    0.44
  11   1 -10    0.28    0.14
  12   1 -10   19.13    0.63
  13   1 -10   52.60    1.45
  14   1 -10   11.62    0.66
 -13   2 -10   43.17    1.81
 -12   2 -10    0.46    0.27
 -11   2 -10   43.64    1.24
 -10   2 -10   30.67    0.97
  -9   2 -10   68.42    1.73
  -8   2 -10    9.95    0.49
  -7   2 -10   29.42    0.91
  -6   2 -10   26.28    0.83
  -5   2 -10    0.29    0.13
  -4   2 -10   18.28    0.65
  -3   2 -10   27.36    0.85
  -2   2 -10    0.09    0.12
  -1   2 -10  227.15    4.57
   0   2 -10   27.80    0.67
   1   2 -10  223.11    3.72
   2   2 -10    0.12    0.09
   3   2 -10   27.88    0.69
   4   2 -10   18.56    0.54
   5   2 -10    0.11    0.11
   6   2 -10   25.52    0.69
   7   2 -10   28.34    0.98
   8   2 -10   10.94    0.58
   9   2 -10   68.69    1.88
  10   2 -10   29.72    1.09
  11   2 -10   41.66    1.39
  12   2 -10    0.46    0.23
  13   2 -10   43.18    1.43
  14   2 -10    0.35    0.37
 -11   3 -10    0.20    0.18
 -10   3 -10    5.79    0.47
  -9   3 -10   20.70    0.81
  -8   3 -10    3.84    0.37
  -7   3 -10   45.23    1.32
  -6   3 -10    2.42    0.29
  -5   3 -10   88.91    2.16
  -4   3 -10    3.77    0.35
  -3   3 -10  127.09    2.86
  -2   3 -10    8.49    0.37
  -1   3 -10    7.75    0.42
   0   3 -10    0.13    0.12
   1   3 -10    6.28    0.41
   2   3 -10    9.04    0.47
   3   3 -10  129.36    2.95
   4   3 -10    3.55    0.36
   5   3 -10   89.51    2.25
   6   3 -10    2.30    0.32
   7   3 -10   45.94    1.43
   8   3 -10    3.21    0.41
   9   3 -10   19.98    0.91
  10   3 -10    6.17    0.58
  11   3 -10    0.09    0.25
  12   3 -10   13.89    1.36
  -6   4 -10   12.32    0.92
  -5   4 -10    0.06    0.26
  -4   4 -10    7.91    0.82
  -3   4 -10   18.04    0.74
  -2   4 -10   -0.16    0.15
  -1   4 -10  122.88    2.86
   0   4 -10   14.42    0.66
   1   4 -10  123.57    2.89
   2   4 -10   -0.07    0.16
   3   4 -10   16.98    0.76
   4   4 -10    9.68    0.60
   5   4 -10    0.32    0.21
   6   4 -10   12.31    0.70
   7   4 -10   18.42    0.88
   8   4 -10    6.78    0.99
  -9  -4  -9    8.48    0.82
  -8  -4  -9   24.23    0.93
  -7  -4  -9    0.50    0.30
  -6  -4  -9   34.30    1.66
  -5  -4  -9    5.51    0.68
  -4  -4  -9   27.58    1.41
  -3  -4  -9    0.20    0.24
  -2  -4  -9   12.31    0.89
  -1  -4  -9    2.28    0.46
   0  -4  -9   -0.12    0.22
   1  -4  -9    3.27    0.55
   2  -4  -9   11.64    0.90
   3  -4  -9    0.03    0.26
 -12  -3  -9   55.32    1.56
 -11  -3  -9    1.01    0.23
 -10  -3  -9    0.99    0.22
  -9  -3  -9    7.99    0.47
  -8  -3  -9   10.64    0.77
  -7  -3  -9    1.59    0.35
  -6  -3  -9   25.90    1.26
  -5  -3  -9    8.50    0.66
  -4  -3  -9    1.05    0.30
  -3  -3  -9   -0.03    0.16
  -2  -3  -9   18.83    1.01
   1  -3  -9    1.51    0.28
   2  -3  -9   18.76    0.86
   3  -3  -9    0.08    0.14
   4  -3  -9    1.41    0.29
   5  -3  -9    8.45    0.43
   6  -3  -9   28.23    0.87
   7  -3  -9    2.24    0.40
   8  -3  -9   11.07    0.80
   9  -3  -9    7.27    0.75
  10  -3  -9    1.38    0.30
  11  -3  -9    0.78    0.29
  12  -3  -9   53.17    1.72
  13  -3  -9   16.86    1.35
 -14  -2  -9    3.93    0.58
 -13  -2  -9    0.79    0.21
 -12  -2  -9    1.62    0.26
 -11  -2  -9    3.51    0.33
 -10  -2  -9    9.10    0.47
  -9  -2  -9   13.39    0.78
  -8  -2  -9   37.67    1.02
  -7  -2  -9    1.23    0.18
  -6  -2  -9   57.13    1.39
  -5  -2  -9   10.64    0.44
  -4  -2  -9   47.90    1.63
  -3  -2  -9    0.37    0.17
  -2  -2  -9   27.16    1.08
  -1  -2  -9    5.48    0.40
   0  -2  -9   -0.09    0.11
   1  -2  -9    4.81    0.28
   2  -2  -9   27.69    0.80
   3  -2  -9    0.57    0.14
   4  -2  -9   49.40    1.24
   5  -2  -9   11.66    0.48
   6  -2  -9   56.03    2.12
   7  -2  -9    1.35    0.25
   8  -2  -9   38.22    1.21
   9  -2  -9   13.67    0.67
  10  -2  -9    9.40    0.59
  11  -2  -9    3.80    0.42
  12  -2  -9    1.76    0.32
  13  -2  -9    0.42    0.24
  14  -2  -9    2.94    0.41
 -15  -1  -9    1.35    0.37
 -14  -1  -9   35.80    1.09
 -13  -1  -9   26.74    0.88
 -12  -1  -9   77.51    1.89
 -11  -1  -9    1.30    0.16
 -10  -1  -9    0.50    0.12
  -9  -1  -9   11.34    0.46
  -8  -1  -9   17.20    0.58
  -7  -1  -9    3.46    0.27
  -6  -1  -9   43.71    1.57
  -5  -1  -9   15.06    0.72
  -4  -1  -9    1.16    0.23
  -3  -1  -9    0.06    0.13
  -2  -1  -9   24.22    0.68
  -1  -1  -9    1.81    0.19
   0  -1  -9   62.70    1.45
   1  -1  -9    1.72    0.20
   2  -1  -9   27.41    0.75
   3  -1  -9   -0.05    0.09
   4  -1  -9    0.95    0.14
   5  -1  -9   15.50    0.47
   6  -1  -9   45.50    1.26
   7  -1  -9    3.92    0.36
   8  -1  -9   17.28    0.70
   9  -1  -9   11.85    0.58
  10  -1  -9    0.64    0.20
  11  -1  -9    0.70    0.22
  12  -1  -9   76.65    2.04
  13  -1  -9   25.34    0.98
  14  -1  -9   33.41    1.19
  15  -1  -9    1.20    0.27
 -16   0  -9   21.06    0.83
 -15   0  -9    1.31    0.26
 -14   0  -9    5.18    0.42
 -13   0  -9    1.72    0.26
 -12   0  -9    2.09    0.27
 -11   0  -9    3.75    0.34
 -10   0  -9   10.72    0.48
  -9   0  -9   18.21    0.89
  -8   0  -9   45.24    1.13
  -7   0  -9    1.36    0.27
  -6   0  -9   68.81    1.55
  -5   0  -9   14.05    0.48
  -4   0  -9   58.81    1.36
  -3   0  -9    0.99    0.15
  -2   0  -9   40.44    1.00
  -1   0  -9    6.03    0.30
   0   0  -9   -0.02    0.08
   1   0  -9    6.89    0.33
   2   0  -9   39.47    0.81
   3   0  -9    0.72    0.12
   4   0  -9   59.29    1.16
   5   0  -9   14.15    0.44
   6   0  -9   67.58    1.35
   7   0  -9    1.24    0.16
   8   0  -9   47.72    1.32
   9   0  -9   17.66    0.72
  10   0  -9   11.09    0.57
  11   0  -9    6.19    0.49
  12   0  -9    1.46    0.27
  13   0  -9    0.86    0.25
  14   0  -9    5.18    0.49
  15   0  -9    1.65    0.31
 -15   1  -9    1.23    0.35
 -14   1  -9   34.86    1.54
 -13   1  -9   24.89    1.23
 -12   1  -9   79.74    1.91
 -11   1  -9    0.80    0.19
 -10   1  -9    1.04    0.15
  -9   1  -9   11.76    0.39
  -8   1  -9   17.55    0.60
  -7   1  -9    3.53    0.29
  -6   1  -9   45.06    1.15
  -5   1  -9   14.92    0.53
  -4   1  -9    0.96    0.16
  -3   1  -9    0.00    0.09
  -2   1  -9   26.15    0.74
  -1   1  -9    2.13    0.22
   0   1  -9   64.83    1.18
   1   1  -9    2.03    0.16
   2   1  -9   25.00    0.59
   3   1  -9    0.08    0.08
   4   1  -9    1.02    0.14
   5   1  -9   14.17    0.44
   6   1  -9   46.18    0.99
   7   1  -9    3.58    0.26
   8   1  -9   17.28    0.54
   9   1  -9   10.71    0.42
  10   1  -9    0.44    0.14
  11   1  -9    1.07    0.17
  12   1  -9   76.40    2.06
  13   1  -9   26.20    1.01
  14   1  -9   34.24    1.21
  15   1  -9    1.53    0.32
 -14   2  -9    4.70    0.61
 -13   2  -9    0.96    0.30
 -12   2  -9    2.19    0.28
 -11   2  -9    3.31    0.33
 -10   2  -9    9.52    0.48
  -9   2  -9   13.64    0.57
  -8   2  -9   38.14    1.07
  -7   2  -9    1.34    0.21
  -6   2  -9   59.60    1.46
  -5   2  -9   11.06    0.48
  -4   2  -9   48.30    1.24
  -3   2  -9    0.43    0.10
  -2   2  -9   28.84    0.66
  -1   2  -9    4.64    0.25
   0   2  -9    0.04    0.08
   1   2  -9    5.36    0.25
   2   2  -9   28.64    0.67
   3   2  -9    0.38    0.11
   4   2  -9   48.45    1.02
   5   2  -9   10.52    0.39
   6   2  -9   58.96    1.21
   7   2  -9    1.28    0.17
   8   2  -9   37.66    1.20
   9   2  -9   14.25    0.69
  10   2  -9    9.56    0.61
  11   2  -9    3.10    0.38
  12   2  -9    1.58    0.33
  13   2  -9    1.08    0.30
  14   2  -9    3.66    0.46
 -12   3  -9   55.51    1.57
 -11   3  -9    1.01    0.23
 -10   3  -9    1.16    0.23
  -9   3  -9    8.73    0.50
  -8   3  -9   12.55    0.57
  -7   3  -9    2.14    0.27
  -6   3  -9   25.67    0.87
  -5   3  -9    9.07    0.37
  -4   3  -9    1.31    0.17
  -3   3  -9    0.06    0.10
  -2   3  -9   18.42    0.54
  -1   3  -9    1.42    0.22
   0   3  -9   43.78    1.21
   1   3  -9    1.70    0.23
   2   3  -9   18.73    0.70
   3   3  -9    0.02    0.12
   4   3  -9    1.12    0.22
   5   3  -9    8.70    0.52
   6   3  -9   27.33    0.96
   7   3  -9    1.77    0.30
   8   3  -9   11.23    0.64
   9   3  -9    7.34    0.61
  10   3  -9    0.97    0.30
  11   3  -9    0.43    0.28
  12   3  -9   53.83    2.48
  -8   4  -9   25.89    1.38
  -7   4  -9    0.84    0.32
  -6   4  -9   35.85    1.72
  -5   4  -9    6.35    0.49
  -4   4  -9   28.57    0.99
  -3   4  -9    0.19    0.16
  -2   4  -9   11.83    0.58
  -1   4  -9    2.03    0.28
   0   4  -9   -0.10    0.14
   1   4  -9    2.28    0.31
   2   4  -9   11.62    0.60
   3   4  -9   -0.01    0.16
   4   4  -9   28.40    1.04
   5   4  -9    5.65    0.51
   6   4  -9   38.53    1.30
   7   4  -9    0.98    0.28
   8   4  -9   23.92    1.42
  -3  -5  -8   43.66    2.01
  -2  -5  -8    4.88    0.69
  -1  -5  -8    7.09    0.82
   3  -5  -8   44.23    2.01
 -10  -4  -8    4.89    0.65
  -9  -4  -8    4.16    0.42
  -8  -4  -8    0.58    0.20
  -7  -4  -8    4.80    0.42
  -6  -4  -8    0.56    0.29
  -5  -4  -8   36.74    1.65
  -4  -4  -8   12.11    0.85
  -3  -4  -8    2.24    0.43
  -2  -4  -8    0.30    0.24
  -1  -4  -8   16.68    1.04
   0  -4  -8   22.48    1.22
   1  -4  -8   18.58    1.08
   2  -4  -8    0.20    0.23
   3  -4  -8    1.72    0.41
   9  -4  -8    3.99    0.59
  10  -4  -8    5.42    0.71
 -13  -3  -8   27.97    0.99
 -12  -3  -8    3.15    0.35
 -11  -3  -8   35.08    1.12
 -10  -3  -8   19.48    0.76
  -9  -3  -8   45.33    1.32
  -8  -3  -8   14.30    0.88
  -7  -3  -8   34.03    1.47
  -6  -3  -8    1.08    0.28
  -5  -3  -8    1.47    0.32
  -4  -3  -8   17.60    0.94
  -3  -3  -8   93.87    3.12
  -2  -3  -8    7.72    0.59
  -1  -3  -8   23.50    1.11
   1  -3  -8   23.36    0.94
   2  -3  -8    6.61    0.46
   3  -3  -8   93.85    2.91
   4  -3  -8   18.62    0.63
   5  -3  -8    1.55    0.32
   6  -3  -8    1.82    0.28
   7  -3  -8   34.37    1.16
   8  -3  -8   14.35    0.72
   9  -3  -8   44.10    1.46
  10  -3  -8   21.75    0.93
  11  -3  -8   36.41    1.31
  12  -3  -8    3.08    0.43
  13  -3  -8   27.67    1.14
 -15  -2  -8   44.69    1.98
 -14  -2  -8   16.56    0.69
 -13  -2  -8   42.89    1.25
 -12  -2  -8    5.92    0.43
 -11  -2  -8   30.97    0.95
 -10  -2  -8    5.69    0.41
  -9  -2  -8    4.76    0.50
  -8  -2  -8    0.76    0.15
  -7  -2  -8    7.41    0.36
  -6  -2  -8    1.82    0.20
  -5  -2  -8   79.66    1.77
  -4  -2  -8   19.50    0.83
  -3  -2  -8    1.67    0.25
  -2  -2  -8    0.03    0.13
  -1  -2  -8   29.43    1.11
   0  -2  -8   41.50    1.01
   1  -2  -8   31.34    0.83
   2  -2  -8    0.01    0.09
   3  -2  -8    1.66    0.19
   4  -2  -8   20.66    0.57
   5  -2  -8   80.21    1.98
   6  -2  -8    2.13    0.29
   7  -2  -8    9.58    0.55
   8  -2  -8    2.29    0.30
   9  -2  -8    4.99    0.46
  10  -2  -8    6.36    0.53
  11  -2  -8   30.89    1.11
  12  -2  -8    6.45    0.55
  13  -2  -8   43.00    1.41
  14  -2  -8   15.21    0.78
  15  -2  -8   44.23    1.49
 -16  -1  -8    1.04    0.37
 -15  -1  -8    2.56    0.31
 -14  -1  -8    5.02    0.41
 -13  -1  -8   39.67    1.14
 -12  -1  -8    5.06    0.30
 -11  -1  -8   55.79    1.12
 -10  -1  -8   30.43    0.72
  -9  -1  -8   69.33    1.59
  -8  -1  -8   22.77    0.67
  -7  -1  -8   53.33    1.27
  -6  -1  -8    3.40    0.36
  -5  -1  -8    5.92    0.41
  -4  -1  -8   26.13    1.02
  -3  -1  -8  160.70    3.19
  -2  -1  -8    8.61    0.32
  -1  -1  -8   53.57    1.24
   0  -1  -8    0.16    0.09
   1  -1  -8   54.46    1.27
   2  -1  -8    7.63    0.28
   3  -1  -8  160.78    2.70
   4  -1  -8   27.54    0.65
   5  -1  -8    6.18    0.40
   6  -1  -8    3.74    0.34
   7  -1  -8   55.26    1.46
   8  -1  -8   21.66    0.81
   9  -1  -8   70.38    1.82
  10  -1  -8   29.88    1.02
  11  -1  -8   52.39    1.53
  12  -1  -8    4.71    0.44
  13  -1  -8   37.47    1.26
  14  -1  -8    4.88    0.47
  15  -1  -8    2.00    0.33
  16  -1  -8    1.43    0.30
 -16   0  -8    6.84    0.50
 -15   0  -8   52.81    1.48
 -14   0  -8   17.32    0.69
 -13   0  -8   52.45    1.39
 -12   0  -8    6.94    0.42
 -11   0  -8   37.93    1.06
 -10   0  -8    7.50    0.38
  -9   0  -8    5.62    0.25
  -8   0  -8    0.91    0.14
  -7   0  -8   10.11    0.39
  -6   0  -8    2.38    0.20
  -5   0  -8  109.14    2.26
  -4   0  -8   26.41    0.71
  -3   0  -8    1.13    0.15
  -2   0  -8    0.34    0.11
  -1   0  -8   39.30    0.95
   0   0  -8   53.49    0.98
   1   0  -8   39.03    0.76
   2   0  -8    0.57    0.10
   3   0  -8    1.25    0.14
   4   0  -8   26.10    0.62
   5   0  -8  106.70    1.93
   6   0  -8    2.23    0.27
   7   0  -8   10.87    0.51
   8   0  -8    0.79    0.20
   9   0  -8    5.11    0.43
  10   0  -8    6.68    0.70
  11   0  -8   36.06    1.18
  12   0  -8    5.79    0.49
  13   0  -8   50.27    1.51
  14   0  -8   17.52    0.79
  15   0  -8   53.55    1.61
  16   0  -8    6.84    0.57
 -16   1  -8    1.54    0.38
 -15   1  -8    2.20    0.42
 -14   1  -8    5.44    0.43
 -13   1  -8   40.46    1.16
 -12   1  -8    5.49    0.40
 -11   1  -8   55.33    1.14
 -10   1  -8   30.31    0.73
  -9   1  -8   72.52    1.36
  -8   1  -8   22.90    0.57
  -7   1  -8   53.67    1.30
  -6   1  -8    4.28    0.27
  -5   1  -8    5.96    0.31
  -4   1  -8   26.87    0.75
  -3   1  -8  161.30    2.64
  -2   1  -8    8.14    0.26
  -1   1  -8   55.72    1.02
   0   1  -8    0.11    0.07
   1   1  -8   55.08    1.04
   2   1  -8    7.88    0.28
   3   1  -8  158.92    2.68
   4   1  -8   26.48    0.63
   5   1  -8    6.10    0.27
   6   1  -8    3.49    0.24
   7   1  -8   52.19    1.12
   8   1  -8   21.86    0.62
   9   1  -8   68.70    1.82
  10   1  -8   30.84    1.05
  11   1  -8   51.75    1.56
  12   1  -8    4.95    0.47
  13   1  -8   38.72    1.30
  14   1  -8    5.73    0.52
  15   1  -8    2.87    0.39
  16   1  -8    1.36    0.31
 -15   2  -8   44.89    1.91
 -14   2  -8   18.09    1.03
 -13   2  -8   42.69    1.25
 -12   2  -8    6.26    0.44
 -11   2  -8   29.83    0.95
 -10   2  -8    6.46    0.40
  -9   2  -8    4.50    0.36
  -8   2  -8    0.94    0.17
  -7   2  -8    7.83    0.40
  -6   2  -8    1.54    0.16
  -5   2  -8   79.88    1.48
  -4   2  -8   20.13    0.52
  -3   2  -8    1.64    0.16
  -2   2  -8    0.20    0.09
  -1   2  -8   31.25    0.69
   0   2  -8   42.87    0.86
   1   2  -8   32.25    0.70
   2   2  -8    0.12    0.08
   3   2  -8    1.49    0.16
   4   2  -8   20.79    0.54
   5   2  -8   80.40    1.51
   6   2  -8    1.94    0.19
   7   2  -8    8.05    0.35
   8   2  -8    0.44    0.19
   9   2  -8    5.32    0.47
  10   2  -8    6.32    0.54
  11   2  -8   27.83    1.09
  12   2  -8    4.86    0.50
  13   2  -8   43.36    1.45
  14   2  -8   16.39    0.85
  15   2  -8   42.40    2.16
 -13   3  -8   27.79    0.98
 -12   3  -8    2.95    0.35
 -11   3  -8   35.79    1.12
 -10   3  -8   21.03    0.77
  -9   3  -8   48.45    1.33
  -8   3  -8   15.45    0.64
  -7   3  -8   34.85    0.84
  -6   3  -8    1.11    0.16
  -5   3  -8    1.55    0.18
  -4   3  -8   17.22    0.52
  -3   3  -8   94.44    1.76
  -2   3  -8    6.61    0.29
  -1   3  -8   22.65    0.75
   0   3  -8    0.11    0.12
   1   3  -8   21.53    0.75
   2   3  -8    7.03    0.39
   3   3  -8   93.86    2.24
   4   3  -8   16.80    0.68
   5   3  -8    1.75    0.27
   6   3  -8    1.34    0.25
   7   3  -8   34.74    1.15
   8   3  -8   15.82    0.76
   9   3  -8   50.10    1.55
  10   3  -8   20.72    0.97
  11   3  -8   35.87    1.36
  12   3  -8    2.68    0.61
  13   3  -8   25.25    1.65
  -9   4  -8    2.85    0.52
  -8   4  -8    0.60    0.21
  -7   4  -8    4.05    0.41
  -6   4  -8    0.86    0.21
  -5   4  -8   36.49    1.16
  -4   4  -8   12.00    0.58
  -3   4  -8    1.97    0.28
  -2   4  -8    0.23    0.15
  -1   4  -8   18.62    0.73
   0   4  -8   22.34    0.84
   1   4  -8   17.80    0.73
   2   4  -8    0.14    0.16
   3   4  -8    1.61    0.27
   4   4  -8   11.93    0.61
   5   4  -8   37.15    1.23
   6   4  -8    0.82    0.25
   7   4  -8    5.57    0.53
   8   4  -8    0.46    0.33
   9   4  -8    3.93    0.66
  -2   5  -8    3.53    0.57
  -1   5  -8    7.34    0.58
   0   5  -8    0.28    0.19
   1   5  -8    6.32    0.80
   2   5  -8    3.08    0.59
   3   5  -8   44.54    2.10
  -4  -5  -7   -0.01    0.28
  -3  -5  -7   35.35    1.69
  -2  -5  -7    8.00    0.84
  -1  -5  -7   75.57    2.81
   3  -5  -7   34.58    1.72
   4  -5  -7   -0.30    0.21
 -11  -4  -7    8.82    0.87
 -10  -4  -7    9.86    0.56
  -9  -4  -7   10.97    0.58
  -8  -4  -7    0.52    0.19
  -7  -4  -7   52.87    1.49
  -6  -4  -7    7.45    0.74
  -5  -4  -7  126.60    4.19
  -4  -4  -7   38.07    1.57
  -3  -4  -7   73.63    2.65
  -2  -4  -7    0.14    0.20
  -1  -4  -7    7.63    0.72
   0  -4  -7    0.31    0.22
   1  -4  -7    7.44    0.71
   2  -4  -7    0.05    0.19
   3  -4  -7   74.30    2.63
   7  -4  -7   55.05    2.41
   8  -4  -7    0.37    0.38
   9  -4  -7   12.58    1.26
  10  -4  -7   11.08    1.26
  11  -4  -7    8.88    1.17
 -14  -3  -7    1.96    0.30
 -13  -3  -7   13.24    0.63
 -12  -3  -7   11.71    0.59
 -11  -3  -7   36.29    1.12
 -10  -3  -7    1.45    0.24
  -9  -3  -7   65.52    1.76
  -8  -3  -7   57.21    1.53
  -7  -3  -7   83.16    2.83
  -6  -3  -7   21.41    1.04
  -5  -3  -7    4.86    0.53
  -4  -3  -7   -0.03    0.14
  -3  -3  -7   71.64    2.46
  -2  -3  -7   17.03    0.91
  -1  -3  -7  163.69    4.88
   0  -3  -7   22.90    1.04
   1  -3  -7  163.84    4.59
   2  -3  -7   18.44    0.79
   3  -3  -7   70.07    2.27
   6  -3  -7   22.29    0.81
   7  -3  -7   85.91    3.22
   8  -3  -7   61.61    2.59
   9  -3  -7   70.60    2.97
  10  -3  -7    1.71    0.56
  11  -3  -7   36.54    2.07
  12  -3  -7   13.14    1.40
  13  -3  -7   13.01    0.79
  14  -3  -7    1.49    0.59
 -15  -2  -7   22.46    1.24
 -14  -2  -7   -0.04    0.14
 -13  -2  -7    7.49    0.44
 -12  -2  -7   11.23    0.51
 -11  -2  -7   18.86    0.69
 -10  -2  -7   19.01    0.67
  -9  -2  -7   17.57    0.63
  -8  -2  -7    1.10    0.16
  -7  -2  -7   95.49    2.03
  -6  -2  -7   14.77    0.49
  -5  -2  -7  247.69    4.87
  -4  -2  -7   70.28    1.59
  -3  -2  -7  157.17    4.43
  -2  -2  -7    0.28    0.13
  -1  -2  -7   14.11    0.64
   0  -2  -7    0.09    0.08
   1  -2  -7   15.75    0.49
   2  -2  -7    0.23    0.09
   3  -2  -7  155.59    3.39
   4  -2  -7   71.59    1.75
   5  -2  -7  245.02    4.22
   6  -2  -7   14.51    0.49
   7  -2  -7   94.91    2.32
   8  -2  -7    1.06    0.23
   9  -2  -7   17.65    0.78
  10  -2  -7   19.72    0.84
  11  -2  -7   19.06    0.84
  12  -2  -7   10.48    0.65
  13  -2  -7    7.52    0.60
  14  -2  -7    0.03    0.19
  15  -2  -7   22.15    0.96
 -16  -1  -7    0.08    0.25
 -15  -1  -7   13.80    0.61
 -14  -1  -7    2.28    0.28
 -13  -1  -7   14.71    0.60
 -12  -1  -7   16.85    0.49
 -11  -1  -7   51.87    1.06
 -10  -1  -7    1.62    0.16
  -9  -1  -7  107.57    1.91
  -8  -1  -7  100.87    2.12
  -7  -1  -7  151.57    2.98
  -6  -1  -7   37.22    0.93
  -5  -1  -7    6.59    0.43
  -4  -1  -7    0.23    0.08
  -3  -1  -7  118.03    2.36
  -2  -1  -7   31.37    0.77
  -1  -1  -7  289.41    5.56
   0  -1  -7   36.75    0.72
   1  -1  -7  286.61    4.60
   2  -1  -7   32.13    0.69
   3  -1  -7  116.60    1.74
   4  -1  -7    0.08    0.12
   5  -1  -7    7.41    0.40
   6  -1  -7   36.80    1.10
   7  -1  -7  145.96    3.27
   8  -1  -7   99.89    2.40
   9  -1  -7  108.11    2.59
  10  -1  -7    1.52    0.25
  11  -1  -7   49.86    1.48
  12  -1  -7   16.96    0.75
  13  -1  -7   15.63    0.73
  14  -1  -7    2.57    0.35
  15  -1  -7   14.60    0.72
  16  -1  -7    0.21    0.20
 -17   0  -7   10.54    0.56
 -16   0  -7   24.07    0.86
 -15   0  -7   26.43    0.90
 -14   0  -7    0.13    0.14
 -13   0  -7    9.15    0.45
 -12   0  -7   12.65    0.54
 -11   0  -7   24.31    0.79
 -10   0  -7   25.26    0.78
  -9   0  -7   21.08    0.52
  -8   0  -7    1.07    0.11
  -7   0  -7  118.77    2.46
  -6   0  -7   17.28    0.51
  -5   0  -7  331.03    6.18
  -4   0  -7   95.98    2.03
  -3   0  -7  228.47    4.36
  -2   0  -7    0.09    0.04
  -1   0  -7   19.60    0.41
   0   0  -7   -0.09    0.04
   1   0  -7   19.92    0.44
   2   0  -7    0.25    0.07
   3   0  -7  222.71    3.62
   4   0  -7   97.84    1.74
   5   0  -7  317.72    6.45
   6   0  -7   17.87    0.65
   7   0  -7  117.06    2.69
   8   0  -7    1.18    0.22
   9   0  -7   22.15    0.80
  10   0  -7   25.09    0.90
  11   0  -7   25.72    0.93
  12   0  -7   13.03    0.64
  13   0  -7    9.26    0.58
  14   0  -7   -0.02    0.16
  15   0  -7   27.16    1.01
  16   0  -7   22.07    0.93
  17   0  -7   10.75    0.67
 -16   1  -7   -0.07    0.20
 -15   1  -7   14.04    0.62
 -14   1  -7    2.91    0.31
 -13   1  -7   16.67    0.63
 -12   1  -7   16.57    0.62
 -11   1  -7   52.96    1.09
 -10   1  -7    1.54    0.16
  -9   1  -7  109.80    1.94
  -8   1  -7  102.70    1.79
  -7   1  -7  148.81    2.50
  -6   1  -7   38.48    0.78
  -5   1  -7    7.80    0.26
  -4   1  -7    0.33    0.08
  -3   1  -7  117.71    1.96
  -2   1  -7   32.25    0.65
  -1   1  -7  290.92    4.58
   0   1  -7   36.31    0.73
   1   1  -7  284.89    4.59
   2   1  -7   31.26    0.66
   3   1  -7  114.58    2.00
   4   1  -7    0.29    0.09
   5   1  -7    7.30    0.30
   6   1  -7   39.12    0.85
   7   1  -7  144.43    3.25
   8   1  -7   96.37    2.38
   9   1  -7  104.44    2.57
  10   1  -7    1.25    0.25
  11   1  -7   51.63    1.52
  12   1  -7   16.77    0.76
  13   1  -7   13.85    0.72
  14   1  -7    2.82    0.39
  15   1  -7   12.62    0.69
  16   1  -7    0.10    0.20
 -15   2  -7   22.52    1.19
 -14   2  -7    0.13    0.16
 -13   2  -7    7.90    0.45
 -12   2  -7   10.48    0.51
 -11   2  -7   17.94    0.67
 -10   2  -7   19.59    0.68
  -9   2  -7   17.51    0.63
  -8   2  -7    0.87    0.14
  -7   2  -7   93.66    1.72
  -6   2  -7   13.93    0.42
  -5   2  -7  253.96    4.08
  -4   2  -7   71.47    1.33
  -3   2  -7  157.15    2.66
  -2   2  -7    0.14    0.08
  -1   2  -7   15.32    0.35
   0   2  -7    0.10    0.07
   1   2  -7   14.79    0.34
   2   2  -7    0.26    0.07
   3   2  -7  158.37    2.68
   4   2  -7   73.36    1.36
   5   2  -7  252.09    4.12
   6   2  -7   14.25    0.44
   7   2  -7   95.11    1.78
   8   2  -7    1.55    0.27
   9   2  -7   16.75    0.76
  10   2  -7   17.66    0.82
  11   2  -7   18.37    0.85
  12   2  -7   10.07    0.67
  13   2  -7    8.39    0.67
  14   2  -7    0.42    0.36
  15   2  -7   21.01    1.45
 -14   3  -7    2.38    0.32
 -13   3  -7   12.83    0.62
 -12   3  -7   12.39    0.59
 -11   3  -7   35.95    1.12
 -10   3  -7    1.45    0.20
  -9   3  -7   71.55    1.46
  -8   3  -7   59.72    1.25
  -7   3  -7   83.78    1.63
  -6   3  -7   20.90    0.58
  -5   3  -7    5.14    0.30
  -4   3  -7    0.04    0.09
  -3   3  -7   73.98    1.22
  -2   3  -7   17.71    0.43
  -1   3  -7  162.36    2.84
   0   3  -7   19.98    0.55
   1   3  -7  162.00    2.84
   2   3  -7   17.94    0.51
   3   3  -7   70.97    1.78
   4   3  -7   -0.05    0.12
   5   3  -7    4.53    0.38
   6   3  -7   20.08    0.79
   7   3  -7   85.94    2.16
   8   3  -7   60.18    1.70
   9   3  -7   76.02    2.05
  10   3  -7    0.87    0.29
  11   3  -7   35.21    1.91
  12   3  -7   11.60    1.23
  13   3  -7   11.88    1.27
 -10   4  -7    9.81    0.59
  -9   4  -7   10.85    0.60
  -8   4  -7    0.62    0.21
  -7   4  -7   53.67    1.53
  -6   4  -7    7.46    0.53
  -5   4  -7  129.88    3.03
  -4   4  -7   32.46    1.06
  -3   4  -7   75.06    1.56
  -2   4  -7    0.07    0.11
  -1   4  -7    7.45    0.37
   0   4  -7    0.10    0.11
   1   4  -7    6.94    0.49
   2   4  -7    0.26    0.14
   3   4  -7   72.25    1.91
   4   4  -7   33.66    1.11
   5   4  -7  130.43    3.09
   6   4  -7    7.59    0.57
   7   4  -7   52.63    2.27
   8   4  -7    0.27    0.30
   9   4  -7   11.87    0.99
  10   4  -7    9.78    1.09
  -5   5  -7    3.33    0.56
  -4   5  -7    0.04    0.19
  -3   5  -7   33.68    1.19
  -2   5  -7    8.49    0.61
  -1   5  -7   72.19    2.82
   0   5  -7    9.57    0.61
   1   5  -7   73.74    2.02
   2   5  -7    7.96    0.60
   3   5  -7   33.48    1.69
  -6  -5  -6   46.31    2.01
  -5  -5  -6    0.04    0.26
  -4  -5  -6   36.40    1.66
  -3  -5  -6    0.30    0.28
  -2  -5  -6    6.06    0.71
  -1  -5  -6    1.45    0.40
   2  -5  -6    6.78    0.78
   3  -5  -6    0.70    0.34
   4  -5  -6   32.65    1.66
   5  -5  -6   -0.13    0.23
   6  -5  -6   45.95    2.10
   7  -5  -6   19.36    1.27
 -12  -4  -6   40.67    1.82
 -11  -4  -6   42.71    1.32
 -10  -4  -6   66.08    1.76
  -9  -4  -6    0.35    0.18
  -8  -4  -6    5.62    0.65
  -7  -4  -6    0.18    0.21
  -6  -4  -6    7.59    0.72
  -5  -4  -6   -0.01    0.18
  -4  -4  -6    7.04    0.67
  -3  -4  -6    9.69    0.69
  -2  -4  -6   17.90    0.99
  -1  -4  -6    0.95    0.27
   0  -4  -6  221.01    6.36
   1  -4  -6    1.34    0.30
   2  -4  -6   18.07    0.97
   5  -4  -6    0.14    0.18
   6  -4  -6    7.52    0.47
   7  -4  -6   -0.06    0.20
   8  -4  -6    5.73    0.73
   9  -4  -6    0.70    0.27
  10  -4  -6   65.18    2.02
  11  -4  -6   43.97    2.35
  12  -4  -6   40.14    2.29
 -15  -3  -6   29.25    1.43
 -14  -3  -6    7.79    0.55
 -13  -3  -6    0.00    0.15
 -12  -3  -6    0.56    0.19
 -11  -3  -6    3.87    0.37
 -10  -3  -6    1.73    0.24
  -9  -3  -6    0.07    0.12
  -8  -3  -6   49.77    1.34
  -7  -3  -6   41.15    1.64
  -6  -3  -6   91.46    2.95
  -5  -3  -6    0.23    0.18
  -4  -3  -6   68.60    2.36
  -3  -3  -6    1.72    0.31
  -2  -3  -6   13.32    0.74
  -1  -3  -6    2.34    0.35
   0  -3  -6    0.11    0.15
   1  -3  -6    2.41    0.21
   2  -3  -6   13.30    0.62
   6  -3  -6   90.52    2.11
   7  -3  -6   42.45    1.29
   8  -3  -6   51.38    1.52
   9  -3  -6    0.08    0.20
  10  -3  -6    2.32    0.41
  11  -3  -6    4.00    0.55
  12  -3  -6    0.91    0.48
  13  -3  -6   -0.03    0.43
  14  -3  -6    6.49    1.06
 -16  -2  -6    1.02    0.36
 -15  -2  -6    7.03    0.45
 -14  -2  -6   42.06    1.23
 -13  -2  -6   -0.03    0.12
 -12  -2  -6   61.18    1.56
 -11  -2  -6   74.78    1.83
 -10  -2  -6  109.63    2.47
  -9  -2  -6    0.96    0.17
  -8  -2  -6   13.86    0.48
  -7  -2  -6    0.10    0.10
  -6  -2  -6   18.06    0.55
  -5  -2  -6    0.27    0.10
  -4  -2  -6   14.32    0.46
  -3  -2  -6   22.14    0.61
  -2  -2  -6   27.72    0.97
  -1  -2  -6    1.21    0.13
   0  -2  -6  439.96    8.49
   1  -2  -6    1.33    0.15
   2  -2  -6   29.55    1.12
   4  -2  -6   15.20    0.86
   5  -2  -6    0.14    0.13
   6  -2  -6   18.99    0.70
   7  -2  -6    0.38    0.17
   8  -2  -6   14.63    0.70
   9  -2  -6    1.45    0.32
  10  -2  -6  112.51    2.93
  11  -2  -6   81.31    2.38
  12  -2  -6   64.86    2.81
  13  -2  -6   -0.02    0.16
  14  -2  -6   44.08    1.45
  15  -2  -6    6.55    0.59
  16  -2  -6    1.21    0.30
 -17  -1  -6    1.81    0.42
 -16  -1  -6   14.40    0.96
 -15  -1  -6   47.18    1.31
 -14  -1  -6   12.33    0.54
 -13  -1  -6    0.05    0.12
 -12  -1  -6    1.36    0.16
 -11  -1  -6    6.25    0.28
 -10  -1  -6    1.94    0.17
  -9  -1  -6    0.10    0.07
  -8  -1  -6   77.58    1.69
  -7  -1  -6   79.55    1.70
  -6  -1  -6  138.44    2.77
  -5  -1  -6    1.28    0.21
  -4  -1  -6  118.92    2.37
  -3  -1  -6    3.44    0.17
  -2  -1  -6   21.55    0.55
  -1  -1  -6    3.41    0.15
   0  -1  -6    0.09    0.07
   1  -1  -6    3.49    0.18
   2  -1  -6   22.97    0.53
   3  -1  -6    3.68    0.19
   4  -1  -6  119.27    2.12
   5  -1  -6    1.39    0.18
   6  -1  -6  138.73    2.53
   7  -1  -6   80.85    1.65
   8  -1  -6   77.98    1.67
   9  -1  -6    0.03    0.14
  10  -1  -6    2.38    0.27
  11  -1  -6    6.57    0.43
  12  -1  -6    1.96    0.30
  13  -1  -6    0.04    0.16
  14  -1  -6   11.02    0.61
  15  -1  -6   46.08    1.47
  16  -1  -6   14.33    0.73
  17  -1  -6    0.81    0.27
 -18   0  -6    7.79    0.76
 -17   0  -6    0.40    0.19
 -16   0  -6    2.01    0.28
 -15   0  -6    8.23    0.46
 -14   0  -6   50.28    1.36
 -13   0  -6    0.06    0.12
 -12   0  -6   71.76    1.70
 -11   0  -6  104.08    2.28
 -10   0  -6  144.97    2.39
  -9   0  -6    2.34    0.14
  -8   0  -6   19.52    0.41
  -7   0  -6    0.38    0.07
  -6   0  -6   26.82    0.69
  -5   0  -6    0.01    0.07
  -4   0  -6   22.41    0.58
  -3   0  -6   31.89    0.76
  -2   0  -6   34.10    0.63
  -1   0  -6    1.47    0.08
   0   0  -6  591.14    8.99
   1   0  -6    1.38    0.11
   2   0  -6   35.40    0.83
   3   0  -6   31.59    0.67
   4   0  -6   22.77    0.51
   5   0  -6    0.09    0.09
   6   0  -6   27.87    0.66
   7   0  -6    0.43    0.13
   8   0  -6   20.48    0.59
   9   0  -6    2.29    0.23
  10   0  -6  138.41    2.58
  11   0  -6  102.08    1.99
  12   0  -6   68.86    1.86
  13   0  -6   -0.05    0.13
  14   0  -6   49.21    1.49
  15   0  -6    7.09    0.56
  16   0  -6    1.56    0.30
  17   0  -6    0.59    0.24
  18   0  -6    8.57    0.87
 -17   1  -6    0.99    0.33
 -16   1  -6   14.27    0.65
 -15   1  -6   48.05    1.34
 -14   1  -6   10.98    0.53
 -13   1  -6    0.20    0.14
 -12   1  -6    1.57    0.18
 -11   1  -6    6.26    0.28
 -10   1  -6    1.86    0.17
  -9   1  -6    0.03    0.07
  -8   1  -6   78.89    1.25
  -7   1  -6   80.33    1.24
  -6   1  -6  139.00    2.32
  -5   1  -6    1.34    0.12
  -4   1  -6  119.68    1.99
  -3   1  -6    3.55    0.16
  -2   1  -6   22.41    0.48
  -1   1  -6    3.48    0.16
   0   1  -6    0.26    0.07
   1   1  -6    3.48    0.13
   2   1  -6   22.40    0.41
   3   1  -6    3.62    0.13
   4   1  -6  119.19    1.75
   5   1  -6    1.55    0.12
   6   1  -6  137.63    2.41
   7   1  -6   77.71    1.51
   8   1  -6   77.31    1.53
   9   1  -6    0.10    0.12
  10   1  -6    2.32    0.23
  11   1  -6    6.24    0.51
  12   1  -6    1.47    0.28
  13   1  -6   -0.06    0.16
  14   1  -6   11.96    0.66
  15   1  -6   47.06    1.48
  16   1  -6   13.73    0.75
  17   1  -6    0.95    0.42
 -16   2  -6    1.66    0.39
 -15   2  -6    6.84    0.49
 -14   2  -6   44.46    1.26
 -13   2  -6   -0.08    0.13
 -12   2  -6   59.51    1.55
 -11   2  -6   78.42    1.54
 -10   2  -6  109.38    2.03
  -9   2  -6    1.27    0.16
  -8   2  -6   14.15    0.44
  -7   2  -6    0.40    0.10
  -6   2  -6   19.37    0.50
  -5   2  -6   -0.03    0.07
  -4   2  -6   14.80    0.40
  -3   2  -6   21.67    0.52
  -2   2  -6   27.50    0.53
  -1   2  -6    1.16    0.11
   0   2  -6  443.08    6.10
   1   2  -6    1.15    0.10
   2   2  -6   27.92    0.52
   3   2  -6   21.43    0.44
   4   2  -6   14.21    0.34
   5   2  -6   -0.01    0.06
   6   2  -6   18.41    0.42
   7   2  -6    0.29    0.08
   8   2  -6   14.41    0.48
   9   2  -6    1.22    0.19
  10   2  -6  108.89    2.74
  11   2  -6   70.96    2.09
  12   2  -6   58.16    1.82
  13   2  -6    0.33    0.25
  14   2  -6   40.60    2.18
  15   2  -6    6.15    0.91
  16   2  -6    1.62    0.55
 -14   3  -6    9.34    0.56
 -13   3  -6   -0.01    0.16
 -12   3  -6    0.78    0.18
 -11   3  -6    3.94    0.31
 -10   3  -6    2.20    0.23
  -9   3  -6    0.20    0.11
  -8   3  -6   51.30    1.10
  -7   3  -6   42.48    0.95
  -6   3  -6   90.30    1.69
  -5   3  -6    0.19    0.10
  -4   3  -6   69.56    1.19
  -3   3  -6    1.57    0.14
  -2   3  -6   12.87    0.34
  -1   3  -6    2.67    0.21
   0   3  -6    0.11    0.09
   1   3  -6    2.37    0.19
   2   3  -6   12.27    0.40
   3   3  -6    2.16    0.19
   4   3  -6   69.66    1.39
   5   3  -6    0.27    0.11
   6   3  -6   90.14    1.75
   7   3  -6   44.18    1.01
   8   3  -6   49.84    1.16
   9   3  -6    0.30    0.21
  10   3  -6    1.39    0.45
  11   3  -6    4.20    0.72
  12   3  -6    0.61    0.46
  13   3  -6   -0.17    0.37
  14   3  -6    5.02    0.94
 -12   4  -6   39.20    1.28
 -11   4  -6   40.55    1.37
 -10   4  -6   64.02    1.81
  -9   4  -6    0.12    0.16
  -8   4  -6    6.45    0.50
  -7   4  -6   -0.14    0.13
  -6   4  -6    7.04    0.50
  -5   4  -6    0.14    0.15
  -4   4  -6    6.86    0.37
  -3   4  -6    9.63    0.41
  -2   4  -6   18.72    0.58
  -1   4  -6    0.80    0.15
   0   4  -6  217.41    3.77
   1   4  -6    0.86    0.16
   2   4  -6   18.54    0.57
   3   4  -6    8.91    0.39
   4   4  -6    6.08    0.35
   5   4  -6    0.10    0.12
   6   4  -6    7.16    0.40
   7   4  -6   -0.01    0.21
   8   4  -6    5.18    0.72
   9   4  -6    0.88    0.41
  10   4  -6   68.78    2.89
  11   4  -6   48.32    2.38
  -6   5  -6   46.78    1.46
  -5   5  -6    0.04    0.18
  -4   5  -6   34.56    0.97
  -3   5  -6    0.72    0.18
  -2   5  -6    7.04    0.45
  -1   5  -6    1.27    0.21
   0   5  -6   -0.01    0.13
   1   5  -6    1.29    0.21
   2   5  -6    6.36    0.52
   3   5  -6    0.77    0.23
   4   5  -6   35.38    1.73
   5   5  -6    0.16    0.26
  -7  -5  -5    2.18    0.46
  -6  -5  -5    0.22    0.28
  -5  -5  -5    4.55    0.62
  -4  -5  -5   11.99    0.86
  -3  -5  -5   32.06    1.55
  -2  -5  -5   10.29    0.78
   2  -5  -5   10.41    0.85
   3  -5  -5   37.92    1.75
   4  -5  -5   11.79    0.89
   5  -5  -5    4.40    0.63
   6  -5  -5    0.35    0.21
   7  -5  -5    1.09    0.41
   8  -5  -5    0.27    0.32
 -12  -4  -5   21.41    1.24
 -11  -4  -5    4.03    0.56
 -10  -4  -5    3.90    0.54
  -9  -4  -5   65.05    2.46
  -8  -4  -5   12.49    0.84
  -7  -4  -5    3.78    0.51
  -6  -4  -5   11.71    0.78
  -5  -4  -5   29.91    1.38
  -4  -4  -5    3.43    0.46
  -3  -4  -5   13.77    0.82
  -2  -4  -5    4.11    0.49
  -1  -4  -5   36.37    1.45
   0  -4  -5    0.17    0.18
   1  -4  -5   35.09    1.42
   2  -4  -5    5.27    0.53
   4  -4  -5    2.66    0.42
   5  -4  -5   32.05    1.43
   6  -4  -5   12.77    0.59
   7  -4  -5    4.29    0.40
   8  -4  -5   10.97    0.88
   9  -4  -5   62.83    2.69
  10  -4  -5    4.05    0.51
  11  -4  -5    3.63    0.51
  12  -4  -5   22.32    1.15
  13  -4  -5    6.16    1.09
 -15  -3  -5   30.02    1.03
 -14  -3  -5    4.63    0.42
 -13  -3  -5   56.71    1.55
 -12  -3  -5    9.04    0.49
 -11  -3  -5    1.59    0.25
 -10  -3  -5   10.37    0.50
  -9  -3  -5   18.21    0.68
  -8  -3  -5    1.48    0.22
  -7  -3  -5    6.17    0.35
  -6  -3  -5    1.19    0.27
  -5  -3  -5   10.64    0.65
  -4  -3  -5   25.01    1.09
  -3  -3  -5   74.41    2.46
  -2  -3  -5   21.15    0.94
  -1  -3  -5    0.70    0.21
   0  -3  -5   29.89    1.21
   1  -3  -5    1.01    0.14
   2  -3  -5   19.97    0.90
   5  -3  -5   10.71    0.62
   6  -3  -5    1.76    0.22
   7  -3  -5    6.40    0.38
   8  -3  -5    1.76    0.29
   9  -3  -5   20.53    0.88
  10  -3  -5   10.76    0.76
  11  -3  -5    1.13    0.34
  12  -3  -5   11.10    0.89
  13  -3  -5   64.20    2.89
  14  -3  -5    3.67    0.64
  15  -3  -5   28.57    1.94
 -16  -2  -5   17.72    1.09
 -15  -2  -5   30.05    0.98
 -14  -2  -5    3.01    0.33
 -13  -2  -5   10.99    0.51
 -12  -2  -5   40.90    1.16
 -11  -2  -5    5.91    0.37
 -10  -2  -5    7.69    0.39
  -9  -2  -5  123.12    2.74
  -8  -2  -5   20.47    0.66
  -7  -2  -5    4.33    0.24
  -6  -2  -5   20.93    0.59
  -5  -2  -5   64.87    1.39
  -4  -2  -5   12.63    0.40
  -3  -2  -5   60.59    1.29
  -2  -2  -5    7.80    0.26
  -1  -2  -5   94.26    1.92
   0  -2  -5    0.02    0.08
   1  -2  -5   93.20    2.70
   5  -2  -5   64.34    2.12
   6  -2  -5   21.67    0.57
   7  -2  -5    4.54    0.26
   8  -2  -5   20.59    0.83
   9  -2  -5  128.93    3.10
  10  -2  -5    8.17    0.69
  11  -2  -5    5.98    0.63
  12  -2  -5   42.15    1.66
  13  -2  -5   12.60    1.00
  14  -2  -5    4.17    0.60
  15  -2  -5   31.45    1.32
  16  -2  -5   19.74    0.90
 -17  -1  -5   30.77    1.56
 -16  -1  -5   66.71    2.59
 -15  -1  -5   42.60    1.19
 -14  -1  -5    5.70    0.41
 -13  -1  -5   84.77    1.57
 -12  -1  -5   13.52    0.42
 -11  -1  -5    1.59    0.16
 -10  -1  -5   14.95    0.42
  -9  -1  -5   29.70    0.65
  -8  -1  -5    5.99    0.24
  -7  -1  -5   17.62    0.51
  -6  -1  -5    2.53    0.19
  -5  -1  -5   15.61    0.34
  -4  -1  -5   44.08    0.95
  -3  -1  -5  135.51    2.65
  -2  -1  -5   33.08    0.74
  -1  -1  -5    5.45    0.21
   0  -1  -5   75.67    1.29
   1  -1  -5    5.59    0.20
   2  -1  -5   33.05    0.86
   3  -1  -5  134.50    2.31
   4  -1  -5   45.56    0.93
   5  -1  -5   16.01    0.48
   6  -1  -5    2.81    0.17
   7  -1  -5   18.78    0.82
   8  -1  -5    6.32    0.59
   9  -1  -5   29.06    1.19
  10  -1  -5   16.85    0.84
  11  -1  -5    1.38    0.21
  12  -1  -5   13.70    0.55
  13  -1  -5   81.47    1.78
  14  -1  -5    6.95    0.45
  15  -1  -5   42.31    1.10
  16  -1  -5   68.47    1.92
  17  -1  -5   31.52    1.17
  18  -1  -5   -0.09    0.26
 -18   0  -5    7.33    0.53
 -17   0  -5   15.34    0.68
 -16   0  -5   21.75    0.79
 -15   0  -5   34.93    1.05
 -14   0  -5    4.10    0.35
 -13   0  -5   14.32    0.57
 -12   0  -5   56.42    1.40
 -11   0  -5    7.29    0.36
 -10   0  -5    9.65    0.27
  -9   0  -5  174.77    2.46
  -8   0  -5   27.20    0.50
  -7   0  -5    3.95    0.15
  -6   0  -5   28.10    0.55
  -5   0  -5   86.81    1.79
  -4   0  -5   21.79    0.57
  -3   0  -5  103.47    1.67
  -2   0  -5   10.01    0.22
  -1   0  -5  148.08    2.34
   0   0  -5    0.11    0.05
   1   0  -5  147.12    2.37
   2   0  -5    9.96    0.28
   3   0  -5  100.08    1.75
   4   0  -5   23.37    0.54
   5   0  -5   88.55    1.61
   6   0  -5   28.03    0.69
   7   0  -5    3.79    0.28
   8   0  -5   27.72    0.73
   9   0  -5  169.77    3.06
  10   0  -5    9.08    0.42
  11   0  -5    7.22    0.39
  12   0  -5   54.84    1.27
  13   0  -5   13.96    0.54
  14   0  -5    4.98    0.36
  15   0  -5   34.50    0.95
  16   0  -5   19.72    0.86
  17   0  -5   15.56    0.75
  18   0  -5    7.30    0.80
 -17   1  -5   33.67    1.09
 -16   1  -5   68.90    1.77
 -15   1  -5   40.61    1.20
 -14   1  -5    5.57    0.41
 -13   1  -5   84.32    1.61
 -12   1  -5   13.48    0.44
 -11   1  -5    1.68    0.17
 -10   1  -5   14.15    0.42
  -9   1  -5   29.34    0.59
  -8   1  -5    6.27    0.22
  -7   1  -5   17.52    0.32
  -6   1  -5    2.63    0.14
  -5   1  -5   15.27    0.38
  -4   1  -5   45.28    1.02
  -3   1  -5  134.70    2.22
  -2   1  -5   32.69    0.63
  -1   1  -5    5.25    0.18
   0   1  -5   75.20    1.12
   1   1  -5    5.31    0.15
   2   1  -5   32.09    0.54
   3   1  -5  134.72    1.93
   4   1  -5   44.96    0.74
   5   1  -5   16.24    0.43
   6   1  -5    2.69    0.20
   7   1  -5   17.54    0.51
   8   1  -5    6.39    0.33
   9   1  -5   29.42    0.77
  10   1  -5   14.41    0.52
  11   1  -5    1.41    0.21
  12   1  -5   14.03    0.55
  13   1  -5   82.20    1.75
  14   1  -5    6.22    0.42
  15   1  -5   40.40    1.34
  16   1  -5   66.45    2.78
  17   1  -5   34.66    1.79
 -16   2  -5   17.73    0.75
 -15   2  -5   29.12    0.98
 -14   2  -5    3.42    0.35
 -13   2  -5   10.78    0.52
 -12   2  -5   42.93    1.00
 -11   2  -5    5.61    0.34
 -10   2  -5    7.71    0.33
  -9   2  -5  129.96    2.26
  -8   2  -5   20.83    0.55
  -7   2  -5    3.91    0.24
  -6   2  -5   22.22    0.54
  -5   2  -5   61.47    1.18
  -4   2  -5   12.72    0.36
  -3   2  -5   58.65    0.95
  -2   2  -5    7.22    0.22
  -1   2  -5   94.04    1.41
   0   2  -5    0.10    0.05
   1   2  -5   93.78    1.41
   2   2  -5    7.62    0.21
   3   2  -5   57.56    0.93
   4   2  -5   12.89    0.30
   5   2  -5   64.84    1.03
   6   2  -5   22.57    0.47
   7   2  -5    4.72    0.21
   8   2  -5   22.02    0.62
   9   2  -5  127.47    2.39
  10   2  -5    7.78    0.42
  11   2  -5    5.53    0.40
  12   2  -5   41.39    1.12
  13   2  -5    9.96    0.64
  14   2  -5    2.08    0.64
  15   2  -5   28.67    1.82
  16   2  -5   15.74    1.32
 -15   3  -5   28.61    1.02
 -14   3  -5    4.63    0.37
 -13   3  -5   54.58    1.29
 -12   3  -5   10.35    0.45
 -11   3  -5    2.04    0.23
 -10   3  -5   10.35    0.42
  -9   3  -5   19.51    0.58
  -8   3  -5    1.80    0.19
  -7   3  -5    5.21    0.30
  -6   3  -5    1.53    0.16
  -5   3  -5   10.78    0.36
  -4   3  -5   24.72    0.54
  -3   3  -5   76.33    1.24
  -2   3  -5   19.66    0.44
  -1   3  -5    0.95    0.13
   0   3  -5   31.24    0.72
   1   3  -5    1.44    0.15
   2   3  -5   19.95    0.53
   3   3  -5   75.30    1.45
   4   3  -5   26.80    0.65
   5   3  -5    9.37    0.36
   6   3  -5    1.46    0.18
   7   3  -5    6.05    0.33
   8   3  -5    1.81    0.21
   9   3  -5   20.01    0.65
  10   3  -5   10.77    0.61
  11   3  -5    1.62    0.31
  12   3  -5   10.19    0.66
  13   3  -5   55.79    2.85
  14   3  -5    3.71    0.90
  15   3  -5   27.90    2.06
 -13   4  -5    4.71    0.62
 -12   4  -5   21.96    0.73
 -11   4  -5    3.10    0.39
 -10   4  -5    4.41    0.45
  -9   4  -5   67.68    1.83
  -8   4  -5   11.35    0.58
  -7   4  -5    4.29    0.39
  -6   4  -5   12.62    0.59
  -5   4  -5   31.70    0.84
  -4   4  -5    2.70    0.25
  -3   4  -5   14.63    0.50
  -2   4  -5    3.99    0.29
  -1   4  -5   35.97    0.87
   0   4  -5    0.10    0.10
   1   4  -5   34.71    0.86
   2   4  -5    4.42    0.30
   3   4  -5   14.74    0.49
   4   4  -5    3.05    0.26
   5   4  -5   32.31    0.83
   6   4  -5   12.30    0.59
   7   4  -5    5.12    0.44
   8   4  -5   12.39    0.63
   9   4  -5   67.55    1.88
  10   4  -5    4.88    0.49
  11   4  -5    2.90    0.70
  12   4  -5   25.76    1.78
  -7   5  -5    1.29    0.28
  -6   5  -5    0.53    0.22
  -5   5  -5    4.47    0.37
  -4   5  -5   10.55    0.51
  -3   5  -5   34.77    0.95
  -2   5  -5    9.78    0.46
  -1   5  -5    0.24    0.14
   0   5  -5    8.56    0.45
   1   5  -5    0.19    0.14
   2   5  -5   10.73    0.58
   3   5  -5   33.42    1.14
   4   5  -5   12.10    0.63
   5   5  -5    5.45    0.48
   6   5  -5    0.50    0.22
   7   5  -5    1.74    0.43
   8   5  -5    0.24    0.29
  -8  -5  -4    8.89    0.88
  -7  -5  -4   54.43    2.22
  -6  -5  -4   17.13    1.06
  -5  -5  -4   18.74    1.11
  -4  -5  -4    3.95    0.58
  -3  -5  -4   48.21    1.95
  -2  -5  -4   11.39    0.82
   1  -5  -4   27.92    1.48
   2  -5  -4   12.39    0.94
   3  -5  -4   49.85    2.14
   4  -5  -4    4.17    0.63
   5  -5  -4   22.24    1.26
   6  -5  -4   17.87    0.82
   7  -5  -4   52.69    2.33
   8  -5  -4    8.63    0.98
 -12  -4  -4   13.09    0.92
 -11  -4  -4   46.53    1.96
 -10  -4  -4   47.54    1.93
  -9  -4  -4   24.75    1.23
  -8  -4  -4    0.00    0.20
  -7  -4  -4    4.62    0.56
  -6  -4  -4    1.36    0.32
  -5  -4  -4    7.07    0.57
  -4  -4  -4   10.31    0.69
  -3  -4  -4   71.06    2.42
  -2  -4  -4   18.94    0.94
  -1  -4  -4   79.73    2.61
   0  -4  -4   12.70    0.73
   1  -4  -4   80.39    2.59
   2  -4  -4   20.53    0.91
   3  -4  -4   70.08    2.56
   4  -4  -4   10.83    0.75
   5  -4  -4    8.04    0.62
   6  -4  -4    1.38    0.33
   7  -4  -4    5.03    0.43
   8  -4  -4    0.11    0.16
   9  -4  -4   24.36    1.42
  10  -4  -4   47.34    2.23
  11  -4  -4   46.61    1.67
  12  -4  -4   14.41    1.02
  13  -4  -4   15.30    1.63
 -15  -3  -4   13.80    0.66
 -14  -3  -4   24.52    0.90
 -13  -3  -4   21.56    0.80
 -12  -3  -4    2.06    0.28
 -11  -3  -4    6.28    0.44
 -10  -3  -4    7.87    0.42
  -9  -3  -4    4.10    0.34
  -8  -3  -4   18.05    0.63
  -7  -3  -4  112.81    2.52
  -6  -3  -4   39.72    1.06
  -5  -3  -4   39.33    1.50
  -4  -3  -4    8.20    0.54
  -3  -3  -4  115.39    3.48
  -2  -3  -4   31.43    1.20
  -1  -3  -4   73.38    2.31
   0  -3  -4    0.20    0.14
   1  -3  -4   69.30    2.26
   2  -3  -4   31.51    1.16
   3  -3  -4  112.06    3.40
   4  -3  -4    8.23    0.49
   5  -3  -4   40.36    1.05
   6  -3  -4   39.30    1.10
   7  -3  -4  115.06    2.62
   8  -3  -4   17.40    0.67
   9  -3  -4    3.90    0.59
  10  -3  -4    7.33    0.62
  11  -3  -4    7.87    0.68
  12  -3  -4    2.17    0.44
  13  -3  -4   21.81    1.17
  14  -3  -4   23.98    1.31
  15  -3  -4   16.87    1.18
  16  -3  -4   27.01    2.24
 -17  -2  -4    2.98    0.53
 -16  -2  -4    0.70    0.20
 -15  -2  -4    7.72    0.47
 -14  -2  -4    8.06    0.46
 -13  -2  -4   19.24    0.70
 -12  -2  -4   23.90    0.77
 -11  -2  -4   78.08    1.87
 -10  -2  -4   90.88    2.06
  -9  -2  -4   45.65    1.17
  -8  -2  -4    0.23    0.11
  -7  -2  -4   10.27    0.31
  -6  -2  -4    2.42    0.18
  -5  -2  -4   23.39    0.61
  -4  -2  -4   24.32    0.62
  -3  -2  -4  164.20    3.20
  -2  -2  -4   45.23    0.95
  -1  -2  -4  169.13    3.35
   0  -2  -4   26.72    0.88
   5  -2  -4   25.23    0.69
   6  -2  -4    2.74    0.23
   7  -2  -4   10.47    0.38
   8  -2  -4    0.16    0.12
   9  -2  -4   46.17    1.45
  10  -2  -4   92.45    2.47
  11  -2  -4   80.99    2.37
  12  -2  -4   21.64    1.14
  13  -2  -4   22.06    1.23
  14  -2  -4    6.83    0.75
  15  -2  -4    6.19    0.70
  16  -2  -4    1.16    0.34
  17  -2  -4    3.13    0.49
 -18  -1  -4    3.14    0.55
 -17  -1  -4    7.12    0.77
 -16  -1  -4   40.84    1.79
 -15  -1  -4   18.88    0.70
 -14  -1  -4   35.76    1.03
 -13  -1  -4   34.63    0.78
 -12  -1  -4    2.84    0.21
 -11  -1  -4    9.72    0.33
 -10  -1  -4   11.81    0.36
  -9  -1  -4    4.21    0.20
  -8  -1  -4   28.69    0.61
  -7  -1  -4  198.09    3.21
  -6  -1  -4   77.02    1.29
  -5  -1  -4   73.94    1.54
  -4  -1  -4   13.05    0.37
  -3  -1  -4  213.87    4.04
  -2  -1  -4   64.33    1.31
  -1  -1  -4  156.68    3.02
   0  -1  -4    0.10    0.06
   1  -1  -4  152.20    4.43
   3  -1  -4  200.81    6.10
   4  -1  -4   13.57    0.47
   5  -1  -4   74.33    1.39
   6  -1  -4   79.54    1.48
   7  -1  -4  198.79    3.47
   8  -1  -4   28.90    1.12
   9  -1  -4    4.68    0.55
  10  -1  -4   11.47    0.78
  11  -1  -4    9.22    0.73
  12  -1  -4    3.03    0.43
  13  -1  -4   34.25    1.24
  14  -1  -4   35.06    0.99
  15  -1  -4   19.02    0.69
  16  -1  -4   41.11    1.10
  17  -1  -4    7.78    0.50
  18  -1  -4    4.53    0.39
 -18   0  -4    0.21    0.17
 -17   0  -4    3.10    0.34
 -16   0  -4    0.48    0.19
 -15   0  -4    8.95    0.46
 -14   0  -4    9.25    0.45
 -13   0  -4   22.64    0.75
 -12   0  -4   28.75    0.85
 -11   0  -4  100.21    1.80
 -10   0  -4  122.45    1.77
  -9   0  -4   60.91    0.97
  -8   0  -4    0.14    0.05
  -7   0  -4   13.41    0.29
  -6   0  -4    3.69    0.14
  -5   0  -4   40.62    0.90
  -4   0  -4   36.82    0.82
  -3   0  -4  237.15    3.72
  -2   0  -4   70.40    1.16
  -1   0  -4  256.16    4.03
   0   0  -4   38.86    0.83
   1   0  -4  266.42    5.06
   2   0  -4   73.45    2.20
   3   0  -4  229.28    3.86
   4   0  -4   37.79    0.99
   5   0  -4   40.05    1.11
   6   0  -4    3.70    0.26
   7   0  -4   13.94    0.47
   8   0  -4    0.58    0.15
   9   0  -4   63.09    1.33
  10   0  -4  116.26    2.26
  11   0  -4   99.79    1.98
  12   0  -4   28.89    0.81
  13   0  -4   23.27    0.72
  14   0  -4    8.90    0.45
  15   0  -4    8.49    0.44
  16   0  -4    0.90    0.20
  17   0  -4    2.75    0.31
  18   0  -4    0.06    0.17
 -18   1  -4    4.75    0.43
 -17   1  -4    8.19    0.51
 -16   1  -4   41.52    1.21
 -15   1  -4   18.30    0.71
 -14   1  -4   34.65    0.85
 -13   1  -4   33.54    0.80
 -12   1  -4    2.68    0.21
 -11   1  -4   10.92    0.36
 -10   1  -4   12.67    0.38
  -9   1  -4    3.79    0.20
  -8   1  -4   28.50    0.56
  -7   1  -4  200.49    2.49
  -6   1  -4   76.50    1.03
  -5   1  -4   74.24    1.13
  -4   1  -4   12.58    0.32
  -3   1  -4  217.01    3.37
  -2   1  -4   64.98    1.11
  -1   1  -4  153.86    2.17
   0   1  -4    0.08    0.04
   1   1  -4  155.79    2.17
   2   1  -4   64.50    0.96
   3   1  -4  209.03    2.94
   4   1  -4   12.80    0.34
   5   1  -4   75.82    1.38
   6   1  -4   78.08    1.46
   7   1  -4  192.93    3.40
   8   1  -4   28.25    0.75
   9   1  -4    3.86    0.30
  10   1  -4   11.53    0.48
  11   1  -4   10.48    0.48
  12   1  -4    3.18    0.30
  13   1  -4   33.28    0.93
  14   1  -4   35.97    0.98
  15   1  -4   19.07    0.68
  16   1  -4   37.28    1.32
  17   1  -4    7.00    0.58
  18   1  -4    4.50    0.72
 -17   2  -4    2.34    0.33
 -16   2  -4    0.67    0.22
 -15   2  -4    6.67    0.48
 -14   2  -4    7.41    0.46
 -13   2  -4   18.59    0.70
 -12   2  -4   22.15    0.66
 -11   2  -4   80.20    1.57
 -10   2  -4   87.64    1.70
  -9   2  -4   46.03    0.98
  -8   2  -4    0.30    0.10
  -7   2  -4   10.01    0.34
  -6   2  -4    2.73    0.15
  -5   2  -4   24.20    0.46
  -4   2  -4   24.73    0.42
  -3   2  -4  162.96    2.09
  -2   2  -4   44.99    0.74
  -1   2  -4  170.06    2.44
   0   2  -4   26.93    0.48
   1   2  -4  171.82    2.44
   2   2  -4   44.04    0.73
   3   2  -4  161.41    2.33
   4   2  -4   24.80    0.47
   5   2  -4   24.19    0.42
   6   2  -4    2.63    0.13
   7   2  -4   10.18    0.25
   8   2  -4    0.30    0.13
   9   2  -4   46.98    1.09
  10   2  -4   89.65    1.87
  11   2  -4   78.75    1.75
  12   2  -4   21.29    0.95
  13   2  -4   19.59    0.95
  14   2  -4    7.72    0.66
  15   2  -4    6.90    0.64
  16   2  -4    0.97    0.30
  17   2  -4    1.91    0.39
 -15   3  -4   14.23    0.67
 -14   3  -4   23.20    0.76
 -13   3  -4   22.56    0.70
 -12   3  -4    2.31    0.25
 -11   3  -4    6.51    0.36
 -10   3  -4    6.91    0.35
  -9   3  -4    4.79    0.30
  -8   3  -4   18.14    0.53
  -7   3  -4  111.20    2.06
  -6   3  -4   38.64    0.86
  -5   3  -4   41.56    0.78
  -4   3  -4    8.16    0.27
  -3   3  -4  114.92    1.75
  -2   3  -4   30.21    0.59
  -1   3  -4   71.92    1.37
   0   3  -4    0.03    0.07
   1   3  -4   71.69    1.36
   2   3  -4   30.62    0.70
   3   3  -4  114.86    2.06
   4   3  -4    8.65    0.32
   5   3  -4   41.04    0.91
   6   3  -4   39.74    0.77
   7   3  -4  115.45    1.84
   8   3  -4   17.27    0.56
   9   3  -4    5.85    0.46
  10   3  -4    7.48    0.52
  11   3  -4    6.87    0.57
  12   3  -4    2.03    0.35
  13   3  -4   21.39    1.00
  14   3  -4   24.64    1.13
  15   3  -4   13.84    0.91
 -13   4  -4   12.71    0.72
 -12   4  -4   14.37    0.57
 -11   4  -4   45.80    1.15
 -10   4  -4   46.14    1.43
  -9   4  -4   24.36    0.92
  -8   4  -4   -0.03    0.13
  -7   4  -4    5.14    0.43
  -6   4  -4    0.67    0.19
  -5   4  -4    8.07    0.37
  -4   4  -4   11.09    0.43
  -3   4  -4   70.85    1.45
  -2   4  -4   17.69    0.55
  -1   4  -4   79.41    1.58
   0   4  -4   13.81    0.46
   1   4  -4   80.46    1.58
   2   4  -4   18.26    0.55
   3   4  -4   69.06    1.42
   4   4  -4   10.82    0.41
   5   4  -4    6.99    0.45
   6   4  -4    1.22    0.22
   7   4  -4    5.01    0.44
   8   4  -4    0.09    0.16
   9   4  -4   23.87    0.95
  10   4  -4   47.39    1.51
  11   4  -4   49.29    1.59
  12   4  -4   13.63    0.83
  13   4  -4   14.12    1.05
  -7   5  -4   54.84    1.62
  -6   5  -4   17.00    0.78
  -5   5  -4   20.68    0.70
  -4   5  -4    4.84    0.37
  -3   5  -4   49.65    1.19
  -2   5  -4   12.88    0.51
  -1   5  -4   27.05    0.79
   0   5  -4    0.07    0.13
   1   5  -4   27.05    0.98
   2   5  -4   13.19    0.64
   3   5  -4   49.10    1.45
   4   5  -4    4.86    0.45
   5   5  -4   20.44    0.85
   6   5  -4   17.29    0.79
   7   5  -4   54.39    1.65
   8   5  -4    8.68    0.90
  -8  -5  -3   33.23    1.62
  -7  -5  -3   -0.11    0.22
  -6  -5  -3    0.27    0.26
  -5  -5  -3    1.77    0.40
  -4  -5  -3    1.37    0.37
  -3  -5  -3   -0.23    0.18
  -2  -5  -3  153.42    4.87
   0  -5  -3   42.53    1.96
   1  -5  -3    2.20    0.48
   2  -5  -3  159.64    5.36
   3  -5  -3   -0.19    0.21
   4  -5  -3    0.69    0.32
   5  -5  -3    1.94    0.47
   6  -5  -3    0.12    0.19
   7  -5  -3    0.03    0.19
   8  -5  -3   34.72    1.27
 -12  -4  -3    3.46    0.56
 -11  -4  -3   -0.02    0.21
 -10  -4  -3    3.49    0.51
  -9  -4  -3   10.70    0.76
  -8  -4  -3   18.67    1.02
  -7  -4  -3    0.10    0.20
  -6  -4  -3  273.96    7.91
  -5  -4  -3   13.29    0.78
  -4  -4  -3   68.67    2.41
  -3  -4  -3    0.05    0.15
  -2  -4  -3   24.10    1.06
  -1  -4  -3    1.15    0.26
   0  -4  -3    0.01    0.15
   1  -4  -3    0.77    0.22
   3  -4  -3    0.39    0.22
   4  -4  -3   68.08    2.57
   5  -4  -3   12.21    0.80
   6  -4  -3  268.25    8.33
   7  -4  -3    0.29    0.17
   8  -4  -3   19.16    0.79
   9  -4  -3    9.89    0.62
  10  -4  -3    2.84    0.61
  11  -4  -3   -0.32    0.29
  12  -4  -3    3.46    0.52
  13  -4  -3    2.83    0.79
 -16  -3  -3   13.98    0.68
 -15  -3  -3    0.12    0.18
 -14  -3  -3    0.74    0.22
 -13  -3  -3   18.90    0.74
 -12  -3  -3  108.95    2.56
 -11  -3  -3    0.03    0.13
 -10  -3  -3   52.33    1.36
  -9  -3  -3   16.66    0.62
  -8  -3  -3   80.49    1.89
  -7  -3  -3    0.24    0.12
  -6  -3  -3    0.28    0.12
  -5  -3  -3    7.18    0.34
  -4  -3  -3    7.76    0.50
  -3  -3  -3    0.15    0.14
  -2  -3  -3  405.11   11.10
  -1  -3  -3    6.69    0.44
   0  -3  -3   81.11    2.52
   1  -3  -3    6.19    0.41
   2  -3  -3  414.55   11.05
   3  -3  -3    0.33    0.14
   4  -3  -3    6.56    0.31
   5  -3  -3    6.66    0.49
   6  -3  -3    0.08    0.11
   7  -3  -3    0.35    0.14
   8  -3  -3   80.53    2.00
   9  -3  -3   16.37    0.69
  10  -3  -3   52.79    1.62
  11  -3  -3    0.60    0.27
  12  -3  -3  111.70    3.03
  13  -3  -3   20.81    1.18
  14  -3  -3   -0.18    0.32
  15  -3  -3    0.12    0.35
  16  -3  -3   13.10    1.89
 -17  -2  -3   16.01    1.07
 -16  -2  -3   65.29    1.70
 -15  -2  -3    0.15    0.16
 -14  -2  -3    0.48    0.17
 -13  -2  -3    5.02    0.39
 -12  -2  -3    8.18    0.42
 -11  -2  -3   -0.02    0.11
 -10  -2  -3    8.21    0.39
  -9  -2  -3   22.95    0.71
  -8  -2  -3   28.53    0.80
  -7  -2  -3    1.16    0.12
  -6  -2  -3  579.52    8.87
  -5  -2  -3   31.54    0.74
  -4  -2  -3  148.31    2.94
  -3  -2  -3    0.10    0.05
  -2  -2  -3   76.35    1.53
  -1  -2  -3    2.02    0.13
   0  -2  -3   -0.02    0.11
   5  -2  -3   31.25    0.84
   6  -2  -3  563.73   11.31
   7  -2  -3    1.05    0.18
   8  -2  -3   28.19    0.75
   9  -2  -3   23.16    0.69
  10  -2  -3    8.18    0.66
  11  -2  -3    0.13    0.25
  12  -2  -3    8.25    0.77
  13  -2  -3    5.01    0.66
  14  -2  -3    0.53    0.34
  15  -2  -3    0.29    0.31
  16  -2  -3   64.03    2.09
  17  -2  -3   18.15    0.96
 -18  -1  -3    8.39    0.85
 -17  -1  -3    1.40    0.37
 -16  -1  -3   18.49    1.08
 -15  -1  -3    1.23    0.20
 -14  -1  -3    0.23    0.10
 -13  -1  -3   30.91    0.72
 -12  -1  -3  172.32    2.83
 -11  -1  -3    0.59    0.11
 -10  -1  -3   75.26    1.38
  -9  -1  -3   31.33    0.66
  -8  -1  -3  154.88    2.50
  -7  -1  -3    0.66    0.07
  -6  -1  -3    0.28    0.06
  -5  -1  -3   14.65    0.40
  -4  -1  -3   23.69    0.56
  -3  -1  -3    0.61    0.08
  -2  -1  -3  769.07   13.78
  -1  -1  -3   13.78    0.34
   0  -1  -3  142.11    3.86
   4  -1  -3   24.20    0.52
   5  -1  -3   15.28    0.40
   6  -1  -3    0.53    0.12
   7  -1  -3    0.51    0.14
   8  -1  -3  149.25    2.81
   9  -1  -3   30.82    1.24
  10  -1  -3   76.94    2.28
  11  -1  -3    0.71    0.30
  12  -1  -3  165.12    3.99
  13  -1  -3   29.54    1.16
  14  -1  -3    0.15    0.22
  15  -1  -3    0.26    0.24
  16  -1  -3   16.93    0.85
  17  -1  -3    0.60    0.20
  18  -1  -3    8.14    0.52
 -19   0  -3    0.02    0.25
 -18   0  -3   17.38    0.73
 -17   0  -3   21.44    0.79
 -16   0  -3   74.81    1.85
 -15   0  -3    0.05    0.13
 -14   0  -3    0.41    0.15
 -13   0  -3    7.27    0.39
 -12   0  -3   11.40    0.38
 -11   0  -3   -0.01    0.06
 -10   0  -3   10.97    0.28
  -9   0  -3   33.08    0.58
  -8   0  -3   35.44    0.69
  -7   0  -3    1.55    0.10
  -6   0  -3  781.46   10.17
  -5   0  -3   50.61    0.87
  -4   0  -3  221.39    4.07
  -3   0  -3    0.04    0.04
  -2   0  -3  106.86    1.70
  -1   0  -3    3.03    0.14
   0   0  -3   -0.46    0.07
   1   0  -3    2.92    0.13
   2   0  -3  105.39    1.81
   3   0  -3    0.11    0.09
   4   0  -3  210.89    3.56
   5   0  -3   50.85    1.07
   6   0  -3  679.58   12.06
   7   0  -3    1.95    0.12
   8   0  -3   36.12    0.88
   9   0  -3   33.08    0.85
  10   0  -3   11.38    0.46
  11   0  -3    0.18    0.14
  12   0  -3   12.36    0.49
  13   0  -3    7.69    0.42
  14   0  -3    0.62    0.17
  15   0  -3    0.40    0.17
  16   0  -3   73.72    1.61
  17   0  -3   20.26    0.70
  18   0  -3   15.72    0.79
  19   0  -3    0.15    0.32
 -18   1  -3    7.67    0.55
 -17   1  -3    1.16    0.24
 -16   1  -3   19.01    0.73
 -15   1  -3    0.46    0.14
 -14   1  -3    0.06    0.10
 -13   1  -3   30.08    0.74
 -12   1  -3  169.13    2.88
 -11   1  -3    0.89    0.13
 -10   1  -3   75.79    1.41
  -9   1  -3   31.09    0.62
  -8   1  -3  151.82    2.23
  -7   1  -3    0.47    0.05
  -6   1  -3    0.42    0.05
  -5   1  -3   14.49    0.25
  -4   1  -3   23.47    0.41
  -3   1  -3    0.78    0.08
  -2   1  -3  726.82    9.89
  -1   1  -3   13.92    0.26
   0   1  -3  143.07    2.29
   1   1  -3   13.67    0.26
   2   1  -3  711.95    9.88
   3   1  -3    0.67    0.06
   4   1  -3   23.89    0.48
   5   1  -3   15.24    0.33
   6   1  -3    0.19    0.07
   7   1  -3    0.51    0.08
   8   1  -3  148.67    2.31
   9   1  -3   32.72    0.86
  10   1  -3   74.13    1.61
  11   1  -3    0.37    0.16
  12   1  -3  165.25    3.12
  13   1  -3   30.22    0.89
  14   1  -3    0.46    0.18
  15   1  -3    0.31    0.22
  16   1  -3   18.00    0.85
  17   1  -3    0.49    0.24
  18   1  -3    8.04    0.63
 -17   2  -3   17.80    0.75
 -16   2  -3   61.79    1.69
 -15   2  -3    0.22    0.15
 -14   2  -3    0.71    0.19
 -13   2  -3    5.19    0.40
 -12   2  -3    8.71    0.39
 -11   2  -3   -0.01    0.09
 -10   2  -3    8.25    0.29
  -9   2  -3   22.87    0.51
  -8   2  -3   28.53    0.57
  -7   2  -3    1.22    0.12
  -6   2  -3  580.41    7.80
  -5   2  -3   31.42    0.56
  -4   2  -3  150.24    2.19
  -3   2  -3    0.10    0.05
  -2   2  -3   73.35    1.13
  -1   2  -3    1.76    0.10
   0   2  -3   -0.15    0.05
   1   2  -3    1.76    0.10
   2   2  -3   74.97    1.12
   3   2  -3    0.12    0.04
   4   2  -3  151.47    1.94
   5   2  -3   31.50    0.50
   6   2  -3  563.81    7.01
   7   2  -3    1.21    0.12
   8   2  -3   30.08    0.62
   9   2  -3   24.98    0.71
  10   2  -3    8.22    0.44
  11   2  -3   -0.15    0.15
  12   2  -3    8.36    0.68
  13   2  -3    5.33    0.59
  14   2  -3    0.25    0.28
  15   2  -3    0.29    0.29
  16   2  -3   60.46    2.98
  17   2  -3   16.60    0.90
 -16   3  -3   13.81    0.99
 -15   3  -3    0.31    0.18
 -14   3  -3    0.08    0.15
 -13   3  -3   18.13    0.63
 -12   3  -3  109.11    2.14
 -11   3  -3    0.21    0.12
 -10   3  -3   49.50    1.13
  -9   3  -3   16.55    0.52
  -8   3  -3   80.25    1.55
  -7   3  -3    0.19    0.09
  -6   3  -3    0.38    0.10
  -5   3  -3    6.73    0.25
  -4   3  -3    6.49    0.23
  -3   3  -3    0.15    0.07
  -2   3  -3  410.96    5.65
  -1   3  -3    6.14    0.26
   0   3  -3   82.36    1.52
   1   3  -3    6.09    0.25
   2   3  -3  397.97    6.60
   3   3  -3    0.28    0.08
   4   3  -3    7.02    0.24
   5   3  -3    7.13    0.25
   6   3  -3    0.17    0.08
   7   3  -3    0.22    0.09
   8   3  -3   80.59    1.60
   9   3  -3   17.16    0.73
  10   3  -3   52.53    1.55
  11   3  -3    0.44    0.22
  12   3  -3  110.26    2.90
  13   3  -3   18.81    0.96
  14   3  -3    0.12    0.26
  15   3  -3    0.45    0.33
  16   3  -3   13.66    1.74
 -13   4  -3    2.71    0.37
 -12   4  -3    3.27    0.32
 -11   4  -3   -0.03    0.13
 -10   4  -3    3.04    0.37
  -9   4  -3   10.71    0.57
  -8   4  -3   18.30    0.76
  -7   4  -3    0.26    0.15
  -6   4  -3  269.70    4.74
  -5   4  -3   11.54    0.45
  -4   4  -3   70.99    1.46
  -3   4  -3    0.10    0.10
  -2   4  -3   24.01    0.66
  -1   4  -3    1.06    0.15
   0   4  -3    0.03    0.08
   1   4  -3    0.92    0.15
   2   4  -3   24.53    0.64
   3   4  -3    0.04    0.09
   4   4  -3   69.62    1.78
   5   4  -3   12.55    0.46
   6   4  -3  278.83    4.76
   7   4  -3    0.30    0.14
   8   4  -3   20.76    0.82
   9   4  -3   11.02    0.61
  10   4  -3    3.84    0.44
  11   4  -3    0.13    0.21
  12   4  -3    3.29    0.46
  13   4  -3    2.08    0.42
  -8   5  -3   35.85    1.77
  -7   5  -3    0.02    0.17
  -6   5  -3    0.06    0.15
  -5   5  -3    2.25    0.27
  -4   5  -3    1.12    0.20
  -3   5  -3    0.27    0.14
  -2   5  -3  156.91    2.96
  -1   5  -3    1.90    0.23
   0   5  -3   41.06    1.28
   1   5  -3    2.19    0.31
   2   5  -3  162.26    3.66
   3   5  -3    0.11    0.14
   4   5  -3    0.63    0.21
   5   5  -3    2.99    0.36
   6   5  -3    0.08    0.17
   7   5  -3    0.08    0.19
   8   5  -3   34.65    1.25
   9   5  -3    7.63    0.89
  -8  -5  -2    5.54    0.69
  -7  -5  -2   38.82    1.73
  -6  -5  -2    0.47    0.29
  -5  -5  -2    3.91    0.55
  -4  -5  -2    9.69    0.72
  -3  -5  -2   24.99    1.24
  -1  -5  -2   -0.05    0.23
   0  -5  -2   -0.06    0.24
   1  -5  -2   -0.04    0.24
   2  -5  -2    0.15    0.24
   3  -5  -2   25.97    1.42
   4  -5  -2    9.29    0.92
   5  -5  -2    4.98    0.69
   6  -5  -2    0.58    0.23
   7  -5  -2   39.93    1.36
   8  -5  -2    5.79    0.56
   9  -5  -2   11.37    0.97
 -13  -4  -2   12.83    0.91
 -12  -4  -2   13.83    0.94
 -11  -4  -2   34.30    1.62
 -10  -4  -2    5.95    0.66
  -9  -4  -2    0.74    0.30
  -8  -4  -2    3.61    0.50
  -7  -4  -2    0.11    0.18
  -6  -4  -2   25.33    1.16
  -5  -4  -2    6.78    0.55
  -4  -4  -2    6.00    0.56
  -3  -4  -2   19.33    0.93
  -2  -4  -2    0.34    0.19
  -1  -4  -2    5.75    0.46
   0  -4  -2   13.75    0.72
   1  -4  -2    6.24    0.44
   2  -4  -2    0.24    0.20
   3  -4  -2   18.34    1.02
   4  -4  -2    5.91    0.61
   5  -4  -2    8.14    0.65
   6  -4  -2   25.63    1.28
   7  -4  -2    0.15    0.16
   8  -4  -2    3.80    0.38
   9  -4  -2    0.92    0.24
  10  -4  -2    5.87    0.55
  11  -4  -2   39.23    2.07
  12  -4  -2   13.43    0.89
  13  -4  -2   12.68    0.99
 -16  -3  -2   24.25    0.92
 -15  -3  -2    4.59    0.43
 -14  -3  -2    1.42    0.26
 -13  -3  -2    5.08    0.42
 -12  -3  -2    0.76    0.20
 -11  -3  -2   68.77    1.74
 -10  -3  -2   95.73    2.22
  -9  -3  -2   17.81    0.64
  -8  -3  -2   11.94    0.49
  -7  -3  -2   83.87    1.93
  -6  -3  -2    0.48    0.13
  -5  -3  -2   25.06    0.73
  -4  -3  -2   15.96    0.51
  -3  -3  -2   56.31    1.87
  -2  -3  -2    0.23    0.14
  -1  -3  -2    0.63    0.17
   0  -3  -2    0.12    0.12
   1  -3  -2    0.89    0.18
   2  -3  -2    0.19    0.11
   3  -3  -2   56.67    1.32
   4  -3  -2   16.63    0.51
   5  -3  -2   25.58    1.13
   6  -3  -2    0.75    0.17
   7  -3  -2   82.63    2.04
   8  -3  -2   12.38    0.57
   9  -3  -2   18.40    0.75
  10  -3  -2   98.81    2.45
  11  -3  -2   70.92    2.08
  12  -3  -2    0.15    0.27
  13  -3  -2    6.03    0.69
  14  -3  -2    1.69    0.44
  15  -3  -2    4.33    0.67
  16  -3  -2   25.31    2.60
 -17  -2  -2    3.44    0.56
 -16  -2  -2    0.19    0.17
 -15  -2  -2   70.74    1.79
 -14  -2  -2   55.41    1.47
 -13  -2  -2   18.04    0.67
 -12  -2  -2   24.91    0.80
 -11  -2  -2   64.87    1.58
 -10  -2  -2    9.85    0.43
  -9  -2  -2    5.96    0.31
  -8  -2  -2    8.89    0.38
  -7  -2  -2    1.16    0.16
  -6  -2  -2   68.76    1.21
  -5  -2  -2   18.58    0.40
  -4  -2  -2   11.16    0.31
  -3  -2  -2   36.52    0.78
  -2  -2  -2    0.40    0.06
  -1  -2  -2    6.91    0.21
   0  -2  -2   23.84    0.84
   1  -2  -2    6.55    0.34
   2  -2  -2    0.37    0.10
   4  -2  -2   11.19    0.56
   5  -2  -2   18.52    0.58
   6  -2  -2   68.57    1.63
   7  -2  -2    1.20    0.20
   8  -2  -2    7.66    0.45
   9  -2  -2    5.29    0.36
  10  -2  -2   10.47    0.50
  11  -2  -2   62.82    1.99
  12  -2  -2   23.61    1.16
  13  -2  -2   18.93    1.11
  14  -2  -2   55.48    2.03
  15  -2  -2   68.87    2.29
  16  -2  -2    0.05    0.29
  17  -2  -2    4.90    0.59
 -18  -1  -2   25.16    1.35
 -17  -1  -2   16.11    1.02
 -16  -1  -2   36.81    1.63
 -15  -1  -2    5.11    0.39
 -14  -1  -2    1.41    0.17
 -13  -1  -2    7.12    0.30
 -12  -1  -2    0.98    0.14
 -11  -1  -2  123.19    2.09
 -10  -1  -2  169.97    2.76
  -9  -1  -2   23.52    0.53
  -8  -1  -2   19.36    0.39
  -7  -1  -2  158.99    2.54
  -6  -1  -2    0.46    0.07
  -5  -1  -2   73.35    1.28
  -4  -1  -2   26.28    0.80
  -3  -1  -2  114.64    2.23
  -2  -1  -2    0.60    0.06
  -1  -1  -2    4.11    0.19
   4  -1  -2   26.55    0.66
   5  -1  -2   77.84    1.70
   6  -1  -2    0.79    0.12
   7  -1  -2  160.32    2.84
   8  -1  -2   19.87    0.65
   9  -1  -2   24.33    0.81
  10  -1  -2  162.29    4.07
  11  -1  -2  118.85    3.16
  12  -1  -2    1.03    0.32
  13  -1  -2    6.67    0.62
  14  -1  -2    1.03    0.29
  15  -1  -2    5.35    0.54
  16  -1  -2   34.80    1.28
  17  -1  -2   15.38    0.80
  18  -1  -2   22.15    0.78
  19  -1  -2   24.48    1.35
 -19   0  -2    0.24    0.26
 -18   0  -2    9.34    0.56
 -17   0  -2    4.10    0.38
 -16   0  -2    0.17    0.16
 -15   0  -2   85.49    2.03
 -14   0  -2   70.60    1.72
 -13   0  -2   21.65    0.59
 -12   0  -2   30.67    0.72
 -11   0  -2   84.61    1.32
 -10   0  -2   11.37    0.29
  -9   0  -2   10.65    0.30
  -8   0  -2   12.13    0.30
  -7   0  -2    1.87    0.10
  -6   0  -2  107.70    1.79
  -5   0  -2   29.69    0.55
  -4   0  -2   15.62    0.27
  -3   0  -2   55.95    1.58
  -2   0  -2    0.41    0.05
  -1   0  -2    6.53    0.26
   0   0  -2   33.64    0.57
   1   0  -2    7.33    0.36
   2   0  -2    0.41    0.11
   3   0  -2   54.85    1.32
   4   0  -2   15.86    0.67
   5   0  -2   31.32    1.01
   6   0  -2  111.28    2.60
   7   0  -2    1.97    0.20
   8   0  -2   11.61    0.42
   9   0  -2   11.05    0.42
  10   0  -2   11.11    0.62
  11   0  -2   84.81    2.20
  12   0  -2   29.83    0.84
  13   0  -2   22.25    0.70
  14   0  -2   72.15    1.55
  15   0  -2   85.34    1.79
  16   0  -2    0.15    0.15
  17   0  -2    4.32    0.66
  18   0  -2    8.09    0.64
  19   0  -2    0.33    0.23
 -19   1  -2   24.60    1.36
 -18   1  -2   23.22    0.88
 -17   1  -2   16.73    0.71
 -16   1  -2   35.86    0.90
 -15   1  -2    6.17    0.45
 -14   1  -2    1.12    0.17
 -13   1  -2    7.68    0.33
 -12   1  -2    0.92    0.14
 -11   1  -2  120.48    2.13
 -10   1  -2  168.71    2.81
  -9   1  -2   22.59    0.55
  -8   1  -2   19.00    0.42
  -7   1  -2  156.41    2.28
  -6   1  -2    0.45    0.07
  -5   1  -2   75.05    1.33
  -4   1  -2   26.30    0.44
  -3   1  -2  113.66    1.63
  -2   1  -2    0.55    0.04
  -1   1  -2    4.11    0.11
   0   1  -2    0.03    0.03
   1   1  -2    4.38    0.11
   2   1  -2    0.77    0.05
   3   1  -2  116.20    1.67
   4   1  -2   26.46    0.53
   5   1  -2   77.23    1.19
   6   1  -2    0.35    0.07
   7   1  -2  156.27    2.38
   8   1  -2   19.77    0.47
   9   1  -2   23.94    0.56
  10   1  -2  162.55    3.09
  11   1  -2  120.77    2.40
  12   1  -2    1.50    0.24
  13   1  -2    7.90    0.46
  14   1  -2    1.58    0.34
  15   1  -2    5.19    0.53
  16   1  -2   34.81    1.27
  17   1  -2   17.08    0.82
  18   1  -2   23.86    1.00
 -18   2  -2    8.10    0.84
 -17   2  -2    4.15    0.41
 -16   2  -2   -0.06    0.15
 -15   2  -2   71.78    1.80
 -14   2  -2   56.06    1.48
 -13   2  -2   18.52    0.69
 -12   2  -2   24.07    0.64
 -11   2  -2   63.17    1.15
 -10   2  -2   10.31    0.33
  -9   2  -2    5.71    0.23
  -8   2  -2    8.56    0.27
  -7   2  -2    1.15    0.11
  -6   2  -2   69.01    1.09
  -5   2  -2   18.63    0.38
  -4   2  -2   11.48    0.23
  -3   2  -2   35.96    0.71
  -2   2  -2    0.54    0.06
  -1   2  -2    6.42    0.17
   0   2  -2   24.34    0.42
   1   2  -2    6.90    0.15
   2   2  -2    0.50    0.05
   3   2  -2   36.02    0.62
   4   2  -2   11.22    0.22
   5   2  -2   19.79    0.40
   6   2  -2   70.16    1.13
   7   2  -2    1.26    0.13
   8   2  -2    8.95    0.30
   9   2  -2    5.51    0.27
  10   2  -2   11.02    0.51
  11   2  -2   64.47    1.94
  12   2  -2   21.74    1.06
  13   2  -2   17.43    1.02
  14   2  -2   54.22    1.93
  15   2  -2   68.18    2.20
  16   2  -2    0.34    0.28
  17   2  -2    4.14    0.53
  18   2  -2    7.89    0.96
 -16   3  -2   24.14    0.93
 -15   3  -2    4.61    0.43
 -14   3  -2    1.55    0.27
 -13   3  -2    5.39    0.38
 -12   3  -2    0.46    0.15
 -11   3  -2   68.30    1.46
 -10   3  -2   94.33    1.85
  -9   3  -2   17.90    0.54
  -8   3  -2   12.44    0.42
  -7   3  -2   84.55    1.59
  -6   3  -2    0.26    0.09
  -5   3  -2   26.05    0.54
  -4   3  -2   15.45    0.38
  -3   3  -2   57.34    0.95
  -2   3  -2    0.07    0.06
  -1   3  -2    0.65    0.11
   0   3  -2    0.20    0.08
   1   3  -2    0.69    0.10
   2   3  -2    0.11    0.07
   3   3  -2   56.36    0.96
   4   3  -2   15.17    0.38
   5   3  -2   25.65    0.54
   6   3  -2    0.49    0.09
   7   3  -2   83.67    1.64
   8   3  -2   12.74    0.44
   9   3  -2   18.02    0.57
  10   3  -2   95.15    2.43
  11   3  -2   70.70    2.00
  12   3  -2    0.21    0.23
  13   3  -2    5.25    0.60
  14   3  -2    1.31    0.37
  15   3  -2    4.18    0.59
  16   3  -2   22.44    1.17
 -14   4  -2   32.49    1.54
 -13   4  -2   13.26    0.57
 -12   4  -2   14.78    0.58
 -11   4  -2   38.53    0.99
 -10   4  -2    6.82    0.41
  -9   4  -2    0.71    0.21
  -8   4  -2    4.95    0.43
  -7   4  -2    0.20    0.13
  -6   4  -2   24.82    0.71
  -5   4  -2    7.90    0.36
  -4   4  -2    5.95    0.33
  -3   4  -2   18.80    0.56
  -2   4  -2    0.82    0.14
  -1   4  -2    5.70    0.30
   0   4  -2   13.53    0.45
   1   4  -2    5.75    0.30
   2   4  -2    0.55    0.13
   3   4  -2   18.47    0.57
   4   4  -2    6.41    0.33
   5   4  -2    7.83    0.35
   6   4  -2   24.59    0.70
   7   4  -2    0.02    0.11
   8   4  -2    4.73    0.34
   9   4  -2    0.74    0.22
  10   4  -2    6.41    0.56
  11   4  -2   39.12    1.37
  12   4  -2   14.54    0.88
  13   4  -2   14.47    0.91
  -9   5  -2   10.71    0.88
  -8   5  -2    6.19    0.53
  -7   5  -2   38.06    1.27
  -6   5  -2    0.57    0.17
  -5   5  -2    5.20    0.38
  -4   5  -2    8.50    0.45
  -3   5  -2   26.26    0.77
  -2   5  -2    0.14    0.13
  -1   5  -2    0.17    0.16
   0   5  -2   -0.09    0.13
   1   5  -2    0.16    0.15
   2   5  -2    0.23    0.17
   3   5  -2   25.13    0.93
   4   5  -2    7.59    0.55
   5   5  -2    5.30    0.47
   6   5  -2    0.53    0.21
   7   5  -2   40.66    1.08
   8   5  -2    6.61    0.57
   9   5  -2   11.11    0.77
  -9  -5  -1   18.45    1.17
  -8  -5  -1    3.16    0.53
  -7  -5  -1    8.50    0.82
  -6  -5  -1    1.39    0.37
  -5  -5  -1   21.01    1.14
  -4  -5  -1   15.68    0.93
  -3  -5  -1    9.81    0.71
  -2  -5  -1    7.86    0.85
  -1  -5  -1   21.41    1.25
   0  -5  -1    2.93    0.53
   1  -5  -1   19.88    1.21
   2  -5  -1    8.41    0.89
   3  -5  -1   11.18    0.89
   4  -5  -1   15.88    1.09
   5  -5  -1   21.15    1.31
   6  -5  -1    1.27    0.29
   7  -5  -1    9.38    0.69
   8  -5  -1    4.15    0.49
   9  -5  -1   22.23    1.41
 -13  -4  -1    0.78    0.35
 -12  -4  -1    6.31    0.72
 -11  -4  -1    0.17    0.25
 -10  -4  -1    3.99    0.54
  -9  -4  -1   68.86    2.49
  -8  -4  -1   26.17    1.27
  -7  -4  -1    2.02    0.37
  -6  -4  -1   16.94    0.90
  -5  -4  -1   73.23    2.50
  -4  -4  -1   11.36    0.69
  -3  -4  -1    7.79    0.55
  -2  -4  -1    1.60    0.28
  -1  -4  -1    0.56    0.20
   0  -4  -1    0.43    0.18
   1  -4  -1    0.65    0.25
   2  -4  -1    1.72    0.35
   3  -4  -1    8.96    0.67
   4  -4  -1   10.89    0.76
   5  -4  -1   75.87    2.74
   6  -4  -1   17.89    1.05
   7  -4  -1    2.28    0.31
   8  -4  -1   27.41    1.01
   9  -4  -1   66.82    1.92
  10  -4  -1    4.36    0.47
  11  -4  -1    0.32    0.26
  12  -4  -1    9.15    1.15
  13  -4  -1    0.02    0.28
 -16  -3  -1   17.65    0.77
 -15  -3  -1   27.22    0.96
 -14  -3  -1    6.29    0.48
 -13  -3  -1   52.94    1.46
 -12  -3  -1   32.66    1.02
 -11  -3  -1    0.02    0.13
 -10  -3  -1   28.84    0.89
  -9  -3  -1   41.26    1.11
  -8  -3  -1    6.62    0.35
  -7  -3  -1   19.74    0.63
  -6  -3  -1    2.84    0.24
  -5  -3  -1   54.05    1.29
  -4  -3  -1   39.66    0.98
  -3  -3  -1   17.70    0.52
  -2  -3  -1   15.45    0.46
  -1  -3  -1   41.57    1.43
   0  -3  -1    5.66    0.36
   1  -3  -1   42.52    1.41
   2  -3  -1   15.41    0.49
   3  -3  -1   16.90    0.52
   4  -3  -1   39.29    1.53
   5  -3  -1   51.64    1.96
   6  -3  -1    2.71    0.28
   7  -3  -1   18.65    0.71
   8  -3  -1    7.30    0.47
   9  -3  -1   40.59    1.27
  10  -3  -1   28.76    1.06
  11  -3  -1    0.45    0.23
  12  -3  -1   31.98    1.33
  13  -3  -1   52.77    1.89
  14  -3  -1    5.68    0.74
  15  -3  -1   24.24    1.40
  16  -3  -1   18.77    1.25
 -17  -2  -1   20.46    0.82
 -16  -2  -1   37.00    1.15
 -15  -2  -1    2.05    0.29
 -14  -2  -1   25.33    0.86
 -13  -2  -1    0.09    0.13
 -12  -2  -1   14.91    0.58
 -11  -2  -1    1.45    0.21
 -10  -2  -1    6.69    0.35
  -9  -2  -1  138.55    2.94
  -8  -2  -1   61.66    1.48
  -7  -2  -1    0.44    0.12
  -6  -2  -1   30.91    0.80
  -5  -2  -1  164.13    2.64
  -4  -2  -1   23.20    0.85
  -3  -2  -1   14.81    0.42
  -2  -2  -1    2.58    0.24
  -1  -2  -1    0.92    0.07
   0  -2  -1    0.09    0.08
   1  -2  -1    0.44    0.10
   2  -2  -1    2.85    0.19
   3  -2  -1   14.79    0.41
   4  -2  -1   22.90    0.57
   5  -2  -1  162.17    2.72
   6  -2  -1   31.27    0.88
   7  -2  -1    0.31    0.15
   8  -2  -1   65.15    1.66
   9  -2  -1  140.53    3.23
  10  -2  -1    7.86    0.49
  11  -2  -1    1.34    0.27
  12  -2  -1   18.48    1.02
  13  -2  -1    0.58    0.32
  14  -2  -1   26.92    1.32
  15  -2  -1    2.47    0.51
  16  -2  -1   33.68    1.47
  17  -2  -1   20.34    1.06
 -18  -1  -1    6.87    0.78
 -17  -1  -1    6.22    0.70
 -16  -1  -1   27.38    1.35
 -15  -1  -1   38.27    1.10
 -14  -1  -1    9.09    0.35
 -13  -1  -1   77.87    1.46
 -12  -1  -1   55.02    1.08
 -11  -1  -1    1.52    0.14
 -10  -1  -1   47.24    0.94
  -9  -1  -1   65.95    1.18
  -8  -1  -1    9.13    0.28
  -7  -1  -1   33.28    0.65
  -6  -1  -1    6.29    0.19
  -5  -1  -1  112.68    1.85
  -4  -1  -1   91.40    1.51
  -3  -1  -1   28.93    0.61
  -2  -1  -1   26.28    0.73
  -1  -1  -1   81.69    1.57
   3  -1  -1   29.49    0.96
   4  -1  -1   93.98    1.98
   5  -1  -1  113.73    2.45
   6  -1  -1    6.74    0.36
   7  -1  -1   35.12    1.04
   8  -1  -1    9.51    0.47
   9  -1  -1   66.58    1.56
  10  -1  -1   47.78    1.34
  11  -1  -1    0.81    0.28
  12  -1  -1   52.76    1.76
  13  -1  -1   75.80    2.22
  14  -1  -1    9.01    0.71
  15  -1  -1   34.83    1.33
  16  -1  -1   27.24    1.10
  17  -1  -1    6.39    0.59
  18  -1  -1    4.91    0.53
 -19   0  -1   52.44    2.02
 -18   0  -1   26.31    0.93
 -17   0  -1   22.59    0.83
 -16   0  -1   44.11    1.25
 -15   0  -1    2.16    0.26
 -14   0  -1   31.70    0.79
 -13   0  -1    0.77    0.14
 -12   0  -1   20.66    0.46
 -11   0  -1    2.13    0.15
 -10   0  -1    9.57    0.27
  -9   0  -1  192.22    2.70
  -8   0  -1   92.16    1.38
  -7   0  -1    0.23    0.06
  -6   0  -1   42.62    0.67
  -5   0  -1  242.40    3.70
  -4   0  -1   37.03    0.57
  -3   0  -1   20.49    0.32
  -2   0  -1    3.21    0.08
  -1   0  -1    0.49    0.03
   0   0  -1    0.02    0.02
   1   0  -1    0.62    0.07
   2   0  -1    3.87    0.32
   3   0  -1   21.35    0.78
   4   0  -1   39.82    1.12
   5   0  -1  231.21    6.96
   6   0  -1   44.58    1.03
   7   0  -1    0.12    0.15
   8   0  -1   98.06    1.88
   9   0  -1  191.72    3.42
  10   0  -1    9.59    0.43
  11   0  -1    2.47    0.36
  12   0  -1   19.97    0.85
  13   0  -1    0.86    0.26
  14   0  -1   32.73    1.14
  15   0  -1    2.63    0.27
  16   0  -1   43.82    1.10
  17   0  -1   22.10    0.93
  18   0  -1   24.54    1.01
  19   0  -1   49.20    2.22
 -19   1  -1    0.04    0.27
 -18   1  -1    6.17    0.50
 -17   1  -1    6.19    0.48
 -16   1  -1   27.40    0.76
 -15   1  -1   38.76    0.93
 -14   1  -1    8.67    0.37
 -13   1  -1   75.36    1.50
 -12   1  -1   52.09    1.11
 -11   1  -1    1.65    0.15
 -10   1  -1   49.26    0.98
  -9   1  -1   63.74    1.21
  -8   1  -1    9.37    0.23
  -7   1  -1   33.38    0.52
  -6   1  -1    5.85    0.19
  -5   1  -1  113.91    1.65
  -4   1  -1   92.52    1.34
  -3   1  -1   28.64    0.42
  -2   1  -1   26.04    0.41
  -1   1  -1   81.13    1.16
   0   1  -1   10.16    0.17
   1   1  -1   81.59    1.15
   2   1  -1   25.42    0.46
   3   1  -1   28.35    0.54
   4   1  -1   94.57    1.38
   5   1  -1  114.58    1.71
   6   1  -1    6.10    0.22
   7   1  -1   34.02    0.68
   8   1  -1    9.48    0.33
   9   1  -1   63.28    1.20
  10   1  -1   49.09    0.99
  11   1  -1    0.98    0.21
  12   1  -1   55.96    1.34
  13   1  -1   79.47    2.24
  14   1  -1    8.05    0.67
  15   1  -1   38.89    1.37
  16   1  -1   25.57    1.06
  17   1  -1    6.82    0.60
  18   1  -1    6.79    0.59
  19   1  -1    0.25    0.33
 -18   2  -1   23.28    1.32
 -17   2  -1   19.73    0.82
 -16   2  -1   36.93    1.17
 -15   2  -1    2.32    0.30
 -14   2  -1   25.10    0.88
 -13   2  -1    0.27    0.12
 -12   2  -1   14.82    0.48
 -11   2  -1    1.66    0.17
 -10   2  -1    7.53    0.29
  -9   2  -1  137.11    2.11
  -8   2  -1   63.26    1.07
  -7   2  -1    0.57    0.11
  -6   2  -1   30.94    0.57
  -5   2  -1  162.68    2.12
  -4   2  -1   22.92    0.38
  -3   2  -1   15.05    0.26
  -2   2  -1    2.70    0.12
  -1   2  -1    0.61    0.06
   0   2  -1    0.30    0.04
   1   2  -1    0.54    0.04
   2   2  -1    2.43    0.12
   3   2  -1   14.48    0.31
   4   2  -1   23.11    0.44
   5   2  -1  163.86    2.39
   6   2  -1   31.35    0.59
   7   2  -1    0.55    0.10
   8   2  -1   65.10    1.11
   9   2  -1  138.69    2.56
  10   2  -1    8.38    0.40
  11   2  -1    1.38    0.33
  12   2  -1   13.86    0.89
  13   2  -1    0.21    0.28
  14   2  -1   26.48    1.24
  15   2  -1    1.25    0.35
  16   2  -1   38.12    2.15
  17   2  -1   19.64    1.02
  18   2  -1   22.19    1.49
 -16   3  -1   18.64    0.80
 -15   3  -1   25.54    0.95
 -14   3  -1    6.15    0.48
 -13   3  -1   50.49    1.24
 -12   3  -1   31.90    0.88
 -11   3  -1    0.26    0.12
 -10   3  -1   28.92    0.77
  -9   3  -1   39.31    0.93
  -8   3  -1    6.78    0.32
  -7   3  -1   19.35    0.53
  -6   3  -1    3.02    0.19
  -5   3  -1   54.87    0.94
  -4   3  -1   39.18    0.72
  -3   3  -1   17.53    0.39
  -2   3  -1   14.81    0.34
  -1   3  -1   44.21    0.89
   0   3  -1    5.64    0.21
   1   3  -1   42.54    0.77
   2   3  -1   15.26    0.36
   3   3  -1   17.11    0.39
   4   3  -1   38.86    0.72
   5   3  -1   54.44    0.94
   6   3  -1    3.09    0.23
   7   3  -1   19.40    0.56
   8   3  -1    6.87    0.33
   9   3  -1   41.27    0.98
  10   3  -1   30.24    0.81
  11   3  -1    0.35    0.23
  12   3  -1   34.74    1.30
  13   3  -1   53.37    1.78
  14   3  -1    6.48    0.68
  15   3  -1   27.88    1.27
  16   3  -1   17.12    1.02
 -14   4  -1   14.54    0.96
 -13   4  -1    0.34    0.17
 -12   4  -1    6.63    0.44
 -11   4  -1    0.46    0.17
 -10   4  -1    4.06    0.33
  -9   4  -1   68.77    1.85
  -8   4  -1   26.74    0.96
  -7   4  -1    1.65    0.26
  -6   4  -1   16.48    0.55
  -5   4  -1   73.83    1.52
  -4   4  -1   10.48    0.41
  -3   4  -1    8.26    0.35
  -2   4  -1    1.76    0.19
  -1   4  -1    0.59    0.12
   0   4  -1    0.05    0.08
   1   4  -1    0.47    0.10
   2   4  -1    1.74    0.20
   3   4  -1    9.07    0.37
   4   4  -1   11.22    0.42
   5   4  -1   72.97    1.51
   6   4  -1   16.60    0.55
   7   4  -1    2.23    0.24
   8   4  -1   28.71    0.80
   9   4  -1   69.65    1.52
  10   4  -1    4.00    0.45
  11   4  -1    0.51    0.24
  12   4  -1    7.43    0.67
  13   4  -1    0.23    0.27
  14   4  -1   14.42    1.40
  -9   5  -1   20.63    1.24
  -8   5  -1    4.23    0.45
  -7   5  -1    8.09    0.60
  -6   5  -1    1.21    0.22
  -5   5  -1   21.46    0.70
  -4   5  -1   15.79    0.57
  -3   5  -1   10.08    0.45
  -2   5  -1    8.16    0.52
  -1   5  -1   21.65    0.82
   0   5  -1    2.98    0.34
   1   5  -1   18.46    0.77
   2   5  -1    7.35    0.53
   3   5  -1    9.93    0.54
   4   5  -1   15.24    0.58
   5   5  -1   22.26    0.72
   6   5  -1    0.87    0.20
   7   5  -1    9.60    0.51
   8   5  -1    3.43    0.34
   9   5  -1   23.66    0.99
  -9  -5   0    0.16    0.28
  -8  -5   0   44.59    1.94
  -7  -5   0   -0.18    0.23
  -6  -5   0   60.65    2.32
  -5  -5   0    0.10    0.24
  -4  -5   0  188.51    4.16
  -3  -5   0   -0.18    0.14
  -2  -5   0   11.76    0.91
  -1  -5   0   -0.08    0.21
   0  -5   0    0.43    0.28
   1  -5   0   -0.08    0.24
   2  -5   0   12.76    0.95
   3  -5   0    0.07    0.26
   4  -5   0  193.93    6.24
   5  -5   0    0.44    0.33
   6  -5   0   61.64    1.84
   7  -5   0    0.21    0.21
   8  -5   0   49.22    1.60
   9  -5   0    0.09    0.24
 -13  -4   0    0.34    0.29
 -12  -4   0   44.68    1.91
 -11  -4   0    0.41    0.28
 -10  -4   0  112.83    3.75
  -9  -4   0    0.18    0.22
  -8  -4   0   12.34    0.81
  -7  -4   0   -0.13    0.16
  -6  -4   0   30.17    1.32
  -5  -4   0   -0.09    0.15
  -4  -4   0   19.33    0.95
  -3  -4   0    0.11    0.17
  -2  -4   0   19.75    0.89
  -1  -4   0    0.04    0.15
   0  -4   0  622.06   12.08
   1  -4   0   -0.06    0.16
   2  -4   0   17.27    1.00
   3  -4   0   -0.01    0.17
   4  -4   0   19.29    1.09
   5  -4   0    0.20    0.23
   6  -4   0   30.73    1.05
   7  -4   0    0.18    0.15
   8  -4   0   14.32    0.70
   9  -4   0    0.07    0.18
  10  -4   0  107.56    4.16
  11  -4   0    0.15    0.25
  12  -4   0   46.53    1.67
  13  -4   0    0.07    0.27
 -16  -3   0    6.35    0.52
 -15  -3   0   -0.08    0.16
 -14  -3   0   33.37    1.08
 -13  -3   0    0.08    0.15
 -12  -3   0   16.22    0.66
 -11  -3   0   -0.01    0.13
 -10  -3   0    1.49    0.22
  -9  -3   0    0.27    0.13
  -8  -3   0   98.16    2.20
  -7  -3   0    0.10    0.11
  -6  -3   0  125.20    2.66
  -5  -3   0    0.11    0.10
  -4  -3   0  481.57    9.22
  -3  -3   0    0.02    0.08
  -2  -3   0   27.08    1.03
  -1  -3   0    0.06    0.12
   0  -3   0   -0.07    0.09
   1  -3   0    0.13    0.09
   2  -3   0   27.64    0.75
   3  -3   0   -0.06    0.08
   4  -3   0  458.47   13.61
   5  -3   0    0.01    0.16
   6  -3   0  124.71    2.84
   7  -3   0   -0.07    0.12
   8  -3   0   95.91    2.40
   9  -3   0   -0.15    0.14
  10  -3   0    2.12    0.34
  11  -3   0   -0.16    0.20
  12  -3   0   18.19    0.76
  13  -3   0    0.06    0.28
  14  -3   0   32.72    1.50
  15  -3   0   -0.15    0.33
  16  -3   0    5.30    0.74
 -17  -2   0    0.02    0.18
 -16  -2   0   39.93    1.22
 -15  -2   0    0.20    0.16
 -14  -2   0   54.82    1.47
 -13  -2   0    0.10    0.13
 -12  -2   0   72.83    1.77
 -11  -2   0    0.05    0.11
 -10  -2   0  227.55    4.62
  -9  -2   0    0.01    0.10
  -8  -2   0   31.61    0.86
  -7  -2   0   -0.05    0.09
  -6  -2   0   92.95    1.99
  -5  -2   0   -0.13    0.07
  -4  -2   0   64.62    1.41
  -3  -2   0   -0.01    0.06
  -2  -2   0   25.38    0.61
  -1  -2   0   -0.01    0.05
   0  -2   0 1000.00   24.45
   1  -2   0    0.06    0.07
   2  -2   0   26.37    0.80
   3  -2   0    0.11    0.06
   4  -2   0   65.47    1.38
   5  -2   0    0.02    0.05
   6  -2   0   94.19    2.14
   7  -2   0    0.08    0.13
   8  -2   0   31.60    1.02
   9  -2   0   -0.01    0.18
  10  -2   0  221.60    4.09
  11  -2   0    0.66    0.23
  12  -2   0   71.12    2.11
  13  -2   0   -0.05    0.24
  14  -2   0   55.37    2.01
  15  -2   0    0.42    0.34
  16  -2   0   36.64    1.55
  17  -2   0    0.40    0.31
 -18  -1   0   74.64    2.89
 -17  -1   0    0.58    0.28
 -16  -1   0    6.70    0.71
 -15  -1   0   -0.06    0.10
 -14  -1   0   48.07    1.03
 -13  -1   0    0.01    0.09
 -12  -1   0   30.19    0.70
 -11  -1   0   -0.01    0.08
 -10  -1   0    5.23    0.23
  -9  -1   0   -0.01    0.07
  -8  -1   0  174.84    2.84
  -7  -1   0    0.14    0.07
  -6  -1   0  214.49    3.43
  -5  -1   0   -0.20    0.04
  -4  -1   0  904.06   12.67
  -3  -1   0    0.19    0.04
  -2  -1   0   58.41    1.72
  -1  -1   0   -0.07    0.05
   1  -1   0    0.00    0.04
   2  -1   0   58.52    1.19
   3  -1   0    0.20    0.08
   4  -1   0  761.07   15.89
   5  -1   0    0.09    0.12
   6  -1   0  218.32    6.42
   7  -1   0    0.06    0.13
   8  -1   0  170.74    3.87
   9  -1   0    0.17    0.18
  10  -1   0    5.13    0.49
  11  -1   0    0.16    0.22
  12  -1   0   31.42    1.01
  13  -1   0   -0.06    0.21
  14  -1   0   46.17    1.57
  15  -1   0   -0.03    0.21
  16  -1   0    6.77    0.60
  17  -1   0   -0.17    0.20
  18  -1   0   72.50    2.11
  19  -1   0    0.04    0.31
 -19   0   0    0.00    0.17
 -18   0   0    4.66    0.43
 -17   0   0    0.43    0.19
 -16   0   0   50.51    1.40
 -15   0   0    0.22    0.14
 -14   0   0   65.85    1.35
 -13   0   0    0.33    0.11
 -12   0   0   88.12    1.40
 -11   0   0    0.53    0.11
 -10   0   0  296.82    4.11
  -9   0   0    0.18    0.07
  -8   0   0   45.89    0.77
  -7   0   0   -0.07    0.05
  -6   0   0  151.44    2.13
  -5   0   0   -0.29    0.04
  -4   0   0   98.82    1.37
  -3   0   0    0.62    0.05
  -2   0   0   32.03    0.47
   1   0   0    0.64    0.11
   2   0   0   33.27    0.82
   3   0   0    0.41    0.23
   4   0   0   93.11    1.92
   5   0   0   -0.01    0.18
   6   0   0  150.42    2.82
   7   0   0    0.25    0.16
   8   0   0   51.39    1.18
   9   0   0    0.03    0.17
  10   0   0  287.45    5.08
  11   0   0    0.71    0.19
  12   0   0   86.86    1.81
  13   0   0    0.21    0.20
  14   0   0   65.47    1.84
  15   0   0    0.66    0.23
  16   0   0   51.29    1.56
  17   0   0    0.13    0.20
  18   0   0    3.99    0.46
  19   0   0   -0.06    0.20
 -19   1   0    0.05    0.27
 -18   1   0   76.70    1.98
 -17   1   0    0.03    0.14
 -16   1   0    7.35    0.40
 -15   1   0    0.12    0.12
 -14   1   0   48.25    1.08
 -13   1   0    0.10    0.11
 -12   1   0   29.70    0.73
 -11   1   0    0.12    0.09
 -10   1   0    4.79    0.25
  -9   1   0    0.04    0.07
  -8   1   0  173.24    2.48
  -7   1   0    0.09    0.06
  -6   1   0  216.64    3.00
  -5   1   0   -0.19    0.04
  -4   1   0  817.62   10.97
  -3   1   0    0.04    0.03
  -2   1   0   58.04    0.76
  -1   1   0    0.09    0.03
   0   1   0   -0.50    0.12
   1   1   0   -0.02    0.03
   2   1   0   58.92    0.99
   3   1   0    0.12    0.04
   4   1   0  729.71   12.93
   5   1   0   -0.07    0.07
   6   1   0  213.58    3.15
   7   1   0    0.07    0.09
   8   1   0  174.33    2.70
   9   1   0    0.11    0.12
  10   1   0    5.37    0.31
  11   1   0    0.01    0.11
  12   1   0   29.31    1.27
  13   1   0   -0.14    0.23
  14   1   0   50.01    1.62
  15   1   0    0.16    0.22
  16   1   0    8.00    0.65
  17   1   0   -0.04    0.20
  18   1   0   75.64    2.12
  19   1   0    0.28    0.35
 -18   2   0    3.61    0.62
 -17   2   0    0.00    0.17
 -16   2   0   40.83    1.24
 -15   2   0    0.15    0.13
 -14   2   0   54.73    1.21
 -13   2   0    0.04    0.10
 -12   2   0   73.36    1.46
 -11   2   0    0.33    0.10
 -10   2   0  225.42    3.32
  -9   2   0   -0.02    0.08
  -8   2   0   31.76    0.63
  -7   2   0   -0.05    0.06
  -6   2   0   92.06    1.42
  -5   2   0   -0.07    0.05
  -4   2   0   66.26    0.91
  -3   2   0    0.07    0.04
  -2   2   0   24.80    0.36
  -1   2   0    0.15    0.04
   0   2   0  885.19   12.49
   1   2   0    0.03    0.04
   2   2   0   25.13    0.45
   3   2   0    0.03    0.04
   4   2   0   63.98    1.02
   5   2   0   -0.02    0.05
   6   2   0   92.43    1.43
   7   2   0    0.18    0.07
   8   2   0   31.50    0.77
   9   2   0    0.22    0.12
  10   2   0  223.04    4.00
  11   2   0   -0.11    0.12
  12   2   0   71.80    2.19
  13   2   0   -0.12    0.24
  14   2   0   53.42    1.89
  15   2   0   -0.31    0.26
  16   2   0   37.85    1.49
  17   2   0   -0.04    0.25
  18   2   0    3.73    0.74
 -16   3   0    6.28    0.52
 -15   3   0    0.11    0.16
 -14   3   0   32.14    1.08
 -13   3   0   -0.07    0.12
 -12   3   0   16.51    0.59
 -11   3   0    0.10    0.11
 -10   3   0    2.23    0.22
  -9   3   0    0.01    0.09
  -8   3   0   98.10    1.84
  -7   3   0    0.18    0.09
  -6   3   0  125.33    1.92
  -5   3   0    0.08    0.07
  -4   3   0  474.47    6.55
  -3   3   0    0.10    0.06
  -2   3   0   28.14    0.53
  -1   3   0   -0.01    0.06
   0   3   0    0.14    0.07
   1   3   0    0.08    0.06
   2   3   0   28.66    0.55
   3   3   0    0.06    0.06
   4   3   0  466.82    6.64
   5   3   0    0.07    0.08
   6   3   0  124.04    2.26
   7   3   0    0.02    0.09
   8   3   0   99.97    1.90
   9   3   0    0.01    0.10
  10   3   0    1.48    0.21
  11   3   0   -0.01    0.12
  12   3   0   17.04    0.86
  13   3   0   -0.09    0.22
  14   3   0   32.15    1.35
  15   3   0    0.36    0.31
  16   3   0    5.68    0.67
 -14   4   0   32.65    1.54
 -13   4   0   -0.03    0.15
 -12   4   0   44.27    1.15
 -11   4   0   -0.02    0.13
 -10   4   0  111.48    2.21
  -9   4   0    0.24    0.17
  -8   4   0   14.62    0.65
  -7   4   0    0.06    0.10
  -6   4   0   31.89    0.82
  -5   4   0    0.12    0.10
  -4   4   0   19.87    0.59
  -3   4   0    0.18    0.10
  -2   4   0   17.91    0.53
  -1   4   0   -0.04    0.08
   0   4   0  609.17    8.64
   1   4   0    0.12    0.10
   2   4   0   18.56    0.56
   3   4   0   -0.09    0.09
   4   4   0   20.18    0.59
   5   4   0    0.07    0.10
   6   4   0   30.72    0.81
   7   4   0    0.12    0.11
   8   4   0   13.47    0.51
   9   4   0    0.03    0.13
  10   4   0  119.31    2.31
  11   4   0    0.21    0.20
  12   4   0   47.81    1.58
  13   4   0    0.34    0.27
  -9   5   0    0.21    0.27
  -8   5   0   45.69    1.46
  -7   5   0    0.26    0.16
  -6   5   0   60.38    1.42
  -5   5   0    0.07    0.13
  -4   5   0  185.85    3.41
  -3   5   0    0.04    0.15
  -2   5   0   11.66    0.59
  -1   5   0    0.11    0.15
   0   5   0    0.12    0.15
   1   5   0   -0.14    0.13
   2   5   0   10.93    0.48
   3   5   0   -0.08    0.11
   4   5   0  186.66    3.45
   5   5   0    0.04    0.13
   6   5   0   62.11    1.43
   7   5   0   -0.02    0.14
   8   5   0   46.51    1.21
   9   5   0   -0.12    0.15
  10   5   0    0.01    0.28
  -9  -5   1   19.44    1.19
  -8  -5   1    2.77    0.51
  -7  -5   1    9.22    0.58
  -6  -5   1    1.43    0.27
  -5  -5   1   22.22    0.86
  -4  -5   1   15.01    0.69
  -3  -5   1   10.03    0.84
  -2  -5   1    8.01    0.84
  -1  -5   1   19.59    1.21
   0  -5   1    2.43    0.49
   1  -5   1   18.84    1.21
   2  -5   1    8.75    0.91
   3  -5   1    8.50    0.93
   4  -5   1   15.45    1.12
   5  -5   1   21.43    1.37
   6  -5   1    1.08    0.28
   7  -5   1    8.91    0.70
   8  -5   1    3.40    0.46
   9  -5   1   20.97    1.46
 -13  -4   1    0.21    0.28
 -12  -4   1    7.52    0.79
 -11  -4   1    0.23    0.25
 -10  -4   1    4.47    0.58
  -9  -4   1   65.41    2.46
  -8  -4   1   28.80    1.31
  -7  -4   1    1.89    0.36
  -6  -4   1   16.93    0.90
  -5  -4   1   76.11    2.51
  -4  -4   1   10.64    0.67
  -3  -4   1    8.64    0.57
  -2  -4   1    2.06    0.24
  -1  -4   1    0.37    0.14
   0  -4   1   -0.02    0.10
   1  -4   1    0.58    0.25
   2  -4   1    1.68    0.37
   3  -4   1    9.53    0.71
   4  -4   1   10.75    0.80
   5  -4   1   70.19    2.76
   6  -4   1   15.92    0.72
   7  -4   1    1.17    0.24
   8  -4   1   28.04    1.06
   9  -4   1   67.07    1.97
  10  -4   1    4.67    0.52
  11  -4   1    0.28    0.26
  12  -4   1    7.58    0.75
  13  -4   1   -0.03    0.47
 -16  -3   1   17.68    0.78
 -15  -3   1   28.05    0.99
 -14  -3   1    6.53    0.50
 -13  -3   1   53.31    1.47
 -12  -3   1   32.32    1.02
 -11  -3   1    0.34    0.15
 -10  -3   1   28.31    0.89
  -9  -3   1   40.55    1.10
  -8  -3   1    6.52    0.36
  -7  -3   1   20.47    0.64
  -6  -3   1    3.45    0.26
  -5  -3   1   54.90    1.28
  -4  -3   1   39.26    1.42
  -3  -3   1   16.61    0.76
  -2  -3   1   14.78    0.69
  -1  -3   1   42.50    1.44
   0  -3   1    5.25    0.28
   1  -3   1   42.56    1.06
   2  -3   1   15.61    0.49
   3  -3   1   17.46    0.89
   4  -3   1   39.44    1.59
   5  -3   1   54.87    2.06
   6  -3   1    2.70    0.30
   7  -3   1   19.52    0.75
   8  -3   1    6.34    0.49
   9  -3   1   40.97    1.33
  10  -3   1   29.78    1.14
  11  -3   1    0.03    0.23
  12  -3   1   32.89    1.37
  13  -3   1   53.68    1.54
  14  -3   1    5.84    0.73
  15  -3   1   26.73    1.46
  16  -3   1   17.99    1.21
 -17  -2   1   21.52    0.85
 -16  -2   1   36.48    1.17
 -15  -2   1    2.52    0.31
 -14  -2   1   25.98    0.89
 -13  -2   1    0.48    0.17
 -12  -2   1   14.73    0.59
 -11  -2   1    1.12    0.19
 -10  -2   1    7.37    0.37
  -9  -2   1  138.53    2.96
  -8  -2   1   65.50    1.50
  -7  -2   1    0.33    0.11
  -6  -2   1   30.94    0.80
  -5  -2   1  165.21    3.32
  -4  -2   1   22.80    0.60
  -3  -2   1   14.80    0.42
  -2  -2   1    2.48    0.14
  -1  -2   1    0.96    0.08
   0  -2   1    0.10    0.04
   1  -2   1    0.47    0.08
   2  -2   1    2.69    0.15
   3  -2   1   15.23    0.41
   4  -2   1   22.62    0.98
   5  -2   1  164.52    3.50
   6  -2   1   30.82    0.92
   7  -2   1    0.55    0.18
   8  -2   1   64.62    1.73
   9  -2   1  133.72    3.30
  10  -2   1    6.85    0.61
  11  -2   1    1.80    0.28
  12  -2   1   14.21    0.76
  13  -2   1    0.67    0.27
  14  -2   1   25.35    1.27
  15  -2   1    2.38    0.49
  16  -2   1   34.92    1.49
  17  -2   1   19.52    1.05
  18  -2   1   17.91    1.38
 -18  -1   1    6.09    0.73
 -17  -1   1    6.47    0.74
 -16  -1   1   23.79    1.32
 -15  -1   1   38.19    0.90
 -14  -1   1    8.53    0.36
 -13  -1   1   77.93    1.48
 -12  -1   1   55.59    1.10
 -11  -1   1    0.91    0.13
 -10  -1   1   49.02    0.96
  -9  -1   1   65.83    1.19
  -8  -1   1    9.15    0.28
  -7  -1   1   32.93    0.66
  -6  -1   1    6.00    0.24
  -5  -1   1  114.27    2.24
  -4  -1   1   91.44    1.51
  -3  -1   1   28.64    0.62
  -2  -1   1   26.47    0.45
  -1  -1   1   83.26    1.62
   0  -1   1   10.29    0.28
   1  -1   1   85.63    2.23
   3  -1   1   28.55    1.05
   4  -1   1   87.92    2.88
   5  -1   1  111.30    2.53
   6  -1   1    5.85    0.44
   7  -1   1   33.85    1.16
   8  -1   1    9.07    0.50
   9  -1   1   64.30    1.59
  10  -1   1   48.97    1.39
  11  -1   1    1.25    0.31
  12  -1   1   54.69    1.44
  13  -1   1   77.38    1.81
  14  -1   1    8.54    0.69
  15  -1   1   37.41    1.36
  16  -1   1   25.39    1.07
  17  -1   1    6.36    0.59
  18  -1   1    6.24    0.58
  19  -1   1   -0.01    0.30
 -19   0   1   48.86    1.99
 -18   0   1   24.44    0.92
 -17   0   1   23.42    0.85
 -16   0   1   43.42    1.25
 -15   0   1    2.31    0.24
 -14   0   1   32.52    0.81
 -13   0   1    1.06    0.13
 -12   0   1   21.02    0.48
 -11   0   1    2.43    0.17
 -10   0   1    9.34    0.28
  -9   0   1  188.23    2.72
  -8   0   1   91.24    1.41
  -7   0   1    0.26    0.07
  -6   0   1   42.95    0.82
  -5   0   1  238.21    3.26
  -4   0   1   36.38    0.80
  -3   0   1   19.47    0.48
  -2   0   1    3.26    0.11
  -1   0   1    0.61    0.04
   0   0   1    0.04    0.02
   1   0   1    0.65    0.06
   2   0   1    3.83    0.23
   3   0   1   21.73    0.77
   4   0   1   39.81    0.99
   5   0   1  223.36    5.07
   6   0   1   44.56    1.32
   7   0   1    0.16    0.18
   8   0   1   95.21    1.94
   9   0   1  185.59    3.46
  10   0   1   10.54    0.50
  11   0   1    2.68    0.29
  12   0   1   20.40    0.68
  13   0   1    1.05    0.21
  14   0   1   31.68    1.13
  15   0   1    2.96    0.38
  16   0   1   42.43    1.39
  17   0   1   21.61    0.92
  18   0   1   26.74    1.04
  19   0   1   49.33    2.18
 -18   1   1    6.97    0.44
 -17   1   1    6.24    0.41
 -16   1   1   26.46    0.77
 -15   1   1   38.47    0.95
 -14   1   1    8.38    0.37
 -13   1   1   75.78    1.52
 -12   1   1   52.77    1.13
 -11   1   1    0.86    0.14
 -10   1   1   47.29    0.99
  -9   1   1   64.36    1.06
  -8   1   1    8.81    0.26
  -7   1   1   34.14    0.60
  -6   1   1    6.25    0.18
  -5   1   1  113.27    1.64
  -4   1   1   90.77    1.33
  -3   1   1   28.52    0.41
  -2   1   1   25.90    0.32
  -1   1   1   81.67    0.88
   0   1   1   10.39    0.14
   1   1   1   80.33    1.35
   2   1   1   25.88    0.41
   3   1   1   28.33    0.46
   4   1   1   93.51    1.37
   5   1   1  114.46    1.70
   6   1   1    6.29    0.23
   7   1   1   34.33    0.69
   8   1   1    9.08    0.34
   9   1   1   66.73    1.25
  10   1   1   48.54    1.03
  11   1   1    1.23    0.24
  12   1   1   54.88    1.36
  13   1   1   77.88    1.74
  14   1   1    9.08    0.71
  15   1   1   39.93    1.37
  16   1   1   28.45    1.11
  17   1   1    6.53    0.58
  18   1   1    6.73    0.58
 -18   2   1   21.66    1.34
 -17   2   1   21.07    0.85
 -16   2   1   36.56    0.96
 -15   2   1    2.33    0.25
 -14   2   1   25.80    0.73
 -13   2   1    0.47    0.13
 -12   2   1   15.07    0.50
 -11   2   1    1.54    0.18
 -10   2   1    7.49    0.29
  -9   2   1  138.50    2.14
  -8   2   1   63.36    1.09
  -7   2   1    1.13    0.11
  -6   2   1   31.29    0.50
  -5   2   1  164.30    1.92
  -4   2   1   22.84    0.39
  -3   2   1   15.14    0.26
  -2   2   1    2.58    0.09
  -1   2   1    0.93    0.06
   0   2   1    0.27    0.04
   1   2   1    0.54    0.06
   2   2   1    2.72    0.12
   3   2   1   14.68    0.30
   4   2   1   23.14    0.42
   5   2   1  163.18    2.38
   6   2   1   30.46    0.56
   7   2   1    0.50    0.12
   8   2   1   65.02    1.32
   9   2   1  143.44    2.58
  10   2   1    8.46    0.41
  11   2   1    1.51    0.23
  12   2   1   16.00    0.62
  13   2   1    1.01    0.34
  14   2   1   27.00    1.22
  15   2   1    1.78    0.41
  16   2   1   37.08    1.44
  17   2   1   19.97    1.51
 -16   3   1   17.57    0.79
 -15   3   1   25.99    0.97
 -14   3   1    6.21    0.49
 -13   3   1   51.53    1.46
 -12   3   1   33.18    0.90
 -11   3   1    0.31    0.13
 -10   3   1   28.54    0.78
  -9   3   1   39.22    0.94
  -8   3   1    6.25    0.32
  -7   3   1   18.55    0.53
  -6   3   1    3.39    0.20
  -5   3   1   53.80    0.94
  -4   3   1   40.54    0.72
  -3   3   1   17.37    0.35
  -2   3   1   15.68    0.32
  -1   3   1   43.91    0.77
   0   3   1    5.47    0.20
   1   3   1   44.43    0.77
   2   3   1   15.63    0.36
   3   3   1   17.28    0.38
   4   3   1   40.01    0.86
   5   3   1   56.01    1.12
   6   3   1    2.86    0.22
   7   3   1   19.64    0.56
   8   3   1    7.09    0.33
   9   3   1   41.72    0.99
  10   3   1   29.87    0.82
  11   3   1    0.10    0.13
  12   3   1   34.89    0.96
  13   3   1   56.43    1.77
  14   3   1    7.80    0.70
  15   3   1   26.12    2.03
  16   3   1   15.66    1.80
 -14   4   1   14.01    0.95
 -13   4   1    0.07    0.16
 -12   4   1    7.44    0.47
 -11   4   1    0.35    0.15
 -10   4   1    3.93    0.33
  -9   4   1   67.89    1.86
  -8   4   1   27.46    0.97
  -7   4   1    2.23    0.23
  -6   4   1   17.53    0.57
  -5   4   1   74.59    1.51
  -4   4   1   10.17    0.40
  -3   4   1    8.49    0.35
  -2   4   1    1.51    0.18
  -1   4   1    0.35    0.10
   0   4   1    0.07    0.09
   1   4   1    0.57    0.13
   2   4   1    1.65    0.19
   3   4   1    8.33    0.36
   4   4   1   11.10    0.42
   5   4   1   74.34    1.52
   6   4   1   16.36    0.55
   7   4   1    2.05    0.23
   8   4   1   28.34    0.80
   9   4   1   69.74    1.52
  10   4   1    4.27    0.35
  11   4   1    0.35    0.17
  12   4   1    8.30    1.07
  13   4   1    0.32    0.47
  -9   5   1   19.70    1.23
  -8   5   1    4.09    0.45
  -7   5   1    9.11    0.50
  -6   5   1    0.97    0.20
  -5   5   1   22.00    0.70
  -4   5   1   15.40    0.71
  -3   5   1   10.94    0.58
  -2   5   1    8.57    0.54
  -1   5   1   18.77    0.77
   0   5   1    2.76    0.32
   1   5   1   19.14    0.65
   2   5   1    7.29    0.44
   3   5   1   10.44    0.46
   4   5   1   14.65    0.57
   5   5   1   20.66    0.70
   6   5   1    0.95    0.20
   7   5   1    8.75    0.48
   8   5   1    3.53    0.34
   9   5   1   22.30    1.36
  10   5   1   15.43    1.14
  -9  -5   2    8.57    0.89
  -8  -5   2    6.09    0.52
  -7  -5   2   39.64    1.27
  -6  -5   2    0.76    0.22
  -5  -5   2    4.93    0.45
  -4  -5   2    7.49    0.54
  -3  -5   2   24.59    1.38
  -2  -5   2    0.55    0.30
  -1  -5   2   -0.06    0.23
   0  -5   2    0.05    0.26
   1  -5   2    0.18    0.29
   2  -5   2    0.03    0.28
   3  -5   2   26.54    1.51
   4  -5   2    8.28    0.94
   5  -5   2    5.86    0.81
   6  -5   2    0.67    0.25
   7  -5   2   38.00    1.40
   8  -5   2    6.30    0.62
   9  -5   2   11.41    1.26
 -13  -4   2   13.20    0.96
 -12  -4   2   13.71    0.97
 -11  -4   2   34.14    1.64
 -10  -4   2    6.61    0.71
  -9  -4   2    1.28    0.35
  -8  -4   2    4.69    0.56
  -7  -4   2    0.46    0.25
  -6  -4   2   23.50    1.14
  -5  -4   2    7.46    0.57
  -4  -4   2    5.79    0.41
  -3  -4   2   19.67    0.69
  -2  -4   2    0.61    0.16
  -1  -4   2    5.48    0.36
   0  -4   2   13.35    0.86
   1  -4   2    5.38    0.61
   2  -4   2    0.35    0.23
   3  -4   2   19.63    1.11
   4  -4   2    5.34    0.66
   5  -4   2    7.01    0.76
   6  -4   2   25.57    0.96
   7  -4   2    0.38    0.19
   8  -4   2    4.09    0.45
   9  -4   2    0.96    0.28
  10  -4   2    5.63    0.59
  11  -4   2   39.44    1.49
  12  -4   2   15.22    1.00
  13  -4   2   12.36    1.05
 -16  -3   2   24.67    0.95
 -15  -3   2    3.95    0.42
 -14  -3   2    1.35    0.27
 -13  -3   2    5.85    0.45
 -12  -3   2    0.54    0.18
 -11  -3   2   69.46    1.75
 -10  -3   2   95.86    2.23
  -9  -3   2   17.58    0.63
  -8  -3   2   12.69    0.50
  -7  -3   2   84.88    1.92
  -6  -3   2    1.04    0.25
  -5  -3   2   27.17    1.09
  -4  -3   2   17.17    0.79
  -3  -3   2   56.62    1.87
  -2  -3   2    0.16    0.11
  -1  -3   2    0.64    0.14
   0  -3   2    0.04    0.09
   1  -3   2    0.67    0.14
   2  -3   2    0.05    0.09
   3  -3   2   56.39    2.09
   4  -3   2   15.62    0.89
   5  -3   2   24.97    1.24
   6  -3   2    0.65    0.18
   7  -3   2   85.25    2.15
   8  -3   2   13.11    0.65
   9  -3   2   18.31    0.83
  10  -3   2   97.84    2.60
  11  -3   2   70.37    2.16
  12  -3   2    0.67    0.34
  13  -3   2    6.15    0.57
  14  -3   2    1.18    0.35
  15  -3   2    4.40    0.67
  16  -3   2   22.36    1.59
 -17  -2   2    4.34    0.44
 -16  -2   2    0.02    0.17
 -15  -2   2   69.37    1.83
 -14  -2   2   56.61    1.52
 -13  -2   2   18.63    0.71
 -12  -2   2   25.11    0.82
 -11  -2   2   64.70    1.60
 -10  -2   2   10.08    0.45
  -9  -2   2    6.32    0.34
  -8  -2   2    8.33    0.38
  -7  -2   2    1.54    0.17
  -6  -2   2   68.77    1.55
  -5  -2   2   18.48    0.54
  -4  -2   2   11.19    0.37
  -3  -2   2   37.64    0.85
  -2  -2   2    0.54    0.08
  -1  -2   2    6.48    0.27
   0  -2   2   24.61    0.62
   1  -2   2    6.98    0.26
   2  -2   2    0.43    0.09
   3  -2   2   34.39    1.36
   4  -2   2   12.29    0.68
   5  -2   2   18.67    0.65
   6  -2   2   71.60    1.74
   7  -2   2    0.89    0.22
   8  -2   2   10.30    0.58
   9  -2   2    5.98    0.55
  10  -2   2    9.40    0.76
  11  -2   2   64.91    1.64
  12  -2   2   23.40    0.94
  13  -2   2   18.96    0.94
  14  -2   2   53.57    1.64
  15  -2   2   66.48    2.23
  16  -2   2    0.43    0.31
  17  -2   2    3.27    0.52
  18  -2   2    7.57    1.00
 -18  -1   2   24.30    1.37
 -17  -1   2   14.92    1.02
 -16  -1   2   35.71    1.63
 -15  -1   2    5.89    0.34
 -14  -1   2    1.26    0.17
 -13  -1   2    7.33    0.33
 -12  -1   2    0.71    0.13
 -11  -1   2  122.26    2.11
 -10  -1   2  168.16    2.79
  -9  -1   2   23.11    0.55
  -8  -1   2   19.73    0.47
  -7  -1   2  156.35    2.58
  -6  -1   2    0.67    0.09
  -5  -1   2   75.91    1.30
  -4  -1   2   25.44    0.50
  -3  -1   2  119.15    1.86
  -2  -1   2    0.70    0.09
  -1  -1   2    4.12    0.13
   0  -1   2    0.22    0.04
   1  -1   2    4.49    0.18
   2  -1   2    0.69    0.09
   3  -1   2  113.18    1.92
   4  -1   2   25.87    0.77
   5  -1   2   75.18    1.85
   6  -1   2    0.44    0.21
   7  -1   2  151.66    3.72
   8  -1   2   19.46    0.71
   9  -1   2   22.33    0.85
  10  -1   2  157.53    3.35
  11  -1   2  116.60    2.58
  12  -1   2    0.71    0.25
  13  -1   2    8.38    0.58
  14  -1   2    1.62    0.28
  15  -1   2    6.43    0.59
  16  -1   2   34.09    1.27
  17  -1   2   16.04    0.82
  18  -1   2   22.34    0.99
  19  -1   2   22.22    1.36
 -19   0   2    0.83    0.32
 -18   0   2   10.64    0.57
 -17   0   2    4.75    0.42
 -16   0   2    0.08    0.16
 -15   0   2   83.58    2.04
 -14   0   2   69.81    1.45
 -13   0   2   22.02    0.53
 -12   0   2   30.46    0.64
 -11   0   2   83.37    1.37
 -10   0   2   11.18    0.32
  -9   0   2   10.17    0.29
  -8   0   2   10.78    0.29
  -7   0   2    2.06    0.13
  -6   0   2  106.08    1.86
  -5   0   2   29.61    0.74
  -4   0   2   15.55    0.37
  -3   0   2   54.10    0.83
  -2   0   2    0.43    0.06
  -1   0   2    7.08    0.18
   0   0   2   34.04    0.65
   1   0   2    6.78    0.24
   2   0   2    0.37    0.08
   3   0   2   55.72    1.02
   4   0   2   16.80    0.57
   5   0   2   31.20    0.86
   6   0   2  109.63    2.17
   7   0   2    2.89    0.29
   8   0   2   12.63    0.53
   9   0   2   10.83    0.51
  10   0   2   11.76    0.52
  11   0   2   85.95    1.80
  12   0   2   32.10    0.89
  13   0   2   23.91    0.74
  14   0   2   72.19    1.58
  15   0   2   83.74    2.23
  16   0   2    0.34    0.22
  17   0   2    4.80    0.48
  18   0   2    8.84    0.98
 -18   1   2   24.68    0.77
 -17   1   2   16.37    0.60
 -16   1   2   34.29    0.92
 -15   1   2    5.90    0.37
 -14   1   2    1.61    0.20
 -13   1   2    7.15    0.34
 -12   1   2    1.04    0.16
 -11   1   2  121.22    2.17
 -10   1   2  167.47    2.46
  -9   1   2   23.16    0.50
  -8   1   2   19.18    0.43
  -7   1   2  155.21    2.28
  -6   1   2    0.70    0.08
  -5   1   2   76.08    1.17
  -4   1   2   27.01    0.56
  -3   1   2  113.93    1.35
  -2   1   2    0.64    0.04
  -1   1   2    4.22    0.09
   0   1   2    0.13    0.03
   1   1   2    4.15    0.10
   2   1   2    0.60    0.06
   3   1   2  114.87    1.94
   4   1   2   26.12    0.56
   5   1   2   76.99    1.18
   6   1   2    0.83    0.10
   7   1   2  159.45    2.41
   8   1   2   19.96    0.51
   9   1   2   25.68    0.62
  10   1   2  162.04    3.18
  11   1   2  117.09    2.46
  12   1   2    0.70    0.22
  13   1   2    8.24    0.47
  14   1   2    1.93    0.27
  15   1   2    5.05    0.53
  16   1   2   35.01    1.27
  17   1   2   14.55    1.16
 -17   2   2    3.66    0.33
 -16   2   2    0.04    0.14
 -15   2   2   69.87    1.50
 -14   2   2   55.42    1.24
 -13   2   2   18.68    0.59
 -12   2   2   24.16    0.67
 -11   2   2   66.24    1.33
 -10   2   2    9.96    0.35
  -9   2   2    5.66    0.26
  -8   2   2    7.94    0.28
  -7   2   2    1.15    0.10
  -6   2   2   69.71    0.98
  -5   2   2   19.39    0.32
  -4   2   2   11.54    0.20
  -3   2   2   36.22    0.46
  -2   2   2    0.61    0.05
  -1   2   2    6.57    0.14
   0   2   2   23.99    0.38
   1   2   2    7.31    0.18
   2   2   2    0.58    0.06
   3   2   2   37.44    0.61
   4   2   2   11.01    0.33
   5   2   2   18.36    0.47
   6   2   2   67.09    1.32
   7   2   2    0.97    0.14
   8   2   2    8.17    0.36
   9   2   2    5.12    0.33
  10   2   2   10.30    0.46
  11   2   2   67.57    1.49
  12   2   2   24.60    0.79
  13   2   2   19.25    0.73
  14   2   2   54.28    1.86
  15   2   2   66.67    3.38
  16   2   2   -0.34    0.34
  17   2   2    2.93    0.72
 -16   3   2   24.01    1.29
 -15   3   2    4.25    0.43
 -14   3   2    1.44    0.27
 -13   3   2    5.25    0.44
 -12   3   2    0.35    0.15
 -11   3   2   70.16    1.51
 -10   3   2   95.62    1.88
  -9   3   2   17.85    0.56
  -8   3   2   12.34    0.44
  -7   3   2   84.73    1.61
  -6   3   2    0.61    0.10
  -5   3   2   26.17    0.55
  -4   3   2   16.27    0.39
  -3   3   2   57.46    0.86
  -2   3   2    0.06    0.05
  -1   3   2    0.66    0.08
   0   3   2    0.08    0.06
   1   3   2    0.75    0.09
   2   3   2    0.06    0.06
   3   3   2   55.63    1.13
   4   3   2   16.41    0.46
   5   3   2   26.14    0.65
   6   3   2    0.65    0.12
   7   3   2   86.79    1.66
   8   3   2   12.58    0.45
   9   3   2   18.07    0.58
  10   3   2   95.58    1.94
  11   3   2   71.79    1.56
  12   3   2    0.56    0.18
  13   3   2    5.56    0.55
  14   3   2    1.14    0.66
  15   3   2    4.33    1.07
 -14   4   2   32.65    1.56
 -13   4   2   12.92    0.60
 -12   4   2   14.04    0.59
 -11   4   2   35.96    1.00
 -10   4   2    7.18    0.41
  -9   4   2    1.43    0.27
  -8   4   2    4.27    0.42
  -7   4   2    0.53    0.15
  -6   4   2   25.59    0.72
  -5   4   2    7.31    0.36
  -4   4   2    5.63    0.32
  -3   4   2   18.69    0.56
  -2   4   2    0.59    0.11
  -1   4   2    6.01    0.26
   0   4   2   13.82    0.46
   1   4   2    6.23    0.32
   2   4   2    0.59    0.13
   3   4   2   19.88    0.58
   4   4   2    5.74    0.33
   5   4   2    6.82    0.35
   6   4   2   25.29    0.71
   7   4   2    0.11    0.11
   8   4   2    4.65    0.34
   9   4   2    1.10    0.19
  10   4   2    7.42    0.59
  11   4   2   38.61    1.35
  12   4   2   15.56    0.82
  13   4   2   13.35    1.50
  -9   5   2   10.50    0.88
  -8   5   2    7.63    0.60
  -7   5   2   38.82    1.07
  -6   5   2    0.86    0.20
  -5   5   2    5.04    0.47
  -4   5   2    8.14    0.58
  -3   5   2   25.96    0.95
  -2   5   2    0.17    0.16
  -1   5   2    0.13    0.14
   0   5   2    0.16    0.13
   1   5   2    0.10    0.13
   2   5   2    0.25    0.13
   3   5   2   25.66    0.77
   4   5   2    8.17    0.44
   5   5   2    5.41    0.39
   6   5   2    0.69    0.18
   7   5   2   39.74    1.37
   8   5   2    5.66    0.55
   9   5   2   12.18    0.99
  -8  -5   3   32.87    1.63
  -7  -5   3   -0.02    0.18
  -6  -5   3    0.21    0.19
  -5  -5   3    2.57    0.35
  -4  -5   3    1.18    0.39
  -3  -5   3   -0.11    0.21
  -2  -5   3  162.14    5.37
  -1  -5   3    1.98    0.49
   0  -5   3   40.96    1.97
   1  -5   3    3.71    0.62
   2  -5   3  156.46    5.45
   3  -5   3    0.13    0.29
   4  -5   3    0.51    0.37
   5  -5   3    2.05    0.35
   6  -5   3    0.16    0.22
   7  -5   3   -0.13    0.20
   8  -5   3   35.62    1.39
 -12  -4   3    4.06    0.63
 -11  -4   3    0.00    0.26
 -10  -4   3    3.21    0.52
  -9  -4   3    8.01    0.80
  -8  -4   3   17.34    0.71
  -7  -4   3    0.56    0.17
  -6  -4   3  280.98    5.74
  -5  -4   3   11.56    0.54
  -4  -4   3   72.29    1.78
  -3  -4   3    0.34    0.15
  -2  -4   3   24.50    0.80
  -1  -4   3    0.72    0.18
   0  -4   3    0.05    0.18
   1  -4   3    1.07    0.32
   2  -4   3   24.27    1.27
   3  -4   3   -0.24    0.18
   4  -4   3   70.73    2.76
   5  -4   3   10.09    0.86
   6  -4   3  271.92    5.99
   7  -4   3    0.26    0.20
   8  -4   3   18.97    0.88
   9  -4   3   10.75    0.78
  10  -4   3    3.03    0.47
  11  -4   3    0.42    0.32
  12  -4   3    4.11    0.62
  13  -4   3    3.25    0.89
 -16  -3   3   12.66    0.95
 -15  -3   3    0.16    0.20
 -14  -3   3    0.32    0.19
 -13  -3   3   18.03    0.75
 -12  -3   3  111.86    2.60
 -11  -3   3    0.26    0.16
 -10  -3   3   53.54    1.39
  -9  -3   3   17.92    0.64
  -8  -3   3   78.84    2.68
  -7  -3   3   -0.02    0.16
  -6  -3   3    0.50    0.22
  -5  -3   3    6.87    0.51
  -4  -3   3    6.70    0.34
  -3  -3   3    0.44    0.13
  -2  -3   3  413.17    8.07
  -1  -3   3    6.29    0.32
   0  -3   3   81.50    1.85
   1  -3   3    6.04    0.31
   2  -3   3  399.40    8.05
   3  -3   3    0.42    0.24
   4  -3   3    7.44    0.62
   5  -3   3    7.23    0.44
   6  -3   3    0.19    0.15
   7  -3   3    0.23    0.18
   8  -3   3   80.80    2.17
   9  -3   3   16.53    0.82
  10  -3   3   51.75    1.72
  11  -3   3    0.02    0.26
  12  -3   3  108.00    3.22
  13  -3   3   19.14    0.91
  14  -3   3    0.40    0.30
  15  -3   3    0.07    0.34
  16  -3   3   15.02    1.43
 -18  -2   3   16.67    1.13
 -17  -2   3   17.54    0.79
 -16  -2   3   64.23    1.76
 -15  -2   3    0.20    0.18
 -14  -2   3    0.99    0.21
 -13  -2   3    5.36    0.42
 -12  -2   3    8.15    0.45
 -11  -2   3   -0.11    0.11
 -10  -2   3    8.23    0.42
  -9  -2   3   22.42    0.73
  -8  -2   3   27.92    0.82
  -7  -2   3    1.23    0.18
  -6  -2   3  596.00   11.06
  -5  -2   3   31.62    0.81
  -4  -2   3  152.02    3.07
  -3  -2   3    0.12    0.06
  -2  -2   3   75.99    1.31
  -1  -2   3    2.04    0.11
   0  -2   3   -0.19    0.08
   1  -2   3    1.99    0.17
   2  -2   3   78.14    1.64
   3  -2   3    0.11    0.09
   4  -2   3  150.69    2.54
   5  -2   3   32.14    0.96
   6  -2   3  524.17   11.47
   7  -2   3    1.61    0.28
   8  -2   3   28.36    1.08
   9  -2   3   23.60    1.04
  10  -2   3    7.65    0.74
  11  -2   3    0.07    0.34
  12  -2   3    8.75    0.65
  13  -2   3    6.15    0.57
  14  -2   3    0.32    0.28
  15  -2   3   -0.08    0.24
  16  -2   3   62.92    2.10
  17  -2   3   18.36    0.99
 -18  -1   3    8.37    0.88
 -17  -1   3    1.41    0.39
 -16  -1   3   19.22    0.78
 -15  -1   3    0.45    0.19
 -14  -1   3    0.20    0.12
 -13  -1   3   32.25    0.77
 -12  -1   3  166.31    2.87
 -11  -1   3    0.58    0.12
 -10  -1   3   74.02    1.41
  -9  -1   3   32.29    0.70
  -8  -1   3  154.24    2.54
  -7  -1   3    0.63    0.10
  -6  -1   3    0.63    0.08
  -5  -1   3   15.12    0.36
  -4  -1   3   23.64    0.48
  -3  -1   3    0.74    0.06
  -2  -1   3  756.67   11.58
  -1  -1   3   14.46    0.31
   0  -1   3  142.43    2.35
   1  -1   3   13.97    0.41
   2  -1   3  677.18   13.92
   3  -1   3    0.82    0.08
   4  -1   3   23.49    0.52
   5  -1   3   13.72    0.95
   6  -1   3    0.55    0.26
   7  -1   3    0.66    0.32
   8  -1   3  145.17    3.90
   9  -1   3   31.08    1.03
  10  -1   3   76.32    1.87
  11  -1   3    0.31    0.23
  12  -1   3  162.46    3.28
  13  -1   3   29.89    0.98
  14  -1   3   -0.01    0.18
  15  -1   3    0.68    0.22
  16  -1   3   18.54    0.87
  17  -1   3    1.57    0.33
  18  -1   3    6.76    0.89
 -19   0   3   -0.03    0.26
 -18   0   3   17.29    0.75
 -17   0   3   20.18    0.80
 -16   0   3   74.41    1.87
 -15   0   3    0.33    0.15
 -14   0   3    0.52    0.17
 -13   0   3    7.29    0.34
 -12   0   3   11.52    0.36
 -11   0   3    0.04    0.08
 -10   0   3   11.22    0.33
  -9   0   3   32.50    0.64
  -8   0   3   33.88    0.65
  -7   0   3    1.82    0.14
  -6   0   3  768.23   10.19
  -5   0   3   50.98    1.14
  -4   0   3  213.26    3.38
  -3   0   3    0.10    0.05
  -2   0   3  108.54    1.77
  -1   0   3    3.12    0.12
   0   0   3    0.12    0.08
   1   0   3    3.26    0.13
   2   0   3  104.83    1.91
   3   0   3    0.10    0.06
   4   0   3  203.76    3.09
   5   0   3   50.35    1.18
   7   0   3    1.83    0.27
   8   0   3   36.23    0.97
   9   0   3   34.12    0.94
  10   0   3   11.05    0.53
  11   0   3    0.22    0.17
  12   0   3   12.86    0.53
  13   0   3    8.51    0.45
  14   0   3    0.58    0.18
  15   0   3    0.30    0.17
  16   0   3   70.08    1.98
  17   0   3   18.50    1.24
  18   0   3   17.80    1.21
 -18   1   3    8.34    0.49
 -17   1   3    1.41    0.22
 -16   1   3   18.43    0.63
 -15   1   3    0.44    0.15
 -14   1   3    0.11    0.11
 -13   1   3   29.44    0.78
 -12   1   3  165.64    2.94
 -11   1   3    0.53    0.12
 -10   1   3   77.54    1.27
  -9   1   3   31.58    0.63
  -8   1   3  149.02    2.24
  -7   1   3    0.43    0.09
  -6   1   3    0.48    0.08
  -5   1   3   14.38    0.31
  -4   1   3   23.49    0.36
  -3   1   3    0.61    0.05
  -2   1   3  712.55    7.51
  -1   1   3   14.00    0.22
   0   1   3  142.15    1.52
   1   1   3   13.87    0.26
   2   1   3  742.67   14.11
   3   1   3    0.76    0.06
   4   1   3   23.67    0.52
   5   1   3   15.24    0.41
   6   1   3    0.65    0.13
   7   1   3    0.71    0.16
   8   1   3  152.91    2.83
   9   1   3   31.94    0.90
  10   1   3   78.84    1.71
  11   1   3    0.44    0.20
  12   1   3  164.59    3.18
  13   1   3   30.86    0.92
  14   1   3    0.16    0.17
  15   1   3    0.54    0.36
  16   1   3   17.86    1.29
  17   1   3    0.74    0.40
 -17   2   3   16.90    0.63
 -16   2   3   64.90    1.82
 -15   2   3    0.17    0.14
 -14   2   3    0.66    0.16
 -13   2   3    5.31    0.34
 -12   2   3    7.89    0.37
 -11   2   3    0.03    0.10
 -10   2   3    7.99    0.34
  -9   2   3   23.43    0.55
  -8   2   3   28.04    0.61
  -7   2   3    1.11    0.11
  -6   2   3  566.30    6.98
  -5   2   3   31.88    0.48
  -4   2   3  150.16    1.66
  -3   2   3    0.09    0.04
  -2   2   3   74.45    0.86
  -1   2   3    1.98    0.08
   0   2   3   -0.13    0.04
   1   2   3    1.83    0.11
   2   2   3   74.84    1.14
   3   2   3    0.07    0.04
   4   2   3  149.76    2.58
   5   2   3   31.15    0.69
   6   2   3  548.62    9.21
   7   2   3    1.06    0.14
   8   2   3   29.07    0.73
   9   2   3   23.66    0.67
  10   2   3    8.40    0.42
  11   2   3    0.02    0.12
  12   2   3    7.56    0.45
  13   2   3    5.02    0.55
  14   2   3    0.23    0.25
  15   2   3    0.24    0.48
  16   2   3   62.55    3.07
  17   2   3   16.10    1.38
 -15   3   3    0.82    0.24
 -14   3   3    0.41    0.19
 -13   3   3   18.99    0.77
 -12   3   3  112.31    2.61
 -11   3   3    0.22    0.14
 -10   3   3   50.63    1.18
  -9   3   3   16.05    0.54
  -8   3   3   80.88    1.60
  -7   3   3    0.08    0.10
  -6   3   3    0.30    0.08
  -5   3   3    7.18    0.22
  -4   3   3    7.47    0.20
  -3   3   3    0.38    0.07
  -2   3   3  407.03    5.08
  -1   3   3    6.04    0.18
   0   3   3   83.94    1.32
   1   3   3    6.16    0.21
   2   3   3  404.02    6.67
   3   3   3    0.26    0.09
   4   3   3    6.93    0.28
   5   3   3    7.28    0.30
   6   3   3    0.21    0.10
   7   3   3    0.13    0.10
   8   3   3   81.03    1.62
   9   3   3   16.88    0.55
  10   3   3   51.51    1.58
  11   3   3   -0.07    0.18
  12   3   3  113.84    2.94
  13   3   3   20.18    0.97
  14   3   3    0.34    0.27
  15   3   3    0.41    0.60
 -13   4   3    3.12    0.39
 -12   4   3    3.97    0.36
 -11   4   3    0.11    0.16
 -10   4   3    3.24    0.31
  -9   4   3   10.09    0.62
  -8   4   3   18.83    0.80
  -7   4   3    0.08    0.12
  -6   4   3  277.55    4.75
  -5   4   3   12.43    0.46
  -4   4   3   73.40    1.46
  -3   4   3    0.15    0.09
  -2   4   3   23.59    0.66
  -1   4   3    0.88    0.15
   0   4   3    0.02    0.09
   1   4   3    1.20    0.17
   2   4   3   23.07    0.65
   3   4   3    0.05    0.09
   4   4   3   70.96    1.47
   5   4   3   12.83    0.46
   6   4   3  277.05    4.77
   7   4   3    0.26    0.12
   8   4   3   19.27    0.83
   9   4   3   10.10    0.61
  10   4   3    2.98    0.40
  11   4   3    0.02    0.21
  12   4   3    3.78    0.50
  13   4   3    2.90    0.58
  -9   5   3    8.08    0.88
  -8   5   3   33.95    1.84
  -7   5   3    0.20    0.17
  -6   5   3    0.11    0.19
  -5   5   3    2.30    0.34
  -4   5   3    0.80    0.23
  -3   5   3    0.14    0.16
  -2   5   3  162.28    3.65
  -1   5   3    2.61    0.28
   0   5   3   42.53    1.07
   1   5   3    2.51    0.27
   2   5   3  163.12    3.01
   3   5   3    0.05    0.13
   4   5   3    1.44    0.20
   5   5   3    2.34    0.37
   6   5   3    0.23    0.21
   7   5   3    0.15    0.20
   8   5   3   34.99    1.30
  -8  -5   4    7.82    0.86
  -7  -5   4   52.24    2.22
  -6  -5   4   15.65    0.75
  -5  -5   4   20.44    0.84
  -4  -5   4    4.34    0.64
  -3  -5   4   46.68    2.12
  -2  -5   4   12.34    0.97
  -1  -5   4   26.18    1.49
   0  -5   4    0.17    0.30
   1  -5   4   29.63    1.60
   2  -5   4   13.75    1.08
   3  -5   4   48.16    2.31
   4  -5   4    4.19    0.73
   5  -5   4   19.21    0.92
   6  -5   4   17.48    0.89
   7  -5   4   54.16    1.82
 -12  -4   4   14.53    1.03
 -11  -4   4   45.33    2.03
 -10  -4   4   46.65    2.00
  -9  -4   4   22.91    1.26
  -8  -4   4    0.83    0.33
  -7  -4   4    5.72    0.43
  -6  -4   4    0.75    0.19
  -5  -4   4    7.34    0.43
  -4  -4   4   10.87    0.52
  -3  -4   4   71.10    1.76
  -2  -4   4   18.42    0.68
  -1  -4   4   80.32    2.89
   0  -4   4   13.47    0.90
   1  -4   4   76.06    2.91
   2  -4   4   18.34    1.11
   3  -4   4   67.54    2.72
   4  -4   4   11.35    0.89
   5  -4   4    7.30    0.55
   6  -4   4    1.31    0.28
   7  -4   4    6.07    0.55
   8  -4   4   -0.07    0.21
   9  -4   4   25.64    1.12
  10  -4   4   47.21    1.72
  11  -4   4   50.28    1.85
  12  -4   4   13.02    1.10
  13  -4   4   16.30    1.81
 -15  -3   4   14.14    1.02
 -14  -3   4   25.38    0.94
 -13  -3   4   22.29    0.85
 -12  -3   4    1.84    0.42
 -11  -3   4    6.09    0.69
 -10  -3   4    8.59    0.68
  -9  -3   4    4.84    0.57
  -8  -3   4   14.76    0.90
  -7  -3   4  115.72    2.55
  -6  -3   4   39.63    1.08
  -5  -3   4   41.04    1.10
  -4  -3   4    7.67    0.38
  -3  -3   4  113.02    2.52
  -2  -3   4   29.38    0.86
  -1  -3   4   70.13    1.67
   0  -3   4    0.16    0.12
   1  -3   4   71.41    1.67
   2  -3   4   30.78    1.38
   3  -3   4  111.56    3.84
   4  -3   4    7.78    0.66
   5  -3   4   42.74    1.24
   6  -3   4   38.96    1.23
   7  -3   4  117.68    2.84
   8  -3   4   17.45    0.83
   9  -3   4    4.47    0.51
  10  -3   4    6.59    0.67
  11  -3   4    6.20    0.72
  12  -3   4    1.80    0.52
  13  -3   4   22.25    0.99
  14  -3   4   25.73    1.14
  15  -3   4   13.10    0.93
  16  -3   4   26.51    1.70
 -17  -2   4    2.35    0.36
 -16  -2   4    0.36    0.22
 -15  -2   4    7.01    0.53
 -14  -2   4    7.72    0.54
 -13  -2   4   20.18    0.76
 -12  -2   4   23.40    0.82
 -11  -2   4   80.06    1.93
 -10  -2   4   87.71    2.10
  -9  -2   4   47.36    1.23
  -8  -2   4   -0.05    0.10
  -7  -2   4    9.89    0.43
  -6  -2   4    2.71    0.18
  -5  -2   4   24.81    0.55
  -4  -2   4   25.68    0.56
  -3  -2   4  164.51    2.74
  -2  -2   4   45.90    0.86
  -1  -2   4  171.31    2.84
   0  -2   4   27.49    0.55
   1  -2   4  173.69    3.53
   2  -2   4   44.87    1.09
   3  -2   4  163.23    3.37
   4  -2   4   25.07    0.57
   5  -2   4   24.99    0.84
   6  -2   4    3.15    0.35
   7  -2   4    9.95    0.62
   8  -2   4    0.11    0.22
   9  -2   4   44.95    1.63
  10  -2   4   89.93    2.73
  11  -2   4   79.72    2.65
  12  -2   4   24.90    1.01
  13  -2   4   18.19    0.93
  14  -2   4    7.54    0.64
  15  -2   4    7.03    0.61
  16  -2   4    0.59    0.29
  17  -2   4    2.91    0.70
 -18  -1   4    5.19    0.71
 -17  -1   4    7.19    0.80
 -16  -1   4   40.64    1.26
 -15  -1   4   18.79    0.77
 -14  -1   4   35.80    0.87
 -13  -1   4   33.64    0.82
 -12  -1   4    3.18    0.24
 -11  -1   4    9.75    0.36
 -10  -1   4   11.66    0.39
  -9  -1   4    4.39    0.25
  -8  -1   4   28.82    0.65
  -7  -1   4  197.61    3.24
  -6  -1   4   75.46    1.17
  -5  -1   4   74.87    1.13
  -4  -1   4   13.23    0.28
  -3  -1   4  212.65    3.45
  -2  -1   4   64.35    1.15
  -1  -1   4  154.76    2.57
   0  -1   4    0.03    0.05
   1  -1   4  155.29    2.58
   2  -1   4   64.54    1.38
   3  -1   4  205.53    3.49
   4  -1   4   13.23    0.37
   5  -1   4   73.79    1.69
   6  -1   4   78.08    3.08
   7  -1   4  179.19    6.66
   8  -1   4   30.31    1.47
   9  -1   4    3.81    0.41
  10  -1   4   12.27    0.65
  11  -1   4    9.88    0.58
  12  -1   4    3.11    0.37
  13  -1   4   34.22    1.05
  14  -1   4   35.75    1.08
  15  -1   4   20.62    0.76
  16  -1   4   40.41    1.42
  17  -1   4    7.90    0.97
  18  -1   4    4.55    0.74
 -18   0   4   -0.11    0.17
 -17   0   4    3.08    0.36
 -16   0   4    0.67    0.20
 -15   0   4    8.52    0.47
 -14   0   4    8.58    0.38
 -13   0   4   23.10    0.64
 -12   0   4   29.27    0.72
 -11   0   4   98.01    1.83
 -10   0   4  117.39    2.11
  -9   0   4   59.91    1.19
  -8   0   4    0.14    0.09
  -7   0   4   12.96    0.38
  -6   0   4    3.29    0.18
  -5   0   4   39.68    1.00
  -4   0   4   36.31    0.73
  -3   0   4  242.64    3.27
  -2   0   4   69.96    1.05
  -1   0   4  254.04    4.18
   0   0   4   38.04    0.77
   1   0   4  252.90    4.11
   2   0   4   69.20    1.32
   3   0   4  228.66    3.96
   4   0   4   37.63    0.70
   5   0   4   41.11    0.77
   6   0   4    3.82    0.32
   7   0   4   13.78    0.55
   8   0   4    0.34    0.18
   9   0   4   63.21    1.41
  10   0   4  119.72    2.36
  11   0   4  103.90    2.07
  12   0   4   28.36    0.84
  13   0   4   23.01    0.74
  14   0   4    9.49    0.62
  15   0   4    7.95    0.62
  16   0   4    0.72    0.35
  17   0   4    2.33    0.54
  18   0   4    0.11    0.31
 -18   1   4    3.71    0.41
 -17   1   4    7.60    0.55
 -16   1   4   39.70    1.03
 -15   1   4   19.09    0.63
 -14   1   4   35.11    0.91
 -13   1   4   32.98    0.85
 -12   1   4    2.79    0.24
 -11   1   4   10.47    0.35
 -10   1   4   12.59    0.37
  -9   1   4    4.28    0.23
  -8   1   4   28.77    0.60
  -7   1   4  195.25    2.87
  -6   1   4   75.04    1.22
  -5   1   4   74.05    1.17
  -4   1   4   12.92    0.26
  -3   1   4  209.15    2.25
  -2   1   4   64.23    0.75
  -1   1   4  153.41    1.66
   0   1   4    0.06    0.04
   1   1   4  157.08    1.98
   2   1   4   65.26    0.98
   3   1   4  210.48    2.98
   4   1   4   12.86    0.28
   5   1   4   75.54    1.41
   6   1   4   78.38    1.50
   7   1   4  200.15    3.51
   8   1   4   30.11    0.80
   9   1   4    3.72    0.32
  10   1   4   12.49    0.52
  11   1   4    9.85    0.51
  12   1   4    2.84    0.43
  13   1   4   35.74    1.26
  14   1   4   36.66    1.29
  15   1   4   20.03    0.91
  16   1   4   42.68    2.10
  17   1   4    7.50    0.92
  18   1   4    3.10    0.62
 -17   2   4    2.83    0.30
 -16   2   4    0.83    0.20
 -15   2   4    7.27    0.44
 -14   2   4    6.71    0.41
 -13   2   4   19.44    0.62
 -12   2   4   23.29    0.67
 -11   2   4   79.51    1.58
 -10   2   4   90.86    1.73
  -9   2   4   45.42    1.00
  -8   2   4    0.20    0.08
  -7   2   4   10.40    0.29
  -6   2   4    2.59    0.16
  -5   2   4   24.54    0.38
  -4   2   4   25.48    0.38
  -3   2   4  164.40    1.79
  -2   2   4   45.41    0.57
  -1   2   4  172.18    1.86
   0   2   4   27.12    0.44
   1   2   4  172.06    2.21
   2   2   4   44.29    0.75
   3   2   4  163.25    2.77
   4   2   4   25.04    0.57
   5   2   4   23.59    0.57
   6   2   4    2.42    0.18
   7   2   4   10.13    0.36
   8   2   4    0.10    0.09
   9   2   4   45.74    1.06
  10   2   4   93.73    2.43
  11   2   4   76.33    2.23
  12   2   4   24.45    1.06
  13   2   4   19.53    0.96
  14   2   4    6.44    0.63
  15   2   4    7.36    0.67
  16   2   4    0.45    0.45
  17   2   4    2.79    0.70
 -15   3   4   14.51    0.72
 -14   3   4   24.32    0.94
 -13   3   4   20.07    0.83
 -12   3   4    1.78    0.28
 -11   3   4    6.68    0.49
 -10   3   4    6.88    0.39
  -9   3   4    4.73    0.34
  -8   3   4   17.75    0.48
  -7   3   4  116.19    1.83
  -6   3   4   40.46    0.69
  -5   3   4   42.06    0.58
  -4   3   4    8.43    0.20
  -3   3   4  115.76    1.33
  -2   3   4   31.57    0.53
  -1   3   4   72.35    1.03
   0   3   4    0.11    0.07
   1   3   4   73.23    1.38
   2   3   4   30.68    0.70
   3   3   4  117.64    2.08
   4   3   4    8.43    0.32
   5   3   4   40.70    0.91
   6   3   4   39.88    0.90
   7   3   4  110.54    2.72
   8   3   4   16.12    0.73
   9   3   4    4.26    0.45
  10   3   4    7.76    0.62
  11   3   4    7.40    0.62
  12   3   4    2.73    0.44
  13   3   4   20.16    1.01
  14   3   4   23.87    1.13
  15   3   4   13.48    1.61
 -13   4   4   13.35    0.93
 -12   4   4   13.76    0.68
 -11   4   4   49.02    1.22
 -10   4   4   47.48    1.18
  -9   4   4   23.83    0.97
  -8   4   4    0.12    0.18
  -7   4   4    5.91    0.39
  -6   4   4    1.26    0.19
  -5   4   4    8.04    0.37
  -4   4   4   11.21    0.37
  -3   4   4   72.38    1.25
  -2   4   4   18.54    0.57
  -1   4   4   79.73    1.59
   0   4   4   13.67    0.46
   1   4   4   80.20    1.59
   2   4   4   18.54    0.56
   3   4   4   70.10    1.45
   4   4   4   11.08    0.42
   5   4   4    7.48    0.50
   6   4   4    0.41    0.25
   7   4   4    4.52    0.44
   8   4   4    0.19    0.18
   9   4   4   26.04    1.03
  10   4   4   48.99    1.59
  11   4   4   50.29    1.66
  12   4   4   14.15    0.88
  13   4   4   15.78    1.20
  -9   5   4    4.26    0.66
  -8   5   4    7.67    0.63
  -7   5   4   55.29    1.71
  -6   5   4   18.02    0.83
  -5   5   4   20.78    0.87
  -4   5   4    4.18    0.43
  -3   5   4   47.77    1.44
  -2   5   4   12.15    0.51
  -1   5   4   27.70    0.81
   0   5   4    0.04    0.13
   1   5   4   26.88    0.80
   2   5   4   12.93    0.66
   3   5   4   46.63    1.49
   4   5   4    5.03    0.49
   5   5   4   19.99    0.90
   6   5   4   18.29    0.86
   7   5   4   56.11    1.74
  -7  -5   5    1.52    0.43
  -6  -5   5    0.72    0.34
  -5  -5   5    4.75    0.68
  -4  -5   5   11.63    0.93
  -3  -5   5   30.83    1.67
  -2  -5   5   11.37    0.94
  -1  -5   5    0.14    0.31
   0  -5   5    7.23    0.89
   1  -5   5    0.41    0.36
   2  -5   5   10.22    1.07
   3  -5   5   33.84    1.86
   4  -5   5   11.26    0.72
   5  -5   5    3.81    0.48
   6  -5   5    0.53    0.27
   7  -5   5    1.37    0.47
 -12  -4   5   22.51    1.34
 -11  -4   5    2.98    0.56
 -10  -4   5    4.37    0.64
  -9  -4   5   66.99    2.56
  -8  -4   5   11.70    0.86
  -7  -4   5    4.65    0.60
  -6  -4   5   12.90    0.58
  -5  -4   5   31.31    1.00
  -4  -4   5    2.41    0.29
  -3  -4   5   15.21    0.63
  -2  -4   5    4.20    0.37
  -1  -4   5   35.12    1.61
   0  -4   5   -0.12    0.21
   1  -4   5   32.71    1.64
   2  -4   5    4.11    0.61
   3  -4   5   14.02    1.00
   4  -4   5    2.90    0.55
   5  -4   5   31.37    1.12
   6  -4   5   13.65    0.72
   7  -4   5    4.23    0.49
   8  -4   5   11.99    0.85
   9  -4   5   68.35    2.15
  10  -4   5    4.52    0.63
  11  -4   5    1.74    0.49
  12  -4   5   23.20    1.37
 -15  -3   5   29.95    1.58
 -14  -3   5    6.24    0.78
 -13  -3   5   55.28    2.29
 -12  -3   5   10.55    0.83
 -11  -3   5    2.61    0.47
 -10  -3   5   10.47    0.79
  -9  -3   5   20.42    1.09
  -8  -3   5    1.51    0.36
  -7  -3   5    5.36    0.58
  -6  -3   5    1.51    0.21
  -5  -3   5    9.21    0.44
  -4  -3   5   25.84    0.80
  -3  -3   5   76.33    1.80
  -2  -3   5   20.31    0.68
  -1  -3   5    1.42    0.20
   0  -3   5   32.64    0.92
   1  -3   5    0.85    0.18
   2  -3   5   21.37    1.10
   3  -3   5   76.23    2.80
   4  -3   5   25.26    0.88
   5  -3   5   12.03    0.58
   6  -3   5    1.05    0.24
   7  -3   5    5.09    0.50
   8  -3   5    2.63    0.40
   9  -3   5   18.49    0.96
  10  -3   5   10.06    0.87
  11  -3   5    1.86    0.51
  12  -3   5    8.72    0.99
  13  -3   5   56.26    1.70
  14  -3   5    4.19    0.55
  15  -3   5   29.82    1.25
 -17  -2   5   13.87    0.72
 -16  -2   5   17.94    0.80
 -15  -2   5   26.89    1.03
 -14  -2   5    3.54    0.39
 -13  -2   5   10.57    0.56
 -12  -2   5   42.49    1.24
 -11  -2   5    5.49    0.42
 -10  -2   5    7.22    0.43
  -9  -2   5  123.78    2.79
  -8  -2   5   20.56    0.69
  -7  -2   5    4.68    0.31
  -6  -2   5   21.83    0.53
  -5  -2   5   61.93    1.19
  -4  -2   5   12.76    0.36
  -3  -2   5   59.74    1.11
  -2  -2   5    7.82    0.26
  -1  -2   5   95.84    1.66
   0  -2   5    0.04    0.06
   1  -2   5   95.09    2.09
   2  -2   5    7.80    0.36
   3  -2   5   59.33    1.14
   4  -2   5   12.64    0.56
   5  -2   5   62.92    1.69
   6  -2   5   21.84    0.88
   7  -2   5    4.93    0.51
   8  -2   5   21.47    1.03
   9  -2   5  121.50    3.41
  10  -2   5    8.80    0.91
  11  -2   5    5.68    0.79
  12  -2   5   41.85    1.37
  13  -2   5   11.78    0.73
  14  -2   5    3.31    0.44
  15  -2   5   29.59    1.42
  16  -2   5   16.75    1.07
 -17  -1   5   33.07    1.64
 -16  -1   5   67.74    2.66
 -15  -1   5   41.01    1.28
 -14  -1   5    5.73    0.35
 -13  -1   5   83.80    1.63
 -12  -1   5   14.31    0.47
 -11  -1   5    1.64    0.18
 -10  -1   5   14.80    0.45
  -9  -1   5   28.78    0.69
  -8  -1   5    6.01    0.27
  -7  -1   5   16.71    0.46
  -6  -1   5    2.25    0.17
  -5  -1   5   16.00    0.34
  -4  -1   5   44.77    0.74
  -3  -1   5  136.01    2.29
  -2  -1   5   32.68    0.67
  -1  -1   5    5.39    0.21
   0  -1   5   76.74    1.37
   1  -1   5    5.46    0.17
   2  -1   5   33.75    0.72
   3  -1   5  136.59    2.78
   4  -1   5   45.01    0.97
   5  -1   5   16.08    0.47
   6  -1   5    2.72    0.18
   7  -1   5   18.25    1.27
   8  -1   5    5.89    0.86
   9  -1   5   29.82    0.98
  10  -1   5   14.43    0.69
  11  -1   5    1.17    0.26
  12  -1   5   14.58    0.65
  13  -1   5   84.18    1.91
  14  -1   5    6.55    0.64
  15  -1   5   41.29    1.47
  16  -1   5   67.51    2.03
  17  -1   5   34.04    1.82
 -18   0   5    7.88    0.57
 -17   0   5   16.09    0.71
 -16   0   5   21.60    0.82
 -15   0   5   33.43    1.07
 -14   0   5    3.56    0.28
 -13   0   5   14.31    0.49
 -12   0   5   56.45    1.18
 -11   0   5    7.19    0.32
 -10   0   5    9.69    0.36
  -9   0   5  170.26    2.92
  -8   0   5   28.31    0.66
  -7   0   5    3.60    0.22
  -6   0   5   27.20    0.62
  -5   0   5   85.14    1.53
  -4   0   5   22.83    0.64
  -3   0   5  102.36    1.75
  -2   0   5    9.69    0.37
  -1   0   5  144.95    2.47
   0   0   5    0.18    0.07
   1   0   5  140.79    2.49
   2   0   5   10.39    0.33
   3   0   5  101.69    1.86
   4   0   5   23.42    0.48
   5   0   5   86.74    1.41
   6   0   5   28.27    0.60
   7   0   5    3.77    0.32
   8   0   5   27.68    0.80
   9   0   5  169.56    3.17
  10   0   5   10.82    0.49
  11   0   5    6.38    0.57
  12   0   5   57.04    1.70
  13   0   5   16.49    0.78
  14   0   5    3.96    0.46
  15   0   5   35.92    1.25
  16   0   5   21.48    0.94
  17   0   5   14.72    1.12
  18   0   5    6.01    0.83
 -17   1   5   32.83    1.11
 -16   1   5   67.68    1.81
 -15   1   5   41.31    1.25
 -14   1   5    6.18    0.38
 -13   1   5   82.09    1.68
 -12   1   5   13.52    0.48
 -11   1   5    1.96    0.18
 -10   1   5   14.79    0.42
  -9   1   5   29.94    0.64
  -8   1   5    5.81    0.25
  -7   1   5   16.80    0.42
  -6   1   5    2.24    0.16
  -5   1   5   16.55    0.32
  -4   1   5   44.71    0.68
  -3   1   5  134.54    1.60
  -2   1   5   32.56    0.55
  -1   1   5    5.30    0.14
   0   1   5   75.79    1.03
   1   1   5    5.38    0.14
   2   1   5   33.39    0.63
   3   1   5  132.02    2.32
   4   1   5   44.66    0.75
   5   1   5   15.82    0.34
   6   1   5    2.54    0.16
   7   1   5   18.13    0.52
   8   1   5    6.07    0.58
   9   1   5   29.46    1.18
  10   1   5   15.26    0.82
  11   1   5    1.81    0.36
  12   1   5   14.73    0.80
  13   1   5   81.05    2.30
  14   1   5    6.28    0.58
  15   1   5   40.75    1.42
  16   1   5   69.57    2.00
  17   1   5   32.77    1.79
 -17   2   5   13.67    0.98
 -16   2   5   17.31    0.64
 -15   2   5   30.32    0.87
 -14   2   5    3.74    0.32
 -13   2   5   10.99    0.46
 -12   2   5   42.25    1.02
 -11   2   5    5.26    0.34
 -10   2   5    7.15    0.35
  -9   2   5  125.76    2.29
  -8   2   5   21.41    0.52
  -7   2   5    4.16    0.23
  -6   2   5   22.31    0.46
  -5   2   5   63.86    0.80
  -4   2   5   12.57    0.24
  -3   2   5   57.47    0.73
  -2   2   5    8.08    0.18
  -1   2   5   94.09    1.08
   0   2   5    0.28    0.05
   1   2   5   94.29    1.44
   2   2   5    7.49    0.22
   3   2   5   59.56    0.96
   4   2   5   12.64    0.35
   5   2   5   64.03    1.23
   6   2   5   20.65    0.77
   7   2   5    4.16    0.39
   8   2   5   20.41    0.85
   9   2   5  127.65    3.12
  10   2   5    7.69    0.65
  11   2   5    6.27    0.60
  12   2   5   42.42    1.50
  13   2   5   11.85    0.84
  14   2   5    3.71    0.50
  15   2   5   31.69    1.26
  16   2   5   18.09    0.93
 -15   3   5   27.56    1.42
 -14   3   5    4.41    0.44
 -13   3   5   55.03    1.59
 -12   3   5   10.87    0.57
 -11   3   5    1.86    0.28
 -10   3   5   10.16    0.43
  -9   3   5   19.85    0.54
  -8   3   5    1.54    0.17
  -7   3   5    5.30    0.27
  -6   3   5    1.46    0.14
  -5   3   5   10.83    0.25
  -4   3   5   26.12    0.42
  -3   3   5   75.62    0.94
  -2   3   5   20.58    0.34
  -1   3   5    1.12    0.09
   0   3   5   31.22    0.71
   1   3   5    0.90    0.12
   2   3   5   20.25    0.53
   3   3   5   77.10    1.46
   4   3   5   25.99    0.64
   5   3   5   10.12    0.50
   6   3   5    1.47    0.24
   7   3   5    4.99    0.44
   8   3   5    1.12    0.25
   9   3   5   20.27    0.87
  10   3   5   10.72    0.69
  11   3   5    1.83    0.36
  12   3   5   10.17    0.79
  13   3   5   57.80    1.89
  14   3   5    4.10    0.55
  15   3   5   28.18    1.26
 -13   4   5    4.47    0.62
 -12   4   5   24.02    1.24
 -11   4   5    3.01    0.36
 -10   4   5    3.89    0.34
  -9   4   5   68.91    1.93
  -8   4   5   11.59    0.67
  -7   4   5    4.81    0.36
  -6   4   5   12.21    0.49
  -5   4   5   32.56    0.84
  -4   4   5    2.87    0.22
  -3   4   5   13.91    0.49
  -2   4   5    4.18    0.29
  -1   4   5   36.26    0.87
   0   4   5   -0.07    0.09
   1   4   5   35.79    0.86
   2   4   5    3.56    0.35
   3   4   5   13.64    0.63
   4   4   5    2.79    0.33
   5   4   5   31.66    1.08
   6   4   5   12.84    0.65
   7   4   5    4.19    0.44
   8   4   5   11.12    0.69
   9   4   5   65.22    1.97
  10   4   5    4.02    0.49
  11   4   5    3.19    0.48
  12   4   5   23.47    1.11
  -7   5   5    0.62    0.39
  -6   5   5    0.44    0.24
  -5   5   5    5.98    0.52
  -4   5   5   11.81    0.64
  -3   5   5   34.86    0.95
  -2   5   5   10.39    0.47
  -1   5   5    0.35    0.19
   0   5   5    8.69    0.57
   1   5   5    0.01    0.16
   2   5   5   10.12    0.62
   3   5   5   33.86    1.20
   4   5   5   12.15    0.67
   5   5   5    4.92    0.50
   6   5   5    0.37    0.22
   7   5   5    1.95    0.48
  -7  -5   6   18.83    1.23
  -4  -5   6   31.09    1.68
  -3  -5   6    0.92    0.42
  -2  -5   6    6.16    0.81
  -1  -5   6    1.44    0.46
   0  -5   6    0.41    0.33
   1  -5   6    0.45    0.39
   2  -5   6    5.71    0.84
   3  -5   6    0.78    0.27
   4  -5   6   35.21    1.75
   5  -5   6    0.18    0.24
   6  -5   6   47.13    2.25
 -10  -4   6   61.39    2.55
  -9  -4   6    0.33    0.31
  -8  -4   6    5.75    0.69
  -7  -4   6    0.03    0.25
  -6  -4   6    6.98    0.72
  -5  -4   6    0.24    0.17
  -4  -4   6    6.18    0.46
  -3  -4   6    9.76    0.52
  -2  -4   6   18.95    1.10
  -1  -4   6    1.12    0.36
   0  -4   6  210.36    6.85
   1  -4   6    0.41    0.30
   2  -4   6   17.82    1.17
   3  -4   6    8.06    0.92
   4  -4   6    5.69    0.51
   5  -4   6    0.19    0.20
   6  -4   6    7.38    0.63
   7  -4   6   -0.01    0.22
   8  -4   6    6.53    0.65
   9  -4   6    0.61    0.34
  10  -4   6   62.26    2.23
  11  -4   6   43.16    1.87
 -14  -3   6    9.16    0.97
 -13  -3   6    0.30    0.32
 -12  -3   6    0.32    0.30
 -11  -3   6    4.41    0.64
 -10  -3   6    2.50    0.47
  -9  -3   6    0.53    0.30
  -8  -3   6   49.21    1.99
  -7  -3   6   42.27    1.75
  -6  -3   6   89.04    3.02
  -5  -3   6    0.39    0.15
  -4  -3   6   71.69    1.73
  -3  -3   6    1.54    0.23
  -2  -3   6   13.48    0.55
  -1  -3   6    2.48    0.27
   0  -3   6    0.23    0.14
   1  -3   6    2.92    0.29
   2  -3   6   13.69    0.91
   3  -3   6    1.89    0.26
   4  -3   6   71.04    1.86
   5  -3   6    0.23    0.17
   6  -3   6   86.00    2.35
   7  -3   6   42.44    1.45
   8  -3   6   50.53    1.71
   9  -3   6    0.12    0.26
  10  -3   6    2.46    0.52
  11  -3   6    5.30    0.77
  12  -3   6    0.83    0.52
  13  -3   6    0.10    0.29
  14  -3   6   11.19    1.27
 -16  -2   6    1.40    0.30
 -15  -2   6    6.90    0.54
 -14  -2   6   42.76    1.33
 -13  -2   6   -0.06    0.14
 -12  -2   6   62.91    1.65
 -11  -2   6   78.94    1.94
 -10  -2   6  109.54    2.54
  -9  -2   6    1.37    0.22
  -8  -2   6   13.56    0.56
  -7  -2   6    0.35    0.14
  -6  -2   6   18.60    0.63
  -5  -2   6    0.15    0.09
  -4  -2   6   14.67    0.41
  -3  -2   6   22.54    0.54
  -2  -2   6   28.43    0.63
  -1  -2   6    1.19    0.12
   0  -2   6  442.48    7.15
   1  -2   6    1.33    0.20
   2  -2   6   29.65    0.67
   3  -2   6   22.09    0.57
   4  -2   6   14.55    0.64
   5  -2   6    0.31    0.21
   6  -2   6   17.11    0.83
   7  -2   6    0.33    0.26
   8  -2   6   16.93    0.97
   9  -2   6    1.65    0.51
  10  -2   6  110.43    3.41
  11  -2   6   73.77    2.78
  12  -2   6   61.91    1.73
  13  -2   6    0.43    0.45
  14  -2   6   41.91    1.77
  15  -2   6    6.31    0.75
  16  -2   6    1.47    0.44
 -17  -1   6    1.16    0.40
 -16  -1   6   14.57    0.70
 -15  -1   6   47.82    1.41
 -14  -1   6   12.01    0.46
 -13  -1   6    0.10    0.11
 -12  -1   6    1.64    0.20
 -11  -1   6    6.47    0.32
 -10  -1   6    1.69    0.18
  -9  -1   6    0.07    0.09
  -8  -1   6   77.97    1.47
  -7  -1   6   78.09    1.46
  -6  -1   6  137.28    2.36
  -5  -1   6    1.34    0.12
  -4  -1   6  116.86    2.07
  -3  -1   6    3.43    0.21
  -2  -1   6   22.66    0.54
  -1  -1   6    4.00    0.21
   0  -1   6    0.06    0.05
   1  -1   6    3.72    0.16
   2  -1   6   22.57    0.58
   3  -1   6    3.39    0.24
   4  -1   6  116.39    2.23
   5  -1   6    1.13    0.16
   6  -1   6  134.64    2.65
   7  -1   6   76.80    2.61
   8  -1   6   81.33    2.60
   9  -1   6   -0.04    0.14
  10  -1   6    2.46    0.31
  11  -1   6    5.88    0.65
  12  -1   6    1.32    0.37
  13  -1   6    0.40    0.29
  14  -1   6   12.46    0.79
  15  -1   6   46.68    1.60
  16  -1   6   15.73    0.83
  17  -1   6    1.83    0.37
 -18   0   6    8.80    0.71
 -17   0   6    0.43    0.20
 -16   0   6    1.82    0.28
 -15   0   6    8.47    0.51
 -14   0   6   50.84    1.14
 -13   0   6    0.10    0.11
 -12   0   6   69.71    1.42
 -11   0   6  101.12    1.90
 -10   0   6  138.70    2.48
  -9   0   6    1.84    0.18
  -8   0   6   20.45    0.54
  -7   0   6    0.36    0.10
  -6   0   6   27.14    0.64
  -5   0   6    0.04    0.07
  -4   0   6   22.15    0.42
  -3   0   6   32.09    0.57
  -2   0   6   34.90    0.87
  -1   0   6    1.64    0.14
   0   0   6  557.49    9.23
   1   0   6    1.46    0.09
   2   0   6   34.18    0.74
   3   0   6   31.63    0.72
   4   0   6   22.37    0.46
   5   0   6    0.11    0.09
   6   0   6   27.82    0.58
   7   0   6    0.30    0.12
   8   0   6   20.39    0.88
   9   0   6    2.00    0.35
  10   0   6  138.03    3.38
  11   0   6   99.91    2.61
  12   0   6   72.55    2.02
  13   0   6   -0.01    0.18
  14   0   6   52.33    1.61
  15   0   6    9.02    0.67
  16   0   6    2.22    0.36
  17   0   6    0.75    0.28
 -17   1   6    1.12    0.26
 -16   1   6   14.75    0.68
 -15   1   6   48.51    1.39
 -14   1   6   12.01    0.57
 -13   1   6    0.47    0.16
 -12   1   6    1.80    0.20
 -11   1   6    6.36    0.33
 -10   1   6    2.08    0.18
  -9   1   6   -0.09    0.08
  -8   1   6   78.74    1.31
  -7   1   6   77.31    1.49
  -6   1   6  137.67    2.40
  -5   1   6    1.26    0.11
  -4   1   6  117.79    2.02
  -3   1   6    3.46    0.16
  -2   1   6   21.96    0.38
  -1   1   6    3.33    0.14
   0   1   6    0.23    0.06
   1   1   6    3.54    0.15
   2   1   6   22.22    0.52
   3   1   6    3.63    0.20
   4   1   6  118.83    2.13
   5   1   6    1.24    0.16
   6   1   6  137.36    2.53
   7   1   6   79.05    2.20
   8   1   6   73.53    2.21
   9   1   6    0.02    0.20
  10   1   6    2.24    0.39
  11   1   6    7.27    0.61
  12   1   6    1.84    0.47
  13   1   6    0.04    0.22
  14   1   6   12.31    0.76
  15   1   6   48.35    1.57
  16   1   6   15.36    0.80
  17   1   6    0.93    0.27
 -16   2   6    1.10    0.22
 -15   2   6    6.65    0.43
 -14   2   6   43.09    1.08
 -13   2   6   -0.19    0.11
 -12   2   6   60.14    1.33
 -11   2   6   76.69    1.57
 -10   2   6  108.83    2.08
  -9   2   6    1.66    0.18
  -8   2   6   14.43    0.42
  -7   2   6    0.17    0.09
  -6   2   6   18.83    0.40
  -5   2   6    0.12    0.06
  -4   2   6   14.99    0.28
  -3   2   6   22.68    0.36
  -2   2   6   28.11    0.41
  -1   2   6    1.39    0.11
   0   2   6  439.66    5.53
   1   2   6    1.32    0.11
   2   2   6   28.48    0.54
   3   2   6   21.89    0.56
   4   2   6   14.17    0.44
   5   2   6    0.21    0.14
   6   2   6   19.03    0.73
   7   2   6    0.34    0.17
   8   2   6   14.22    0.73
   9   2   6    0.84    0.24
  10   2   6  110.42    2.90
  11   2   6   77.17    2.25
  12   2   6   60.60    1.92
  13   2   6    0.07    0.23
  14   2   6   43.06    1.56
  15   2   6    7.19    0.67
  16   2   6    1.62    0.37
 -14   3   6    7.48    0.58
 -13   3   6    0.08    0.17
 -12   3   6    0.83    0.23
 -11   3   6    4.05    0.33
 -10   3   6    1.51    0.21
  -9   3   6    0.00    0.11
  -8   3   6   51.69    1.01
  -7   3   6   44.07    0.88
  -6   3   6   91.19    1.13
  -5   3   6    0.25    0.07
  -4   3   6   70.99    0.90
  -3   3   6    1.83    0.12
  -2   3   6   13.02    0.26
  -1   3   6    2.10    0.16
   0   3   6    0.05    0.07
   1   3   6    2.19    0.18
   2   3   6   13.52    0.53
   3   3   6    1.82    0.24
   4   3   6   71.77    1.79
   5   3   6    0.23    0.15
   6   3   6   87.67    2.26
   7   3   6   42.21    1.33
   8   3   6   47.25    1.51
   9   3   6    0.36    0.18
  10   3   6    2.06    0.37
  11   3   6    4.59    0.53
  12   3   6    0.59    0.29
  13   3   6    0.03    0.24
  14   3   6    9.59    0.79
  15   3   6   33.08    1.88
 -12   4   6   40.92    1.76
 -11   4   6   44.44    1.36
 -10   4   6   66.80    1.77
  -9   4   6    0.36    0.24
  -8   4   6    5.57    0.52
  -7   4   6    0.38    0.22
  -6   4   6    6.88    0.42
  -5   4   6    0.00    0.10
  -4   4   6    5.55    0.36
  -3   4   6    9.70    0.40
  -2   4   6   18.96    0.58
  -1   4   6    0.58    0.17
   0   4   6  214.19    4.67
   1   4   6    0.93    0.21
   2   4   6   17.78    0.72
   3   4   6    9.76    0.52
   4   4   6    4.97    0.43
   5   4   6    0.01    0.15
   6   4   6    6.81    0.55
   7   4   6    0.11    0.18
   8   4   6    5.40    0.53
   9   4   6    0.69    0.24
  10   4   6   65.24    2.02
  11   4   6   42.92    1.58
  -7   5   6   17.69    1.30
  -6   5   6   45.64    1.49
  -5   5   6   -0.25    0.24
  -4   5   6   33.06    1.62
  -3   5   6    0.93    0.25
  -2   5   6    6.01    0.51
  -1   5   6    0.98    0.24
   0   5   6    0.03    0.17
   1   5   6    0.96    0.23
   2   5   6    6.61    0.54
   3   5   6    0.67    0.24
   4   5   6   36.17    1.26
   5   5   6    0.09    0.20
   6   5   6   45.88    2.05
  -2  -5   7    7.20    0.89
  -1  -5   7   74.01    3.08
   0  -5   7   10.19    1.08
   2  -5   7    9.75    1.13
   3  -5   7   35.44    1.34
   4  -5   7    0.09    0.24
   5  -5   7    1.97    0.52
   6  -5   7    8.60    1.03
 -10  -4   7   10.51    1.03
  -9  -4   7    9.42    0.97
  -8  -4   7    0.32    0.32
  -7  -4   7   54.03    2.23
  -6  -4   7    8.06    0.82
  -5  -4   7  128.25    4.26
  -4  -4   7   33.01    1.53
  -3  -4   7   73.64    1.93
  -2  -4   7    0.27    0.27
  -1  -4   7    8.42    0.84
   0  -4   7   -0.07    0.24
   1  -4   7    6.49    0.79
   2  -4   7    0.12    0.29
   3  -4   7   76.22    2.06
   4  -4   7   34.04    1.21
   5  -4   7  130.90    3.29
   6  -4   7    9.70    0.75
   7  -4   7   53.23    1.81
   8  -4   7    0.99    0.36
   9  -4   7   13.83    1.05
  10  -4   7   11.34    1.04
  11  -4   7    9.46    1.43
 -13  -3   7   11.08    1.07
 -12  -3   7   12.63    0.97
 -11  -3   7   36.59    1.75
 -10  -3   7    1.94    0.45
  -9  -3   7   71.12    2.69
  -8  -3   7   59.62    2.33
  -7  -3   7   82.97    2.98
  -6  -3   7   21.63    1.14
  -5  -3   7    5.24    0.61
  -4  -3   7   -0.12    0.13
  -3  -3   7   72.05    1.80
  -2  -3   7   18.51    0.69
  -1  -3   7  162.79    3.55
   0  -3   7   21.08    0.74
   1  -3   7  163.82    5.32
   2  -3   7   19.22    1.16
   3  -3   7   71.25    1.89
   4  -3   7    0.08    0.17
   5  -3   7    4.61    0.47
   6  -3   7   20.80    0.94
   7  -3   7   82.53    2.41
   8  -3   7   58.65    1.98
   9  -3   7   72.13    2.38
  10  -3   7    0.76    0.45
  11  -3   7   41.35    2.67
  12  -3   7   12.03    1.27
  13  -3   7   12.61    1.38
  14  -3   7    0.77    0.61
 -16  -2   7   18.92    1.23
 -15  -2   7   23.87    0.93
 -14  -2   7    0.10    0.17
 -13  -2   7    8.04    0.56
 -12  -2   7   10.60    0.56
 -11  -2   7   18.82    0.74
 -10  -2   7   18.51    0.72
  -9  -2   7   18.21    0.69
  -8  -2   7    1.49    0.22
  -7  -2   7   94.71    2.18
  -6  -2   7   14.41    0.55
  -5  -2   7  246.70    5.08
  -4  -2   7   71.94    1.38
  -3  -2   7  158.46    2.74
  -2  -2   7   -0.01    0.08
  -1  -2   7   15.84    0.60
   0  -2   7   -0.06    0.14
   1  -2   7   15.75    0.46
   2  -2   7    0.17    0.11
   3  -2   7  160.61    2.80
   4  -2   7   71.64    1.93
   5  -2   7  237.64    5.50
   6  -2   7   14.31    0.84
   7  -2   7   92.00    2.71
   8  -2   7    1.21    0.43
   9  -2   7   17.19    1.32
  10  -2   7   20.83    1.54
  11  -2   7   18.48    1.49
  12  -2   7   10.15    1.06
  13  -2   7    8.21    0.90
  14  -2   7   -0.53    0.30
  15  -2   7   23.59    1.20
  16  -2   7   19.98    1.09
 -17  -1   7    0.36    0.34
 -16  -1   7    0.02    0.19
 -15  -1   7   14.27    0.68
 -14  -1   7    2.77    0.27
 -13  -1   7   16.33    0.54
 -12  -1   7   16.31    0.53
 -11  -1   7   50.92    1.12
 -10  -1   7    1.62    0.19
  -9  -1   7  108.15    1.98
  -8  -1   7  101.56    1.84
  -7  -1   7  146.60    2.53
  -6  -1   7   37.81    0.82
  -5  -1   7    6.83    0.36
  -4  -1   7    0.40    0.12
  -3  -1   7  115.93    2.10
  -2  -1   7   31.63    0.74
  -1  -1   7  282.09    4.09
   0  -1   7   38.41    0.69
   1  -1   7  284.21    4.13
   2  -1   7   32.70    0.80
   3  -1   7  115.53    2.23
   4  -1   7    0.56    0.16
   5  -1   7    7.90    0.37
   6  -1   7   38.17    0.98
   7  -1   7  144.32    3.87
   8  -1   7  100.60    2.86
   9  -1   7  110.49    3.00
  10  -1   7    1.62    0.39
  11  -1   7   55.59    1.79
  12  -1   7   17.17    0.91
  13  -1   7   17.00    0.89
  14  -1   7    3.20    0.47
  15  -1   7   13.75    0.80
  16  -1   7    0.35    0.26
  17  -1   7    0.48    0.28
 -17   0   7   11.18    0.60
 -16   0   7   23.24    0.88
 -15   0   7   26.44    0.93
 -14   0   7   -0.05    0.11
 -13   0   7    8.44    0.39
 -12   0   7   13.34    0.47
 -11   0   7   25.46    0.68
 -10   0   7   25.73    0.67
  -9   0   7   21.56    0.59
  -8   0   7    1.32    0.16
  -7   0   7  119.62    2.11
  -6   0   7   17.04    0.48
  -5   0   7  320.71    5.14
  -4   0   7   99.19    1.49
  -3   0   7  223.39    3.68
  -2   0   7    0.07    0.08
  -1   0   7   19.22    0.50
   0   0   7   -0.08    0.07
   1   0   7   19.24    0.51
   2   0   7    0.00    0.07
   3   0   7  211.77    3.72
   4   0   7   95.95    1.81
   5   0   7  306.06    5.28
   6   0   7   17.92    0.52
   7   0   7  118.26    2.20
   8   0   7    0.97    0.26
   9   0   7   20.04    0.88
  10   0   7   25.57    1.01
  11   0   7   25.80    1.02
  12   0   7   13.55    0.72
  13   0   7   10.02    0.70
  14   0   7    0.08    0.21
  15   0   7   25.58    1.06
  16   0   7   23.88    1.02
  17   0   7   10.39    0.76
 -16   1   7   -0.06    0.15
 -15   1   7   14.24    0.65
 -14   1   7    2.46    0.30
 -13   1   7   15.19    0.65
 -12   1   7   17.86    0.57
 -11   1   7   52.52    1.15
 -10   1   7    1.67    0.20
  -9   1   7  107.41    2.01
  -8   1   7   98.15    1.86
  -7   1   7  143.88    2.57
  -6   1   7   36.86    0.85
  -5   1   7    7.60    0.31
  -4   1   7    0.32    0.07
  -3   1   7  115.85    1.75
  -2   1   7   32.83    0.66
  -1   1   7  284.37    4.05
   0   1   7   37.26    0.65
   1   1   7  284.18    4.06
   2   1   7   32.13    0.69
   3   1   7  115.32    2.07
   4   1   7    0.25    0.09
   5   1   7    7.20    0.32
   6   1   7   38.17    0.90
   7   1   7  143.63    3.51
   8   1   7   96.88    2.60
   9   1   7  108.24    2.82
  10   1   7    1.86    0.34
  11   1   7   51.31    1.64
  12   1   7   18.83    0.88
  13   1   7   16.03    0.82
  14   1   7    2.46    0.40
  15   1   7   14.36    0.78
  16   1   7    0.30    0.23
  17   1   7    0.38    0.22
 -15   2   7   21.44    0.87
 -14   2   7    0.16    0.16
 -13   2   7    6.82    0.42
 -12   2   7   10.71    0.46
 -11   2   7   18.99    0.61
 -10   2   7   18.41    0.59
  -9   2   7   17.72    0.51
  -8   2   7    0.85    0.13
  -7   2   7   92.27    1.56
  -6   2   7   14.40    0.41
  -5   2   7  248.79    3.22
  -4   2   7   72.07    0.97
  -3   2   7  158.04    2.09
  -2   2   7    0.23    0.06
  -1   2   7   14.98    0.33
   0   2   7    0.10    0.07
   1   2   7   14.97    0.43
   2   2   7    0.13    0.09
   3   2   7  158.92    2.76
   4   2   7   72.35    1.42
   5   2   7  244.99    5.29
   6   2   7   14.24    0.62
   7   2   7   95.93    2.42
   8   2   7    0.75    0.23
   9   2   7   18.71    0.90
  10   2   7   18.36    0.95
  11   2   7   19.13    0.94
  12   2   7    9.98    0.78
  13   2   7    8.13    0.71
  14   2   7   -0.17    0.22
  15   2   7   21.94    1.05
  16   2   7   20.62    1.40
 -14   3   7    1.26    0.37
 -13   3   7   12.64    0.66
 -12   3   7   12.06    0.52
 -11   3   7   37.97    0.98
 -10   3   7    1.29    0.21
  -9   3   7   71.62    1.50
  -8   3   7   60.73    1.30
  -7   3   7   88.33    1.69
  -6   3   7   20.94    0.49
  -5   3   7    4.69    0.20
  -4   3   7   -0.05    0.06
  -3   3   7   73.63    0.93
  -2   3   7   17.92    0.37
  -1   3   7  162.71    2.85
   0   3   7   20.82    0.57
   1   3   7  162.20    2.87
   2   3   7   17.78    0.65
   3   3   7   72.18    1.81
   4   3   7    0.36    0.13
   5   3   7    4.67    0.40
   6   3   7   20.69    0.82
   7   3   7   82.44    2.22
   8   3   7   57.37    1.74
   9   3   7   71.13    2.06
  10   3   7    1.15    0.30
  11   3   7   35.58    1.39
  12   3   7   12.82    0.84
  13   3   7   13.25    0.93
  14   3   7    1.88    0.41
 -11   4   7   10.47    0.64
 -10   4   7   11.04    0.64
  -9   4   7   11.83    0.92
  -8   4   7    1.03    0.28
  -7   4   7   55.01    1.63
  -6   4   7    8.25    0.55
  -5   4   7  133.71    2.50
  -4   4   7   34.23    1.05
  -3   4   7   73.95    1.87
  -2   4   7    0.12    0.14
  -1   4   7    7.55    0.46
   0   4   7    0.17    0.13
   1   4   7    7.22    0.46
   2   4   7    0.40    0.17
   3   4   7   76.15    1.96
   4   4   7   33.68    1.12
   5   4   7  133.06    3.16
   6   4   7    7.54    0.54
   7   4   7   54.19    1.67
   8   4   7    0.79    0.25
   9   4   7   12.41    0.77
  10   4   7   10.37    0.74
  11   4   7    8.55    0.95
  -5   5   7    3.02    0.54
  -4   5   7    0.31    0.29
  -3   5   7   36.39    1.20
  -2   5   7    8.95    0.58
  -1   5   7   77.19    2.04
   0   5   7   10.91    0.62
   1   5   7   75.25    2.05
   2   5   7    8.14    0.62
   3   5   7   37.40    1.26
   4   5   7    0.16    0.23
   5   5   7    3.67    0.58
  -1  -5   8    7.94    0.97
   0  -5   8    0.10    0.36
   1  -5   8    7.29    1.01
   2  -5   8    3.22    0.75
  -9  -4   8    4.42    0.68
  -8  -4   8    0.41    0.37
  -7  -4   8    4.78    0.68
  -6  -4   8    1.03    0.37
  -5  -4   8   39.58    1.74
  -4  -4   8   11.93    0.87
  -2  -4   8    0.05    0.25
  -1  -4   8   17.75    1.19
   0  -4   8   23.08    1.40
   1  -4   8   18.18    1.28
   2  -4   8    0.36    0.38
   3  -4   8    2.23    0.60
   4  -4   8   11.90    0.73
   5  -4   8   38.05    1.39
   6  -4   8    0.97    0.35
   7  -4   8    4.51    0.60
   8  -4   8    0.86    0.39
   9  -4   8    3.96    0.66
  10  -4   8    4.77    1.07
 -13  -3   8   27.36    1.55
 -12  -3   8    2.83    0.58
 -11  -3   8   35.83    1.76
 -10  -3   8   20.89    1.24
  -9  -3   8   46.47    2.04
  -8  -3   8   16.20    1.04
  -7  -3   8   32.04    1.56
  -6  -3   8    0.88    0.34
  -5  -3   8    2.00    0.41
  -4  -3   8   18.06    1.02
  -3  -3   8   95.98    2.28
  -2  -3   8    7.13    0.50
  -1  -3   8   22.93    0.83
   0  -3   8    0.21    0.17
   1  -3   8   23.61    1.35
   2  -3   8    6.92    0.46
   3  -3   8   96.85    2.41
   4  -3   8   18.15    0.81
   5  -3   8    1.78    0.33
   6  -3   8    0.92    0.31
   7  -3   8   36.68    1.45
   8  -3   8   15.40    1.04
   9  -3   8   52.04    2.73
  10  -3   8   19.31    1.47
  11  -3   8   35.40    2.64
  12  -3   8    4.74    0.92
  13  -3   8   28.74    1.99
 -15  -2   8   45.17    1.44
 -14  -2   8   16.21    0.75
 -13  -2   8   43.53    1.34
 -12  -2   8    5.46    0.46
 -11  -2   8   30.64    1.02
 -10  -2   8    6.20    0.46
  -9  -2   8    4.53    0.38
  -8  -2   8    0.94    0.19
  -7  -2   8    8.44    0.45
  -6  -2   8    1.93    0.23
  -5  -2   8   79.07    1.86
  -4  -2   8   20.53    0.67
  -3  -2   8    2.02    0.19
  -2  -2   8    0.13    0.15
  -1  -2   8   32.03    0.98
   0  -2   8   41.76    1.20
   1  -2   8   30.90    0.98
   2  -2   8    0.06    0.11
   3  -2   8    1.73    0.19
   4  -2   8   21.62    0.90
   5  -2   8   77.70    2.25
   6  -2   8    2.20    0.45
   7  -2   8    9.54    0.89
   8  -2   8    0.63    0.45
   9  -2   8    4.64    0.81
  10  -2   8    5.80    0.88
  11  -2   8   28.99    1.63
  12  -2   8    6.27    0.81
  13  -2   8   44.40    1.78
  14  -2   8   15.14    1.10
  15  -2   8   50.63    1.81
 -16  -1   8    1.74    0.29
 -15  -1   8    1.76    0.31
 -14  -1   8    4.78    0.45
 -13  -1   8   40.24    0.97
 -12  -1   8    5.11    0.33
 -11  -1   8   52.85    1.17
 -10  -1   8   30.16    0.77
  -9  -1   8   68.52    1.39
  -8  -1   8   23.31    0.61
  -7  -1   8   54.44    1.11
  -6  -1   8    3.23    0.29
  -5  -1   8    6.22    0.36
  -4  -1   8   27.07    0.81
  -3  -1   8  154.31    2.81
  -2  -1   8    8.05    0.34
  -1  -1   8   55.31    1.17
   0  -1   8    0.47    0.12
   1  -1   8   54.41    1.17
   2  -1   8    8.68    0.48
   3  -1   8  158.38    2.99
   4  -1   8   28.42    0.80
   5  -1   8    5.87    0.33
   6  -1   8    4.00    0.54
   7  -1   8   53.76    1.79
   8  -1   8   23.29    1.05
   9  -1   8   72.07    2.12
  10  -1   8   32.15    1.27
  11  -1   8   55.72    1.79
  12  -1   8    4.87    0.56
  13  -1   8   41.00    1.45
  14  -1   8    5.68    0.58
  15  -1   8    2.27    0.40
  16  -1   8    1.33    0.34
 -17   0   8    3.21    0.52
 -16   0   8    6.69    0.51
 -15   0   8   54.63    1.24
 -14   0   8   19.01    0.61
 -13   0   8   49.49    1.15
 -12   0   8    6.68    0.38
 -11   0   8   37.47    0.91
 -10   0   8    6.92    0.34
  -9   0   8    4.97    0.31
  -8   0   8    0.72    0.14
  -7   0   8   10.11    0.37
  -6   0   8    2.22    0.20
  -5   0   8  106.27    1.94
  -4   0   8   26.69    0.81
  -3   0   8    1.30    0.14
  -2   0   8    0.57    0.11
  -1   0   8   38.79    0.84
   0   0   8   53.60    1.09
   1   0   8   37.36    0.85
   2   0   8    0.60    0.17
   3   0   8    1.70    0.15
   4   0   8   27.23    0.66
   5   0   8  109.04    2.00
   6   0   8    2.49    0.21
   7   0   8    9.84    0.39
   8   0   8    0.82    0.15
   9   0   8    5.61    0.50
  10   0   8    8.29    0.62
  11   0   8   38.45    1.29
  12   0   8    6.60    0.57
  13   0   8   52.46    1.62
  14   0   8   18.31    0.87
  15   0   8   55.51    1.71
  16   0   8    6.88    0.62
 -16   1   8    1.34    0.27
 -15   1   8    2.26    0.31
 -14   1   8    4.62    0.42
 -13   1   8   38.72    1.19
 -12   1   8    4.65    0.33
 -11   1   8   54.51    1.20
 -10   1   8   30.77    0.79
  -9   1   8   67.29    1.41
  -8   1   8   22.15    0.63
  -7   1   8   52.36    1.13
  -6   1   8    3.13    0.24
  -5   1   8    5.50    0.28
  -4   1   8   26.44    0.66
  -3   1   8  159.54    2.75
  -2   1   8    7.92    0.30
  -1   1   8   55.07    1.10
   0   1   8    0.45    0.10
   1   1   8   54.32    1.12
   2   1   8    8.49    0.28
   3   1   8  156.09    2.75
   4   1   8   26.91    0.66
   5   1   8    6.01    0.28
   6   1   8    3.35    0.25
   7   1   8   54.73    1.19
   8   1   8   22.69    0.90
   9   1   8   68.91    1.96
  10   1   8   33.40    1.18
  11   1   8   53.53    1.67
  12   1   8    6.38    0.57
  13   1   8   41.33    1.41
  14   1   8    4.98    0.52
  15   1   8    2.30    0.38
  16   1   8    1.40    0.32
 -15   2   8   46.33    1.41
 -14   2   8   17.00    0.73
 -13   2   8   41.68    1.29
 -12   2   8    5.98    0.45
 -11   2   8   30.66    1.00
 -10   2   8    5.55    0.42
  -9   2   8    4.47    0.33
  -8   2   8    0.60    0.15
  -7   2   8    7.66    0.37
  -6   2   8    1.76    0.20
  -5   2   8   77.54    1.55
  -4   2   8   20.32    0.48
  -3   2   8    1.71    0.15
  -2   2   8    0.21    0.09
  -1   2   8   30.38    0.61
   0   2   8   40.81    0.76
   1   2   8   32.03    0.72
   2   2   8    0.11    0.08
   3   2   8    1.57    0.16
   4   2   8   21.37    0.58
   5   2   8   79.14    1.58
   6   2   8    2.32    0.28
   7   2   8    8.14    0.50
   8   2   8    0.87    0.24
   9   2   8    4.07    0.46
  10   2   8    6.19    0.59
  11   2   8   32.77    1.27
  12   2   8    5.62    0.58
  13   2   8   42.65    1.54
  14   2   8   15.23    0.86
  15   2   8   47.82    1.63
 -13   3   8   27.02    1.02
 -12   3   8    3.29    0.32
 -11   3   8   35.81    0.96
 -10   3   8   19.26    0.65
  -9   3   8   48.16    1.13
  -8   3   8   16.44    0.55
  -7   3   8   34.93    0.78
  -6   3   8    1.65    0.18
  -5   3   8    1.96    0.18
  -4   3   8   17.95    0.47
  -3   3   8   95.38    1.84
  -2   3   8    6.41    0.28
  -1   3   8   23.48    0.62
   0   3   8    0.01    0.09
   1   3   8   23.01    0.63
   2   3   8    6.88    0.34
   3   3   8   95.39    2.27
   4   3   8   17.48    0.69
   5   3   8    1.71    0.26
   6   3   8    1.06    0.23
   7   3   8   33.38    1.17
   8   3   8   17.07    0.79
   9   3   8   47.50    1.59
  10   3   8   19.47    0.99
  11   3   8   37.11    1.42
  12   3   8    3.11    0.47
  13   3   8   32.26    2.14
 -10   4   8    5.42    0.75
  -9   4   8    4.39    0.65
  -8   4   8    0.66    0.36
  -4   4   8   11.53    0.79
  -3   4   8    2.26    0.42
  -2   4   8    0.27    0.23
  -1   4   8   19.22    0.72
   0   4   8   24.20    0.84
   1   4   8   19.03    0.74
   2   4   8    0.40    0.17
   3   4   8    1.92    0.28
   4   4   8   11.54    0.60
   5   4   8   37.19    1.24
   6   4   8    0.65    0.21
   7   4   8    4.58    0.49
   8   4   8    0.67    0.26
   9   4   8    4.23    0.51
  10   4   8    6.58    0.78
  -3   5   8   45.18    2.00
  -2   5   8    3.48    0.59
  -1   5   8    8.82    0.92
   0   5   8    0.02    0.30
   1   5   8    7.61    0.54
   2   5   8    4.25    0.60
   3   5   8   46.21    1.94
   4   5   8    9.15    0.78
  -8  -4   9   23.66    1.40
  -7  -4   9    0.69    0.36
  -6  -4   9   37.45    1.76
  -5  -4   9    5.91    0.74
  -4  -4   9   31.55    1.49
  -1  -4   9    2.39    0.56
   0  -4   9    0.55    0.39
   1  -4   9    2.75    0.64
   2  -4   9   12.89    1.32
   3  -4   9    0.60    0.44
   4  -4   9   28.33    1.89
   5  -4   9    5.06    0.97
   6  -4   9   41.73    2.47
   7  -4   9    0.98    0.68
   8  -4   9   27.96    2.23
 -12  -3   9   58.76    2.44
 -11  -3   9    1.45    0.44
 -10  -3   9    0.96    0.38
  -9  -3   9    7.64    0.83
  -8  -3   9   11.83    0.89
  -7  -3   9    1.78    0.44
  -6  -3   9   26.60    1.35
  -5  -3   9   10.05    0.77
  -4  -3   9    1.07    0.34
  -3  -3   9    0.12    0.21
  -2  -3   9   19.22    0.77
  -1  -3   9    1.35    0.26
   0  -3   9   46.28    2.10
   1  -3   9    0.69    0.42
   2  -3   9   21.06    1.42
   3  -3   9    0.02    0.37
   4  -3   9    1.45    0.58
   5  -3   9   10.18    1.31
   6  -3   9   26.70    1.96
   7  -3   9    1.47    0.73
   8  -3   9   13.32    1.75
   9  -3   9    7.46    1.42
  10  -3   9    0.67    0.85
  11  -3   9   -0.07    0.75
  12  -3   9   60.01    3.80
 -15  -2   9    0.39    0.30
 -14  -2   9    4.00    0.43
 -13  -2   9    0.62    0.23
 -12  -2   9    1.78    0.28
 -11  -2   9    3.98    0.39
 -10  -2   9    8.74    0.52
  -9  -2   9   13.27    0.60
  -8  -2   9   38.32    1.13
  -7  -2   9    1.36    0.22
  -6  -2   9   57.45    1.49
  -5  -2   9   11.44    0.49
  -4  -2   9   47.40    1.87
  -3  -2   9    0.73    0.27
  -2  -2   9   28.45    0.97
  -1  -2   9    4.52    0.42
   0  -2   9    0.32    0.18
   1  -2   9    5.15    0.43
   2  -2   9   28.17    0.96
   3  -2   9    0.12    0.46
   4  -2   9   48.89    2.64
   5  -2   9   10.61    1.41
   6  -2   9   55.06    3.15
   7  -2   9    1.17    0.77
   8  -2   9   36.31    1.80
   9  -2   9   12.29    1.16
  10  -2   9    8.46    0.95
  11  -2   9    3.23    0.61
  12  -2   9    1.79    0.49
  13  -2   9    0.91    0.41
  14  -2   9    4.48    0.62
  15  -2   9    1.34    0.56
 -15  -1   9    0.86    0.25
 -14  -1   9   34.83    1.17
 -13  -1   9   26.73    0.75
 -12  -1   9   76.67    1.58
 -11  -1   9    1.21    0.18
 -10  -1   9    0.66    0.14
  -9  -1   9   11.36    0.42
  -8  -1   9   15.92    0.65
  -7  -1   9    3.13    0.31
  -6  -1   9   47.49    1.25
  -5  -1   9   14.59    0.57
  -4  -1   9    1.21    0.19
  -3  -1   9   -0.07    0.10
  -2  -1   9   25.34    0.67
  -1  -1   9    1.66    0.19
   0  -1   9   62.50    1.32
   1  -1   9    2.01    0.20
   2  -1   9   25.86    0.91
   3  -1   9    0.11    0.13
   4  -1   9    0.94    0.21
   5  -1   9   15.34    0.61
   6  -1   9   44.54    2.43
   7  -1   9    4.19    0.50
   8  -1   9   19.31    0.91
   9  -1   9   12.96    0.77
  10  -1   9    0.30    0.25
  11  -1   9    1.06    0.31
  12  -1   9   79.44    2.24
  13  -1   9   26.43    1.11
  14  -1   9   36.57    1.35
  15  -1   9    1.30    0.33
  16  -1   9   20.59    1.33
 -16   0   9   21.78    1.16
 -15   0   9    1.33    0.21
 -14   0   9    5.48    0.37
 -13   0   9    1.18    0.19
 -12   0   9    1.67    0.21
 -11   0   9    4.61    0.32
 -10   0   9   11.13    0.43
  -9   0   9   18.01    0.56
  -8   0   9   44.93    1.02
  -7   0   9    1.05    0.16
  -6   0   9   69.85    1.36
  -5   0   9   13.81    0.56
  -4   0   9   58.78    1.48
  -3   0   9    0.65    0.16
  -2   0   9   39.92    0.87
  -1   0   9    6.52    0.30
   0   0   9    0.08    0.09
   1   0   9    6.33    0.30
   2   0   9   40.03    1.14
   3   0   9    0.49    0.16
   4   0   9   58.46    1.53
   5   0   9   15.15    0.60
   6   0   9   67.89    1.38
   7   0   9    1.40    0.18
   8   0   9   46.31    1.04
   9   0   9   18.19    0.79
  10   0   9   11.17    0.66
  11   0   9    4.57    0.48
  12   0   9    2.16    0.36
  13   0   9    1.31    0.30
  14   0   9    5.45    0.55
  15   0   9    1.40    0.33
 -15   1   9    0.70    0.21
 -14   1   9   36.74    1.15
 -13   1   9   24.19    0.90
 -12   1   9   77.09    1.61
 -11   1   9    0.99    0.17
 -10   1   9    0.68    0.15
  -9   1   9   11.74    0.45
  -8   1   9   17.55    0.55
  -7   1   9    3.59    0.27
  -6   1   9   44.23    1.01
  -5   1   9   14.60    0.48
  -4   1   9    0.87    0.18
  -3   1   9   -0.01    0.11
  -2   1   9   24.67    0.62
  -1   1   9    1.69    0.17
   0   1   9   63.02    1.27
   1   1   9    1.50    0.22
   2   1   9   25.02    0.83
   3   1   9    0.28    0.16
   4   1   9    0.80    0.19
   5   1   9   15.79    0.65
   6   1   9   44.85    1.01
   7   1   9    3.81    0.27
   8   1   9   17.83    0.75
   9   1   9   11.54    0.64
  10   1   9    0.68    0.23
  11   1   9    1.12    0.27
  12   1   9   76.07    2.16
  13   1   9   25.38    1.05
  14   1   9   33.22    1.26
  15   1   9    0.81    0.30
  16   1   9   21.06    1.31
 -14   2   9    3.21    0.37
 -13   2   9    1.13    0.25
 -12   2   9    1.85    0.28
 -11   2   9    3.13    0.34
 -10   2   9    9.96    0.46
  -9   2   9   13.67    0.52
  -8   2   9   36.70    0.95
  -7   2   9    1.22    0.19
  -6   2   9   57.52    1.25
  -5   2   9   10.93    0.42
  -4   2   9   47.10    1.06
  -3   2   9    0.13    0.10
  -2   2   9   28.15    0.71
  -1   2   9    4.83    0.28
   0   2   9    0.16    0.13
   1   2   9    5.51    0.40
   2   2   9   28.24    0.92
   3   2   9    0.37    0.16
   4   2   9   48.54    1.38
   5   2   9   11.79    0.42
   6   2   9   57.54    1.27
   7   2   9    1.45    0.25
   8   2   9   38.19    1.28
   9   2   9   13.81    0.74
  10   2   9    8.60    0.61
  11   2   9    3.47    0.44
  12   2   9    1.96    0.35
  13   2   9    0.92    0.31
  14   2   9    4.24    0.52
  15   2   9    0.99    0.40
 -13   3   9   17.70    1.18
 -12   3   9   57.64    1.61
 -11   3   9    0.95    0.23
 -10   3   9    2.33    0.26
  -9   3   9    8.10    0.55
  -8   3   9   10.65    0.55
  -7   3   9    1.87    0.23
  -6   3   9   27.35    0.77
  -5   3   9    9.44    0.42
  -4   3   9    1.63    0.27
  -3   3   9    0.01    0.11
  -2   3   9   18.49    0.72
  -1   3   9    1.76    0.26
   0   3   9   43.92    1.28
   1   3   9    1.39    0.24
   2   3   9   18.63    0.75
   3   3   9   -0.07    0.14
   4   3   9    1.50    0.23
   5   3   9    9.38    0.52
   6   3   9   26.22    0.96
   7   3   9    2.02    0.31
   8   3   9   12.08    0.68
   9   3   9    6.76    0.61
  10   3   9    1.07    0.31
  11   3   9    0.62    0.30
  12   3   9   55.62    1.90
  13   3   9   18.75    1.20
  -4   4   9   29.71    1.61
  -3   4   9    0.08    0.23
  -2   4   9   11.57    0.81
  -1   4   9    2.69    0.47
   0   4   9    0.65    0.29
   1   4   9    2.44    0.48
   2   4   9   12.43    0.94
   3   4   9    0.20    0.28
   4   4   9   29.01    1.63
   5   4   9    6.95    0.93
   6   4   9   38.13    1.29
   7   4   9    1.26    0.30
   8   4   9   24.65    1.06
   9   4   9    7.27    0.78
  -7  -4  10   16.60    1.14
  -6  -4  10   13.21    0.99
  -5  -4  10    0.05    0.28
   0  -4  10   15.38    1.29
   1  -4  10  117.87    4.65
   2  -4  10   -0.36    0.41
   3  -4  10   17.41    1.71
   4  -4  10   10.27    1.39
   5  -4  10    0.05    0.58
   6  -4  10   14.00    1.75
   7  -4  10   15.62    1.94
 -11  -3  10    0.13    0.31
 -10  -3  10    6.17    0.79
  -9  -3  10   22.19    1.30
  -8  -3  10    3.83    0.61
  -7  -3  10   43.82    1.98
  -6  -3  10    1.95    0.45
  -5  -3  10   90.88    3.18
  -4  -3  10    3.47    0.53
  -3  -3  10  127.50    4.12
  -2  -3  10    7.37    0.72
  -1  -3  10    8.27    0.55
   0  -3  10   -0.09    0.37
   1  -3  10    7.76    1.06
   2  -3  10    9.31    1.20
   3  -3  10  137.28    5.14
   4  -3  10    2.93    0.83
   5  -3  10   94.34    4.22
   6  -3  10    1.66    0.81
   8  -3  10    2.95    1.10
   9  -3  10   21.18    2.46
  10  -3  10    7.17    1.55
  11  -3  10    0.03    0.82
 -14  -2  10    0.38    0.28
 -13  -2  10   40.63    1.32
 -12  -2  10    0.26    0.20
 -11  -2  10   43.84    1.31
 -10  -2  10   31.26    1.03
  -9  -2  10   72.04    1.82
  -8  -2  10    9.91    0.52
  -7  -2  10   30.46    1.45
  -6  -2  10   23.69    1.25
  -5  -2  10    0.57    0.27
  -4  -2  10   16.93    1.00
  -3  -2  10   27.23    1.30
  -2  -2  10    0.23    0.22
  -1  -2  10  221.47    4.89
   0  -2  10   30.48    1.06
   1  -2  10  224.76    4.92
   2  -2  10    0.17    0.18
   3  -2  10   34.08    2.20
   4  -2  10   18.20    1.92
   5  -2  10    0.16    0.62
   6  -2  10   28.50    2.26
   7  -2  10   33.83    2.52
   8  -2  10   10.80    1.67
   9  -2  10   64.36    3.61
  10  -2  10   30.29    2.23
  11  -2  10   41.63    2.60
  12  -2  10   -0.13    0.50
  13  -2  10   40.26    2.47
 -15  -1  10    8.23    0.87
 -14  -1  10   11.79    0.63
 -13  -1  10   49.52    1.18
 -12  -1  10   19.04    0.62
 -11  -1  10    0.41    0.14
 -10  -1  10   10.11    0.57
  -9  -1  10   28.03    0.95
  -8  -1  10    5.41    0.42
  -7  -1  10   63.45    1.67
  -6  -1  10    3.37    0.32
  -5  -1  10  138.72    3.07
  -4  -1  10    5.51    0.36
  -3  -1  10  202.27    4.26
  -2  -1  10   13.32    0.53
  -1  -1  10   12.51    0.44
   0  -1  10    0.23    0.10
   1  -1  10   11.43    0.58
   2  -1  10   14.59    0.64
   3  -1  10  202.88    4.44
   4  -1  10    4.94    0.37
   5  -1  10  140.27    3.19
   6  -1  10    2.25    0.67
   7  -1  10   63.44    2.97
   8  -1  10    5.33    0.89
   9  -1  10   26.96    1.77
  10  -1  10   11.85    1.28
  11  -1  10    0.00    0.35
  12  -1  10   19.89    1.47
  13  -1  10   49.82    2.50
  14  -1  10   12.41    1.28
 -15   0  10    0.74    0.23
 -14   0  10    0.59    0.17
 -13   0  10   49.62    1.17
 -12   0  10    0.87    0.18
 -11   0  10   48.94    1.13
 -10   0  10   37.59    0.93
  -9   0  10   86.75    1.71
  -8   0  10   13.93    0.49
  -7   0  10   36.63    1.11
  -6   0  10   32.31    1.02
  -5   0  10   -0.07    0.10
  -4   0  10   23.85    0.80
  -3   0  10   35.04    1.02
  -2   0  10    0.21    0.12
  -1   0  10  279.17    4.70
   0   0  10   37.19    0.85
   1   0  10  276.50    4.71
   2   0  10    0.33    0.15
   3   0  10   34.78    1.05
   4   0  10   24.54    0.83
   5   0  10    0.09    0.13
   6   0  10   33.80    1.04
   7   0  10   36.92    1.10
   8   0  10   13.95    0.60
   9   0  10   82.94    3.40
  10   0  10   34.95    1.91
  11   0  10   49.17    2.35
  12   0  10    0.42    0.39
  13   0  10   51.24    2.44
  14   0  10    0.22    0.35
  15   0  10    0.74    0.46
 -14   1  10   10.87    0.59
 -13   1  10   51.24    1.46
 -12   1  10   19.82    0.65
 -11   1  10    0.54    0.16
 -10   1  10   10.00    0.43
  -9   1  10   27.30    0.76
  -8   1  10    4.59    0.32
  -7   1  10   63.27    1.36
  -6   1  10    2.98    0.25
  -5   1  10  139.67    3.15
  -4   1  10    4.86    0.39
  -3   1  10  202.12    4.32
  -2   1  10   13.36    0.57
  -1   1  10   11.52    0.40
   0   1  10   -0.03    0.09
   1   1  10   11.81    0.53
   2   1  10   13.87    0.59
   3   1  10  198.71    4.35
   4   1  10    5.31    0.42
   5   1  10  135.92    3.17
   6   1  10    3.05    0.33
   7   1  10   65.92    1.75
   8   1  10    6.01    0.43
   9   1  10   24.45    1.63
  10   1  10   10.52    1.15
  11   1  10    0.01    0.34
  12   1  10   18.46    1.39
  13   1  10   48.38    2.43
  14   1  10   12.94    1.28
 -13   2  10   42.92    1.31
 -12   2  10    0.16    0.17
 -11   2  10   42.87    1.29
 -10   2  10   30.14    0.86
  -9   2  10   67.95    1.51
  -8   2  10   10.24    0.45
  -7   2  10   28.68    0.80
  -6   2  10   24.89    0.73
  -5   2  10    0.15    0.15
  -4   2  10   18.46    0.74
  -3   2  10   28.34    0.95
  -2   2  10    0.14    0.10
  -1   2  10  222.85    3.85
   0   2  10   29.46    0.92
   1   2  10  215.99    4.71
   2   2  10    0.00    0.13
   3   2  10   26.30    0.94
   4   2  10   17.40    0.74
   5   2  10    0.39    0.18
   6   2  10   26.94    0.98
   7   2  10   28.80    1.84
   8   2  10   10.29    1.34
   9   2  10   65.46    3.35
  10   2  10   25.98    2.02
  11   2  10   37.71    2.44
  12   2  10   -0.05    0.45
  13   2  10   40.48    2.39
 -12   3  10   15.14    1.07
 -11   3  10    0.05    0.18
 -10   3  10    6.03    0.49
  -9   3  10   21.65    0.84
  -8   3  10    3.30    0.36
  -7   3  10   47.21    1.17
  -6   3  10    2.47    0.27
  -5   3  10   87.29    2.33
  -4   3  10    3.43    0.39
  -3   3  10  130.50    3.04
  -2   3  10    8.21    0.49
  -1   3  10    8.21    0.50
   0   3  10    0.04    0.14
   1   3  10    7.89    0.55
   2   3  10    8.49    0.54
   3   3  10  127.03    3.04
   4   3  10    3.05    0.58
   5   3  10   95.08    3.60
   6   3  10    3.29    0.68
   7   3  10   49.31    2.54
   8   3  10    4.44    0.91
   9   3  10   22.37    1.88
  10   3  10    5.51    1.23
  11   3  10    0.06    0.75
  -4   4  10    9.52    1.11
  -3   4  10   18.34    1.29
  -1   4  10  120.47    4.11
   0   4  10   14.27    0.96
   1   4  10  121.46    4.20
   2   4  10    0.31    0.33
   3   4  10   17.52    1.20
   4   4  10   10.95    1.10
   5   4  10   -0.11    0.32
   6   4  10   15.01    1.29
  -6  -4  11   17.53    1.18
   2  -4  11   10.97    1.44
   3  -4  11    0.62    0.68
   4  -4  11   19.03    2.02
   5  -4  11   32.36    2.43
  -9  -3  11   23.72    1.39
  -8  -3  11   41.86    1.91
  -7  -3  11    1.88    0.46
  -6  -3  11    1.27    0.39
  -5  -3  11    1.46    0.40
  -4  -3  11    7.00    0.76
  -3  -3  11   74.45    2.66
  -2  -3  11   32.72    1.50
   1  -3  11    7.70    1.18
   2  -3  11   32.12    2.16
   3  -3  11   73.51    3.59
   4  -3  11    6.78    1.29
   5  -3  11    1.13    0.88
   6  -3  11    1.01    0.86
   7  -3  11    3.63    1.17
   8  -3  11   46.02    3.21
   9  -3  11   23.15    2.69
 -12  -2  11    3.51    0.61
 -11  -2  11    0.37    0.31
 -10  -2  11   13.91    0.99
  -9  -2  11   37.16    1.75
  -8  -2  11    1.46    0.41
  -7  -2  11   26.99    1.40
  -6  -2  11   26.77    1.38
  -5  -2  11   48.82    2.04
  -4  -2  11   30.77    1.45
  -3  -2  11    0.34    0.25
  -2  -2  11   14.21    0.89
  -1  -2  11   62.70    2.31
   0  -2  11    0.11    0.19
   1  -2  11   67.20    1.88
   2  -2  11   18.46    1.94
   3  -2  11    0.24    0.65
   4  -2  11   31.23    2.40
   5  -2  11   51.72    3.12
   6  -2  11   26.60    2.17
   7  -2  11   30.82    2.27
   8  -2  11    2.38    0.82
   9  -2  11   38.31    2.46
  10  -2  11   12.74    1.58
  11  -2  11   -0.06    0.45
  12  -2  11    3.60    0.88
 -13  -1  11   21.20    0.87
 -12  -1  11    1.79    0.30
 -11  -1  11   26.41    0.96
 -10  -1  11    4.67    0.43
  -9  -1  11   33.04    1.07
  -8  -1  11   57.80    1.56
  -7  -1  11    3.42    0.35
  -6  -1  11    1.86    0.25
  -5  -1  11    1.74    0.25
  -4  -1  11    9.85    0.48
  -3  -1  11  105.59    2.49
  -2  -1  11   48.87    1.32
  -1  -1  11    8.49    0.42
   0  -1  11    6.97    0.34
   1  -1  11    8.84    0.52
   2  -1  11   51.90    1.45
   3  -1  11  113.03    2.65
   4  -1  11   10.11    0.53
   5  -1  11    0.84    0.48
   6  -1  11    1.48    0.56
   7  -1  11    1.50    0.53
   8  -1  11   55.35    2.67
   9  -1  11   34.40    1.94
  10  -1  11    5.57    0.90
  11  -1  11   29.73    1.82
  12  -1  11    0.78    0.49
  13  -1  11   20.53    1.50
 -14   0  11    0.37    0.16
 -13   0  11    0.42    0.15
 -12   0  11    4.86    0.35
 -11   0  11    0.22    0.13
 -10   0  11   16.63    0.57
  -9   0  11   42.09    1.29
  -8   0  11    1.88    0.27
  -7   0  11   30.84    1.03
  -6   0  11   31.10    1.01
  -5   0  11   60.00    1.58
  -4   0  11   35.72    1.08
  -3   0  11    0.16    0.13
  -2   0  11   19.03    0.69
  -1   0  11   82.60    1.98
   0   0  11   -0.02    0.12
   1   0  11   83.05    2.02
   2   0  11   17.96    0.69
   3   0  11    0.34    0.15
   4   0  11   35.50    1.10
   5   0  11   61.58    1.61
   6   0  11   34.05    1.04
   7   0  11   32.82    1.03
   8   0  11    2.91    0.61
   9   0  11   42.69    2.15
  10   0  11   16.22    1.22
  11   0  11    0.60    0.37
  12   0  11    4.41    0.77
  13   0  11    0.20    0.36
 -13   1  11   21.60    0.85
 -12   1  11    2.05    0.25
 -11   1  11   26.77    0.78
 -10   1  11    6.05    0.39
  -9   1  11   32.47    0.87
  -8   1  11   55.50    1.26
  -7   1  11    5.04    0.43
  -6   1  11    1.77    0.27
  -5   1  11    1.17    0.23
  -4   1  11    9.72    0.51
  -3   1  11  110.82    2.58
  -2   1  11   48.17    1.36
  -1   1  11    7.70    0.43
   0   1  11    6.51    0.34
   1   1  11    8.69    0.46
   2   1  11   53.45    1.40
   3   1  11  109.10    2.58
   4   1  11    8.60    0.52
   5   1  11    1.07    0.23
   6   1  11    1.60    0.26
   7   1  11    2.50    0.32
   8   1  11   60.08    1.64
   9   1  11   29.18    1.81
  10   1  11    6.78    0.94
  11   1  11   26.25    1.66
  12   1  11    1.38    0.52
  13   1  11   20.67    1.47
 -12   2  11    3.80    0.40
 -11   2  11    0.21    0.18
 -10   2  11   14.45    0.57
  -9   2  11   37.26    0.99
  -8   2  11    1.92    0.25
  -7   2  11   28.57    0.82
  -6   2  11   27.41    1.01
  -5   2  11   49.28    1.49
  -4   2  11   31.44    1.07
  -3   2  11    0.13    0.14
  -2   2  11   13.99    0.64
  -1   2  11   65.57    1.37
   0   2  11    0.24    0.15
   1   2  11   65.56    1.70
   2   2  11   15.87    0.67
   3   2  11    0.11    0.15
   4   2  11   31.23    1.07
   5   2  11   49.58    1.49
   6   2  11   28.59    1.04
   7   2  11   26.45    1.75
   8   2  11    3.35    0.77
   9   2  11   33.10    2.14
  10   2  11   11.57    1.41
  11   2  11    1.50    0.62
  12   2  11    4.16    0.85
 -10   3  11    4.60    0.45
  -9   3  11   24.95    0.93
  -8   3  11   40.74    1.27
  -7   3  11    3.51    0.45
  -6   3  11    1.14    0.29
  -5   3  11    1.34    0.29
  -4   3  11    6.62    0.56
  -3   3  11   74.48    1.98
  -2   3  11   33.42    1.67
  -1   3  11    6.47    0.45
   0   3  11    5.77    0.48
   1   3  11    6.90    0.53
   2   3  11   33.22    1.13
   3   3  11   69.36    1.93
   4   3  11    6.82    0.85
   5   3  11    1.69    0.50
   6   3  11    1.34    0.52
   7   3  11    3.44    0.77
   8   3  11   41.18    2.42
   9   3  11   21.63    1.83
  -4   4  11   21.47    1.53
  -3   4  11    0.39    0.45
  -2   4  11    9.90    1.10
   0   4  11    0.41    0.29
   1   4  11   36.68    1.68
   2   4  11    9.06    0.94
   3   4  11    0.78    0.40
   4   4  11   18.97    1.33
   3  -4  12   -0.73    0.70
  -8  -3  12   22.98    1.36
  -7  -3  12    0.25    0.31
  -6  -3  12   41.22    1.88
  -5  -3  12    1.49    0.43
  -4  -3  12    1.19    0.36
  -3  -3  12    1.49    0.38
   2  -3  12    2.02    0.97
   3  -3  12    1.44    0.86
   4  -3  12    1.12    0.87
   5  -3  12    0.12    0.81
   6  -3  12   40.44    3.02
   7  -3  12    0.01    0.85
   8  -3  12   21.34    2.54
 -10  -2  12   32.38    1.66
  -9  -2  12    0.14    0.28
  -8  -2  12   44.35    1.96
  -7  -2  12    5.91    0.71
  -6  -2  12    0.42    0.28
  -5  -2  12    1.72    0.42
  -4  -2  12    1.22    0.37
  -3  -2  12   -0.01    0.22
  -2  -2  12   17.37    0.99
  -1  -2  12    0.39    0.25
   0  -2  12   17.30    0.95
   1  -2  12    0.60    0.26
   2  -2  12   16.27    1.73
   3  -2  12   -0.32    0.56
   4  -2  12    2.12    0.77
   5  -2  12    1.85    0.78
   6  -2  12    0.66    0.58
   7  -2  12    6.48    1.18
   8  -2  12   43.90    2.63
   9  -2  12   -0.14    0.53
  10  -2  12   32.87    2.20
 -12  -1  12   16.59    0.76
 -11  -1  12    3.96    0.41
 -10  -1  12   18.20    0.77
  -9  -1  12   10.70    0.58
  -8  -1  12   28.80    1.00
  -7  -1  12    0.29    0.15
  -6  -1  12   52.65    1.47
  -5  -1  12    2.05    0.27
  -4  -1  12    3.86    0.35
  -3  -1  12    1.99    0.26
  -2  -1  12    2.52    0.27
  -1  -1  12    0.08    0.12
   0  -1  12    0.09    0.13
   1  -1  12    0.14    0.16
   2  -1  12    2.90    0.34
   3  -1  12    2.04    0.30
   4  -1  12    3.64    0.36
   5  -1  12    2.43    0.60
   6  -1  12   53.97    2.53
   7  -1  12    0.13    0.34
   8  -1  12   31.86    1.85
   9  -1  12   11.80    1.27
  10  -1  12   15.31    1.30
  11  -1  12    2.92    0.67
  12  -1  12   15.59    1.30
 -13   0  12    8.70    0.59
 -12   0  12   51.49    1.52
 -11   0  12    3.61    0.39
 -10   0  12   37.96    1.22
  -9   0  12    0.07    0.15
  -8   0  12   55.60    1.55
  -7   0  12    7.40    0.52
  -6   0  12    0.31    0.16
  -5   0  12    2.26    0.29
  -4   0  12    2.04    0.27
  -3   0  12    0.21    0.13
  -2   0  12   18.36    0.70
  -1   0  12    0.75    0.17
   0   0  12   18.06    0.67
   1   0  12    0.79    0.20
   2   0  12   19.46    0.74
   3   0  12    0.11    0.15
   4   0  12    1.68    0.26
   5   0  12    3.08    0.34
   6   0  12    0.20    0.17
   7   0  12    7.81    0.48
   8   0  12   51.46    2.45
   9   0  12    0.07    0.32
  10   0  12   37.98    2.01
  11   0  12    3.86    0.71
  12   0  12   49.46    2.42
 -13   1  12    0.81    0.37
 -12   1  12   16.50    0.61
 -11   1  12    3.58    0.32
 -10   1  12   17.79    0.62
  -9   1  12   10.91    0.60
  -8   1  12   29.88    1.05
  -7   1  12    0.21    0.17
  -6   1  12   52.98    1.53
  -5   1  12    1.81    0.28
  -4   1  12    2.84    0.51
  -3   1  12    1.74    0.26
  -2   1  12    2.14    0.28
  -1   1  12    0.27    0.15
   0   1  12    0.43    0.24
   1   1  12    0.12    0.14
   2   1  12    2.45    0.30
   3   1  12    1.80    0.28
   4   1  12    3.41    0.36
   5   1  12    1.98    0.29
   6   1  12   53.63    1.52
   7   1  12    0.34    0.19
   8   1  12   30.38    1.04
   9   1  12   10.60    1.15
  10   1  12   17.47    1.30
  11   1  12    3.73    0.74
  12   1  12   16.39    1.29
 -11   2  12    2.37    0.49
 -10   2  12   33.16    0.94
  -9   2  12   -0.05    0.14
  -8   2  12   43.51    1.42
  -7   2  12    5.21    0.49
  -6   2  12    0.38    0.21
  -5   2  12    1.48    0.29
  -4   2  12    1.77    0.29
  -3   2  12    0.01    0.15
  -2   2  12   17.26    0.73
  -1   2  12    1.21    0.36
   0   2  12   15.94    1.00
   1   2  12    0.37    0.17
   2   2  12   15.10    0.69
   3   2  12    0.17    0.17
   4   2  12    2.21    0.32
   5   2  12    1.88    0.30
   6   2  12    0.32    0.20
   7   2  12    5.07    0.85
   8   2  12   43.27    2.33
   9   2  12    0.07    0.39
  10   2  12   31.08    2.02
  -8   3  12   22.51    1.33
  -7   3  12    0.44    0.25
  -6   3  12   38.30    1.39
  -5   3  12    1.91    0.35
  -4   3  12    1.74    0.33
  -3   3  12    1.19    0.44
  -2   3  12    2.03    0.51
  -1   3  12   -0.13    0.26
   0   3  12    0.02    0.27
   1   3  12    0.12    0.18
   2   3  12    1.70    0.31
   3   3  12    0.88    0.26
   4   3  12    0.73    0.26
   5   3  12    2.31    0.58
   6   3  12   42.90    2.19
   7   3  12    0.00    0.38
   8   3  12   22.11    1.69
   1   4  12    0.33    0.32
   2   4  12   11.25    0.96
  -6  -3  13    5.02    0.69
  -5  -3  13    0.74    0.35
  -4  -3  13    8.76    0.87
  -3  -3  13   61.87    2.41
   3  -3  13   63.11    3.69
   4  -3  13   10.28    1.78
   5  -3  13    0.17    0.88
   6  -3  13    4.31    1.28
  -9  -2  13    4.51    0.66
  -8  -2  13    7.44    0.83
  -7  -2  13   70.66    2.75
  -6  -2  13    2.97    0.55
  -5  -2  13   86.34    3.16
  -4  -2  13    0.54    0.31
  -3  -2  13   10.18    0.78
  -2  -2  13    1.96    0.41
  -1  -2  13   24.99    1.27
   0  -2  13   -0.05    0.22
   3  -2  13    9.85    1.28
   4  -2  13    1.08    0.61
   5  -2  13   93.70    3.99
   6  -2  13    3.30    0.84
   7  -2  13   76.11    3.47
   8  -2  13    8.25    1.23
   9  -2  13    4.42    0.94
 -10  -1  13    2.31    0.33
  -9  -1  13   32.05    1.10
  -8  -1  13   11.55    0.60
  -7  -1  13    8.02    0.51
  -6  -1  13    7.90    0.50
  -5  -1  13    1.34    0.24
  -4  -1  13   13.77    0.61
  -3  -1  13   87.22    2.11
  -2  -1  13   18.48    0.71
  -1  -1  13   52.10    1.41
   0  -1  13    4.83    0.57
   1  -1  13   52.34    1.99
   2  -1  13   19.75    0.78
   3  -1  13   88.61    2.18
   4  -1  13   13.76    1.10
   5  -1  13    1.35    0.51
   6  -1  13    7.57    0.98
   7  -1  13    7.48    0.98
   8  -1  13   10.99    1.20
   9  -1  13   30.93    1.86
  10  -1  13    3.76    0.76
 -11   0  13    0.80    0.25
 -10   0  13    2.00    0.31
  -9   0  13    3.90    0.41
  -8   0  13    8.59    0.56
  -7   0  13   82.03    2.15
  -6   0  13    3.52    0.38
  -5   0  13  101.54    2.47
  -4   0  13    0.93    0.21
  -3   0  13   10.63    0.54
  -2   0  13    1.95    0.26
  -1   0  13   32.52    1.02
   0   0  13    0.17    0.21
   1   0  13   31.18    1.41
   2   0  13    2.11    0.29
   3   0  13   11.05    0.56
   4   0  13    0.85    0.21
   5   0  13  102.98    2.47
   6   0  13    4.14    0.39
   7   0  13   87.67    3.38
   8   0  13   10.65    1.09
   9   0  13    5.25    0.80
  10   0  13    1.55    0.52
  11   0  13    0.10    0.39
 -10   1  13    2.21    0.34
  -9   1  13   33.11    1.15
  -8   1  13   12.03    0.64
  -7   1  13    7.19    0.56
  -6   1  13    7.86    0.57
  -5   1  13    1.05    0.25
  -4   1  13   12.73    0.63
  -3   1  13   85.13    2.17
  -2   1  13   18.65    0.76
  -1   1  13   49.94    1.45
   0   1  13    3.75    0.54
   1   1  13   53.25    2.06
   2   1  13   18.29    0.75
   3   1  13   84.81    2.15
   4   1  13   13.09    0.63
   5   1  13    1.71    0.28
   6   1  13    8.51    0.54
   7   1  13    8.13    0.53
   8   1  13   11.37    0.64
   9   1  13   30.81    1.80
  10   1  13    1.96    0.57
 -10   2  13    1.83    0.52
  -9   2  13    4.80    0.50
  -8   2  13    7.55    0.61
  -7   2  13   69.68    2.00
  -6   2  13    2.82    0.38
  -5   2  13   87.42    2.33
  -4   2  13    0.67    0.23
  -3   2  13    8.48    0.57
  -2   2  13    1.68    0.30
  -1   2  13   26.37    1.42
   0   2  13   -0.01    0.22
   1   2  13   26.12    1.36
   2   2  13    1.37    0.27
   3   2  13    9.76    0.56
   4   2  13    0.60    0.22
   5   2  13   90.16    2.31
   6   2  13    2.78    0.38
   7   2  13   68.20    3.04
   8   2  13    7.16    0.99
   9   2  13    3.91    0.80
  -7   3  13    4.09    0.84
  -6   3  13    5.55    0.56
  -5   3  13    0.59    0.27
  -4   3  13    8.34    1.02
  -3   3  13   58.77    2.62
  -2   3  13   12.44    1.02
  -1   3  13   36.82    1.86
   0   3  13    2.73    0.56
   1   3  13   36.94    1.82
   2   3  13   12.03    0.66
   3   3  13   62.70    1.80
   4   3  13    8.79    0.65
   5   3  13    1.11    0.45
   6   3  13    5.36    0.85
  -4  -3  14   25.41    1.39
  -7  -2  14    6.91    0.81
  -5  -2  14    3.82    0.61
  -4  -2  14   14.79    1.00
  -3  -2  14   15.62    1.01
  -2  -2  14   40.36    1.75
  -1  -2  14   25.08    1.32
   4  -2  14   13.58    1.44
   5  -2  14    3.76    0.87
   6  -2  14   18.62    1.51
   7  -2  14    8.66    1.17
 -10  -1  14    0.02    0.26
  -9  -1  14   13.19    0.66
  -8  -1  14   22.37    1.21
  -7  -1  14   25.56    0.94
  -6  -1  14   19.62    0.80
  -5  -1  14    7.50    0.53
  -4  -1  14   37.03    1.14
  -3  -1  14   64.15    1.68
  -2  -1  14   77.39    1.95
  -1  -1  14    1.96    0.27
   0  -1  14    0.08    0.23
   1  -1  14    1.51    0.38
   2  -1  14   79.49    2.69
   3  -1  14   63.15    2.25
   4  -1  14   35.95    1.84
   5  -1  14    6.70    0.89
   6  -1  14   19.70    1.36
   7  -1  14   23.83    1.54
   8  -1  14   20.72    1.44
   9  -1  14   13.29    1.15
  -9   0  14   25.05    0.97
  -8   0  14    8.19    0.55
  -7   0  14    7.13    0.55
  -6   0  14   22.44    0.88
  -5   0  14    5.08    0.45
  -4   0  14   15.94    0.71
  -3   0  14   19.59    0.79
  -2   0  14   47.50    1.37
  -1   0  14   31.60    1.04
   0   0  14   53.75    2.12
   1   0  14   31.36    1.45
   2   0  14   47.21    1.87
   3   0  14   20.37    0.80
   4   0  14   17.23    0.73
   5   0  14    5.00    0.44
   6   0  14   22.46    1.39
   7   0  14    8.49    0.98
   8   0  14    6.97    0.92
   9   0  14   26.18    1.59
  -9   1  14   12.46    0.94
  -8   1  14   21.83    0.91
  -7   1  14   25.91    0.99
  -6   1  14   21.89    0.88
  -5   1  14    7.12    0.55
  -4   1  14   36.01    1.19
  -3   1  14   62.13    1.73
  -2   1  14   77.47    2.01
  -1   1  14    1.21    0.36
   0   1  14    0.18    0.25
   1   1  14    1.47    0.39
   2   1  14   77.33    2.76
   3   1  14   59.24    1.68
   4   1  14   34.23    1.15
   5   1  14    7.90    0.56
   6   1  14   20.75    0.84
   7   1  14   23.86    0.94
   8   1  14   22.79    0.90
   9   1  14   12.83    1.09
  -7   2  14    6.01    0.85
  -6   2  14   17.68    0.84
  -5   2  14    3.71    0.43
  -4   2  14   13.37    0.72
  -3   2  14   16.21    0.77
  -2   2  14   40.00    1.89
  -1   2  14   26.24    1.44
   0   2  14   45.48    2.00
   1   2  14   30.63    1.49
   2   2  14   37.80    1.76
   3   2  14   15.70    0.74
   4   2  14   13.09    0.68
   5   2  14    3.97    0.44
   6   2  14   17.83    0.82
   7   2  14    6.17    0.88
   4   3  14   26.61    1.53
  -4  -2  15   12.78    0.94
  -3  -2  15    0.90    0.37
  -2  -2  15    7.07    0.76
  -1  -2  15    1.20    0.39
  -8  -1  15    3.73    0.57
  -7  -1  15    0.07    0.23
  -6  -1  15   14.39    0.94
  -5  -1  15    0.47    0.21
  -4  -1  15    3.11    0.54
  -3  -1  15    3.05    0.54
  -2  -1  15   11.16    0.86
  -1  -1  15    0.13    0.24
   0  -1  15   15.65    1.00
   1  -1  15    0.24    0.27
   2  -1  15   10.95    0.78
   5  -1  15    0.13    0.34
   6  -1  15   16.02    1.19
   7  -1  15    0.37    0.39
  -7   0  15   16.90    0.77
  -6   0  15   30.07    1.07
  -5   0  15    1.46    0.28
  -4   0  15   14.21    0.69
  -3   0  15    0.71    0.21
  -2   0  15    8.29    0.58
  -1   0  15    0.67    0.33
   0   0  15    0.57    0.29
   1   0  15    1.49    0.38
   2   0  15    9.08    0.72
   3   0  15    1.21    0.35
   4   0  15   13.82    0.88
   5   0  15    1.91    0.31
   6   0  15   31.16    1.71
   7   0  15   17.70    1.28
   8   0  15   29.74    1.75
  -6   1  15   14.39    0.73
  -5   1  15    0.35    0.20
  -4   1  15    3.79    0.42
  -3   1  15    2.78    0.36
  -2   1  15   10.06    0.58
  -1   1  15   -0.04    0.24
   0   1  15   15.72    1.04
   1   1  15    0.13    0.23
   2   1  15   10.22    0.81
   3   1  15    2.79    0.49
   4   1  15    3.85    0.56
   5   1  15    0.21    0.19
   6   1  15   14.92    0.72
   7   1  15    0.19    0.19
  -3   2  15    0.76    0.39
  -2   2  15    6.43    0.82
  -1   2  15    1.21    0.44
   0   2  15    2.74    0.55
   1   2  15    1.51    0.42
   2   2  15    5.69    0.72
   3   2  15    1.06    0.38
   5   2  15    0.74    0.37
  -3  -1  16   30.34    1.56
  -2  -1  16   -0.07    0.26
  -1  -1  16    2.25    0.48
   0  -1  16    0.38    0.28
   1  -1  16    3.87    0.56
  -5   0  16    9.95    0.82
  -4   0  16    2.97    0.53
  -3   0  16    0.42    0.21
  -2   0  16    7.33    0.81
  -1   0  16   42.30    1.88
   0   0  16   21.91    1.25
   1   0  16   40.30    1.82
   2   0  16    7.11    0.75
   3   0  16    0.58    0.29
   4   0  16    2.85    0.48
  -1   1  16    3.24    0.56
   0   1  16   -0.19    0.24
   1   1  16    2.71    0.52
   2   1  16    0.05    0.26
   0   0   0    0.00    0.00
;
_shelx_hkl_checksum              25841
#END Tags that were not found in dictionaries
loop_
_space_group_symop_operation_xyz
'x, y, z'
'-x+1/2, -y, z+1/2'
'-x, y+1/2, -z'
'x+1/2, -y+1/2, -z+1/2'
'-x, -y, -z'
'x-1/2, y, -z-1/2'
'x, -y-1/2, z'
'-x-1/2, y-1/2, z-1/2'
loop_
_atom_site_label
_atom_site_type_symbol
_atom_site_fract_x
_atom_site_fract_y
_atom_site_fract_z
_atom_site_U_iso_or_equiv
_atom_site_adp_type
_atom_site_occupancy
_atom_site_site_symmetry_order
_atom_site_calc_flag
_atom_site_refinement_flags_posn
_atom_site_refinement_flags_adp
_atom_site_refinement_flags_occupancy
Tb Tb 0.29139(2) 0.2500 0.92061(2) 0.00559(7) Uani 1 2 d S T P
Mn Mn 0.01840(6) 0.2500 0.79065(7) 0.01336(14) Uani 1 2 d S T P
Cu1 Cu 0.00499(4) 0.2500 0.41080(5) 0.00792(11) Uani 1 2 d S T P
Cu2 Cu 0.06430(4) 0.2500 0.03966(5) 0.00730(11) Uani 1 2 d S T P
Cu3 Cu 0.30535(4) 0.2500 0.62915(5) 0.00781(11) Uani 1 2 d S T P
Cu4 Cu 0.32170(4) 0.2500 0.21628(5) 0.00761(11) Uani 1 2 d S T P
P1 P 0.11560(8) 0.2500 0.59406(10) 0.00557(18) Uani 1 2 d S T P
P2 P 0.12981(8) 0.2500 0.24431(10) 0.00562(17) Uani 1 2 d S T P
P3 P 0.37815(8) 0.2500 0.42199(9) 0.00540(18) Uani 1 2 d S T P
loop_
_atom_site_aniso_label
_atom_site_aniso_U_11
_atom_site_aniso_U_22
_atom_site_aniso_U_33
_atom_site_aniso_U_23
_atom_site_aniso_U_13
_atom_site_aniso_U_12
Tb 0.00617(9) 0.00452(10) 0.00607(10) 0.000 0.00004(6) 0.000
Mn 0.0174(3) 0.0097(3) 0.0129(3) 0.000 0.0053(3) 0.000
Cu1 0.0078(2) 0.0074(2) 0.0085(2) 0.000 0.00029(16) 0.000
Cu2 0.0068(2) 0.0062(2) 0.0089(2) 0.000 -0.00035(16) 0.000
Cu3 0.0093(2) 0.0062(2) 0.0079(2) 0.000 0.00072(17) 0.000
Cu4 0.0080(2) 0.0076(2) 0.0073(2) 0.000 -0.00035(17) 0.000
P1 0.0063(4) 0.0046(4) 0.0058(4) 0.000 -0.0002(3) 0.000
P2 0.0062(4) 0.0052(4) 0.0055(4) 0.000 -0.0001(3) 0.000
P3 0.0052(4) 0.0050(4) 0.0059(4) 0.000 -0.0002(3) 0.000
loop_
_atom_type_symbol
_atom_type_description
_atom_type_scat_dispersion_real
_atom_type_scat_dispersion_imag
_atom_type_scat_source
P P 0.1023 0.0942 'International Tables Vol C Tables 4.2.6.8 and 6.1.1.4'
Mn Mn 0.3368 0.7283 'International Tables Vol C Tables 4.2.6.8 and 6.1.1.4'
Cu Cu 0.3201 1.2651 'International Tables Vol C Tables 4.2.6.8 and 6.1.1.4'
Tb Tb -0.1723 4.1537 'International Tables Vol C Tables 4.2.6.8 and 6.1.1.4'
loop_
_geom_angle_atom_site_label_1
_geom_angle_atom_site_label_2
_geom_angle_atom_site_label_3
_geom_angle
_geom_angle_site_symmetry_1
_geom_angle_site_symmetry_3
P3 Tb P3 82.99(3) 2 2_565
P3 Tb P2 79.98(2) 2 2
P3 Tb P2 134.46(3) 2_565 2
P3 Tb P2 134.46(3) 2 2_565
P3 Tb P2 79.98(2) 2_565 2_565
P2 Tb P2 82.57(3) 2 2_565
P3 Tb P1 136.74(3) 2 2_565
P3 Tb P1 82.41(2) 2_565 2_565
P2 Tb P1 135.97(3) 2 2_565
P2 Tb P1 82.08(3) 2_565 2_565
P3 Tb P1 82.41(2) 2 2
P3 Tb P1 136.74(3) 2_565 2
P2 Tb P1 82.08(3) 2 2
P2 Tb P1 135.97(3) 2_565 2
P1 Tb P1 80.96(3) 2_565 2
P3 Tb Cu2 46.764(17) 2 1_556
P3 Tb Cu2 46.764(17) 2_565 1_556
P2 Tb Cu2 126.15(2) 2 1_556
P2 Tb Cu2 126.15(2) 2_565 1_556
P1 Tb Cu2 95.85(2) 2_565 1_556
P1 Tb Cu2 95.85(2) 2 1_556
P3 Tb Cu3 92.69(2) 2 .
P3 Tb Cu3 92.69(2) 2_565 .
P2 Tb Cu3 46.772(18) 2 .
P2 Tb Cu3 46.772(18) 2_565 .
P1 Tb Cu3 128.458(19) 2_565 .
P1 Tb Cu3 128.458(19) 2 .
Cu2 Tb Cu3 117.446(15) 1_556 .
P3 Tb Cu3 95.89(2) 2 2_565
P3 Tb Cu3 46.92(2) 2_565 2_565
P2 Tb Cu3 175.030(17) 2 2_565
P2 Tb Cu3 102.344(15) 2_565 2_565
P1 Tb Cu3 46.51(2) 2_565 2_565
P1 Tb Cu3 94.68(2) 2 2_565
Cu2 Tb Cu3 50.222(11) 1_556 2_565
Cu3 Tb Cu3 136.788(8) . 2_565
P3 Tb Cu3 46.92(2) 2 2
P3 Tb Cu3 95.89(2) 2_565 2
P2 Tb Cu3 102.344(16) 2 2
P2 Tb Cu3 175.030(17) 2_565 2
P1 Tb Cu3 94.68(2) 2_565 2
P1 Tb Cu3 46.51(2) 2 2
Cu2 Tb Cu3 50.222(11) 1_556 2
Cu3 Tb Cu3 136.788(8) . 2
Cu3 Tb Cu3 72.729(13) 2_565 2
P3 Tb Cu1 174.631(17) 2 2_565
P3 Tb Cu1 102.132(15) 2_565 2_565
P2 Tb Cu1 95.16(2) 2 2_565
P2 Tb Cu1 46.19(2) 2_565 2_565
P1 Tb Cu1 46.59(2) 2_565 2_565
P1 Tb Cu1 94.72(2) 2 2_565
Cu2 Tb Cu1 138.362(9) 1_556 2_565
Cu3 Tb Cu1 85.524(13) . 2_565
Cu3 Tb Cu1 88.851(11) 2_565 2_565
Cu3 Tb Cu1 133.064(14) 2 2_565
P3 Tb Cu1 102.132(15) 2 2
P3 Tb Cu1 174.631(17) 2_565 2
P2 Tb Cu1 46.19(2) 2 2
P2 Tb Cu1 95.16(2) 2_565 2
P1 Tb Cu1 94.72(2) 2_565 2
P1 Tb Cu1 46.59(2) 2 2
Cu2 Tb Cu1 138.362(9) 1_556 2
Cu3 Tb Cu1 85.524(13) . 2
Cu3 Tb Cu1 133.064(14) 2_565 2
Cu3 Tb Cu1 88.851(11) 2 2
Cu1 Tb Cu1 72.701(12) 2_565 2
P1 Mn P2 102.98(4) . 5_556
P1 Mn P2 102.98(4) . 5_566
P2 Mn P2 89.52(4) 5_556 5_566
P1 Mn P3 102.47(4) . 2_565
P2 Mn P3 154.55(4) 5_556 2_565
P2 Mn P3 85.27(3) 5_566 2_565
P1 Mn P3 102.47(4) . 2
P2 Mn P3 85.27(3) 5_556 2
P2 Mn P3 154.55(4) 5_566 2
P3 Mn P3 88.81(4) 2_565 2
P1 Mn Cu2 137.99(4) . 1_556
P2 Mn Cu2 106.49(3) 5_556 1_556
P2 Mn Cu2 106.49(3) 5_566 1_556
P3 Mn Cu2 51.96(2) 2_565 1_556
P3 Mn Cu2 51.96(2) 2 1_556
P1 Mn Cu3 137.84(4) . 6_557
P2 Mn Cu3 51.78(2) 5_556 6_557
P2 Mn Cu3 51.78(2) 5_566 6_557
P3 Mn Cu3 107.28(3) 2_565 6_557
P3 Mn Cu3 107.28(3) 2 6_557
Cu2 Mn Cu3 84.17(3) 1_556 6_557
P1 Mn Cu2 138.187(12) . 5_566
P2 Mn Cu2 107.77(3) 5_556 5_566
P2 Mn Cu2 50.67(3) 5_566 5_566
P3 Mn Cu2 50.91(2) 2_565 5_566
P3 Mn Cu2 107.61(3) 2 5_566
Cu2 Mn Cu2 56.161(19) 1_556 5_566
Cu3 Mn Cu2 56.676(18) 6_557 5_566
P1 Mn Cu2 138.187(12) . 5_556
P2 Mn Cu2 50.67(3) 5_556 5_556
P2 Mn Cu2 107.77(3) 5_566 5_556
P3 Mn Cu2 107.61(3) 2_565 5_556
P3 Mn Cu2 50.91(2) 2 5_556
Cu2 Mn Cu2 56.161(19) 1_556 5_556
Cu3 Mn Cu2 56.676(18) 6_557 5_556
Cu2 Mn Cu2 83.62(2) 5_566 5_556
P1 Mn Cu4 53.72(2) . 2_565
P2 Mn Cu4 155.54(4) 5_556 2_565
P2 Mn Cu4 89.16(2) 5_566 2_565
P3 Mn Cu4 49.45(3) 2_565 2_565
P3 Mn Cu4 105.61(3) 2 2_565
Cu2 Mn Cu4 97.29(3) 1_556 2_565
Cu3 Mn Cu4 138.796(13) 6_557 2_565
Cu2 Mn Cu4 90.061(14) 5_566 2_565
Cu2 Mn Cu4 151.26(4) 5_556 2_565
P1 Mn Cu4 53.72(2) . 2
P2 Mn Cu4 89.16(2) 5_556 2
P2 Mn Cu4 155.54(4) 5_566 2
P3 Mn Cu4 105.61(3) 2_565 2
P3 Mn Cu4 49.45(3) 2 2
Cu2 Mn Cu4 97.29(3) 1_556 2
Cu3 Mn Cu4 138.796(13) 6_557 2
Cu2 Mn Cu4 151.26(4) 5_566 2
Cu2 Mn Cu4 90.061(14) 5_556 2
Cu4 Mn Cu4 82.11(2) 2_565 2
P1 Mn Cu1 53.05(2) . 5_556
P2 Mn Cu1 50.55(3) 5_556 5_556
P2 Mn Cu1 106.37(3) 5_566 5_556
P3 Mn Cu1 154.27(4) 2_565 5_556
P3 Mn Cu1 89.389(19) 2 5_556
Cu2 Mn Cu1 139.161(13) 1_556 5_556
Cu3 Mn Cu1 97.75(3) 6_557 5_556
Cu2 Mn Cu1 152.18(3) 5_566 5_556
Cu2 Mn Cu1 90.914(14) 5_556 5_556
Cu4 Mn Cu1 106.76(3) 2_565 5_556
Cu4 Mn Cu1 55.449(17) 2 5_556
P2 Cu1 P1 103.83(4) . .
P2 Cu1 P1 113.29(3) . 5_556
P1 Cu1 P1 112.20(3) . 5_556
P2 Cu1 P1 113.29(3) . 5_566
P1 Cu1 P1 112.20(3) . 5_566
P1 Cu1 P1 102.36(4) 5_556 5_566
P2 Cu1 Cu4 100.30(3) . 6_556
P1 Cu1 Cu4 155.87(4) . 6_556
P1 Cu1 Cu4 56.68(2) 5_556 6_556
P1 Cu1 Cu4 56.68(2) 5_566 6_556
P2 Cu1 Cu1 124.66(3) . 5_566
P1 Cu1 Cu1 56.10(2) . 5_566
P1 Cu1 Cu1 122.04(4) 5_556 5_566
P1 Cu1 Cu1 56.09(3) 5_566 5_566
Cu4 Cu1 Cu1 109.00(3) 6_556 5_566
P2 Cu1 Cu1 124.66(3) . 5_556
P1 Cu1 Cu1 56.10(2) . 5_556
P1 Cu1 Cu1 56.09(3) 5_556 5_556
P1 Cu1 Cu1 122.04(4) 5_566 5_556
Cu4 Cu1 Cu1 109.00(3) 6_556 5_556
Cu1 Cu1 Cu1 88.61(3) 5_566 5_556
P2 Cu1 Mn 60.01(2) . 5_556
P1 Cu1 Mn 132.36(2) . 5_556
P1 Cu1 Mn 54.02(3) 5_556 5_556
P1 Cu1 Mn 115.31(3) 5_566 5_556
Cu4 Cu1 Mn 61.82(2) 6_556 5_556
Cu1 Cu1 Mn 170.83(4) 5_566 5_556
Cu1 Cu1 Mn 94.437(14) 5_556 5_556
P2 Cu1 Mn 60.01(2) . 5_566
P1 Cu1 Mn 132.36(2) . 5_566
P1 Cu1 Mn 115.31(3) 5_556 5_566
P1 Cu1 Mn 54.02(3) 5_566 5_566
Cu4 Cu1 Mn 61.82(2) 6_556 5_566
Cu1 Cu1 Mn 94.437(14) 5_566 5_566
Cu1 Cu1 Mn 170.83(4) 5_556 5_566
Mn Cu1 Mn 81.28(2) 5_556 5_566
P2 Cu1 Tb 59.75(2) . 2_564
P1 Cu1 Tb 60.68(2) . 2_564
P1 Cu1 Tb 165.17(3) 5_556 2_564
P1 Cu1 Tb 92.47(2) 5_566 2_564
Cu4 Cu1 Tb 135.100(14) 6_556 2_564
Cu1 Cu1 Tb 66.398(17) 5_566 2_564
Cu1 Cu1 Tb 115.32(3) 5_556 2_564
Mn Cu1 Tb 119.53(2) 5_556 2_564
Mn Cu1 Tb 73.785(17) 5_566 2_564
P2 Cu1 Tb 59.75(2) . 2_554
P1 Cu1 Tb 60.68(2) . 2_554
P1 Cu1 Tb 92.47(2) 5_556 2_554
P1 Cu1 Tb 165.17(3) 5_566 2_554
Cu4 Cu1 Tb 135.100(14) 6_556 2_554
Cu1 Cu1 Tb 115.32(3) 5_566 2_554
Cu1 Cu1 Tb 66.398(17) 5_556 2_554
Mn Cu1 Tb 73.785(17) 5_556 2_554
Mn Cu1 Tb 119.53(2) 5_566 2_554
Tb Cu1 Tb 72.701(12) 2_564 2_554
P2 Cu1 Tb 165.25(3) . 6_557
P1 Cu1 Tb 90.92(3) . 6_557
P1 Cu1 Tb 59.59(3) 5_556 6_557
P1 Cu1 Tb 59.59(3) 5_566 6_557
Cu4 Cu1 Tb 64.945(16) 6_556 6_557
Cu1 Cu1 Tb 63.93(2) 5_566 6_557
Cu1 Cu1 Tb 63.93(2) 5_556 6_557
Mn Cu1 Tb 109.76(2) 5_556 6_557
Mn Cu1 Tb 109.76(2) 5_566 6_557
Tb Cu1 Tb 130.332(12) 2_564 6_557
Tb Cu1 Tb 130.332(12) 2_554 6_557
P2 Cu2 P3 100.38(4) . 6_556
P2 Cu2 P3 113.17(3) . 2_554
P3 Cu2 P3 113.05(3) 6_556 2_554
P2 Cu2 P3 113.17(3) . 2_564
P3 Cu2 P3 113.05(3) 6_556 2_564
P3 Cu2 P3 104.38(4) 2_554 2_564
P2 Cu2 Cu2 121.36(3) . 5
P3 Cu2 Cu2 56.70(2) 6_556 5
P3 Cu2 Cu2 56.35(3) 2_554 5
P3 Cu2 Cu2 125.43(4) 2_564 5
P2 Cu2 Cu2 121.36(3) . 5_565
P3 Cu2 Cu2 56.70(2) 6_556 5_565
P3 Cu2 Cu2 125.43(4) 2_554 5_565
P3 Cu2 Cu2 56.35(3) 2_564 5_565
Cu2 Cu2 Cu2 91.72(3) 5 5_565
P2 Cu2 Cu3 56.51(2) . 2_564
P3 Cu2 Cu3 122.64(2) 6_556 2_564
P3 Cu2 Cu3 124.26(3) 2_554 2_564
P3 Cu2 Cu3 56.68(3) 2_564 2_564
Cu2 Cu2 Cu3 177.85(3) 5 2_564
Cu2 Cu2 Cu3 89.374(12) 5_565 2_564
P2 Cu2 Cu3 56.51(2) . 2_554
P3 Cu2 Cu3 122.64(2) 6_556 2_554
P3 Cu2 Cu3 56.68(3) 2_554 2_554
P3 Cu2 Cu3 124.26(3) 2_564 2_554
Cu2 Cu2 Cu3 89.374(12) 5 2_554
Cu2 Cu2 Cu3 177.85(3) 5_565 2_554
Cu3 Cu2 Cu3 89.48(2) 2_564 2_554
P2 Cu2 Mn 171.68(4) . 1_554
P3 Cu2 Mn 87.94(3) 6_556 1_554
P3 Cu2 Mn 62.78(3) 2_554 1_554
P3 Cu2 Mn 62.78(3) 2_564 1_554
Cu2 Cu2 Mn 63.39(2) 5 1_554
Cu2 Cu2 Mn 63.39(2) 5_565 1_554
Cu3 Cu2 Mn 118.77(2) 2_564 1_554
Cu3 Cu2 Mn 118.77(2) 2_554 1_554
P2 Cu2 Mn 61.36(3) . 5_566
P3 Cu2 Mn 61.64(2) 6_556 5_566
P3 Cu2 Mn 169.62(3) 2_554 5_566
P3 Cu2 Mn 86.00(2) 2_564 5_566
Cu2 Cu2 Mn 117.63(3) 5 5_566
Cu2 Cu2 Mn 60.45(2) 5_565 5_566
Cu3 Cu2 Mn 61.42(2) 2_564 5_566
Cu3 Cu2 Mn 117.39(3) 2_554 5_566
Mn Cu2 Mn 123.840(19) 1_554 5_566
P2 Cu2 Mn 61.36(3) . 5_556
P3 Cu2 Mn 61.64(2) 6_556 5_556
P3 Cu2 Mn 86.00(2) 2_554 5_556
P3 Cu2 Mn 169.62(3) 2_564 5_556
Cu2 Cu2 Mn 60.45(2) 5 5_556
Cu2 Cu2 Mn 117.63(3) 5_565 5_556
Cu3 Cu2 Mn 117.39(3) 2_564 5_556
Cu3 Cu2 Mn 61.42(2) 2_554 5_556
Mn Cu2 Mn 123.840(19) 1_554 5_556
Mn Cu2 Mn 83.62(2) 5_566 5_556
P2 Cu2 Tb 93.83(3) . 1_554
P3 Cu2 Tb 165.79(3) 6_556 1_554
P3 Cu2 Tb 60.31(3) 2_554 1_554
P3 Cu2 Tb 60.31(3) 2_564 1_554
Cu2 Cu2 Tb 115.28(2) 5 1_554
Cu2 Cu2 Tb 115.28(2) 5_565 1_554
Cu3 Cu2 Tb 65.830(15) 2_564 1_554
Cu3 Cu2 Tb 65.830(15) 2_554 1_554
Mn Cu2 Tb 77.85(2) 1_554 1_554
Mn Cu2 Tb 126.979(19) 5_566 1_554
Mn Cu2 Tb 126.979(19) 5_556 1_554
P2 Cu3 P2 103.45(5) 2_565 2
P2 Cu3 P1 114.62(3) 2_565 .
P2 Cu3 P1 114.62(3) 2 .
P2 Cu3 P3 110.56(3) 2_565 .
P2 Cu3 P3 110.56(3) 2 .
P1 Cu3 P3 103.20(4) . .
P2 Cu3 Cu4 125.47(3) 2_565 2
P2 Cu3 Cu4 57.37(3) 2 2
P1 Cu3 Cu4 57.27(2) . 2
P3 Cu3 Cu4 123.93(2) . 2
P2 Cu3 Cu4 57.37(3) 2_565 2_565
P2 Cu3 Cu4 125.47(3) 2 2_565
P1 Cu3 Cu4 57.27(2) . 2_565
P3 Cu3 Cu4 123.93(2) . 2_565
Cu4 Cu3 Cu4 90.96(2) 2 2_565
P2 Cu3 Cu2 55.03(3) 2_565 2_565
P2 Cu3 Cu2 122.14(3) 2 2_565
P1 Cu3 Cu2 123.20(2) . 2_565
P3 Cu3 Cu2 55.55(2) . 2_565
Cu4 Cu3 Cu2 179.26(2) 2 2_565
Cu4 Cu3 Cu2 89.780(12) 2_565 2_565
P2 Cu3 Cu2 122.14(3) 2_565 2
P2 Cu3 Cu2 55.03(3) 2 2
P1 Cu3 Cu2 123.20(2) . 2
P3 Cu3 Cu2 55.55(2) . 2
Cu4 Cu3 Cu2 89.780(12) 2 2
Cu4 Cu3 Cu2 179.26(2) 2_565 2
Cu2 Cu3 Cu2 89.48(2) 2_565 2
P2 Cu3 Mn 61.16(3) 2_565 6_657
P2 Cu3 Mn 61.16(3) 2 6_657
P1 Cu3 Mn 171.10(4) . 6_657
P3 Cu3 Mn 85.69(3) . 6_657
Cu4 Cu3 Mn 117.72(2) 2 6_657
Cu4 Cu3 Mn 117.72(2) 2_565 6_657
Cu2 Cu3 Mn 61.907(18) 2_565 6_657
Cu2 Cu3 Mn 61.907(18) 2 6_657
P2 Cu3 Tb 60.10(3) 2_565 .
P2 Cu3 Tb 60.10(3) 2 .
P1 Cu3 Tb 95.84(3) . .
P3 Cu3 Tb 160.95(3) . .
Cu4 Cu3 Tb 67.102(16) 2 .
Cu4 Cu3 Tb 67.102(16) 2_565 .
Cu2 Cu3 Tb 113.234(18) 2_565 .
Cu2 Cu3 Tb 113.234(18) 2 .
Mn Cu3 Tb 75.26(2) 6_657 .
P2 Cu3 Tb 164.25(3) 2_565 2_554
P2 Cu3 Tb 91.81(2) 2 2_554
P1 Cu3 Tb 60.73(2) . 2_554
P3 Cu3 Tb 59.25(2) . 2_554
Cu4 Cu3 Tb 66.329(14) 2 2_554
Cu4 Cu3 Tb 116.36(2) 2_565 2_554
Cu2 Cu3 Tb 113.30(2) 2_565 2_554
Cu2 Cu3 Tb 63.947(14) 2 2_554
Mn Cu3 Tb 125.594(18) 6_657 2_554
Tb Cu3 Tb 133.335(12) . 2_554
P2 Cu3 Tb 91.81(2) 2_565 2_564
P2 Cu3 Tb 164.25(3) 2 2_564
P1 Cu3 Tb 60.73(2) . 2_564
P3 Cu3 Tb 59.25(2) . 2_564
Cu4 Cu3 Tb 116.36(2) 2 2_564
Cu4 Cu3 Tb 66.329(14) 2_565 2_564
Cu2 Cu3 Tb 63.947(14) 2_565 2_564
Cu2 Cu3 Tb 113.30(2) 2 2_564
Mn Cu3 Tb 125.594(18) 6_657 2_564
Tb Cu3 Tb 133.335(12) . 2_564
Tb Cu3 Tb 72.729(13) 2_554 2_564
P3 Cu4 P2 100.55(4) . .
P3 Cu4 P1 114.74(3) . 2_554
P2 Cu4 P1 112.90(3) . 2_554
P3 Cu4 P1 114.74(3) . 2_564
P2 Cu4 P1 112.90(3) . 2_564
P1 Cu4 P1 101.59(4) 2_554 2_564
P3 Cu4 Cu3 121.52(2) . 2_554
P2 Cu4 Cu3 56.29(2) . 2_554
P1 Cu4 Cu3 56.63(3) 2_554 2_554
P1 Cu4 Cu3 123.71(3) 2_564 2_554
P3 Cu4 Cu3 121.52(2) . 2_564
P2 Cu4 Cu3 56.29(2) . 2_564
P1 Cu4 Cu3 123.71(3) 2_554 2_564
P1 Cu4 Cu3 56.63(3) 2_564 2_564
Cu3 Cu4 Cu3 90.96(2) 2_554 2_564
P3 Cu4 Cu1 103.09(3) . 6_656
P2 Cu4 Cu1 156.37(4) . 6_656
P1 Cu4 Cu1 56.21(2) 2_554 6_656
P1 Cu4 Cu1 56.21(2) 2_564 6_656
Cu3 Cu4 Cu1 109.67(2) 2_554 6_656
Cu3 Cu4 Cu1 109.67(2) 2_564 6_656
P3 Cu4 Mn 61.34(2) . 2_564
P2 Cu4 Mn 131.29(2) . 2_564
P1 Cu4 Mn 115.72(3) 2_554 2_564
P1 Cu4 Mn 54.28(3) 2_564 2_564
Cu3 Cu4 Mn 172.26(3) 2_554 2_564
Cu3 Cu4 Mn 93.114(14) 2_564 2_564
Cu1 Cu4 Mn 62.73(2) 6_656 2_564
P3 Cu4 Mn 61.34(2) . 2_554
P2 Cu4 Mn 131.29(2) . 2_554
P1 Cu4 Mn 54.28(3) 2_554 2_554
P1 Cu4 Mn 115.72(3) 2_564 2_554
Cu3 Cu4 Mn 93.114(14) 2_554 2_554
Cu3 Cu4 Mn 172.26(3) 2_564 2_554
Cu1 Cu4 Mn 62.73(2) 6_656 2_554
Mn Cu4 Mn 82.11(2) 2_564 2_554
P3 Cu4 Tb 169.10(4) . 1_554
P2 Cu4 Tb 90.36(3) . 1_554
P1 Cu4 Tb 59.96(2) 2_554 1_554
P1 Cu4 Tb 59.96(2) 2_564 1_554
Cu3 Cu4 Tb 64.846(16) 2_554 1_554
Cu3 Cu4 Tb 64.846(16) 2_564 1_554
Cu1 Cu4 Tb 66.010(17) 6_656 1_554
Mn Cu4 Tb 111.16(2) 2_564 1_554
Mn Cu4 Tb 111.16(2) 2_554 1_554
P3 Cu4 Tb 58.88(2) . 2_564
P2 Cu4 Tb 58.57(2) . 2_564
P1 Cu4 Tb 164.82(2) 2_554 2_564
P1 Cu4 Tb 93.51(2) 2_564 2_564
Cu3 Cu4 Tb 113.16(2) 2_554 2_564
Cu3 Cu4 Tb 64.003(14) 2_564 2_564
Cu1 Cu4 Tb 136.669(13) 6_656 2_564
Mn Cu4 Tb 74.556(17) 2_564 2_564
Mn Cu4 Tb 119.99(2) 2_554 2_564
Tb Cu4 Tb 128.762(13) 1_554 2_564
P3 Cu4 Tb 58.88(2) . 2_554
P2 Cu4 Tb 58.57(2) . 2_554
P1 Cu4 Tb 93.51(2) 2_554 2_554
P1 Cu4 Tb 164.82(2) 2_564 2_554
Cu3 Cu4 Tb 64.003(14) 2_554 2_554
Cu3 Cu4 Tb 113.16(2) 2_564 2_554
Cu1 Cu4 Tb 136.669(14) 6_656 2_554
Mn Cu4 Tb 119.99(2) 2_564 2_554
Mn Cu4 Tb 74.556(17) 2_554 2_554
Tb Cu4 Tb 128.762(13) 1_554 2_554
Tb Cu4 Tb 71.355(12) 2_564 2_554
Cu3 P1 Cu1 134.11(5) . .
Cu3 P1 Cu1 128.47(2) . 5_556
Cu1 P1 Cu1 67.80(3) . 5_556
Cu3 P1 Cu1 128.47(2) . 5_566
Cu1 P1 Cu1 67.80(3) . 5_566
Cu1 P1 Cu1 102.36(4) 5_556 5_566
Cu3 P1 Cu4 66.10(3) . 2_565
Cu1 P1 Cu4 129.08(2) . 2_565
Cu1 P1 Cu4 144.93(5) 5_556 2_565
Cu1 P1 Cu4 67.105(19) 5_566 2_565
Cu3 P1 Cu4 66.10(3) . 2
Cu1 P1 Cu4 129.08(2) . 2
Cu1 P1 Cu4 67.105(19) 5_556 2
Cu1 P1 Cu4 144.93(5) 5_566 2
Cu4 P1 Cu4 101.59(4) 2_565 2
Cu3 P1 Mn 110.88(5) . .
Cu1 P1 Mn 115.02(5) . .
Cu1 P1 Mn 72.93(3) 5_556 .
Cu1 P1 Mn 72.93(3) 5_566 .
Cu4 P1 Mn 72.00(3) 2_565 .
Cu4 P1 Mn 72.00(3) 2 .
Cu3 P1 Tb 72.76(3) . 2_554
Cu1 P1 Tb 72.73(3) . 2_554
Cu1 P1 Tb 74.478(18) 5_556 2_554
Cu1 P1 Tb 138.07(4) 5_566 2_554
Cu4 P1 Tb 136.30(4) 2_565 2_554
Cu4 P1 Tb 73.548(18) 2 2_554
Mn P1 Tb 139.477(14) . 2_554
Cu3 P1 Tb 72.76(3) . 2_564
Cu1 P1 Tb 72.73(3) . 2_564
Cu1 P1 Tb 138.07(4) 5_556 2_564
Cu1 P1 Tb 74.478(18) 5_566 2_564
Cu4 P1 Tb 73.548(18) 2_565 2_564
Cu4 P1 Tb 136.30(4) 2 2_564
Mn P1 Tb 139.477(14) . 2_564
Tb P1 Tb 80.96(3) 2_554 2_564
Cu2 P2 Cu1 118.48(5) . .
Cu2 P2 Cu3 68.46(3) . 2_554
Cu1 P2 Cu3 127.85(2) . 2_554
Cu2 P2 Cu3 68.46(3) . 2_564
Cu1 P2 Cu3 127.85(2) . 2_564
Cu3 P2 Cu3 103.45(5) 2_554 2_564
Cu2 P2 Cu4 103.27(4) . .
Cu1 P2 Cu4 138.25(5) . .
Cu3 P2 Cu4 66.34(3) 2_554 .
Cu3 P2 Cu4 66.34(3) 2_564 .
Cu2 P2 Mn 67.97(3) . 5_556
Cu1 P2 Mn 69.45(3) . 5_556
Cu3 P2 Mn 67.06(2) 2_554 5_556
Cu3 P2 Mn 135.72(5) 2_564 5_556
Cu4 P2 Mn 132.29(3) . 5_556
Cu2 P2 Mn 67.97(3) . 5_566
Cu1 P2 Mn 69.45(3) . 5_566
Cu3 P2 Mn 135.72(5) 2_554 5_566
Cu3 P2 Mn 67.06(2) 2_564 5_566
Cu4 P2 Mn 132.29(3) . 5_566
Mn P2 Mn 89.53(4) 5_556 5_566
Cu2 P2 Tb 138.222(16) . 2_564
Cu1 P2 Tb 74.07(3) . 2_564
Cu3 P2 Tb 138.22(4) 2_554 2_564
Cu3 P2 Tb 73.127(17) 2_564 2_564
Cu4 P2 Tb 74.88(3) . 2_564
Mn P2 Tb 143.13(5) 5_556 2_564
Mn P2 Tb 82.570(19) 5_566 2_564
Cu2 P2 Tb 138.222(16) . 2_554
Cu1 P2 Tb 74.07(3) . 2_554
Cu3 P2 Tb 73.127(17) 2_554 2_554
Cu3 P2 Tb 138.22(4) 2_564 2_554
Cu4 P2 Tb 74.88(3) . 2_554
Mn P2 Tb 82.570(19) 5_556 2_554
Mn P2 Tb 143.13(5) 5_566 2_554
Tb P2 Tb 82.57(3) 2_564 2_554
Cu4 P3 Cu2 117.75(5) . 6_656
Cu4 P3 Cu2 126.85(2) . 2_565
Cu2 P3 Cu2 66.96(3) 6_656 2_565
Cu4 P3 Cu2 126.85(2) . 2
Cu2 P3 Cu2 66.96(3) 6_656 2
Cu2 P3 Cu2 104.38(4) 2_565 2
Cu4 P3 Cu3 140.06(5) . .
Cu2 P3 Cu3 102.19(4) 6_656 .
Cu2 P3 Cu3 67.76(3) 2_565 .
Cu2 P3 Cu3 67.76(3) 2 .
Cu4 P3 Mn 69.21(3) . 2_554
Cu2 P3 Mn 67.45(3) 6_656 2_554
Cu2 P3 Mn 133.40(5) 2_565 2_554
Cu2 P3 Mn 65.26(2) 2 2_554
Cu3 P3 Mn 132.08(2) . 2_554
Cu4 P3 Mn 69.21(3) . 2_564
Cu2 P3 Mn 67.45(3) 6_656 2_564
Cu2 P3 Mn 65.26(2) 2_565 2_564
Cu2 P3 Mn 133.40(5) 2 2_564
Cu3 P3 Mn 132.08(2) . 2_564
Mn P3 Mn 88.81(4) 2_554 2_564
Cu4 P3 Tb 76.54(3) . 2_554
Cu2 P3 Tb 137.596(16) 6_656 2_554
Cu2 P3 Tb 138.88(4) 2_565 2_554
Cu2 P3 Tb 72.926(17) 2 2_554
Cu3 P3 Tb 73.83(3) . 2_554
Mn P3 Tb 83.980(18) 2_554 2_554
Mn P3 Tb 145.32(4) 2_564 2_554
Cu4 P3 Tb 76.54(3) . 2_564
Cu2 P3 Tb 137.596(16) 6_656 2_564
Cu2 P3 Tb 72.926(17) 2_565 2_564
Cu2 P3 Tb 138.88(4) 2 2_564
Cu3 P3 Tb 73.83(3) . 2_564
Mn P3 Tb 145.32(4) 2_554 2_564
Mn P3 Tb 83.980(18) 2_564 2_564
Tb P3 Tb 82.99(3) 2_554 2_564
loop_
_geom_bond_atom_site_label_1
_geom_bond_atom_site_label_2
_geom_bond_distance
_geom_bond_site_symmetry_2
Tb P3 2.8642(8) 2
Tb P3 2.8642(8) 2_565
Tb P2 2.8761(8) 2
Tb P2 2.8761(8) 2_565
Tb P1 2.9233(8) 2_565
Tb P1 2.9233(8) 2
Tb Cu2 3.1517(6) 1_556
Tb Cu3 3.1748(6) .
Tb Cu3 3.2007(5) 2_565
Tb Cu3 3.2007(5) 2
Tb Cu1 3.2017(5) 2_565
Tb Cu1 3.2017(5) 2
Mn P1 2.4666(13) .
Mn P2 2.6950(9) 5_556
Mn P2 2.6950(9) 5_566
Mn P3 2.7121(9) 2_565
Mn P3 2.7121(9) 2
Mn Cu2 2.7698(10) 1_556
Mn Cu3 2.8335(10) 6_557
Mn Cu2 2.8465(7) 5_566
Mn Cu2 2.8465(7) 5_556
Mn Cu4 2.8895(7) 2_565
Mn Cu4 2.8895(7) 2
Mn Cu1 2.9137(7) 5_556
Cu1 P2 2.4027(12) .
Cu1 P1 2.4355(12) .
Cu1 P1 2.4357(8) 5_556
Cu1 P1 2.4357(8) 5_566
Cu1 Cu4 2.6999(8) 6_556
Cu1 Cu1 2.7171(8) 5_566
Cu1 Cu1 2.7171(8) 5_556
Cu1 Mn 2.9137(7) 5_556
Cu1 Mn 2.9137(7) 5_566
Cu1 Tb 3.2017(5) 2_564
Cu1 Tb 3.2017(5) 2_554
Cu1 Tb 3.2661(6) 6_557
Cu2 P2 2.3752(12) .
Cu2 P3 2.3922(12) 6_556
Cu2 P3 2.4020(7) 2_554
Cu2 P3 2.4020(7) 2_564
Cu2 Cu2 2.6445(7) 5
Cu2 Cu2 2.6445(7) 5_565
Cu2 Cu3 2.6962(5) 2_564
Cu2 Cu3 2.6962(5) 2_554
Cu2 Mn 2.7698(10) 1_554
Cu2 Mn 2.8465(7) 5_566
Cu2 Mn 2.8465(7) 5_556
Cu2 Tb 3.1517(6) 1_554
Cu3 P2 2.4173(8) 2_565
Cu3 P2 2.4173(8) 2
Cu3 P1 2.4311(12) .
Cu3 P3 2.4341(12) .
Cu3 Cu4 2.6616(5) 2
Cu3 Cu4 2.6616(5) 2_565
Cu3 Cu2 2.6961(5) 2_565
Cu3 Cu2 2.6961(5) 2
Cu3 Mn 2.8334(10) 6_657
Cu3 Tb 3.2007(5) 2_554
Cu3 Tb 3.2007(5) 2_564
Cu4 P3 2.3486(12) .
Cu4 P2 2.4472(12) .
Cu4 P1 2.4490(7) 2_554
Cu4 P1 2.4490(7) 2_564
Cu4 Cu3 2.6616(5) 2_554
Cu4 Cu3 2.6616(5) 2_564
Cu4 Cu1 2.6998(8) 6_656
Cu4 Mn 2.8895(7) 2_564
Cu4 Mn 2.8895(7) 2_554
Cu4 Tb 3.2385(6) 1_554
Cu4 Tb 3.2539(5) 2_564
Cu4 Tb 3.2539(5) 2_554
P1 Cu1 2.4357(8) 5_556
P1 Cu1 2.4357(8) 5_566
P1 Cu4 2.4490(7) 2_565
P1 Cu4 2.4490(7) 2
P1 Tb 2.9233(8) 2_554
P1 Tb 2.9233(8) 2_564
P2 Cu3 2.4173(8) 2_554
P2 Cu3 2.4173(8) 2_564
P2 Mn 2.6950(9) 5_556
P2 Mn 2.6950(9) 5_566
P2 Tb 2.8761(8) 2_564
P2 Tb 2.8761(8) 2_554
P3 Cu2 2.3922(12) 6_656
P3 Cu2 2.4020(7) 2_565
P3 Cu2 2.4020(7) 2
P3 Mn 2.7121(9) 2_554
P3 Mn 2.7121(9) 2_564
P3 Tb 2.8642(8) 2_554
P3 Tb 2.8642(8) 2_564
