#------------------------------------------------------------------------------
#$Date: 2016-03-23 23:52:22 +0200 (Wed, 23 Mar 2016) $
#$Revision: 179516 $
#$URL: svn://www.crystallography.net/cod/cif/4/34/13/4341391.cif $
#------------------------------------------------------------------------------
#
# This file is available in the Crystallography Open Database (COD),
# http://www.crystallography.net/
#
# All data on this site have been placed in the public domain by the
# contributors.
#
data_4341391
loop_
_publ_author_name
'Ramachandran, Krishna K.'
'Stoyko, Stanislav S.'
'Mullen, C. Scott'
'Mar, Arthur'
_publ_section_title
;
 Rare-Earth Manganese Copper Phosphides REMnCu4P3 (RE = Gd-Ho): The First
 Quaternary Ordered Variants of the YCo5P3-Type Structure.
;
_journal_issue                   3
_journal_name_full               'Inorganic chemistry'
_journal_page_first              860
_journal_page_last               866
_journal_paper_doi               10.1021/ic502075x
_journal_volume                  54
_journal_year                    2015
_chemical_formula_structural     'Gd Mn Cu4 P3'
_chemical_formula_sum            'Cu4 Gd Mn P3'
_chemical_formula_weight         559.26
_chemical_name_common
'gadolinium manganese copper phosphide (1/1/4/3)'
_chemical_name_systematic
'gadolinium manganese copper phosphide (1/1/4/3)'
_space_group_crystal_system      orthorhombic
_space_group_IT_number           62
_space_group_name_Hall           '-P 2ac 2n'
_space_group_name_H-M_alt        'P n m a'
_symmetry_space_group_name_Hall  '-P 2ac 2n'
_symmetry_space_group_name_H-M   'P n m a'
_atom_sites_solution_primary     direct
_atom_sites_solution_secondary   difmap
_audit_creation_method           SHELXL-2013
_cell_angle_alpha                90
_cell_angle_beta                 90
_cell_angle_gamma                90
_cell_formula_units_Z            4
_cell_length_a                   12.667(2)
_cell_length_b                   3.8119(7)
_cell_length_c                   10.895(2)
_cell_measurement_reflns_used    6222
_cell_measurement_temperature    173(2)
_cell_measurement_theta_max      33.06
_cell_measurement_theta_min      3.22
_cell_volume                     526.07(16)
_computing_cell_refinement       'Bruker SAINT 7.68A (Bruker, 2009)'
_computing_data_collection       'Bruker APEX 2 (Bruker, 2008)'
_computing_data_reduction        'Bruker SAINT 7.68A'
_computing_molecular_graphics    'ATOMS 5.1 (Dowty, 1999)'
_computing_publication_material  'Bruker SHELXTL'
_computing_structure_refinement  'Bruker SHELXTL'
_computing_structure_solution    'Bruker SHELXTL'
_diffrn_ambient_temperature      173(2)
_diffrn_measured_fraction_theta_full 1.000
_diffrn_measured_fraction_theta_max 0.988
_diffrn_measurement_device_type  'Bruker PLATFORM/SMART APEX II CCD'
_diffrn_measurement_method       '\w and \f scans'
_diffrn_radiation_type           MoK\a
_diffrn_radiation_wavelength     0.71073
_diffrn_reflns_av_R_equivalents  0.0341
_diffrn_reflns_av_unetI/netI     0.0226
_diffrn_reflns_Laue_measured_fraction_full 1.000
_diffrn_reflns_Laue_measured_fraction_max 0.988
_diffrn_reflns_limit_h_max       19
_diffrn_reflns_limit_h_min       -19
_diffrn_reflns_limit_k_max       5
_diffrn_reflns_limit_k_min       -5
_diffrn_reflns_limit_l_max       16
_diffrn_reflns_limit_l_min       -16
_diffrn_reflns_number            7031
_diffrn_reflns_point_group_measured_fraction_full 1.000
_diffrn_reflns_point_group_measured_fraction_max 0.988
_diffrn_reflns_theta_full        25.242
_diffrn_reflns_theta_max         33.247
_diffrn_reflns_theta_min         2.466
_diffrn_source                   'fine-focus sealed tube'
_exptl_absorpt_coefficient_mu    31.381
_exptl_absorpt_correction_T_max  0.5716
_exptl_absorpt_correction_T_min  0.0801
_exptl_absorpt_correction_type   numerical
_exptl_absorpt_process_details   'Bruker SHELXTL (Sheldrick, 2013)'
_exptl_crystal_colour            black
_exptl_crystal_density_diffrn    7.061
_exptl_crystal_density_method    'not measured'
_exptl_crystal_description       needle
_exptl_crystal_F_000             1000
_exptl_crystal_size_max          0.173
_exptl_crystal_size_mid          0.070
_exptl_crystal_size_min          0.030
_refine_diff_density_max         3.238
_refine_diff_density_min         -1.584
_refine_diff_density_rms         0.308
_refine_ls_extinction_coef       0.00359(18)
_refine_ls_extinction_expression Fc^*^=kFc[1+0.001xFc^2^\l^3^/sin(2\q)]^-1/4^
_refine_ls_extinction_method     SHELXL
_refine_ls_goodness_of_fit_ref   1.052
_refine_ls_hydrogen_treatment    undef
_refine_ls_matrix_type           full
_refine_ls_number_parameters     56
_refine_ls_number_reflns         1124
_refine_ls_number_restraints     0
_refine_ls_restrained_S_all      1.052
_refine_ls_R_factor_all          0.0208
_refine_ls_R_factor_gt           0.0191
_refine_ls_shift/su_max          0.001
_refine_ls_shift/su_mean         0.000
_refine_ls_structure_factor_coef Fsqd
_refine_ls_weighting_details
'w=1/[\s^2^(Fo^2^)+(0.0190P)^2^+2.9900P] where P=(Fo^2^+2Fc^2^)/3'
_refine_ls_weighting_scheme      calc
_refine_ls_wR_factor_gt          0.0450
_refine_ls_wR_factor_ref         0.0460
_reflns_Friedel_coverage         0.000
_reflns_number_gt                1062
_reflns_number_total             1124
_reflns_threshold_expression     'I > 2\s(I)'
_cod_data_source_file            ic502075x_si_002.cif
_cod_data_source_block           GdMnCu4P3
_cod_depositor_comments
'Adding full bibliography for 4341391--4341394.cif.'
_cod_original_cell_volume        526.05(17)
_cod_database_code               4341391
#BEGIN Tags that were not found in dictionaries:
_shelx_space_group_comment
;
The symmetry employed for this shelxl refinement is uniquely defined
by the following loop, which should always be used as a source of
symmetry information in preference to the above space-group names.
They are only intended as comments.
;
_shelx_estimated_absorpt_t_min   0.074
_shelx_estimated_absorpt_t_max   0.453
_shelxl_version_number           2013-4
_shelx_res_file
;
TITL GdMnCu4P3 Pnma lsf final refinement
CELL 0.71073  12.66700   3.81190  10.89460  90.0000  90.0000  90.0000
ZERR    4.00   0.00230   0.00070   0.00200   0.0000   0.0000   0.0000
LATT  1
SYMM 0.5-X, -Y, 0.5+Z
SYMM -X, 0.5+Y, -Z
SYMM 0.5+X, 0.5-Y, 0.5-Z
SFAC P MN CU GD
UNIT 12 4 16 4
TEMP -100
SIZE 0.03 0.07 0.173

L.S. 4
ACTA

WGHT    0.019000    2.990000
EXTI    0.003592
FVAR       0.05895
GD    4    0.291643    0.250000    0.920553    10.50000    0.00540    0.00455 =
         0.00597    0.00000   -0.00003    0.00000
MN    2    0.018018    0.250000    0.791406    10.50000    0.01666    0.01082 =
         0.01235    0.00000    0.00516    0.00000
CU1   3    0.005242    0.250000    0.410279    10.50000    0.00682    0.00748 =
         0.00887    0.00000    0.00024    0.00000
CU2   3    0.064285    0.250000    0.039208    10.50000    0.00600    0.00624 =
         0.00892    0.00000   -0.00038    0.00000
CU3   3    0.305009    0.250000    0.628885    10.50000    0.00896    0.00628 =
         0.00758    0.00000    0.00060    0.00000
CU4   3    0.322125    0.250000    0.216455    10.50000    0.00751    0.00738 =
         0.00731    0.00000   -0.00016    0.00000
P1    1    0.114783    0.250000    0.594989    10.50000    0.00613    0.00430 =
         0.00575    0.00000    0.00037    0.00000
P2    1    0.130049    0.250000    0.242966    10.50000    0.00583    0.00506 =
         0.00602    0.00000   -0.00056    0.00000
P3    1    0.378623    0.250000    0.422119    10.50000    0.00469    0.00514 =
         0.00592    0.00000   -0.00047    0.00000
HKLF 4

REM  GdMnCu4P3 Pnma lsf final refinement
REM R1 =  0.0191 for    1062 Fo > 4sig(Fo)  and  0.0208 for all    1124 data
REM     56 parameters refined using      0 restraints

END

WGHT      0.0190      2.9898

REM Highest difference peak  3.238,  deepest hole -1.584,  1-sigma level  0.308
Q1    1  -0.0113  0.2500  0.7428  10.50000  0.05    3.24
Q2    1   0.0708  0.2500  0.7955  10.50000  0.05    2.79
Q3    1   0.0070  0.2500  0.8195  10.50000  0.05    1.78
Q4    1   0.2686  0.0726  0.9246  11.00000  0.05    1.54
Q5    1   0.3209  0.0816  0.9164  11.00000  0.05    1.24
Q6    1   0.1594  0.0796  0.2332  11.00000  0.05    0.88
Q7    1   0.3008  0.2500  0.9821  10.50000  0.05    0.77
Q8    1   0.2848  0.2500  0.8636  10.50000  0.05    0.76
Q9    1   0.3007  0.0886  0.2075  11.00000  0.05    0.75
Q10   1   0.0346  0.0721  0.4017  11.00000  0.05    0.71
Q11   1   0.1450  0.0740  0.6080  11.00000  0.05    0.70
Q12   1   0.3562  0.1003  0.2316  11.00000  0.05    0.69
Q13   1   0.0788  0.0853  0.5973  11.00000  0.05    0.68
Q14   1   0.4014  0.0772  0.3037  11.00000  0.05    0.68
Q15   1   0.3342 -0.0533  0.9911  11.00000  0.05    0.67
Q16   1  -0.0347  0.0743  0.3988  11.00000  0.05    0.67
Q17   1   0.3010  0.0787  0.6184  11.00000  0.05    0.64
Q18   1   0.4087  0.1001  0.4608  11.00000  0.05    0.62
Q19   1   0.2478  0.1203  0.2497  11.00000  0.05    0.61
Q20   1   0.3241 -0.1159  0.5817  11.00000  0.05    0.59
;
_shelx_res_checksum              87495
_shelx_hkl_file
;
  -4  -1 -16    5.19    0.71
  -3  -1 -16   18.92    1.47
  -2  -1 -16    0.29    0.24
   1  -1 -16    2.14    0.44
   2  -1 -16    0.36    0.24
   3  -1 -16   18.86    1.45
   4  -1 -16    6.57    0.72
  -4   0 -16    1.88    0.42
  -3   0 -16    0.02    0.21
  -2   0 -16    6.74    0.77
  -1   0 -16   32.76    2.18
  -4   1 -16    4.71    0.65
  -3   1 -16   21.43    1.06
  -2   1 -16    0.32    0.17
  -1   1 -16    2.89    0.35
   0   1 -16   -0.06    0.21
  -3  -2 -15    0.89    0.35
  -2  -2 -15    3.62    0.61
   1  -2 -15    0.49    0.29
   2  -2 -15    4.21    0.62
   3  -2 -15    1.07    0.33
   4  -2 -15    8.27    0.82
  -6  -1 -15   10.29    0.97
  -5  -1 -15    0.35    0.27
  -4  -1 -15    3.79    0.58
  -3  -1 -15    2.35    0.47
  -2  -1 -15    8.47    0.76
  -1  -1 -15    0.47    0.28
   2  -1 -15    7.24    0.70
   3  -1 -15    1.87    0.40
   4  -1 -15    2.46    0.45
   5  -1 -15   -0.05    0.19
   6  -1 -15   10.78    0.91
   7  -1 -15    0.03    0.20
  -8   0 -15   18.86    1.47
  -7   0 -15   12.06    0.74
  -6   0 -15   18.81    1.01
  -5   0 -15    1.32    0.26
  -4   0 -15    9.48    0.61
  -3   0 -15    0.75    0.31
  -2   0 -15    5.84    0.70
  -1   0 -15    1.24    0.33
   0   0 -15    0.37    0.23
   6   0 -15   20.25    1.30
   7   0 -15   10.89    0.88
   8   0 -15   20.16    1.31
  -7   1 -15   -0.07    0.22
  -6   1 -15    9.90    0.65
  -5   1 -15    0.50    0.20
  -4   1 -15    2.86    0.35
  -3   1 -15    1.92    0.41
  -2   1 -15    4.89    0.66
  -1   1 -15    0.03    0.18
   0   1 -15    9.69    0.82
   1   1 -15    0.08    0.19
   8   1 -15    2.85    0.47
  -5   2 -15    1.27    0.35
  -4   2 -15    9.86    0.78
  -3   2 -15    0.54    0.18
  -2   2 -15    4.64    0.42
  -1   2 -15    1.13    0.22
   0   2 -15    0.27    0.14
   1   2 -15    0.63    0.25
   2   2 -15    4.11    0.52
   3   2 -15    0.69    0.24
   4   2 -15    8.47    0.70
   5   2 -15    1.08    0.27
  -3  -3 -14   30.45    2.20
  -7  -2 -14    5.40    0.87
  -5  -2 -14    2.37    0.56
  -3  -2 -14   11.25    1.09
  -2  -2 -14   27.98    1.99
  -1  -2 -14   17.65    1.36
   3  -2 -14   14.75    1.10
   4  -2 -14   10.09    0.89
   5  -2 -14    2.94    0.49
   6  -2 -14   13.43    1.12
   7  -2 -14    6.00    0.76
 -10  -1 -14   -0.01    0.34
  -9  -1 -14    7.58    0.68
  -8  -1 -14   15.01    0.92
  -7  -1 -14   19.43    1.47
  -6  -1 -14   15.00    1.24
  -5  -1 -14    5.87    0.76
  -4  -1 -14   24.23    1.71
  -3  -1 -14   43.75    2.69
  -2  -1 -14   55.41    3.26
  -1  -1 -14    1.44    0.35
   0  -1 -14    0.07    0.20
   2  -1 -14   53.34    3.26
   3  -1 -14   43.30    2.66
   4  -1 -14   24.43    1.65
   5  -1 -14    5.85    0.67
   6  -1 -14   12.85    1.10
   7  -1 -14   18.68    1.36
 -10   0 -14   26.47    1.93
  -9   0 -14   18.71    1.04
  -8   0 -14    4.92    0.51
  -7   0 -14    5.67    0.53
  -6   0 -14   16.03    0.88
  -5   0 -14    3.71    0.40
  -4   0 -14   12.10    0.69
  -3   0 -14   16.67    0.84
  -2   0 -14   35.16    1.54
  -1   0 -14   21.65    1.50
   0   0 -14   35.63    2.19
   1   0 -14   23.30    1.50
   7   0 -14    6.94    0.69
   8   0 -14    5.16    0.62
   9   0 -14   18.65    1.29
  10   0 -14   27.27    1.72
  -9   1 -14    9.43    1.01
  -8   1 -14   15.64    0.89
  -7   1 -14   16.65    0.96
  -6   1 -14   14.72    0.83
  -5   1 -14    4.86    0.66
  -4   1 -14   24.88    1.65
  -3   1 -14   43.58    2.61
  -2   1 -14   56.12    3.17
  -1   1 -14    1.34    0.32
   0   1 -14    0.07    0.12
   1   1 -14    1.38    0.21
   2   1 -14   56.14    2.81
   3   1 -14   42.94    2.28
   6   1 -14   15.16    1.06
   7   1 -14   18.44    1.25
   8   1 -14   15.42    1.12
   9   1 -14    7.68    0.81
  -8   2 -14    4.15    0.58
  -7   2 -14    4.53    0.45
  -6   2 -14   13.64    0.75
  -5   2 -14    1.80    0.28
  -4   2 -14   10.38    0.60
  -3   2 -14   12.23    0.68
  -2   2 -14   29.88    1.27
  -1   2 -14   19.26    0.89
   0   2 -14   30.41    1.73
   1   2 -14   18.02    1.16
   2   2 -14   28.54    1.67
   3   2 -14   12.44    0.89
   4   2 -14    9.70    0.75
   8   2 -14    4.10    0.61
  -6  -3 -13    3.64    0.96
  -5  -3 -13    1.22    0.68
  -4  -3 -13    5.89    1.07
  -3  -3 -13   39.08    2.93
  -2  -3 -13    9.61    1.24
   0  -3 -13    1.13    0.37
   1  -3 -13   28.61    1.92
   2  -3 -13    9.25    0.90
   3  -3 -13   42.65    2.73
   4  -3 -13    6.81    0.82
   5  -3 -13    1.66    0.45
  -9  -2 -13    2.11    0.64
  -7  -2 -13   48.35    3.34
  -6  -2 -13    1.96    0.57
  -4  -2 -13    0.08    0.34
  -3  -2 -13    5.28    0.81
  -2  -2 -13    1.15    0.40
  -1  -2 -13   18.63    1.41
   0  -2 -13    0.11    0.26
   1  -2 -13   17.97    1.33
   2  -2 -13    1.07    0.31
   3  -2 -13    5.90    0.72
   4  -2 -13    0.42    0.26
   5  -2 -13   65.05    3.81
   6  -2 -13    2.45    0.48
   7  -2 -13   53.22    3.19
   8  -2 -13    5.08    0.72
   9  -2 -13    1.75    0.49
 -11  -1 -13   22.72    1.95
 -10  -1 -13    2.33    0.40
  -9  -1 -13   19.95    1.18
  -8  -1 -13    7.42    0.68
  -7  -1 -13    5.29    0.54
  -6  -1 -13    5.11    0.52
  -5  -1 -13    1.38    0.39
  -4  -1 -13   11.54    0.98
  -3  -1 -13   58.68    3.53
  -2  -1 -13   14.82    1.15
  -1  -1 -13   40.78    2.46
   0  -1 -13    3.09    0.48
   1  -1 -13   40.84    2.42
   3  -1 -13   58.79    3.51
   4  -1 -13   10.21    0.88
   5  -1 -13    1.98    0.39
   6  -1 -13    5.10    0.64
   7  -1 -13    5.50    0.69
   8  -1 -13    8.96    0.84
   9  -1 -13   27.10    1.70
  10  -1 -13    1.72    0.44
 -11   0 -13    1.19    0.30
 -10   0 -13    0.92    0.25
  -9   0 -13    2.42    0.35
  -8   0 -13    6.41    0.58
  -7   0 -13   60.84    2.56
  -6   0 -13    2.75    0.35
  -5   0 -13   74.73    3.06
  -4   0 -13    0.45    0.17
  -3   0 -13    7.05    0.48
  -2   0 -13    1.42    0.23
  -1   0 -13   22.07    1.03
   0   0 -13    0.11    0.11
   1   0 -13   21.06    1.44
   2   0 -13    1.35    0.30
   3   0 -13    8.34    0.68
   4   0 -13    1.43    0.30
   8   0 -13    6.10    0.67
   9   0 -13    2.04    0.39
  10   0 -13    1.12    0.30
  11   0 -13    1.17    0.33
 -11   1 -13   29.82    2.00
 -10   1 -13    1.15    0.27
  -9   1 -13   20.42    1.13
  -8   1 -13    7.69    0.64
  -7   1 -13    5.13    0.49
  -6   1 -13    5.80    0.71
  -5   1 -13    1.51    0.37
  -4   1 -13   10.54    0.59
  -3   1 -13   59.99    2.27
  -2   1 -13   16.05    0.73
  -1   1 -13   41.49    1.59
   0   1 -13    3.25    0.31
   1   1 -13   41.39    2.12
   2   1 -13   13.83    0.93
   4   1 -13   11.57    0.82
   5   1 -13    1.67    0.34
   6   1 -13    6.01    0.65
   7   1 -13    5.86    0.65
   8   1 -13    8.20    0.74
   9   1 -13   21.94    1.48
  10   1 -13    1.39    0.37
  11   1 -13   26.72    1.78
 -10   2 -13    0.71    0.33
  -9   2 -13    1.98    0.32
  -8   2 -13    4.91    0.47
  -7   2 -13   49.37    2.04
  -6   2 -13    2.31    0.30
  -5   2 -13   64.65    2.47
  -4   2 -13    0.69    0.19
  -3   2 -13    6.08    0.48
  -2   2 -13    1.17    0.21
  -1   2 -13   18.78    1.17
   0   2 -13    0.15    0.18
   1   2 -13   18.12    1.14
   2   2 -13    0.88    0.26
   3   2 -13    5.76    0.60
   6   2 -13    2.81    0.51
   7   2 -13   53.53    2.95
   8   2 -13    5.16    0.71
   9   2 -13    1.99    0.48
  -6   3 -13    3.59    0.57
  -5   3 -13    0.77    0.22
  -4   3 -13    6.66    0.54
  -3   3 -13   42.34    1.77
  -2   3 -13    8.44    0.86
  -1   3 -13   28.12    1.67
   0   3 -13    1.63    0.37
   1   3 -13   25.84    1.63
   2   3 -13    9.70    0.78
   3   3 -13   43.92    2.36
   4   3 -13    6.25    0.68
   5   3 -13    0.97    0.28
  -2  -4 -12    6.35    0.95
  -8  -3 -12   14.57    1.69
  -7  -3 -12   -0.11    0.41
  -6  -3 -12   29.28    2.25
  -5  -3 -12    1.82    0.63
  -4  -3 -12    0.73    0.47
  -3  -3 -12    0.29    0.37
  -2  -3 -12    1.06    0.46
  -1  -3 -12    0.04    0.33
   0  -3 -12   -0.14    0.18
   1  -3 -12    0.21    0.24
   2  -3 -12    1.11    0.36
   3  -3 -12    0.46    0.29
   4  -3 -12    1.59    0.42
   5  -3 -12    1.35    0.41
   6  -3 -12   26.99    1.91
   7  -3 -12    0.02    0.28
   8  -3 -12   18.52    1.41
 -11  -2 -12    2.71    0.65
 -10  -2 -12   20.15    1.28
  -9  -2 -12    0.36    0.42
  -8  -2 -12   24.03    2.17
  -7  -2 -12    3.68    0.83
  -6  -2 -12   -0.23    0.33
  -5  -2 -12    1.35    0.55
  -4  -2 -12    1.74    0.57
  -3  -2 -12   -0.20    0.30
  -2  -2 -12   13.14    1.18
  -1  -2 -12    0.05    0.27
   0  -2 -12    9.42    1.05
   2  -2 -12   11.24    0.95
   3  -2 -12    0.09    0.18
   4  -2 -12    0.84    0.31
   5  -2 -12    1.14    0.34
   6  -2 -12    0.32    0.24
   7  -2 -12    6.64    0.79
   8  -2 -12   28.99    2.00
   9  -2 -12    0.50    0.31
  11  -2 -12    2.57    0.54
 -12  -1 -12   11.84    0.88
 -11  -1 -12    2.13    0.42
 -10  -1 -12   11.92    0.87
  -9  -1 -12    8.76    0.74
  -8  -1 -12   18.85    1.08
  -7  -1 -12    0.20    0.20
  -6  -1 -12   30.50    1.57
  -5  -1 -12    1.30    0.27
  -4  -1 -12    2.01    0.31
  -3  -1 -12    1.51    0.38
  -2  -1 -12    1.79    0.41
  -1  -1 -12    0.08    0.18
   0  -1 -12   -0.07    0.16
   1  -1 -12    0.21    0.20
   3  -1 -12    1.25    0.31
   4  -1 -12    3.11    0.46
   5  -1 -12    2.59    0.42
   6  -1 -12   35.70    2.20
   7  -1 -12    0.32    0.25
   8  -1 -12   22.43    1.49
   9  -1 -12    8.97    0.84
  11  -1 -12    2.27    0.48
 -13   0 -12    4.53    0.81
 -12   0 -12   31.07    1.65
 -11   0 -12    2.29    0.38
 -10   0 -12   25.33    1.34
  -9   0 -12    0.07    0.16
  -8   0 -12   33.25    1.62
  -7   0 -12    5.60    0.52
  -6   0 -12    0.37    0.17
  -5   0 -12    1.89    0.28
  -4   0 -12    0.62    0.18
  -3   0 -12    0.17    0.13
  -2   0 -12   13.83    0.71
  -1   0 -12    0.38    0.14
   0   0 -12   10.27    0.57
   1   0 -12    0.48    0.14
   2   0 -12   13.82    0.67
   3   0 -12    0.28    0.18
   4   0 -12    0.89    0.25
   5   0 -12    1.44    0.32
   6   0 -12    0.45    0.22
   9   0 -12    0.42    0.21
  10   0 -12   25.11    1.68
  11   0 -12    2.83    0.46
  12   0 -12   36.86    2.15
 -12   1 -12   10.95    0.80
 -11   1 -12    2.45    0.37
 -10   1 -12   11.27    0.74
  -9   1 -12    6.82    0.61
  -8   1 -12   17.77    0.92
  -7   1 -12    0.07    0.14
  -6   1 -12   34.09    1.43
  -5   1 -12    1.49    0.23
  -4   1 -12    2.44    0.28
  -3   1 -12    1.17    0.20
  -2   1 -12    2.17    0.25
  -1   1 -12    0.28    0.12
   0   1 -12    0.53    0.19
   1   1 -12    0.35    0.16
   3   1 -12    1.53    0.32
   4   1 -12    2.39    0.40
   5   1 -12    1.96    0.37
   6   1 -12   35.83    2.04
   7   1 -12    0.51    0.24
   8   1 -12   19.90    1.34
   9   1 -12    8.77    0.78
  10   1 -12   12.58    1.00
  11   1 -12    2.14    0.48
  12   1 -12   11.63    1.01
 -11   2 -12    1.54    0.41
 -10   2 -12   20.40    1.07
  -9   2 -12    0.12    0.16
  -8   2 -12   27.63    1.27
  -7   2 -12    4.30    0.42
  -6   2 -12    0.31    0.16
  -5   2 -12    1.39    0.24
  -4   2 -12    0.67    0.19
  -3   2 -12   -0.03    0.12
  -2   2 -12   11.08    0.83
  -1   2 -12    0.37    0.20
   0   2 -12    9.61    0.74
   1   2 -12    0.32    0.19
   2   2 -12   11.33    0.81
   5   2 -12    1.51    0.42
   6   2 -12    0.22    0.27
   7   2 -12    5.18    0.72
   8   2 -12   30.71    1.94
   9   2 -12   -0.03    0.29
  10   2 -12   20.33    1.59
  11   2 -12    1.83    0.51
  -8   3 -12   13.01    0.80
  -7   3 -12   -0.13    0.15
  -6   3 -12   23.41    1.17
  -5   3 -12    1.09    0.23
  -4   3 -12    1.24    0.24
  -3   3 -12    0.95    0.22
  -2   3 -12    1.64    0.37
  -1   3 -12    0.53    0.24
   0   3 -12    0.19    0.20
   1   3 -12    0.28    0.21
   2   3 -12    2.14    0.39
   3   3 -12    0.91    0.27
   4   3 -12    0.73    0.26
   7   3 -12    0.09    0.35
   8   3 -12   12.79    1.42
   9   3 -12    5.76    0.96
  -5  -4 -11   19.39    1.65
  -4  -4 -11   15.00    1.30
  -3  -4 -11    0.43    0.23
  -2  -4 -11    5.18    0.55
  -1  -4 -11   22.61    1.19
   0  -4 -11    0.35    0.30
   1  -4 -11   24.82    1.78
   2  -4 -11    5.63    0.81
   3  -4 -11    0.46    0.33
   4  -4 -11   13.42    1.23
  -9  -3 -11   21.01    1.58
  -8  -3 -11   26.83    2.09
  -7  -3 -11    1.94    0.57
  -6  -3 -11    0.43    0.37
  -5  -3 -11    0.93    0.44
  -4  -3 -11    5.35    0.82
  -3  -3 -11   48.99    3.14
  -2  -3 -11   21.27    1.63
  -1  -3 -11    4.70    0.69
   0  -3 -11    3.51    0.40
   1  -3 -11    3.84    0.61
   2  -3 -11   24.75    1.66
   3  -3 -11   51.81    3.14
   4  -3 -11    4.89    0.71
   5  -3 -11    0.66    0.33
   6  -3 -11    0.33    0.28
   7  -3 -11    2.07    0.51
   8  -3 -11   28.70    2.04
   9  -3 -11   17.54    1.42
 -12  -2 -11    2.73    0.45
 -11  -2 -11   -0.12    0.20
 -10  -2 -11    9.96    0.81
  -9  -2 -11   24.89    1.36
  -8  -2 -11    0.82    0.28
  -7  -2 -11   18.58    1.62
  -6  -2 -11   13.33    1.58
  -5  -2 -11   32.70    2.44
  -4  -2 -11   20.25    1.77
  -3  -2 -11   -0.02    0.32
  -2  -2 -11    8.27    1.07
  -1  -2 -11   38.89    2.73
   0  -2 -11   -0.15    0.22
   1  -2 -11   39.34    2.62
   2  -2 -11   10.63    0.86
   3  -2 -11    0.19    0.19
   4  -2 -11   22.28    1.54
   5  -2 -11   37.37    2.22
   6  -2 -11   19.36    1.34
   7  -2 -11   18.56    1.39
   8  -2 -11    1.04    0.35
   9  -2 -11   27.42    1.88
  10  -2 -11    8.11    0.96
  11  -2 -11    0.07    0.23
  12  -2 -11    3.27    0.60
 -13  -1 -11   14.72    1.00
 -12  -1 -11    1.74    0.33
 -11  -1 -11   16.23    1.05
 -10  -1 -11    4.21    0.49
  -9  -1 -11   21.59    1.21
  -8  -1 -11   37.91    1.82
  -7  -1 -11    1.65    0.31
  -6  -1 -11    1.35    0.29
  -5  -1 -11    0.90    0.23
  -4  -1 -11    5.43    0.53
  -3  -1 -11   80.92    4.51
  -2  -1 -11   31.74    1.45
  -1  -1 -11    6.35    0.71
   0  -1 -11    4.04    0.56
   1  -1 -11    5.55    0.64
   2  -1 -11   35.09    2.03
   3  -1 -11   75.81    4.42
   4  -1 -11    6.93    0.64
   5  -1 -11    1.42    0.33
   6  -1 -11    0.84    0.29
   7  -1 -11    2.23    0.43
   8  -1 -11   37.03    2.48
   9  -1 -11   23.43    1.64
  10  -1 -11    3.06    0.52
  11  -1 -11   17.19    1.37
  12  -1 -11    0.51    0.31
  13  -1 -11   12.89    1.19
 -14   0 -11    0.16    0.35
 -13   0 -11   -0.07    0.19
 -12   0 -11    2.84    0.42
 -11   0 -11   -0.15    0.17
 -10   0 -11   10.38    0.76
  -9   0 -11   28.63    1.44
  -8   0 -11    1.01    0.24
  -7   0 -11   21.37    1.09
  -6   0 -11   19.49    0.99
  -5   0 -11   38.48    1.77
  -4   0 -11   25.46    1.21
  -3   0 -11    0.04    0.11
  -2   0 -11   12.22    0.67
  -1   0 -11   61.42    1.89
   0   0 -11    0.00    0.07
   1   0 -11   61.91    3.00
   2   0 -11   13.65    0.92
   3   0 -11    0.13    0.13
   4   0 -11   27.20    1.70
   5   0 -11   45.01    2.54
   6   0 -11   19.00    1.33
   7   0 -11   22.34    1.47
  10   0 -11   10.24    0.87
  11   0 -11    0.20    0.21
  12   0 -11    3.77    0.58
  13   0 -11    0.35    0.26
 -14   1 -11    5.88    0.86
 -13   1 -11   14.72    0.93
 -12   1 -11    0.52    0.18
 -11   1 -11   19.10    0.79
 -10   1 -11    3.43    0.31
  -9   1 -11   23.80    0.91
  -8   1 -11   39.26    1.62
  -7   1 -11    2.91    0.31
  -6   1 -11    1.37    0.22
  -5   1 -11    0.94    0.18
  -4   1 -11    6.23    0.42
  -3   1 -11   76.02    2.85
  -2   1 -11   33.00    1.32
  -1   1 -11    5.45    0.53
   0   1 -11    4.06    0.45
   1   1 -11    5.00    0.50
   2   1 -11   31.23    1.87
   3   1 -11   79.79    4.08
   4   1 -11    6.69    0.68
   5   1 -11    0.62    0.25
   6   1 -11    1.16    0.31
   7   1 -11    2.33    0.43
   8   1 -11   40.35    2.36
   9   1 -11   22.59    1.57
  10   1 -11    2.92    0.54
  11   1 -11   19.20    1.40
  12   1 -11    1.31    0.41
  13   1 -11   16.58    1.29
 -13   2 -11    0.16    0.30
 -12   2 -11    2.93    0.39
 -11   2 -11    0.09    0.17
 -10   2 -11    9.01    0.67
  -9   2 -11   26.77    1.20
  -8   2 -11    1.07    0.23
  -7   2 -11   16.53    0.87
  -6   2 -11   15.53    0.81
  -5   2 -11   32.49    1.38
  -4   2 -11   20.23    0.96
  -3   2 -11    0.44    0.16
  -2   2 -11    9.34    0.73
  -1   2 -11   44.39    2.32
   0   2 -11   -0.12    0.12
   1   2 -11   43.77    2.29
   2   2 -11    9.01    0.70
   3   2 -11    0.06    0.23
   4   2 -11   16.85    1.40
   5   2 -11   30.01    2.07
   6   2 -11   13.90    1.28
   7   2 -11   18.29    1.48
   8   2 -11    1.14    0.46
   9   2 -11   26.22    1.92
  10   2 -11    9.43    1.15
  11   2 -11   -0.18    0.31
  12   2 -11    2.60    0.64
 -10   3 -11    2.65    0.53
  -9   3 -11   15.84    0.88
  -8   3 -11   28.24    1.30
  -7   3 -11    1.50    0.27
  -6   3 -11    0.32    0.17
  -5   3 -11    0.59    0.20
  -4   3 -11    4.56    0.44
  -3   3 -11   44.68    2.66
  -2   3 -11   20.95    1.38
  -1   3 -11    4.19    0.55
   0   3 -11    2.97    0.47
   1   3 -11    5.58    0.60
   2   3 -11   20.58    1.35
   3   3 -11   50.14    2.65
   4   3 -11    4.47    0.55
   6   3 -11    1.33    0.47
   7   3 -11    1.90    0.58
   8   3 -11   23.46    2.01
  10   3 -11    1.40    0.68
  -4   4 -11   13.09    0.78
  -3   4 -11    0.36    0.28
  -2   4 -11    4.07    0.62
  -1   4 -11   19.29    1.44
   0   4 -11    0.09    0.24
   1   4 -11   21.62    1.47
   2   4 -11    4.49    0.61
   3   4 -11    0.50    0.27
   4   4 -11   12.20    0.99
  -6  -4 -10    8.34    1.02
  -5  -4 -10   -0.01    0.26
  -4  -4 -10    6.78    0.86
  -3  -4 -10   10.03    0.97
  -2  -4 -10    0.29    0.20
  -1  -4 -10   88.67    3.58
   0  -4 -10   10.83    1.08
   1  -4 -10   92.33    5.17
   2  -4 -10   -0.11    0.25
   3  -4 -10    8.39    1.05
   4  -4 -10    5.97    0.83
   5  -4 -10    0.14    0.28
   6  -4 -10    7.92    1.02
   7  -4 -10   11.32    1.15
 -11  -3 -10    0.26    0.30
 -10  -3 -10    4.95    0.76
  -9  -3 -10   13.66    1.22
  -8  -3 -10    2.22    0.50
  -7  -3 -10   35.36    2.23
  -6  -3 -10    1.62    0.45
  -5  -3 -10   65.86    3.79
  -4  -3 -10    2.04    0.48
  -3  -3 -10   92.42    5.06
  -2  -3 -10    6.73    0.78
  -1  -3 -10    4.49    0.62
   0  -3 -10    0.00    0.14
   1  -3 -10    4.55    0.44
   2  -3 -10    5.74    0.75
   3  -3 -10   93.17    5.15
   4  -3 -10    2.04    0.45
   5  -3 -10   56.08    3.77
   6  -3 -10    1.75    0.44
   7  -3 -10   29.24    2.15
   8  -3 -10    2.02    0.48
   9  -3 -10   13.67    1.21
  10  -3 -10    4.00    0.67
  11  -3 -10    0.14    0.29
 -13  -2 -10   31.24    1.49
 -12  -2 -10    0.34    0.22
 -11  -2 -10   33.32    1.53
 -10  -2 -10   25.73    1.24
  -9  -2 -10   55.15    2.17
  -8  -2 -10    7.49    0.62
  -7  -2 -10   22.80    1.09
  -6  -2 -10   19.73    0.99
  -5  -2 -10   -0.19    0.21
  -4  -2 -10   13.72    1.18
  -3  -2 -10   15.25    1.32
  -2  -2 -10    0.70    0.31
  -1  -2 -10  142.83    8.33
   0  -2 -10   20.40    1.45
   1  -2 -10  144.36    8.24
   2  -2 -10    0.03    0.13
   3  -2 -10   17.31    1.28
   4  -2 -10   14.89    1.10
   5  -2 -10    0.09    0.18
   6  -2 -10   17.75    1.34
   7  -2 -10   17.02    1.44
   8  -2 -10    7.57    0.85
   9  -2 -10   46.30    3.01
  10  -2 -10   26.43    1.74
  11  -2 -10   32.18    2.14
  12  -2 -10    0.03    0.23
  13  -2 -10   30.04    2.11
 -15  -1 -10    6.26    0.87
 -14  -1 -10    8.44    0.72
 -13  -1 -10   38.82    1.75
 -12  -1 -10   14.47    0.86
 -11  -1 -10    0.58    0.22
 -10  -1 -10    8.15    0.68
  -9  -1 -10   21.54    1.09
  -8  -1 -10    4.08    0.47
  -7  -1 -10   40.50    1.94
  -6  -1 -10    1.97    0.32
  -5  -1 -10   99.39    3.91
  -4  -1 -10    4.18    0.43
  -3  -1 -10  141.19    5.36
  -2  -1 -10    8.71    0.58
  -1  -1 -10    6.67    0.50
   0  -1 -10    0.10    0.22
   1  -1 -10    7.51    0.70
   2  -1 -10    9.93    0.79
   3  -1 -10  139.59    5.36
   4  -1 -10    4.04    0.54
   5  -1 -10   94.72    5.55
   6  -1 -10    2.68    0.42
   7  -1 -10   42.60    2.70
   8  -1 -10    2.42    0.45
   9  -1 -10   19.76    1.40
  10  -1 -10    6.02    0.75
  11  -1 -10    0.47    0.26
  12  -1 -10   12.00    1.09
  13  -1 -10   29.65    2.30
  14  -1 -10   10.15    0.95
 -15   0 -10    1.51    0.54
 -14   0 -10    0.24    0.21
 -13   0 -10   36.38    1.74
 -12   0 -10    0.65    0.23
 -11   0 -10   32.38    1.58
 -10   0 -10   26.22    1.35
  -9   0 -10   51.20    2.37
  -8   0 -10    9.66    0.65
  -7   0 -10   23.71    1.21
  -6   0 -10   26.72    0.93
  -5   0 -10    0.01    0.09
  -4   0 -10   17.33    0.66
  -3   0 -10   19.93    0.76
  -2   0 -10    0.55    0.13
  -1   0 -10  196.58    7.09
   0   0 -10   30.21    1.18
   4   0 -10   18.90    1.21
   5   0 -10    0.12    0.17
   6   0 -10   24.85    1.63
   8   0 -10    9.32    0.80
   9   0 -10   56.37    3.31
  11   0 -10   34.65    2.10
  12   0 -10    0.43    0.26
  13   0 -10   37.80    2.32
  14   0 -10    1.01    0.38
 -15   1 -10    4.00    0.72
 -14   1 -10    9.43    0.55
 -13   1 -10   36.24    1.32
 -12   1 -10   13.49    0.63
 -11   1 -10    0.19    0.13
 -10   1 -10    7.99    0.46
  -9   1 -10   18.46    0.91
  -8   1 -10    3.69    0.35
  -7   1 -10   45.33    1.76
  -6   1 -10    2.35    0.28
  -5   1 -10   96.48    3.57
  -4   1 -10    3.52    0.32
  -3   1 -10  132.16    4.90
  -2   1 -10    8.86    0.48
  -1   1 -10    7.50    0.56
   0   1 -10    0.07    0.12
   1   1 -10    6.69    0.61
   2   1 -10    7.67    0.71
   3   1 -10  140.52    7.06
   4   1 -10    3.17    0.50
   5   1 -10  103.03    5.19
   6   1 -10    2.29    0.44
   7   1 -10   43.90    2.61
   8   1 -10    3.55    0.58
   9   1 -10   16.29    1.36
  10   1 -10    7.24    0.90
  11   1 -10    0.56    0.34
  12   1 -10   15.65    1.28
  13   1 -10   36.70    2.42
  14   1 -10    9.39    1.14
 -14   2 -10    0.13    0.30
 -13   2 -10   31.24    1.16
 -12   2 -10    0.33    0.19
 -11   2 -10   31.71    1.40
 -10   2 -10   22.35    1.09
  -9   2 -10   47.33    1.93
  -8   2 -10    7.06    0.54
  -7   2 -10   19.84    0.97
  -6   2 -10   18.22    0.87
  -5   2 -10    0.25    0.14
  -4   2 -10   12.36    0.66
  -3   2 -10   16.78    1.07
  -2   2 -10    0.07    0.14
  -1   2 -10  156.51    7.30
   0   2 -10   20.66    1.26
   1   2 -10  157.33    7.28
   2   2 -10    0.58    0.22
   3   2 -10   16.36    1.15
   4   2 -10   11.87    1.01
   5   2 -10   -0.15    0.22
   6   2 -10   18.31    1.43
   7   2 -10   19.85    1.62
   8   2 -10    8.03    1.07
   9   2 -10   42.72    3.00
  10   2 -10   17.42    1.70
  11   2 -10   27.51    2.16
  12   2 -10   -0.32    0.30
  13   2 -10   24.24    2.07
 -11   3 -10    0.10    0.18
 -10   3 -10    5.08    0.48
  -9   3 -10   12.95    0.76
  -8   3 -10    2.07    0.31
  -7   3 -10   31.14    1.40
  -6   3 -10    1.41    0.26
  -5   3 -10   60.64    2.44
  -4   3 -10    2.54    0.42
  -3   3 -10   83.40    4.42
  -2   3 -10    4.59    0.58
  -1   3 -10    3.61    0.51
   0   3 -10    0.26    0.19
   1   3 -10    3.56    0.50
   2   3 -10    4.22    0.55
   3   3 -10   90.28    4.40
   4   3 -10    2.72    0.45
   5   3 -10   65.13    3.48
   6   3 -10    1.79    0.42
   7   3 -10   34.81    2.11
   8   3 -10    2.75    0.58
   9   3 -10   14.65    1.31
  10   3 -10    4.59    0.84
  11   3 -10    0.70    0.46
  -7   4 -10   12.61    1.13
  -6   4 -10    9.66    0.71
  -5   4 -10    0.12    0.18
  -4   4 -10    5.98    0.74
  -3   4 -10    9.73    0.96
  -2   4 -10   -0.02    0.20
  -1   4 -10   81.43    4.42
   0   4 -10   10.39    0.90
   1   4 -10   81.60    4.42
   2   4 -10    0.07    0.22
   3   4 -10   10.43    0.85
   4   4 -10    6.43    0.73
   5   4 -10    0.07    0.21
   6   4 -10    8.33    0.85
   7   4 -10   13.94    1.15
   8   4 -10    5.24    0.81
  -8  -4  -9   16.00    1.30
  -7  -4  -9    0.53    0.31
  -6  -4  -9   22.98    1.70
  -5  -4  -9    4.17    0.62
  -4  -4  -9   21.49    1.52
  -3  -4  -9   -0.25    0.15
  -2  -4  -9    8.06    0.60
  -1  -4  -9    2.30    0.32
   0  -4  -9    0.09    0.17
   1  -4  -9    2.05    0.48
   2  -4  -9    8.10    0.92
   3  -4  -9    0.11    0.26
   4  -4  -9   19.89    1.55
   5  -4  -9    2.95    0.59
   6  -4  -9   22.00    1.75
   7  -4  -9    0.21    0.28
   8  -4  -9   15.09    1.34
 -13  -3  -9   12.21    1.10
 -12  -3  -9   42.50    1.84
 -11  -3  -9    0.66    0.23
 -10  -3  -9    0.68    0.31
  -9  -3  -9    6.04    0.74
  -8  -3  -9    8.40    0.83
  -7  -3  -9    1.38    0.37
  -6  -3  -9   18.28    1.30
  -5  -3  -9    9.01    0.77
  -4  -3  -9    0.26    0.22
  -3  -3  -9    0.06    0.21
  -2  -3  -9   10.48    0.87
  -1  -3  -9    0.60    0.26
   0  -3  -9   31.92    1.38
   1  -3  -9    0.90    0.20
   2  -3  -9    9.49    0.91
   3  -3  -9    0.16    0.20
   4  -3  -9    0.84    0.30
   5  -3  -9    5.77    0.76
   6  -3  -9   17.03    1.31
   7  -3  -9    0.82    0.32
   8  -3  -9    9.13    0.88
   9  -3  -9    5.90    0.77
  10  -3  -9    0.67    0.32
  11  -3  -9    0.88    0.36
  12  -3  -9   39.86    2.66
 -14  -2  -9    2.04    0.33
 -13  -2  -9    0.59    0.21
 -12  -2  -9    0.82    0.23
 -11  -2  -9    2.35    0.32
 -10  -2  -9    6.11    0.52
  -9  -2  -9    8.93    0.58
  -8  -2  -9   24.33    1.15
  -7  -2  -9    1.56    0.24
  -6  -2  -9   40.89    1.63
  -5  -2  -9    7.33    0.50
  -4  -2  -9   35.58    1.47
  -3  -2  -9    0.37    0.23
  -2  -2  -9   19.18    1.34
  -1  -2  -9    3.86    0.52
   0  -2  -9    0.16    0.17
   1  -2  -9    3.68    0.48
   2  -2  -9   19.24    0.91
   3  -2  -9    0.22    0.20
   4  -2  -9   32.31    2.15
   5  -2  -9    6.66    0.66
   6  -2  -9   35.60    2.34
   7  -2  -9    1.06    0.31
   8  -2  -9   23.28    1.66
   9  -2  -9   10.50    0.88
  10  -2  -9    4.94    0.69
  11  -2  -9    1.65    0.42
  12  -2  -9    0.82    0.32
  13  -2  -9    0.87    0.33
  14  -2  -9    2.62    0.54
 -16  -1  -9   13.63    1.18
 -15  -1  -9    1.04    0.25
 -14  -1  -9   23.47    1.23
 -13  -1  -9   17.82    0.94
 -12  -1  -9   53.02    2.20
 -11  -1  -9    1.04    0.24
 -10  -1  -9    0.41    0.18
  -9  -1  -9    8.82    0.62
  -8  -1  -9   12.44    0.74
  -7  -1  -9    2.33    0.31
  -6  -1  -9   30.22    1.37
  -5  -1  -9   11.73    0.72
  -4  -1  -9    0.80    0.21
  -3  -1  -9    0.16    0.14
  -2  -1  -9   14.97    0.81
  -1  -1  -9    1.14    0.24
   0  -1  -9   40.30    1.79
   1  -1  -9    0.73    0.18
   2  -1  -9   11.92    1.04
   3  -1  -9    0.19    0.13
   4  -1  -9    1.22    0.29
   5  -1  -9   10.59    0.88
   6  -1  -9   25.98    1.82
   7  -1  -9    1.73    0.36
   8  -1  -9   11.57    0.97
   9  -1  -9    8.59    0.77
  10  -1  -9    0.27    0.21
  11  -1  -9    1.84    0.38
  12  -1  -9   47.63    3.08
  13  -1  -9   18.18    1.33
  14  -1  -9   29.89    1.86
  15  -1  -9    0.61    0.23
 -15   0  -9    1.42    0.29
 -14   0  -9    3.69    0.43
 -13   0  -9    0.39    0.20
 -12   0  -9    1.05    0.25
 -11   0  -9    3.33    0.40
 -10   0  -9    8.45    0.43
  -9   0  -9   11.01    0.53
  -8   0  -9   29.49    1.02
  -7   0  -9    0.92    0.15
  -6   0  -9   44.76    1.44
  -5   0  -9   10.02    0.44
  -4   0  -9   40.76    1.37
  -3   0  -9    0.31    0.11
  -2   0  -9   24.85    1.07
  -1   0  -9    4.85    0.31
   0   0  -9    0.04    0.07
   4   0  -9   46.45    2.53
   5   0  -9   10.38    0.77
   6   0  -9   41.07    2.58
   7   0  -9    0.82    0.23
   9   0  -9   12.31    0.91
  10   0  -9    7.49    0.68
  11   0  -9    3.39    0.55
  12   0  -9    1.34    0.38
  13   0  -9    0.53    0.33
  14   0  -9    3.85    0.67
  15   0  -9    1.47    0.47
 -16   1  -9   13.60    1.04
 -15   1  -9    0.98    0.23
 -14   1  -9   25.72    0.99
 -13   1  -9   17.61    0.74
 -12   1  -9   50.04    1.69
 -11   1  -9    1.23    0.19
 -10   1  -9    0.58    0.14
  -9   1  -9    8.63    0.51
  -8   1  -9   13.74    0.66
  -7   1  -9    1.91    0.24
  -6   1  -9   28.74    1.21
  -5   1  -9   11.80    0.58
  -4   1  -9    0.79    0.16
  -3   1  -9    0.07    0.10
  -2   1  -9   14.16    0.90
  -1   1  -9    0.69    0.14
   0   1  -9   41.79    1.60
   1   1  -9    0.67    0.27
   2   1  -9   12.42    1.05
   3   1  -9    0.03    0.22
   4   1  -9    1.10    0.36
   5   1  -9   10.62    0.96
   6   1  -9   29.43    1.92
   7   1  -9    2.42    0.53
   8   1  -9   11.70    1.10
   9   1  -9    8.63    1.03
  10   1  -9    0.53    0.33
  11   1  -9    0.77    0.37
  12   1  -9   48.61    3.08
  13   1  -9   15.85    1.38
  14   1  -9   22.76    1.80
  15   1  -9    0.12    0.34
 -14   2  -9    2.62    0.33
 -13   2  -9    0.57    0.19
 -12   2  -9    1.55    0.25
 -11   2  -9    2.69    0.32
 -10   2  -9    6.48    0.50
  -9   2  -9    9.06    0.56
  -8   2  -9   24.60    1.08
  -7   2  -9    0.89    0.19
  -6   2  -9   35.54    1.50
  -5   2  -9    6.55    0.46
  -4   2  -9   34.75    1.40
  -3   2  -9    0.07    0.15
  -2   2  -9   17.03    1.14
  -1   2  -9    3.16    0.43
   0   2  -9    0.13    0.14
   1   2  -9    4.10    0.32
   2   2  -9   19.94    1.17
   3   2  -9    0.16    0.15
   4   2  -9   35.70    2.00
   5   2  -9    6.59    0.74
   6   2  -9   37.69    2.26
   7   2  -9    0.88    0.36
   8   2  -9   24.84    1.71
   9   2  -9    8.98    1.04
  10   2  -9    6.19    0.86
  11   2  -9    2.30    0.54
  12   2  -9    1.02    0.44
  13   2  -9    0.59    0.38
  14   2  -9    1.10    0.48
 -12   3  -9   39.70    1.70
 -11   3  -9    0.60    0.21
 -10   3  -9    0.77    0.21
  -9   3  -9    4.58    0.44
  -8   3  -9    7.95    0.56
  -7   3  -9    1.27    0.23
  -6   3  -9   16.36    0.84
  -5   3  -9    6.58    0.52
  -4   3  -9    0.99    0.28
  -3   3  -9    0.25    0.19
  -2   3  -9    9.29    0.78
  -1   3  -9    0.58    0.24
   0   3  -9   26.21    1.68
   1   3  -9    0.66    0.24
   2   3  -9   10.50    0.79
   3   3  -9    0.22    0.17
   4   3  -9    0.95    0.28
   5   3  -9    6.72    0.70
   6   3  -9   17.43    1.19
   7   3  -9    1.21    0.35
   8   3  -9    9.87    0.88
   9   3  -9    6.36    0.81
  10   3  -9    0.75    0.36
  11   3  -9    0.12    0.32
  12   3  -9   40.67    2.62
  -9   4  -9    5.34    0.78
  -8   4  -9   16.71    0.87
  -7   4  -9    0.47    0.20
  -6   4  -9   26.19    1.18
  -5   4  -9    3.62    0.41
  -4   4  -9   23.11    1.44
  -3   4  -9   -0.03    0.18
  -2   4  -9    8.00    0.83
  -1   4  -9    1.75    0.39
   0   4  -9   -0.16    0.18
   1   4  -9    1.38    0.39
   2   4  -9    7.59    0.79
   3   4  -9   -0.07    0.19
   4   4  -9   18.51    1.33
   5   4  -9    3.31    0.37
   6   4  -9   23.83    1.60
   7   4  -9    0.85    0.34
   8   4  -9   16.51    1.28
   9   4  -9    5.16    0.78
  -3  -5  -8   32.28    2.14
  -2  -5  -8    2.81    0.54
  -1  -5  -8    5.39    0.73
   3  -5  -8   31.53    2.13
   4  -5  -8    6.95    0.87
  -9  -4  -8    2.52    0.49
  -8  -4  -8    0.17    0.22
  -7  -4  -8    3.06    0.52
  -6  -4  -8    0.59    0.26
  -5  -4  -8   26.66    1.79
  -4  -4  -8    8.32    0.75
  -3  -4  -8    1.08    0.24
  -2  -4  -8    0.23    0.16
  -1  -4  -8   11.67    0.69
   0  -4  -8   14.01    0.77
   1  -4  -8   11.65    0.67
   2  -4  -8    0.17    0.21
   3  -4  -8    1.83    0.42
   4  -4  -8    6.40    0.82
   5  -4  -8   27.35    1.87
   6  -4  -8    0.12    0.23
   7  -4  -8    3.34    0.57
   8  -4  -8    0.12    0.25
   9  -4  -8    3.72    0.61
 -13  -3  -8   22.92    1.12
 -12  -3  -8    2.54    0.34
 -11  -3  -8   25.76    1.21
 -10  -3  -8   13.17    0.75
  -9  -3  -8   32.33    1.47
  -8  -3  -8   10.23    0.61
  -7  -3  -8   25.71    1.58
  -6  -3  -8    0.95    0.29
  -5  -3  -8    1.49    0.34
  -4  -3  -8    9.50    0.84
  -3  -3  -8   67.34    3.65
  -2  -3  -8    4.35    0.55
  -1  -3  -8   14.94    1.07
   0  -3  -8    0.05    0.11
   1  -3  -8   14.95    0.78
   2  -3  -8    4.56    0.37
   3  -3  -8   60.87    3.75
   4  -3  -8   11.51    0.93
   5  -3  -8    1.50    0.35
   6  -3  -8    0.84    0.30
   7  -3  -8   21.87    1.59
   8  -3  -8    9.39    0.89
   9  -3  -8   33.19    2.19
  10  -3  -8   14.76    1.16
  11  -3  -8   26.60    1.80
  12  -3  -8    2.62    0.52
  13  -3  -8   21.56    1.64
 -15  -2  -8   33.12    1.52
 -14  -2  -8    9.96    0.64
 -13  -2  -8   28.48    1.36
 -12  -2  -8    3.81    0.38
 -11  -2  -8   20.53    1.02
 -10  -2  -8    4.97    0.42
  -9  -2  -8    4.63    0.40
  -8  -2  -8    0.24    0.13
  -7  -2  -8    5.12    0.40
  -6  -2  -8    0.92    0.17
  -5  -2  -8   59.19    2.21
  -4  -2  -8   13.95    0.68
  -3  -2  -8    1.41    0.19
  -2  -2  -8    0.04    0.15
  -1  -2  -8   21.14    1.29
   0  -2  -8   25.04    1.57
   1  -2  -8   19.15    1.22
   2  -2  -8    0.01    0.09
   3  -2  -8    0.97    0.17
   4  -2  -8   13.37    1.04
   5  -2  -8   49.47    3.22
   6  -2  -8    0.98    0.28
   7  -2  -8    5.72    0.67
   8  -2  -8    0.53    0.23
   9  -2  -8    4.08    0.56
  10  -2  -8    4.19    0.58
  11  -2  -8   18.54    1.45
  12  -2  -8    3.20    0.53
  13  -2  -8   29.37    2.01
  14  -2  -8   11.88    1.03
  15  -2  -8   35.10    2.28
 -16  -1  -8    0.66    0.29
 -15  -1  -8    1.83    0.29
 -14  -1  -8    4.21    0.42
 -13  -1  -8   31.57    1.39
 -12  -1  -8    3.04    0.35
 -11  -1  -8   37.93    1.62
 -10  -1  -8   20.96    1.01
  -9  -1  -8   51.87    2.06
  -8  -1  -8   15.34    0.79
  -7  -1  -8   37.18    1.59
  -6  -1  -8    2.71    0.31
  -5  -1  -8    4.79    0.38
  -4  -1  -8   16.45    0.82
  -3  -1  -8  116.58    4.19
  -2  -1  -8    5.95    0.42
  -1  -1  -8   37.80    1.60
   0  -1  -8    0.09    0.13
   1  -1  -8   36.75    1.57
   2  -1  -8    5.09    0.35
   3  -1  -8  102.85    4.19
   4  -1  -8   16.01    0.77
   5  -1  -8    4.83    0.55
   6  -1  -8    3.36    0.45
   7  -1  -8   31.58    2.20
   8  -1  -8   17.56    1.14
   9  -1  -8   44.31    2.89
  10  -1  -8   23.67    1.45
  11  -1  -8   36.12    2.28
  12  -1  -8    3.31    0.49
  13  -1  -8   30.78    2.00
  14  -1  -8    4.95    0.67
  15  -1  -8    1.92    0.33
  16  -1  -8    0.81    0.26
 -16   0  -8    5.01    0.66
 -15   0  -8   39.91    1.72
 -14   0  -8   13.19    0.76
 -13   0  -8   37.14    1.26
 -12   0  -8    4.44    0.32
 -11   0  -8   25.78    0.96
 -10   0  -8    5.43    0.33
  -9   0  -8    3.21    0.26
  -8   0  -8    0.60    0.12
  -7   0  -8    7.38    0.35
  -6   0  -8    1.74    0.17
  -5   0  -8   83.60    2.83
  -4   0  -8   19.53    0.79
  -3   0  -8    0.98    0.15
  -2   0  -8    0.41    0.11
  -1   0  -8   24.09    0.99
   4   0  -8   18.15    1.20
   5   0  -8   67.77    4.34
   6   0  -8    1.21    0.26
   7   0  -8    5.61    0.57
   8   0  -8    0.47    0.18
   9   0  -8    3.76    0.45
  10   0  -8    4.03    0.51
  11   0  -8   30.62    1.27
  12   0  -8    3.57    0.40
  13   0  -8   36.43    2.33
  14   0  -8   10.05    1.18
  15   0  -8   34.97    2.40
  16   0  -8    2.82    0.62
 -16   1  -8    0.95    0.22
 -15   1  -8    1.41    0.26
 -14   1  -8    4.20    0.34
 -13   1  -8   29.08    1.09
 -12   1  -8    2.96    0.27
 -11   1  -8   34.90    1.25
 -10   1  -8   20.77    0.92
  -9   1  -8   51.28    1.90
  -8   1  -8   14.37    0.71
  -7   1  -8   38.57    1.46
  -6   1  -8    2.94    0.28
  -5   1  -8    4.31    0.34
  -4   1  -8   16.36    0.74
  -3   1  -8  102.99    3.85
  -2   1  -8    4.95    0.44
  -1   1  -8   37.12    1.40
   0   1  -8    0.16    0.10
   1   1  -8   37.38    2.13
   2   1  -8    5.02    0.62
   3   1  -8  100.23    5.64
   4   1  -8   15.49    0.78
   5   1  -8    4.85    0.68
   6   1  -8    3.47    0.57
   7   1  -8   28.49    2.17
   8   1  -8   14.05    1.17
   9   1  -8   43.66    2.85
  10   1  -8   17.17    1.44
  11   1  -8   30.11    2.24
  12   1  -8    3.09    0.58
  13   1  -8   24.58    1.94
  14   1  -8    3.68    0.66
  15   1  -8    0.72    0.40
  16   1  -8    0.63    0.37
 -15   2  -8   32.18    1.43
 -14   2  -8   10.33    0.61
 -13   2  -8   28.86    1.28
 -12   2  -8    4.32    0.39
 -11   2  -8   20.51    0.96
 -10   2  -8    4.13    0.37
  -9   2  -8    4.08    0.36
  -8   2  -8    0.40    0.14
  -7   2  -8    6.18    0.42
  -6   2  -8    1.23    0.18
  -5   2  -8   54.05    2.10
  -4   2  -8   14.88    0.92
  -3   2  -8    1.24    0.26
  -2   2  -8   -0.06    0.13
  -1   2  -8   18.84    1.15
   0   2  -8   24.50    0.99
   1   2  -8   19.87    1.11
   2   2  -8    0.30    0.14
   3   2  -8    0.93    0.23
   4   2  -8   15.29    0.95
   5   2  -8   54.93    2.98
   6   2  -8    1.13    0.30
   7   2  -8    5.77    0.68
   8   2  -8    0.75    0.29
   9   2  -8    4.05    0.59
  10   2  -8    3.34    0.58
  11   2  -8   20.78    1.51
  12   2  -8    3.43    0.60
  13   2  -8   31.66    2.03
  14   2  -8   10.66    1.12
  15   2  -8   34.65    2.24
 -14   3  -8    4.13    0.61
 -13   3  -8   22.63    1.04
 -12   3  -8    2.18    0.30
 -11   3  -8   24.23    1.13
 -10   3  -8   14.23    0.74
  -9   3  -8   34.31    1.41
  -8   3  -8    9.23    0.60
  -7   3  -8   22.91    1.03
  -6   3  -8    0.57    0.16
  -5   3  -8    1.35    0.23
  -4   3  -8   11.07    0.81
  -3   3  -8   66.42    3.30
  -2   3  -8    5.05    0.57
  -1   3  -8   14.69    1.03
   0   3  -8    0.05    0.15
   1   3  -8   16.23    0.70
   2   3  -8    4.85    0.34
   3   3  -8   67.98    3.35
   4   3  -8   11.75    0.79
   5   3  -8    1.59    0.31
   6   3  -8    1.40    0.31
   7   3  -8   21.44    1.43
   8   3  -8   10.68    0.87
   9   3  -8   38.00    2.10
  10   3  -8   12.85    1.07
  11   3  -8   24.42    1.70
  12   3  -8    1.60    0.46
  13   3  -8   22.52    1.63
  -9   4  -8    2.50    0.34
  -8   4  -8    0.47    0.19
  -7   4  -8    2.93    0.35
  -6   4  -8    0.57    0.20
  -5   4  -8   27.73    1.23
  -4   4  -8    7.29    0.76
  -3   4  -8    0.84    0.29
  -2   4  -8    0.18    0.20
  -1   4  -8   11.83    0.91
   0   4  -8   12.08    0.98
   1   4  -8   10.19    0.89
   2   4  -8    0.12    0.21
   3   4  -8    1.15    0.21
   4   4  -8    7.10    0.48
   5   4  -8   27.04    1.17
   6   4  -8    0.34    0.24
   7   4  -8    2.93    0.49
   8   4  -8    0.22    0.25
   9   4  -8    3.16    0.55
  10   4  -8    3.56    0.61
  -2   5  -8    1.81    0.44
  -1   5  -8    4.62    0.66
   0   5  -8    0.26    0.28
   1   5  -8    4.33    0.67
   2   5  -8    2.62    0.52
   3   5  -8   27.98    1.91
  -4  -5  -7    0.07    0.23
  -3  -5  -7   25.75    1.71
  -2  -5  -7    6.57    0.79
  -1  -5  -7   53.17    3.16
   0  -5  -7    6.65    0.79
   4  -5  -7   -0.03    0.24
   5  -5  -7    1.11    0.40
   6  -5  -7    6.89    0.83
 -10  -4  -7    8.89    0.82
  -9  -4  -7    6.05    0.74
  -8  -4  -7    0.13    0.20
  -7  -4  -7   38.59    2.34
  -6  -4  -7    5.60    0.67
  -5  -4  -7   85.95    4.87
  -4  -4  -7   23.18    1.54
  -3  -4  -7   51.01    2.89
  -2  -4  -7    0.21    0.15
  -1  -4  -7    5.05    0.44
   0  -4  -7    0.01    0.13
   1  -4  -7    5.06    0.43
   2  -4  -7    0.09    0.14
   3  -4  -7   51.36    2.98
   4  -4  -7   25.72    1.64
   5  -4  -7   91.50    5.01
   6  -4  -7    5.54    0.70
   7  -4  -7   39.78    2.41
   8  -4  -7    0.29    0.25
   9  -4  -7    6.39    0.78
  10  -4  -7    8.81    0.86
 -14  -3  -7    1.46    0.26
 -13  -3  -7    8.17    0.59
 -12  -3  -7    8.17    0.55
 -11  -3  -7   23.19    1.16
 -10  -3  -7    0.60    0.17
  -9  -3  -7   46.11    1.94
  -8  -3  -7   45.67    1.81
  -7  -3  -7   56.32    2.33
  -6  -3  -7   15.53    0.75
  -5  -3  -7    2.31    0.38
  -4  -3  -7    0.01    0.13
  -3  -3  -7   48.10    2.77
  -2  -3  -7   13.56    0.93
  -1  -3  -7  105.14    5.87
   0  -3  -7   12.89    0.68
   1  -3  -7  107.46    4.22
   2  -3  -7   12.85    0.67
   3  -3  -7   48.75    1.96
   4  -3  -7    0.06    0.16
   5  -3  -7    2.75    0.44
   6  -3  -7   15.83    1.15
   7  -3  -7   62.83    3.49
   8  -3  -7   44.79    2.67
   9  -3  -7   49.76    2.89
  10  -3  -7    1.04    0.32
  11  -3  -7   24.57    1.75
  12  -3  -7   11.40    0.92
 -15  -2  -7   15.52    0.83
 -14  -2  -7   -0.03    0.13
 -13  -2  -7    5.45    0.46
 -12  -2  -7    6.90    0.46
 -11  -2  -7   12.02    0.68
 -10  -2  -7   13.42    0.72
  -9  -2  -7    9.79    0.55
  -8  -2  -7    0.42    0.13
  -7  -2  -7   68.99    2.61
  -6  -2  -7   10.67    0.55
  -5  -2  -7  163.17    6.26
  -4  -2  -7   47.46    1.91
  -3  -2  -7  103.76    4.03
  -2  -2  -7    0.06    0.08
  -1  -2  -7    9.35    0.70
   0  -2  -7   -0.06    0.10
   1  -2  -7    9.86    0.69
   2  -2  -7   -0.07    0.08
   3  -2  -7  105.43    4.13
   4  -2  -7   49.06    1.94
   5  -2  -7  169.56    9.19
   6  -2  -7    9.93    0.81
   7  -2  -7   67.90    3.84
   8  -2  -7    0.59    0.23
   9  -2  -7   12.30    0.87
  10  -2  -7   15.90    1.10
  11  -2  -7   16.28    1.09
  12  -2  -7    8.16    0.73
  13  -2  -7    6.14    0.72
  14  -2  -7   -0.26    0.18
  15  -2  -7   15.83    1.27
 -16  -1  -7    0.22    0.21
 -15  -1  -7    9.46    0.58
 -14  -1  -7    1.82    0.26
 -13  -1  -7    9.69    0.61
 -12  -1  -7   12.17    0.68
 -11  -1  -7   36.56    1.52
 -10  -1  -7    1.32    0.21
  -9  -1  -7   72.89    2.94
  -8  -1  -7   76.76    2.93
  -7  -1  -7  111.39    4.05
  -6  -1  -7   29.20    1.24
  -5  -1  -7    3.63    0.32
  -4  -1  -7    0.36    0.13
  -3  -1  -7   83.78    2.33
  -2  -1  -7   24.42    0.77
  -1  -1  -7  209.51    5.82
   0  -1  -7   25.12    1.05
   1  -1  -7  205.70    7.45
   2  -1  -7   23.44    1.00
   3  -1  -7   75.52    2.44
   4  -1  -7    0.32    0.10
   5  -1  -7    2.85    0.41
   6  -1  -7   25.02    1.75
   7  -1  -7  109.71    5.86
   8  -1  -7   72.52    4.22
   9  -1  -7   78.05    4.26
  10  -1  -7    1.12    0.27
  11  -1  -7   37.32    2.19
  12  -1  -7   12.25    0.97
  13  -1  -7   14.38    1.00
  14  -1  -7    1.72    0.38
  15  -1  -7    9.16    0.66
  16  -1  -7    0.19    0.19
  17  -1  -7    0.71    0.26
 -17   0  -7    8.77    0.83
 -16   0  -7   20.71    1.38
 -15   0  -7   18.54    1.30
 -14   0  -7    0.10    0.11
 -13   0  -7    6.84    0.37
 -12   0  -7   10.14    0.45
 -11   0  -7   18.52    0.70
 -10   0  -7   18.56    0.69
  -9   0  -7   12.62    0.52
  -8   0  -7    0.63    0.12
  -7   0  -7   90.42    3.10
  -6   0  -7   12.48    0.50
  -5   0  -7  224.36    7.81
  -4   0  -7   68.58    2.45
  -3   0  -7  159.39    5.40
  -2   0  -7    0.08    0.08
  -1   0  -7   12.43    0.56
   4   0  -7   68.66    3.81
   5   0  -7  223.51   12.15
   6   0  -7   14.52    0.90
   7   0  -7   91.12    4.81
   8   0  -7    0.44    0.17
   9   0  -7   15.14    0.94
  10   0  -7   20.35    1.25
  11   0  -7   20.08    0.93
  12   0  -7    9.58    0.61
  13   0  -7    6.03    0.49
  14   0  -7    0.39    0.29
  15   0  -7   15.44    1.33
  16   0  -7   16.56    1.40
  17   0  -7    8.76    1.01
 -17   1  -7    0.58    0.20
 -16   1  -7   -0.14    0.12
 -15   1  -7    9.61    0.56
 -14   1  -7    1.16    0.21
 -13   1  -7   11.35    0.52
 -12   1  -7   14.15    0.57
 -11   1  -7   32.54    1.18
 -10   1  -7    0.97    0.17
  -9   1  -7   78.20    2.74
  -8   1  -7   76.39    2.72
  -7   1  -7  100.44    3.76
  -6   1  -7   29.50    1.16
  -5   1  -7    3.49    0.29
  -4   1  -7    0.38    0.10
  -3   1  -7   74.59    2.81
  -2   1  -7   23.76    0.89
  -1   1  -7  197.72    6.80
   0   1  -7   24.40    1.35
   1   1  -7  197.16    9.92
   2   1  -7   22.18    1.39
   3   1  -7   79.50    4.09
   4   1  -7    1.08    0.14
   5   1  -7    3.86    0.28
   6   1  -7   27.40    1.77
   7   1  -7   99.57    5.50
   8   1  -7   72.14    4.02
   9   1  -7   73.44    4.06
  10   1  -7    0.74    0.31
  11   1  -7   35.52    2.17
  12   1  -7   12.88    1.05
  13   1  -7   11.29    0.98
  14   1  -7    2.05    0.47
  15   1  -7   10.12    1.04
  16   1  -7    0.17    0.27
  17   1  -7    0.29    0.31
 -16   2  -7   14.04    1.16
 -15   2  -7   15.00    0.78
 -14   2  -7    0.08    0.13
 -13   2  -7    5.00    0.41
 -12   2  -7    6.48    0.46
 -11   2  -7   13.44    0.66
 -10   2  -7   13.95    0.68
  -9   2  -7    9.73    0.53
  -8   2  -7    0.27    0.12
  -7   2  -7   65.60    2.47
  -6   2  -7   10.07    0.53
  -5   2  -7  156.59    5.89
  -4   2  -7   49.87    2.46
  -3   2  -7  106.81    5.15
  -2   2  -7   -0.16    0.10
  -1   2  -7    9.32    0.44
   0   2  -7    0.00    0.07
   1   2  -7    9.24    0.61
   2   2  -7    0.18    0.11
   3   2  -7  104.77    5.36
   4   2  -7   51.12    2.57
   5   2  -7  173.75    8.37
   6   2  -7   10.91    0.77
   7   2  -7   65.85    3.52
   8   2  -7    1.12    0.28
   9   2  -7   11.50    0.84
  10   2  -7   13.76    1.05
  11   2  -7   11.90    0.99
  12   2  -7    6.26    0.77
  13   2  -7    5.07    0.69
  14   2  -7    0.23    0.25
  15   2  -7   15.83    1.24
 -13   3  -7    9.14    0.55
 -12   3  -7    8.81    0.54
 -11   3  -7   26.24    1.13
 -10   3  -7    0.72    0.18
  -9   3  -7   47.46    1.85
  -8   3  -7   41.06    1.71
  -7   3  -7   58.80    2.23
  -6   3  -7   14.74    0.74
  -5   3  -7    2.41    0.35
  -4   3  -7    0.07    0.14
  -3   3  -7   49.48    2.51
  -2   3  -7   13.41    0.89
  -1   3  -7  113.97    5.32
   0   3  -7   13.16    0.60
   1   3  -7  104.55    3.78
   2   3  -7   12.32    0.60
   3   3  -7   49.74    2.54
   4   3  -7    0.05    0.12
   5   3  -7    2.43    0.35
   6   3  -7   16.80    1.04
   7   3  -7   59.36    3.14
   8   3  -7   42.18    2.43
   9   3  -7   46.45    2.64
  10   3  -7    0.73    0.28
  11   3  -7   25.98    1.66
  12   3  -7    9.48    0.85
  13   3  -7    9.77    0.88
 -10   4  -7    8.64    0.73
  -9   4  -7    6.97    0.53
  -8   4  -7    0.25    0.16
  -7   4  -7   36.61    1.55
  -6   4  -7    5.95    0.48
  -5   4  -7   86.39    4.32
  -4   4  -7   27.13    1.44
  -3   4  -7   48.89    2.60
  -2   4  -7    0.00    0.18
  -1   4  -7    5.43    0.61
   0   4  -7    0.25    0.21
   1   4  -7    5.59    0.65
   2   4  -7    0.17    0.13
   3   4  -7   47.94    1.87
   4   4  -7   21.59    1.00
   5   4  -7   86.79    4.50
   6   4  -7    6.05    0.64
   7   4  -7   41.19    2.20
   8   4  -7    0.50    0.25
   9   4  -7    5.97    0.71
  10   4  -7    8.84    0.91
  -5   5  -7    1.18    0.33
  -4   5  -7    0.07    0.22
  -3   5  -7   22.24    1.45
  -2   5  -7    6.05    0.70
  -1   5  -7   52.35    2.83
   0   5  -7    6.17    0.73
   1   5  -7   51.89    2.86
   2   5  -7    6.13    0.75
   3   5  -7   24.07    1.61
   4   5  -7   -0.01    0.27
   5   5  -7    1.58    0.27
   6   5  -7    6.90    0.56
  -5  -5  -6   -0.18    0.19
  -4  -5  -6   25.62    1.71
  -3  -5  -6    0.62    0.30
  -2  -5  -6    4.77    0.64
  -1  -5  -6    1.72    0.39
   0  -5  -6    0.11    0.22
   1  -5  -6    0.56    0.28
   6  -5  -6   31.92    2.13
   7  -5  -6   12.92    1.07
 -12  -4  -6   27.47    1.88
 -11  -4  -6   29.18    1.98
 -10  -4  -6   46.99    2.78
  -9  -4  -6    0.25    0.21
  -8  -4  -6    2.94    0.47
  -7  -4  -6    0.01    0.16
  -6  -4  -6    4.49    0.59
  -5  -4  -6   -0.01    0.16
  -4  -4  -6    3.64    0.49
  -3  -4  -6    7.58    0.50
  -2  -4  -6   12.89    0.69
  -1  -4  -6    0.44    0.15
   0  -4  -6  145.84    5.52
   1  -4  -6    0.53    0.16
   2  -4  -6   13.10    0.68
   3  -4  -6    7.80    0.69
   4  -4  -6    3.71    0.52
   5  -4  -6    0.22    0.20
   6  -4  -6    5.35    0.64
   7  -4  -6   -0.05    0.17
   8  -4  -6    3.40    0.52
   9  -4  -6    0.11    0.22
  10  -4  -6   42.88    2.81
  11  -4  -6   31.00    2.07
 -15  -3  -6   27.43    1.81
 -14  -3  -6    7.00    0.55
 -13  -3  -6   -0.07    0.10
 -12  -3  -6    0.40    0.15
 -11  -3  -6    2.71    0.30
 -10  -3  -6    0.92    0.19
  -9  -3  -6    0.04    0.10
  -8  -3  -6   30.79    1.37
  -7  -3  -6   29.40    1.26
  -6  -3  -6   57.77    2.36
  -5  -3  -6    0.08    0.09
  -4  -3  -6   43.93    2.61
  -3  -3  -6    1.79    0.29
  -2  -3  -6    8.75    0.68
  -1  -3  -6    1.58    0.28
   0  -3  -6    0.05    0.10
   1  -3  -6    1.75    0.22
   2  -3  -6    9.13    0.50
   3  -3  -6    1.18    0.17
   4  -3  -6   46.98    2.72
   5  -3  -6    0.21    0.17
   6  -3  -6   58.09    3.49
   7  -3  -6   31.68    1.89
   8  -3  -6   32.24    2.04
   9  -3  -6    0.20    0.19
  10  -3  -6    0.95    0.29
  11  -3  -6    2.89    0.47
  12  -3  -6    0.07    0.20
  13  -3  -6    0.18    0.22
 -16  -2  -6    0.69    0.29
 -15  -2  -6    4.25    0.40
 -14  -2  -6   25.44    1.24
 -13  -2  -6    0.01    0.11
 -12  -2  -6   44.20    1.75
 -11  -2  -6   53.67    2.20
 -10  -2  -6   77.09    3.06
  -9  -2  -6    0.57    0.14
  -8  -2  -6    7.87    0.46
  -7  -2  -6    0.29    0.11
  -6  -2  -6   12.85    0.63
  -5  -2  -6    0.07    0.09
  -4  -2  -6    8.52    0.43
  -3  -2  -6   15.42    0.68
  -2  -2  -6   18.73    0.81
  -1  -2  -6    0.86    0.11
   0  -2  -6  291.77   15.21
   1  -2  -6    0.77    0.17
   2  -2  -6   19.02    0.86
   3  -2  -6   15.69    0.70
   4  -2  -6    8.08    0.42
   5  -2  -6    0.07    0.14
   6  -2  -6   14.06    0.98
   7  -2  -6    0.03    0.12
   8  -2  -6    8.29    0.70
   9  -2  -6    0.84    0.25
  10  -2  -6   81.76    4.49
  11  -2  -6   49.95    3.21
  12  -2  -6   39.95    2.55
  13  -2  -6   -0.01    0.17
  14  -2  -6   27.94    1.88
  15  -2  -6    4.83    0.65
  16  -2  -6    0.47    0.31
 -17  -1  -6    0.10    0.20
 -16  -1  -6    9.09    0.84
 -15  -1  -6   30.60    2.12
 -14  -1  -6   10.25    0.57
 -13  -1  -6    0.09    0.11
 -12  -1  -6    1.11    0.18
 -11  -1  -6    5.09    0.37
 -10  -1  -6    1.24    0.14
  -9  -1  -6    0.06    0.07
  -8  -1  -6   54.13    1.60
  -7  -1  -6   54.17    1.68
  -6  -1  -6  100.62    2.88
  -5  -1  -6    0.65    0.09
  -4  -1  -6   78.31    2.33
  -3  -1  -6    2.28    0.13
  -2  -1  -6   17.22    0.55
  -1  -1  -6    2.84    0.14
   0  -1  -6    0.00    0.06
   1  -1  -6    2.92    0.21
   2  -1  -6   16.91    0.70
   3  -1  -6    2.35    0.16
   4  -1  -6   76.04    3.03
   5  -1  -6    0.64    0.10
   6  -1  -6   98.31    5.39
   7  -1  -6   48.99    3.13
   8  -1  -6   48.28    2.97
   9  -1  -6   -0.09    0.12
  10  -1  -6    1.42    0.28
  11  -1  -6    6.07    0.54
  12  -1  -6    0.90    0.26
  13  -1  -6    0.07    0.17
  14  -1  -6   11.37    0.88
  15  -1  -6   32.62    1.56
  16  -1  -6    9.69    0.67
  17  -1  -6    1.12    0.27
 -18   0  -6    5.52    0.66
 -17   0  -6    0.42    0.18
 -16   0  -6    1.43    0.23
 -15   0  -6    5.93    0.44
 -14   0  -6   36.03    1.16
 -13   0  -6    0.06    0.08
 -12   0  -6   48.73    1.48
 -11   0  -6   74.79    2.20
 -10   0  -6  100.36    2.95
  -9   0  -6    1.29    0.15
  -8   0  -6   11.76    0.48
  -7   0  -6    0.37    0.08
  -6   0  -6   19.02    0.68
  -5   0  -6    0.05    0.06
  -4   0  -6   13.43    0.56
  -3   0  -6   23.82    0.87
  -2   0  -6   25.08    0.97
  -1   0  -6    1.06    0.13
   3   0  -6   19.07    1.34
   4   0  -6   13.41    0.87
   5   0  -6   -0.05    0.10
   6   0  -6   19.26    1.20
   7   0  -6    0.11    0.12
   8   0  -6   14.13    0.86
   9   0  -6    0.66    0.18
  10   0  -6   97.28    5.42
  11   0  -6   64.15    2.79
  12   0  -6   40.64    1.87
  13   0  -6    0.01    0.14
  14   0  -6   33.46    1.50
  15   0  -6    5.88    0.74
  16   0  -6    1.26    0.41
  17   0  -6    0.62    0.31
  18   0  -6    5.64    0.77
 -17   1  -6    1.36    0.24
 -16   1  -6    9.38    0.56
 -15   1  -6   35.49    1.45
 -14   1  -6    9.84    0.54
 -13   1  -6    0.08    0.10
 -12   1  -6    0.76    0.14
 -11   1  -6    4.99    0.31
 -10   1  -6    0.85    0.15
  -9   1  -6    0.05    0.08
  -8   1  -6   50.05    1.92
  -7   1  -6   53.57    2.03
  -6   1  -6   93.26    3.46
  -5   1  -6    0.68    0.12
  -4   1  -6   78.16    2.83
  -3   1  -6    2.48    0.14
  -2   1  -6   17.19    0.64
  -1   1  -6    2.78    0.18
   0   1  -6    0.12    0.09
   1   1  -6    3.10    0.31
   2   1  -6   17.46    1.00
   3   1  -6    2.52    0.20
   4   1  -6   83.80    2.96
   5   1  -6    0.93    0.13
   6   1  -6   97.77    5.02
   7   1  -6   55.69    2.14
   8   1  -6   50.87    2.85
   9   1  -6    0.03    0.17
  10   1  -6    1.26    0.33
  11   1  -6    4.89    0.62
  12   1  -6    0.32    0.22
  13   1  -6   -0.13    0.17
  14   1  -6    9.71    0.86
  15   1  -6   38.38    2.20
  16   1  -6   10.41    0.92
  17   1  -6    0.95    0.36
 -16   2  -6    1.10    0.23
 -15   2  -6    4.25    0.39
 -14   2  -6   27.97    1.19
 -13   2  -6    0.07    0.12
 -12   2  -6   41.00    1.63
 -11   2  -6   56.81    2.08
 -10   2  -6   75.96    2.87
  -9   2  -6    0.78    0.15
  -8   2  -6    7.73    0.44
  -7   2  -6    0.15    0.10
  -6   2  -6   13.71    0.64
  -5   2  -6   -0.01    0.08
  -4   2  -6    8.29    0.57
  -3   2  -6   17.27    0.93
  -2   2  -6   19.73    0.76
  -1   2  -6    0.68    0.10
   0   2  -6  284.70    9.74
   1   2  -6    0.74    0.15
   2   2  -6   18.16    1.08
   3   2  -6   14.95    0.90
   4   2  -6    8.52    0.58
   5   2  -6    0.05    0.11
   6   2  -6   13.57    0.88
   7   2  -6    0.25    0.14
   8   2  -6    8.99    0.68
   9   2  -6    0.76    0.22
  10   2  -6   77.10    4.14
  11   2  -6   55.14    3.02
  12   2  -6   40.36    2.39
  13   2  -6    0.05    0.19
  14   2  -6   30.17    1.81
  15   2  -6    5.05    0.67
  16   2  -6    1.16    0.37
 -14   3  -6    6.71    0.70
 -13   3  -6    0.09    0.18
 -12   3  -6    0.45    0.15
 -11   3  -6    2.66    0.29
 -10   3  -6    1.03    0.19
  -9   3  -6    0.01    0.10
  -8   3  -6   33.11    1.32
  -7   3  -6   29.09    1.22
  -6   3  -6   58.73    2.26
  -5   3  -6    0.29    0.15
  -4   3  -6   46.49    2.35
  -3   3  -6    0.61    0.20
  -2   3  -6    9.03    0.66
  -1   3  -6    1.80    0.19
   0   3  -6   -0.10    0.07
   1   3  -6    1.69    0.19
   2   3  -6    8.80    0.45
   3   3  -6    1.09    0.22
   4   3  -6   43.22    2.40
   5   3  -6   -0.08    0.12
   6   3  -6   61.52    3.17
   7   3  -6   30.83    1.71
   8   3  -6   31.54    1.86
   9   3  -6    0.17    0.17
  10   3  -6    1.26    0.31
  11   3  -6    2.74    0.45
  12   3  -6    0.26    0.22
  13   3  -6   -0.02    0.20
  14   3  -6    6.42    0.78
 -11   4  -6   30.92    1.78
 -10   4  -6   44.58    2.44
  -9   4  -6    0.25    0.21
  -8   4  -6    3.31    0.34
  -7   4  -6    0.18    0.13
  -6   4  -6    5.14    0.43
  -5   4  -6    0.09    0.14
  -4   4  -6    3.12    0.42
  -3   4  -6    6.85    0.58
  -2   4  -6   12.29    0.86
  -1   4  -6    0.87    0.25
   0   4  -6  146.36    6.90
   1   4  -6    0.32    0.14
   2   4  -6   12.57    0.63
   3   4  -6    6.55    0.45
   4   4  -6    2.96    0.31
   5   4  -6   -0.10    0.14
   6   4  -6    4.82    0.54
   7   4  -6    0.43    0.22
   8   4  -6    3.72    0.50
   9   4  -6    0.20    0.22
  10   4  -6   47.31    2.64
  11   4  -6   30.04    1.92
  -6   5  -6   34.52    1.89
  -5   5  -6    0.35    0.22
  -4   5  -6   22.91    1.46
  -3   5  -6    0.49    0.24
  -2   5  -6    4.54    0.56
  -1   5  -6    0.42    0.24
   0   5  -6    0.00    0.19
   1   5  -6    1.02    0.31
   2   5  -6    4.20    0.57
   3   5  -6    0.40    0.18
   4   5  -6   24.24    1.11
   5   5  -6    0.02    0.15
   6   5  -6   32.73    1.42
  -6  -5  -5    0.57    0.27
  -5  -5  -5    3.49    0.54
  -4  -5  -5    8.40    0.78
  -3  -5  -5   24.94    1.70
  -2  -5  -5    8.06    0.74
  -1  -5  -5    0.01    0.19
   0  -5  -5    6.54    0.75
   1  -5  -5    0.23    0.22
   2  -5  -5    6.37    0.75
   7  -5  -5    0.81    0.31
   8  -5  -5    0.32    0.26
 -12  -4  -5   16.30    0.85
 -11  -4  -5    1.65    0.27
 -10  -4  -5    3.98    0.38
  -9  -4  -5   44.41    2.73
  -8  -4  -5    7.54    0.70
  -7  -4  -5    3.13    0.45
  -6  -4  -5    9.20    0.77
  -5  -4  -5   19.08    1.35
  -4  -4  -5    2.35    0.39
  -3  -4  -5    9.56    0.80
  -2  -4  -5    3.35    0.32
  -1  -4  -5   26.65    1.17
   0  -4  -5    0.00    0.09
   1  -4  -5   25.64    1.17
   2  -4  -5    3.27    0.31
   3  -4  -5   10.69    0.58
   4  -4  -5    2.19    0.39
   5  -4  -5   22.99    1.41
   6  -4  -5    8.67    0.76
   7  -4  -5    2.78    0.44
   8  -4  -5    7.85    0.71
   9  -4  -5   47.31    2.80
  10  -4  -5    3.12    0.50
  11  -4  -5    2.01    0.43
  12  -4  -5   16.07    1.24
 -15  -3  -5   20.25    0.98
 -14  -3  -5    3.06    0.34
 -13  -3  -5   40.35    1.77
 -12  -3  -5    6.52    0.44
 -11  -3  -5    0.95    0.19
 -10  -3  -5    7.52    0.45
  -9  -3  -5   14.31    0.69
  -8  -3  -5    1.11    0.17
  -7  -3  -5    3.91    0.32
  -6  -3  -5    0.82    0.15
  -5  -3  -5    6.92    0.39
  -4  -3  -5   16.96    0.76
  -3  -3  -5   50.82    2.89
  -2  -3  -5   13.56    0.89
  -1  -3  -5    1.42    0.25
   0  -3  -5   22.33    1.01
   1  -3  -5    1.31    0.18
   2  -3  -5   13.23    0.63
   3  -3  -5   54.47    2.07
   4  -3  -5   17.92    0.79
   5  -3  -5    7.11    0.60
   6  -3  -5    0.63    0.22
   7  -3  -5    3.23    0.45
   8  -3  -5    1.37    0.29
   9  -3  -5   14.81    1.02
  10  -3  -5    7.43    0.68
  11  -3  -5    0.88    0.28
  12  -3  -5    7.50    0.70
  13  -3  -5   42.04    2.63
  14  -3  -5    2.59    0.48
 -16  -2  -5   10.03    0.97
 -15  -2  -5   21.60    1.03
 -14  -2  -5    2.77    0.30
 -13  -2  -5    7.23    0.46
 -12  -2  -5   27.20    1.24
 -11  -2  -5    2.97    0.29
 -10  -2  -5    5.30    0.34
  -9  -2  -5   93.56    3.41
  -8  -2  -5   12.57    0.62
  -7  -2  -5    2.98    0.25
  -6  -2  -5   14.38    0.67
  -5  -2  -5   42.68    1.65
  -4  -2  -5    9.15    0.45
  -3  -2  -5   43.32    1.62
  -2  -2  -5    4.86    0.28
  -1  -2  -5   66.47    2.50
   0  -2  -5    0.07    0.06
   1  -2  -5   66.94    3.59
   2  -2  -5    5.11    0.30
   3  -2  -5   39.94    1.65
   4  -2  -5    9.81    0.46
   5  -2  -5   43.22    1.66
   6  -2  -5   15.06    1.00
   7  -2  -5    2.95    0.38
   8  -2  -5   14.29    0.95
   9  -2  -5   83.01    4.95
  10  -2  -5    4.43    0.53
  11  -2  -5    3.75    0.47
  12  -2  -5   30.76    1.87
  13  -2  -5    8.19    0.72
  14  -2  -5    3.11    0.49
  15  -2  -5   18.74    1.52
  16  -2  -5   15.55    1.16
 -17  -1  -5   20.22    1.51
 -16  -1  -5   46.66    2.75
 -15  -1  -5   23.38    1.63
 -14  -1  -5    4.30    0.36
 -13  -1  -5   59.05    1.80
 -12  -1  -5    8.93    0.49
 -11  -1  -5    0.89    0.12
 -10  -1  -5    9.61    0.40
  -9  -1  -5   20.14    0.69
  -8  -1  -5    3.60    0.21
  -7  -1  -5   11.70    0.43
  -6  -1  -5    1.52    0.12
  -5  -1  -5    9.94    0.36
  -4  -1  -5   30.61    0.96
  -3  -1  -5   90.41    3.53
  -2  -1  -5   21.10    0.66
  -1  -1  -5    4.87    0.18
   0  -1  -5   57.35    2.11
   1  -1  -5    5.41    0.24
   2  -1  -5   22.58    0.85
   3  -1  -5   93.46    2.90
   4  -1  -5   30.88    1.24
   5  -1  -5   10.27    0.45
   6  -1  -5    1.65    0.26
   7  -1  -5   13.59    0.84
   8  -1  -5    4.66    0.42
   9  -1  -5   21.25    1.30
  10  -1  -5   10.44    0.77
  11  -1  -5    0.52    0.19
  12  -1  -5    8.06    0.71
  13  -1  -5   60.47    3.40
  14  -1  -5    4.14    0.54
  15  -1  -5   24.95    1.20
  16  -1  -5   45.78    1.98
  17  -1  -5   23.77    1.14
  18  -1  -5    0.16    0.27
 -18   0  -5    4.97    0.44
 -17   0  -5   11.18    0.92
 -16   0  -5   14.96    0.75
 -15   0  -5   26.39    1.15
 -14   0  -5    3.37    0.31
 -13   0  -5   10.38    0.44
 -12   0  -5   39.58    1.26
 -11   0  -5    4.04    0.25
 -10   0  -5    7.05    0.31
  -9   0  -5  117.80    3.46
  -8   0  -5   17.68    0.60
  -7   0  -5    1.92    0.15
  -6   0  -5   18.26    0.63
  -5   0  -5   59.33    2.09
  -4   0  -5   17.43    0.65
  -3   0  -5   76.20    2.62
  -2   0  -5    7.35    0.32
  -1   0  -5  116.08    5.27
   3   0  -5   68.97    4.08
   4   0  -5   15.95    1.00
   5   0  -5   54.35    3.24
   6   0  -5   18.06    1.12
   7   0  -5    1.77    0.25
   8   0  -5   15.40    1.05
   9   0  -5  109.65    6.36
  10   0  -5    5.79    0.42
  11   0  -5    3.65    0.34
  12   0  -5   38.17    1.63
  13   0  -5   10.48    0.59
  14   0  -5    3.30    0.34
  15   0  -5   28.67    1.26
  16   0  -5   16.82    1.18
  17   0  -5   11.27    0.95
  18   0  -5    5.15    0.67
 -18   1  -5    0.12    0.20
 -17   1  -5   22.93    1.04
 -16   1  -5   46.42    1.84
 -15   1  -5   25.55    1.10
 -14   1  -5    3.51    0.32
 -13   1  -5   56.76    2.16
 -12   1  -5    8.69    0.40
 -11   1  -5    1.00    0.14
 -10   1  -5    9.74    0.48
  -9   1  -5   20.35    0.84
  -8   1  -5    4.06    0.26
  -7   1  -5   12.19    0.53
  -6   1  -5    1.39    0.16
  -5   1  -5   10.08    0.46
  -4   1  -5   32.94    1.85
  -3   1  -5   94.99    4.59
  -2   1  -5   22.10    0.78
  -1   1  -5    4.76    0.23
   0   1  -5   54.06    2.79
   1   1  -5    4.69    0.34
   2   1  -5   21.77    1.18
   3   1  -5   96.38    3.47
   4   1  -5   33.65    1.71
   5   1  -5   10.26    0.68
   6   1  -5    1.50    0.15
   7   1  -5   12.36    0.55
   8   1  -5    4.45    0.29
   9   1  -5   20.91    0.89
  10   1  -5   11.96    0.80
  11   1  -5    1.03    0.26
  12   1  -5    8.57    0.72
  13   1  -5   64.50    3.20
  14   1  -5    4.62    0.57
  15   1  -5   28.41    1.69
  16   1  -5   51.11    2.71
  17   1  -5   24.32    1.54
  18   1  -5   -0.18    0.22
 -16   2  -5   14.12    0.70
 -15   2  -5   22.68    0.99
 -14   2  -5    3.00    0.30
 -13   2  -5    7.66    0.44
 -12   2  -5   28.87    1.17
 -11   2  -5    3.65    0.30
 -10   2  -5    5.17    0.32
  -9   2  -5   85.44    3.18
  -8   2  -5   12.76    0.60
  -7   2  -5    2.56    0.23
  -6   2  -5   14.78    0.66
  -5   2  -5   40.19    1.58
  -4   2  -5    8.77    0.59
  -3   2  -5   43.15    1.47
  -2   2  -5    5.06    0.25
  -1   2  -5   68.55    2.32
   0   2  -5   -0.04    0.06
   1   2  -5   65.98    3.33
   2   2  -5    5.73    0.38
   3   2  -5   39.87    2.15
   4   2  -5    9.54    0.62
   5   2  -5   40.32    2.20
   6   2  -5   13.75    0.90
   7   2  -5    2.32    0.32
   8   2  -5   12.01    0.85
   9   2  -5   88.58    4.56
  10   2  -5    5.70    0.51
  11   2  -5    3.13    0.44
  12   2  -5   29.53    1.72
  13   2  -5    7.41    0.66
  14   2  -5    2.34    0.43
  15   2  -5   22.91    1.47
  16   2  -5   14.67    1.07
  17   2  -5    9.96    0.90
 -14   3  -5    3.18    0.46
 -13   3  -5   40.66    2.26
 -12   3  -5    5.46    0.58
 -11   3  -5    0.56    0.15
 -10   3  -5    7.09    0.42
  -9   3  -5   12.72    0.64
  -8   3  -5    0.92    0.16
  -7   3  -5    3.68    0.31
  -6   3  -5    0.99    0.17
  -5   3  -5    5.77    0.48
  -4   3  -5   16.44    0.99
  -3   3  -5   53.08    2.58
  -2   3  -5   12.81    0.56
  -1   3  -5    1.26    0.15
   0   3  -5   23.95    0.91
   1   3  -5    1.07    0.15
   2   3  -5   11.60    0.78
   3   3  -5   49.43    2.66
   4   3  -5   16.98    1.03
   5   3  -5    7.52    0.54
   6   3  -5    0.65    0.19
   7   3  -5    3.47    0.42
   8   3  -5    1.06    0.25
   9   3  -5   12.78    0.92
  10   3  -5    5.64    0.63
  11   3  -5    1.14    0.28
  12   3  -5    6.22    0.68
  13   3  -5   44.90    2.45
  14   3  -5    1.77    0.41
  15   3  -5   18.34    1.34
 -12   4  -5   14.01    1.03
 -11   4  -5    1.89    0.35
 -10   4  -5    2.45    0.39
  -9   4  -5   46.36    2.42
  -8   4  -5    8.16    0.63
  -7   4  -5    2.74    0.37
  -6   4  -5    9.58    0.53
  -5   4  -5   19.38    1.20
  -4   4  -5    1.69    0.30
  -3   4  -5   10.66    0.74
  -2   4  -5    2.88    0.38
  -1   4  -5   26.12    1.48
   0   4  -5    0.00    0.09
   1   4  -5   27.10    1.07
   2   4  -5    3.12    0.29
   3   4  -5   10.83    0.56
   4   4  -5    2.44    0.27
   5   4  -5   20.20    1.25
   6   4  -5    8.33    0.68
   7   4  -5    1.92    0.34
   8   4  -5    8.29    0.67
   9   4  -5   45.45    2.57
  10   4  -5    3.01    0.47
  11   4  -5    1.79    0.39
  12   4  -5   13.14    1.10
  -8   5  -5    0.25    0.21
  -7   5  -5    0.60    0.25
  -6   5  -5    0.51    0.23
  -5   5  -5    4.10    0.49
  -4   5  -5    7.53    0.64
  -3   5  -5   27.24    1.50
  -2   5  -5    7.59    0.63
  -1   5  -5    0.19    0.20
   0   5  -5    6.75    0.67
   1   5  -5    0.61    0.24
   2   5  -5    7.14    0.51
   3   5  -5   26.04    1.10
   4   5  -5    9.03    0.73
   5   5  -5    3.57    0.51
   6   5  -5    0.38    0.25
   7   5  -5    0.92    0.29
  -7  -5  -4   38.50    2.41
  -6  -5  -4   11.29    1.00
  -5  -5  -4   13.75    1.10
  -4  -5  -4    3.93    0.55
  -3  -5  -4   35.60    2.15
  -2  -5  -4    9.49    0.81
  -1  -5  -4   18.32    1.35
   0  -5  -4    0.13    0.19
   1  -5  -4   19.77    1.36
   2  -5  -4    9.81    0.80
   9  -5  -4    1.93    0.43
 -13  -4  -4    9.86    0.61
 -12  -4  -4    9.88    0.62
 -11  -4  -4   32.75    1.44
 -10  -4  -4   37.01    1.55
  -9  -4  -4   15.77    0.83
  -8  -4  -4    0.20    0.14
  -7  -4  -4    3.30    0.48
  -6  -4  -4    0.60    0.23
  -5  -4  -4    5.87    0.56
  -4  -4  -4    8.46    0.68
  -3  -4  -4   44.57    2.73
  -2  -4  -4   11.32    0.88
  -1  -4  -4   55.45    2.25
   0  -4  -4   10.03    0.54
   1  -4  -4   55.68    2.24
   2  -4  -4   12.39    0.62
   3  -4  -4   47.68    1.94
   4  -4  -4    7.88    0.46
   5  -4  -4    5.03    0.52
   6  -4  -4    0.66    0.23
   7  -4  -4    4.10    0.51
   8  -4  -4   -0.02    0.18
   9  -4  -4   17.07    1.21
  10  -4  -4   33.49    2.22
  11  -4  -4   31.07    2.07
  12  -4  -4   10.15    0.92
 -15  -3  -4    9.90    0.59
 -14  -3  -4   18.69    0.92
 -13  -3  -4   14.92    0.78
 -12  -3  -4    1.18    0.21
 -11  -3  -4    3.03    0.31
 -10  -3  -4    4.55    0.38
  -9  -3  -4    3.06    0.29
  -8  -3  -4   11.61    0.61
  -7  -3  -4   77.22    3.01
  -6  -3  -4   27.11    1.16
  -5  -3  -4   28.23    1.14
  -4  -3  -4    5.45    0.33
  -3  -3  -4   77.69    2.89
  -2  -3  -4   21.28    0.90
  -1  -3  -4   49.34    2.00
   0  -3  -4   -0.12    0.07
   1  -3  -4   48.96    1.98
   2  -3  -4   22.48    0.93
   3  -3  -4   77.12    2.95
   4  -3  -4    6.02    0.34
   5  -3  -4   27.83    1.14
   6  -3  -4   26.72    1.69
   7  -3  -4   77.26    4.38
   8  -3  -4   12.01    0.89
   9  -3  -4    2.92    0.42
  10  -3  -4    4.53    0.54
  11  -3  -4    3.37    0.49
  12  -3  -4    1.73    0.36
  13  -3  -4   15.10    1.18
  14  -3  -4   19.66    1.39
  15  -3  -4    9.95    0.90
 -17  -2  -4    1.45    0.37
 -16  -2  -4    0.45    0.24
 -15  -2  -4    5.46    0.63
 -14  -2  -4    5.31    0.38
 -13  -2  -4   12.62    0.65
 -12  -2  -4   15.06    0.76
 -11  -2  -4   54.57    2.20
 -10  -2  -4   62.00    2.54
  -9  -2  -4   29.56    1.24
  -8  -2  -4    0.04    0.07
  -7  -2  -4    6.29    0.37
  -6  -2  -4    1.81    0.19
  -5  -2  -4   17.20    0.77
  -4  -2  -4   18.09    0.77
  -3  -2  -4  103.23    3.91
  -2  -2  -4   29.78    1.16
  -1  -2  -4  118.35    4.34
   0  -2  -4   19.10    0.77
   1  -2  -4  119.33    3.58
   2  -2  -4   29.26    1.20
   3  -2  -4  108.07    4.00
   4  -2  -4   19.18    0.77
   5  -2  -4   18.60    0.77
   6  -2  -4    2.81    0.33
   7  -2  -4    6.44    0.55
   8  -2  -4    0.23    0.13
   9  -2  -4   32.86    1.84
  10  -2  -4   69.45    3.73
  11  -2  -4   51.14    3.22
  12  -2  -4   15.70    1.14
  13  -2  -4   11.21    0.97
  14  -2  -4    4.34    0.58
  15  -2  -4    6.65    0.71
  16  -2  -4    0.44    0.24
  17  -2  -4    2.00    0.45
 -18  -1  -4    2.52    0.46
 -17  -1  -4    4.61    0.61
 -16  -1  -4   28.57    1.25
 -15  -1  -4   13.46    0.65
 -14  -1  -4   28.74    0.94
 -13  -1  -4   24.31    0.82
 -12  -1  -4    2.63    0.20
 -11  -1  -4    5.57    0.27
 -10  -1  -4    8.12    0.33
  -9  -1  -4    2.61    0.18
  -8  -1  -4   19.79    0.69
  -7  -1  -4  133.42    3.92
  -6  -1  -4   51.09    1.60
  -5  -1  -4   49.02    1.51
  -4  -1  -4    9.07    0.31
  -3  -1  -4  138.83    4.10
  -2  -1  -4   44.22    1.29
  -1  -1  -4  109.72    4.01
   0  -1  -4    0.01    0.04
   1  -1  -4  108.95    3.99
   2  -1  -4   43.68    1.37
   3  -1  -4  144.27    5.36
   4  -1  -4    8.81    0.40
   5  -1  -4   52.10    1.95
   6  -1  -4   49.54    3.00
   7  -1  -4  120.30    7.30
   8  -1  -4   23.54    1.31
   9  -1  -4    2.81    0.35
  10  -1  -4    8.70    0.64
  11  -1  -4    6.83    0.54
  12  -1  -4    1.89    0.34
  13  -1  -4   23.62    1.54
  14  -1  -4   26.37    1.22
  15  -1  -4   13.56    0.71
  16  -1  -4   30.88    1.36
  17  -1  -4    4.56    0.62
  18  -1  -4    2.59    0.50
 -18   0  -4   -0.02    0.13
 -17   0  -4    1.58    0.24
 -16   0  -4    0.35    0.14
 -15   0  -4    5.61    0.39
 -14   0  -4    5.76    0.36
 -13   0  -4   15.90    0.57
 -12   0  -4   21.46    0.75
 -11   0  -4   69.44    2.13
 -10   0  -4   87.78    2.60
  -9   0  -4   41.53    1.29
  -8   0  -4    0.13    0.07
  -7   0  -4    9.14    0.35
  -6   0  -4    2.50    0.16
  -5   0  -4   30.17    1.12
  -4   0  -4   25.78    0.96
  -3   0  -4  169.81    5.50
  -2   0  -4   47.18    1.67
  -1   0  -4  184.64    8.35
   3   0  -4  161.25    8.57
   4   0  -4   24.21    1.48
   5   0  -4   30.82    1.74
   6   0  -4    3.02    0.27
   7   0  -4    8.77    0.61
   8   0  -4    0.29    0.11
  10   0  -4   84.28    3.30
  11   0  -4   70.31    2.71
  12   0  -4   24.54    1.00
  13   0  -4   15.61    0.75
  14   0  -4    5.73    0.44
  15   0  -4    5.65    0.45
  16   0  -4    0.41    0.17
  17   0  -4    2.35    0.30
 -18   1  -4    3.75    0.53
 -17   1  -4    5.72    0.44
 -16   1  -4   31.04    1.26
 -15   1  -4   12.45    0.64
 -14   1  -4   25.97    1.12
 -13   1  -4   23.00    0.98
 -12   1  -4    2.59    0.21
 -11   1  -4    6.16    0.30
 -10   1  -4    8.02    0.41
  -9   1  -4    2.22    0.21
  -8   1  -4   20.71    0.83
  -7   1  -4  140.52    4.70
  -6   1  -4   51.80    1.93
  -5   1  -4   47.04    1.82
  -4   1  -4    9.01    0.41
  -3   1  -4  140.04    6.90
  -2   1  -4   43.92    1.52
  -1   1  -4  112.31    3.67
   0   1  -4    0.11    0.06
   1   1  -4  109.01    5.32
   2   1  -4   42.87    2.23
   3   1  -4  148.53    5.15
   4   1  -4    8.55    0.57
   5   1  -4   51.19    1.90
   6   1  -4   55.55    2.02
   7   1  -4  135.63    4.92
   8   1  -4   20.78    0.87
   9   1  -4    2.20    0.21
  10   1  -4    8.29    0.42
  11   1  -4    5.14    0.33
  12   1  -4    3.24    0.41
  13   1  -4   24.52    1.45
  14   1  -4   29.38    1.66
  15   1  -4   13.39    0.95
  16   1  -4   31.46    1.83
  17   1  -4    5.36    0.65
  18   1  -4    3.87    0.54
 -17   2  -4    1.31    0.33
 -16   2  -4    0.16    0.18
 -15   2  -4    4.66    0.39
 -14   2  -4    5.02    0.38
 -13   2  -4   13.79    0.64
 -12   2  -4   16.70    0.73
 -11   2  -4   55.77    2.06
 -10   2  -4   65.04    2.39
  -9   2  -4   28.16    1.16
  -8   2  -4    0.32    0.10
  -7   2  -4    7.06    0.36
  -6   2  -4    1.72    0.18
  -5   2  -4   18.52    0.76
  -4   2  -4   18.88    0.68
  -3   2  -4  109.46    3.57
  -2   2  -4   30.19    1.06
  -1   2  -4  117.64    3.99
   0   2  -4   20.23    0.75
   1   2  -4  115.42    5.77
   2   2  -4   28.90    1.54
   3   2  -4  103.17    5.21
   4   2  -4   17.06    1.01
   5   2  -4   18.45    1.05
   6   2  -4    1.63    0.24
   7   2  -4    6.33    0.50
   8   2  -4    0.09    0.11
   9   2  -4   29.00    1.67
  10   2  -4   61.98    3.40
  11   2  -4   53.95    2.96
  12   2  -4   17.09    1.08
  13   2  -4   13.97    0.94
  14   2  -4    4.47    0.55
  15   2  -4    4.31    0.57
  16   2  -4    0.39    0.24
  17   2  -4    1.67    0.37
 -15   3  -4    9.05    0.75
 -14   3  -4   18.62    1.18
 -13   3  -4   15.00    1.02
 -12   3  -4    1.97    0.33
 -11   3  -4    2.60    0.38
 -10   3  -4    4.87    0.36
  -9   3  -4    3.00    0.27
  -8   3  -4   11.52    0.57
  -7   3  -4   77.97    2.83
  -6   3  -4   29.75    1.13
  -5   3  -4   25.77    1.43
  -4   3  -4    5.19    0.42
  -3   3  -4   76.65    2.64
  -2   3  -4   21.27    0.83
  -1   3  -4   50.57    1.78
   0   3  -4    0.06    0.08
   1   3  -4   49.53    1.80
   2   3  -4   20.72    1.19
   3   3  -4   74.26    3.84
   4   3  -4    4.85    0.42
   5   3  -4   27.48    1.51
   6   3  -4   28.24    1.57
   7   3  -4   81.07    4.02
   8   3  -4   11.26    0.81
   9   3  -4    2.83    0.38
  10   3  -4    4.05    0.49
  11   3  -4    3.12    0.43
  12   3  -4    1.86    0.35
  13   3  -4   16.34    1.09
  14   3  -4   17.23    1.23
  15   3  -4   10.08    0.83
 -12   4  -4    9.32    0.77
 -11   4  -4   32.62    1.81
 -10   4  -4   37.49    1.94
  -9   4  -4   16.64    1.05
  -8   4  -4    0.20    0.16
  -7   4  -4    3.19    0.40
  -6   4  -4    0.63    0.20
  -5   4  -4    5.37    0.46
  -4   4  -4    8.05    0.58
  -3   4  -4   47.34    2.41
  -2   4  -4   11.97    0.55
  -1   4  -4   56.79    2.02
   0   4  -4   10.12    0.49
   1   4  -4   56.26    2.03
   2   4  -4   12.70    0.58
   3   4  -4   49.36    1.79
   4   4  -4    8.19    0.46
   5   4  -4    4.81    0.53
   6   4  -4    0.56    0.21
   7   4  -4    3.50    0.44
   8   4  -4    0.00    0.14
   9   4  -4   16.47    1.11
  10   4  -4   33.97    2.03
  11   4  -4   30.88    1.91
  12   4  -4   10.78    0.85
  -9   5  -4    2.31    0.39
  -8   5  -4    5.86    0.62
  -7   5  -4   34.85    2.04
  -6   5  -4   11.29    0.84
  -5   5  -4   14.62    0.95
  -4   5  -4    2.80    0.41
  -3   5  -4   34.54    1.84
  -2   5  -4    9.37    0.68
  -1   5  -4   19.49    1.18
   1   5  -4   19.26    1.24
   2   5  -4    8.26    0.70
   3   5  -4   35.35    1.97
   4   5  -4    3.67    0.48
   5   5  -4   12.76    0.99
   6   5  -4   13.02    0.95
   7   5  -4   39.44    2.22
   8   5  -4    5.84    0.67
  -8  -5  -3   23.72    1.70
  -7  -5  -3    0.08    0.20
  -6  -5  -3    0.25    0.22
  -5  -5  -3    2.00    0.41
  -4  -5  -3    0.76    0.28
  -3  -5  -3    0.13    0.21
  -2  -5  -3  115.80    6.33
  -1  -5  -3    1.90    0.38
   0  -5  -3   29.28    1.86
   1  -5  -3    1.22    0.32
   2  -5  -3  117.80    6.31
   3  -5  -3    0.04    0.20
 -13  -4  -3    2.34    0.32
 -12  -4  -3    2.53    0.32
 -11  -4  -3   -0.06    0.12
 -10  -4  -3    2.36    0.29
  -9  -4  -3    6.99    0.47
  -8  -4  -3   11.64    0.64
  -7  -4  -3    0.32    0.14
  -6  -4  -3  195.81    7.24
  -5  -4  -3    7.73    0.69
  -4  -4  -3   50.39    2.94
  -3  -4  -3    0.01    0.13
  -2  -4  -3   15.43    1.09
  -1  -4  -3    0.89    0.23
   0  -4  -3    0.21    0.10
   1  -4  -3    0.60    0.14
   2  -4  -3   16.38    0.76
   3  -4  -3   -0.02    0.08
   4  -4  -3   51.68    2.06
   5  -4  -3    9.40    0.69
   6  -4  -3  196.31   10.50
   7  -4  -3   -0.11    0.13
   8  -4  -3   11.95    0.91
   9  -4  -3    7.09    0.66
  10  -4  -3    2.46    0.42
  11  -4  -3    0.04    0.18
  12  -4  -3    2.64    0.47
  13  -4  -3    1.96    0.43
 -15  -3  -3    0.10    0.18
 -14  -3  -3   -0.13    0.11
 -13  -3  -3   14.75    0.74
 -12  -3  -3   86.34    4.36
 -11  -3  -3   -0.03    0.09
 -10  -3  -3   34.30    1.46
  -9  -3  -3   11.51    0.61
  -8  -3  -3   60.07    2.30
  -7  -3  -3    0.08    0.09
  -6  -3  -3    0.25    0.10
  -5  -3  -3    6.18    0.34
  -4  -3  -3    4.98    0.31
  -3  -3  -3    0.31    0.09
  -2  -3  -3  287.08   10.43
  -1  -3  -3    4.49    0.22
   0  -3  -3   56.27    2.19
   1  -3  -3    4.52    0.28
   2  -3  -3  281.82   10.65
   3  -3  -3    0.33    0.10
   4  -3  -3    5.51    0.31
   5  -3  -3    5.83    0.33
   6  -3  -3    0.38    0.15
   7  -3  -3    0.18    0.14
   8  -3  -3   56.47    3.32
   9  -3  -3   12.18    0.89
  10  -3  -3   34.15    2.14
  11  -3  -3    0.31    0.19
  12  -3  -3   75.36    4.44
  13  -3  -3   13.77    1.08
  14  -3  -3    0.12    0.20
  15  -3  -3    0.29    0.22
 -17  -2  -3   12.94    1.03
 -16  -2  -3   44.56    2.76
 -15  -2  -3    0.48    0.22
 -14  -2  -3    0.45    0.14
 -13  -2  -3    3.98    0.34
 -12  -2  -3    5.41    0.35
 -11  -2  -3   -0.03    0.08
 -10  -2  -3    6.09    0.29
  -9  -2  -3   17.50    0.60
  -8  -2  -3   16.50    0.61
  -7  -2  -3    0.72    0.10
  -6  -2  -3  369.91   11.03
  -5  -2  -3   21.80    0.72
  -4  -2  -3  108.94    3.08
  -3  -2  -3    0.09    0.03
  -2  -2  -3   49.40    1.87
  -1  -2  -3    1.51    0.13
   0  -2  -3   -0.02    0.05
   1  -2  -3    1.58    0.10
   2  -2  -3   49.92    1.92
   3  -2  -3    0.06    0.06
   4  -2  -3  108.51    4.02
   5  -2  -3   23.15    0.92
   6  -2  -3  406.62   14.37
   7  -2  -3    0.77    0.18
   8  -2  -3   18.82    1.14
   9  -2  -3   17.51    1.10
  10  -2  -3    5.87    0.54
  11  -2  -3   -0.05    0.11
  12  -2  -3    5.68    0.55
  13  -2  -3    3.46    0.49
  14  -2  -3    0.21    0.20
  15  -2  -3    0.28    0.21
  16  -2  -3   43.32    2.87
  17  -2  -3   13.92    1.09
 -18  -1  -3    6.19    0.72
 -17  -1  -3    0.71    0.19
 -16  -1  -3   12.66    0.67
 -15  -1  -3    0.51    0.15
 -14  -1  -3   -0.02    0.09
 -13  -1  -3   23.14    0.79
 -12  -1  -3  118.15    3.41
 -11  -1  -3    0.33    0.08
 -10  -1  -3   50.76    1.55
  -9  -1  -3   24.45    0.77
  -8  -1  -3  100.46    4.00
  -7  -1  -3    0.35    0.07
  -6  -1  -3    0.30    0.06
  -5  -1  -3   10.70    0.38
  -4  -1  -3   17.02    0.72
  -3  -1  -3    0.41    0.05
  -2  -1  -3  546.74   19.82
  -1  -1  -3    9.31    0.39
   0  -1  -3  103.44    3.72
   1  -1  -3    9.51    0.37
   2  -1  -3  544.31   20.28
   3  -1  -3    0.57    0.07
   4  -1  -3   17.50    0.71
   5  -1  -3   10.21    0.71
   6  -1  -3    0.23    0.11
   7  -1  -3    0.38    0.12
   8  -1  -3   93.78    5.83
   9  -1  -3   20.72    1.42
  10  -1  -3   46.99    2.88
  11  -1  -3    0.21    0.15
  12  -1  -3   97.46    6.32
  13  -1  -3   26.00    1.52
  14  -1  -3   -0.13    0.11
  15  -1  -3    0.33    0.15
  16  -1  -3   15.38    1.09
  17  -1  -3    1.35    0.35
  18  -1  -3    6.23    0.76
 -19   0  -3    0.08    0.21
 -18   0  -3   10.26    0.60
 -17   0  -3   14.14    0.72
 -16   0  -3   55.38    2.11
 -15   0  -3    0.31    0.12
 -14   0  -3    0.94    0.16
 -13   0  -3    5.47    0.34
 -12   0  -3    9.66    0.37
 -11   0  -3    0.04    0.06
 -10   0  -3    8.34    0.33
  -9   0  -3   25.20    0.79
  -8   0  -3   21.94    0.72
  -7   0  -3    1.34    0.11
  -6   0  -3  516.60   14.87
  -5   0  -3   35.46    1.10
  -4   0  -3  163.43    5.53
  -3   0  -3    0.07    0.04
  -2   0  -3   74.28    3.38
  -1   0  -3    2.45    0.14
   2   0  -3   81.27    3.94
   3   0  -3    0.01    0.05
   4   0  -3  162.61    8.61
   5   0  -3   30.47    2.00
   7   0  -3    1.38    0.19
   8   0  -3   21.25    1.31
   9   0  -3   23.71    1.01
  10   0  -3    6.98    0.41
  11   0  -3    0.09    0.09
  12   0  -3    8.31    0.47
  13   0  -3    5.02    0.36
  14   0  -3    0.20    0.12
  15   0  -3    0.74    0.16
  16   0  -3   56.47    2.21
  17   0  -3   19.19    1.21
  18   0  -3   12.28    0.99
 -18   1  -3    6.99    0.65
 -17   1  -3    0.68    0.18
 -16   1  -3   14.45    0.69
 -15   1  -3    0.26    0.12
 -14   1  -3    0.28    0.11
 -13   1  -3   22.61    0.95
 -12   1  -3  111.21    4.08
 -11   1  -3    0.31    0.08
 -10   1  -3   50.53    1.86
  -9   1  -3   25.13    0.93
  -8   1  -3  104.30    3.75
  -7   1  -3    0.37    0.08
  -6   1  -3    0.13    0.07
  -5   1  -3   10.34    0.46
  -4   1  -3   17.61    1.05
  -3   1  -3    0.54    0.05
  -2   1  -3  549.01   18.16
  -1   1  -3    9.49    0.36
   0   1  -3  101.83    4.94
   1   1  -3    9.44    0.53
   2   1  -3  553.03   19.47
   3   1  -3    0.48    0.05
   4   1  -3   16.98    0.69
   5   1  -3   11.10    0.47
   6   1  -3    0.22    0.06
   7   1  -3    0.36    0.08
   8   1  -3  106.11    3.93
   9   1  -3   24.57    0.97
  10   1  -3   53.54    1.95
  11   1  -3    0.34    0.11
  12   1  -3  113.49    4.27
  13   1  -3   23.61    1.38
  14   1  -3    0.10    0.14
  15   1  -3    0.20    0.17
  16   1  -3   13.64    0.96
  17   1  -3    0.82    0.27
 -17   2  -3   13.54    0.96
 -16   2  -3   45.22    2.51
 -15   2  -3    0.02    0.15
 -14   2  -3    0.41    0.14
 -13   2  -3    4.33    0.33
 -12   2  -3    5.66    0.35
 -11   2  -3   -0.02    0.07
 -10   2  -3    6.05    0.34
  -9   2  -3   16.18    0.70
  -8   2  -3   17.16    0.72
  -7   2  -3    1.00    0.14
  -6   2  -3  382.84   10.78
  -5   2  -3   23.17    0.71
  -4   2  -3  106.22    3.59
  -3   2  -3    0.04    0.05
  -2   2  -3   48.56    1.71
  -1   2  -3    1.40    0.12
   0   2  -3   -0.19    0.05
   1   2  -3    1.54    0.18
   2   2  -3   50.19    2.50
   3   2  -3    0.04    0.08
   4   2  -3  103.46    5.25
   5   2  -3   22.43    1.23
   6   2  -3  371.31   18.73
   7   2  -3    0.65    0.16
   8   2  -3   17.56    1.04
   9   2  -3   15.18    0.99
  10   2  -3    6.03    0.49
  11   2  -3    0.07    0.12
  12   2  -3    6.30    0.52
  13   2  -3    4.02    0.48
  14   2  -3    0.27    0.19
  15   2  -3    0.56    0.22
  16   2  -3   49.22    2.64
  17   2  -3   12.82    0.96
  18   2  -3   10.21    0.85
 -15   3  -3    0.24    0.20
 -14   3  -3    0.03    0.16
 -13   3  -3   13.81    0.94
 -12   3  -3   73.58    3.84
 -11   3  -3    0.06    0.14
 -10   3  -3   35.92    1.86
  -9   3  -3   12.47    0.56
  -8   3  -3   57.43    2.13
  -7   3  -3    0.15    0.09
  -6   3  -3    0.34    0.10
  -5   3  -3    5.74    0.43
  -4   3  -3    5.11    0.27
  -3   3  -3    0.21    0.08
  -2   3  -3  282.19    9.53
  -1   3  -3    4.43    0.25
   0   3  -3   55.67    1.96
   1   3  -3    4.05    0.25
   2   3  -3  284.24    9.57
   3   3  -3    0.12    0.11
   4   3  -3    5.17    0.41
   5   3  -3    5.41    0.44
   6   3  -3    0.34    0.15
   7   3  -3    0.12    0.12
   8   3  -3   54.11    3.05
   9   3  -3   12.26    0.83
  10   3  -3   32.96    1.95
  11   3  -3    0.19    0.16
  12   3  -3   74.60    4.06
  13   3  -3   13.95    1.00
  14   3  -3   -0.02    0.18
  15   3  -3    0.49    0.25
  16   3  -3   10.65    0.87
 -13   4  -3    2.52    0.41
 -12   4  -3    2.46    0.40
 -11   4  -3    0.04    0.15
 -10   4  -3    2.48    0.37
  -9   4  -3    6.83    0.56
  -8   4  -3   12.36    0.80
  -7   4  -3   -0.06    0.12
  -6   4  -3  187.42    9.07
  -5   4  -3    8.09    0.59
  -4   4  -3   47.60    2.54
  -3   4  -3    0.10    0.08
  -2   4  -3   16.37    0.68
  -1   4  -3    0.66    0.12
   0   4  -3    0.12    0.09
   1   4  -3    0.66    0.13
   2   4  -3   16.42    0.70
   3   4  -3   -0.02    0.09
   4   4  -3   51.41    1.89
   5   4  -3    8.19    0.64
   6   4  -3  187.97    9.61
   7   4  -3    0.26    0.17
   8   4  -3   12.13    0.86
   9   4  -3    6.30    0.59
  10   4  -3    2.35    0.38
  11   4  -3    0.03    0.16
  12   4  -3    2.66    0.43
  13   4  -3    1.80    0.37
  -9   5  -3    5.59    0.60
  -8   5  -3   26.27    1.48
  -7   5  -3   -0.05    0.17
  -1   5  -3    1.91    0.34
   0   5  -3   28.11    1.70
   1   5  -3    1.99    0.33
   2   5  -3  118.82    5.86
   3   5  -3    0.15    0.18
   4   5  -3    1.15    0.29
   5   5  -3    2.24    0.39
   6   5  -3    0.22    0.20
   7   5  -3   -0.06    0.19
   8   5  -3   23.58    1.57
  -8  -5  -2    6.17    0.73
  -7  -5  -2   29.16    1.84
  -6  -5  -2    0.50    0.25
  -5  -5  -2    5.46    0.64
  -4  -5  -2    5.96    0.70
  -3  -5  -2   17.86    1.26
  -2  -5  -2    0.09    0.19
  -1  -5  -2    0.16    0.19
   0  -5  -2    0.07    0.17
   1  -5  -2    0.23    0.19
   2  -5  -2    0.14    0.18
   3  -5  -2   15.78    1.20
   4  -5  -2    6.32    0.70
 -14  -4  -2   23.32    1.59
 -13  -4  -2    8.57    0.79
 -12  -4  -2   11.38    0.65
 -11  -4  -2   29.17    1.28
 -10  -4  -2    5.14    0.43
  -9  -4  -2    0.84    0.19
  -8  -4  -2    3.62    0.34
  -7  -4  -2    0.04    0.11
  -6  -4  -2   18.19    0.86
  -5  -4  -2    5.30    0.36
  -4  -4  -2    4.18    0.34
  -3  -4  -2   12.95    0.92
  -2  -4  -2    0.29    0.15
  -1  -4  -2    3.96    0.47
   0  -4  -2    9.65    0.74
   1  -4  -2    3.78    0.44
   2  -4  -2    0.44    0.12
   3  -4  -2   12.76    0.62
   4  -4  -2    4.02    0.32
   5  -4  -2    5.33    0.35
   6  -4  -2   18.06    1.18
   7  -4  -2    0.13    0.16
   8  -4  -2    3.61    0.47
   9  -4  -2    0.51    0.22
  10  -4  -2    4.78    0.58
  11  -4  -2   24.40    1.77
  12  -4  -2    9.85    0.88
  13  -4  -2    8.31    0.80
 -15  -3  -2    2.60    0.46
 -14  -3  -2    0.86    0.19
 -13  -3  -2    5.14    0.38
 -12  -3  -2    0.41    0.14
 -11  -3  -2   55.48    2.86
 -10  -3  -2   68.02    2.66
  -9  -3  -2   13.05    0.87
  -8  -3  -2    9.53    0.49
  -7  -3  -2   59.13    2.30
  -6  -3  -2    0.20    0.09
  -5  -3  -2   18.71    0.85
  -4  -3  -2   11.33    0.54
  -3  -3  -2   39.55    1.56
  -2  -3  -2    0.09    0.06
  -1  -3  -2    0.51    0.09
   0  -3  -2    0.07    0.06
   1  -3  -2    0.56    0.11
   2  -3  -2    0.14    0.08
   3  -3  -2   40.16    1.58
   4  -3  -2   11.30    0.53
   5  -3  -2   19.78    0.85
   6  -3  -2    0.25    0.09
   7  -3  -2   57.23    3.32
   8  -3  -2    9.31    0.69
   9  -3  -2   12.95    0.89
  10  -3  -2   68.24    3.85
  11  -3  -2   48.19    2.90
  12  -3  -2    0.24    0.20
  13  -3  -2    3.91    0.54
  14  -3  -2    1.28    0.32
  15  -3  -2    3.35    0.52
 -17  -2  -2    2.30    0.43
 -16  -2  -2   -0.09    0.15
 -15  -2  -2   49.07    2.85
 -14  -2  -2   38.36    2.27
 -13  -2  -2   11.42    0.49
 -12  -2  -2   17.82    0.64
 -11  -2  -2   47.15    1.47
 -10  -2  -2    7.41    0.33
  -9  -2  -2    4.23    0.23
  -8  -2  -2    6.30    0.29
  -7  -2  -2    0.47    0.09
  -6  -2  -2   47.27    1.49
  -5  -2  -2   12.42    0.45
  -4  -2  -2    8.27    0.30
  -3  -2  -2   24.55    0.73
  -2  -2  -2    0.27    0.04
  -1  -2  -2    3.79    0.21
   0  -2  -2   15.95    0.54
   1  -2  -2    3.86    0.17
   2  -2  -2    0.24    0.05
   3  -2  -2   23.59    0.75
   4  -2  -2    7.74    0.37
   5  -2  -2   12.73    0.56
   6  -2  -2   52.32    1.92
   7  -2  -2    0.40    0.15
   8  -2  -2    6.08    0.51
   9  -2  -2    4.62    0.43
  10  -2  -2    7.57    0.61
  11  -2  -2   49.08    2.73
  12  -2  -2   14.81    1.16
  13  -2  -2   10.89    0.90
  14  -2  -2   38.99    2.36
  15  -2  -2   51.66    2.98
  16  -2  -2    0.02    0.19
  17  -2  -2    1.68    0.40
 -18  -1  -2   17.29    1.22
 -17  -1  -2   11.40    0.61
 -16  -1  -2   24.91    1.09
 -15  -1  -2    3.20    0.31
 -14  -1  -2    1.60    0.20
 -13  -1  -2    6.62    0.37
 -12  -1  -2    0.67    0.10
 -11  -1  -2   81.22    2.42
 -10  -1  -2  119.07    3.52
  -9  -1  -2   15.44    0.52
  -8  -1  -2   13.32    0.47
  -7  -1  -2  104.86    3.07
  -6  -1  -2    0.29    0.05
  -5  -1  -2   57.24    1.73
  -4  -1  -2   18.72    0.58
  -3  -1  -2   79.84    2.38
  -2  -1  -2    0.57    0.05
  -1  -1  -2    3.19    0.16
   0  -1  -2    0.04    0.03
   1  -1  -2    2.91    0.17
   2  -1  -2    0.58    0.06
   3  -1  -2   83.88    3.10
   4  -1  -2   18.23    0.74
   5  -1  -2   60.17    2.24
   6  -1  -2    0.46    0.09
   7  -1  -2  112.34    5.74
   8  -1  -2   14.36    0.90
   9  -1  -2   16.55    0.98
  10  -1  -2  103.47    6.55
  11  -1  -2   85.34    4.53
  12  -1  -2    0.59    0.19
  13  -1  -2    6.84    0.40
  14  -1  -2    1.64    0.22
  15  -1  -2    4.38    0.53
  16  -1  -2   26.10    1.71
  17  -1  -2   11.09    0.92
  18  -1  -2   16.24    1.26
 -19   0  -2    0.14    0.15
 -18   0  -2    6.10    0.46
 -17   0  -2    2.42    0.28
 -16   0  -2    0.13    0.11
 -15   0  -2   57.20    2.22
 -14   0  -2   49.81    2.75
 -13   0  -2   14.19    0.62
 -12   0  -2   21.73    0.90
 -11   0  -2   57.98    1.79
 -10   0  -2    8.41    0.34
  -9   0  -2    7.85    0.30
  -8   0  -2    8.57    0.32
  -7   0  -2    1.03    0.09
  -6   0  -2   80.25    2.32
  -5   0  -2   19.31    0.63
  -4   0  -2   11.12    0.37
  -3   0  -2   33.44    1.69
  -2   0  -2    0.15    0.04
  -1   0  -2    3.66    0.17
   2   0  -2    0.15    0.06
   3   0  -2   31.94    1.95
   4   0  -2   10.74    0.67
   6   0  -2   66.72    4.30
   7   0  -2    0.88    0.15
   8   0  -2    8.27    0.41
   9   0  -2    7.31    0.38
  10   0  -2    8.85    0.44
  11   0  -2   58.94    2.26
  12   0  -2   24.28    0.96
  13   0  -2   14.57    0.66
  14   0  -2   49.90    1.93
  15   0  -2   61.65    3.15
  16   0  -2   -0.07    0.16
  17   0  -2    2.35    0.42
  18   0  -2    5.34    0.67
 -18   1  -2   17.06    1.11
 -17   1  -2   10.36    0.83
 -16   1  -2   26.90    1.10
 -15   1  -2    4.45    0.34
 -14   1  -2    1.41    0.19
 -13   1  -2    5.69    0.35
 -12   1  -2    0.64    0.13
 -11   1  -2   83.95    2.42
 -10   1  -2  114.21    4.22
  -9   1  -2   14.74    0.62
  -8   1  -2   14.23    0.45
  -7   1  -2  108.25    3.00
  -6   1  -2    0.15    0.05
  -5   1  -2   57.72    1.70
  -4   1  -2   19.65    0.57
  -3   1  -2   81.43    4.01
  -2   1  -2    0.54    0.05
  -1   1  -2    3.16    0.15
   0   1  -2   -0.02    0.04
   1   1  -2    3.02    0.21
   2   1  -2    0.55    0.09
   3   1  -2   82.51    2.98
   4   1  -2   18.27    0.71
   5   1  -2   60.25    2.16
   6   1  -2    0.29    0.06
   7   1  -2  104.70    3.85
   8   1  -2   14.33    0.59
   9   1  -2   15.67    0.89
  10   1  -2  127.38    4.42
  11   1  -2   74.66    3.02
  12   1  -2    0.85    0.14
  13   1  -2    6.16    0.37
  14   1  -2    1.50    0.27
  15   1  -2    3.61    0.44
  16   1  -2   24.38    1.51
  17   1  -2   10.31    0.80
 -17   2  -2    2.49    0.41
 -16   2  -2   -0.08    0.14
 -15   2  -2   48.76    2.58
 -14   2  -2   36.32    2.04
 -13   2  -2   12.64    0.59
 -12   2  -2   17.81    0.76
 -11   2  -2   47.10    1.74
 -10   2  -2    7.74    0.38
  -9   2  -2    4.19    0.26
  -8   2  -2    6.60    0.34
  -7   2  -2    0.47    0.09
  -6   2  -2   49.84    1.46
  -5   2  -2   13.27    0.44
  -4   2  -2    7.76    0.34
  -3   2  -2   23.30    0.85
  -2   2  -2    0.22    0.06
  -1   2  -2    3.49    0.19
   0   2  -2   16.11    0.61
   1   2  -2    3.46    0.27
   2   2  -2    0.14    0.08
   3   2  -2   22.28    1.24
   4   2  -2    7.72    0.51
   5   2  -2   12.73    0.76
   6   2  -2   50.00    2.54
   7   2  -2    0.62    0.15
   8   2  -2    6.25    0.48
   9   2  -2    3.74    0.40
  10   2  -2    6.67    0.54
  11   2  -2   43.79    2.46
  12   2  -2   17.09    1.07
  13   2  -2   12.23    0.83
  14   2  -2   37.30    2.12
  15   2  -2   47.75    2.67
  16   2  -2    0.16    0.17
  17   2  -2    1.62    0.33
 -16   3  -2   18.23    1.21
 -15   3  -2    2.42    0.40
 -14   3  -2    1.24    0.28
 -13   3  -2    3.89    0.48
 -12   3  -2    0.58    0.19
 -11   3  -2   48.30    2.52
 -10   3  -2   65.56    3.34
  -9   3  -2   12.20    0.76
  -8   3  -2    8.45    0.43
  -7   3  -2   60.45    2.14
  -6   3  -2    0.28    0.08
  -5   3  -2   20.28    0.77
  -4   3  -2   11.21    0.48
  -3   3  -2   37.83    1.41
  -2   3  -2    0.08    0.07
  -1   3  -2    0.28    0.08
   0   3  -2    0.03    0.06
   1   3  -2    0.61    0.11
   2   3  -2    0.02    0.07
   3   3  -2   40.47    2.09
   4   3  -2   11.01    0.71
   5   3  -2   17.69    1.12
   6   3  -2   -0.01    0.11
   7   3  -2   53.36    3.04
   8   3  -2    8.64    0.63
   9   3  -2   11.56    0.80
  10   3  -2   65.58    3.53
  11   3  -2   43.68    2.63
  12   3  -2    0.41    0.19
  13   3  -2    5.40    0.56
  14   3  -2    1.30    0.29
  15   3  -2    3.35    0.46
  16   3  -2   18.57    1.25
 -13   4  -2    8.22    0.70
 -12   4  -2    9.71    0.78
 -11   4  -2   28.92    1.59
 -10   4  -2    5.47    0.54
  -9   4  -2    0.78    0.21
  -8   4  -2    3.70    0.41
  -7   4  -2   -0.04    0.12
  -6   4  -2   18.44    1.05
  -5   4  -2    5.04    0.43
  -4   4  -2    4.28    0.30
  -3   4  -2   13.12    0.57
  -2   4  -2    0.38    0.10
  -1   4  -2    3.95    0.28
   0   4  -2    9.57    0.46
   1   4  -2    3.74    0.28
   2   4  -2    0.15    0.09
   3   4  -2   12.98    0.58
   4   4  -2    4.40    0.32
   5   4  -2    4.37    0.49
   6   4  -2   18.15    1.14
   7   4  -2   -0.03    0.12
   8   4  -2    3.53    0.45
   9   4  -2    0.95    0.26
  10   4  -2    5.83    0.60
  11   4  -2   26.82    1.67
  12   4  -2   11.47    0.86
  13   4  -2    9.32    0.77
  -2   5  -2    0.22    0.20
  -1   5  -2    0.30    0.21
   0   5  -2    0.00    0.16
   1   5  -2   -0.06    0.16
   2   5  -2    0.17    0.19
   3   5  -2   15.86    1.12
   4   5  -2    7.08    0.61
   5   5  -2    4.10    0.53
   6   5  -2    0.55    0.25
   7   5  -2   25.24    1.65
   8   5  -2    4.66    0.60
  -9  -5  -1   16.05    1.21
  -8  -5  -1    2.42    0.46
  -7  -5  -1    6.17    0.74
  -6  -5  -1    0.73    0.28
  -5  -5  -1   16.36    1.15
  -4  -5  -1   11.24    0.90
  -3  -5  -1    7.24    0.67
  -2  -5  -1    5.69    0.65
  -1  -5  -1   12.72    1.00
   0  -5  -1    1.37    0.33
   1  -5  -1   14.16    1.02
   2  -5  -1    5.60    0.63
   3  -5  -1    6.19    0.70
   4  -5  -1    9.48    0.85
 -13  -4  -1    0.12    0.15
 -12  -4  -1    5.14    0.45
 -11  -4  -1    0.32    0.15
 -10  -4  -1    3.03    0.33
  -9  -4  -1   45.98    1.96
  -8  -4  -1   18.97    0.92
  -7  -4  -1    1.15    0.20
  -6  -4  -1   12.37    0.64
  -5  -4  -1   53.59    3.03
  -4  -4  -1    7.54    0.45
  -3  -4  -1    5.77    0.38
  -2  -4  -1    1.37    0.27
  -1  -4  -1    0.68    0.20
   0  -4  -1    0.08    0.13
   1  -4  -1    0.18    0.15
   2  -4  -1    1.02    0.24
   3  -4  -1    6.11    0.35
   4  -4  -1    7.57    0.43
   5  -4  -1   52.14    2.12
   6  -4  -1   12.52    0.63
   7  -4  -1    1.32    0.26
   8  -4  -1   19.74    1.29
   9  -4  -1   45.75    2.80
  10  -4  -1    2.59    0.43
  11  -4  -1    0.16    0.21
  12  -4  -1    5.15    0.62
  13  -4  -1    0.42    0.25
 -16  -3  -1   12.94    1.03
 -15  -3  -1   16.77    1.26
 -14  -3  -1    4.21    0.57
 -13  -3  -1   37.79    1.60
 -12  -3  -1   22.98    1.07
 -11  -3  -1    0.26    0.12
 -10  -3  -1   21.72    0.98
  -9  -3  -1   27.48    1.20
  -8  -3  -1    4.53    0.33
  -7  -3  -1   13.97    0.68
  -6  -3  -1    2.32    0.23
  -5  -3  -1   36.84    1.47
  -4  -3  -1   27.55    0.88
  -3  -3  -1   11.55    0.35
  -2  -3  -1   10.48    0.40
  -1  -3  -1   28.42    0.95
   0  -3  -1    3.32    0.19
   1  -3  -1   29.02    0.96
   2  -3  -1   11.01    0.42
   3  -3  -1   10.94    0.52
   4  -3  -1   26.52    1.13
   5  -3  -1   37.24    1.48
   6  -3  -1    2.73    0.23
   7  -3  -1   14.89    0.68
   8  -3  -1    5.65    0.48
   9  -3  -1   28.60    1.75
  10  -3  -1   22.13    1.42
  11  -3  -1    0.15    0.16
  12  -3  -1   23.11    1.56
  13  -3  -1   39.59    2.35
  14  -3  -1    4.26    0.57
  15  -3  -1   17.59    1.30
  16  -3  -1   10.95    1.00
 -17  -2  -1   13.67    1.10
 -16  -2  -1   27.22    1.82
 -15  -2  -1    1.39    0.22
 -14  -2  -1   18.47    1.28
 -13  -2  -1    0.30    0.09
 -12  -2  -1   10.55    0.42
 -11  -2  -1    1.28    0.14
 -10  -2  -1    5.65    0.28
  -9  -2  -1   97.78    2.85
  -8  -2  -1   41.95    1.34
  -7  -2  -1    0.14    0.07
  -6  -2  -1   21.80    0.74
  -5  -2  -1  103.56    3.23
  -4  -2  -1   15.14    0.52
  -3  -2  -1   10.07    0.34
  -2  -2  -1    1.74    0.10
  -1  -2  -1    0.59    0.06
   0  -2  -1    0.02    0.04
   1  -2  -1    0.28    0.07
   2  -2  -1    1.51    0.11
   3  -2  -1    9.51    0.34
   4  -2  -1   15.81    0.66
   5  -2  -1  114.15    4.18
   6  -2  -1   23.43    0.94
   7  -2  -1    0.33    0.09
   8  -2  -1   42.44    2.49
   9  -2  -1   96.75    5.29
  10  -2  -1    5.81    0.50
  11  -2  -1    1.60    0.29
  12  -2  -1    8.98    0.75
  13  -2  -1    0.22    0.18
  14  -2  -1   18.16    1.33
  15  -2  -1    1.49    0.33
  16  -2  -1   27.73    1.89
  17  -2  -1   14.12    1.14
 -19  -1  -1    0.14    0.23
 -18  -1  -1    5.13    0.59
 -17  -1  -1    3.66    0.35
 -16  -1  -1   16.89    0.82
 -15  -1  -1   23.47    1.02
 -14  -1  -1    6.18    0.38
 -13  -1  -1   55.18    2.07
 -12  -1  -1   40.05    1.25
 -11  -1  -1    1.01    0.11
 -10  -1  -1   34.96    1.12
  -9  -1  -1   47.10    1.39
  -8  -1  -1    6.65    0.27
  -7  -1  -1   25.20    0.79
  -6  -1  -1    4.26    0.19
  -5  -1  -1   71.88    2.17
  -4  -1  -1   64.46    1.88
  -3  -1  -1   20.21    0.58
  -2  -1  -1   17.76    0.55
  -1  -1  -1   56.09    1.62
   0  -1  -1    6.25    0.28
   1  -1  -1   55.73    1.70
   2  -1  -1   18.09    0.57
   3  -1  -1   19.16    0.75
   4  -1  -1   63.61    2.44
   5  -1  -1   77.92    2.83
   6  -1  -1    5.16    0.29
   7  -1  -1   25.32    1.42
   8  -1  -1    6.87    0.33
   9  -1  -1   45.07    2.59
  10  -1  -1   32.16    2.09
  11  -1  -1    1.11    0.23
  12  -1  -1   37.23    2.33
  13  -1  -1   57.46    2.16
  14  -1  -1    5.81    0.56
  15  -1  -1   22.77    1.57
  16  -1  -1   16.42    1.25
  17  -1  -1    3.85    0.54
  18  -1  -1    4.33    0.61
 -19   0  -1   33.07    2.12
 -18   0  -1   17.77    0.84
 -17   0  -1   16.93    0.79
 -16   0  -1   32.70    1.31
 -15   0  -1    1.64    0.21
 -14   0  -1   24.08    1.01
 -13   0  -1    0.64    0.13
 -12   0  -1   14.00    0.61
 -11   0  -1    2.22    0.15
 -10   0  -1    6.79    0.28
  -9   0  -1  125.84    3.66
  -8   0  -1   64.20    1.87
  -7   0  -1    0.07    0.04
  -6   0  -1   31.51    0.93
  -5   0  -1  162.60    4.80
  -4   0  -1   26.21    0.78
  -3   0  -1   13.86    0.43
  -2   0  -1    2.07    0.10
  -1   0  -1    0.20    0.02
   1   0  -1    0.38    0.05
   2   0  -1    2.41    0.15
   3   0  -1   13.12    0.79
   4   0  -1   24.91    1.44
   5   0  -1  149.82    8.93
   7   0  -1    0.03    0.06
   8   0  -1   62.34    2.35
   9   0  -1  129.67    4.61
  10   0  -1    7.55    0.37
  11   0  -1    2.33    0.21
  12   0  -1   13.73    0.62
  13   0  -1    0.36    0.11
  14   0  -1   25.35    1.05
  15   0  -1    1.93    0.34
  16   0  -1   29.98    1.99
  17   0  -1   16.41    1.20
  18   0  -1   19.98    1.33
 -18   1  -1    4.84    0.57
 -17   1  -1    3.22    0.45
 -16   1  -1   19.48    0.83
 -15   1  -1   23.76    1.01
 -14   1  -1    5.96    0.36
 -13   1  -1   55.56    2.06
 -12   1  -1   41.32    1.50
 -11   1  -1    1.17    0.15
 -10   1  -1   36.67    1.12
  -9   1  -1   46.73    1.35
  -8   1  -1    7.24    0.27
  -7   1  -1   26.06    0.77
  -6   1  -1    4.77    0.20
  -5   1  -1   73.19    2.15
  -4   1  -1   64.90    1.84
  -3   1  -1   18.18    0.57
  -2   1  -1   18.54    0.64
  -1   1  -1   55.86    1.90
   0   1  -1    7.19    0.38
   1   1  -1   57.05    2.76
   2   1  -1   16.66    0.94
   3   1  -1   18.50    0.71
   4   1  -1   65.19    2.35
   5   1  -1   73.82    2.71
   6   1  -1    4.72    0.23
   7   1  -1   24.48    0.97
   8   1  -1    6.65    0.33
   9   1  -1   42.38    1.72
  10   1  -1   37.87    1.41
  11   1  -1    1.00    0.14
  12   1  -1   40.61    1.56
  13   1  -1   55.65    2.14
  14   1  -1    6.67    0.38
  15   1  -1   26.52    1.06
  16   1  -1   18.53    1.13
 -16   2  -1   30.51    1.69
 -15   2  -1    1.54    0.30
 -14   2  -1   19.43    1.18
 -13   2  -1    0.03    0.12
 -12   2  -1    9.46    0.68
 -11   2  -1    1.25    0.16
 -10   2  -1    6.02    0.32
  -9   2  -1   98.90    3.39
  -8   2  -1   44.11    1.34
  -7   2  -1    0.11    0.06
  -6   2  -1   22.27    0.71
  -5   2  -1  108.76    3.13
  -4   2  -1   15.89    0.59
  -3   2  -1    9.18    0.38
  -2   2  -1    1.80    0.13
  -1   2  -1    0.28    0.06
   0   2  -1    0.05    0.04
   1   2  -1    0.23    0.08
   2   2  -1    1.68    0.18
   3   2  -1    9.20    0.39
   4   2  -1   15.55    0.63
   5   2  -1  104.17    4.02
   6   2  -1   22.72    0.90
   7   2  -1    0.27    0.08
   8   2  -1   43.75    2.27
   9   2  -1   90.23    4.81
  10   2  -1    5.33    0.45
  11   2  -1    1.24    0.23
  12   2  -1    9.38    0.68
  13   2  -1    0.02    0.12
  14   2  -1   18.83    1.19
  15   2  -1    1.70    0.30
  16   2  -1   31.03    1.70
  17   2  -1   14.68    1.01
 -16   3  -1   11.64    0.91
 -15   3  -1   19.14    1.16
 -14   3  -1    4.56    0.52
 -13   3  -1   37.74    2.05
 -12   3  -1   24.04    1.37
 -11   3  -1    0.27    0.16
 -10   3  -1   22.46    1.24
  -9   3  -1   28.80    1.52
  -8   3  -1    4.78    0.40
  -7   3  -1   15.11    0.63
  -6   3  -1    2.26    0.16
  -5   3  -1   35.98    1.33
  -4   3  -1   26.03    1.02
  -3   3  -1   10.75    0.47
  -2   3  -1   10.10    0.45
  -1   3  -1   29.08    1.06
   0   3  -1    3.31    0.20
   1   3  -1   28.80    1.06
   2   3  -1   10.77    0.46
   3   3  -1   12.35    0.72
   4   3  -1   28.05    1.51
   5   3  -1   34.69    1.94
   6   3  -1    2.36    0.30
   7   3  -1   13.65    0.89
   8   3  -1    4.85    0.43
   9   3  -1   26.78    1.59
  10   3  -1   21.92    1.30
  11   3  -1    0.20    0.15
  12   3  -1   23.57    1.43
  13   3  -1   39.23    2.15
  14   3  -1    5.74    0.58
  15   3  -1   19.68    1.19
  16   3  -1   12.18    0.92
 -14   4  -1   10.38    0.82
 -13   4  -1    0.20    0.20
 -12   4  -1    5.42    0.57
 -11   4  -1    0.24    0.19
 -10   4  -1    3.56    0.43
  -9   4  -1   47.71    2.44
  -8   4  -1   19.34    1.12
  -7   4  -1    1.27    0.23
  -6   4  -1   12.84    0.77
  -5   4  -1   52.16    1.91
  -4   4  -1    7.62    0.39
  -3   4  -1    5.74    0.32
  -2   4  -1    1.05    0.14
  -1   4  -1    0.21    0.09
   0   4  -1    0.02    0.07
   1   4  -1    0.27    0.09
   2   4  -1    1.21    0.16
   3   4  -1    5.90    0.49
   4   4  -1    7.82    0.60
   5   4  -1   52.90    2.81
   6   4  -1   10.90    0.82
   7   4  -1    0.66    0.22
   8   4  -1   17.36    1.19
   9   4  -1   47.52    2.61
  10   4  -1    3.05    0.44
  11   4  -1    0.26    0.20
  12   4  -1    5.17    0.60
  13   4  -1   -0.11    0.17
  -3   5  -1    6.57    0.60
  -2   5  -1    5.86    0.61
  -1   5  -1   13.15    0.93
   0   5  -1    2.24    0.37
   1   5  -1   13.02    0.93
   2   5  -1    5.60    0.59
   3   5  -1    6.59    0.60
   4   5  -1   11.76    0.84
   5   5  -1   15.66    1.06
   6   5  -1    0.91    0.29
   7   5  -1    6.81    0.72
   8   5  -1    2.41    0.43
 -10  -5   0    0.17    0.28
  -9  -5   0   -0.13    0.14
  -8  -5   0   36.74    2.32
  -7  -5   0   -0.06    0.18
  -6  -5   0   46.01    2.69
  -5  -5   0    0.03    0.18
  -4  -5   0  135.72    7.43
  -3  -5   0    0.00    0.15
  -2  -5   0    8.62    0.75
  -1  -5   0   -0.08    0.15
   0  -5   0    0.04    0.16
   1  -5   0    0.05    0.16
   2  -5   0    7.53    0.71
   3  -5   0    0.26    0.19
   4  -5   0  133.81    7.41
   5  -5   0    0.32    0.22
 -13  -4   0    0.04    0.14
 -12  -4   0   30.41    1.41
 -11  -4   0    0.10    0.14
 -10  -4   0   89.12    3.39
  -9  -4   0   -0.10    0.10
  -8  -4   0   10.32    0.58
  -7  -4   0    0.24    0.12
  -6  -4   0   22.61    1.03
  -5  -4   0   -0.08    0.09
  -4  -4   0   13.31    0.95
  -3  -4   0    0.10    0.10
  -2  -4   0   12.51    0.62
  -1  -4   0    0.15    0.10
   0  -4   0  493.20   26.07
   1  -4   0   -0.05    0.11
   2  -4   0   10.47    0.82
   3  -4   0    0.18    0.14
   4  -4   0   14.34    0.95
   5  -4   0    0.01    0.09
   6  -4   0   23.56    1.03
   7  -4   0   -0.04    0.13
   8  -4   0   10.58    0.79
   9  -4   0   -0.01    0.15
  10  -4   0   82.95    4.85
  11  -4   0    0.03    0.19
  12  -4   0   34.41    2.06
  13  -4   0    0.26    0.24
 -16  -3   0    3.32    0.52
 -15  -3   0    0.04    0.17
 -14  -3   0   24.66    1.55
 -13  -3   0    0.11    0.12
 -12  -3   0   11.80    0.61
 -11  -3   0    0.07    0.10
 -10  -3   0    1.30    0.19
  -9  -3   0   -0.03    0.07
  -8  -3   0   61.28    2.02
  -7  -3   0    0.04    0.07
  -6  -3   0   86.53    2.64
  -5  -3   0   -0.02    0.06
  -4  -3   0  328.46    9.57
  -3  -3   0    0.00    0.05
  -2  -3   0   19.76    0.67
  -1  -3   0    0.06    0.05
   0  -3   0    0.09    0.06
   1  -3   0    0.05    0.06
   2  -3   0   19.27    0.69
   3  -3   0    0.12    0.07
   4  -3   0  335.16   10.06
   5  -3   0    0.14    0.08
   6  -3   0   89.63    3.41
   7  -3   0    0.18    0.09
   8  -3   0   66.11    3.67
   9  -3   0    0.05    0.12
  10  -3   0    1.38    0.27
  11  -3   0   -0.13    0.12
  12  -3   0   12.57    0.91
  13  -3   0   -0.07    0.17
  14  -3   0   23.65    1.57
  15  -3   0    0.00    0.20
  16  -3   0    2.79    0.49
 -17  -2   0   -0.04    0.14
 -16  -2   0   29.98    1.30
 -15  -2   0    0.15    0.11
 -14  -2   0   39.06    2.32
 -13  -2   0    0.07    0.10
 -12  -2   0   49.37    1.53
 -11  -2   0    0.05    0.07
 -10  -2   0  156.87    4.60
  -9  -2   0    0.02    0.06
  -8  -2   0   21.75    0.73
  -7  -2   0   -0.04    0.06
  -6  -2   0   65.91    2.04
  -5  -2   0   -0.07    0.05
  -4  -2   0   39.86    1.27
  -3  -2   0   -0.05    0.04
  -2  -2   0   15.94    0.52
  -1  -2   0    0.02    0.03
   0  -2   0  940.54   28.47
   1  -2   0    0.04    0.04
   2  -2   0   15.64    0.55
   3  -2   0    0.04    0.04
   4  -2   0   43.83    1.31
   5  -2   0    0.10    0.07
   6  -2   0   71.39    2.65
   7  -2   0    0.03    0.07
   8  -2   0   22.37    0.97
   9  -2   0   -0.03    0.10
  10  -2   0  149.86    8.53
  11  -2   0    0.03    0.11
  12  -2   0   45.75    2.82
  13  -2   0   -0.07    0.11
  14  -2   0   39.39    2.39
  15  -2   0    0.12    0.17
  16  -2   0   31.21    1.97
  17  -2   0   -0.04    0.20
 -19  -1   0    0.02    0.15
 -18  -1   0   55.77    2.18
 -17  -1   0    0.03    0.11
 -16  -1   0    4.63    0.38
 -15  -1   0   -0.07    0.09
 -14  -1   0   34.33    1.39
 -13  -1   0    0.16    0.09
 -12  -1   0   19.37    0.82
 -11  -1   0   -0.01    0.05
 -10  -1   0    3.76    0.19
  -9  -1   0   -0.01    0.05
  -8  -1   0  116.69    3.41
  -7  -1   0    0.07    0.04
  -6  -1   0  153.13    4.36
  -5  -1   0   -0.16    0.04
  -4  -1   0  604.25   16.48
  -3  -1   0   -0.01    0.03
  -2  -1   0   38.05    1.22
  -1  -1   0    0.02    0.03
   0  -1   0   -0.75    0.05
   1  -1   0    0.06    0.03
   2  -1   0   42.04    1.27
   3  -1   0    0.15    0.05
   4  -1   0  547.92   21.41
   5  -1   0   -0.15    0.05
   6  -1   0  140.34    5.74
   7  -1   0    0.03    0.08
   8  -1   0  125.25    4.46
   9  -1   0    0.03    0.06
  10  -1   0    4.22    0.39
  11  -1   0    0.03    0.11
  12  -1   0   19.51    0.83
  13  -1   0    0.04    0.13
  14  -1   0   33.64    2.14
  15  -1   0    0.14    0.17
  16  -1   0    4.75    0.59
  17  -1   0    0.16    0.19
 -19   0   0    0.15    0.20
 -18   0   0    3.49    0.33
 -17   0   0    0.37    0.14
 -16   0   0   37.12    1.43
 -15   0   0    0.58    0.13
 -14   0   0   44.69    1.74
 -13   0   0    0.41    0.11
 -12   0   0   55.99    2.04
 -11   0   0    0.44    0.14
 -10   0   0  208.43    5.82
  -9   0   0    0.01    0.04
  -8   0   0   32.15    0.94
  -7   0   0   -0.06    0.03
  -6   0   0  116.27    3.26
  -5   0   0   -0.23    0.03
  -4   0   0   63.61    1.87
  -3   0   0   -0.11    0.02
  -2   0   0   20.39    0.52
  -1   0   0    0.07    0.02
   1   0   0   -0.01    0.01
   3   0   0   -0.12    0.03
   4   0   0   66.48    3.18
   5   0   0   -0.18    0.04
   6   0   0  108.49    4.09
   7   0   0    0.06    0.05
   8   0   0   28.67    1.18
   9   0   0    0.13    0.06
  10   0   0  192.42    7.29
  11   0   0    0.40    0.15
  12   0   0   54.91    2.11
  13   0   0    0.13    0.09
  14   0   0   48.30    2.71
  15   0   0    0.15    0.16
  16   0   0   32.98    2.19
  17   0   0    0.56    0.23
  18   0   0    2.48    0.45
  19   0   0   -0.08    0.20
 -18   1   0   55.83    2.95
 -17   1   0   -0.01    0.14
 -16   1   0    4.61    0.51
 -15   1   0   -0.02    0.09
 -14   1   0   36.49    1.38
 -13   1   0    0.10    0.08
 -12   1   0   20.33    0.81
 -11   1   0    0.06    0.06
 -10   1   0    4.45    0.20
  -9   1   0    0.12    0.06
  -8   1   0  116.08    3.35
  -7   1   0   -0.02    0.05
  -6   1   0  151.60    5.21
  -5   1   0   -0.15    0.04
  -4   1   0  567.91   16.05
  -3   1   0    0.03    0.03
  -2   1   0   42.31    1.41
  -1   1   0    0.02    0.03
   0   1   0   -0.79    0.08
   1   1   0    0.07    0.04
   2   1   0   43.37    1.52
   3   1   0    0.06    0.04
   4   1   0  563.77   20.58
   5   1   0   -0.13    0.05
   6   1   0  154.42    5.46
   7   1   0   -0.02    0.05
   8   1   0  112.62    4.27
   9   1   0   -0.06    0.05
  10   1   0    3.79    0.24
  11   1   0    0.06    0.07
  12   1   0   19.55    1.12
  13   1   0   -0.03    0.07
  14   1   0   36.30    1.43
  15   1   0    0.00    0.09
  16   1   0    6.03    0.63
 -17   2   0    0.07    0.18
 -16   2   0   30.86    1.72
 -15   2   0    0.18    0.16
 -14   2   0   37.95    2.08
 -13   2   0    0.09    0.14
 -12   2   0   49.58    2.47
 -11   2   0   -0.13    0.10
 -10   2   0  158.56    4.50
  -9   2   0    0.03    0.06
  -8   2   0   22.41    0.75
  -7   2   0    0.11    0.06
  -6   2   0   68.52    1.98
  -5   2   0   -0.09    0.04
  -4   2   0   42.91    1.46
  -3   2   0   -0.02    0.04
  -2   2   0   16.19    0.60
  -1   2   0    0.03    0.04
   0   2   0  943.82   31.59
   1   2   0    0.01    0.04
   2   2   0   16.54    0.64
   3   2   0   -0.02    0.05
   4   2   0   38.22    1.57
   5   2   0   -0.18    0.06
   6   2   0   66.61    2.54
   7   2   0    0.06    0.07
   8   2   0   21.95    0.90
   9   2   0    0.13    0.08
  10   2   0  156.98    7.78
  11   2   0    0.06    0.11
  12   2   0   45.98    2.54
  13   2   0   -0.01    0.12
  14   2   0   39.95    2.15
  15   2   0    0.07    0.15
  16   2   0   28.73    1.72
 -16   3   0    3.57    0.49
 -15   3   0    0.01    0.17
 -14   3   0   23.74    1.38
 -13   3   0    0.14    0.16
 -12   3   0   12.20    0.80
 -11   3   0   -0.05    0.12
 -10   3   0    1.51    0.25
  -9   3   0    0.07    0.11
  -8   3   0   68.40    2.37
  -7   3   0    0.00    0.08
  -6   3   0   85.77    3.05
  -5   3   0    0.06    0.07
  -4   3   0  334.22   11.16
  -3   3   0    0.11    0.06
  -2   3   0   19.07    0.75
  -1   3   0   -0.01    0.05
   0   3   0    0.06    0.06
   1   3   0    0.00    0.06
   2   3   0   20.57    0.76
   3   3   0    0.00    0.09
   4   3   0  324.61   16.24
   5   3   0   -0.07    0.09
   6   3   0   92.01    4.46
   7   3   0    0.09    0.12
   8   3   0   67.20    3.37
   9   3   0    0.09    0.10
  10   3   0    0.81    0.21
  11   3   0    0.03    0.12
  12   3   0   11.15    0.80
  13   3   0   -0.10    0.13
  14   3   0   20.61    1.37
  15   3   0    0.11    0.16
  16   3   0    4.42    0.51
 -14   4   0   24.82    1.48
 -13   4   0   -0.06    0.16
 -12   4   0   35.04    1.80
 -11   4   0   -0.01    0.15
 -10   4   0   85.68    4.22
  -9   4   0    0.18    0.16
  -8   4   0   10.54    0.69
  -7   4   0    0.07    0.13
  -6   4   0   22.76    0.92
  -5   4   0    0.14    0.09
  -4   4   0   13.34    0.58
  -3   4   0    0.03    0.07
  -2   4   0   12.34    0.79
  -1   4   0    0.12    0.12
   0   4   0  496.51   24.22
   1   4   0    0.18    0.13
   2   4   0   11.50    0.78
   3   4   0   -0.02    0.11
   4   4   0   12.30    0.87
   5   4   0   -0.08    0.11
   6   4   0   21.38    1.35
   7   4   0    0.01    0.12
   8   4   0    9.19    0.73
   9   4   0    0.14    0.16
  10   4   0   82.12    4.47
  11   4   0    0.00    0.16
  12   4   0   29.70    1.86
  13   4   0    0.07    0.19
  -4   5   0  133.62    6.88
  -3   5   0    0.09    0.20
  -2   5   0    8.94    0.70
  -1   5   0   -0.10    0.14
   0   5   0   -0.22    0.14
   1   5   0    0.47    0.22
   2   5   0    8.28    0.69
   3   5   0    0.17    0.17
   4   5   0  136.52    6.90
   5   5   0   -0.04    0.17
   6   5   0   41.83    2.47
   7   5   0    0.11    0.19
  -9  -5   1   14.54    1.16
  -8  -5   1    2.50    0.33
  -7  -5   1    7.30    0.57
  -6  -5   1    1.09    0.24
  -5  -5   1   14.42    1.11
  -4  -5   1   10.74    0.89
  -3  -5   1    6.61    0.65
  -2  -5   1    4.93    0.61
  -1  -5   1   14.14    1.02
   0  -5   1    1.35    0.33
   1  -5   1   12.44    0.99
   2  -5   1    5.27    0.62
   3  -5   1    6.92    0.66
   4  -5   1    9.87    0.88
   5  -5   1   15.02    1.13
 -13  -4   1   -0.06    0.21
 -12  -4   1    4.66    0.43
 -11  -4   1    0.36    0.15
 -10  -4   1    3.58    0.35
  -9  -4   1   51.42    2.81
  -8  -4   1   20.65    1.31
  -7  -4   1    0.92    0.18
  -6  -4   1   12.59    0.65
  -5  -4   1   52.33    2.12
  -4  -4   1    7.76    0.46
  -3  -4   1    5.78    0.38
  -2  -4   1    1.43    0.20
  -1  -4   1    0.41    0.14
   0  -4   1    0.00    0.10
   1  -4   1    0.33    0.15
   2  -4   1    1.04    0.25
   3  -4   1    4.89    0.49
   4  -4   1    7.06    0.62
   5  -4   1   55.99    3.05
   6  -4   1   13.35    0.94
   7  -4   1    0.93    0.17
   8  -4   1   19.45    1.27
   9  -4   1   47.87    2.79
  10  -4   1    2.82    0.43
  11  -4   1    0.68    0.25
  12  -4   1    4.76    0.59
  13  -4   1   -0.06    0.20
  14  -4   1   12.07    0.97
 -16  -3   1   12.24    1.02
 -15  -3   1   15.20    1.24
 -14  -3   1    4.32    0.58
 -13  -3   1   36.82    2.29
 -12  -3   1   23.91    0.88
 -11  -3   1    0.13    0.10
 -10  -3   1   21.50    0.80
  -9  -3   1   28.24    0.98
  -8  -3   1    4.80    0.29
  -7  -3   1   13.76    0.56
  -6  -3   1    2.69    0.20
  -5  -3   1   34.97    1.16
  -4  -3   1   27.08    0.90
  -3  -3   1   11.06    0.42
  -2  -3   1   10.64    0.40
  -1  -3   1   29.04    1.19
   0  -3   1    3.52    0.18
   1  -3   1   28.61    0.97
   2  -3   1   11.11    0.43
   3  -3   1   11.69    0.45
   4  -3   1   28.66    0.93
   5  -3   1   37.81    1.20
   6  -3   1    2.51    0.23
   7  -3   1   15.04    0.69
   8  -3   1    5.21    0.34
   9  -3   1   26.63    1.72
  10  -3   1   22.83    1.41
  11  -3   1    0.34    0.19
  12  -3   1   24.36    1.56
  13  -3   1   36.03    2.32
  14  -3   1    5.06    0.60
  15  -3   1   19.64    1.32
  16  -3   1   14.76    1.08
 -18  -2   1   16.05    1.17
 -17  -2   1   14.06    0.76
 -16  -2   1   30.36    1.26
 -15  -2   1    1.12    0.21
 -14  -2   1   19.06    0.89
 -13  -2   1    0.20    0.12
 -12  -2   1   10.07    0.52
 -11  -2   1    1.29    0.14
 -10  -2   1    6.00    0.28
  -9  -2   1   93.94    2.85
  -8  -2   1   42.36    1.35
  -7  -2   1    0.02    0.06
  -6  -2   1   21.86    0.75
  -5  -2   1  106.93    3.24
  -4  -2   1   14.36    0.64
  -3  -2   1    8.89    0.35
  -2  -2   1    1.47    0.08
  -1  -2   1    0.27    0.04
   0  -2   1   -0.02    0.03
   1  -2   1    0.32    0.05
   2  -2   1    1.58    0.12
   3  -2   1    9.88    0.36
   4  -2   1   15.64    0.54
   5  -2   1  116.34    4.19
   6  -2   1   23.89    0.96
   7  -2   1    0.13    0.08
   8  -2   1   42.98    1.78
   9  -2   1   92.00    3.81
  10  -2   1    5.70    0.50
  11  -2   1    1.70    0.29
  12  -2   1    9.31    0.75
  13  -2   1    0.14    0.15
  14  -2   1   20.70    1.35
  15  -2   1    1.88    0.36
  16  -2   1   28.12    1.88
  17  -2   1   16.26    1.18
 -19  -1   1   -0.14    0.19
 -18  -1   1    5.45    0.63
 -17  -1   1    4.02    0.52
 -16  -1   1   17.51    0.83
 -15  -1   1   23.38    1.02
 -14  -1   1    6.06    0.37
 -13  -1   1   53.23    2.06
 -12  -1   1   39.55    1.51
 -11  -1   1    0.95    0.14
 -10  -1   1   34.60    1.12
  -9  -1   1   44.14    1.38
  -8  -1   1    6.67    0.26
  -7  -1   1   24.35    0.78
  -6  -1   1    4.65    0.19
  -5  -1   1   72.49    2.17
  -4  -1   1   62.11    1.88
  -3  -1   1   17.69    0.59
  -2  -1   1   17.24    0.68
  -1  -1   1   56.60    1.96
   0  -1   1    6.72    0.20
   1  -1   1   54.42    1.72
   2  -1   1   19.30    0.59
   3  -1   1   19.80    0.62
   4  -1   1   67.79    2.47
   5  -1   1   75.72    2.87
   6  -1   1    4.04    0.30
   7  -1   1   26.82    1.11
   8  -1   1    7.78    0.39
   9  -1   1   45.29    1.81
  10  -1   1   34.65    1.39
  11  -1   1    1.12    0.23
  12  -1   1   39.34    2.34
  13  -1   1   51.79    3.19
  14  -1   1    6.75    0.58
  15  -1   1   25.95    1.61
  16  -1   1   20.42    1.31
  17  -1   1    3.74    0.53
 -18   0   1   17.02    1.15
 -17   0   1   16.31    0.77
 -16   0   1   32.52    1.30
 -15   0   1    1.24    0.19
 -14   0   1   25.00    1.01
 -13   0   1    0.75    0.13
 -12   0   1   13.02    0.60
 -11   0   1    2.23    0.20
 -10   0   1    7.14    0.35
  -9   0   1  124.16    3.65
  -8   0   1   64.05    1.85
  -7   0   1    0.09    0.03
  -6   0   1   30.71    0.80
  -5   0   1  173.41    4.14
  -4   0   1   26.10    0.67
  -3   0   1   13.39    0.43
  -2   0   1    2.00    0.09
  -1   0   1    0.23    0.02
   0   0   1    0.08    0.03
   1   0   1    0.21    0.08
   2   0   1    2.16    0.08
   3   0   1   14.71    0.44
   4   0   1   25.94    1.29
   5   0   1  168.79    6.01
   6   0   1   30.07    1.56
   7   0   1   -0.05    0.04
   8   0   1   60.23    2.32
   9   0   1  123.80    4.58
  10   0   1    6.78    0.34
  11   0   1    2.14    0.19
  12   0   1   14.00    0.60
  13   0   1    0.77    0.20
  14   0   1   24.21    1.56
  15   0   1    1.59    0.31
  16   0   1   30.80    2.00
  18   0   1   16.75    1.27
  19   0   1   36.32    2.26
 -18   1   1    4.47    0.55
 -17   1   1    2.91    0.43
 -16   1   1   16.90    1.11
 -15   1   1   23.65    1.38
 -14   1   1    6.07    0.51
 -13   1   1   55.81    2.04
 -12   1   1   37.71    1.48
 -11   1   1    1.07    0.12
 -10   1   1   37.33    1.11
  -9   1   1   46.46    1.37
  -8   1   1    6.37    0.27
  -7   1   1   23.68    0.78
  -6   1   1    4.47    0.20
  -5   1   1   79.00    2.17
  -4   1   1   66.06    1.85
  -3   1   1   18.98    0.56
  -2   1   1   18.05    0.64
  -1   1   1   58.67    1.89
   0   1   1    7.07    0.22
   1   1   1   53.39    2.05
   2   1   1   17.86    0.70
   3   1   1   17.95    0.72
   4   1   1   61.95    2.35
   5   1   1   72.03    2.71
   6   1   1    4.92    0.23
   7   1   1   25.55    0.98
   8   1   1    6.68    0.33
   9   1   1   44.96    1.72
  10   1   1   38.62    1.40
  11   1   1    1.01    0.13
  12   1   1   39.05    1.55
  13   1   1   57.14    2.13
  14   1   1    6.38    0.36
  15   1   1   24.13    1.56
  16   1   1   18.74    1.27
  17   1   1    3.68    0.51
 -17   2   1   16.32    1.04
 -16   2   1   26.57    1.63
 -15   2   1    1.13    0.27
 -14   2   1   21.67    1.20
 -13   2   1    0.20    0.14
 -12   2   1    9.77    0.67
 -11   2   1    1.58    0.20
 -10   2   1    5.89    0.37
  -9   2   1   92.99    3.40
  -8   2   1   45.67    1.36
  -7   2   1    0.23    0.07
  -6   2   1   22.71    0.71
  -5   2   1  115.63    3.13
  -4   2   1   15.86    0.49
  -3   2   1    9.89    0.39
  -2   2   1    1.80    0.12
  -1   2   1    0.19    0.08
   0   2   1    0.05    0.04
   1   2   1    0.27    0.04
   2   2   1    1.53    0.13
   3   2   1    9.61    0.43
   4   2   1   15.32    0.66
   5   2   1  110.32    4.05
   6   2   1   22.40    0.91
   7   2   1    0.15    0.10
   8   2   1   43.38    1.67
   9   2   1   98.96    3.55
  10   2   1    5.50    0.32
  11   2   1    1.20    0.16
  12   2   1   10.61    0.68
  13   2   1   -0.01    0.11
  14   2   1   20.87    1.18
  15   2   1    1.19    0.25
 -15   3   1   16.74    1.12
 -14   3   1    4.81    0.52
 -13   3   1   38.96    2.04
 -12   3   1   24.78    1.36
 -11   3   1    0.23    0.15
 -10   3   1   22.17    1.22
  -9   3   1   31.92    1.22
  -8   3   1    5.33    0.34
  -7   3   1   14.65    0.63
  -6   3   1    2.27    0.20
  -5   3   1   36.38    1.33
  -4   3   1   27.40    1.02
  -3   3   1   11.06    0.47
  -2   3   1   10.07    0.44
  -1   3   1   28.50    1.05
   0   3   1    3.00    0.19
   1   3   1   29.12    1.05
   2   3   1   10.96    0.45
   3   3   1   11.10    0.39
   4   3   1   29.94    1.52
   5   3   1   37.90    1.95
   6   3   1    2.28    0.30
   7   3   1   15.50    0.91
   8   3   1    4.38    0.42
   9   3   1   29.16    1.60
  10   3   1   20.31    1.28
  11   3   1    0.14    0.13
  12   3   1   25.55    1.43
  13   3   1   37.35    2.12
  14   3   1    4.28    0.50
  15   3   1   16.94    1.14
  16   3   1   13.63    0.93
 -14   4   1   11.33    0.84
 -13   4   1   -0.02    0.17
 -12   4   1    6.10    0.57
 -11   4   1    0.45    0.19
 -10   4   1    2.68    0.37
  -9   4   1   48.64    2.42
  -8   4   1   18.70    1.09
  -7   4   1    1.21    0.31
  -6   4   1   13.31    0.89
  -5   4   1   52.59    2.82
  -4   4   1    7.70    0.59
  -3   4   1    5.47    0.48
  -2   4   1    0.86    0.22
  -1   4   1    0.31    0.16
   0   4   1   -0.13    0.11
   1   4   1    0.29    0.15
   2   4   1    1.11    0.22
   3   4   1    5.71    0.49
   4   4   1    8.29    0.61
   5   4   1   49.92    2.80
   6   4   1   10.55    0.82
   7   4   1    1.09    0.25
   8   4   1   19.96    1.22
   9   4   1   45.94    2.59
  10   4   1    3.22    0.44
  11   4   1    0.63    0.22
  12   4   1    4.97    0.57
  13   4   1   -0.02    0.18
  -5   5   1   14.20    1.03
  -4   5   1   10.33    0.82
  -3   5   1    6.78    0.61
  -2   5   1    6.30    0.63
  -1   5   1   12.02    0.92
   0   5   1    1.62    0.32
   1   5   1   14.15    0.95
   2   5   1    4.37    0.56
   3   5   1    7.04    0.62
   4   5   1   11.33    0.84
   5   5   1   12.74    1.00
   6   5   1    0.91    0.28
   7   5   1    7.23    0.65
   8   5   1    2.31    0.42
  -9  -5   2    7.47    0.59
  -8  -5   2    5.40    0.49
  -7  -5   2   27.01    1.28
  -6  -5   2    0.14    0.15
  -5  -5   2    4.32    0.43
  -4  -5   2    5.89    0.68
  -3  -5   2   17.65    1.25
  -2  -5   2    0.31    0.21
  -1  -5   2    0.32    0.20
   0  -5   2    0.03    0.16
   1  -5   2    0.01    0.16
   2  -5   2    0.22    0.20
   3  -5   2   15.42    1.22
   4  -5   2    6.28    0.71
   5  -5   2    4.46    0.61
   6  -5   2    0.44    0.28
 -12  -4   2   10.49    0.62
 -11  -4   2   27.74    1.25
 -10  -4   2    4.56    0.40
  -9  -4   2    0.73    0.17
  -8  -4   2    3.30    0.33
  -7  -4   2    0.17    0.12
  -6  -4   2   17.39    0.86
  -5  -4   2    4.92    0.40
  -4  -4   2    4.41    0.28
  -3  -4   2   12.85    0.66
  -2  -4   2    0.35    0.12
  -1  -4   2    3.74    0.35
   0  -4   2    9.54    0.56
   1  -4   2    3.38    0.34
   2  -4   2    0.54    0.16
   3  -4   2   11.75    0.90
   4  -4   2    3.78    0.48
   5  -4   2    5.43    0.53
   6  -4   2   19.52    1.27
   7  -4   2    0.27    0.20
   8  -4   2    3.15    0.42
   9  -4   2    0.42    0.20
  10  -4   2    5.26    0.58
  11  -4   2   28.23    1.77
  12  -4   2   10.97    0.88
  13  -4   2    8.74    0.78
 -15  -3   2    2.80    0.48
 -14  -3   2    1.16    0.26
 -13  -3   2    4.83    0.44
 -12  -3   2    0.29    0.11
 -11  -3   2   50.32    1.61
 -10  -3   2   67.24    2.12
  -9  -3   2   10.79    0.49
  -8  -3   2    8.66    0.40
  -7  -3   2   57.94    1.83
  -6  -3   2   -0.03    0.07
  -5  -3   2   19.13    0.69
  -4  -3   2   11.17    0.44
  -3  -3   2   39.69    1.24
  -2  -3   2    0.11    0.06
  -1  -3   2    0.50    0.12
   0  -3   2    0.00    0.08
   1  -3   2    0.53    0.08
   2  -3   2    0.12    0.06
   3  -3   2   39.17    1.30
   4  -3   2   11.02    0.44
   5  -3   2   20.81    0.71
   6  -3   2    0.70    0.12
   7  -3   2   60.23    2.35
   8  -3   2    9.04    0.50
   9  -3   2   11.50    0.84
  10  -3   2   71.67    3.84
  11  -3   2   47.52    2.87
  12  -3   2    0.41    0.21
  13  -3   2    4.31    0.55
  14  -3   2    0.76    0.28
  15  -3   2    2.40    0.44
 -18  -2   2    4.99    0.65
 -17  -2   2    1.68    0.27
 -16  -2   2    0.02    0.13
 -15  -2   2   48.71    1.93
 -14  -2   2   39.38    1.55
 -13  -2   2   12.24    0.62
 -12  -2   2   17.08    0.79
 -11  -2   2   45.95    1.46
 -10  -2   2    7.12    0.32
  -9  -2   2    3.69    0.22
  -8  -2   2    6.46    0.29
  -7  -2   2    0.51    0.09
  -6  -2   2   46.18    1.51
  -5  -2   2   11.90    0.46
  -4  -2   2    7.79    0.32
  -3  -2   2   22.44    0.75
  -2  -2   2    0.16    0.06
  -1  -2   2    3.92    0.18
   0  -2   2   15.63    0.53
   1  -2   2    4.21    0.25
   2  -2   2    0.19    0.05
   3  -2   2   23.66    0.79
   4  -2   2    8.12    0.32
   5  -2   2   12.87    0.47
   6  -2   2   50.74    1.96
   7  -2   2    0.57    0.13
   8  -2   2    6.95    0.44
   9  -2   2    4.41    0.36
  10  -2   2    7.45    0.59
  11  -2   2   46.21    2.70
  12  -2   2   18.45    1.19
  13  -2   2   14.22    0.95
  14  -2   2   39.80    2.35
  15  -2   2   48.51    2.95
  16  -2   2    0.19    0.20
  17  -2   2    2.08    0.40
 -19  -1   2   16.05    1.17
 -18  -1   2   18.02    1.19
 -17  -1   2   10.97    0.59
 -15  -1   2    3.47    0.32
 -14  -1   2    2.01    0.22
 -13  -1   2    5.87    0.36
 -12  -1   2    0.90    0.15
 -11  -1   2   80.40    2.91
 -10  -1   2  121.01    3.52
  -9  -1   2   14.59    0.63
  -8  -1   2   12.90    0.57
  -7  -1   2  104.96    3.08
  -6  -1   2    0.20    0.05
  -5  -1   2   57.02    1.74
  -4  -1   2   18.16    0.59
  -3  -1   2   79.96    2.88
  -2  -1   2    0.47    0.06
  -1  -1   2    3.17    0.14
   0  -1   2    0.05    0.03
   1  -1   2    3.14    0.15
   2  -1   2    0.84    0.07
   3  -1   2   83.78    2.53
   4  -1   2   18.89    0.78
   5  -1   2   57.71    2.32
   6  -1   2    0.25    0.09
   7  -1   2  102.52    4.09
   8  -1   2   14.77    0.67
   9  -1   2   14.78    0.52
  10  -1   2  124.16    4.61
  11  -1   2   81.67    4.51
  12  -1   2    1.06    0.23
  13  -1   2    6.18    0.56
  14  -1   2    1.23    0.28
  15  -1   2    3.78    0.49
  16  -1   2   25.18    1.68
  17  -1   2   11.71    0.93
  18  -1   2   15.00    1.22
 -18   0   2    4.96    0.60
 -17   0   2    2.30    0.38
 -16   0   2   -0.10    0.09
 -15   0   2   59.84    2.22
 -14   0   2   48.52    1.83
 -13   0   2   13.77    0.61
 -12   0   2   21.44    0.89
 -11   0   2   59.58    2.14
 -10   0   2    8.89    0.41
  -9   0   2    7.45    0.29
  -8   0   2    8.92    0.27
  -7   0   2    0.91    0.06
  -6   0   2   81.38    2.00
  -5   0   2   20.86    0.54
  -4   0   2   11.80    0.32
  -3   0   2   37.19    0.92
  -2   0   2    0.17    0.04
  -1   0   2    3.94    0.13
   0   0   2   23.90    0.57
   1   0   2    3.96    0.16
   2   0   2    0.15    0.03
   3   0   2   36.21    1.10
   4   0   2   11.47    0.44
   5   0   2   19.49    0.76
   6   0   2   79.70    2.89
   7   0   2    1.00    0.09
   8   0   2    8.44    0.37
   9   0   2    7.48    0.34
  10   0   2    9.32    0.41
  11   0   2   60.70    2.22
  12   0   2   19.91    1.37
  13   0   2   11.75    0.93
  14   0   2   45.58    2.84
  15   0   2   60.23    3.45
  16   0   2    0.10    0.16
  17   0   2    1.70    0.36
  18   0   2    5.70    0.67
  19   0   2    0.24    0.23
 -18   1   2   15.14    1.09
 -17   1   2   11.11    0.82
 -16   1   2   25.35    1.49
 -15   1   2    4.16    0.47
 -14   1   2    1.00    0.23
 -13   1   2    5.75    0.49
 -12   1   2    1.01    0.11
 -11   1   2   79.84    2.37
 -10   1   2  117.98    3.46
  -9   1   2   14.40    0.51
  -8   1   2   12.95    0.47
  -7   1   2  105.91    3.03
  -6   1   2    0.26    0.05
  -5   1   2   60.45    1.73
  -4   1   2   19.53    0.58
  -3   1   2   82.50    2.80
  -2   1   2    0.43    0.06
  -1   1   2    3.27    0.12
   0   1   2    0.08    0.05
   1   1   2    2.96    0.18
   2   1   2    0.54    0.08
   3   1   2   82.25    2.99
   4   1   2   17.22    0.72
   5   1   2   60.01    2.17
   6   1   2    0.13    0.05
   7   1   2  102.49    3.84
   8   1   2   13.19    0.57
   9   1   2   14.59    0.62
  10   1   2  126.15    4.40
  11   1   2   81.04    3.01
  12   1   2    0.93    0.13
  13   1   2    6.85    0.36
  14   1   2    1.08    0.26
  15   1   2    4.01    0.49
  16   1   2   28.31    1.70
  17   1   2   10.21    0.88
 -17   2   2    1.29    0.31
 -16   2   2    0.10    0.17
 -14   2   2   38.14    2.03
 -13   2   2   12.71    0.80
 -12   2   2   17.75    0.79
 -11   2   2   44.00    1.75
 -10   2   2    7.21    0.43
  -9   2   2    4.11    0.30
  -8   2   2    6.77    0.39
  -7   2   2    0.63    0.12
  -6   2   2   48.82    1.76
  -5   2   2   13.06    0.42
  -4   2   2    7.79    0.27
  -3   2   2   23.09    0.84
  -2   2   2    0.17    0.05
  -1   2   2    3.94    0.18
   0   2   2   16.41    0.50
   1   2   2    3.84    0.15
   2   2   2    0.20    0.07
   3   2   2   22.06    0.93
   4   2   2    8.04    0.40
   5   2   2   12.50    0.57
   6   2   2   50.36    1.88
   7   2   2    0.50    0.11
   8   2   2    6.66    0.35
   9   2   2    4.50    0.27
  10   2   2    7.32    0.39
  11   2   2   47.52    1.81
  12   2   2   18.18    0.78
  13   2   2   12.61    0.79
  14   2   2   37.03    2.06
 -16   3   2   18.72    1.18
 -15   3   2    3.01    0.42
 -14   3   2    1.45    0.29
 -13   3   2    4.69    0.49
 -12   3   2    0.71    0.20
 -11   3   2   48.60    2.48
 -10   3   2   66.63    2.54
  -9   3   2   12.37    0.61
  -8   3   2    8.51    0.45
  -7   3   2   57.42    2.11
  -6   3   2    0.33    0.09
  -5   3   2   19.40    0.77
  -4   3   2   11.11    0.47
  -3   3   2   38.74    1.41
  -2   3   2    0.03    0.06
  -1   3   2    0.77    0.09
   0   3   2   -0.02    0.05
   1   3   2    0.52    0.14
   2   3   2    0.11    0.08
   3   3   2   40.00    1.53
   4   3   2   11.62    0.53
   5   3   2   21.59    1.15
   6   3   2    0.44    0.15
   7   3   2   60.90    3.05
   8   3   2    8.32    0.61
   9   3   2   11.57    0.78
  10   3   2   67.68    3.50
  11   3   2   48.99    2.62
  12   3   2    0.60    0.21
  13   3   2    4.35    0.49
  14   3   2    1.43    0.29
  15   3   2    3.42    0.44
  -8   4   2    3.65    0.55
  -7   4   2   -0.04    0.17
  -6   4   2   17.66    1.16
  -5   4   2    4.44    0.51
  -4   4   2    3.66    0.45
  -3   4   2   12.03    0.84
  -2   4   2    0.30    0.15
  -1   4   2    3.53    0.42
   0   4   2   10.20    0.69
   1   4   2    3.83    0.43
   2   4   2    0.27    0.14
   3   4   2   11.64    0.83
   4   4   2    3.80    0.44
   5   4   2    5.11    0.47
   6   4   2   17.43    1.13
   7   4   2   -0.02    0.14
   8   4   2    3.48    0.45
   9   4   2    0.41    0.19
  10   4   2    4.09    0.51
  11   4   2   26.16    1.64
  12   4   2   11.02    0.83
  13   4   2    8.98    0.74
  -6   5   2    0.50    0.26
  -5   5   2    4.29    0.57
  -4   5   2    5.54    0.65
  -3   5   2   19.18    1.18
  -2   5   2    0.24    0.20
  -1   5   2   -0.01    0.16
   0   5   2    0.04    0.15
   1   5   2   -0.03    0.16
   2   5   2   -0.01    0.16
   3   5   2   19.58    1.19
   4   5   2    6.67    0.68
   5   5   2    4.40    0.55
   6   5   2    0.52    0.23
   7   5   2   26.93    1.67
   8   5   2    5.27    0.63
  -9  -5   3    5.79    0.52
  -8  -5   3   26.40    1.71
  -7  -5   3    0.09    0.16
  -6  -5   3    0.11    0.15
  -5  -5   3    2.48    0.33
  -4  -5   3    1.07    0.23
  -3  -5   3    0.02    0.15
  -2  -5   3  112.60    6.31
  -1  -5   3    1.20    0.31
   0  -5   3   28.23    1.87
   1  -5   3    1.48    0.34
   2  -5   3  105.11    6.30
   3  -5   3    0.42    0.23
   4  -5   3    1.17    0.33
   5  -5   3    1.90    0.42
   6  -5   3    0.12    0.23
 -13  -4   3    2.06    0.45
 -12  -4   3    2.53    0.47
 -11  -4   3    0.10    0.13
 -10  -4   3    2.13    0.28
  -9  -4   3    7.26    0.46
  -8  -4   3   11.59    0.64
  -7  -4   3    0.44    0.13
  -6  -4   3  196.23    5.70
  -5  -4   3    8.25    0.40
  -4  -4   3   51.17    1.62
  -3  -4   3    0.15    0.12
  -2  -4   3   16.16    0.80
  -1  -4   3    0.76    0.18
   0  -4   3    0.13    0.11
   1  -4   3    0.83    0.18
   2  -4   3   14.78    0.81
   3  -4   3    0.04    0.12
   4  -4   3   50.41    2.94
   5  -4   3    8.86    0.74
   6  -4   3  189.37   10.39
   7  -4   3    0.49    0.24
   8  -4   3   13.45    1.06
  10  -4   3    2.35    0.38
  11  -4   3   -0.17    0.15
  13  -4   3    1.53    0.36
 -16  -3   3   10.19    1.06
 -15  -3   3    0.34    0.19
 -14  -3   3    0.16    0.15
 -13  -3   3   14.67    0.77
 -12  -3   3   80.62    2.95
 -11  -3   3    0.01    0.08
 -10  -3   3   34.24    1.17
  -9  -3   3   11.54    0.50
  -8  -3   3   56.70    1.83
  -7  -3   3    0.06    0.07
  -6  -3   3    0.36    0.09
  -5  -3   3    5.37    0.29
  -4  -3   3    5.06    0.27
  -3  -3   3    0.25    0.08
  -2  -3   3  291.58    8.20
  -1  -3   3    3.81    0.30
   0  -3   3   54.10    2.19
   1  -3   3    3.86    0.33
   2  -3   3  270.62    8.63
   3  -3   3    0.29    0.07
   4  -3   3    5.12    0.26
   5  -3   3    5.67    0.28
   6  -3   3    0.20    0.08
   7  -3   3   -0.02    0.09
   8  -3   3   58.84    2.37
   9  -3   3   12.26    0.67
  10  -3   3   36.00    2.09
  11  -3   3    0.22    0.17
  12  -3   3   76.81    4.40
  13  -3   3   13.90    1.05
  14  -3   3    0.00    0.17
  15  -3   3    0.35    0.23
 -17  -2   3   12.62    0.71
 -16  -2   3   49.07    1.90
 -15  -2   3    0.24    0.15
 -14  -2   3    0.60    0.17
 -13  -2   3    4.17    0.36
 -12  -2   3    4.89    0.39
 -11  -2   3   -0.05    0.09
 -10  -2   3    5.81    0.38
  -9  -2   3   15.90    0.73
  -8  -2   3   17.92    0.77
  -7  -2   3    0.82    0.11
  -6  -2   3  380.75   11.06
  -5  -2   3   21.80    0.74
  -4  -2   3   99.87    3.11
  -3  -2   3    0.03    0.05
  -2  -2   3   50.24    1.50
  -1  -2   3    1.55    0.13
   0  -2   3   -0.13    0.03
   1  -2   3    1.23    0.10
   2  -2   3   48.30    1.57
   3  -2   3    0.01    0.04
   4  -2   3  106.57    3.27
   5  -2   3   22.32    0.77
   6  -2   3  383.70   14.41
   7  -2   3    0.84    0.15
   8  -2   3   19.13    0.88
   9  -2   3   16.43    0.86
  10  -2   3    6.28    0.45
  11  -2   3    0.02    0.12
  12  -2   3    5.93    0.54
  13  -2   3    4.24    0.51
  14  -2   3    0.29    0.20
  15  -2   3    0.19    0.19
  16  -2   3   50.99    2.89
  17  -2   3   10.89    1.00
 -18  -1   3    6.56    0.50
 -17  -1   3    0.76    0.18
 -16  -1   3   13.34    0.67
 -15  -1   3    0.36    0.13
 -14  -1   3   -0.01    0.09
 -13  -1   3   21.89    0.96
 -12  -1   3  115.43    4.09
 -11  -1   3    0.27    0.09
 -10  -1   3   49.87    1.87
  -9  -1   3   23.23    0.94
  -8  -1   3  113.19    3.13
  -7  -1   3    0.41    0.07
  -6  -1   3    0.32    0.06
  -5  -1   3   11.15    0.39
  -4  -1   3   17.19    0.57
  -3  -1   3    0.44    0.06
  -2  -1   3  514.71   15.52
  -1  -1   3    9.19    0.29
   0  -1   3  100.44    2.59
   1  -1   3    9.38    0.35
   2  -1   3  539.15   16.37
   3  -1   3    0.49    0.07
   4  -1   3   19.64    0.79
   5  -1   3   11.86    0.58
   6  -1   3    0.14    0.09
   7  -1   3    0.42    0.05
   8  -1   3  107.00    4.17
   9  -1   3   23.44    1.05
  10  -1   3   52.72    2.05
  11  -1   3    0.50    0.13
  12  -1   3  117.82    6.34
  13  -1   3   21.96    1.47
  14  -1   3    0.03    0.14
  15  -1   3    0.33    0.21
  16  -1   3   13.26    1.04
  17  -1   3    0.51    0.25
  18  -1   3    7.30    0.70
 -17   0   3   14.56    1.01
 -16   0   3   54.34    2.86
 -15   0   3    0.38    0.13
 -14   0   3    0.21    0.10
 -13   0   3    5.54    0.31
 -12   0   3    9.03    0.44
 -11   0   3   -0.04    0.06
 -10   0   3    8.44    0.33
  -9   0   3   24.29    0.78
  -8   0   3   22.65    0.72
  -7   0   3    1.20    0.11
  -6   0   3  532.60   14.55
  -5   0   3   36.35    0.94
  -4   0   3  155.54    4.00
  -3   0   3    0.05    0.04
  -2   0   3   71.50    1.67
  -1   0   3    2.41    0.12
   0   0   3   -0.09    0.06
   1   0   3    2.63    0.13
   2   0   3   68.93    2.81
   3   0   3    0.00    0.03
   4   0   3  164.25    4.79
   5   0   3   37.72    1.12
   6   0   3  504.20   15.37
   7   0   3    1.34    0.10
   8   0   3   22.48    0.86
   9   0   3   23.81    0.94
  10   0   3    7.60    0.59
  11   0   3   -0.02    0.09
  12   0   3    8.25    0.67
  13   0   3    4.76    0.48
  14   0   3    0.27    0.16
  15   0   3    0.33    0.18
  16   0   3   52.90    3.25
  17   0   3   14.41    1.10
  18   0   3   10.77    0.91
 -18   1   3    6.67    0.68
 -17   1   3    0.41    0.22
 -16   1   3   14.06    0.93
 -15   1   3    0.77    0.22
 -14   1   3    0.36    0.13
 -13   1   3   23.45    0.97
 -12   1   3  117.20    4.03
 -11   1   3    0.25    0.10
 -10   1   3   49.15    1.53
  -9   1   3   22.49    0.76
  -8   1   3  107.43    3.09
  -7   1   3    0.34    0.06
  -6   1   3    0.40    0.06
  -5   1   3   12.07    0.39
  -4   1   3   18.74    0.56
  -3   1   3    0.53    0.07
  -2   1   3  549.61   18.12
  -1   1   3    9.30    0.31
   0   1   3   96.07    3.68
   1   1   3    9.69    0.42
   2   1   3  552.07   19.50
   3   1   3    0.54    0.07
   4   1   3   17.32    0.70
   5   1   3   11.39    0.47
   6   1   3    0.35    0.07
   7   1   3    0.41    0.08
   8   1   3  111.02    3.91
   9   1   3   24.01    0.94
  10   1   3   49.37    1.91
  11   1   3    0.28    0.09
  12   1   3  122.76    6.36
  13   1   3   22.44    1.47
  14   1   3    0.26    0.16
  15   1   3    0.50    0.22
  16   1   3   12.92    1.02
  17   1   3    0.84    0.28
  18   1   3    6.14    0.73
 -17   2   3   13.49    0.93
 -16   2   3   46.80    2.49
 -15   2   3    0.38    0.18
 -14   2   3    0.54    0.19
 -13   2   3    4.22    0.35
 -12   2   3    5.85    0.38
 -11   2   3   -0.09    0.08
 -10   2   3    5.91    0.38
  -9   2   3   16.72    0.75
  -8   2   3   16.78    0.77
  -7   2   3    0.94    0.14
  -6   2   3  383.29   12.92
  -5   2   3   21.38    0.84
  -4   2   3  104.64    3.60
  -3   2   3    0.03    0.04
  -2   2   3   48.79    1.70
  -1   2   3    1.43    0.10
   0   2   3   -0.15    0.03
   1   2   3    1.62    0.16
   2   2   3   48.10    1.87
   3   2   3    0.06    0.06
   4   2   3  103.57    3.91
   5   2   3   21.65    0.92
   6   2   3  390.07   13.85
   7   2   3    1.16    0.14
   8   2   3   17.91    0.75
   9   2   3   16.31    0.71
  10   2   3    6.25    0.35
  11   2   3    0.04    0.08
  12   2   3    6.13    0.35
  13   2   3    4.41    0.31
 -16   3   3    9.98    0.77
 -15   3   3   -0.12    0.15
 -14   3   3    0.09    0.16
 -13   3   3   13.76    0.89
 -12   3   3   73.05    3.78
 -11   3   3    0.02    0.11
 -10   3   3   36.17    1.43
  -9   3   3   12.24    0.61
  -8   3   3   60.12    2.15
  -7   3   3    0.06    0.08
  -6   3   3    0.32    0.09
  -5   3   3    5.52    0.29
  -4   3   3    5.00    0.26
  -3   3   3    0.22    0.13
  -2   3   3  280.80   13.89
  -1   3   3    4.19    0.37
   0   3   3   54.65    2.86
   1   3   3    4.65    0.38
   2   3   3  284.47   10.26
   3   3   3    0.17    0.10
   4   3   3    5.01    0.32
   5   3   3    5.44    0.35
   6   3   3    0.40    0.12
   7   3   3   -0.03    0.11
   8   3   3   58.92    3.03
   9   3   3   12.97    0.80
  10   3   3   33.96    1.90
  11   3   3    0.21    0.14
  12   3   3   75.80    4.00
  13   3   3   13.51    0.92
  14   3   3   -0.07    0.15
  -9   4   3    8.62    0.99
  -8   4   3   11.54    0.99
  -7   4   3   -0.13    0.17
  -6   4   3  189.32    9.67
  -5   4   3    8.51    0.68
  -4   4   3   49.86    2.73
  -3   4   3   -0.03    0.12
  -2   4   3   16.62    1.03
  -1   4   3    0.70    0.20
   0   4   3    0.02    0.13
   1   4   3    0.98    0.22
   2   4   3   16.21    1.02
   3   4   3    0.19    0.15
   4   4   3   50.79    2.71
   5   4   3    8.64    0.65
   6   4   3  190.19    9.61
   7   4   3    0.08    0.14
   8   4   3   12.17    0.85
   9   4   3    6.91    0.60
  10   4   3    2.62    0.40
  11   4   3    0.14    0.18
  12   4   3    2.16    0.39
  13   4   3    1.81    0.37
  -7   5   3    0.44    0.28
  -6   5   3    0.05    0.23
  -5   5   3    2.87    0.46
  -4   5   3    1.00    0.28
  -3   5   3    0.18    0.18
  -2   5   3  109.67    5.86
  -1   5   3    0.88    0.28
   0   5   3   29.99    1.75
   1   5   3    1.41    0.32
   2   5   3  116.55    5.88
   3   5   3    0.12    0.19
   4   5   3    0.87    0.27
   5   5   3    1.98    0.38
   6   5   3    0.20    0.21
   7   5   3   -0.13    0.16
   8   5   3   24.80    1.58
  -8  -5   4    5.95    0.53
  -7  -5   4   39.65    2.38
  -6  -5   4   12.82    0.74
  -5  -5   4   14.46    0.81
  -4  -5   4    3.50    0.39
  -3  -5   4   31.31    1.54
  -2  -5   4    8.50    0.63
  -1  -5   4   18.95    1.36
   0  -5   4    0.07    0.19
   1  -5   4   18.88    1.36
   2  -5   4    7.45    0.76
   3  -5   4   30.97    2.13
   4  -5   4    3.24    0.52
   5  -5   4   15.02    1.16
   6  -5   4   13.53    1.09
   7  -5   4   37.95    2.49
 -12  -4   4    9.52    0.90
 -11  -4   4   32.45    1.98
 -10  -4   4   35.04    1.24
  -9  -4   4   16.45    0.83
  -8  -4   4   -0.02    0.10
  -7  -4   4    3.71    0.29
  -6  -4   4    0.83    0.15
  -5  -4   4    5.62    0.34
  -4  -4   4    7.76    0.39
  -3  -4   4   47.05    1.96
  -2  -4   4   11.86    0.66
  -1  -4   4   54.54    2.28
   0  -4   4    9.07    0.58
   1  -4   4   54.38    2.30
   2  -4   4   12.31    0.68
   3  -4   4   48.10    1.99
   4  -4   4    7.27    0.52
   5  -4   4    5.31    0.64
   6  -4   4    0.53    0.26
   7  -4   4    4.04    0.59
   8  -4   4    0.12    0.23
 -16  -3   4   23.59    1.56
 -15  -3   4    9.30    0.97
 -14  -3   4   19.92    1.34
 -13  -3   4   16.60    0.82
 -12  -3   4    1.10    0.22
 -11  -3   4    4.53    0.39
 -10  -3   4    4.77    0.30
  -9  -3   4    2.46    0.22
  -8  -3   4   12.72    0.51
  -7  -3   4   77.81    2.39
  -6  -3   4   27.12    0.94
  -5  -3   4   26.56    0.91
  -4  -3   4    5.46    0.29
  -3  -3   4   75.16    2.31
  -2  -3   4   21.56    0.75
  -1  -3   4   49.57    1.56
   0  -3   4    0.11    0.10
   1  -3   4   48.92    2.02
   2  -3   4   20.25    0.97
   3  -3   4   75.55    2.97
   4  -3   4    5.41    0.28
   5  -3   4   26.99    0.94
   6  -3   4   27.96    0.97
   7  -3   4   79.07    3.09
   8  -3   4   13.17    0.66
   9  -3   4    2.80    0.31
  10  -3   4    5.13    0.43
  11  -3   4    3.51    0.45
  12  -3   4    1.75    0.33
  13  -3   4   16.40    1.13
  14  -3   4   18.92    1.31
 -17  -2   4    1.28    0.25
 -16  -2   4    0.25    0.17
 -15  -2   4    5.13    0.44
 -14  -2   4    5.09    0.42
 -13  -2   4   13.08    0.67
 -12  -2   4   15.76    0.77
 -11  -2   4   55.22    2.11
 -10  -2   4   67.04    2.01
  -9  -2   4   30.42    0.99
  -8  -2   4    0.10    0.07
  -7  -2   4    6.94    0.31
  -6  -2   4    1.86    0.16
  -5  -2   4   18.37    0.63
  -4  -2   4   17.58    0.62
  -3  -2   4  101.12    3.10
  -2  -2   4   29.09    0.95
  -1  -2   4  115.31    3.45
   0  -2   4   18.94    0.56
   1  -2   4  117.28    3.62
   2  -2   4   28.23    0.98
   3  -2   4  102.43    3.25
   4  -2   4   18.23    0.65
   5  -2   4   17.58    0.66
   6  -2   4    1.72    0.19
   7  -2   4    6.79    0.44
   8  -2   4    0.19    0.11
   9  -2   4   30.06    1.39
  10  -2   4   64.44    2.69
  11  -2   4   56.85    2.32
  12  -2   4   15.90    1.11
  13  -2   4   13.82    0.97
  14  -2   4    4.15    0.54
  15  -2   4    4.78    0.60
  16  -2   4    0.85    0.29
  17  -2   4    1.46    0.36
 -18  -1   4    2.71    0.32
 -17  -1   4    4.91    0.41
 -16  -1   4   28.76    1.81
 -15  -1   4   12.27    0.64
 -14  -1   4   28.05    1.14
 -13  -1   4   22.66    0.98
 -12  -1   4    2.48    0.24
 -11  -1   4    5.08    0.34
 -10  -1   4    7.73    0.40
  -9  -1   4    2.42    0.21
  -8  -1   4   20.74    0.69
  -7  -1   4  135.49    3.92
  -6  -1   4   54.60    1.61
  -5  -1   4   51.41    1.53
  -4  -1   4    8.97    0.33
  -3  -1   4  136.43    4.13
  -2  -1   4   43.86    1.17
  -1  -1   4  106.07    2.78
   0  -1   4   -0.02    0.04
   1  -1   4  105.79    2.79
   2  -1   4   43.58    1.41
   3  -1   4  144.53    4.37
   4  -1   4    8.67    0.47
   5  -1   4   51.70    2.09
   6  -1   4   52.67    2.19
   7  -1   4  126.73    5.18
   8  -1   4   21.40    0.96
   9  -1   4    2.37    0.26
  10  -1   4    8.25    0.48
  11  -1   4    5.39    0.38
  12  -1   4    2.57    0.36
  13  -1   4   22.84    1.50
  14  -1   4   26.93    1.72
  15  -1   4   13.01    0.98
  16  -1   4   27.94    1.91
  17  -1   4    4.90    0.62
  18  -1   4    3.06    0.50
 -18   0   4    0.41    0.24
 -17   0   4    2.45    0.41
 -16   0   4    0.65    0.24
 -15   0   4    5.69    0.57
 -14   0   4    5.58    0.35
 -13   0   4   15.48    0.67
 -12   0   4   21.14    0.89
 -11   0   4   71.27    2.10
 -10   0   4   91.79    2.56
  -9   0   4   41.10    1.27
  -8   0   4    0.25    0.07
  -7   0   4    9.15    0.35
  -6   0   4    2.78    0.13
  -5   0   4   29.56    0.82
  -4   0   4   25.88    0.71
  -3   0   4  156.94    3.99
  -2   0   4   48.48    1.12
  -1   0   4  184.08    4.09
   0   0   4   28.74    0.70
   1   0   4  177.09    4.08
   2   0   4   45.58    1.47
   3   0   4  155.48    4.79
   4   0   4   27.21    0.84
   5   0   4   32.29    0.98
   6   0   4    2.66    0.13
   7   0   4    9.32    0.38
   8   0   4    0.25    0.05
   9   0   4   40.92    2.37
  10   0   4   76.43    4.80
  11   0   4   68.83    3.94
  12   0   4   21.57    1.39
  13   0   4   12.40    1.01
  14   0   4    4.96    0.52
  15   0   4    5.06    0.59
  16   0   4    0.33    0.21
  17   0   4    1.49    0.36
  18   0   4    0.13    0.22
 -18   1   4    2.58    0.43
 -17   1   4    4.53    0.55
 -16   1   4   29.41    1.69
 -15   1   4   12.35    0.65
 -14   1   4   27.55    1.14
 -13   1   4   22.58    0.99
 -12   1   4    2.13    0.24
 -11   1   4    5.06    0.35
 -10   1   4    7.21    0.43
  -9   1   4    3.02    0.16
  -8   1   4   21.81    0.70
  -7   1   4  142.61    3.86
  -6   1   4   56.46    1.60
  -5   1   4   52.76    1.51
  -4   1   4    9.85    0.32
  -3   1   4  144.67    4.02
  -2   1   4   42.83    1.30
  -1   1   4  108.41    3.11
   0   1   4    0.04    0.03
   1   1   4  109.43    3.97
   2   1   4   45.77    1.66
   3   1   4  137.90    5.16
   4   1   4    8.78    0.39
   5   1   4   48.76    1.89
   6   1   4   53.96    2.00
   7   1   4  128.40    4.89
   8   1   4   20.99    0.84
   9   1   4    2.39    0.18
  10   1   4    7.74    0.38
  11   1   4    5.18    0.49
  12   1   4    2.06    0.34
  13   1   4   24.52    1.52
  14   1   4   24.04    1.70
  15   1   4   12.62    0.97
  16   1   4   31.10    1.94
  17   1   4    5.50    0.66
  18   1   4    3.33    0.54
 -17   2   4    1.62    0.34
 -16   2   4    0.27    0.19
 -15   2   4    4.28    0.49
 -14   2   4    4.54    0.39
 -13   2   4   13.02    0.65
 -12   2   4   16.64    0.75
 -11   2   4   55.76    2.08
 -10   2   4   67.20    2.40
  -9   2   4   30.72    1.20
  -8   2   4    0.10    0.08
  -7   2   4    7.17    0.39
  -6   2   4    1.64    0.17
  -5   2   4   18.01    0.72
  -4   2   4   17.41    0.69
  -3   2   4  107.70    3.57
  -2   2   4   29.69    1.05
  -1   2   4  117.59    3.36
   0   2   4   18.76    0.80
   1   2   4  113.30    4.31
   2   2   4   29.79    1.18
   3   2   4  103.12    3.88
   4   2   4   17.52    0.77
   5   2   4   19.31    0.78
   6   2   4    1.67    0.17
   7   2   4    7.15    0.36
   8   2   4    0.16    0.08
   9   2   4   29.57    1.20
  10   2   4   64.65    2.48
  11   2   4   57.46    2.14
  12   2   4   16.92    0.74
  13   2   4   13.11    1.00
  14   2   4    5.82    0.65
 -16   3   4   20.41    1.30
 -15   3   4    8.53    0.70
 -14   3   4   16.81    1.09
 -13   3   4   15.59    0.96
 -12   3   4    1.72    0.23
 -11   3   4    3.61    0.32
 -10   3   4    4.99    0.35
  -9   3   4    3.28    0.29
  -8   3   4   12.05    0.58
  -7   3   4   75.67    2.76
  -6   3   4   27.36    1.64
  -5   3   4   25.53    1.55
  -4   3   4    4.93    0.45
  -3   3   4   76.29    3.89
  -2   3   4   21.48    1.24
  -1   3   4   49.04    2.60
   0   3   4    0.07    0.11
   1   3   4   50.00    1.92
   2   3   4   20.91    0.91
   3   3   4   71.72    2.86
   4   3   4    5.53    0.36
   5   3   4   25.10    1.13
   6   3   4   26.76    1.18
   7   3   4   77.49    2.99
   8   3   4   12.22    0.63
   9   3   4    2.88    0.35
  10   3   4    5.17    0.44
  11   3   4    3.03    0.37
  12   3   4    1.75    0.30
  13   3   4   14.60    0.99
 -10   4   4   33.21    2.41
  -9   4   4   18.70    1.43
  -8   4   4    0.14    0.26
  -7   4   4    3.96    0.56
  -6   4   4    0.52    0.23
  -5   4   4    5.91    0.62
  -4   4   4    7.58    0.63
  -3   4   4   44.47    2.56
  -2   4   4   11.40    0.82
  -1   4   4   54.83    2.96
   0   4   4    9.72    0.71
   1   4   4   54.67    2.95
   2   4   4   11.00    0.81
   3   4   4   45.14    2.54
   4   4   4    7.41    0.61
   5   4   4    5.86    0.50
   6   4   4    0.72    0.22
   7   4   4    4.10    0.46
   8   4   4    0.24    0.16
   9   4   4   17.03    1.10
  10   4   4   34.19    2.00
  11   4   4   32.31    1.87
  12   4   4   11.76    0.82
  13   4   4    8.65    0.75
  -8   5   4    5.31    0.82
  -7   5   4   35.69    2.31
  -6   5   4   12.71    1.01
  -5   5   4   13.50    1.06
  -4   5   4    2.91    0.48
  -3   5   4   34.45    2.00
  -2   5   4    8.37    0.74
  -1   5   4   19.03    1.27
   0   5   4    0.05    0.17
   1   5   4   19.01    1.27
   2   5   4    8.70    0.74
   3   5   4   33.13    1.97
   4   5   4    3.07    0.47
   5   5   4   14.24    1.02
   6   5   4   11.47    0.93
   7   5   4   37.90    2.21
  -7  -5   5    1.26    0.26
  -6  -5   5    0.26    0.19
  -5  -5   5    3.10    0.39
  -4  -5   5    8.30    0.60
  -3  -5   5   23.52    1.23
  -2  -5   5    7.62    0.62
  -1  -5   5    0.01    0.17
   0  -5   5    5.96    0.56
   1  -5   5    0.09    0.20
   2  -5   5    7.55    0.83
   3  -5   5   22.76    1.69
   4  -5   5    6.94    0.84
   5  -5   5    3.43    0.57
   6  -5   5    0.54    0.32
   7  -5   5    0.29    0.33
 -12  -4   5   16.50    0.87
 -11  -4   5    2.01    0.32
 -10  -4   5    3.10    0.28
  -9  -4   5   43.94    1.53
  -8  -4   5    7.16    0.41
  -7  -4   5    2.45    0.24
  -6  -4   5    8.30    0.44
  -5  -4   5   19.84    0.78
  -4  -4   5    1.94    0.22
  -3  -4   5    9.92    0.60
  -2  -4   5    2.70    0.32
  -1  -4   5   25.15    1.21
   0  -4   5    0.05    0.12
   1  -4   5   26.72    1.24
   2  -4   5    3.09    0.35
   3  -4   5   10.59    0.63
   4  -4   5    2.75    0.33
   5  -4   5   20.23    1.01
   6  -4   5    9.84    0.61
   7  -4   5    2.92    0.54
   8  -4   5    7.62    0.93
   9  -4   5   52.79    3.12
 -15  -3   5   18.44    1.37
 -14  -3   5    3.11    0.37
 -13  -3   5   41.65    1.74
 -12  -3   5    5.70    0.49
 -11  -3   5    0.84    0.20
 -10  -3   5    6.97    0.37
  -9  -3   5   13.31    0.55
  -8  -3   5    1.12    0.15
  -7  -3   5    3.66    0.25
  -6  -3   5    0.92    0.14
  -5  -3   5    6.55    0.32
  -4  -3   5   17.59    0.64
  -3  -3   5   50.83    1.62
  -2  -3   5   13.23    0.52
  -1  -3   5    1.13    0.15
   0  -3   5   20.62    1.02
   1  -3   5    1.33    0.21
   2  -3   5   13.13    0.68
   3  -3   5   51.44    2.09
   4  -3   5   16.86    0.83
   5  -3   5    6.48    0.34
   6  -3   5    0.97    0.14
   7  -3   5    3.53    0.29
   8  -3   5    1.32    0.20
   9  -3   5   13.57    0.76
  10  -3   5    8.15    0.55
  11  -3   5    1.02    0.25
  12  -3   5    6.27    0.59
  13  -3   5   43.27    2.56
  14  -3   5    2.63    0.44
 -16  -2   5   12.56    0.72
 -15  -2   5   22.23    1.03
 -14  -2   5    3.37    0.34
 -13  -2   5    6.66    0.47
 -12  -2   5   29.21    1.22
 -11  -2   5    3.32    0.32
 -10  -2   5    4.72    0.35
  -9  -2   5   88.90    2.68
  -8  -2   5   12.99    0.50
  -7  -2   5    2.38    0.18
  -6  -2   5   14.74    0.54
  -5  -2   5   41.32    1.31
  -4  -2   5    9.49    0.38
  -3  -2   5   41.28    1.30
  -2  -2   5    5.00    0.25
  -1  -2   5   64.48    2.43
   0  -2   5   -0.02    0.04
   1  -2   5   67.26    2.11
   2  -2   5    4.90    0.24
   3  -2   5   39.78    1.36
   4  -2   5    9.23    0.40
   5  -2   5   40.61    1.39
   6  -2   5   14.77    0.72
   7  -2   5    2.48    0.27
   8  -2   5   13.36    0.74
   9  -2   5   90.45    3.59
  10  -2   5    5.18    0.39
  11  -2   5    3.30    0.34
  12  -2   5   28.69    1.79
  13  -2   5    7.33    0.65
  14  -2   5    2.89    0.43
  15  -2   5   22.37    1.51
  16  -2   5   15.16    1.09
 -17  -1   5   24.31    1.48
 -16  -1   5   46.85    1.84
 -15  -1   5   25.92    1.11
 -14  -1   5    3.87    0.33
 -13  -1   5   57.54    2.17
 -12  -1   5    9.49    0.48
 -11  -1   5    1.16    0.17
 -10  -1   5   10.12    0.50
  -9  -1   5   21.02    0.85
  -8  -1   5    4.35    0.21
  -7  -1   5   11.52    0.43
  -6  -1   5    1.52    0.13
  -5  -1   5    9.81    0.38
  -4  -1   5   30.46    0.98
  -3  -1   5   95.77    2.79
  -2  -1   5   21.03    0.61
  -1  -1   5    4.32    0.19
   0  -1   5   55.16    1.49
   1  -1   5    5.08    0.20
   2  -1   5   20.79    0.75
   3  -1   5   92.16    2.96
   4  -1   5   31.58    1.09
   5  -1   5   10.01    0.54
   6  -1   5    1.75    0.20
   7  -1   5   11.46    0.61
   8  -1   5    4.08    0.31
   9  -1   5   20.23    0.95
  10  -1   5   10.43    0.57
  11  -1   5    0.62    0.16
  12  -1   5    8.95    0.71
  13  -1   5   53.99    3.33
  14  -1   5    3.90    0.50
  15  -1   5   26.90    1.70
  16  -1   5   46.08    2.82
  17  -1   5   20.71    1.54
 -17   0   5   10.85    0.85
 -16   0   5   15.05    1.03
 -15   0   5   26.68    1.57
 -14   0   5    2.94    0.41
 -13   0   5   10.23    0.51
 -12   0   5   38.00    1.49
 -11   0   5    4.00    0.24
 -10   0   5    6.90    0.31
  -9   0   5  117.41    3.39
  -8   0   5   17.29    0.59
  -7   0   5    1.77    0.14
  -6   0   5   17.68    0.53
  -5   0   5   58.47    1.53
  -4   0   5   16.27    0.48
  -3   0   5   75.64    1.73
  -2   0   5    7.23    0.23
  -1   0   5  113.49    2.58
   0   0   5    0.09    0.05
   1   0   5  110.58    2.58
   2   0   5    6.70    0.30
   3   0   5   72.02    2.29
   4   0   5   16.08    0.57
   5   0   5   59.47    1.83
   6   0   5   19.42    0.63
   7   0   5    2.24    0.22
   8   0   5   17.16    1.09
   9   0   5  119.14    6.40
  10   0   5    6.00    0.53
  11   0   5    3.86    0.45
  12   0   5   42.60    2.35
  13   0   5   10.28    0.80
  14   0   5    2.97    0.43
  15   0   5   27.73    1.77
  16   0   5   16.84    1.18
  17   0   5   11.28    0.93
  18   0   5    4.33    0.61
 -17   1   5   22.81    1.39
 -16   1   5   47.62    2.48
 -15   1   5   25.74    1.12
 -14   1   5    4.02    0.35
 -13   1   5   54.77    2.15
 -12   1   5    8.52    0.50
 -11   1   5    0.85    0.16
 -10   1   5   10.59    0.52
  -9   1   5   20.63    0.86
  -8   1   5    4.56    0.30
  -7   1   5   11.99    0.42
  -6   1   5    1.72    0.12
  -5   1   5   10.31    0.37
  -4   1   5   31.98    0.96
  -3   1   5   94.13    2.71
  -2   1   5   21.36    0.68
  -1   1   5    4.58    0.20
   0   1   5   56.30    1.65
   1   1   5    4.65    0.27
   2   1   5   22.19    0.87
   3   1   5   98.55    3.47
   4   1   5   29.73    1.20
   5   1   5    9.58    0.44
   6   1   5    1.78    0.14
   7   1   5   11.15    0.51
   8   1   5    3.54    0.23
   9   1   5   19.28    0.82
  10   1   5   10.36    0.76
  11   1   5    1.02    0.24
  12   1   5    9.24    0.73
  13   1   5   57.21    3.36
  14   1   5    3.99    0.52
  15   1   5   29.25    1.75
  16   1   5   43.93    2.83
  17   1   5   22.37    1.58
  18   1   5    0.28    0.27
 -16   2   5   12.94    0.91
 -15   2   5   21.33    0.98
 -14   2   5    2.46    0.29
 -13   2   5    7.30    0.47
 -12   2   5   28.20    1.18
 -11   2   5    3.60    0.31
 -10   2   5    5.17    0.34
  -9   2   5   89.88    3.17
  -8   2   5   13.57    0.62
  -7   2   5    2.87    0.24
  -6   2   5   14.59    0.64
  -5   2   5   41.80    1.52
  -4   2   5    9.66    0.41
  -3   2   5   41.92    1.47
  -2   2   5    5.16    0.23
  -1   2   5   65.65    2.51
   0   2   5    0.17    0.08
   1   2   5   63.92    2.51
   2   2   5    5.20    0.32
   3   2   5   41.08    1.62
   4   2   5    9.50    0.47
   5   2   5   41.97    1.63
   6   2   5   14.49    0.65
   7   2   5    2.22    0.21
   8   2   5   13.07    0.60
   9   2   5   85.94    3.31
  10   2   5    4.74    0.31
  11   2   5    2.96    0.26
  12   2   5   27.72    1.83
  13   2   5    8.76    0.73
  14   2   5    2.87    0.47
  15   2   5   24.82    1.59
 -13   3   5   41.70    2.57
 -12   3   5    6.60    0.84
 -11   3   5    1.35    0.44
 -10   3   5    7.14    0.94
  -9   3   5   11.05    1.24
  -8   3   5    0.55    0.31
  -7   3   5    4.50    0.60
  -6   3   5    0.67    0.24
  -5   3   5    5.82    0.62
  -4   3   5   16.19    1.07
  -3   3   5   49.69    2.72
  -2   3   5   12.64    0.84
  -1   3   5    1.00    0.21
   0   3   5   23.74    0.98
   1   3   5    1.15    0.17
   2   3   5   12.88    0.62
   3   3   5   48.60    2.00
   4   3   5   16.12    0.78
   5   3   5    7.36    0.42
   6   3   5    0.76    0.15
   7   3   5    3.74    0.32
   8   3   5    1.01    0.17
   9   3   5   13.73    0.68
  10   3   5    6.49    0.53
  11   3   5    1.01    0.22
  12   3   5    6.32    0.52
 -11   4   5    1.61    0.59
 -10   4   5    3.32    0.74
  -9   4   5   45.77    2.93
  -8   4   5    6.86    0.87
  -7   4   5    2.31    0.47
  -6   4   5    8.89    0.78
  -5   4   5   21.05    1.34
  -4   4   5    2.13    0.36
  -3   4   5   10.36    0.78
  -2   4   5    2.92    0.41
  -1   4   5   25.00    1.53
   0   4   5   -0.01    0.13
   1   4   5   25.76    1.53
   2   4   5    3.38    0.42
   3   4   5   11.75    0.78
   4   4   5    2.21    0.33
   5   4   5   21.35    1.27
   6   4   5    8.66    0.68
   7   4   5    2.15    0.34
   8   4   5    7.68    0.62
   9   4   5   44.50    2.50
  10   4   5    2.33    0.38
  11   4   5    1.97    0.35
  12   4   5   15.28    1.05
  -8   5   5    0.14    0.36
  -7   5   5    0.84    0.37
  -6   5   5    0.61    0.32
  -5   5   5    2.65    0.48
  -4   5   5    5.85    0.73
  -3   5   5   24.00    1.58
  -2   5   5    6.76    0.75
  -1   5   5    0.12    0.20
   0   5   5    7.54    0.66
   1   5   5    0.02    0.18
   2   5   5    7.62    0.68
   3   5   5   24.94    1.56
   4   5   5    6.58    0.73
   5   5   5    3.20    0.49
   6   5   5    0.47    0.23
   7   5   5    1.08    0.32
  -6  -5   6   32.61    1.55
  -5  -5   6    0.17    0.18
  -4  -5   6   24.78    1.24
  -3  -5   6    0.58    0.22
  -2  -5   6    4.67    0.50
  -1  -5   6    0.86    0.25
   0  -5   6   -0.05    0.17
   1  -5   6    1.04    0.26
   2  -5   6    4.53    0.65
   3  -5   6    0.50    0.30
   4  -5   6   23.23    1.71
   5  -5   6   -0.25    0.21
   6  -5   6   33.54    2.28
   7  -5   6   12.51    1.21
 -12  -4   6   28.15    1.77
 -11  -4   6   31.31    1.39
 -10  -4   6   45.99    1.88
  -9  -4   6    0.16    0.12
  -8  -4   6    2.85    0.27
  -7  -4   6    0.14    0.11
  -6  -4   6    4.77    0.35
  -5  -4   6   -0.03    0.10
  -4  -4   6    3.40    0.29
  -3  -4   6    6.72    0.49
  -2  -4   6   11.55    0.69
  -1  -4   6    0.63    0.19
   0  -4   6  138.67    5.49
   1  -4   6    0.28    0.17
   2  -4   6   11.47    0.70
   3  -4   6    6.58    0.54
   4  -4   6    3.50    0.38
   5  -4   6   -0.11    0.14
   6  -4   6    5.42    0.50
   7  -4   6    0.18    0.26
   8  -4   6    3.31    0.68
   9  -4   6    0.23    0.40
 -13  -3   6    0.16    0.16
 -12  -3   6    0.36    0.18
 -11  -3   6    2.57    0.32
 -10  -3   6    0.99    0.21
  -9  -3   6    0.07    0.09
  -8  -3   6   31.60    1.09
  -7  -3   6   28.52    1.01
  -6  -3   6   59.47    1.88
  -5  -3   6    0.08    0.08
  -4  -3   6   44.75    1.46
  -3  -3   6    1.03    0.14
  -2  -3   6    8.42    0.41
  -1  -3   6    1.73    0.19
   0  -3   6    0.03    0.10
   1  -3   6    1.69    0.24
   2  -3   6    9.51    0.54
   3  -3   6    0.89    0.19
   4  -3   6   44.82    1.90
   5  -3   6    0.10    0.13
   6  -3   6   60.99    1.99
   7  -3   6   29.15    1.31
   8  -3   6   33.03    1.48
   9  -3   6    0.11    0.12
  10  -3   6    1.10    0.22
  11  -3   6    2.77    0.34
  12  -3   6    0.22    0.17
  13  -3   6   -0.04    0.16
  14  -3   6    7.75    0.71
 -16  -2   6    0.90    0.22
 -15  -2   6    4.48    0.42
 -14  -2   6   28.24    1.24
 -13  -2   6    0.13    0.13
 -12  -2   6   42.98    1.69
 -11  -2   6   54.61    2.11
 -10  -2   6   78.71    2.91
  -9  -2   6    0.72    0.16
  -8  -2   6    9.15    0.38
  -7  -2   6    0.27    0.09
  -6  -2   6   14.31    0.52
  -5  -2   6    0.04    0.06
  -4  -2   6    8.55    0.36
  -3  -2   6   14.95    0.56
  -2  -2   6   19.47    0.69
  -1  -2   6    0.97    0.13
   0  -2   6  289.46    7.36
   1  -2   6    0.64    0.10
   2  -2   6   19.44    0.70
   3  -2   6   15.22    0.58
   4  -2   6    7.84    0.37
   5  -2   6    0.03    0.07
   6  -2   6   13.12    0.70
   7  -2   6    0.20    0.11
   8  -2   6    8.26    0.55
   9  -2   6    0.66    0.16
  10  -2   6   77.92    3.18
  11  -2   6   55.18    2.30
  12  -2   6   39.46    1.80
  13  -2   6    0.03    0.15
  14  -2   6   29.21    1.81
  15  -2   6    4.56    0.57
  16  -2   6    1.08    0.31
 -17  -1   6    0.51    0.28
 -16  -1   6   11.01    0.85
 -15  -1   6   36.51    1.45
 -14  -1   6    9.23    0.53
 -13  -1   6    0.02    0.10
 -12  -1   6    0.95    0.17
 -11  -1   6    4.57    0.33
 -10  -1   6    1.39    0.18
  -9  -1   6   -0.10    0.07
  -8  -1   6   52.68    1.93
  -7  -1   6   55.83    1.69
  -6  -1   6   98.43    2.89
  -5  -1   6    0.73    0.10
  -4  -1   6   78.06    2.36
  -3  -1   6    2.46    0.15
  -2  -1   6   16.86    0.51
  -1  -1   6    2.65    0.16
   0  -1   6    0.10    0.06
   1  -1   6    2.58    0.15
   2  -1   6   15.66    0.73
   3  -1   6    2.39    0.19
   4  -1   6   77.68    2.54
   5  -1   6    0.81    0.14
   6  -1   6   96.36    3.82
   7  -1   6   58.39    2.26
   8  -1   6   51.37    2.13
   9  -1   6   -0.02    0.09
  10  -1   6    1.19    0.20
  11  -1   6    5.25    0.40
  12  -1   6    0.81    0.19
  13  -1   6    0.21    0.16
  14  -1   6    9.89    0.81
  15  -1   6   35.63    2.20
  16  -1   6    9.64    0.84
  17  -1   6    1.17    0.33
 -17   0   6    0.20    0.23
 -16   0   6    0.89    0.27
 -15   0   6    4.58    0.56
 -14   0   6   32.57    1.88
 -13   0   6    0.32    0.17
 -12   0   6   44.38    1.76
 -11   0   6   71.12    2.15
 -10   0   6   95.94    2.88
  -9   0   6    1.05    0.13
  -8   0   6   12.29    0.47
  -7   0   6    0.36    0.08
  -6   0   6   20.18    0.57
  -5   0   6    0.06    0.05
  -4   0   6   13.43    0.42
  -3   0   6   22.94    0.58
  -2   0   6   25.64    0.64
  -1   0   6    0.84    0.08
   0   0   6  401.34    9.04
   1   0   6    1.10    0.09
   2   0   6   24.93    0.85
   3   0   6   21.89    0.77
   4   0   6   13.31    0.50
   5   0   6   -0.03    0.06
   6   0   6   18.62    0.91
   7   0   6    0.44    0.13
   8   0   6   12.53    0.85
   9   0   6    1.30    0.24
  10   0   6   98.54    5.43
  11   0   6   75.72    4.07
  12   0   6   47.73    2.71
  13   0   6    0.07    0.15
  14   0   6   31.15    2.10
  15   0   6    6.19    0.60
  16   0   6    1.13    0.31
  17   0   6    0.68    0.29
 -17   1   6    1.03    0.30
 -16   1   6   10.26    0.77
 -15   1   6   36.54    1.95
 -14   1   6    9.49    0.58
 -13   1   6    0.11    0.11
 -12   1   6    0.65    0.15
 -11   1   6    5.42    0.37
 -10   1   6    0.92    0.17
  -9   1   6    0.06    0.09
  -8   1   6   52.19    1.90
  -7   1   6   58.17    2.02
  -6   1   6   96.69    3.40
  -5   1   6    0.81    0.09
  -4   1   6   78.65    2.30
  -3   1   6    2.31    0.14
  -2   1   6   16.05    0.57
  -1   1   6    2.77    0.16
   0   1   6   -0.06    0.04
   1   1   6    2.71    0.23
   2   1   6   16.64    0.71
   3   1   6    2.28    0.19
   4   1   6   81.00    2.93
   5   1   6    0.87    0.11
   6   1   6   95.52    3.58
   7   1   6   54.73    2.08
   8   1   6   49.91    2.98
   9   1   6    0.08    0.13
  10   1   6    1.01    0.25
  11   1   6    5.55    0.53
  12   1   6    0.55    0.22
  13   1   6    0.33    0.19
  14   1   6   10.52    0.85
  15   1   6   37.55    2.26
  16   1   6   10.97    0.90
  17   1   6    1.09    0.34
 -16   2   6    0.76    0.24
 -15   2   6    4.62    0.40
 -14   2   6   28.66    1.20
 -13   2   6    0.15    0.13
 -12   2   6   40.96    1.61
 -11   2   6   55.11    2.05
 -10   2   6   81.01    2.84
  -9   2   6    0.63    0.14
  -8   2   6    9.30    0.48
  -7   2   6    0.18    0.09
  -6   2   6   13.86    0.61
  -5   2   6    0.15    0.07
  -4   2   6    8.17    0.38
  -3   2   6   13.30    0.95
  -2   2   6   19.34    0.86
  -1   2   6    0.57    0.13
   0   2   6  287.82   10.49
   1   2   6    0.76    0.14
   2   2   6   20.21    0.85
   3   2   6   15.88    0.70
   4   2   6    8.26    0.43
   5   2   6    0.03    0.07
   6   2   6   13.16    0.62
   7   2   6    0.22    0.10
   8   2   6    8.57    0.44
   9   2   6    0.39    0.11
  10   2   6   78.56    4.50
  11   2   6   55.75    3.25
  12   2   6   42.65    2.57
  13   2   6   -0.03    0.19
  14   2   6   28.74    1.89
  15   2   6    5.11    0.67
  16   2   6    1.48    0.41
 -14   3   6    8.51    0.93
 -13   3   6    0.58    0.32
 -12   3   6    0.86    0.36
 -11   3   6    2.58    0.54
 -10   3   6    1.17    0.41
  -9   3   6    0.09    0.32
  -8   3   6   33.40    2.17
  -7   3   6   27.90    1.88
  -6   3   6   59.07    3.31
  -5   3   6    0.17    0.18
  -4   3   6   44.44    2.48
  -3   3   6    1.19    0.26
  -2   3   6    9.85    0.68
  -1   3   6    1.38    0.26
   0   3   6    0.05    0.10
   1   3   6    1.86    0.22
   2   3   6    8.64    0.49
   3   3   6    1.01    0.17
   4   3   6   46.95    1.83
   5   3   6    0.11    0.11
   6   3   6   62.50    2.36
   7   3   6   29.21    1.25
   8   3   6   34.17    2.15
   9   3   6    0.16    0.12
  10   3   6    1.02    0.19
  11   3   6    2.85    0.35
 -12   4   6   29.06    2.01
 -11   4   6   32.56    2.20
 -10   4   6   45.02    2.96
  -9   4   6   -0.09    0.34
  -8   4   6    3.34    0.68
  -7   4   6    0.21    0.27
  -6   4   6    6.00    0.72
  -5   4   6    0.06    0.18
  -3   4   6    7.08    0.62
  -2   4   6   12.90    0.90
  -1   4   6    0.59    0.20
   0   4   6  136.52    7.17
   1   4   6    0.48    0.19
   2   4   6   12.00    0.86
   3   4   6    6.48    0.43
   4   4   6    3.52    0.43
   5   4   6    0.04    0.14
   6   4   6    4.82    0.52
   7   4   6    0.20    0.16
   8   4   6    3.01    0.42
   9   4   6    0.19    0.17
  10   4   6   45.53    2.51
  11   4   6   29.82    1.79
  -6   5   6   31.87    2.10
  -5   5   6    0.01    0.24
  -4   5   6   24.76    1.62
  -3   5   6    0.40    0.25
  -2   5   6    5.29    0.64
  -1   5   6    0.70    0.26
   0   5   6    0.12    0.20
   1   5   6    0.14    0.19
   2   5   6    4.80    0.59
   3   5   6    0.66    0.27
   4   5   6   22.99    1.53
   5   5   6    0.02    0.19
   6   5   6   31.81    1.97
  -5  -5   7    1.10    0.46
  -4  -5   7    0.15    0.20
  -3  -5   7   23.27    1.22
  -2  -5   7    6.76    0.60
  -1  -5   7   53.61    2.29
   0  -5   7    6.60    0.60
   1  -5   7   51.34    2.26
   2  -5   7    5.58    0.55
   3  -5   7   21.68    1.67
   4  -5   7    0.00    0.27
 -11  -4   7    6.30    0.76
 -10  -4   7    7.51    0.61
  -9  -4   7    6.37    0.42
  -8  -4   7    0.46    0.14
  -7  -4   7   34.65    1.27
  -6  -4   7    5.67    0.39
  -5  -4   7   83.22    3.25
  -4  -4   7   23.02    0.88
  -3  -4   7   50.05    3.00
  -2  -4   7   -0.01    0.13
  -1  -4   7    3.93    0.43
   0  -4   7   -0.03    0.13
   1  -4   7    4.26    0.44
   2  -4   7   -0.06    0.13
   3  -4   7   47.02    2.07
   4  -4   7   22.38    1.14
   5  -4   7   86.37    3.49
   6  -4   7    6.39    0.56
   7  -4   7   37.85    2.55
   8  -4   7    0.40    0.41
   9  -4   7    6.16    1.15
  10  -4   7    6.11    1.27
 -14  -3   7    1.14    0.25
 -13  -3   7    9.22    0.62
 -12  -3   7    8.28    0.58
 -11  -3   7   25.91    1.16
 -10  -3   7    0.92    0.21
  -9  -3   7   46.72    1.86
  -8  -3   7   41.89    1.41
  -7  -3   7   56.21    2.22
  -6  -3   7   14.57    0.74
  -5  -3   7    2.13    0.21
  -4  -3   7    0.06    0.09
  -3  -3   7   44.77    1.54
  -2  -3   7   12.34    0.54
  -1  -3   7  107.53    4.18
   0  -3   7   13.25    0.71
   1  -3   7  107.80    4.19
   2  -3   7   13.58    0.71
   3  -3   7   46.82    1.99
   4  -3   7    0.12    0.13
   5  -3   7    1.82    0.28
   6  -3   7   14.93    0.85
   7  -3   7   58.49    3.69
   8  -3   7   43.73    1.94
   9  -3   7   47.58    2.10
  10  -3   7    0.66    0.21
  11  -3   7   26.80    1.26
  12  -3   7    9.98    0.77
  13  -3   7    8.68    0.76
  14  -3   7    1.51    0.35
 -16  -2   7   17.16    1.20
 -15  -2   7   15.79    0.82
 -14  -2   7   -0.02    0.13
 -13  -2   7    4.85    0.43
 -12  -2   7    7.33    0.50
 -11  -2   7   13.86    0.69
 -10  -2   7   14.01    0.71
  -9  -2   7    9.43    0.53
  -8  -2   7    0.36    0.10
  -7  -2   7   65.65    2.05
  -6  -2   7   10.43    0.43
  -5  -2   7  172.19    4.93
  -4  -2   7   47.78    1.52
  -3  -2   7  107.23    3.20
  -2  -2   7    0.14    0.08
  -1  -2   7    9.95    0.42
   0  -2   7   -0.08    0.07
   1  -2   7    9.26    0.41
   2  -2   7    0.08    0.07
   3  -2   7  106.28    3.36
   4  -2   7   47.61    1.62
   5  -2   7  166.65    5.23
   6  -2   7   10.45    0.61
   7  -2   7   65.41    2.76
   8  -2   7    0.42    0.13
   9  -2   7    9.33    0.57
  10  -2   7   14.21    0.76
  11  -2   7   13.05    0.72
  12  -2   7    7.40    0.52
  13  -2   7    5.15    0.58
  14  -2   7   -0.02    0.18
  15  -2   7   15.57    1.15
 -16  -1   7    0.07    0.23
 -15  -1   7    8.50    0.86
 -14  -1   7    1.67    0.24
 -13  -1   7   11.72    0.60
 -12  -1   7   13.61    0.65
 -11  -1   7   36.45    1.41
 -10  -1   7    1.09    0.17
  -9  -1   7   73.47    2.74
  -8  -1   7   74.36    2.72
  -7  -1   7  106.19    3.14
  -6  -1   7   28.92    0.95
  -5  -1   7    4.10    0.24
  -4  -1   7    0.47    0.10
  -3  -1   7   78.71    2.06
  -2  -1   7   23.74    0.70
  -1  -1   7  198.16    5.15
   0  -1   7   24.10    0.73
   1  -1   7  194.76    6.18
   2  -1   7   22.77    0.86
   3  -1   7   77.92    2.51
   4  -1   7    0.30    0.11
   5  -1   7    3.63    0.30
   6  -1   7   28.56    1.26
   7  -1   7  106.19    4.13
   8  -1   7   72.63    2.98
   9  -1   7   73.61    3.01
  10  -1   7    1.34    0.21
  11  -1   7   33.83    1.55
  12  -1   7   12.59    0.72
  13  -1   7   10.84    0.86
  14  -1   7    2.05    0.37
  15  -1   7    9.51    0.82
  16  -1   7    0.12    0.21
 -17   0   7    9.27    0.78
 -16   0   7   18.83    1.25
 -15   0   7   20.19    1.22
 -14   0   7    0.10    0.17
 -13   0   7    6.77    0.58
 -12   0   7   10.14    0.57
 -11   0   7   17.93    0.85
 -10   0   7   18.09    0.67
  -9   0   7   12.40    0.50
  -8   0   7    0.60    0.11
  -7   0   7   84.75    2.54
  -6   0   7   13.76    0.49
  -5   0   7  229.14    5.64
  -4   0   7   68.15    1.77
  -3   0   7  153.18    3.53
  -2   0   7    0.10    0.05
  -1   0   7   13.45    0.37
   0   0   7   -0.02    0.05
   1   0   7   12.47    0.43
   2   0   7    0.02    0.07
   3   0   7  153.08    4.67
   4   0   7   66.93    2.13
   5   0   7  216.84    8.57
   6   0   7   12.47    0.67
   7   0   7   81.17    3.43
   8   0   7    0.68    0.20
   9   0   7   13.25    0.92
  10   0   7   18.90    1.24
  11   0   7   17.60    1.24
  12   0   7   10.93    0.81
  13   0   7    5.74    0.59
  14   0   7    0.03    0.16
  15   0   7   18.15    1.31
  16   0   7   19.29    1.39
  17   0   7    7.91    0.80
 -17   1   7    1.00    0.31
 -16   1   7    0.10    0.15
 -15   1   7    9.33    0.59
 -14   1   7    1.63    0.25
 -13   1   7   10.82    0.59
 -12   1   7   12.57    0.64
 -11   1   7   35.50    1.40
 -10   1   7    1.17    0.18
  -9   1   7   75.37    2.69
  -8   1   7   74.27    2.66
  -7   1   7  104.25    3.68
  -6   1   7   28.73    1.11
  -5   1   7    3.67    0.26
  -4   1   7    0.38    0.08
  -3   1   7   75.25    2.33
  -2   1   7   23.86    0.79
  -1   1   7  201.59    5.77
   0   1   7   24.46    0.79
   1   1   7  197.84    7.32
   2   1   7   23.83    0.98
   3   1   7   78.23    2.92
   4   1   7    0.54    0.10
   5   1   7    3.96    0.25
   6   1   7   29.90    1.15
   7   1   7  100.06    5.83
   8   1   7   73.50    4.21
   9   1   7   71.51    4.24
  10   1   7    1.17    0.27
  11   1   7   36.82    2.19
  12   1   7   11.91    0.97
  13   1   7   11.28    0.91
  14   1   7    1.35    0.35
  15   1   7    9.72    0.86
  16   1   7    0.34    0.26
  17   1   7    0.58    0.30
 -16   2   7   16.60    1.31
 -15   2   7   15.23    0.77
 -14   2   7    0.00    0.13
 -13   2   7    5.15    0.41
 -12   2   7    7.43    0.45
 -11   2   7   13.26    0.64
 -10   2   7   15.18    0.68
  -9   2   7   10.22    0.51
  -8   2   7    0.24    0.11
  -7   2   7   67.85    2.42
  -6   2   7    9.10    0.98
  -5   2   7  169.24    8.58
  -4   2   7   47.99    2.69
  -3   2   7  106.03    5.46
  -2   2   7    0.06    0.10
  -1   2   7    9.79    0.52
   0   2   7    0.01    0.10
   1   2   7    9.51    0.50
   2   2   7   -0.03    0.07
   3   2   7  110.88    3.99
   4   2   7   47.16    1.88
   5   2   7  170.42    6.15
   6   2   7    9.80    0.51
   7   2   7   62.54    2.52
   8   2   7    0.58    0.12
   9   2   7    9.69    0.84
  10   2   7   14.04    1.09
  11   2   7   13.58    1.06
  12   2   7    7.37    0.73
  13   2   7    5.55    0.69
  14   2   7    0.13    0.23
  15   2   7   15.03    1.23
  16   2   7   16.94    1.33
 -14   3   7    1.46    0.43
 -13   3   7    9.66    0.99
 -12   3   7    9.21    0.98
 -10   3   7    0.73    0.36
  -9   3   7   41.83    2.85
  -8   3   7   41.18    2.69
  -7   3   7   55.93    3.40
  -6   3   7   15.13    1.16
  -5   3   7    2.45    0.43
  -4   3   7    0.13    0.17
  -3   3   7   47.77    2.61
  -2   3   7   14.37    0.91
  -1   3   7  109.86    5.50
   0   3   7   12.94    0.66
   1   3   7  108.68    4.07
   2   3   7   11.87    0.64
   3   3   7   48.03    1.91
   4   3   7    0.09    0.10
   5   3   7    1.96    0.23
   6   3   7   15.13    0.74
   7   3   7   59.30    2.30
   8   3   7   43.74    1.76
   9   3   7   45.52    1.89
  10   3   7    0.95    0.18
  11   3   7   27.08    1.85
 -11   4   7    7.18    0.97
 -10   4   7    8.10    1.13
  -9   4   7    7.82    1.07
  -8   4   7   -0.17    0.35
  -7   4   7   36.33    2.37
  -6   4   7    5.15    0.72
  -5   4   7   88.62    4.64
  -4   4   7   22.08    1.48
  -3   4   7   46.94    2.72
  -2   4   7    0.01    0.14
  -1   4   7    5.12    0.57
   0   4   7    0.21    0.18
   1   4   7    4.61    0.53
   2   4   7    0.15    0.15
   3   4   7   47.52    1.98
   4   4   7   21.27    1.05
   5   4   7   81.93    4.45
   6   4   7    5.61    0.58
   7   4   7   35.69    2.07
   8   4   7    0.72    0.23
   9   4   7    7.18    0.60
  10   4   7    9.38    0.70
  -4   5   7    0.06    0.25
  -3   5   7   24.53    1.60
  -2   5   7    6.09    0.72
  -1   5   7   48.09    2.91
   0   5   7    6.10    0.70
   1   5   7   51.25    2.92
   2   5   7    6.53    0.71
   3   5   7   22.03    1.49
   4   5   7    0.03    0.19
  -2  -5   8    2.69    0.62
  -1  -5   8    4.44    0.74
   0  -5   8   -0.10    0.27
   1  -5   8    4.79    0.77
   2  -5   8    3.49    0.64
   3  -5   8   31.32    2.14
 -10  -4   8    2.15    0.45
  -9  -4   8    2.68    0.36
  -8  -4   8    0.42    0.15
  -7  -4   8    3.68    0.31
  -6  -4   8    0.55    0.16
  -5  -4   8   26.77    1.01
  -4  -4   8    7.85    0.46
  -3  -4   8    1.31    0.25
  -2  -4   8    0.18    0.16
  -1  -4   8   11.41    0.70
   0  -4   8   13.21    0.78
   1  -4   8   11.32    0.70
   2  -4   8    0.33    0.18
   3  -4   8    1.54    0.28
   4  -4   8    7.47    0.62
   5  -4   8   26.67    1.32
   6  -4   8    0.57    0.23
   7  -4   8    2.56    0.66
   8  -4   8    0.57    0.50
   9  -4   8    1.43    0.70
  10  -4   8    1.98    0.81
 -13  -3   8   21.60    1.06
 -12  -3   8    2.15    0.31
 -11  -3   8   24.49    1.14
 -10  -3   8   14.06    0.73
  -9  -3   8   31.93    1.39
  -8  -3   8   10.62    0.48
  -7  -3   8   22.27    0.83
  -6  -3   8    0.76    0.14
  -5  -3   8    1.35    0.18
  -4  -3   8   10.24    0.48
  -3  -3   8   60.45    2.01
  -2  -3   8    4.52    0.33
  -1  -3   8   15.11    0.80
   0  -3   8   -0.07    0.11
   1  -3   8   14.44    0.79
   2  -3   8    4.61    0.44
   3  -3   8   62.95    2.60
   4  -3   8   10.56    0.65
   5  -3   8    1.62    0.28
   6  -3   8    1.18    0.26
   7  -3   8   22.10    1.92
   8  -3   8    9.60    1.37
   9  -3   8   32.79    2.51
  10  -3   8   13.10    0.80
  11  -3   8   25.52    1.24
  12  -3   8    2.18    0.38
  13  -3   8   19.46    1.45
 -15  -2   8   33.14    1.46
 -14  -2   8   10.55    0.63
 -13  -2   8   29.74    1.31
 -12  -2   8    3.85    0.37
 -11  -2   8   20.84    0.97
 -10  -2   8    4.13    0.37
  -9  -2   8    3.42    0.33
  -8  -2   8    0.51    0.15
  -7  -2   8    5.75    0.31
  -6  -2   8    1.09    0.14
  -5  -2   8   55.20    1.73
  -4  -2   8   13.80    0.55
  -3  -2   8    1.14    0.15
  -2  -2   8    0.21    0.09
  -1  -2   8   18.18    0.71
   0  -2   8   25.11    0.89
   1  -2   8   17.60    0.91
   2  -2   8    0.15    0.08
   3  -2   8    1.04    0.15
   4  -2   8   13.85    0.59
   5  -2   8   54.05    1.87
   6  -2   8    1.49    0.21
   7  -2   8    5.94    0.42
   8  -2   8    0.47    0.15
   9  -2   8    3.32    0.34
  10  -2   8    4.83    0.38
  11  -2   8   22.73    1.06
  12  -2   8    4.47    0.41
  13  -2   8   30.91    1.41
  14  -2   8   10.32    0.86
  15  -2   8   32.44    2.12
 -16  -1   8    1.56    0.41
 -15  -1   8    1.43    0.39
 -14  -1   8    3.58    0.55
 -13  -1   8   30.65    1.29
 -12  -1   8    3.19    0.32
 -11  -1   8   40.05    1.50
 -10  -1   8   20.60    0.92
  -9  -1   8   49.09    1.88
  -8  -1   8   15.59    0.71
  -7  -1   8   37.69    1.44
  -6  -1   8    3.31    0.24
  -5  -1   8    4.55    0.29
  -4  -1   8   16.40    0.62
  -3  -1   8  109.62    2.84
  -2  -1   8    5.81    0.26
  -1  -1   8   38.55    1.22
   0  -1   8    0.01    0.07
   1  -1   8   37.41    1.55
   2  -1   8    5.33    0.31
   3  -1   8  105.58    3.41
   4  -1   8   16.67    0.80
   5  -1   8    5.15    0.37
   6  -1   8    3.31    0.31
   7  -1   8   38.42    1.59
   8  -1   8   15.12    0.78
   9  -1   8   46.79    2.05
  10  -1   8   19.69    1.00
  11  -1   8   35.77    1.62
  12  -1   8    2.75    0.33
  13  -1   8   30.63    1.92
  14  -1   8    4.35    0.55
  15  -1   8    0.89    0.29
  16  -1   8    0.32    0.24
 -16   0   8    5.65    0.65
 -15   0   8   38.62    2.16
 -14   0   8   13.12    0.94
 -13   0   8   34.49    1.99
 -12   0   8    4.08    0.38
 -11   0   8   25.51    1.14
 -10   0   8    4.64    0.39
  -9   0   8    4.18    0.34
  -8   0   8    0.48    0.10
  -7   0   8    7.39    0.33
  -6   0   8    1.64    0.16
  -5   0   8   77.79    2.03
  -4   0   8   18.47    0.56
  -3   0   8    0.92    0.09
  -2   0   8    0.53    0.08
  -1   0   8   25.62    0.65
   0   0   8   35.67    0.89
   1   0   8   25.30    0.76
   2   0   8    0.73    0.11
   3   0   8    1.18    0.13
   4   0   8   17.19    0.87
   5   0   8   78.23    3.12
   6   0   8    1.40    0.21
   7   0   8    7.19    0.48
   8   0   8    0.53    0.19
   9   0   8    4.26    0.48
  10   0   8    5.06    0.50
  11   0   8   25.23    1.70
  12   0   8    4.20    0.53
  13   0   8   36.15    2.26
  14   0   8   14.57    1.06
  15   0   8   37.62    2.42
  16   0   8    4.84    0.64
 -16   1   8    0.77    0.23
 -15   1   8    1.34    0.25
 -14   1   8    3.73    0.37
 -13   1   8   31.63    1.27
 -12   1   8    3.39    0.32
 -11   1   8   37.73    1.45
 -10   1   8   21.62    0.91
  -9   1   8   49.83    1.84
  -8   1   8   16.14    0.69
  -7   1   8   36.92    1.40
  -6   1   8    3.27    0.27
  -5   1   8    5.10    0.32
  -4   1   8   16.75    0.71
  -3   1   8  109.67    3.19
  -2   1   8    5.49    0.28
  -1   1   8   39.35    1.20
   0   1   8   -0.04    0.06
   1   1   8   37.64    1.53
   2   1   8    6.07    0.35
   3   1   8  109.57    4.01
   4   1   8   16.96    0.73
   5   1   8    5.05    0.31
   6   1   8    2.90    0.43
   7   1   8   36.13    2.23
   8   1   8   13.82    1.07
   9   1   8   51.68    2.93
  10   1   8   19.37    1.39
  11   1   8   38.24    2.30
  12   1   8    3.62    0.50
  13   1   8   30.63    1.99
  14   1   8    3.64    0.56
  15   1   8    1.73    0.41
  16   1   8    0.76    0.33
 -15   2   8   32.61    2.08
 -14   2   8    8.82    0.96
 -13   2   8   32.14    1.94
 -12   2   8    4.03    0.59
 -11   2   8   23.08    1.46
 -10   2   8    4.59    0.62
  -9   2   8    3.16    0.52
  -8   2   8    0.27    0.24
  -7   2   8    5.14    0.70
  -6   2   8    1.02    0.35
  -5   2   8   51.03    3.13
  -4   2   8   12.27    1.04
  -3   2   8    0.85    0.28
  -2   2   8   -0.04    0.11
  -1   2   8   20.01    0.90
   0   2   8   27.01    1.11
   1   2   8   19.82    0.87
   2   2   8    0.15    0.09
   3   2   8    1.36    0.18
   4   2   8   13.90    0.66
   5   2   8   55.89    2.14
   6   2   8    1.10    0.16
   7   2   8    5.74    0.37
   8   2   8    0.24    0.23
   9   2   8    3.54    0.54
  10   2   8    4.17    0.61
  11   2   8   22.06    1.54
  12   2   8    4.17    0.61
  13   2   8   30.81    2.05
  14   2   8   11.21    1.00
  15   2   8   34.19    2.27
 -13   3   8   22.17    1.55
 -12   3   8    2.51    0.51
 -11   3   8   25.62    1.73
 -10   3   8   13.08    1.14
  -9   3   8   29.02    2.13
  -8   3   8   11.65    1.20
  -7   3   8   20.94    1.66
  -6   3   8    0.72    0.35
  -5   3   8    1.30    0.36
  -4   3   8   10.69    0.88
  -3   3   8   61.81    3.43
  -2   3   8    4.27    0.52
  -1   3   8   14.58    1.01
   0   3   8   -0.11    0.10
   1   3   8   16.23    0.77
   2   3   8    5.21    0.37
   3   3   8   64.04    2.49
   4   3   8   10.97    0.58
   5   3   8    1.28    0.20
   6   3   8    1.15    0.19
   7   3   8   22.79    1.02
   8   3   8   10.58    0.57
   9   3   8   32.49    2.20
  10   3   8   15.19    1.21
  11   3   8   25.36    1.83
  12   3   8    1.91    0.51
 -10   4   8    2.61    0.66
  -9   4   8    3.27    0.73
  -8   4   8    0.17    0.40
  -7   4   8    2.97    0.66
  -6   4   8    0.54    0.33
  -5   4   8   24.49    1.75
  -4   4   8    7.23    0.80
  -3   4   8    0.78    0.29
  -2   4   8    0.17    0.19
  -1   4   8   10.85    0.86
   0   4   8   14.20    0.99
   1   4   8   12.03    0.86
   2   4   8    0.22    0.14
   3   4   8    1.22    0.22
   4   4   8    7.33    0.51
   5   4   8   25.98    1.22
   6   4   8    0.52    0.22
   7   4   8    3.51    0.45
   8   4   8    0.07    0.16
   9   4   8    3.17    0.43
  -8  -4   9   16.83    0.88
  -7  -4   9    0.71    0.18
  -6  -4   9   23.67    0.93
  -5  -4   9    3.66    0.32
  -4  -4   9   19.65    0.82
  -3  -4   9    0.16    0.16
  -2  -4   9    7.75    0.63
  -1  -4   9    1.59    0.30
   0  -4   9    0.16    0.17
   1  -4   9    1.89    0.31
   2  -4   9    9.03    0.63
   3  -4   9    0.16    0.17
   4  -4   9   20.99    1.11
   5  -4   9    4.10    0.49
   6  -4   9   23.82    1.97
   7  -4   9    0.64    0.52
   8  -4   9   17.40    2.00
   9  -4   9    5.01    1.08
 -12  -3   9   38.70    1.68
 -11  -3   9    1.20    0.25
 -10  -3   9    0.50    0.19
  -9  -3   9    4.26    0.41
  -8  -3   9    8.55    0.54
  -7  -3   9    0.90    0.16
  -6  -3   9   15.45    0.66
  -5  -3   9    6.67    0.39
  -4  -3   9    0.65    0.14
  -3  -3   9    0.15    0.11
  -2  -3   9   10.19    0.49
  -1  -3   9    0.71    0.20
   0  -3   9   28.78    1.35
   1  -3   9    0.97    0.22
   2  -3   9   11.42    0.66
   3  -3   9    0.00    0.14
   4  -3   9    0.62    0.21
   5  -3   9    6.58    0.60
   6  -3   9   17.41    1.61
   7  -3   9    0.59    0.50
   8  -3   9   10.79    1.38
   9  -3   9    5.17    0.88
  10  -3   9    1.04    0.45
  11  -3   9    0.29    0.36
  12  -3   9   42.36    2.71
 -15  -2   9    0.77    0.29
 -14  -2   9    2.00    0.31
 -13  -2   9    0.49    0.19
 -12  -2   9    1.17    0.23
 -11  -2   9    2.38    0.30
 -10  -2   9    6.02    0.47
  -9  -2   9    9.05    0.53
  -8  -2   9   23.79    1.06
  -7  -2   9    1.12    0.19
  -6  -2   9   36.48    1.24
  -5  -2   9    7.47    0.36
  -4  -2   9   33.32    1.14
  -3  -2   9    0.12    0.09
  -2  -2   9   18.53    0.71
  -1  -2   9    4.02    0.29
   0  -2   9   -0.02    0.11
   1  -2   9    3.70    0.38
   2  -2   9   18.49    0.96
   3  -2   9    0.08    0.09
   4  -2   9   32.25    1.21
   5  -2   9    7.10    0.49
   6  -2   9   37.61    1.65
   7  -2   9    1.01    0.20
   8  -2   9   24.36    1.15
   9  -2   9    9.27    0.56
  10  -2   9    6.38    0.47
  11  -2   9    2.37    0.30
  12  -2   9    1.01    0.22
  13  -2   9    0.63    0.20
  14  -2   9    2.34    0.41
 -15  -1   9    0.29    0.30
 -14  -1   9   24.47    1.61
 -13  -1   9   18.58    1.25
 -12  -1   9   51.27    2.00
 -11  -1   9    0.89    0.18
 -10  -1   9    0.63    0.16
  -9  -1   9    8.18    0.49
  -8  -1   9   13.30    0.64
  -7  -1   9    2.14    0.25
  -6  -1   9   29.03    1.19
  -5  -1   9   12.43    0.50
  -4  -1   9    0.70    0.13
  -3  -1   9    0.00    0.07
  -2  -1   9   15.07    0.50
  -1  -1   9    1.34    0.13
   0  -1   9   43.19    1.21
   1  -1   9    1.21    0.16
   2  -1   9   15.13    0.60
   3  -1   9    0.14    0.09
   4  -1   9    0.97    0.18
   5  -1   9   11.44    0.62
   6  -1   9   30.30    1.31
   7  -1   9    2.34    0.27
   8  -1   9   13.33    0.70
   9  -1   9    8.62    0.54
  10  -1   9    0.20    0.14
  11  -1   9    0.85    0.20
  12  -1   9   50.27    3.02
  13  -1   9   18.34    1.27
  14  -1   9   26.08    1.71
  15  -1   9    1.34    0.36
 -15   0   9    1.08    0.33
 -14   0   9    2.60    0.46
 -13   0   9    0.42    0.24
 -12   0   9    1.36    0.25
 -11   0   9    3.22    0.34
 -10   0   9    8.17    0.51
  -9   0   9   13.07    0.63
  -8   0   9   29.82    1.20
  -7   0   9    0.96    0.14
  -6   0   9   43.57    1.38
  -5   0   9    9.62    0.41
  -4   0   9   42.91    1.16
  -3   0   9    0.37    0.07
  -2   0   9   27.73    0.70
  -1   0   9    5.00    0.20
   0   0   9    0.10    0.05
   1   0   9    5.70    0.28
   2   0   9   27.38    0.93
   3   0   9    0.36    0.14
   4   0   9   42.14    1.80
   5   0   9    9.96    0.58
   6   0   9   45.20    1.88
   7   0   9    1.09    0.25
   8   0   9   29.44    1.83
   9   0   9   12.71    0.93
  10   0   9    7.67    0.69
  11   0   9    2.85    0.45
  12   0   9    1.21    0.31
  13   0   9    0.52    0.24
  14   0   9    2.88    0.49
  15   0   9    0.93    0.32
 -15   1   9    0.65    0.20
 -14   1   9   24.89    1.12
 -13   1   9   17.00    0.82
 -12   1   9   52.75    1.95
 -11   1   9    1.25    0.20
 -10   1   9    0.30    0.13
  -9   1   9    9.57    0.49
  -8   1   9   13.24    0.62
  -7   1   9    2.40    0.24
  -6   1   9   29.53    1.15
  -5   1   9   11.03    0.54
  -4   1   9    0.80    0.15
  -3   1   9   -0.05    0.07
  -2   1   9   15.29    0.75
  -1   1   9    1.10    0.20
   0   1   9   43.96    1.75
   1   1   9    1.06    0.19
   2   1   9   14.42    0.71
   3   1   9    0.01    0.10
   4   1   9    1.33    0.18
   5   1   9   11.43    0.90
   6   1   9   29.18    1.87
   7   1   9    2.43    0.41
   8   1   9   11.76    0.98
   9   1   9    9.61    0.80
  10   1   9    0.05    0.18
  11   1   9    1.01    0.30
  12   1   9   51.17    3.11
  13   1   9   18.18    1.33
  14   1   9   26.20    1.78
  15   1   9    0.45    0.30
 -14   2   9    2.36    0.47
 -13   2   9    0.65    0.30
 -12   2   9    0.99    0.33
 -11   2   9    2.64    0.46
 -10   2   9    5.99    0.71
  -9   2   9    7.51    0.84
  -8   2   9   23.57    1.58
  -7   2   9    0.81    0.32
  -6   2   9   35.60    2.28
  -5   2   9    6.51    0.83
  -4   2   9   31.05    2.10
  -3   2   9   -0.02    0.20
  -2   2   9   19.78    0.93
  -1   2   9    4.02    0.36
   0   2   9    0.03    0.11
   1   2   9    3.68    0.33
   2   2   9   18.56    0.86
   3   2   9    0.34    0.12
   4   2   9   35.31    1.41
   5   2   9    6.52    0.41
   6   2   9   37.41    1.52
   7   2   9    1.09    0.33
   8   2   9   24.53    1.69
   9   2   9    8.49    0.84
  10   2   9    6.38    0.77
  11   2   9    2.54    0.49
  12   2   9    0.88    0.35
  13   2   9    0.63    0.34
  14   2   9    2.03    0.49
 -12   3   9   37.96    2.43
 -11   3   9    0.51    0.32
 -10   3   9    0.76    0.36
  -9   3   9    4.84    0.74
  -8   3   9    8.51    1.04
  -7   3   9    0.45    0.39
  -6   3   9   16.25    1.38
  -5   3   9    5.91    0.81
  -4   3   9    0.60    0.29
  -3   3   9   -0.07    0.18
  -2   3   9   10.58    0.84
  -1   3   9    0.71    0.19
   0   3   9   29.22    1.31
   1   3   9    0.87    0.19
   2   3   9   10.72    0.59
   3   3   9    0.15    0.12
   4   3   9    0.67    0.16
   5   3   9    6.53    0.44
   6   3   9   17.04    0.80
   7   3   9    0.94    0.19
   8   3   9    9.55    0.90
   9   3   9    5.77    0.75
  10   3   9    1.20    0.40
  11   3   9    0.85    0.39
  12   3   9   38.15    2.66
  -8   4   9   13.71    1.55
  -7   4   9    0.61    0.47
  -6   4   9   26.18    1.86
  -5   4   9    4.08    0.68
  -4   4   9   19.24    1.46
  -3   4   9   -0.02    0.21
  -2   4   9    7.43    0.80
  -1   4   9    2.26    0.41
   0   4   9   -0.01    0.20
   1   4   9    2.25    0.39
   2   4   9    7.05    0.56
   3   4   9    0.05    0.14
   4   4   9   21.47    1.02
   5   4   9    3.72    0.38
   6   4   9   24.27    1.13
   7   4   9    0.59    0.22
   8   4   9   15.97    1.07
  -7  -4  10   12.96    0.72
  -6  -4  10    8.86    0.50
  -5  -4  10    0.23    0.15
  -4  -4  10    6.03    0.57
  -3  -4  10    9.83    0.70
  -2  -4  10    0.06    0.17
  -1  -4  10   85.68    3.51
   0  -4  10   11.52    0.72
   1  -4  10   82.74    3.50
   2  -4  10   -0.14    0.15
   3  -4  10    9.79    0.73
   4  -4  10    5.68    0.59
   5  -4  10    0.12    0.22
   6  -4  10   10.12    1.42
   7  -4  10   13.33    1.73
 -11  -3  10    0.29    0.18
 -10  -3  10    4.88    0.45
  -9  -3  10   14.35    0.77
  -8  -3  10    1.73    0.27
  -7  -3  10   30.63    1.37
  -6  -3  10    1.75    0.22
  -5  -3  10   63.24    2.02
  -4  -3  10    2.54    0.25
  -3  -3  10   84.56    2.73
  -2  -3  10    4.74    0.36
  -1  -3  10    4.55    0.44
   0  -3  10    0.02    0.14
   1  -3  10    4.37    0.45
   2  -3  10    5.03    0.50
   3  -3  10   86.81    3.57
   4  -3  10    3.02    0.40
   5  -3  10   63.21    2.73
   6  -3  10    1.90    0.64
   7  -3  10   34.35    2.51
   8  -3  10    2.99    0.68
   9  -3  10   13.54    1.30
  10  -3  10    4.66    0.78
  11  -3  10    0.52    0.37
  12  -3  10   11.65    1.12
 -14  -2  10    0.09    0.25
 -13  -2  10   31.14    1.35
 -12  -2  10    0.34    0.18
 -11  -2  10   30.26    1.36
 -10  -2  10   24.27    1.08
  -9  -2  10   49.27    1.93
  -8  -2  10    7.34    0.49
  -7  -2  10   21.47    0.96
  -6  -2  10   18.18    0.71
  -5  -2  10    0.14    0.11
  -4  -2  10   13.09    0.56
  -3  -2  10   17.04    0.67
  -2  -2  10    0.24    0.11
  -1  -2  10  155.87    4.55
   0  -2  10   20.22    1.05
   1  -2  10  137.01    5.83
   2  -2  10    0.16    0.15
   3  -2  10   16.88    0.92
   4  -2  10   12.02    0.76
   5  -2  10    0.11    0.13
   6  -2  10   17.41    0.91
   7  -2  10   21.66    1.03
   8  -2  10    7.79    0.53
   9  -2  10   48.48    2.08
  10  -2  10   23.51    1.14
  11  -2  10   31.86    1.46
  12  -2  10    0.27    0.18
  13  -2  10   29.05    1.93
 -14  -1  10    8.72    0.92
 -13  -1  10   40.02    2.18
 -12  -1  10   12.18    1.00
 -11  -1  10    0.42    0.25
 -10  -1  10    7.89    0.49
  -9  -1  10   18.25    0.88
  -8  -1  10    3.90    0.35
  -7  -1  10   47.25    1.75
  -6  -1  10    1.94    0.24
  -5  -1  10   98.71    2.99
  -4  -1  10    3.77    0.28
  -3  -1  10  139.07    4.11
  -2  -1  10    9.01    0.34
  -1  -1  10    7.62    0.31
   0  -1  10    0.02    0.07
   1  -1  10    7.30    0.37
   2  -1  10    8.60    0.42
   3  -1  10  139.20    4.33
   4  -1  10    4.38    0.37
   5  -1  10   98.54    3.89
   6  -1  10    2.29    0.28
   7  -1  10   45.92    1.90
   8  -1  10    3.84    0.37
   9  -1  10   19.69    0.97
  10  -1  10    8.51    0.56
  11  -1  10    0.78    0.20
  12  -1  10   13.67    1.05
  13  -1  10   35.67    2.29
  14  -1  10    8.56    0.83
 -15   0  10    0.53    0.29
 -14   0  10    0.77    0.32
 -13   0  10   38.93    2.14
 -12   0  10    0.43    0.18
 -11   0  10   36.88    1.43
 -10   0  10   30.00    1.21
  -9   0  10   58.67    2.13
  -8   0  10   10.81    0.55
  -7   0  10   26.64    1.05
  -6   0  10   25.25    1.04
  -5   0  10    0.15    0.08
  -4   0  10   17.13    0.53
  -3   0  10   22.51    0.58
  -2   0  10    0.46    0.08
  -1   0  10  206.02    4.63
   0   0  10   29.97    0.77
   1   0  10  202.46    6.13
   2   0  10    0.55    0.11
   3   0  10   20.80    1.01
   4   0  10   16.95    0.86
   5   0  10   -0.07    0.12
   6   0  10   25.53    1.20
   7   0  10   25.49    1.65
   8   0  10    9.81    0.81
   9   0  10   60.33    3.35
  10   0  10   28.95    1.84
  11   0  10   33.66    2.16
  12   0  10    0.31    0.23
  13   0  10   35.87    2.36
  14   0  10    0.51    0.28
 -15   1  10    5.10    0.61
 -14   1  10    9.17    0.58
 -13   1  10   37.40    1.49
 -12   1  10   14.36    0.71
 -11   1  10    0.42    0.16
 -10   1  10    7.94    0.49
  -9   1  10   19.94    0.87
  -8   1  10    3.92    0.34
  -7   1  10   44.36    1.68
  -6   1  10    2.49    0.25
  -5   1  10   96.08    5.08
  -4   1  10    3.44    0.47
  -3   1  10  135.28    5.16
  -2   1  10    8.66    0.52
  -1   1  10    7.87    0.47
   0   1  10   -0.05    0.11
   1   1  10    7.53    0.47
   2   1  10    8.54    0.52
   3   1  10  134.88    5.16
   4   1  10    2.98    0.47
   5   1  10  101.64    5.59
   6   1  10    2.49    0.43
   7   1  10   45.86    2.75
   8   1  10    4.74    0.60
   9   1  10   19.02    1.40
  10   1  10    6.94    0.81
  11   1  10    0.38    0.27
  12   1  10   14.09    1.14
  13   1  10   36.40    2.38
  14   1  10    9.73    0.92
 -13   2  10   27.91    1.87
 -12   2  10   -0.17    0.20
 -11   2  10   30.67    1.94
 -10   2  10   23.53    1.55
  -8   2  10    6.94    0.79
  -7   2  10   21.05    1.44
  -6   2  10   17.14    1.30
  -5   2  10   -0.18    0.19
  -4   2  10   12.37    1.08
  -3   2  10   14.52    1.24
  -2   2  10    0.60    0.20
  -1   2  10  156.83    5.71
   0   2  10   21.54    0.99
   1   2  10  155.94    5.67
   2   2  10    0.05    0.11
   3   2  10   16.69    0.80
   4   2  10   12.64    0.65
   5   2  10    0.12    0.12
   6   2  10   16.99    1.31
   7   2  10   21.64    1.52
   8   2  10    6.64    0.82
   9   2  10   46.50    3.03
  10   2  10   23.42    1.71
  11   2  10   31.07    2.16
  12   2  10    0.01    0.30
  13   2  10   29.56    2.12
 -11   3  10    0.55    0.32
 -10   3  10    4.47    0.69
  -9   3  10   16.91    1.26
  -8   3  10    2.33    0.54
  -6   3  10    1.93    0.53
  -5   3  10   59.75    3.68
  -4   3  10    1.45    0.45
  -3   3  10   81.78    4.73
  -2   3  10    6.15    0.72
  -1   3  10    4.81    0.44
   0   3  10   -0.03    0.12
   1   3  10    3.90    0.38
   2   3  10    6.22    0.44
   3   3  10   90.80    5.07
   4   3  10    2.81    0.30
   5   3  10   62.97    2.47
   6   3  10    1.80    0.24
   7   3  10   29.95    2.11
   8   3  10    2.59    0.51
   9   3  10   13.66    1.19
  10   3  10    5.14    0.74
  11   3  10    0.23    0.31
  12   3  10    9.77    1.14
  -6   4  10   10.27    1.26
  -5   4  10   -0.30    0.29
  -4   4  10    6.35    0.88
  -3   4  10    9.17    1.02
  -2   4  10    0.06    0.24
  -1   4  10   88.70    4.64
   0   4  10   10.78    0.90
   2   4  10   -0.21    0.13
   3   4  10   10.30    0.62
   4   4  10    7.25    0.54
   5   4  10    0.19    0.15
   6   4  10    9.29    0.58
   7   4  10   12.28    0.71
  -6  -4  11   11.61    1.07
  -5  -4  11   19.47    1.54
  -4  -4  11   12.86    0.81
  -3  -4  11    0.74    0.25
  -2  -4  11    5.53    0.55
  -1  -4  11   22.37    1.18
   0  -4  11    0.45    0.21
   1  -4  11   22.74    1.20
   2  -4  11    5.70    0.58
   3  -4  11    0.33    0.25
   4  -4  11   12.77    1.12
   5  -4  11   22.15    1.59
 -10  -3  11    2.38    0.54
  -9  -3  11   15.80    0.85
  -8  -3  11   29.04    1.28
  -7  -3  11    2.13    0.30
  -6  -3  11    0.57    0.16
  -5  -3  11    0.87    0.17
  -4  -3  11    4.88    0.37
  -3  -3  11   49.24    1.66
  -2  -3  11   21.53    1.12
  -1  -3  11    3.76    0.44
   0  -3  11    3.51    0.42
   1  -3  11    4.31    0.47
   2  -3  11   21.53    1.52
   3  -3  11   48.57    2.94
   4  -3  11    4.67    0.53
   5  -3  11    0.69    0.48
   6  -3  11    0.42    0.39
   7  -3  11    1.74    0.52
   8  -3  11   28.89    2.12
   9  -3  11   15.71    1.41
  10  -3  11    3.42    0.67
 -12  -2  11    2.61    0.35
 -11  -2  11    0.07    0.16
 -10  -2  11    8.67    0.58
  -9  -2  11   25.65    1.17
  -8  -2  11    1.09    0.22
  -7  -2  11   18.83    0.87
  -6  -2  11   17.03    0.80
  -5  -2  11   32.77    1.36
  -4  -2  11   21.19    0.82
  -3  -2  11    0.33    0.13
  -2  -2  11    9.50    0.48
  -1  -2  11   44.83    1.70
   0  -2  11    0.00    0.13
   1  -2  11   42.15    1.91
   2  -2  11    8.88    0.65
   3  -2  11    0.25    0.17
   4  -2  11   21.36    1.08
   5  -2  11   31.89    2.21
   6  -2  11   14.81    1.28
   7  -2  11   18.76    0.93
   8  -2  11    1.14    0.22
   9  -2  11   26.71    1.25
  10  -2  11    8.97    0.58
  11  -2  11    0.14    0.16
  12  -2  11    2.76    0.36
  13  -2  11    0.10    0.29
 -13  -1  11   15.84    1.14
 -12  -1  11    0.53    0.28
 -11  -1  11   21.06    1.29
 -10  -1  11    3.85    0.52
  -9  -1  11   25.13    1.07
  -8  -1  11   41.02    1.61
  -7  -1  11    2.41    0.27
  -6  -1  11    0.98    0.18
  -5  -1  11    1.28    0.20
  -4  -1  11    6.14    0.33
  -3  -1  11   77.48    2.37
  -2  -1  11   33.49    1.10
  -1  -1  11    5.45    0.26
   0  -1  11    3.86    0.29
   1  -1  11    4.83    0.33
   2  -1  11   33.25    1.17
   3  -1  11   76.74    3.11
   4  -1  11    6.84    0.48
   5  -1  11    1.09    0.20
   6  -1  11    1.41    0.23
   7  -1  11    2.48    0.30
   8  -1  11   42.10    1.77
   9  -1  11   23.88    1.14
  10  -1  11    3.33    0.37
  11  -1  11   18.99    0.98
  12  -1  11    0.57    0.28
  13  -1  11   15.48    1.18
 -14   0  11    0.19    0.26
 -13   0  11    0.13    0.24
 -12   0  11    3.26    0.51
 -11   0  11    0.24    0.16
 -10   0  11   12.15    0.62
  -9   0  11   31.41    1.26
  -8   0  11    1.18    0.20
  -7   0  11   21.47    0.93
  -6   0  11   19.35    0.83
  -5   0  11   41.55    1.57
  -4   0  11   26.88    0.87
  -3   0  11    0.13    0.06
  -2   0  11   12.77    0.38
  -1   0  11   60.26    1.46
   0   0  11    0.08    0.08
   1   0  11   60.22    2.46
   2   0  11   12.33    0.67
   3   0  11    0.11    0.12
   4   0  11   26.79    1.24
   5   0  11   43.90    1.83
   6   0  11   20.57    1.39
   7   0  11   22.70    1.52
   8   0  11    1.47    0.35
   9   0  11   30.02    1.97
  10   0  11   10.75    0.93
  11   0  11    0.05    0.20
  12   0  11    3.83    0.58
  13   0  11    0.25    0.25
 -13   1  11   13.84    1.10
 -12   1  11    0.98    0.30
 -11   1  11   19.32    1.28
 -10   1  11    2.32    0.42
  -9   1  11   22.18    1.48
  -8   1  11   41.22    2.29
  -7   1  11    2.33    0.39
  -6   1  11    0.99    0.28
  -5   1  11    1.16    0.29
  -4   1  11    5.81    0.64
  -3   1  11   75.95    2.99
  -2   1  11   31.56    1.38
  -1   1  11    4.85    0.41
   0   1  11    4.38    0.38
   1   1  11    5.67    0.42
   2   1  11   31.02    1.40
   3   1  11   74.86    4.44
   4   1  11    5.73    0.67
   5   1  11    0.56    0.25
   6   1  11    0.67    0.29
   7   1  11    2.65    0.48
   8   1  11   42.10    2.56
   9   1  11   27.19    1.73
  10   1  11    2.87    0.53
  11   1  11   19.20    1.45
  12   1  11    1.59    0.43
  13   1  11   16.84    1.31
 -12   2  11    3.80    0.57
 -11   2  11    0.06    0.22
 -10   2  11    8.40    0.78
  -9   2  11   24.82    1.67
  -8   2  11    1.36    0.36
  -7   2  11   17.11    1.28
  -6   2  11   16.95    1.23
  -5   2  11   31.64    2.05
  -4   2  11   21.63    1.52
  -3   2  11    0.82    0.35
  -2   2  11    9.58    0.65
  -1   2  11   42.59    1.84
   0   2  11    0.03    0.13
   1   2  11   43.44    1.81
   2   2  11   10.31    0.58
   3   2  11    0.39    0.15
   4   2  11   22.48    0.99
   5   2  11   31.94    2.12
   6   2  11   16.91    1.27
   7   2  11   17.99    1.38
   8   2  11    1.11    0.38
   9   2  11   27.24    1.89
  10   2  11    9.18    1.03
  11   2  11    0.17    0.30
  12   2  11    3.11    0.62
  -9   3  11   15.40    1.27
  -7   3  11    2.38    0.55
  -6   3  11    0.68    0.42
  -5   3  11    0.79    0.42
  -4   3  11    5.16    0.83
  -3   3  11   49.29    3.03
  -2   3  11   21.09    1.56
  -1   3  11    3.41    0.57
   0   3  11    3.08    0.36
   1   3  11    4.54    0.43
   2   3  11   22.29    1.05
   3   3  11   50.12    2.03
   4   3  11    4.37    0.40
   5   3  11    0.26    0.17
   6   3  11    0.87    0.33
   7   3  11    2.27    0.48
   8   3  11   29.90    1.99
   9   3  11   16.08    1.33
  10   3  11    2.48    0.56
  -4   4  11   14.06    1.43
  -3   4  11    0.72    0.38
  -2   4  11    6.17    0.83
  -1   4  11   21.90    1.56
   0   4  11   -0.40    0.20
   2   4  11    5.38    0.49
   3   4  11    0.56    0.20
   4   4  11   12.67    1.14
   5   4  11   21.27    1.59
   6   4  11   12.42    1.12
  -8  -3  12   14.98    1.27
  -7  -3  12   -0.09    0.15
  -6  -3  12   25.87    1.17
  -5  -3  12    0.97    0.19
  -4  -3  12    0.99    0.19
  -3  -3  12    0.90    0.27
  -2  -3  12    1.78    0.33
  -1  -3  12    0.32    0.19
   0  -3  12    0.03    0.19
   1  -3  12    0.15    0.18
   2  -3  12    1.62    0.30
   3  -3  12    1.21    0.29
   4  -3  12    0.69    0.27
   5  -3  12    0.93    0.48
   6  -3  12   26.58    2.00
   7  -3  12    0.22    0.33
   8  -3  12   13.47    1.28
 -11  -2  12    1.81    0.29
 -10  -2  12   23.99    1.07
  -9  -2  12    0.40    0.17
  -8  -2  12   29.08    1.25
  -7  -2  12    5.02    0.43
  -6  -2  12    0.31    0.15
  -5  -2  12    1.68    0.25
  -4  -2  12    0.87    0.17
  -3  -2  12    0.02    0.11
  -2  -2  12   11.54    0.54
  -1  -2  12    0.51    0.20
   0  -2  12    9.28    0.65
   1  -2  12    0.02    0.14
   2  -2  12   11.26    0.69
   3  -2  12    0.10    0.15
   4  -2  12    1.85    0.44
   5  -2  12    1.37    0.40
   6  -2  12    0.31    0.25
   7  -2  12    3.70    0.64
   8  -2  12   27.96    1.95
   9  -2  12    0.14    0.25
  10  -2  12   23.39    1.13
  11  -2  12    2.04    0.30
 -12  -1  12   10.54    0.90
 -11  -1  12    3.75    0.52
 -10  -1  12   11.00    0.88
  -9  -1  12    8.10    0.68
  -8  -1  12   19.26    1.19
  -7  -1  12    0.04    0.13
  -6  -1  12   35.75    1.40
  -5  -1  12    1.89    0.23
  -4  -1  12    2.41    0.22
  -3  -1  12    1.66    0.18
  -2  -1  12    1.81    0.19
  -1  -1  12    0.25    0.11
   0  -1  12   -0.08    0.11
   1  -1  12    0.08    0.10
   2  -1  12    2.35    0.29
   3  -1  12    1.75    0.26
   4  -1  12    2.33    0.30
   5  -1  12    1.47    0.25
   6  -1  12   34.72    1.55
   7  -1  12    0.08    0.15
   8  -1  12   20.68    1.01
   9  -1  12    8.37    0.56
  10  -1  12   12.15    0.72
  11  -1  12    2.30    0.44
  12  -1  12   10.51    0.95
 -13   0  12    7.55    0.78
 -12   0  12   34.79    2.00
 -11   0  12    2.47    0.31
 -10   0  12   27.56    1.16
  -9   0  12    0.10    0.13
  -8   0  12   36.08    1.42
  -7   0  12    5.46    0.41
  -6   0  12    0.35    0.13
  -5   0  12    2.14    0.22
  -4   0  12    1.06    0.16
  -3   0  12    0.09    0.07
  -2   0  12   13.51    0.40
  -1   0  12    0.42    0.08
   0   0  12   10.25    0.57
   1   0  12    0.46    0.15
   2   0  12   12.31    0.70
   3   0  12    0.17    0.13
   4   0  12    1.05    0.31
   5   0  12    1.88    0.40
   6   0  12    0.21    0.24
   7   0  12    6.35    0.73
   8   0  12   39.46    2.34
   9   0  12    0.20    0.26
  10   0  12   29.84    1.89
  11   0  12    3.07    0.54
  12   0  12   36.77    2.32
 -12   1  12   10.88    0.91
 -11   1  12    2.31    0.42
 -10   1  12   11.96    0.91
  -9   1  12    7.66    0.70
  -8   1  12   16.94    1.25
  -7   1  12    0.13    0.18
  -6   1  12   34.01    1.99
  -5   1  12    1.84    0.35
  -4   1  12    2.85    0.42
  -3   1  12    1.55    0.23
  -2   1  12    2.24    0.27
  -1   1  12    0.19    0.13
   0   1  12    0.04    0.11
   1   1  12    0.43    0.15
   2   1  12    2.23    0.40
   3   1  12    1.64    0.37
   4   1  12    1.87    0.41
   5   1  12    1.32    0.36
   6   1  12   33.38    2.23
   7   1  12    0.54    0.30
   8   1  12   20.38    1.50
   9   1  12    8.21    0.94
  10   1  12   12.73    1.10
  11   1  12    2.69    0.55
  12   1  12   12.43    1.11
 -10   2  12   21.02    1.48
  -9   2  12    0.01    0.23
  -8   2  12   27.87    1.79
  -7   2  12    3.92    0.59
  -6   2  12    0.39    0.26
  -5   2  12    1.39    0.38
  -4   2  12    1.27    0.38
  -3   2  12   -0.25    0.21
  -2   2  12   11.17    0.69
  -1   2  12    0.46    0.19
   0   2  12    9.60    0.65
   1   2  12    0.33    0.18
   2   2  12   10.74    0.67
   3   2  12   -0.16    0.15
   4   2  12    0.59    0.28
   5   2  12    1.86    0.41
   6   2  12   -0.05    0.21
   7   2  12    4.39    0.66
   8   2  12   26.90    1.96
   9   2  12    0.23    0.28
  10   2  12   24.56    1.74
  11   2  12    2.16    0.53
  -7   3  12   -0.27    0.26
  -6   3  12   22.74    1.78
  -5   3  12    0.81    0.47
  -4   3  12    0.90    0.47
  -3   3  12    1.41    0.52
  -2   3  12    1.08    0.47
  -1   3  12    0.12    0.29
   0   3  12    0.05    0.16
   1   3  12    0.30    0.18
   2   3  12    1.51    0.27
   3   3  12    0.85    0.22
   4   3  12    0.29    0.28
   5   3  12    0.72    0.33
   6   3  12   24.81    1.78
   7   3  12   -0.07    0.23
   8   3  12   15.81    1.26
  -6  -3  13    3.34    0.61
  -5  -3  13    0.65    0.20
  -4  -3  13    6.06    0.50
  -3  -3  13   41.77    1.98
  -2  -3  13    9.50    0.74
  -1  -3  13   27.66    1.42
   0  -3  13    1.52    0.34
   1  -3  13   27.82    1.83
   2  -3  13    9.56    0.72
   3  -3  13   41.64    1.96
   4  -3  13    5.59    0.92
   5  -3  13    0.50    0.40
  -9  -2  13    2.51    0.32
  -8  -2  13    5.54    0.46
  -7  -2  13   51.10    2.01
  -6  -2  13    2.40    0.30
  -5  -2  13   62.51    2.43
  -4  -2  13    0.40    0.15
  -3  -2  13    6.15    0.38
  -2  -2  13    0.43    0.18
  -1  -2  13   18.50    0.96
   0  -2  13    0.07    0.13
   1  -2  13   16.38    0.93
   2  -2  13    1.16    0.24
   3  -2  13    5.79    0.78
   4  -2  13    0.36    0.27
   5  -2  13   61.87    3.81
   6  -2  13    2.96    0.55
   7  -2  13   46.26    3.10
   8  -2  13    5.51    0.77
   9  -2  13    2.36    0.50
 -11  -1  13   29.95    1.69
 -10  -1  13    1.90    0.37
  -9  -1  13   20.88    1.34
  -8  -1  13    8.05    0.67
  -7  -1  13    5.12    0.54
  -6  -1  13    5.01    0.53
  -5  -1  13    1.55    0.22
  -4  -1  13   10.59    0.55
  -3  -1  13   60.48    1.88
  -2  -1  13   14.87    0.59
  -1  -1  13   37.94    1.68
   0  -1  13    2.77    0.32
   1  -1  13   39.93    1.71
   2  -1  13   14.46    0.78
   3  -1  13   59.38    2.48
   4  -1  13   10.67    0.64
   5  -1  13    2.04    0.31
   6  -1  13    6.30    0.52
   7  -1  13    5.46    0.49
   8  -1  13    8.58    0.59
   9  -1  13   23.47    1.15
  10  -1  13    1.89    0.42
  11  -1  13   27.49    1.89
 -12   0  13    0.43    0.29
 -11   0  13    0.56    0.29
 -10   0  13    0.65    0.19
  -9   0  13    2.47    0.28
  -8   0  13    7.31    0.43
  -7   0  13   60.89    2.25
  -6   0  13    3.41    0.45
  -5   0  13   74.34    3.97
  -4   0  13    0.65    0.21
  -3   0  13    7.09    0.44
  -2   0  13    1.20    0.19
  -1   0  13   22.60    1.03
   0   0  13    0.08    0.12
   1   0  13   23.17    1.50
   2   0  13    1.13    0.32
   3   0  13    7.43    0.73
   4   0  13    0.37    0.24
   5   0  13   78.64    4.46
   6   0  13    3.35    0.56
   7   0  13   62.38    3.70
   8   0  13    6.42    0.81
   9   0  13    1.99    0.46
  10   0  13    1.13    0.38
  11   0  13    0.68    0.35
 -10   1  13    1.82    0.38
  -9   1  13   22.19    1.43
  -8   1  13    8.91    0.74
  -7   1  13    4.90    0.61
  -6   1  13    5.17    0.61
  -5   1  13    1.06    0.30
  -4   1  13    9.74    0.80
  -3   1  13   58.75    2.36
  -2   1  13   14.87    0.75
  -1   1  13   38.70    1.65
   0   1  13    2.92    0.31
   1   1  13   37.85    2.44
   2   1  13   14.17    1.11
   3   1  13   57.39    3.53
   4   1  13   10.45    0.92
   5   1  13    1.77    0.42
   6   1  13    5.25    0.72
   7   1  13    5.31    0.73
   8   1  13    9.84    0.92
   9   1  13   24.57    1.74
  10   1  13    1.74    0.50
  -9   2  13    2.47    0.48
  -8   2  13    5.19    0.67
  -7   2  13   50.07    2.90
  -6   2  13    2.44    0.46
  -5   2  13   62.54    3.54
  -4   2  13    0.27    0.25
  -3   2  13    5.57    0.73
  -2   2  13    1.33    0.26
  -1   2  13   18.19    0.94
   0   2  13   -0.13    0.15
   1   2  13   17.57    0.94
   2   2  13    0.57    0.26
   3   2  13    6.26    0.73
   4   2  13    0.45    0.27
   5   2  13   63.54    3.82
   6   2  13    3.08    0.55
   7   2  13   50.91    3.18
   8   2  13    5.76    0.78
   9   2  13    2.93    0.59
  -5   3  13    0.88    0.40
  -4   3  13    5.71    0.89
  -2   3  13    9.07    1.13
  -1   3  13   24.56    1.92
   0   3  13    1.42    0.30
   1   3  13   27.03    1.33
   2   3  13    9.49    0.67
   3   3  13   42.42    2.68
   4   3  13    6.50    0.77
   5   3  13    1.00    0.34
  -3  -3  14   28.32    2.32
  -2  -3  14   37.90    2.80
  -1  -3  14    1.61    0.59
   0  -3  14    0.01    0.39
  -8  -2  14    4.51    0.66
  -7  -2  14    5.09    0.44
  -6  -2  14   13.19    0.70
  -5  -2  14    2.47    0.30
  -4  -2  14    8.88    0.55
  -3  -2  14   12.86    0.57
  -2  -2  14   28.78    1.37
  -1  -2  14   17.91    0.95
   0  -2  14   29.80    1.39
   1  -2  14   17.29    0.95
   2  -2  14   29.14    1.38
   3  -2  14   13.41    1.12
   4  -2  14    8.69    0.99
   5  -2  14    2.99    0.55
   6  -2  14   12.55    1.13
 -10  -1  14    0.02    0.21
  -9  -1  14    8.19    0.69
  -8  -1  14   15.57    1.03
  -7  -1  14   17.82    1.12
  -6  -1  14   14.93    0.96
  -5  -1  14    5.89    0.56
  -4  -1  14   24.09    1.05
  -3  -1  14   43.80    1.69
  -2  -1  14   54.99    2.24
  -1  -1  14    1.92    0.27
   0  -1  14   -0.07    0.12
   1  -1  14    1.33    0.35
   2  -1  14   55.54    3.25
   3  -1  14   42.54    2.66
   4  -1  14   22.57    1.65
   5  -1  14    5.67    0.50
   6  -1  14   15.12    0.85
   7  -1  14   18.48    0.98
   8  -1  14   16.15    0.89
   9  -1  14    9.11    0.86
  -9   0  14   20.88    1.31
  -8   0  14    5.90    0.64
  -7   0  14    6.59    0.67
  -6   0  14   15.83    1.08
  -5   0  14    3.67    0.47
  -4   0  14   10.81    0.81
  -3   0  14   15.36    0.76
  -2   0  14   34.36    2.16
  -1   0  14   21.56    1.48
   0   0  14   35.15    2.19
   1   0  14   22.88    1.52
   2   0  14   35.64    2.22
   3   0  14   15.49    1.19
   4   0  14    9.83    0.93
   5   0  14    3.07    0.54
   6   0  14   16.08    1.28
   7   0  14    6.95    0.85
   8   0  14    5.47    0.77
   9   0  14   18.09    1.48
  -9   1  14    8.19    0.73
  -8   1  14   13.17    1.05
  -7   1  14   17.34    1.22
  -6   1  14   14.47    1.05
  -5   1  14    4.67    0.60
  -4   1  14   24.08    1.52
  -3   1  14   44.24    2.45
  -2   1  14   54.03    2.19
  -1   1  14    1.57    0.35
   0   1  14   -0.18    0.17
   1   1  14    1.47    0.34
   2   1  14   51.02    3.26
   3   1  14   40.95    2.68
   4   1  14   26.22    1.73
   5   1  14    4.27    0.66
   6   1  14   15.51    1.24
   7   1  14   18.09    1.43
   8   1  14   16.98    1.34
   9   1  14    9.15    1.04
  -7   2  14    5.44    0.68
  -6   2  14   12.22    1.03
  -5   2  14    2.93    0.52
  -4   2  14   10.43    0.90
  -1   2  14   19.04    1.34
   0   2  14   28.83    1.96
   1   2  14   17.38    1.33
   2   2  14   30.33    1.95
   3   2  14   11.29    1.01
   4   2  14    9.07    0.89
   5   2  14    2.16    0.47
   6   2  14   13.34    1.15
  -1   3  14    1.01    0.46
   0   3  14    0.32    0.43
  -5  -2  15    0.93    0.33
  -4  -2  15    8.08    0.52
  -3  -2  15    0.63    0.29
  -2  -2  15    4.25    0.44
  -1  -2  15    1.46    0.27
   0  -2  15    0.14    0.16
   1  -2  15    0.94    0.24
   2  -2  15    5.59    0.74
   3  -2  15    1.04    0.37
  -8  -1  15    2.15    0.39
  -7  -1  15    0.10    0.19
  -6  -1  15    9.82    0.75
  -5  -1  15    0.45    0.22
  -4  -1  15    2.68    0.37
  -2  -1  15    6.60    0.71
  -1  -1  15    0.02    0.14
   0  -1  15   10.16    0.87
   1  -1  15    0.44    0.24
   2  -1  15    6.30    0.76
   3  -1  15    1.92    0.43
   4  -1  15    3.05    0.53
   5  -1  15    0.24    0.24
   6  -1  15   10.51    0.95
   7  -1  15   -0.28    0.26
   8  -1  15    2.19    0.52
  -8   0  15   19.15    1.29
  -7   0  15   11.51    0.89
  -6   0  15   20.04    1.27
  -5   0  15    1.58    0.32
  -1   0  15    1.85    0.37
   0   0  15    0.30    0.22
   1   0  15    1.24    0.34
   2   0  15    5.54    0.67
   3   0  15    1.25    0.35
   4   0  15    9.63    0.89
   5   0  15    1.07    0.37
   6   0  15   19.57    1.50
   7   0  15   11.78    1.07
  -7   1  15   -0.08    0.18
  -6   1  15   10.14    0.82
  -5   1  15    0.33    0.23
  -4   1  15    3.28    0.48
  -3   1  15    2.85    0.45
  -2   1  15    7.33    0.69
  -1   1  15   -0.19    0.19
   0   1  15    9.43    0.86
   1   1  15   -0.17    0.20
   2   1  15    6.38    0.75
   3   1  15    1.58    0.40
   4   1  15    2.29    0.49
   5   1  15    0.29    0.28
   6   1  15    9.53    0.97
  -3   2  15    0.21    0.28
  -2   2  15    4.15    0.62
  -1   2  15    1.04    0.34
   0   2  15    0.18    0.24
   1   2  15    1.34    0.37
   2   2  15    3.45    0.57
   3   2  15    0.85    0.33
   0  -1  16    0.22    0.24
   1  -1  16    2.65    0.47
   2  -1  16    0.29    0.27
   3  -1  16   21.87    1.52
   1   0  16   36.23    2.21
   2   0  16    6.29    0.74
   3   0  16   -0.02    0.24
   4   0  16    1.42    0.41
   5   0  16    4.02    0.63
  -2   1  16    0.15    0.23
  -1   1  16    2.29    0.43
   0   1  16    0.16    0.24
   1   1  16    2.96    0.50
   2   1  16    0.30    0.28
   3   1  16   21.56    1.52
   0   0   0    0.00    0.00
;
_shelx_hkl_checksum              77598
#END Tags that were not found in dictionaries
loop_
_space_group_symop_operation_xyz
'x, y, z'
'-x+1/2, -y, z+1/2'
'-x, y+1/2, -z'
'x+1/2, -y+1/2, -z+1/2'
'-x, -y, -z'
'x-1/2, y, -z-1/2'
'x, -y-1/2, z'
'-x-1/2, y-1/2, z-1/2'
loop_
_atom_site_label
_atom_site_type_symbol
_atom_site_fract_x
_atom_site_fract_y
_atom_site_fract_z
_atom_site_U_iso_or_equiv
_atom_site_adp_type
_atom_site_occupancy
_atom_site_site_symmetry_order
_atom_site_calc_flag
_atom_site_refinement_flags_posn
_atom_site_refinement_flags_adp
_atom_site_refinement_flags_occupancy
Gd Gd 0.29164(2) 0.2500 0.92055(2) 0.00530(7) Uani 1 2 d S T P
Mn Mn 0.01802(6) 0.2500 0.79141(7) 0.01327(14) Uani 1 2 d S T P
Cu1 Cu 0.00524(4) 0.2500 0.41028(5) 0.00772(11) Uani 1 2 d S T P
Cu2 Cu 0.06429(4) 0.2500 0.03921(5) 0.00705(11) Uani 1 2 d S T P
Cu3 Cu 0.30501(4) 0.2500 0.62889(5) 0.00761(11) Uani 1 2 d S T P
Cu4 Cu 0.32212(4) 0.2500 0.21645(5) 0.00740(11) Uani 1 2 d S T P
P1 P 0.11478(8) 0.2500 0.59499(10) 0.00540(18) Uani 1 2 d S T P
P2 P 0.13005(8) 0.2500 0.24297(10) 0.00564(18) Uani 1 2 d S T P
P3 P 0.37862(8) 0.2500 0.42212(9) 0.00525(18) Uani 1 2 d S T P
loop_
_atom_site_aniso_label
_atom_site_aniso_U_11
_atom_site_aniso_U_22
_atom_site_aniso_U_33
_atom_site_aniso_U_23
_atom_site_aniso_U_13
_atom_site_aniso_U_12
Gd 0.00540(10) 0.00455(10) 0.00597(10) 0.000 -0.00003(6) 0.000
Mn 0.0167(3) 0.0108(3) 0.0123(3) 0.000 0.0052(3) 0.000
Cu1 0.0068(2) 0.0075(2) 0.0089(2) 0.000 0.00024(16) 0.000
Cu2 0.0060(2) 0.0062(2) 0.0089(2) 0.000 -0.00038(16) 0.000
Cu3 0.0090(2) 0.0063(2) 0.0076(2) 0.000 0.00060(17) 0.000
Cu4 0.0075(2) 0.0074(2) 0.0073(2) 0.000 -0.00016(17) 0.000
P1 0.0061(4) 0.0043(4) 0.0058(4) 0.000 0.0004(3) 0.000
P2 0.0058(4) 0.0051(4) 0.0060(4) 0.000 -0.0006(3) 0.000
P3 0.0047(4) 0.0051(4) 0.0059(4) 0.000 -0.0005(3) 0.000
loop_
_atom_type_symbol
_atom_type_description
_atom_type_scat_dispersion_real
_atom_type_scat_dispersion_imag
_atom_type_scat_source
P P 0.1023 0.0942 'International Tables Vol C Tables 4.2.6.8 and 6.1.1.4'
Mn Mn 0.3368 0.7283 'International Tables Vol C Tables 4.2.6.8 and 6.1.1.4'
Cu Cu 0.3201 1.2651 'International Tables Vol C Tables 4.2.6.8 and 6.1.1.4'
Gd Gd -0.1653 3.9035 'International Tables Vol C Tables 4.2.6.8 and 6.1.1.4'
loop_
_geom_angle_atom_site_label_1
_geom_angle_atom_site_label_2
_geom_angle_atom_site_label_3
_geom_angle
_geom_angle_site_symmetry_1
_geom_angle_site_symmetry_3
P3 Gd P3 82.93(3) 2 2_565
P3 Gd P2 79.89(3) 2 2
P3 Gd P2 134.23(3) 2_565 2
P3 Gd P2 134.23(3) 2 2_565
P3 Gd P2 79.89(3) 2_565 2_565
P2 Gd P2 82.48(3) 2 2_565
P3 Gd P1 136.66(3) 2 2_565
P3 Gd P1 82.47(3) 2_565 2_565
P2 Gd P1 136.17(3) 2 2_565
P2 Gd P1 82.35(3) 2_565 2_565
P3 Gd P1 82.47(3) 2 2
P3 Gd P1 136.66(3) 2_565 2
P2 Gd P1 82.35(3) 2 2
P2 Gd P1 136.17(3) 2_565 2
P1 Gd P1 80.79(3) 2_565 2
P3 Gd Cu2 46.682(18) 2 1_556
P3 Gd Cu2 46.682(18) 2_565 1_556
P2 Gd Cu2 125.94(2) 2 1_556
P2 Gd Cu2 125.94(2) 2_565 1_556
P1 Gd Cu2 95.92(2) 2_565 1_556
P1 Gd Cu2 95.92(2) 2 1_556
P3 Gd Cu3 92.62(2) 2 .
P3 Gd Cu3 92.62(2) 2_565 .
P2 Gd Cu3 46.650(19) 2 .
P2 Gd Cu3 46.650(19) 2_565 .
P1 Gd Cu3 128.60(2) 2_565 .
P1 Gd Cu3 128.60(2) 2 .
Cu2 Gd Cu3 117.223(16) 1_556 .
P3 Gd Cu1 174.792(17) 2 2_565
P3 Gd Cu1 102.01(2) 2_565 2_565
P2 Gd Cu1 95.35(2) 2 2_565
P2 Gd Cu1 46.29(2) 2_565 2_565
P1 Gd Cu1 46.64(2) 2_565 2_565
P1 Gd Cu1 94.84(2) 2 2_565
Cu2 Gd Cu1 138.326(12) 1_556 2_565
Cu3 Gd Cu1 85.549(13) . 2_565
P3 Gd Cu1 102.01(2) 2 2
P3 Gd Cu1 174.792(17) 2_565 2
P2 Gd Cu1 46.29(2) 2 2
P2 Gd Cu1 95.35(2) 2_565 2
P1 Gd Cu1 94.84(2) 2_565 2
P1 Gd Cu1 46.64(2) 2 2
Cu2 Gd Cu1 138.326(12) 1_556 2
Cu3 Gd Cu1 85.549(13) . 2
Cu1 Gd Cu1 73.010(19) 2_565 2
P3 Gd Cu3 95.93(2) 2 2_565
P3 Gd Cu3 46.85(2) 2_565 2_565
P2 Gd Cu3 175.138(16) 2 2_565
P2 Gd Cu3 102.29(2) 2_565 2_565
P1 Gd Cu3 46.47(2) 2_565 2_565
P1 Gd Cu3 94.69(2) 2 2_565
Cu2 Gd Cu3 50.346(11) 1_556 2_565
Cu3 Gd Cu3 136.644(10) . 2_565
Cu1 Gd Cu3 88.725(15) 2_565 2_565
Cu1 Gd Cu3 133.228(15) 2 2_565
P3 Gd Cu3 46.85(2) 2 2
P3 Gd Cu3 95.93(2) 2_565 2
P2 Gd Cu3 102.29(2) 2 2
P2 Gd Cu3 175.138(17) 2_565 2
P1 Gd Cu3 94.69(2) 2_565 2
P1 Gd Cu3 46.47(2) 2 2
Cu2 Gd Cu3 50.346(11) 1_556 2
Cu3 Gd Cu3 136.644(10) . 2
Cu1 Gd Cu3 133.228(15) 2_565 2
Cu1 Gd Cu3 88.725(15) 2 2
Cu3 Gd Cu3 72.935(18) 2_565 2
P1 Mn P2 103.00(4) . 5_556
P1 Mn P2 103.00(4) . 5_566
P2 Mn P2 89.80(4) 5_556 5_566
P1 Mn P3 102.44(4) . 2_565
P2 Mn P3 154.56(4) 5_556 2_565
P2 Mn P3 84.96(3) 5_566 2_565
P1 Mn P3 102.44(4) . 2
P2 Mn P3 84.96(3) 5_556 2
P2 Mn P3 154.56(4) 5_566 2
P3 Mn P3 89.15(4) 2_565 2
P1 Mn Cu2 137.95(4) . 1_556
P2 Mn Cu2 106.43(3) 5_556 1_556
P2 Mn Cu2 106.43(3) 5_566 1_556
P3 Mn Cu2 52.07(2) 2_565 1_556
P3 Mn Cu2 52.07(2) 2 1_556
P1 Mn Cu3 137.64(4) . 6_557
P2 Mn Cu3 51.78(3) 5_556 6_557
P2 Mn Cu3 51.78(3) 5_566 6_557
P3 Mn Cu3 107.35(3) 2_565 6_557
P3 Mn Cu3 107.35(3) 2 6_557
Cu2 Mn Cu3 84.41(3) 1_556 6_557
P1 Mn Cu2 138.036(14) . 5_566
P2 Mn Cu2 107.92(4) 5_556 5_566
P2 Mn Cu2 50.49(3) 5_566 5_566
P3 Mn Cu2 50.77(3) 2_565 5_566
P3 Mn Cu2 107.83(3) 2 5_566
Cu2 Mn Cu2 56.28(2) 1_556 5_566
Cu3 Mn Cu2 56.872(18) 6_557 5_566
P1 Mn Cu2 138.036(14) . 5_556
P2 Mn Cu2 50.49(3) 5_556 5_556
P2 Mn Cu2 107.92(4) 5_566 5_556
P3 Mn Cu2 107.83(3) 2_565 5_556
P3 Mn Cu2 50.77(3) 2 5_556
Cu2 Mn Cu2 56.28(2) 1_556 5_556
Cu3 Mn Cu2 56.872(18) 6_557 5_556
Cu2 Mn Cu2 83.93(3) 5_566 5_556
P1 Mn Cu4 53.72(2) . 2_565
P2 Mn Cu4 155.57(4) 5_556 2_565
P2 Mn Cu4 88.97(2) 5_566 2_565
P3 Mn Cu4 49.41(3) 2_565 2_565
P3 Mn Cu4 105.81(4) 2 2_565
Cu2 Mn Cu4 97.30(3) 1_556 2_565
Cu3 Mn Cu4 138.711(14) 6_557 2_565
Cu2 Mn Cu4 89.898(18) 5_566 2_565
Cu2 Mn Cu4 151.36(3) 5_556 2_565
P1 Mn Cu4 53.72(2) . 2
P2 Mn Cu4 88.97(2) 5_556 2
P2 Mn Cu4 155.57(4) 5_566 2
P3 Mn Cu4 105.81(4) 2_565 2
P3 Mn Cu4 49.41(3) 2 2
Cu2 Mn Cu4 97.30(3) 1_556 2
Cu3 Mn Cu4 138.711(14) 6_557 2
Cu2 Mn Cu4 151.36(3) 5_566 2
Cu2 Mn Cu4 89.898(18) 5_556 2
Cu4 Mn Cu4 82.24(3) 2_565 2
P1 Mn Cu1 52.98(2) . 5_556
P2 Mn Cu1 50.62(3) 5_556 5_556
P2 Mn Cu1 106.62(4) 5_566 5_556
P3 Mn Cu1 154.19(4) 2_565 5_556
P3 Mn Cu1 89.15(2) 2 5_556
Cu2 Mn Cu1 139.098(15) 1_556 5_556
Cu3 Mn Cu1 97.72(3) 6_557 5_556
Cu2 Mn Cu1 152.33(3) 5_566 5_556
Cu2 Mn Cu1 90.791(19) 5_556 5_556
Cu4 Mn Cu1 106.70(3) 2_565 5_556
Cu4 Mn Cu1 55.245(18) 2 5_556
P2 Cu1 P1 113.00(3) . 5_556
P2 Cu1 P1 113.00(3) . 5_566
P1 Cu1 P1 102.80(5) 5_556 5_566
P2 Cu1 P1 104.48(4) . .
P1 Cu1 P1 111.92(3) 5_556 .
P1 Cu1 P1 111.92(3) 5_566 .
P2 Cu1 Cu4 100.17(4) . 6_556
P1 Cu1 Cu4 56.79(3) 5_556 6_556
P1 Cu1 Cu4 56.79(3) 5_566 6_556
P1 Cu1 Cu4 155.35(4) . 6_556
P2 Cu1 Cu1 124.90(3) . 5_566
P1 Cu1 Cu1 122.10(4) 5_556 5_566
P1 Cu1 Cu1 56.06(3) 5_566 5_566
P1 Cu1 Cu1 55.86(2) . 5_566
Cu4 Cu1 Cu1 108.91(3) 6_556 5_566
P2 Cu1 Cu1 124.90(3) . 5_556
P1 Cu1 Cu1 56.06(3) 5_556 5_556
P1 Cu1 Cu1 122.10(4) 5_566 5_556
P1 Cu1 Cu1 55.86(2) . 5_556
Cu4 Cu1 Cu1 108.91(3) 6_556 5_556
Cu1 Cu1 Cu1 88.41(3) 5_566 5_556
P2 Cu1 Mn 59.89(2) . 5_556
P1 Cu1 Mn 53.84(3) 5_556 5_556
P1 Cu1 Mn 115.40(3) 5_566 5_556
P1 Cu1 Mn 132.53(2) . 5_556
Cu4 Cu1 Mn 61.90(2) 6_556 5_556
Cu1 Cu1 Mn 170.81(4) 5_566 5_556
Cu1 Cu1 Mn 94.48(2) 5_556 5_556
P2 Cu1 Mn 59.89(2) . 5_566
P1 Cu1 Mn 115.40(3) 5_556 5_566
P1 Cu1 Mn 53.84(3) 5_566 5_566
P1 Cu1 Mn 132.53(2) . 5_566
Cu4 Cu1 Mn 61.90(2) 6_556 5_566
Cu1 Cu1 Mn 94.48(2) 5_566 5_566
Cu1 Cu1 Mn 170.81(4) 5_556 5_566
Mn Cu1 Mn 81.37(3) 5_556 5_566
P2 Cu1 Gd 60.02(2) . 2_564
P1 Cu1 Gd 165.10(3) 5_556 2_564
P1 Cu1 Gd 92.09(3) 5_566 2_564
P1 Cu1 Gd 61.01(2) . 2_564
Cu4 Cu1 Gd 135.066(15) 6_556 2_564
Cu1 Cu1 Gd 66.374(18) 5_566 2_564
Cu1 Cu1 Gd 115.39(3) 5_556 2_564
Mn Cu1 Gd 119.67(2) 5_556 2_564
Mn Cu1 Gd 73.703(18) 5_566 2_564
P2 Cu1 Gd 60.02(2) . 2_554
P1 Cu1 Gd 92.09(3) 5_556 2_554
P1 Cu1 Gd 165.10(3) 5_566 2_554
P1 Cu1 Gd 61.01(2) . 2_554
Cu4 Cu1 Gd 135.066(15) 6_556 2_554
Cu1 Cu1 Gd 115.39(3) 5_566 2_554
Cu1 Cu1 Gd 66.374(18) 5_556 2_554
Mn Cu1 Gd 73.703(18) 5_556 2_554
Mn Cu1 Gd 119.67(2) 5_566 2_554
Gd Cu1 Gd 73.009(19) 2_564 2_554
P2 Cu1 Gd 165.20(3) . 6_557
P1 Cu1 Gd 59.87(3) 5_556 6_557
P1 Cu1 Gd 59.87(3) 5_566 6_557
P1 Cu1 Gd 90.33(3) . 6_557
Cu4 Cu1 Gd 65.02(2) 6_556 6_557
Cu1 Cu1 Gd 63.72(2) 5_566 6_557
Cu1 Cu1 Gd 63.72(2) 5_556 6_557
Mn Cu1 Gd 109.86(2) 5_556 6_557
Mn Cu1 Gd 109.86(2) 5_566 6_557
Gd Cu1 Gd 130.093(15) 2_564 6_557
Gd Cu1 Gd 130.093(15) 2_554 6_557
P2 Cu2 P3 100.41(4) . 6_556
P2 Cu2 P3 113.02(3) . 2_554
P3 Cu2 P3 112.93(3) 6_556 2_554
P2 Cu2 P3 113.02(3) . 2_564
P3 Cu2 P3 112.93(3) 6_556 2_564
P3 Cu2 P3 104.85(5) 2_554 2_564
P2 Cu2 Cu2 121.20(3) . 5
P3 Cu2 Cu2 56.74(2) 6_556 5
P3 Cu2 Cu2 56.18(3) 2_554 5
P3 Cu2 Cu2 125.74(4) 2_564 5
P2 Cu2 Cu2 121.20(3) . 5_565
P3 Cu2 Cu2 56.74(2) 6_556 5_565
P3 Cu2 Cu2 125.74(4) 2_554 5_565
P3 Cu2 Cu2 56.18(3) 2_564 5_565
Cu2 Cu2 Cu2 92.05(4) 5 5_565
P2 Cu2 Cu3 56.44(2) . 2_564
P3 Cu2 Cu3 122.57(2) 6_556 2_564
P3 Cu2 Cu3 124.44(3) 2_554 2_564
P3 Cu2 Cu3 56.60(3) 2_564 2_564
Cu2 Cu2 Cu3 177.62(3) 5 2_564
Cu2 Cu2 Cu3 89.188(18) 5_565 2_564
P2 Cu2 Cu3 56.44(2) . 2_554
P3 Cu2 Cu3 122.57(2) 6_556 2_554
P3 Cu2 Cu3 56.60(3) 2_554 2_554
P3 Cu2 Cu3 124.44(3) 2_564 2_554
Cu2 Cu2 Cu3 89.188(18) 5 2_554
Cu2 Cu2 Cu3 177.62(3) 5_565 2_554
Cu3 Cu2 Cu3 89.51(3) 2_564 2_554
P2 Cu2 Mn 171.68(4) . 1_554
P3 Cu2 Mn 87.91(3) 6_556 1_554
P3 Cu2 Mn 62.96(3) 2_554 1_554
P3 Cu2 Mn 62.96(3) 2_564 1_554
Cu2 Cu2 Mn 63.53(2) 5 1_554
Cu2 Cu2 Mn 63.53(2) 5_565 1_554
Cu3 Cu2 Mn 118.84(2) 2_564 1_554
Cu3 Cu2 Mn 118.84(2) 2_554 1_554
P2 Cu2 Mn 61.47(3) . 5_566
P3 Cu2 Mn 61.69(2) 6_556 5_566
P3 Cu2 Mn 169.54(3) 2_554 5_566
P3 Cu2 Mn 85.61(3) 2_564 5_566
Cu2 Cu2 Mn 117.72(3) 5 5_566
Cu2 Cu2 Mn 60.18(2) 5_565 5_566
Cu3 Cu2 Mn 61.27(2) 2_564 5_566
Cu3 Cu2 Mn 117.44(3) 2_554 5_566
Mn Cu2 Mn 123.72(2) 1_554 5_566
P2 Cu2 Mn 61.47(3) . 5_556
P3 Cu2 Mn 61.69(2) 6_556 5_556
P3 Cu2 Mn 85.61(3) 2_554 5_556
P3 Cu2 Mn 169.54(3) 2_564 5_556
Cu2 Cu2 Mn 60.18(2) 5 5_556
Cu2 Cu2 Mn 117.72(3) 5_565 5_556
Cu3 Cu2 Mn 117.44(3) 2_564 5_556
Cu3 Cu2 Mn 61.27(2) 2_554 5_556
Mn Cu2 Mn 123.72(2) 1_554 5_556
Mn Cu2 Mn 83.93(3) 5_566 5_556
P2 Cu2 Gd 93.60(3) . 1_554
P3 Cu2 Gd 165.98(3) 6_556 1_554
P3 Cu2 Gd 60.56(3) 2_554 1_554
P3 Cu2 Gd 60.56(3) 2_564 1_554
Cu2 Cu2 Gd 115.40(3) 5 1_554
Cu2 Cu2 Gd 115.40(3) 5_565 1_554
Cu3 Cu2 Gd 65.784(17) 2_564 1_554
Cu3 Cu2 Gd 65.784(17) 2_554 1_554
Mn Cu2 Gd 78.07(2) 1_554 1_554
Mn Cu2 Gd 126.784(19) 5_566 1_554
Mn Cu2 Gd 126.784(19) 5_556 1_554
P2 Cu3 P2 103.95(5) 2_565 2
P2 Cu3 P1 114.45(3) 2_565 .
P2 Cu3 P1 114.45(3) 2 .
P2 Cu3 P3 110.16(3) 2_565 .
P2 Cu3 P3 110.16(3) 2 .
P1 Cu3 P3 103.77(4) . .
P2 Cu3 Cu4 125.70(4) 2_565 2
P2 Cu3 Cu4 57.28(3) 2 2
P1 Cu3 Cu4 57.19(2) . 2
P3 Cu3 Cu4 124.09(2) . 2
P2 Cu3 Cu4 57.28(3) 2_565 2_565
P2 Cu3 Cu4 125.70(4) 2 2_565
P1 Cu3 Cu4 57.19(2) . 2_565
P3 Cu3 Cu4 124.09(2) . 2_565
Cu4 Cu3 Cu4 91.04(3) 2 2_565
P2 Cu3 Cu2 54.75(3) 2_565 2_565
P2 Cu3 Cu2 122.15(3) 2 2_565
P1 Cu3 Cu2 123.36(2) . 2_565
P3 Cu3 Cu2 55.43(2) . 2_565
Cu4 Cu3 Cu2 179.23(2) 2 2_565
Cu4 Cu3 Cu2 89.729(18) 2_565 2_565
P2 Cu3 Cu2 122.15(3) 2_565 2
P2 Cu3 Cu2 54.75(3) 2 2
P1 Cu3 Cu2 123.36(2) . 2
P3 Cu3 Cu2 55.43(2) . 2
Cu4 Cu3 Cu2 89.729(18) 2 2
Cu4 Cu3 Cu2 179.23(2) 2_565 2
Cu2 Cu3 Cu2 89.51(3) 2_565 2
P2 Cu3 Mn 61.25(3) 2_565 6_657
P2 Cu3 Mn 61.25(3) 2 6_657
P1 Cu3 Mn 170.87(4) . 6_657
P3 Cu3 Mn 85.35(4) . 6_657
Cu4 Cu3 Mn 117.67(2) 2 6_657
Cu4 Cu3 Mn 117.67(2) 2_565 6_657
Cu2 Cu3 Mn 61.861(19) 2_565 6_657
Cu2 Cu3 Mn 61.861(19) 2 6_657
P2 Cu3 Gd 60.34(3) 2_565 .
P2 Cu3 Gd 60.34(3) 2 .
P1 Cu3 Gd 95.66(3) . .
P3 Cu3 Gd 160.56(3) . .
Cu4 Cu3 Gd 67.127(17) 2 .
Cu4 Cu3 Gd 67.127(17) 2_565 .
Cu2 Cu3 Gd 113.137(18) 2_565 .
Cu2 Cu3 Gd 113.137(18) 2 .
Mn Cu3 Gd 75.21(2) 6_657 .
P2 Cu3 Gd 164.07(3) 2_565 2_554
P2 Cu3 Gd 91.44(2) 2 2_554
P1 Cu3 Gd 61.01(2) . 2_554
P3 Cu3 Gd 59.47(2) . 2_554
Cu4 Cu3 Gd 66.331(17) 2 2_554
Cu4 Cu3 Gd 116.53(2) 2_565 2_554
Cu2 Cu3 Gd 113.36(2) 2_565 2_554
Cu2 Cu3 Gd 63.870(17) 2 2_554
Mn Cu3 Gd 125.470(18) 6_657 2_554
Gd Cu3 Gd 133.352(14) . 2_554
P2 Cu3 Gd 91.44(2) 2_565 2_564
P2 Cu3 Gd 164.07(3) 2 2_564
P1 Cu3 Gd 61.01(2) . 2_564
P3 Cu3 Gd 59.47(2) . 2_564
Cu4 Cu3 Gd 116.53(2) 2 2_564
Cu4 Cu3 Gd 66.331(17) 2_565 2_564
Cu2 Cu3 Gd 63.870(17) 2_565 2_564
Cu2 Cu3 Gd 113.36(2) 2 2_564
Mn Cu3 Gd 125.470(18) 6_657 2_564
Gd Cu3 Gd 133.352(14) . 2_564
Gd Cu3 Gd 72.935(18) 2_554 2_564
P3 Cu4 P2 100.94(4) . .
P3 Cu4 P1 114.49(3) . 2_554
P2 Cu4 P1 112.76(3) . 2_554
P3 Cu4 P1 114.49(3) . 2_564
P2 Cu4 P1 112.76(3) . 2_564
P1 Cu4 P1 101.91(4) 2_554 2_564
P3 Cu4 Cu3 121.58(2) . 2_554
P2 Cu4 Cu3 56.18(2) . 2_554
P1 Cu4 Cu3 56.61(3) 2_554 2_554
P1 Cu4 Cu3 123.91(3) 2_564 2_554
P3 Cu4 Cu3 121.58(2) . 2_564
P2 Cu4 Cu3 56.18(2) . 2_564
P1 Cu4 Cu3 123.91(3) 2_554 2_564
P1 Cu4 Cu3 56.61(3) 2_564 2_564
Cu3 Cu4 Cu3 91.04(3) 2_554 2_564
P3 Cu4 Cu1 103.05(4) . 6_656
P2 Cu4 Cu1 156.01(4) . 6_656
P1 Cu4 Cu1 56.24(2) 2_554 6_656
P1 Cu4 Cu1 56.24(2) 2_564 6_656
Cu3 Cu4 Cu1 109.59(2) 2_554 6_656
Cu3 Cu4 Cu1 109.59(2) 2_564 6_656
P3 Cu4 Mn 61.25(2) . 2_564
P2 Cu4 Mn 131.34(2) . 2_564
P1 Cu4 Mn 115.80(4) 2_554 2_564
P1 Cu4 Mn 54.10(3) 2_564 2_564
Cu3 Cu4 Mn 172.31(3) 2_554 2_564
Cu3 Cu4 Mn 93.015(19) 2_564 2_564
Cu1 Cu4 Mn 62.85(2) 6_656 2_564
P3 Cu4 Mn 61.25(2) . 2_554
P2 Cu4 Mn 131.34(2) . 2_554
P1 Cu4 Mn 54.10(3) 2_554 2_554
P1 Cu4 Mn 115.80(4) 2_564 2_554
Cu3 Cu4 Mn 93.015(19) 2_554 2_554
Cu3 Cu4 Mn 172.31(3) 2_564 2_554
Cu1 Cu4 Mn 62.85(2) 6_656 2_554
Mn Cu4 Mn 82.24(3) 2_564 2_554
P3 Cu4 Gd 169.12(4) . 1_554
P2 Cu4 Gd 89.94(3) . 1_554
P1 Cu4 Gd 60.22(2) 2_554 1_554
P1 Cu4 Gd 60.22(2) 2_564 1_554
Cu3 Cu4 Gd 64.767(16) 2_554 1_554
Cu3 Cu4 Gd 64.767(16) 2_564 1_554
Cu1 Cu4 Gd 66.067(18) 6_656 1_554
Mn Cu4 Gd 111.27(2) 2_564 1_554
Mn Cu4 Gd 111.27(2) 2_554 1_554
P3 Cu4 Gd 59.03(2) . 2_564
P2 Cu4 Gd 58.75(2) . 2_564
P1 Cu4 Gd 164.72(2) 2_554 2_564
P1 Cu4 Gd 93.30(2) 2_564 2_564
Cu3 Cu4 Gd 113.19(2) 2_554 2_564
Cu3 Cu4 Gd 63.930(18) 2_564 2_564
Cu1 Cu4 Gd 136.705(14) 6_656 2_564
Mn Cu4 Gd 74.49(2) 2_564 2_564
Mn Cu4 Gd 120.04(2) 2_554 2_564
Gd Cu4 Gd 128.602(15) 1_554 2_564
P3 Cu4 Gd 59.03(2) . 2_554
P2 Cu4 Gd 58.75(2) . 2_554
P1 Cu4 Gd 93.30(2) 2_554 2_554
P1 Cu4 Gd 164.72(2) 2_564 2_554
Cu3 Cu4 Gd 63.930(18) 2_554 2_554
Cu3 Cu4 Gd 113.19(2) 2_564 2_554
Cu1 Cu4 Gd 136.705(14) 6_656 2_554
Mn Cu4 Gd 120.04(2) 2_564 2_554
Mn Cu4 Gd 74.49(2) 2_554 2_554
Gd Cu4 Gd 128.602(15) 1_554 2_554
Gd Cu4 Gd 71.455(17) 2_564 2_554
Cu3 P1 Cu1 128.30(2) . 5_556
Cu3 P1 Cu1 128.30(2) . 5_566
Cu1 P1 Cu1 102.80(5) 5_556 5_566
Cu3 P1 Cu1 133.30(5) . .
Cu1 P1 Cu1 68.08(3) 5_556 .
Cu1 P1 Cu1 68.08(3) 5_566 .
Cu3 P1 Cu4 66.20(3) . 2_565
Cu1 P1 Cu4 145.35(5) 5_556 2_565
Cu1 P1 Cu4 66.97(2) 5_566 2_565
Cu1 P1 Cu4 128.96(2) . 2_565
Cu3 P1 Cu4 66.20(3) . 2
Cu1 P1 Cu4 66.97(2) 5_556 2
Cu1 P1 Cu4 145.35(5) 5_566 2
Cu1 P1 Cu4 128.96(2) . 2
Cu4 P1 Cu4 101.91(4) 2_565 2
Cu3 P1 Mn 111.09(5) . .
Cu1 P1 Mn 73.18(3) 5_556 .
Cu1 P1 Mn 73.18(3) 5_566 .
Cu1 P1 Mn 115.61(5) . .
Cu4 P1 Mn 72.18(3) 2_565 .
Cu4 P1 Mn 72.18(3) 2 .
Cu3 P1 Gd 72.51(3) . 2_554
Cu1 P1 Gd 74.31(2) 5_556 2_554
Cu1 P1 Gd 137.95(4) 5_566 2_554
Cu1 P1 Gd 72.35(3) . 2_554
Cu4 P1 Gd 136.10(4) 2_565 2_554
Cu4 P1 Gd 73.37(2) 2 2_554
Mn P1 Gd 139.556(15) . 2_554
Cu3 P1 Gd 72.51(3) . 2_564
Cu1 P1 Gd 137.95(4) 5_556 2_564
Cu1 P1 Gd 74.31(2) 5_566 2_564
Cu1 P1 Gd 72.35(3) . 2_564
Cu4 P1 Gd 73.37(2) 2_565 2_564
Cu4 P1 Gd 136.10(4) 2 2_564
Mn P1 Gd 139.556(15) . 2_564
Gd P1 Gd 80.79(3) 2_554 2_564
Cu2 P2 Cu1 118.50(5) . .
Cu2 P2 Cu3 68.81(3) . 2_554
Cu1 P2 Cu3 127.65(2) . 2_554
Cu2 P2 Cu3 68.81(3) . 2_564
Cu1 P2 Cu3 127.65(2) . 2_564
Cu3 P2 Cu3 103.95(5) 2_554 2_564
Cu2 P2 Cu4 103.80(5) . .
Cu1 P2 Cu4 137.71(5) . .
Cu3 P2 Cu4 66.54(3) 2_554 .
Cu3 P2 Cu4 66.54(3) 2_564 .
Cu2 P2 Mn 68.04(3) . 5_556
Cu1 P2 Mn 69.49(3) . 5_556
Cu3 P2 Mn 66.98(2) 2_554 5_556
Cu3 P2 Mn 136.13(5) 2_564 5_556
Cu4 P2 Mn 132.33(3) . 5_556
Cu2 P2 Mn 68.04(3) . 5_566
Cu1 P2 Mn 69.49(3) . 5_566
Cu3 P2 Mn 136.13(5) 2_554 5_566
Cu3 P2 Mn 66.98(2) 2_564 5_566
Cu4 P2 Mn 132.33(3) . 5_566
Mn P2 Mn 89.80(4) 5_556 5_566
Cu2 P2 Gd 138.334(17) . 2_564
Cu1 P2 Gd 73.70(3) . 2_564
Cu3 P2 Gd 138.28(4) 2_554 2_564
Cu3 P2 Gd 73.01(2) 2_564 2_564
Cu4 P2 Gd 74.82(3) . 2_564
Mn P2 Gd 142.79(5) 5_556 2_564
Mn P2 Gd 82.29(2) 5_566 2_564
Cu2 P2 Gd 138.334(17) . 2_554
Cu1 P2 Gd 73.70(3) . 2_554
Cu3 P2 Gd 73.01(2) 2_554 2_554
Cu3 P2 Gd 138.28(4) 2_564 2_554
Cu4 P2 Gd 74.82(3) . 2_554
Mn P2 Gd 82.29(2) 5_556 2_554
Mn P2 Gd 142.79(5) 5_566 2_554
Gd P2 Gd 82.48(3) 2_564 2_554
Cu4 P3 Cu2 117.87(5) . 6_656
Cu4 P3 Cu2 126.64(2) . 2_565
Cu2 P3 Cu2 67.07(3) 6_656 2_565
Cu4 P3 Cu2 126.64(2) . 2
Cu2 P3 Cu2 67.07(3) 6_656 2
Cu2 P3 Cu2 104.85(5) 2_565 2
Cu4 P3 Cu3 139.80(5) . .
Cu2 P3 Cu3 102.33(4) 6_656 .
Cu2 P3 Cu3 67.97(3) 2_565 .
Cu2 P3 Cu3 67.97(3) 2 .
Cu4 P3 Mn 69.34(3) . 2_554
Cu2 P3 Mn 67.54(3) 6_656 2_554
Cu2 P3 Mn 133.59(5) 2_565 2_554
Cu2 P3 Mn 64.97(2) 2 2_554
Cu3 P3 Mn 131.98(2) . 2_554
Cu4 P3 Mn 69.34(3) . 2_564
Cu2 P3 Mn 67.54(3) 6_656 2_564
Cu2 P3 Mn 64.97(2) 2_565 2_564
Cu2 P3 Mn 133.59(5) 2 2_564
Cu3 P3 Mn 131.98(2) . 2_564
Mn P3 Mn 89.15(4) 2_554 2_564
Cu4 P3 Gd 76.49(3) . 2_554
Cu2 P3 Gd 137.614(18) 6_656 2_554
Cu2 P3 Gd 138.88(4) 2_565 2_554
Cu2 P3 Gd 72.76(2) 2 2_554
Cu3 P3 Gd 73.67(3) . 2_554
Mn P3 Gd 83.88(2) 2_554 2_554
Mn P3 Gd 145.38(4) 2_564 2_554
Cu4 P3 Gd 76.49(3) . 2_564
Cu2 P3 Gd 137.614(18) 6_656 2_564
Cu2 P3 Gd 72.76(2) 2_565 2_564
Cu2 P3 Gd 138.88(4) 2 2_564
Cu3 P3 Gd 73.67(3) . 2_564
Mn P3 Gd 145.38(4) 2_554 2_564
Mn P3 Gd 83.88(2) 2_564 2_564
Gd P3 Gd 82.93(3) 2_554 2_564
loop_
_geom_bond_atom_site_label_1
_geom_bond_atom_site_label_2
_geom_bond_distance
_geom_bond_site_symmetry_2
Gd P3 2.8783(9) 2
Gd P3 2.8783(9) 2_565
Gd P2 2.8913(9) 2
Gd P2 2.8913(9) 2_565
Gd P1 2.9409(9) 2_565
Gd P1 2.9409(9) 2
Gd Cu2 3.1568(7) 1_556
Gd Cu3 3.1821(8) .
Gd Cu1 3.2039(6) 2_565
Gd Cu1 3.2039(6) 2
Gd Cu3 3.2067(6) 2_565
Gd Cu3 3.2067(6) 2
Mn P1 2.4661(13) .
Mn P2 2.7001(10) 5_556
Mn P2 2.7001(10) 5_566
Mn P3 2.7156(10) 2_565
Mn P3 2.7156(10) 2
Mn Cu2 2.7626(11) 1_556
Mn Cu3 2.8345(11) 6_557
Mn Cu2 2.8504(7) 5_566
Mn Cu2 2.8504(8) 5_556
Mn Cu4 2.8982(8) 2_565
Mn Cu4 2.8982(8) 2
Mn Cu1 2.9236(8) 5_556
Cu1 P2 2.4129(12) .
Cu1 P1 2.4387(8) 5_556
Cu1 P1 2.4387(8) 5_566
Cu1 P1 2.4443(12) .
Cu1 Cu4 2.6993(9) 6_556
Cu1 Cu1 2.7335(8) 5_566
Cu1 Cu1 2.7335(8) 5_556
Cu1 Mn 2.9236(8) 5_556
Cu1 Mn 2.9236(8) 5_566
Cu1 Gd 3.2039(6) 2_564
Cu1 Gd 3.2039(6) 2_554
Cu1 Gd 3.2737(7) 6_557
Cu2 P2 2.3710(13) .
Cu2 P3 2.3892(12) 6_556
Cu2 P3 2.4048(8) 2_554
Cu2 P3 2.4048(8) 2_564
Cu2 Cu2 2.6486(8) 5
Cu2 Cu2 2.6486(8) 5_565
Cu2 Cu3 2.7071(6) 2_564
Cu2 Cu3 2.7071(6) 2_554
Cu2 Mn 2.7626(11) 1_554
Cu2 Mn 2.8505(7) 5_566
Cu2 Mn 2.8505(7) 5_556
Cu2 Gd 3.1567(7) 1_554
Cu3 P2 2.4195(8) 2_565
Cu3 P2 2.4195(8) 2
Cu3 P1 2.4377(13) .
Cu3 P3 2.4380(12) .
Cu3 Cu4 2.6714(6) 2
Cu3 Cu4 2.6714(6) 2_565
Cu3 Cu2 2.7071(6) 2_565
Cu3 Cu2 2.7071(6) 2
Cu3 Mn 2.8345(11) 6_657
Cu3 Gd 3.2067(6) 2_554
Cu3 Gd 3.2067(6) 2_564
Cu4 P3 2.3521(12) .
Cu4 P2 2.4501(12) .
Cu4 P1 2.4541(8) 2_554
Cu4 P1 2.4541(8) 2_564
Cu4 Cu3 2.6714(6) 2_554
Cu4 Cu3 2.6714(6) 2_564
Cu4 Cu1 2.6994(9) 6_656
Cu4 Mn 2.8982(8) 2_564
Cu4 Mn 2.8982(8) 2_554
Cu4 Gd 3.2468(8) 1_554
Cu4 Gd 3.2640(6) 2_564
Cu4 Gd 3.2640(6) 2_554
P1 Cu1 2.4387(8) 5_556
P1 Cu1 2.4387(8) 5_566
P1 Cu4 2.4541(8) 2_565
P1 Cu4 2.4541(8) 2
P1 Gd 2.9409(9) 2_554
P1 Gd 2.9409(9) 2_564
P2 Cu3 2.4195(8) 2_554
P2 Cu3 2.4195(8) 2_564
P2 Mn 2.7001(10) 5_556
P2 Mn 2.7001(10) 5_566
P2 Gd 2.8913(9) 2_564
P2 Gd 2.8913(9) 2_554
P3 Cu2 2.3892(12) 6_656
P3 Cu2 2.4048(8) 2_565
P3 Cu2 2.4048(8) 2
P3 Mn 2.7156(10) 2_554
P3 Mn 2.7156(10) 2_564
P3 Gd 2.8783(9) 2_554
P3 Gd 2.8783(9) 2_564
