#------------------------------------------------------------------------------
#$Date: 2016-03-23 23:52:22 +0200 (Wed, 23 Mar 2016) $
#$Revision: 179516 $
#$URL: svn://www.crystallography.net/cod/cif/4/34/13/4341322.cif $
#------------------------------------------------------------------------------
#
# This file is available in the Crystallography Open Database (COD),
# http://www.crystallography.net/
#
# All data on this site have been placed in the public domain by the
# contributors.
#
data_4341322
loop_
_publ_author_name
'Bauer, Susanne'
'Hunger, Cornelia'
'Bodensteiner, Michael'
'Ojo, Wilfried-Solo'
'Cros-Gagneux, Arnaud'
'Chaudret, Bruno'
'Nayral, C\'eline'
'Delpech, Fabien'
'Scheer, Manfred'
_publ_section_title
;
 Transition-metal complexes containing parent phosphine or phosphinyl
 ligands and their use as precursors for phosphide nanoparticles.
;
_journal_issue                   21
_journal_name_full               'Inorganic chemistry'
_journal_page_first              11438
_journal_page_last               11446
_journal_paper_doi               10.1021/ic5012082
_journal_volume                  53
_journal_year                    2014
_chemical_formula_moiety         'C7 H7 Cr2 O7 P3'
_chemical_formula_sum            'C7 H7 Cr2 O7 P3'
_chemical_formula_weight         400.04
_chemical_name_systematic
;
 ?
;
_space_group_crystal_system      triclinic
_space_group_IT_number           2
_space_group_name_Hall           '-P 1'
_space_group_name_H-M_alt        'P -1'
_symmetry_space_group_name_Hall  '-P 1'
_symmetry_space_group_name_H-M   'P -1'
_atom_sites_solution_hydrogens   geom
_atom_sites_solution_primary     iterative
_audit_creation_date             2014-07-30
_audit_creation_method
;
Olex2 1.2-beta
(compiled 2014.07.22 svn.r2960 for OlexSys, GUI svn.r4862)
;
_cell_angle_alpha                111.796(12)
_cell_angle_beta                 92.150(10)
_cell_angle_gamma                115.204(14)
_cell_formula_units_Z            1
_cell_length_a                   6.9134(9)
_cell_length_b                   7.3239(10)
_cell_length_c                   8.7610(10)
_cell_measurement_reflns_used    2151
_cell_measurement_temperature    123(1)
_cell_measurement_theta_max      66.4330
_cell_measurement_theta_min      5.5550
_cell_volume                     362.43(11)
_computing_cell_refinement
;
CrysAlisPro, Agilent Technologies,
Version 1.171.37.34 (release 22-05-2014 CrysAlis171 .NET)
(compiled May 22 2014,16:03:01)
;
_computing_data_collection
;
CrysAlisPro, Agilent Technologies,
Version 1.171.37.34 (release 22-05-2014 CrysAlis171 .NET)
(compiled May 22 2014,16:03:01)
;
_computing_data_reduction
;
CrysAlisPro, Agilent Technologies,
Version 1.171.37.34 (release 22-05-2014 CrysAlis171 .NET)
(compiled May 22 2014,16:03:01)
;
_computing_molecular_graphics    'Olex2 (Dolomanov et al., 2009)'
_computing_publication_material  'Olex2 (Dolomanov et al., 2009)'
_computing_structure_refinement  'ShelXL (Sheldrick, 2008)'
_computing_structure_solution
;
Superflip (Palatinus & Chapuis, 2007;Palatinus & van der Lee, 2008;
Palatinus et al., 2012)
;
_diffrn_ambient_environment      N~2~
_diffrn_ambient_temperature      123(1)
_diffrn_detector                 'CCD plate'
_diffrn_detector_area_resol_mean 10.5431
_diffrn_detector_type            Ruby
_diffrn_measured_fraction_theta_full 0.980
_diffrn_measured_fraction_theta_max 0.977
_diffrn_measurement_details
;
  1 omega   29.60  116.00   1.6000    3.0000
omega____ theta____ kappa____ phi______ frames
    -       39.6306   37.0000  -30.0000 54

  2 omega   12.00  109.60   1.6000    3.0000
omega____ theta____ kappa____ phi______ frames
    -       39.6306   77.0000 -150.0000 61

  3 omega    8.00   89.60   1.6000    3.0000
omega____ theta____ kappa____ phi______ frames
    -       39.6306 -125.0000  120.0000 51

  4 omega -121.00  -93.80   1.6000   27.0000
omega____ theta____ kappa____ phi______ frames
    -      -83.0000  125.0000    0.0000 17

  5 omega   15.00  109.40   1.6000   27.0000
omega____ theta____ kappa____ phi______ frames
    -       93.5000  -77.0000  -30.0000 59

  6 omega   29.00   73.80   1.6000   27.0000
omega____ theta____ kappa____ phi______ frames
    -       93.5000  -45.0000 -120.0000 28

  7 omega   94.00  126.00   1.6000   27.0000
omega____ theta____ kappa____ phi______ frames
    -       93.5000  -86.0000  163.0000 20

  8 omega   63.00  160.60   1.6000   27.0000
omega____ theta____ kappa____ phi______ frames
    -       93.5000   77.0000   30.0000 61

  9 omega   19.00   65.40   1.6000   27.0000
omega____ theta____ kappa____ phi______ frames
    -       93.5000  -45.0000 -180.0000 29

 10 omega   40.00  161.60   1.6000   27.0000
omega____ theta____ kappa____ phi______ frames
    -       93.5000   15.0000 -180.0000 76

 11 omega   17.00   68.20   1.6000   27.0000
omega____ theta____ kappa____ phi______ frames
    -       93.5000  -86.0000  163.0000 32

 12 omega   10.00  131.60   1.6000   27.0000
omega____ theta____ kappa____ phi______ frames
    -       93.5000  -90.0000   94.0000 76

 13 omega    6.00  118.00   1.6000    3.0000
omega____ theta____ kappa____ phi______ frames
    -       39.6306   77.0000  150.0000 70

 14 omega  -37.00   63.80   1.6000    3.0000
omega____ theta____ kappa____ phi______ frames
    -       39.6306  -37.0000  150.0000 63

 15 omega    6.00  118.00   1.6000    3.0000
omega____ theta____ kappa____ phi______ frames
    -       39.6306   77.0000   60.0000 70

 16 omega   60.00  172.00   1.6000   27.0000
omega____ theta____ kappa____ phi______ frames
    -       93.5000   77.0000 -180.0000 70

 17 omega   60.00  172.00   1.6000   27.0000
omega____ theta____ kappa____ phi______ frames
    -       93.5000   77.0000  -30.0000 70

 18 omega   60.00  172.00   1.6000   27.0000
omega____ theta____ kappa____ phi______ frames
    -       93.5000   77.0000   90.0000 70

 19 omega   19.00   75.00   1.6000   27.0000
omega____ theta____ kappa____ phi______ frames
    -       93.5000  -45.0000   60.0000 35

 20 omega   60.00  172.00   1.6000   27.0000
omega____ theta____ kappa____ phi______ frames
    -       93.5000   77.0000  -60.0000 70

 21 omega   66.00  165.20   1.6000   27.0000
omega____ theta____ kappa____ phi______ frames
    -       93.5000   45.0000  -90.0000 62

 22 omega  -97.00  -20.20   1.6000    3.0000
omega____ theta____ kappa____ phi______ frames
    -      -39.6306  125.0000  -60.0000 48

 23 omega    6.00  118.00   1.6000    3.0000
omega____ theta____ kappa____ phi______ frames
    -       39.6306   77.0000    0.0000 70

 24 omega    6.00  118.00   1.6000    3.0000
omega____ theta____ kappa____ phi______ frames
    -       39.6306   77.0000  -60.0000 70

 25 omega   15.00   80.60   1.6000   27.0000
omega____ theta____ kappa____ phi______ frames
    -       93.5000 -111.0000 -105.0000 41

 26 omega   60.00  117.60   1.6000   27.0000
omega____ theta____ kappa____ phi______ frames
    -       93.5000   77.0000 -150.0000 36
;
_diffrn_measurement_device       'four-circle diffractometer'
_diffrn_measurement_device_type  'Xcalibur, Ruby, Gemini ultra'
_diffrn_measurement_method       '\w scans'
_diffrn_orient_matrix_UB_11      0.1375204000
_diffrn_orient_matrix_UB_12      0.1208994000
_diffrn_orient_matrix_UB_13      -0.0998276000
_diffrn_orient_matrix_UB_21      0.1121110000
_diffrn_orient_matrix_UB_22      0.2197174000
_diffrn_orient_matrix_UB_23      0.1626865000
_diffrn_orient_matrix_UB_31      0.1807011000
_diffrn_orient_matrix_UB_32      -0.0574347000
_diffrn_orient_matrix_UB_33      0.0385881000
_diffrn_radiation_monochromator  mirror
_diffrn_radiation_probe          x-ray
_diffrn_radiation_type           CuK\a
_diffrn_radiation_wavelength     1.54184
_diffrn_reflns_av_R_equivalents  0.0602
_diffrn_reflns_av_unetI/netI     0.0447
_diffrn_reflns_Laue_measured_fraction_full 0.980
_diffrn_reflns_Laue_measured_fraction_max 0.977
_diffrn_reflns_limit_h_max       8
_diffrn_reflns_limit_h_min       -7
_diffrn_reflns_limit_k_max       8
_diffrn_reflns_limit_k_min       -8
_diffrn_reflns_limit_l_max       10
_diffrn_reflns_limit_l_min       -10
_diffrn_reflns_number            4479
_diffrn_reflns_point_group_measured_fraction_full 0.980
_diffrn_reflns_point_group_measured_fraction_max 0.977
_diffrn_reflns_theta_full        66.500
_diffrn_reflns_theta_max         66.631
_diffrn_reflns_theta_min         5.592
_diffrn_source                   'sealed X-ray tube'
_diffrn_source_type              'Enhance Ultra (Cu) X-ray Source'
_exptl_absorpt_coefficient_mu    15.728
_exptl_absorpt_correction_T_max  0.724
_exptl_absorpt_correction_T_min  0.014
_exptl_absorpt_correction_type   gaussian
_exptl_absorpt_process_details
;
CrysAlisPro, Agilent Technologies,
Version 1.171.37.34 (release 22-05-2014 CrysAlis171 .NET)
(compiled May 22 2014,16:03:01)
Numerical absorption correction based on gaussian integration over
            a multifaceted crystal model
Empirical absorption correction using spherical harmonics,
 implemented in SCALE3 ABSPACK scaling algorithm.
;
_exptl_crystal_colour            green
_exptl_crystal_colour_primary    green
_exptl_crystal_density_diffrn    1.833
_exptl_crystal_description       plate
_exptl_crystal_F_000             198
_exptl_crystal_recrystallization_method
'The material was recrystallised from THF by cooling to -25'
_exptl_crystal_size_max          0.5603
_exptl_crystal_size_mid          0.1536
_exptl_crystal_size_min          0.0097
_refine_diff_density_max         0.555
_refine_diff_density_min         -0.380
_refine_diff_density_rms         0.108
_refine_ls_extinction_method     none
_refine_ls_goodness_of_fit_ref   1.053
_refine_ls_hydrogen_treatment    mixed
_refine_ls_matrix_type           full
_refine_ls_number_parameters     112
_refine_ls_number_reflns         1250
_refine_ls_number_restraints     12
_refine_ls_restrained_S_all      1.048
_refine_ls_R_factor_all          0.0436
_refine_ls_R_factor_gt           0.0386
_refine_ls_shift/su_max          0.000
_refine_ls_shift/su_mean         0.000
_refine_ls_structure_factor_coef Fsqd
_refine_ls_weighting_details
'w=1/[\s^2^(Fo^2^)+(0.0654P)^2^] where P=(Fo^2^+2Fc^2^)/3'
_refine_ls_weighting_scheme      calc
_refine_ls_wR_factor_gt          0.1004
_refine_ls_wR_factor_ref         0.1036
_reflns_Friedel_coverage         0.000
_reflns_number_gt                1097
_reflns_number_total             1250
_reflns_threshold_expression     'I > 2\s(I)'
_cod_data_source_file            ic5012082_si_005.cif
_cod_data_source_block           neu
_cod_depositor_comments
'Adding full bibliography for 4341321--4341322.cif.'
_cod_original_cell_volume        362.42(9)
_cod_database_code               4341322
#BEGIN Tags that were not found in dictionaries:
_shelxl_version_number           2014-3
_chemical_oxdiff_formula         'C7 H7 O7 P3 W2'
_shelx_space_group_comment
;
The symmetry employed for this shelxl refinement is uniquely defined
by the following loop, which should always be used as a source of
symmetry information in preference to the above space-group names.
They are only intended as comments.
;
_reflns_odcompleteness_completeness 96.53
_reflns_odcompleteness_iscentric 1
_reflns_odcompleteness_theta     66.97
_olex2_refinement_description
;
1. Fixed Uiso
 At 1.2 times of:
  All P(H,H) groups
 At 1.5 times of:
  All P(H,H,H) groups
2. Restrained distances
 P2-H2A = P2-H2B = P2-H2C = P3-H3A = P3-H3C = P3-H3B
 1.3 with sigma of 0.01
3. Uiso/Uaniso restraints and constraints
P2 \\sim C2: within 2A with sigma of 0.001 and sigma for terminal atoms of 0.001
4. Others
 Fixed Sof: P2(0.32) H2A(0.32) H2B(0.32) H2C(0.32) C4(0.82) O4(0.82) O2(0.68)
 C2(0.68) P3(0.18) H3A(0.18) H3B(0.18) H3C(0.18)
5.a Secondary CH2 refined with riding coordinates and stretchable bonds:
 P1(H1A,H1B)
5.b Idealised Me refined with riding coordinates and stretchable bonds:
 P2(H2A,H2B,H2C), P3(H3A,H3B,H3C)
;
_shelx_res_file
;
TITL neu in P-1
CELL 1.54184 6.91336 7.323859 8.761039 111.7963 92.1497 115.2036
ZERR 1 0.000949 0.001027 0.000991 0.0118 0.0104 0.0135
LATT 1

SFAC C H Cr O P
UNIT 7 7 2 7 3
DFIX 1.3 0.01 P2 H2a P2 H2b P2 H2c P3 H3a P3 H3c P3 H3b
SIMU 0.001 0.001 2 P2 C2

L.S. 4 0 0
PLAN  20
MORE -1
BOND $H
CONF
fmap 2 53
acta 133
REM <HKL>C:/Xray/sb81/struct/olex2_neu/neu.hkl</HKL>

WGHT    0.065400
FVAR       8.02095
CR1   3    0.084529    0.668159    0.677531    11.00000    0.02456    0.02607 =
         0.02784    0.01147    0.00732    0.01013
P1    5    0.037793    0.308435    0.559966    11.00000    0.02815    0.02638 =
         0.03157    0.01427    0.00784    0.01239
AFIX  24
H1A   2    0.218237    0.292579    0.564675    11.00000   -1.20000
H1B   2   -0.111827    0.168303    0.604181    11.00000   -1.20000
AFIX   0
PART 1
P2    5    0.222225    0.693513    0.927616    10.32000    0.03997    0.04499 =
         0.02668    0.01458    0.00584    0.01901
AFIX 134
H2A   2    0.359668    0.613444    0.907042    10.32000   -1.50000
H2B   2    0.062630    0.580074    0.982057    10.32000   -1.50000
H2C   2    0.323350    0.901563    1.037182    10.32000   -1.50000
AFIX   0
PART 0
O1    4    0.552244    0.861183    0.634581    11.00000    0.02906    0.04898 =
         0.06381    0.01300    0.01550    0.00595
O3    4   -0.372914    0.495495    0.745663    11.00000    0.03199    0.06566 =
         0.04397    0.02432    0.01623    0.01848
PART 2
C4    1    0.120801    0.961797    0.799916    10.82000    0.03596    0.03951 =
         0.03501    0.01743    0.00593    0.01344
O4    4    0.140650    1.135379    0.873079    10.82000    0.07146    0.03925 =
         0.04129    0.01026    0.01153    0.03284
PART 0
C1    1    0.373358    0.784575    0.646173    11.00000    0.03748    0.02683 =
         0.03136    0.00617    0.00481    0.01295
C3    1   -0.202854    0.557358    0.717314    11.00000    0.04035    0.03335 =
         0.02803    0.01217    0.00435    0.01731
PART 2
O2    4    0.276643    0.697262    1.012027    10.68000    0.08878    0.07217 =
         0.03271    0.02012   -0.00999    0.04199
C2    1    0.200947    0.683072    0.882349    10.68000    0.04007    0.04431 =
         0.02695    0.01442    0.00620    0.01932
PART 0
PART 1
P3    5    0.164038    1.020383    0.837480    10.18000    0.03216    0.03328 =
         0.04226    0.01190    0.01347    0.01801
AFIX 134
H3A   2    0.198528    1.059447    0.996045    10.18000   -1.50000
H3B   2    0.000422    1.052047    0.800415    10.18000   -1.50000
H3C   2    0.339532    1.155066    0.809259    10.18000   -1.50000
AFIX   0
HKLF 4

REM  neu in P-1
REM R1 =  0.0386 for    1097 Fo > 4sig(Fo)  and  0.0436 for all    1250 data
REM    112 parameters refined using     12 restraints

END

WGHT      0.0654      0.0000

REM Highest difference peak  0.555,  deepest hole -0.380,  1-sigma level  0.108
Q1    1   0.1752  0.8181  0.7611  11.00000  0.05    0.56
Q2    1   0.0032  0.5279  0.5748  11.00000  0.05    0.48
Q3    1   0.0986  0.7168  0.7995  11.00000  0.05    0.46
Q4    1   0.0911  0.4409  0.6458  11.00000  0.05    0.44
Q5    1   0.3518  1.1465  1.1056  11.00000  0.05    0.38
Q6    1   0.2334  0.7775  0.9873  11.00000  0.05    0.36
Q7    1   0.0613  0.3377  0.6706  11.00000  0.05    0.35
Q8    1   0.5000  0.5000  0.5000  10.50000  0.05    0.35
Q9    1   0.2194  1.1410  0.8575  11.00000  0.05    0.35
Q10   1   0.2372  0.9621  1.0566  11.00000  0.05    0.34
Q11   1  -0.2162  0.5260  0.5628  11.00000  0.05    0.33
Q12   1  -0.1624  0.4602  0.5837  11.00000  0.05    0.31
Q13   1   0.1186  0.8711  0.6882  11.00000  0.05    0.30
Q14   1   0.1858  0.6527  0.6987  11.00000  0.05    0.29
Q15   1  -0.1203  0.6893  0.7378  11.00000  0.05    0.29
Q16   1  -0.2725  0.4597  0.6544  11.00000  0.05    0.28
Q17   1   0.4873  0.8246  0.6723  11.00000  0.05    0.28
Q18   1  -0.1356  0.3236  0.6154  11.00000  0.05    0.27
Q19   1   0.3116  0.8188  0.6773  11.00000  0.05    0.27
Q20   1   0.1391  0.5185  0.5655  11.00000  0.05    0.26
;
_shelx_res_checksum              42667
_shelx_hkl_file
;
   0   0  -1 53048.3 2203.10  15
   0   0   1 46581.9 3271.37   1
   0   0  -1 56831.1 2618.16  13
   0   0   1 45071.0 2575.16  24
   0   0   2 33773.0 3086.91   1
   0   0  -2 35501.1 2305.53  13
   0   0   2 35833.0 2686.84  24
   0   0  -2 34537.7 1881.46  15
   0   0   2 28511.6 1287.81  23
   0   0   3 85961.4 2422.48  23
   0   0  -3 88818.5 3953.05  13
   0   0   3 82429.4 5440.44   1
   0   0   3 87099.9 3089.94   3
   0   0   3 88656.3 4843.19  24
   0   0  -3 83003.1 3129.63  15
   0   0   4 9610.98 2134.83   1
   0   0   4 7902.72 1765.50  24
   0   0  -4 10085.2 1266.39  15
   0   0  -4 10773.4 1565.71  13
   0   0   4 9016.97 1014.65   3
   0   0  -5 13226.9 889.246  10
   0   0  -5 12299.9 549.090  18
   0   0   5 13988.7 2495.51  24
   0   0   5 11740.0 2521.30   1
   0   0   5 12618.8 790.771  21
   0   0   5 14406.5 788.205  20
   0   0   5 12929.4 665.029  19
   0   0  -5 10269.8 1610.08  13
   0   0  -5 14543.2 1754.28  15
   0   0   6 6739.67 598.698  20
   0   0  -6 5690.55 430.766  18
   0   0   6 5343.42 1666.54  24
   0   0   6 5314.49 492.848  19
   0   0   6 5287.98 596.800  21
   0   0  -6 6396.01 704.745  10
   0   0   6 4140.23 1771.78   1
   0   0   7 3742.17 543.546  21
   0   0   7 4065.62 465.867  20
   0   0  -7 3485.01 363.341  18
   0   0  -7 3036.02 577.782  10
   0   0   7 3216.41 395.101  19
   0   0  -8 12007.0 620.579  18
   0   0   8 12102.4 909.854  21
   0   0  -8 11642.9 863.421  10
   0   0  -9 11057.1 649.269  10
   0   0  -9 10484.5 472.871  18
   0  -1   9 6889.60 740.064  21
   0   1  -9 7128.97 608.217  10
   0   1  -9 6337.47 402.925  18
   0   1  -8 197.282 312.224  10
   0  -1   8 404.343 228.989  19
   0  -1   8 282.345 204.782  20
   0  -1   8 229.220 357.386  21
   0   1  -8 172.146 155.716  18
   0   1  -7 1098.96 735.296  13
   0   1  -7 537.623 317.562  10
   0  -1   7-402.179 1391.66  14
   0  -1   7 277.284 324.305  21
   0  -1   7 222.245 224.379  20
   0   1  -7 905.883 216.773  18
   0  -1   7 297.861 252.674  19
   0  -1   7-880.192 667.601  24
   0   1  -6 6337.45 1487.11  13
   0  -1   6 8000.20 603.286  19
   0  -1   6 7723.45 2148.68  24
   0   1  -6 7751.24 491.168  18
   0  -1   6 6778.14 743.395  21
   0  -1   6 8113.32 668.982  20
   0  -1   6 4028.46 1496.00   1
   0   1  -6 7527.43 712.937  10
   0  -1   5 12892.0 2703.06   1
   0   1  -5 13588.0 846.114  10
   0  -1   5 11434.7 823.547  21
   0   1  -5 11859.4 1997.59  13
   0  -1   5 14165.4 2781.26  24
   0  -1   4 66803.1 5815.57  24
   0   1  -4 75806.1 4649.79  13
   0   1  -3 127720. 7047.07  13
   0  -1   3 142848. 2543.92   3
   0  -1   3 132961. 4802.10  23
   0  -1   3 139694. 6707.52   1
   0  -1   2 14583.9 1792.46  14
   0  -1   2 18422.2 1623.17  23
   0   1  -2 16312.1 1595.81  13
   0  -1   2 15256.4 1525.42   1
   0  -1   2 15271.4 1447.54  24
   0   1  -1 273065. 4596.79   2
   0  -1   1 280932. 5009.50  14
   0  -1   1 273310. 4249.11  23
   0  -1   1 276516. 2729.80  15
   0   1  -1 276345. 3694.48  13
   0  -1   0 68122.6 1984.60  23
   0  -1   0 68419.9 2133.14  14
   0   1   0 69946.3 2217.36   2
   0   1   1 41402.5 1952.73  24
   0   1   1 44850.9 2129.10   2
   0   1   2 71359.4 5445.21   1
   0  -1  -2 68768.7 3328.13  15
   0   1   3 1736.82 840.000  24
   0  -1  -3 2122.33 617.886  15
   0   1   3 1384.60 1134.89   1
   0  -1  -3 2204.96 598.341  13
   0   1   4 201885. 8316.54  24
   0   1   4 199362. 3041.89  21
   0  -1  -4 201825. 2152.08  18
   0  -1  -4 195858. 6078.52  15
   0  -1  -5 76693.0 2218.05  10
   0   1   5 83771.7 1736.77  19
   0  -1  -5 93681.2 4826.96  15
   0   1   5 82063.6 2106.74  21
   0  -1  -5 83937.4 1509.43  18
   0   1   5 86329.3 7426.19   1
   0   1   5 80690.3 5833.46  24
   0  -1  -6 429.217 332.802  10
   0  -1  -6 521.705 205.184  18
   0   1   6 711.830 323.146  21
   0   1   6 638.145 252.282  19
   0  -1  -7 9117.85 561.110  18
   0  -1  -7 9963.72 866.921  10
   0   1   7 9313.97 833.410  21
   0   1   8 13586.2 878.627  21
   0  -1  -8 11264.1 537.745  18
   0  -1  -8 12374.6 762.816  10
   0   2 -10 319.102 202.753  10
   0  -2  10 490.234 171.105  11
   0   2  -9 4382.22 541.749  10
   0  -2   9 3101.79 367.956  20
   0   2  -8 14212.0 1023.38  10
   0  -2   8 15219.2 851.054  19
   0  -2   8 13648.5 1237.34  21
   0  -2   8 14116.3 752.382  20
   0  -2   7 5006.99 564.023  20
   0  -2   7 2459.56 2081.11  14
   0  -2   7 5480.51 584.559  19
   0  -2   7 4822.45 801.064  21
   0  -2   7 6943.49 2245.53   1
   0   2  -7 4734.93 1504.31  13
   0   2  -7 4648.53 630.274  10
   0  -2   6 1807.51 2152.78  14
   0  -2   6 921.566 472.857  21
   0   2  -6 1558.62 759.344  13
   0  -2   6 1586.71 1167.58  24
   0  -2   6 1276.19 382.952  20
   0  -2   6 1364.88 325.543  19
   0   2  -6 1376.51 361.824  10
   0  -2   6 730.941 1045.78   1
   0  -2   5 41661.6 7663.22  14
   0  -2   5 34119.1 5304.28  24
   0  -2   5 47512.2 2148.28  21
   0  -2   5 49609.3 7273.53   1
   0   2  -5 49656.5 4425.66  13
   0   2  -5 46621.5 7293.48   2
   0  -2   4 26498.2 3699.01  14
   0  -2   4 32639.8 3622.10  24
   0  -2   4 26527.4 2166.83  23
   0   2  -4 35917.8 5538.12  13
   0   2  -4 25492.9 3038.75   2
   0  -2   4 27172.0 3084.49   1
   0   2  -3 7226.19 1209.64  13
   0  -2   3 7123.63 2034.35  23
   0   2  -3 7090.69 1241.43   2
   0  -2   3 8583.34 1629.26  14
   0  -2   2 131705. 4424.30  23
   0   2  -2 139429. 3761.45  13
   0   2  -2 139653. 4694.39   2
   0  -2   2 136487. 4914.20  14
   0  -2   1 3758.61 765.230  14
   0   2  -1 4078.42 518.454  13
   0   2  -1 4165.20 809.069   2
   0  -2   1 3617.73 679.389  23
   0  -2   1 4914.25 2195.83  15
   0  -2   0 88774.1 6158.93  15
   0  -2   0 82728.9 3321.07  14
   0   2   0 87263.2 3511.93   2
   0  -2   0 89316.3 3400.39  23
   0  -2  -1 97145.4 4808.88  15
   0   2   1 102150. 4053.60  24
   0   2   1 110492. 4580.15   2
   0  -2  -2 8312.75 1346.87  15
   0   2   2 9800.50 1712.91   2
   0   2   2 7246.78 1492.28  24
   0  -2  -3 43080.5 1033.01  18
   0   2   3 50660.5 8202.87   1
   0   2   3 48051.6 4668.42  24
   0  -2  -3 39100.1 2948.88  15
   0   2   3 53347.1 2336.58  21
   0   2   4 100684. 9498.72   1
   0  -2  -4 90986.3 1616.26  18
   0   2   4 96380.4 2635.88  21
   0  -2  -4 91835.3 4846.38  15
   0  -2  -5 4588.02 1224.90  15
   0  -2  -5 3516.27 579.351  10
   0   2   5 4636.84 647.690  21
   0   2   5 4334.27 477.071  19
   0  -2  -5 4423.41 424.303  18
   0  -2  -6 8974.36 833.595  10
   0   2   6 8926.88 857.885  21
   0  -2  -6 8667.53 558.561  18
   0  -2  -7 1242.45 243.784  18
   0   2   7 1753.96 420.608  21
   0  -2  -7 1074.48 351.445  10
   0  -3  10 233.088 170.964  20
   0   3 -10 195.242 220.881  10
   0  -3  10 84.8888 143.012  11
   0  -3   9 11610.3 641.930  20
   0  -3   9 12228.2 653.720  11
   0   3  -8 38284.1 1293.82  16
   0  -3   8 35335.0 1255.82  20
   0   3  -8 37461.6 1568.95  10
   0  -3   7 3247.13 2081.30  14
   0   3  -7 6335.90 1776.13  13
   0  -3   7 7178.50 524.531  17
   0  -3   7 5163.29 624.170  20
   0   3  -7 5883.21 790.260  10
   0   3  -6 7310.67 2640.03   2
   0  -3   6 9159.68 661.037  17
   0  -3   6 6661.22 1006.84  20
   0   3  -6 9714.56 2271.20  13
   0  -3   6 8735.44 3580.82  14
   0   3  -6 10564.9 941.853  10
   0  -3   5 618.576 394.195  23
   0   3  -5-198.728 687.300   2
   0   3  -5 579.973 219.360  10
   0  -3   5 662.471 387.307  17
   0  -3   5 453.837 266.596  20
   0   3  -5 173.434 1079.58  13
   0  -3   5 1326.91 1012.49  14
   0  -3   4 8796.08 1885.26  14
   0  -3   4 7163.01 1726.44  23
   0   3  -4 8528.59 1412.78  13
   0   3  -4 8975.90 1670.13   2
   0   3  -3 8879.06 1221.06  13
   0  -3   3 8157.31 1691.04  23
   0  -3   3 8055.98 1494.22  14
   0   3  -3 9459.34 1621.68   2
   0  -3   2 1297.27 653.174  23
   0  -3   2 1575.00 628.396  14
   0   3  -2 1067.27 652.135   2
   0   3  -2 1500.77 444.181  13
   0  -3   2 1150.88 420.977  15
   0  -3   1 2055.15 1249.41  15
   0  -3   1 4535.64 1045.21  23
   0  -3   1 4100.65 975.067  14
   0   3  -1 3644.26 572.121  13
   0   3  -1 4205.04 1033.80   2
   0  -3   0 66901.9 4099.87  15
   0   3   0 80285.3 4316.45   2
   0  -3   0 80534.0 4205.47  14
   0   3   0 76966.6 3951.47  24
   0   3   1 10604.5 1830.53   2
   0  -3  -1 8347.39 1476.03  15
   0   3   1 11624.9 1708.05  24
   0  -3  -2 12980.8 661.411   9
   0   3   2 13760.8 2552.74   2
   0   3   2 13573.4 907.316  21
   0  -3  -2 15919.7 816.638   8
   0  -3  -2 10190.7 1748.61  15
   0   3   2 13856.2 791.405  26
   0   3   3 7816.68 1141.53  21
   0  -3  -3 6848.93 488.096   8
   0  -3  -3 5860.46 1423.54  15
   0  -3  -3 5999.80 416.968  18
   0  -3  -4 978.963 245.811  18
   0   3   4 1018.50 428.877  21
   0  -3  -4 1072.13 221.458   8
   0   3   5 10498.2 894.613  21
   0  -3  -5 10618.1 847.406  10
   0  -3  -5 11718.7 616.976  18
   0  -3  -6 4436.40 360.277  18
   0   3   6 4399.53 556.867  21
   0  -3  -6 4630.23 561.787  10
   0   4 -10 202.707 203.609  10
   0  -4  10 517.379 197.602  20
   0  -4  10 430.618 162.067  11
   0  -4   9 9570.14 604.749  20
   0   4  -9 8510.96 559.569  16
   0   4  -9 9829.43 754.144  10
   0  -4   9 9871.99 599.507  11
   0   4  -8 2045.03 465.311  10
   0   4  -8 2169.24 375.932  16
   0  -4   8 2281.58 329.119  17
   0  -4   8 2253.85 438.338  20
   0  -4   8 1983.55 360.233  11
   0   4  -7 3235.05 530.816  16
   0   4  -7 4231.57 725.425  10
   0  -4   7 2541.30 630.074  20
   0  -4   7 3613.93 462.051  17
   0  -4   7 3920.67 704.122  11
   0   4  -6 3498.19 865.208  16
   0  -4   6 2223.32 498.667  17
   0  -4   6 3286.40 365.649  11
   0   4  -6 3774.67 452.439  10
   0   4  -6 3564.29 1919.30  13
   0  -4   6 3350.86 478.771  20
   0  -4   6 2172.28 1351.10  14
   0   4  -5 8340.47 579.067  10
   0  -4   5 8143.32 805.702  17
   0   4  -5 7774.24 2049.80   2
   0  -4   5 7424.14 429.344  11
   0  -4   5 8393.44 2066.17  14
   0  -4   5 7968.86 1861.70  23
   0   4  -5 7005.65 1484.77  13
   0  -4   5 7454.98 484.791  20
   0   4  -5 8285.91 669.651  16
   0   4  -4 136015. 2068.81  10
   0   4  -4 142398. 7694.12   2
   0  -4   4 139762. 2338.48  12
   0  -4   4 134905. 2082.27  17
   0  -4   4 136247. 1845.29  20
   0   4  -4 137007. 2251.16  16
   0  -4   4 154076. 7814.81  14
   0   4  -4 134253. 5562.20  13
   0  -4   4 133299. 12884.7  23
   0  -4   3 44375.5 1096.05  17
   0  -4   3 45127.4 1334.95  12
   0  -4   3 47073.5 3923.09  14
   0   4  -3 40261.7 2650.31  13
   0   4  -3 46748.6 1194.40  16
   0   4  -3 43213.4 4039.50   2
   0  -4   3 44653.8 4242.54  23
   0  -4   2 3752.70 1058.86  14
   0  -4   2 4607.31 354.605  17
   0   4  -2 3937.47 332.341  16
   0   4  -2 4006.04 377.684  26
   0   4  -2 3716.09 1167.60   2
   0  -4   2 3083.09 1118.79  23
   0  -4   2 3825.81 456.184  12
   0  -4   1 13737.7 3029.57  15
   0   4  -1 17062.1 765.277  26
   0  -4   1 16050.9 647.823   9
   0  -4   1 17439.7 2352.69  14
   0   4  -1 15063.4 2326.01   2
   0   4   0 3141.69 1164.28   2
   0  -4   0 2574.57 301.484   9
   0   4   0 2755.56 339.702  26
   0  -4   0 2615.16 1021.80  14
   0  -4   0 2103.05 857.497  15
   0  -4   0 3013.63 598.929   8
   0  -4  -1 2815.51 352.966   9
   0   4   1 2658.51 467.630  21
   0   4   1 2602.55 379.822  26
   0  -4  -1 1662.63 680.885  15
   0  -4  -1 2066.28 410.950   8
   0   4   1 2603.34 1180.26   2
   0  -4  -2 1054.88 624.371  15
   0   4   2 834.884 432.616  21
   0   4   2 590.964 284.054  26
   0  -4  -2 780.893 286.459   8
   0   4   3-152.055 602.436  21
   0  -4  -3 4.91234 183.404   8
   0   4   4 7956.53 847.782  21
   0  -4  -4 8845.36 510.595   8
   0  -4  -5 15919.5 842.766  10
   0   4   5 17060.7 934.844  21
   0  -5  10 364.110 164.774  20
   0  -5   9 5593.47 509.648  20
   0  -5   9 4724.94 418.963  11
   0   5  -9 4286.14 435.753  16
   0   5  -9 4651.93 500.612  10
   0  -5   9 4842.47 357.321  17
   0  -5   8 18593.5 836.724  17
   0   5  -8 17843.6 1375.56  10
   0   5  -8 18689.6 1020.78  16
   0  -5   8 17719.9 1132.58  11
   0  -5   8 14870.3 993.706  20
   0  -5   7 26118.0 1348.65  20
   0   5  -7 22945.1 1222.95  10
   0  -5   7 22945.9 925.922  11
   0  -5   7 20819.5 1173.87  17
   0   5  -7 18653.0 1334.58  16
   0  -5   6 1701.55 451.578  25
   0  -5   6 2809.33 910.621  17
   0   5  -6 2083.73 369.374  10
   0  -5   6 2055.43 337.715  20
   0   5  -6 2313.66 557.707  16
   0  -5   5 29388.5 1197.77  17
   0  -5   5 28576.4 1572.83  12
   0   5  -5 28757.4 1139.65  10
   0   5  -5 27853.4 1181.20  16
   0   5  -5 24173.3 3745.93   2
   0  -5   5 29996.5 3985.50  14
   0  -5   5 28808.2 980.438  20
   0   5  -5 22431.3 2635.37  13
   0   5  -4 24526.2 1038.53  10
   0   5  -4 23433.7 1055.05  26
   0  -5   4 25053.3 884.701  20
   0   5  -4 23549.7 3484.92   2
   0  -5   4 20696.0 1117.89  12
   0  -5   4 28567.8 3687.28  14
   0   5  -4 24443.6 1012.17  16
   0  -5   4 25234.2 936.157  17
   0   5  -3 717.125 225.396  26
   0   5  -3 966.424 228.912  16
   0   5  -3 769.695 596.458   2
   0  -5   3 1031.75 595.552   8
   0   5  -3 955.349 257.113  10
   0  -5   3 904.194 587.590  14
   0  -5   3 938.274 232.736  17
   0  -5   2 4298.46 376.053  17
   0   5  -2 4235.81 1519.01   2
   0   5  -2 4390.52 371.925  16
   0  -5   2 4097.01 1404.27  14
   0  -5   2 3929.29 379.346   9
   0  -5   2 4151.14 641.942   8
   0   5  -2 3794.65 447.182  26
   0  -5   1 224.784 169.382   9
   0   5  -1 179.528 194.667  26
   0   5  -1 1006.32 630.485   2
   0  -5   1 246.391 281.976   8
   0  -5   1 739.493 667.753  14
   0   5   0 44775.9 1885.60  21
   0   5   0 43635.5 1514.73  26
   0  -5   0 47262.1 2051.27  25
   0  -5   0 42795.0 1302.35   9
   0  -5   0 40322.5 1453.10   8
   0   5   0 46510.6 5250.35   2
   0   5   1 17003.7 1218.95  21
   0  -5  -1 16240.9 908.095   8
   0  -5  -1 16132.6 910.454   9
   0   5   1 15261.3 1047.31  26
   0   5   2 13876.8 1570.62  21
   0  -5  -2 11220.4 690.538   8
   0  -5  -3 1587.02 270.956   8
   0   5   3 1746.18 587.063  21
   0  -5  -4 5389.41 440.686  10
   0   5   4 7216.30 596.868  21
   0   6  -9 9543.16 570.010  16
   0  -6   9 10829.9 605.708  20
   0  -6   9 10529.1 461.571  17
   0   6  -8 11719.0 791.495  16
   0  -6   8 14943.3 1209.95  20
   0  -6   8 13820.7 757.023  17
   0   6  -7 3367.24 530.969  10
   0  -6   7 3627.85 453.094  20
   0   6  -7 2211.16 437.140  26
   0   6  -7 4351.26 1003.05  16
   0  -6   7 2501.82 606.996  17
   0  -6   6 1584.50 499.982  17
   0   6  -6 951.741 390.814  26
   0  -6   6 1048.83 393.426  25
   0   6  -6 1122.92 346.077  16
   0  -6   6 1236.66 295.111  20
   0   6  -6 1638.36 382.671  10
   0   6  -5 959.472 296.584  10
   0  -6   5 357.630 425.181  25
   0   6  -5 737.835 291.406  26
   0   6  -5 592.560 241.465  16
   0  -6   5 665.704 286.026  17
   0   6  -4 18073.3 871.777  16
   0   6  -4 19038.7 1061.31  10
   0  -6   4 18606.5 902.725   9
   0   6  -4 18508.5 1012.05  26
   0  -6   4 19559.2 841.215  17
   0  -6   3 16567.4 1451.84   8
   0  -6   3 18441.6 800.914  17
   0   6  -3 18371.5 804.551  16
   0   6  -3 17855.8 986.276  26
   0  -6   3 20674.2 1832.82  25
   0  -6   3 16889.0 861.353   9
   0  -6   2 6061.57 672.628   8
   0  -6   2 5484.22 430.579  17
   0   6  -2 6162.21 633.796  26
   0  -6   2 5653.58 849.961  25
   0   6  -2 5209.94 435.619  16
   0  -6   2 5272.32 476.916   9
   0  -6   1 1891.86 500.068  25
   0  -6   1 2169.08 354.073   9
   0  -6   1 2573.04 398.553   8
   0   6  -1 2902.75 466.773  26
   0   6  -1 2722.42 570.536  21
   0   6   0 34484.8 1696.33  21
   0  -6   0 31748.4 1150.97   8
   0   6   0 33969.9 1498.49  26
   0   6   1 5459.00 1057.55  21
   0  -6  -1 4228.46 436.118   8
   0   6   2 372.599 349.958  21
   0   7  -8 885.768 238.837  16
   0  -7   8 1024.45 264.794   9
   0   7  -7 11023.6 945.550  16
   0   7  -7 4959.75 541.566  26
   0  -7   7 4106.00 463.006  25
   0  -7   7 7714.46 753.006   9
   0  -7   7 7779.19 830.146  17
   0  -7   6 3034.75 419.161  17
   0  -7   6 2438.84 360.501   9
   0  -7   6 1582.26 425.070  25
   0   7  -6 2410.02 369.171  16
   0   7  -6 3073.18 610.788  26
   0  -7   5 3090.22 650.392  25
   0   7  -5 3567.50 389.332  16
   0   7  -5 3403.58 480.867  26
   0  -7   5 4144.59 398.162  17
   0  -7   5 3645.33 412.270   9
   0   7  -4 19816.1 1013.78  26
   0  -7   4 17414.8 1610.76  25
   0  -7   4 19522.7 746.075  17
   0   7  -4 18843.8 792.051  16
   0  -7   4 19138.6 866.141   9
   0   7  -3 10722.6 984.269  21
   0  -7   3 13478.9 723.620   9
   0  -7   3 12136.6 977.312   8
   0  -7   3 14915.7 1171.91  25
   0   7  -3 14700.5 922.132  26
   0  -7   2 1586.38 417.116  25
   0   7  -2 1659.25 472.872  21
   0   7  -2 2008.57 405.742  26
   0  -7   2 1636.84 291.217   9
   0  -7   2 1611.89 372.431   8
   0   7  -1 4187.74 613.748  21
   0   7  -1 3648.76 541.908  26
   0  -7   1 4238.32 369.413   8
   0  -7   0 211.972 150.755   8
   0   7   0 420.788 546.035  21
  -1   8  -2 420.240 313.801  21
   1  -8   3 282.844 188.310   9
  -1   8  -3 340.902 208.765  26
   1  -8   3 60.0422 259.226  25
  -1   8  -3 731.095 382.264  21
   1  -8   4 5625.24 751.007  25
  -1   8  -4 6379.38 541.202  26
   1  -8   4 5981.58 457.403   9
   1  -8   5 344.503 296.769  25
  -1   8  -5-66.3981 232.586  26
   1  -8   5 87.4698 178.690   9
  -1   8  -6 8863.73 782.389  26
   1  -8   6 7167.76 540.425   9
   1  -8   6 8302.75 571.982  17
   1  -7  -1 1711.60 255.770   8
  -1   7   1 2479.03 649.072  21
  -1   7   0 326.982 267.967  26
   1  -7   0 710.559 216.794   8
  -1   7   0 800.286 489.383  21
   1  -7   1 399.093 264.134   8
   1  -7   1 486.675 313.977  25
   1  -7   1 360.986 257.119   9
  -1   7  -1 272.105 449.218  21
  -1   7  -1 824.350 327.898  26
   1  -7   2 8313.84 857.488  25
  -1   7  -2 8926.39 711.375  26
   1  -7   2 9343.15 987.969   8
   1  -7   2 8360.40 651.399   9
  -1   7  -2 7229.82 886.624  21
   1  -7   3 23374.2 1658.64  25
   1  -7   3 23012.9 918.460  17
   1  -7   3 21512.0 997.327   9
  -1   7  -3 23269.6 1100.55  26
   1  -7   4 14861.3 728.655  17
  -1   7  -4 13124.3 689.157  16
   1  -7   4 12996.9 777.179   9
  -1   7  -4 14306.2 907.930  26
   1  -7   5-8.94344 409.350  25
  -1   7  -5 66.2924 280.693  26
   1  -7   5 142.386 236.024   9
  -1   7  -5-70.4203 208.387  16
   1  -7   5 180.324 272.454  17
  -1   7  -6 7491.52 810.773  26
  -1   7  -6 7050.18 640.324  16
   1  -7   6 7246.72 639.186   9
   1  -7   6 5912.65 690.896  25
   1  -7   7 6498.64 961.713   9
  -1   7  -7 4095.58 737.859  26
   1  -7   7 4951.16 605.707  17
   1  -7   8 64.7166 186.745  17
  -1   7  -8-18.7663 176.496  26
  -1   7  -8-439.214 237.865  16
   1  -7   8 84.3178 205.372   9
  -1   6   3 558.225 318.793  21
   1  -6  -3 280.456 165.375   8
   1  -6  -2 1444.48 301.265   8
  -1   6   2 64.3606 820.020  21
  -1   6   1 12273.6 1213.33  21
   1  -6  -1 11619.7 693.035   8
  -1   6   1 10810.7 925.011  26
  -1   6   0 14186.4 1125.02  21
  -1   6   0 12645.4 862.646  26
   1  -6   0 11633.1 911.189  25
   1  -6   0 11388.6 768.309   9
   1  -6   0 11205.1 704.234   8
   1  -6   1 4174.30 636.631  25
  -1   6  -1 4691.25 504.258  26
   1  -6   1 3755.93 476.878   8
   1  -6   1 4114.08 461.050   9
   1  -6   2 3297.23 407.431   9
  -1   6  -2 2488.27 364.537  26
   1  -6   2 3192.95 859.926   8
   1  -6   2 3190.36 673.674  25
   1  -6   2 3047.25 381.504  17
  -1   6  -3 23622.2 1066.87  26
  -1   6  -3 27758.6 969.035  16
   1  -6   3 26311.7 1065.47   9
   1  -6   3 26172.7 2194.12  25
   1  -6   3 27458.4 1006.76  17
   1  -6   3 26166.1 1337.32  12
  -1   6  -4 4466.32 471.881  16
   1  -6   4 4138.78 774.790  25
   1  -6   4 4906.95 456.195  17
   1  -6   4 4257.86 450.306   9
   1  -6   4 3785.95 519.262  12
  -1   6  -4 4573.26 531.248  26
   1  -6   5 2980.69 595.059  25
   1  -6   5 3141.95 451.009  17
   1  -6   5 2921.57 376.424  20
  -1   6  -5 2811.59 451.098  16
   1  -6   5 2569.46 510.315  12
   1  -6   6 527.090 602.924  17
   1  -6   6 517.643 268.023  20
   1  -6   6 476.318 171.378  11
   1  -6   6 207.180 259.656  25
  -1   6  -6 684.098 354.314  16
   1  -6   7 10616.5 860.572  20
   1  -6   7 8408.70 545.356  11
   1  -6   7 8691.03 723.313  17
  -1   6  -7 7592.04 1116.13  16
   1  -6   8 15379.0 1111.50  20
  -1   6  -8 16557.4 1020.95  16
   1  -6   9 660.133 197.487  11
  -1   6  -9 509.859 228.968  16
   1  -6   9 880.945 286.171  20
  -1   5   5 2769.06 398.982  21
  -1   5   4 19157.5 1083.17  21
   1  -5  -4 14529.8 589.876   8
   1  -5  -3 748.676 236.828   8
  -1   5   3 1061.29 652.830  21
   1  -5  -2 17557.3 828.778   8
  -1   5   2 15832.2 1324.89  21
  -1   5   2 15214.2 1071.50  26
  -1   5   1 24090.4 3777.43   2
   1  -5  -1 25396.4 1014.84   8
  -1   5   1 26428.8 1202.93  26
  -1   5   1 27496.3 1452.42  21
   1  -5  -1 26358.8 1163.01   9
   1  -5   0 8221.05 619.950   8
  -1   5   0 8748.85 643.096  26
   1  -5   0 10511.4 920.638  25
  -1   5   0 9330.46 2181.75   2
   1  -5   0 9022.57 595.014   9
  -1   5  -1 1169.95 939.288  24
   1  -5   1 770.119 300.246   8
   1  -5   1 367.276 175.364  17
  -1   5  -1 1130.97 849.984   2
   1  -5   1 751.717 361.981  25
   1  -5   1 558.816 194.477   9
  -1   5  -1 469.849 187.416  26
   1  -5   1 458.280 685.742  14
   1  -5   2 241.157 458.797   8
   1  -5   2 1003.34 572.499  25
   1  -5   2 1507.70 931.693  14
   1  -5   2 694.387 210.563  17
  -1   5  -2 264.134 161.240  26
   1  -5   2 618.267 195.898   9
   1  -5   2 651.515 320.623  12
  -1   5  -2 663.996 158.220  16
  -1   5  -2 259.613 447.030   2
   1  -5   3 1497.00 747.228  14
   1  -5   3 1558.80 199.222  11
  -1   5  -3 1197.59 703.231   2
   1  -5   3 1746.04 351.967  12
   1  -5   3 1444.67 606.065  25
  -1   5  -3 1441.43 251.379  16
   1  -5   3 1490.32 268.585  17
   1  -5   3 1140.70 273.387  20
   1  -5   4 15047.2 734.518  17
   1  -5   4 15196.7 609.241  11
   1  -5   4 16629.3 2769.67  14
  -1   5  -4 13283.1 813.435  16
   1  -5   4 14511.7 811.149  12
   1  -5   4 14597.0 1227.74  25
  -1   5  -4 17486.5 3015.06   2
   1  -5   4 14011.8 727.018  20
   1  -5   5 2642.00 507.486  17
   1  -5   5 2611.91 439.525  12
  -1   5  -5 1894.14 561.459  13
   1  -5   5 2484.03 284.662  11
   1  -5   5 2333.41 440.650  25
   1  -5   5 2590.57 329.264  20
  -1   5  -5 2213.54 429.955  16
  -1   5  -5 2012.27 1030.33   2
   1  -5   5 3127.37 1320.92  14
  -1   5  -6 13808.9 3212.72  13
   1  -5   6 11007.0 2752.51  14
  -1   5  -6 16276.6 1585.66  16
   1  -5   6 11793.0 628.492  11
   1  -5   6 8636.86 936.643  17
  -1   5  -6 8312.15 3040.57   2
   1  -5   6 13839.6 799.472  20
   1  -5   6 9398.69 939.271  12
   1  -5   7 19427.7 1068.20  11
   1  -5   7 19380.2 961.605  17
  -1   5  -8 17468.6 1068.18  16
   1  -5   8 16519.2 1016.97  20
   1  -5   9 230.506 238.821  20
   1  -5   9 259.531 200.040  11
  -1   5  -9-137.360 234.157  16
   1  -5  10 422.416 167.866  20
   1  -5  10 411.570 139.289  11
  -1   4   6 10257.3 667.471  21
   1  -4  -6 6838.39 456.357  10
   1  -4  -5 48020.8 1463.57  10
  -1   4   5 46397.9 1712.52  21
   1  -4  -5 45446.6 1022.15  18
   1  -4  -5 44847.8 1032.92   6
   1  -4  -4 13444.0 604.658  18
   1  -4  -4 13410.2 632.612   8
   1  -4  -4 13760.2 856.051  10
  -1   4   4 13507.2 1146.09  21
  -1   4   3 5221.19 1082.11  21
   1  -4  -3 5020.13 435.988   8
  -1   4   2 18385.5 4625.56   1
  -1   4   2 18771.7 938.328  26
  -1   4   2 18819.8 3098.10   2
  -1   4   2 17122.7 1137.67  21
   1  -4  -2 17567.2 2569.32  15
   1  -4  -2 19390.4 824.014   8
   1  -4  -2 17311.1 986.865   9
  -1   4   1 17047.2 759.552  26
  -1   4   1 16145.4 2383.41   2
   1  -4  -1 18009.3 807.480   9
  -1   4   1 15113.7 2434.11  24
   1  -4  -1 15621.8 767.931   8
   1  -4  -1 12632.2 2317.97  15
  -1   4   1 16007.0 976.828  21
   1  -4   0 56718.8 1472.83   8
   1  -4   0 60765.2 4478.62  14
  -1   4   0 57892.8 4118.81   2
  -1   4   0 55919.3 4499.66  24
   1  -4   0 57651.5 1245.38   9
  -1   4   0 59391.7 1297.84  26
   1  -4   1 752.809 467.167  15
   1  -4   1 929.944 535.243  14
  -1   4  -1 799.928 659.691   2
  -1   4  -2 7639.42 1602.15   2
   1  -4   2 6301.40 1293.57  14
  -1   4  -3 65431.1 3266.71  13
  -1   4  -3 74218.5 5053.49   2
   1  -4   3 74795.7 4822.92  14
   1  -4   4 33945.7 1035.58  12
   1  -4   4 34829.8 3612.07  14
   1  -4   4 34525.1 1521.66  25
   1  -4   4 35002.0 1063.70  17
   1  -4   4 33491.0 853.702  11
  -1   4  -4 34149.9 3746.39   2
   1  -4   4 32878.5 907.936  20
  -1   4  -4 30262.3 2753.86  13
   1  -4   5 1220.98 483.899  17
   1  -4   5 1060.37 197.012  11
   1  -4   5 864.694 234.411  20
  -1   4  -5 813.359 986.592   2
  -1   4  -5 398.747 733.084  13
   1  -4   5 464.811 541.082  14
   1  -4   5 1358.93 361.136  12
   1  -4   6 1186.36 403.446  20
   1  -4   6 898.191 288.865  17
   1  -4   6 504.788 705.043  14
  -1   4  -6 121.134 1702.97   2
  -1   4  -6 958.134 279.575  10
  -1   4  -6 342.001 781.041  13
   1  -4   6 731.052 263.304  11
   1  -4   7 2590.52 506.975  20
   1  -4   7 3044.53 671.616  11
  -1   4  -7 4546.84 852.291  10
  -1   4  -7 4140.67 1844.73   2
   1  -4   8 554.700 298.650  20
   1  -4   8 372.567 255.746  11
  -1   4  -8 483.865 244.568  10
  -1   4  -9 4778.55 492.020  16
  -1   4  -9 5304.26 525.099  10
   1  -4   9 5603.28 458.300  20
   1  -4   9 5327.84 464.630  11
   1  -4  10 1242.69 199.911  11
   1  -4  10 1009.88 215.156  20
   1  -3  -7 1026.26 255.366  10
   1  -3  -7 968.145 176.621  18
  -1   3   7 1412.05 366.703  21
   1  -3  -6 9121.57 716.586  10
   1  -3  -6 9579.85 554.013  18
  -1   3   6 10073.1 865.323  21
  -1   3   5 11819.0 1033.97  21
   1  -3  -5 12270.9 879.803  10
   1  -3  -5 12489.7 651.600  18
  -1   3   4 4214.71 2429.41   1
   1  -3  -4 4791.37 400.028  18
  -1   3   4 5058.65 783.895  21
   1  -3  -4 5313.78 406.486   8
  -1   3   3 31301.5 1832.40  21
   1  -3  -3 30997.4 941.173  18
  -1   3   3 25829.8 4638.23  24
   1  -3  -3 29852.2 3009.17  15
   1  -3  -3 31920.1 921.936   8
  -1   3   2 1235.54 717.073   2
  -1   3   2 1066.42 755.989  24
   1  -3  -2 1151.72 216.746   8
   1  -3  -2 928.969 220.602   9
  -1   3   2-616.228 1175.90   1
  -1   3   2 961.629 313.063  21
   1  -3  -2 674.276 518.668  15
  -1   3   1 161538. 6648.35  24
   1  -3  -1 155471. 8089.34  15
  -1   3   1 170000. 5808.06   2
   1  -3   0 353225. 9455.57  15
   1  -3   0 347271. 8754.00  14
  -1   3   0 368921. 8302.39   2
  -1   3  -1 2637.18 366.709  13
  -1   3  -1 2415.07 819.287   2
   1  -3   1 2301.29 707.692  14
   1  -3   1 2192.69 503.504  15
  -1   3  -2 100928. 3365.32  13
   1  -3   2 94145.1 4206.21  14
  -1   3  -2 87331.1 4427.55   2
   1  -3   3 60614.8 3940.45  14
  -1   3  -3 62425.1 3721.61  13
  -1   3  -3 61815.2 4196.43   2
  -1   3  -4 2404.75 1077.49   2
  -1   3  -4 3387.16 1954.81  13
   1  -3   4 1972.63 896.772  14
  -1   3  -5 1114.77 1359.51   2
   1  -3   5 1516.43 869.827  14
   1  -3   5 2134.28 405.716  19
  -1   3  -5 551.503 604.719  13
   1  -3   5 1353.12 353.606  20
   1  -3   6-119.561 285.929  20
  -1   3  -6 199.059 1062.69   2
   1  -3   6 252.031 310.848  19
  -1   3  -6 599.278 874.830  13
  -1   3  -6 418.528 526.096  10
  -1   3  -7 6125.73 1642.45  13
   1  -3   7 8759.16 3155.19  14
   1  -3   7 11867.1 836.352  19
  -1   3  -7 9903.70 808.305  10
   1  -3   7 9860.90 760.368  20
  -1   3  -7 13476.9 3311.95   2
   1  -3   8 23123.1 1117.43  19
   1  -3   8 22637.7 934.894  20
  -1   3  -8 22941.2 1126.04  10
  -1   3  -9 1252.60 318.972  10
   1  -3   9 1003.22 239.355  20
   1  -3   9 1059.95 254.652  11
   1  -3  10 124.198 130.476  11
  -1   2   8-262.416 296.874  21
   1  -2  -8 145.258 197.795  10
   1  -2  -8 94.7574 136.460  18
   1  -2  -7 1055.68 265.878  18
  -1   2   7 890.385 406.490  21
   1  -2  -7 935.306 362.299  10
   1  -2  -6 1188.92 391.514  10
   1  -2  -6 983.957 248.770  18
  -1   2   6 952.820 407.083  21
  -1   2   5 23296.3 4609.81   1
   1  -2  -5 22257.8 843.096  18
   1  -2  -5 21927.2 771.636   6
  -1   2   5 21566.9 1260.58  21
   1  -2  -5 21732.8 1154.52  10
  -1   2   4 50443.0 1854.96  21
  -1   2   4 48230.4 1696.17  20
  -1   2   4 51600.0 5496.43  24
   1  -2  -4 45483.3 1467.92  10
  -1   2   4 51887.5 6846.17   1
   1  -2  -4 54311.8 3855.90  15
   1  -2  -4 49365.2 1152.71  18
  -1   2   3-229.666 2054.77   1
  -1   2   3-157.930 936.144  24
   1  -2  -3 288.735 487.943  15
  -1   2   2 44546.3 3520.45  24
  -1   2   2 53852.3 3229.99   2
   1  -2  -2 45713.3 3393.88  15
  -1   2   2 48214.6 5435.79   1
   1  -2  -2 50095.1 2668.97  22
   1  -2  -1 531990. 7194.01  22
  -1   2   1 526207. 7714.41   2
   1  -2  -1 548376. 15781.4  15
  -1   2   1 528254. 10227.0  24
   1  -2   0 130.607 257.195  14
   1  -2   0 221.541 250.856  15
   1  -2   0-17.5830 187.582  22
  -1   2   0 39.4619 195.918   2
  -1   2  -1 62921.4 2237.70  13
  -1   2  -1 58871.4 2764.82   2
   1  -2   1 54590.0 2507.03  14
   1  -2   2 79642.0 3631.60  14
   1  -2   2 72430.8 2383.57   3
  -1   2  -3 8120.27 1585.46  13
   1  -2   3 11340.8 1759.90  14
   1  -2   3 9711.99 967.522   3
  -1   2  -4 321568. 10041.7  13
   1  -2   4 306215. 12724.2  14
   1  -2   5 34983.8 6686.55   1
  -1   2  -5 36206.4 3753.14  13
   1  -2   5 34601.9 2131.36  21
   1  -2   5 28072.7 1130.98  19
   1  -2   5 30980.8 8362.38  14
   1  -2   6 31570.0 1201.74  20
   1  -2   6 26463.5 1495.39  21
   1  -2   6 31795.7 1236.09  19
  -1   2  -6 29640.2 1287.99  10
  -1   2  -6 33458.2 3830.22  13
   1  -2   7 12282.3 1070.38  21
   1  -2   7 13172.5 835.574  19
   1  -2   7 13314.8 734.441  20
   1  -2   7 7890.13 2793.99  14
  -1   2  -7 14053.6 663.036  18
  -1   2  -7 10357.2 887.068  10
  -1   2  -7 8799.34 2050.72  13
   1  -2   8 16145.0 726.157  20
  -1   2  -8 17181.6 988.173  10
   1  -2   8 16713.5 1157.53  21
   1  -2   8 16579.0 892.370  19
   1  -2   9 298.883 240.638  19
  -1   2  -9-229.701 265.833  10
   1  -2   9 279.676 185.379  11
   1  -1  -9 1488.86 186.175  18
  -1   1   9 2133.49 362.040  21
   1  -1  -9 1715.94 281.910  10
   1  -1  -8 4141.32 518.339  10
  -1   1   8 5069.58 612.665  21
   1  -1  -8 4042.90 353.094  18
  -1   1   7 343.431 332.900  21
   1  -1  -7 344.617 277.829  10
  -1   1   7 214.133 289.280  20
   1  -1  -7 215.141 194.124  18
  -1   1   6 13511.8 895.091  20
  -1   1   6 12428.4 3231.13   1
  -1   1   6 10155.2 835.182  21
   1  -1  -6 10486.7 599.973  18
   1  -1  -6 11135.9 894.684  10
  -1   1   6 10058.6 2518.86  24
   1  -1  -5 34595.0 1362.96  10
  -1   1   5 27402.6 3709.67  24
  -1   1   5 30971.3 1270.94  21
  -1   1   5 33159.5 4830.99   1
   1  -1  -5 32612.8 944.023  18
  -1   1   5 31573.1 1206.52  20
  -1   1   4 11731.1 2794.29   1
  -1   1   4 8390.16 2053.91  24
   1  -1  -3 2836.67 859.648  15
  -1   1   3 2156.05 1404.53  24
  -1   1   3 1664.45 1302.05   1
   1  -1  -3-808.679 1252.14  13
  -1   1   2 37808.2 6072.90   1
   1  -1  -2 38054.0 3800.27  15
   1  -1  -2 32927.0 1605.25  13
  -1   1   1 2839.85 353.923   2
   1  -1  -1 2713.03 477.428  22
  -1   1   1 2872.19 1085.81   1
  -1   1   1 2295.43 552.107  24
   1  -1  -1 2502.97 255.353  13
   1  -1   0 170884. 2981.56   3
   1  -1   0 176555. 3139.27  14
   1  -1   1 118616. 2752.71  14
   1  -1   1 106574. 2342.07   3
  -1   1  -2 11967.2 847.648  15
   1  -1   2 12177.9 990.223   3
  -1   1  -2 12320.3 2615.07  13
   1  -1   2 14181.4 1215.61   1
  -1   1  -3 690495. 15220.1  13
  -1   1  -3 690099. 17104.9  15
   1  -1   3 736365. 14198.4  24
   1  -1   3 760023. 16563.4   1
  -1   1  -4 82572.6 4880.14  13
  -1   1  -4 83318.0 3310.28  15
   1  -1   4 77316.0 3455.55   3
   1  -1   4 75006.7 6407.35   1
  -1   1  -5 629.014 258.932  10
   1  -1   5 1321.14 1178.05   1
   1  -1   5 557.751 248.222  21
  -1   1  -5 548.481 161.136  18
  -1   1  -5 712.925 612.936  13
   1  -1   5 1631.82 1013.47  24
   1  -1   5 768.391 246.797  19
   1  -1   6 17132.5 2605.12  24
   1  -1   6 17191.6 868.374  19
  -1   1  -6 19225.1 1115.95  10
  -1   1  -6 12971.3 2267.32  13
  -1   1  -6 17439.3 724.324  18
   1  -1   6 17512.1 1024.75  21
   1  -1   7 4659.60 610.881  21
   1  -1   7 4468.10 490.208  19
  -1   1  -7 4795.29 589.459  10
  -1   1  -7 4534.45 407.288  18
   1  -1   8 10895.2 852.788  21
   1  -1   8 11268.9 703.976  19
  -1   1  -8 10937.2 805.118  10
  -1   1  -8 12416.8 623.145  18
   1  -1   9 7874.13 698.888  21
  -1   1  -9 7503.15 532.153  10
   1  -1   9 6053.29 403.068  11
  -1   1  -9 6979.91 410.389  18
   1  -1   9 7466.43 490.615  19
   1   0  -9 20212.4 653.854  18
  -1   0   9 21649.8 745.994  20
   1   0  -9 21369.7 980.408  10
   1   0  -8 9654.25 807.976  10
  -1   0   8 10002.2 861.771  21
   1   0  -8 9750.19 546.983  18
  -1   0   8 11129.8 766.687  20
  -1   0   7 245.193 334.394  21
   1   0  -7 282.007 306.342  10
  -1   0   7 262.946 278.562  20
   1   0  -7 426.157 193.129  18
   1   0  -6 12640.4 905.779  10
  -1   0   6 12255.1 905.697  21
   1   0  -6 13164.0 651.309  18
  -1   0   6 11388.1 2845.94   1
  -1   0   6 12225.9 2369.23  24
  -1   0   6 13071.4 831.445  20
   1   0  -5-277.783 588.049  13
  -1   0   5 126.483 186.170  21
  -1   0   5 182.144 872.082   1
  -1   0   5-112.908 201.902  20
   1   0  -5 172.907 135.658  18
  -1   0   5 8.96371 631.008  24
   1   0  -5 246.502 214.304  10
  -1   0   4 8352.25 2217.22   1
  -1   0   4 9004.28 1204.12  23
   1   0  -4 8294.59 1806.65  13
  -1   0   4 8118.55 1772.20  24
  -1   0   3 41866.5 3573.85  24
  -1   0   3 46057.5 2719.71  23
  -1   0   3 38058.2 4441.13   1
  -1   0   3 34754.3 988.573   3
  -1   0   2 3247.32 1576.73   1
  -1   0   2 2055.04 994.309  24
  -1   0   2 1403.92 591.250  23
   1   0  -2 2749.54 477.552  13
   1   0  -1 151795. 1873.21   3
  -1   0   1 151528. 4660.24  23
   1   0  -1 152508. 2042.90   2
  -1   0   1 153373. 4430.71   1
   1   0  -1 156060. 2758.09  13
  -1   0   0 205515. 1925.62  14
   1   0   0 210493. 2887.15  22
   1   0   0 207098. 3513.61   3
  -1   0   0 201921. 2990.52  24
  -1   0   0 201795. 3188.54  15
  -1   0   0 202672. 3699.08  23
   1   0   1 3174.78 403.062  22
   1   0   1 5801.67 1463.27   3
  -1   0  -1 3811.81 596.993  15
   1   0   1 4479.93 402.459  24
  -1   0  -1 4775.48 515.508  23
   1   0   2 1994.02 873.607   1
  -1   0  -2 2171.19 645.361  15
   1   0   2 2497.68 738.992   3
   1   0   2 4243.84 1298.59  24
   1   0   3 27693.9 3147.77  24
   1   0   3 25005.6 2818.93   1
   1   0   3 27866.9 2184.20   3
  -1   0  -3 33320.1 5420.06  15
  -1   0  -3 34658.9 5470.47  13
  -1   0  -4 349.776 367.213  15
   1   0   4-147.742 276.929   3
   1   0   4 44.7031 729.030   1
   1   0   4 474.488 575.426  24
  -1   0  -4-6.74129 458.328  13
  -1   0  -5 43330.9 1156.25  18
  -1   0  -5 41894.4 1552.34  10
  -1   0  -5 39082.8 3500.76  13
   1   0   5 41584.5 1407.24  21
   1   0   5 41840.7 1250.02  19
  -1   0  -5 40611.3 2912.42  15
   1   0   6 300.647 231.677  19
   1   0   6 132.755 239.028  21
  -1   0  -6 354.541 301.168  10
  -1   0  -6 320.570 178.843  18
   1   0   7 21984.4 1157.03  21
  -1   0  -7 22702.7 871.774  18
   1   0   7 21755.7 1004.39  19
  -1   0  -7 22304.0 1220.00  10
  -1   0  -8 43279.1 1371.73  10
   1   0   8 45306.8 1264.86  19
  -1   0  -8 46615.7 1125.95  18
   1   0   8 45738.3 1599.86  21
   1   1 -10 5205.67 427.691  10
  -1  -1   9 6675.94 497.373  20
   1   1  -9 8539.83 707.632  10
   1   1  -9 7064.86 417.127  18
  -1  -1   9 8519.23 767.497  21
  -1  -1   8 543.566 264.811  20
   1   1  -8 848.746 384.354  10
   1   1  -8 750.053 203.753  18
  -1  -1   8 985.333 446.401  21
  -1  -1   7 5139.92 1701.87  24
  -1  -1   7 3208.79 570.183  21
  -1  -1   7 1622.98 1045.10   1
  -1  -1   7 2781.62 478.115  20
   1   1  -7 4056.84 398.008  18
   1   1  -7 2809.23 535.026  10
  -1  -1   7 1308.51 1600.91  14
   1   1  -7 2487.06 887.141  13
  -1  -1   6 776.936 371.068  21
  -1  -1   6 589.033 301.112  20
   1   1  -6 957.312 646.633  13
  -1  -1   6 929.788 324.005  19
   1   1  -6 918.596 230.305  18
  -1  -1   6 1869.22 1693.00   1
  -1  -1   6 1029.00 294.302  17
   1   1  -6 632.093 281.399  10
  -1  -1   6 357.024 841.332  24
   1   1  -5 40581.1 2128.95  10
  -1  -1   5 31907.2 1356.05  20
  -1  -1   5 22758.6 4208.21   1
   1   1  -5 26019.7 3253.48  13
  -1  -1   5 35683.8 4317.63  24
   1   1  -4 186052. 6674.06   2
  -1  -1   4 175658. 9453.38  24
  -1  -1   4 224189. 7337.61  23
   1   1  -4 209927. 9571.57  13
  -1  -1   4 232528. 14104.9   1
  -1  -1   3 11875.9 1925.29   1
   1   1  -3 9591.15 1122.94   2
   1   1  -3 11453.0 1260.07  13
  -1  -1   3 14874.5 2889.27  24
  -1  -1   3 9104.86 2021.38  23
   1   1  -2 20644.9 1431.28   2
  -1  -1   2 20996.6 1792.40  24
  -1  -1   2 23365.7 2378.22  14
  -1  -1   2 20280.2 2150.20  23
  -1  -1   2 21106.7 1993.75   1
   1   1  -2 20468.6 1356.73  13
  -1  -1   1 59634.6 2471.83  14
   1   1  -1 57350.2 2029.85  13
  -1  -1   1 62130.2 2451.99  15
   1   1  -1 52587.8 2248.48   2
  -1  -1   1 55056.4 2770.66  23
   1   1   0 5173.83 828.852   2
  -1  -1   0 5570.04 652.582  14
  -1  -1   0 5476.88 822.800  15
  -1  -1   0 6070.33 888.447  23
  -1  -1  -1 99397.0 2847.16  23
  -1  -1  -1 100424. 4326.99  15
   1   1   1 107423. 3840.26  24
   1   1   2 843.517 801.338   1
   1   1   2 497.306 429.434  24
  -1  -1  -2 1135.07 815.145  15
  -1  -1  -3 15491.1 3420.20  13
  -1  -1  -3 13111.1 2387.05  15
   1   1   3 12057.0 1728.79   3
   1   1   3 11164.4 2866.77   1
   1   1   4 43083.8 1467.38  21
   1   1   4 47754.8 3383.04   3
  -1  -1  -4 41034.4 3236.20  15
  -1  -1  -4 49141.5 1307.11  18
   1   1   5 13656.3 685.783  12
  -1  -1  -5 11849.3 1832.27  15
  -1  -1  -5 13357.4 685.808  18
   1   1   5 12988.6 817.553  19
   1   1   5 12441.1 893.862  21
   1   1   6 234.242 242.181  19
   1   1   6 178.675 267.286  21
  -1  -1  -6 230.713 318.254  10
  -1  -1  -6 257.371 179.955  18
   1   1   7 14978.4 788.535  19
   1   1   7 15818.8 969.675  21
  -1  -1  -7 15652.3 930.802  10
  -1  -1  -7 14162.2 662.509  18
   1   1   8 5103.89 506.922  21
  -1  -1  -8 4081.28 390.870  10
  -1  -1  -8 4299.79 316.963  18
  -1  -2  10 72.8045 163.149  20
   1   2 -10 20.9166 213.140  10
  -1  -2  10-81.8934 138.285  11
  -1  -2   9 11703.6 673.596  20
   1   2  -9 15692.5 982.636  10
  -1  -2   8 8665.80 671.058  20
   1   2  -8 9993.58 949.433  10
  -1  -2   7 13075.6 726.551  17
   1   2  -7 9430.09 967.301  10
  -1  -2   7 10541.1 2873.16   1
   1   2  -7 10720.3 2109.66  13
  -1  -2   7 14448.0 2857.18  24
  -1  -2   7 8890.61 1157.23  21
  -1  -2   7 11611.4 858.833  20
  -1  -2   7 8402.39 3415.94  14
   1   2  -6 16640.9 1468.53  10
  -1  -2   6 11209.6 1754.83  21
  -1  -2   6 7588.24 2863.07   1
  -1  -2   6 10360.4 843.725  20
  -1  -2   6 11641.3 799.136  17
  -1  -2   6 12263.2 2826.85  24
   1   2  -6 8960.97 2198.26  13
  -1  -2   6 10140.0 4704.03  14
  -1  -2   5 198421. 3270.62  21
  -1  -2   5 198881. 13916.6  24
  -1  -2   5 196194. 4438.15  20
   1   2  -5 210887. 12968.9  13
  -1  -2   5 206902. 13688.8  14
  -1  -2   5 206179. 3427.53  17
  -1  -2   5 213670. 12639.5   1
   1   2  -5 197915. 2925.18  10
  -1  -2   5 216140. 7681.08  23
  -1  -2   4 8413.50 1994.53  23
  -1  -2   4 11392.3 2352.38  14
   1   2  -4 9071.61 1526.64   2
  -1  -2   4 11636.0 2035.69  24
   1   2  -4 10130.2 1497.30  13
   1   2  -3 9670.68 1209.10  13
  -1  -2   3 9324.74 1317.33  24
   1   2  -3 8963.39 1354.39   2
  -1  -2   3 7388.61 925.806  15
  -1  -2   3 9171.79 1627.09  14
  -1  -2   3 9821.48 2141.39  23
  -1  -2   2 1786.00 716.708  23
   1   2  -2 1159.93 436.891   2
   1   2  -2 1561.41 498.634  13
  -1  -2   2 1744.44 610.040  14
  -1  -2   2 1332.68 420.017  15
  -1  -2   1 286.062 307.089  15
   1   2  -1 224.982 261.903   2
  -1  -2   1 94.4936 360.462  23
  -1  -2   1 131.679 207.707  14
   1   2  -1 215.779 243.973  13
   1   2   0 146418. 5657.11   2
  -1  -2   0 151499. 4846.33  23
  -1  -2   0 141466. 6136.05  15
  -1  -2   0 133863. 4389.28  14
   1   2   0 139389. 3731.03  24
   1   2   1 14009.9 2144.07   2
  -1  -2  -1 15510.9 1599.63  23
  -1  -2  -1 13590.5 3006.54  15
  -1  -2  -2 912.539 850.404  15
   1   2   2 177.013 190.672  26
   1   2   3 26003.5 1683.76  21
  -1  -2  -3 17336.4 2427.80  15
   1   2   3 31406.6 7073.94   1
  -1  -2  -3 21379.8 934.113  18
  -1  -2  -3 25580.1 1136.85   8
  -1  -2  -4 18546.2 829.609  18
   1   2   4 17829.0 2499.63   3
   1   2   4 17952.6 1166.15  21
  -1  -2  -4 16379.6 2206.87  15
   1   2   5 2453.62 509.540  21
   1   2   5 2386.73 363.980  12
   1   2   5 2740.47 442.270  19
  -1  -2  -5 2775.69 352.089  18
   1   2   6 447.214 328.969  21
   1   2   6 100.813 241.061  19
  -1  -2  -6 522.879 226.402  18
  -1  -2  -6 1090.71 417.826  10
   1   2   7 223.054 249.615  21
  -1  -2  -7-139.422 138.948  18
  -1  -2  -7 50.4080 199.786  10
  -1  -3  10 1578.20 219.324  11
  -1  -3  10 1849.04 252.083  20
  -1  -3   9 21705.4 916.838  20
  -1  -3   9 23945.7 888.239  11
  -1  -3   8 15360.5 935.090  20
   1   3  -8 17919.3 1215.98  10
  -1  -3   8 16644.9 789.598  17
   1   3  -7-112.323 678.404  13
  -1  -3   7-217.258 2421.90  14
  -1  -3   7 167.577 253.007  20
  -1  -3   7 116.426 216.908  17
   1   3  -7 291.574 222.922  16
   1   3  -7 183.813 667.886  10
   1   3  -6 7369.96 3638.32  13
  -1  -3   6 7651.27 989.116  20
   1   3  -6 6522.00 670.294  10
  -1  -3   6 5407.41 625.750  17
   1   3  -6 4306.19 767.414  16
  -1  -3   6 6589.88 2681.59  14
  -1  -3   5 1332.34 262.112  20
   1   3  -5 2020.42 904.993  13
   1   3  -5 1894.51 306.188  10
  -1  -3   5 1529.71 664.537  17
  -1  -3   5 1855.32 784.392  23
   1   3  -5 1019.74 925.084   2
   1   3  -5 1992.72 378.979  16
  -1  -3   5 1483.21 855.237  14
  -1  -3   4 26090.6 3116.44  14
  -1  -3   4 24267.1 963.024  17
   1   3  -4 25951.6 925.540  10
   1   3  -4 26234.6 937.303  16
   1   3  -4 24408.7 2818.35   2
   1   3  -4 26479.2 2445.62  13
  -1  -3   4 21115.9 4468.33  23
  -1  -3   3 20558.1 2601.79  23
   1   3  -3 21956.1 2015.03  13
  -1  -3   3 21773.5 2413.68  14
   1   3  -3 21783.1 2442.89   2
  -1  -3   2 2326.70 1085.69  15
   1   3  -2 2462.61 656.839  13
   1   3  -2 2574.64 817.799   2
  -1  -3   2 2840.01 837.444  14
  -1  -3   2 2609.20 829.873  23
   1   3  -1 200450. 7523.61   2
  -1  -3   1 194822. 11295.8  15
  -1  -3   1 204120. 6808.45  14
  -1  -3   1 210338. 7101.33  23
  -1  -3   0 76034.1 4354.77  14
   1   3   0 84220.6 1675.83  26
  -1  -3   0 95155.4 11257.3  15
   1   3   0 84985.0 5516.62   2
  -1  -3   0 91399.1 4927.53  23
  -1  -3   0 81359.7 2112.60   8
  -1  -3  -1 5235.52 1693.59  15
   1   3   1 5708.73 560.324  21
   1   3   1 5356.86 1602.96   2
  -1  -3  -1 5512.10 754.727   8
   1   3   1 6030.03 390.432  16
   1   3   1 5582.21 529.463  26
   1   3   2 2843.09 1592.78   1
  -1  -3  -2 3683.60 389.546  18
  -1  -3  -2 3779.26 1260.39  15
   1   3   2 4033.52 620.690  21
   1   3   2 3717.93 594.109  26
  -1  -3  -2 5657.06 778.082   8
  -1  -3  -3 2238.68 299.672  18
   1   3   3 2695.37 673.542  21
  -1  -3  -3 2536.69 393.855   8
   1   3   3 1718.30 600.503   3
  -1  -3  -3 1830.81 714.431  15
   1   3   4 3842.92 633.788  21
  -1  -3  -4 4058.98 368.188  18
   1   3   5 1938.33 468.607  21
  -1  -3  -5 1787.61 448.418  10
   1   3   5 1551.25 350.141  19
  -1  -3  -5 2195.77 285.059  18
   1   3   6 311.630 247.022  21
  -1  -3  -6 115.788 209.928  10
  -1  -3  -6 169.133 130.938  18
  -1  -4  10 9040.13 472.472  20
   1   4 -10 8848.75 605.518  10
  -1  -4   9 1153.07 243.167  17
  -1  -4   9 1669.81 330.946  20
   1   4  -9 1614.89 432.919  10
  -1  -4   9 1381.09 262.119  11
  -1  -4   8 4501.34 571.304  20
  -1  -4   8 5235.91 491.843  17
   1   4  -8 4932.61 811.003  10
   1   4  -8 4673.33 472.247  16
  -1  -4   8 4192.41 491.124  11
  -1  -4   7 1249.66 378.687  17
  -1  -4   7 1111.94 541.669  20
   1   4  -7 1305.29 353.858  16
   1   4  -7 1347.40 476.513  10
  -1  -4   6 242.644 195.797  20
  -1  -4   6 222.394 421.603  17
   1   4  -6 317.588 403.684  16
  -1  -4   6 1550.37 1070.40  14
   1   4  -6 104.940 227.495  10
   1   4  -6 1491.56 1044.48  13
  -1  -4   5 39334.0 4419.02  14
   1   4  -5 35535.8 4372.91   2
   1   4  -5 36157.9 1344.78  16
  -1  -4   5 35387.1 988.660  20
  -1  -4   5 35394.9 1421.39  17
   1   4  -5 37722.5 1334.17  10
   1   4  -5 34126.8 3274.52  13
  -1  -4   5 31623.6 4240.92  23
   1   4  -5 37682.6 1394.92  26
  -1  -4   4 83857.4 7657.09  23
   1   4  -4 73607.7 5510.52   2
   1   4  -4 77631.1 4481.98  13
   1   4  -4 69288.9 1672.00  26
   1   4  -4 73347.9 1740.56  10
  -1  -4   4 71615.1 1547.72  17
   1   4  -4 75789.0 1676.63  16
  -1  -4   4 80448.8 5713.74  14
  -1  -4   3 8373.44 1845.15  23
   1   4  -3 8864.33 1962.16   2
   1   4  -3 9045.94 591.958  26
  -1  -4   3 8737.93 1711.70  14
   1   4  -3 8532.20 627.903  10
  -1  -4   3 9684.23 548.557  17
   1   4  -3 9889.38 585.404  16
  -1  -4   3 9053.68 1321.88   8
   1   4  -3 9522.78 1446.65  13
   1   4  -2 1650.65 352.648  10
   1   4  -2 1816.33 308.778  26
  -1  -4   2 1485.82 493.759   8
  -1  -4   2 1876.15 1027.34  23
   1   4  -2 1343.09 871.072   2
   1   4  -2 1749.64 257.101  16
  -1  -4   2 1987.11 253.701  17
  -1  -4   2 1263.09 618.984  14
   1   4  -1 34795.4 1253.81  26
  -1  -4   1 35522.2 995.395   9
   1   4  -1 38626.8 1057.07  16
  -1  -4   1 28631.5 3296.22  15
  -1  -4   1 37949.9 3605.33  14
   1   4  -1 35693.8 4010.78   2
  -1  -4   1 33536.7 1784.48   8
  -1  -4   0 4088.26 883.252   8
   1   4   0 3731.49 1477.42   2
   1   4   0 3778.89 519.541  21
   1   4   0 3922.52 358.528  16
  -1  -4   0 2765.37 1025.85  15
   1   4   0 3615.11 461.811  26
   1   4   1 5820.03 697.158  21
   1   4   1 4771.01 661.047  26
  -1  -4  -2 1478.03 349.743   8
   1   4   2 1289.74 634.960  21
  -1  -4  -3 7335.52 569.025   8
   1   4   3 8483.46 855.906  21
   1   4   4 21295.4 1081.67  21
   1   4   4 21414.3 826.499  12
   1   4   4 19059.1 910.362  19
  -1  -4  -5 6772.32 483.719  10
  -1  -5   9 13220.9 687.614  20
   1   5  -9 10802.8 744.763  10
  -1  -5   9 12331.5 567.974  17
   1   5  -9 9685.92 538.904  16
  -1  -5   8 18419.6 1213.97  20
  -1  -5   8 22198.1 968.155  17
   1   5  -8 19695.2 970.260  16
  -1  -5   7 16993.0 897.496  20
   1   5  -7 15133.1 1040.27  10
  -1  -5   7 10877.9 944.533  17
   1   5  -7 12185.4 1086.49  16
  -1  -5   6 4996.56 438.031  20
   1   5  -6 5672.53 600.304  10
  -1  -5   6 5959.98 826.288  17
   1   5  -6 4119.84 785.895  26
   1   5  -6 5147.79 643.759  16
  -1  -5   5 32077.2 1173.59  17
   1   5  -5 33678.0 1376.49  10
   1   5  -5 29735.7 1203.79  16
   1   5  -5 32321.5 1360.81  26
  -1  -5   4 2534.62 339.648  17
   1   5  -4 2411.27 417.189  10
   1   5  -4 2443.63 355.170  16
   1   5  -4 2096.56 365.334  26
  -1  -5   3 1220.84 729.042  14
  -1  -5   3 446.761 908.212   8
  -1  -5   3 388.596 191.950  17
   1   5  -3 368.416 267.852  10
   1   5  -3 435.038 241.842  26
   1   5  -3 298.802 173.137  16
  -1  -5   2 2801.20 730.739   8
  -1  -5   2 2134.73 294.288   9
   1   5  -2 2239.85 308.657  16
   1   5  -2 2270.24 412.595  26
   1   5  -1 8239.15 812.710  21
  -1  -5   1 8367.37 913.941   8
   1   5  -1 7619.51 579.130  16
  -1  -5   1 7002.38 489.805   9
   1   5  -1 8367.67 745.804  26
   1   5   0 27833.4 1446.36  21
  -1  -5   0 31892.7 1711.05  25
  -1  -5   0 29172.0 1363.45   8
   1   5   1 13381.6 1286.26  21
  -1  -5  -1 15553.8 875.557   8
  -1  -5  -2 679.767 268.686   8
   1   5   2 720.020 440.097  21
   1   5   3 10953.9 681.309  21
   1   5   3 12869.6 587.651  12
  -1  -6   8 7950.62 593.264  17
   1   6  -8 7286.07 562.887  16
   1   6  -7 31.8248 347.153  10
   1   6  -7-17.0006 598.671  16
  -1  -6   7-395.326 523.881  17
   1   6  -6 5496.64 603.789  10
  -1  -6   6 5639.23 591.564  17
   1   6  -6 6160.76 986.531  26
   1   6  -6 5930.44 590.941  16
  -1  -6   6 3665.12 681.295  25
  -1  -6   5 859.043 558.922  25
  -1  -6   5 873.163 265.797  17
   1   6  -5 1302.43 381.730  10
   1   6  -5 1299.97 306.782  16
   1   6  -5 1363.13 368.812  26
  -1  -6   4 22663.1 951.266   9
  -1  -6   4 25021.0 885.952  17
   1   6  -4 26443.6 1037.89  16
   1   6  -4 24690.4 1160.01  26
  -1  -6   3 11192.5 1175.91   8
   1   6  -3 9491.04 619.158  16
  -1  -6   3 8956.91 576.292   9
   1   6  -3 11285.1 841.697  26
  -1  -6   3 11392.3 1269.27  25
  -1  -6   2 1340.14 376.437   8
  -1  -6   2 1201.62 235.837   9
   1   6  -2 1446.89 273.275  16
   1   6  -2 1642.26 426.004  26
   1   6  -2 2547.27 593.777  21
  -1  -6   2 1649.09 569.830  25
  -1  -6   1 18173.7 1184.76  25
   1   6  -1 15851.0 1074.59  21
   1   6  -1 18002.5 1138.45  26
  -1  -6   1 15272.6 832.385   8
   1   6   0 17993.5 1447.35  21
  -1  -6   0 16544.3 733.000   8
   1   6   1 2018.21 381.629  21
  -1  -6  -1 1575.28 277.098   8
   1   7  -7 5610.95 702.003  16
  -1  -7   7 3847.26 463.064   9
  -1  -7   6-13.6053 174.427  17
  -1  -7   6 49.7296 167.510   9
   1   7  -6 161.785 189.813  16
  -1  -7   6 200.161 290.360  25
   1   7  -5 12117.3 626.814  16
  -1  -7   5 10959.4 573.868   9
  -1  -7   4 14517.3 1142.93  25
   1   7  -4 16751.2 703.462  16
  -1  -7   4 15922.2 662.844   9
   1   7  -4 18212.1 975.888  26
   1   7  -3 7163.49 642.532  26
  -1  -7   3 5800.04 613.769  25
  -1  -7   2 978.676 221.758   8
   1   7  -2 2041.25 446.846  26
   2  -8   1 122.088 173.663   8
  -2   8  -1-192.448 369.787  21
  -2   8  -2 903.707 237.381  26
  -2   8  -2 830.026 390.496  21
   2  -8   2 785.333 293.508   9
   2  -8   2 930.564 326.676  25
   2  -8   3 883.102 429.648  25
  -2   8  -3 398.606 359.627  21
   2  -8   3 824.780 279.801   9
  -2   8  -3 677.418 255.678  26
  -2   8  -4 1851.15 334.064  26
   2  -8   4 1487.09 646.585  25
   2  -8   4 2148.27 348.673   9
  -2   8  -5 3877.78 456.079  26
   2  -8   5 4360.58 448.000   9
   2  -8   5 3012.96 554.845  25
  -2   8  -6 5524.16 420.172  16
  -2   8  -6 6167.18 592.774  26
   2  -8   6 5475.87 563.532  25
  -2   8  -7 7524.72 726.035  26
   2  -7  -2 2340.66 238.643   6
  -2   7   2 4407.61 493.104  21
  -2   7   1 2316.29 800.982  21
   2  -7  -1 977.518 241.598   8
   2  -7   0 3375.09 369.444   8
  -2   7   0 4295.81 686.110  21
   2  -7   1 1777.56 403.352   8
  -2   7  -1 2347.44 575.213  21
   2  -7   1 1808.56 417.681   9
  -2   7  -1 2002.37 344.076  26
   2  -7   1 1731.98 426.838  25
  -2   7  -2 13065.2 793.170  26
   2  -7   2 15653.3 1164.13  25
   2  -7   2 15320.5 898.893   9
   2  -7   3 14616.1 801.696  17
   2  -7   3 14294.7 838.208   9
  -2   7  -3 11953.1 818.870  26
   2  -7   3 14489.3 1506.37  25
   2  -7   4 2289.51 490.573  12
   2  -7   4 2783.12 397.821  17
   2  -7   4 2081.36 683.991  25
  -2   7  -4 2534.91 451.684  26
   2  -7   4 2769.64 406.995   9
   2  -7   5 254.053 363.124  25
   2  -7   5 695.827 455.501  12
   2  -7   5 782.112 348.461  17
   2  -7   5 667.779 259.813   9
  -2   7  -5 237.782 178.170  16
  -2   7  -5 409.542 284.211  26
   2  -7   6 4877.77 1076.08  12
   2  -7   6 6910.16 1111.95  17
  -2   7  -6 5184.06 750.757  26
  -2   7  -6 4216.46 561.943  16
   2  -7   6 3599.61 533.524  25
   2  -7   6 4894.98 645.415   9
  -2   7  -7 3995.68 869.675  26
   2  -7   7 4439.72 485.833  17
   2  -7   7 2813.19 491.865   9
   2  -7   7 4394.43 525.275  12
  -2   7  -7 4707.74 970.742  16
   2  -7   8 889.676 212.663  17
   2  -7   8 356.036 328.521  11
  -2   7  -8 481.098 261.606  26
  -2   7  -8 584.829 258.782  16
   2  -6  -3 1245.75 264.682   8
  -2   6   3 1272.44 416.385  21
   2  -6  -2 2460.11 365.946   8
  -2   6   2 3568.47 1121.28  21
   2  -6  -1 57986.4 1449.32   8
  -2   6   1 56147.1 2154.86  21
   2  -6   0 3541.96 567.489  25
  -2   6   0 4022.17 610.662  21
   2  -6   0 3647.13 422.859   8
   2  -6   0 3439.36 471.627   9
  -2   6   0 3527.44 445.907  26
   2  -6   1 7961.34 473.950   7
   2  -6   1 8594.73 893.333  25
  -2   6  -1 9098.35 639.932  26
   2  -6   1 8452.72 639.649   9
   2  -6   1 8911.78 905.741   8
  -2   6  -2 18056.5 2756.79   2
   2  -6   2 20399.0 1058.15  12
   2  -6   2 20292.2 949.297  17
   2  -6   2 24833.9 1744.42  25
   2  -6   2 21645.5 977.710   9
   2  -6   2 21804.6 3234.65  14
   2  -6   2 20705.2 1138.98   8
  -2   6  -2 17096.6 3389.90  24
  -2   6  -2 18634.1 963.642  26
   2  -6   3 23848.0 1111.93  12
   2  -6   3 29484.2 3796.31  14
   2  -6   3 24633.5 1003.69  17
  -2   6  -3 25679.2 3759.19   2
  -2   6  -3 26839.8 1180.27  26
   2  -6   3 24658.4 1032.33   9
   2  -6   4-4.27805 175.462   9
   2  -6   4 380.040 304.116  12
   2  -6   4 227.018 156.746  11
   2  -6   4 91.7460 221.729  17
   2  -6   4 165.927 355.695  25
  -2   6  -4 148.364 172.820  16
   2  -6   4 508.490 758.515  14
   2  -6   5 511.710 262.500  20
   2  -6   5 572.652 334.913  17
   2  -6   5 620.667 323.545  12
   2  -6   5 577.592 183.064  11
   2  -6   5 372.181 315.720  25
  -2   6  -5 409.777 264.710  16
   2  -6   6 4233.23 395.653  11
   2  -6   6 5211.19 571.913  20
  -2   6  -6 4666.22 803.642  16
   2  -6   6 3888.17 541.809  25
   2  -6   6 5213.00 986.341  12
   2  -6   7 5813.63 616.195  12
   2  -6   7 7211.27 547.583  17
   2  -6   7 7671.71 1016.34  20
   2  -6   7 6439.09 583.519  11
   2  -6   8 6416.48 722.820  11
   2  -6   8 7713.72 733.733  20
  -2   6  -8 7326.19 731.153  16
   2  -6   9 430.623 222.261  20
   2  -6   9 686.376 214.366  11
  -2   6  -9 646.166 249.134  16
  -2   5   5 8143.83 620.888  21
   2  -5  -5 6808.88 365.537   6
  -2   5   4 7328.29 727.244  21
   2  -5  -4 6229.19 444.141   6
   2  -5  -4 6105.86 434.263   8
  -2   5   3 15748.2 1513.47  21
   2  -5  -3 13207.0 682.216   8
  -2   5   2 38594.5 1886.52  21
   2  -5  -2 37147.7 1617.39   7
  -2   5   1 62799.4 2034.24  21
   2  -5  -1 63111.0 1505.91   7
  -2   5   1 61946.3 6156.88  24
  -2   5   1 65090.4 9182.93   1
   2  -5  -1 62282.5 1795.82   9
   2  -5  -1 61938.3 1513.18   8
   2  -5   0 1042.73 263.504   9
  -2   5   0 1225.39 737.672   2
   2  -5   0 929.078 284.300   8
  -2   5   0 1102.14 250.080  26
   2  -5   0 1282.00 341.891  25
   2  -5   1 22140.7 969.208  12
   2  -5   1 30418.3 1606.68  25
   2  -5   1 19151.8 877.438  17
  -2   5  -1 28847.2 1023.53  26
  -2   5  -1 22665.7 3538.73  24
   2  -5   1 23615.2 901.044   9
  -2   5  -1 29681.6 3396.00   2
   2  -5   1 24944.5 3029.16  14
   2  -5   2 10001.6 655.949  12
   2  -5   2 10428.8 1625.58  25
  -2   5  -2 11356.7 2191.24   2
   2  -5   2 8959.14 555.802  17
   2  -5   2 9683.43 1876.46  14
   2  -5   2 10105.5 585.213   9
   2  -5   2 10286.0 638.434   8
   2  -5   3 39915.9 1273.38  12
   2  -5   3 46044.5 4152.02  14
   2  -5   3 40619.0 1136.35  20
   2  -5   3 40558.8 998.291  11
   2  -5   3 32860.6 1924.72  25
   2  -5   3 39681.6 1124.25  17
  -2   5  -3 43275.5 4626.20   2
  -2   5  -3 36858.1 1233.16  16
   2  -5   3 39807.8 1144.46   9
   2  -5   4 43057.8 1183.85  20
   2  -5   4 38689.8 1219.89  12
  -2   5  -4 43149.5 4869.77   2
   2  -5   4 40070.8 1048.75  11
   2  -5   4 41795.9 1242.90  17
   2  -5   4 45802.7 4357.63  14
   2  -5   4 37867.6 1693.72  25
  -2   5  -5 1203.69 1143.10  13
   2  -5   5 1715.07 309.033  20
   2  -5   5 1340.96 243.015  11
   2  -5   5 2046.42 581.012  17
   2  -5   5 1918.70 443.810  12
  -2   5  -5 656.058 801.142   2
   2  -5   5 1414.75 334.621  25
   2  -5   5-366.062 585.174  14
   2  -5   6 20676.9 1318.50  12
   2  -5   6 31612.6 1329.79  20
  -2   5  -6 27837.9 6576.58   2
   2  -5   6 25386.9 1005.51  11
   2  -5   6 26140.6 1184.46  17
   2  -5   6 22578.2 3901.60  14
  -2   5  -6 19101.1 3938.62  13
   2  -5   7 22543.9 1035.34  12
   2  -5   7 24676.6 1546.70  11
   2  -5   8 6315.55 603.105  20
   2  -5   8 5055.73 604.156  11
   2  -5   9 237.725 202.238  20
   2  -5   9 144.039 187.611  11
  -2   5  -9-9.79383 219.898  16
  -2   4   6 13726.4 865.637  21
   2  -4  -6 12827.4 504.566   6
   2  -4  -6 13021.0 508.021  18
  -2   4   5 10493.8 896.266  21
   2  -4  -5 10460.2 560.953   6
   2  -4  -5 10220.6 525.126  18
  -2   4   4 194.277 363.375  21
  -2   4   4 104.001 311.654  20
   2  -4  -4 264.820 154.289  18
   2  -4  -4 154.499 172.628   8
   2  -4  -3 768.993 208.513   8
  -2   4   3 498.082 623.336  21
  -2   4   3-554.046 1757.84  24
   2  -4  -2 16163.0 780.699   7
  -2   4   2 16266.6 1065.61  21
   2  -4  -2 16029.5 706.642   8
  -2   4   2 16622.9 4817.49   1
   2  -4  -2 17468.5 1006.54   9
  -2   4   2 18115.1 2967.76  24
  -2   4   1 4164.76 512.308  21
  -2   4   1 4051.74 1333.42  24
   2  -4  -1 4341.00 331.474   7
  -2   4   1 3767.93 925.910   2
   2  -4  -1 4406.92 414.978   8
   2  -4  -1 4656.64 441.187   9
   2  -4   0 65100.4 1331.35   9
   2  -4   0 61726.0 4503.53  14
   2  -4   0 59847.3 1890.98   8
  -2   4   0 62238.3 4709.48  24
   2  -4   1 267.786 230.590   4
  -2   4  -1 114.511 329.130   2
   2  -4   1 190.013 351.611  14
  -2   4  -2 81836.4 5011.03   2
   2  -4   2 75545.3 2092.03   4
   2  -4   2 84327.3 4532.17  14
   2  -4   3 295776. 2729.35  20
   2  -4   3 318754. 5479.07   4
  -2   4  -3 286321. 8304.22  13
  -2   4  -3 304783. 10584.7   2
   2  -4   3 314593. 9592.65  14
   2  -4   4 17904.0 714.798  20
   2  -4   4 14347.7 858.522   4
   2  -4   4 17362.5 747.497  12
  -2   4  -4 19185.1 3184.04   2
   2  -4   4 18097.4 667.932  11
   2  -4   4 21133.7 935.761  17
   2  -4   4 17589.0 916.474  25
   2  -4   4 18508.3 2527.99  14
  -2   4  -4 23192.5 4288.64  13
   2  -4   5 21204.2 3193.17  14
   2  -4   5 30146.4 1509.27  12
   2  -4   5 24670.9 937.660  20
   2  -4   5 22898.3 851.005  11
   2  -4   5 24007.9 993.764  19
  -2   4  -5 27484.8 5226.15   2
  -2   4  -5 17883.0 3250.25  13
   2  -4   6 10210.7 1046.68  20
   2  -4   6 8078.67 658.421  12
   2  -4   6 10960.0 1331.40  19
   2  -4   6 10327.6 808.845  11
  -2   4  -6 8348.23 2137.55  13
  -2   4  -6 10840.2 3333.29   2
   2  -4   6 8807.22 2767.06  14
   2  -4   7 2750.21 541.351  11
   2  -4   7 4968.65 493.214  12
   2  -4   7 3904.15 546.195  20
   2  -4   7 3815.58 551.157  19
   2  -4   8 12863.1 708.437  20
   2  -4   8 11890.4 764.941  11
   2  -4   9 364.827 182.872  20
   2  -4   9 441.439 206.288  11
   2  -3  -7 2032.67 303.437  10
  -2   3   7 1655.68 376.584  21
   2  -3  -7 2076.98 250.819  18
  -2   3   6 2456.88 527.049  21
   2  -3  -6 2561.92 311.925   6
   2  -3  -6 2633.29 380.180  10
   2  -3  -6 2583.95 325.083  18
  -2   3   6 1748.87 433.397  20
  -2   3   5 907.714 382.694  20
   2  -3  -5 1481.73 276.024  18
   2  -3  -5 1205.54 246.477   6
  -2   3   5 1201.27 394.575  21
   2  -3  -5 1296.32 315.130  10
  -2   3   4 503.747 312.557  21
  -2   3   4 537.228 433.821  20
  -2   3   4-2777.02 2012.86   1
   2  -3  -4 1026.44 243.277  18
  -2   3   4 4585.94 2398.29  24
   2  -3  -4 1099.02 224.990   8
   2  -3  -4 864.967 274.451  10
   2  -3  -3 9961.43 733.703   7
  -2   3   3 12902.3 1312.88  21
  -2   3   3 11599.3 2971.59  24
   2  -3  -3 12244.2 586.015   8
   2  -3  -3 8974.12 1346.96  18
  -2   3   2 10175.8 2092.41  24
   2  -3  -2 12307.9 749.321   9
  -2   3   2 14665.6 3897.23   1
   2  -3  -2 12955.0 582.685   8
   2  -3  -1 97080.5 4797.46  22
  -2   3   1 94565.2 3754.16   2
  -2   3   1 104123. 5665.49  24
   2  -3   0 6016.06 1165.68  22
  -2   3   0 6956.57 1223.68   2
  -2   3   0 6761.93 1403.13  24
   2  -3   0 6142.85 1165.19  14
  -2   3  -1 6616.55 1178.39   2
   2  -3   1 5493.41 1081.84  22
  -2   3  -1 6878.32 880.747  13
   2  -3   1 6779.67 1068.48  14
   2  -3   2 96761.5 4863.97  22
  -2   3  -2 113866. 5630.16   2
   2  -3   2 109842. 4360.73  14
   2  -3   3 15536.3 1545.67   3
   2  -3   3 19085.3 2034.80  14
  -2   3  -3 13672.7 2321.42  13
   2  -3   4 6580.45 1641.82   3
   2  -3   4 3857.18 1128.60  14
  -2   3  -4 4250.61 1402.01  13
   2  -3   5 33237.6 1285.45  12
   2  -3   5 43576.0 1404.47  20
   2  -3   5 36100.3 1754.50  19
   2  -3   5 36510.2 1223.10  11
   2  -3   5 34849.4 4696.27  14
  -2   3  -5 39351.6 4236.57  13
   2  -3   6 2685.22 471.915  20
   2  -3   6 3380.54 491.573  19
  -2   3  -6 3086.34 1394.43  13
   2  -3   6 4117.04 435.792  12
   2  -3   6 1945.91 535.040  11
   2  -3   7 69396.1 1641.52  20
   2  -3   7 70310.1 1944.29  19
   2  -3   7 65868.6 1787.69  11
   2  -3   8 26814.8 1147.04  19
   2  -3   8 26560.8 1015.40  11
   2  -3   9 1063.85 310.991  19
   2  -3   9 966.854 224.080  11
  -2   2   8-19.8792 263.279  21
   2  -2  -8 67.7998 133.730  18
   2  -2  -8 264.115 197.029  10
  -2   2   7 659.435 372.117  21
  -2   2   7 163.477 372.217  20
   2  -2  -7 747.325 230.884  18
   2  -2  -7 1112.75 302.706  10
  -2   2   6 1360.18 405.661  20
   2  -2  -6 1429.79 255.773   6
   2  -2  -6 1445.53 278.321  18
   2  -2  -6 1462.90 351.801  10
  -2   2   6 1038.31 376.323  21
  -2   2   5 38094.7 1480.67  21
  -2   2   5 38542.5 1616.96  20
   2  -2  -5 38501.0 1151.32  18
  -2   2   5 41424.2 5942.18   1
   2  -2  -5 37366.3 1028.91   6
   2  -2  -5 40498.2 1504.46  10
  -2   2   5 31795.4 4545.59  24
  -2   2   4 7156.57 3267.08  24
  -2   2   4 6637.44 656.738  21
  -2   2   4 5447.38 2009.45   1
   2  -2  -4 8343.42 479.312   8
  -2   2   4 8138.32 939.487  20
   2  -2  -4 8492.47 474.354   6
   2  -2  -4 8764.47 670.384  18
   2  -2  -4 9046.50 691.436  10
  -2   2   4 6274.31 1428.71  23
   2  -2  -3 2694.15 1272.38  22
  -2   2   3 3000.90 1567.38  24
  -2   2   3 4724.40 2068.17   1
   2  -2  -2 29434.4 2511.81  22
  -2   2   2 27263.6 2946.76  24
   2  -2  -1 52223.7 2732.04  22
  -2   2   1 48826.5 1920.77   2
  -2   2   1 47414.0 5391.23   1
  -2   2   1 44979.4 3141.21  24
  -2   2   0 1610.83 476.932   2
   2  -2   0 1827.68 496.613  22
   2  -2   0 1266.07 466.703  14
   2  -2   1 114751. 3786.21  22
   2  -2   1 108286. 3219.50   3
  -2   2  -2 4929.01 1996.16  13
   2  -2   2 4351.58 899.250  22
   2  -2   2 4299.08 728.708  14
   2  -2   2 3814.31 689.978   3
  -2   2  -2 5236.71 700.202  15
  -2   2  -3 31695.6 4783.78  13
   2  -2   3 25611.2 2295.49   3
  -2   2  -3 25850.1 1631.67  15
   2  -2   3 25616.8 2335.01  14
   2  -2   4 82410.7 4918.01   3
   2  -2   4 82177.4 6513.94  14
   2  -2   5 870.180 433.802  21
  -2   2  -5 500.889 704.230  13
   2  -2   5 836.648 218.070  12
   2  -2   5 1107.86 290.242  19
  -2   2  -5 1021.42 288.970  18
   2  -2   5 598.306 384.131   3
   2  -2   6 28883.9 1526.91  21
   2  -2   6 30033.3 996.530  12
   2  -2   6 29189.7 1169.09  19
  -2   2  -6 30307.4 1025.13  18
  -2   2  -6 29575.5 1207.00  10
   2  -2   7 34660.7 1638.77  21
   2  -2   7 32070.7 1251.56  19
  -2   2  -7 36728.3 1061.20  18
  -2   2  -7 34453.1 1324.28  10
   2  -2   8 2255.59 465.732  21
   2  -2   8 2668.99 434.041  19
  -2   2  -8 2708.40 314.353  18
   2  -2   8 2155.28 313.523  11
  -2   2  -8 2583.98 382.201  10
   2  -2   9 2719.85 360.532  19
   2  -2   9 2315.70 255.728  11
   2  -1  -9 4801.77 392.654  10
   2  -1  -9 4309.12 286.559  18
  -2   1   8 4951.19 600.885  21
  -2   1   8 5699.82 594.620  20
   2  -1  -8 4596.09 377.073  18
   2  -1  -8 3619.12 490.847  10
  -2   1   7 455.409 306.443  21
  -2   1   7 814.495 367.880  20
   2  -1  -7 521.229 217.927  18
   2  -1  -7 405.530 282.374  10
  -2   1   6 47935.8 1659.66  20
   2  -1  -6 42769.1 1228.90  18
   2  -1  -6 44893.6 1123.16   6
  -2   1   6 45368.1 6311.00   1
   2  -1  -6 45881.4 1635.44  10
  -2   1   6 43865.4 1604.83  21
  -2   1   5 97775.9 2239.90  21
  -2   1   5 89085.4 2113.81  20
  -2   1   5 104997. 8933.66   1
   2  -1  -5 96639.0 1948.19  18
   2  -1  -5 94872.8 1579.51   6
   2  -1  -5 101454. 2320.05  10
  -2   1   4-498.192 454.705  23
  -2   1   4 139.974 594.535  24
  -2   1   4 58.5895 234.946  20
   2  -1  -4 25.5287 312.439  18
  -2   1   4-58.5521 985.624   1
  -2   1   3 6861.36 1989.77   1
  -2   1   3 5585.51 2019.21  24
   2  -1  -3 8081.07 1051.97  13
  -2   1   3 5137.02 1236.67  23
  -2   1   2 3805.46 1534.34   1
   2  -1  -2 6455.01 702.230  13
  -2   1   2 5273.63 1278.37  24
  -2   1   2 5374.00 1213.30  23
   2  -1  -1 18617.6 1430.41  22
   2  -1  -1 15249.8 981.461   3
  -2   1   1 18480.0 790.188   2
  -2   1   1 16650.2 1665.75  24
   2  -1   0 9464.10 887.989   3
  -2   1   0 10491.8 1097.80   1
  -2   1   0 9583.69 1461.81  23
  -2   1   0 9309.40 997.305  24
   2  -1   1 7496.82 866.163   3
   2  -1   1 8308.73 944.573  22
  -2   1  -1 9329.31 954.478  15
  -2   1  -1 8062.38 932.417  23
   2  -1   2 57230.6 2736.93  22
   2  -1   2 60849.2 3475.71   3
  -2   1  -2 63432.0 1984.34  23
  -2   1  -2 57094.0 2679.80  15
   2  -1   3 39803.9 3317.61   3
  -2   1  -3 51358.5 5408.36  13
  -2   1  -3 54758.1 3127.21  15
  -2   1  -4 10351.4 2976.92  13
   2  -1   4 9719.02 600.210  19
   2  -1   4 8904.81 1359.48   3
   2  -1   4 7272.05 1096.87   5
  -2   1  -4 8956.02 3090.00  15
  -2   1  -5 2979.17 1248.40  13
   2  -1   5 4912.62 569.181  21
   2  -1   5 5161.80 415.426  12
   2  -1   5 4940.39 480.938  19
   2  -1   5 4443.30 1000.69   3
  -2   1  -5 5024.72 555.121  10
  -2   1  -5 6166.56 592.212  18
   2  -1   6 903.743 309.558  21
   2  -1   6 899.399 205.725  12
   2  -1   6 912.813 293.160  19
  -2   1  -6 1136.91 954.825  13
  -2   1  -6 1611.14 295.967  18
  -2   1  -6 1459.46 351.892  10
   2  -1   7 741.191 332.543  21
   2  -1   7 988.735 346.918  19
  -2   1  -7 1188.88 262.954  18
  -2   1  -7 1015.44 339.370  10
   2  -1   8 14088.1 905.330  21
   2  -1   8 13806.4 793.296  19
  -2   1  -8 12615.0 745.857  10
  -2   0   9 16070.1 757.903  20
   2   0  -9 14757.1 800.197  10
   2   0  -9 13621.9 551.518  18
  -2   0   8 2407.47 465.440  20
   2   0  -8 1837.03 274.731  18
   2   0  -8 2159.63 427.478  10
  -2   0   8 2010.33 471.984  21
  -2   0   7 5199.89 659.176  21
  -2   0   7 5681.91 651.104  20
   2   0  -7 5481.34 469.406  18
   2   0  -7 4415.16 584.730  10
  -2   0   6 16283.0 972.771  20
  -2   0   6 17486.6 1066.19  21
  -2   0   6 18918.6 4181.63   1
   2   0  -6 18226.9 859.793  18
  -2   0   6 16795.8 902.970  17
   2   0  -6 15718.8 1012.09  10
   2   0  -6 16126.6 695.968   6
  -2   0   6 16671.8 3114.43  24
  -2   0   5 3569.56 1091.11  23
  -2   0   5 3005.45 444.113  21
   2   0  -5 5241.53 817.775  18
   2   0  -5 2768.99 293.505   6
   2   0  -5 2940.41 1671.41  13
  -2   0   5 2631.86 428.718  20
  -2   0   5 3752.94 1904.02   1
  -2   0   5 2333.47 390.507  17
   2   0  -5 2027.53 497.570  10
  -2   0   5 3710.48 1508.12  24
  -2   0   4 22279.0 3018.78  24
   2   0  -4 25729.9 2783.15  13
  -2   0   4 24234.3 2623.15  23
  -2   0   3 2613.81 1075.82  23
  -2   0   3 5000.99 2054.46   1
  -2   0   3 3829.87 1409.08  24
   2   0  -3 3530.42 697.935  13
  -2   0   2 3222.92 1029.51   1
   2   0  -2 2881.53 353.775   3
  -2   0   2 2263.80 1055.63  24
   2   0  -2 3443.26 579.859  13
  -2   0   2 4213.61 1697.32  23
  -2   0   1 737726. 11631.8  23
   2   0  -1 749372. 7441.54   3
   2   0   0 23247.1 1457.86  22
  -2   0   0 23480.9 1771.50  23
   2   0   0 19837.3 1523.93   3
  -2   0   0 17847.7 866.275  24
  -2   0   0 22445.1 1650.65  15
   2   0   1 4432.41 622.719  22
   2   0   1 6540.28 1575.92   3
  -2   0  -1 4370.64 819.889  15
  -2   0  -1 4979.01 835.815  23
   2   0   2 9134.63 934.830  22
   2   0   2 8371.40 1584.68   3
  -2   0  -2 9623.98 1330.60  15
   2   0   3 4543.41 1071.13   3
  -2   0  -3 5089.68 1474.11  15
   2   0   4 484.568 215.204  21
   2   0   4 552.407 182.305  12
   2   0   4 812.703 512.917   3
  -2   0  -4 1337.39 1061.16  15
  -2   0  -5 2528.24 1111.15  13
   2   0   5 990.486 319.151  21
   2   0   5 1310.39 253.599  12
  -2   0  -5 1549.56 336.745  18
  -2   0  -5 1083.49 330.890  10
   2   0   5 1286.78 571.198   3
  -2   0  -5 1533.72 839.788  15
   2   0   5 920.801 294.399  19
   2   0   6 2038.56 412.898  21
   2   0   6 1680.03 363.041  19
  -2   0  -6 2181.86 341.231  18
  -2   0  -6 1987.92 427.354  10
   2   0   6 1040.79 252.186  12
   2   0   7 9602.79 797.599  21
   2   0   7 9910.97 732.915  19
  -2   0  -7 10235.6 598.675  18
  -2   0  -7 9286.27 721.004  10
   2   0   8 10862.9 713.335  21
   2   0   8 10420.9 593.305  19
  -2   0  -8 11225.0 502.531  18
  -2   0  -8 9363.11 564.230  10
   2   1 -10 10715.8 568.814  10
  -2  -1   9-150.814 266.985  20
   2   1  -9 232.196 317.214  10
  -2  -1   8 2220.31 432.829  20
   2   1  -8 2378.57 494.602  10
   2   1  -8 2595.21 323.313  18
  -2  -1   7 139.002 322.082  21
  -2  -1   7 606.767 346.271  20
   2   1  -7 514.381 199.022  18
  -2  -1   7 493.549 263.945  17
   2   1  -7 323.021 275.221  10
  -2  -1   6 9080.61 879.472  20
  -2  -1   6 6600.72 913.201  21
  -2  -1   6 8713.50 2992.91   1
   2   1  -6 8905.63 2014.11  13
  -2  -1   6 11257.6 803.081  17
   2   1  -6 9178.00 1135.64  10
   2   1  -6 12587.4 1056.42  18
  -2  -1   6 11599.5 2832.83  24
  -2  -1   6 5232.96 3025.07  14
  -2  -1   5 56991.5 9159.47   1
  -2  -1   5 57548.9 1850.88  20
   2   1  -5 52145.2 6329.08  13
   2   1  -5 56265.5 1166.99  18
   2   1  -5 56517.6 1645.34  10
  -2  -1   5 62257.1 1788.77  17
  -2  -1   5 50857.7 10419.6  14
  -2  -1   5 56110.8 5757.53  24
  -2  -1   5 60606.3 4490.59  23
  -2  -1   4 57901.1 4655.56  23
  -2  -1   4 65424.3 5920.93   1
  -2  -1   4 56992.9 6093.91  14
  -2  -1   4 51594.9 5837.13  24
   2   1  -4 64905.6 3827.93  13
  -2  -1   3 1190.16 870.168  23
  -2  -1   3 2412.80 934.441   1
   2   1  -3 1821.39 571.206   2
   2   1  -3 2185.56 608.622  13
  -2  -1   3 2164.45 1050.39  14
  -2  -1   3 1551.08 848.298  24
   2   1  -2 180347. 5330.83   2
   2   1  -2 172617. 3901.08   3
  -2  -1   2 168089. 4831.51  15
  -2  -1   2 182087. 5848.49  14
  -2  -1   2 194482. 5555.66  24
   2   1  -2 174767. 4692.81  13
  -2  -1   2 162184. 6617.43  23
   2   1  -1 22247.2 2037.38   3
  -2  -1   1 25787.6 2106.24  15
  -2  -1   1 23603.6 1586.84  14
   2   1  -1 22108.3 2127.88   2
  -2  -1   1 23057.7 2200.60  23
   2   1   0 10953.6 3142.07   3
  -2  -1   0 7427.53 1267.31  23
  -2  -1   0 6515.84 1151.98  15
   2   1   0 6856.95 1363.64   2
  -2  -1   0 6805.81 809.367  14
   2   1   0 7019.36 845.005  22
   2   1   1 8777.25 1744.18   3
  -2  -1  -1 8229.05 1455.11  15
  -2  -1  -1 8778.03 1117.79  23
   2   1   2 1782.63 865.333   3
  -2  -1  -2 1035.85 715.221  15
   2   1   3 80474.0 1907.47  21
   2   1   3 82865.6 4910.38   3
   2   1   3 82660.7 2209.03  16
   2   1   4 36182.7 1356.77  21
  -2  -1  -4 38751.1 1436.32  18
   2   1   4 36327.0 3229.61   3
   2   1   4 35999.7 1332.15  16
  -2  -1  -4 33079.3 3709.09  15
   2   1   4 33486.7 1108.57  12
   2   1   5 365.929 248.689  21
   2   1   5 427.716 217.396  12
   2   1   5 468.216 298.169  19
  -2  -1  -5 301.898 207.030  18
   2   1   6 1253.32 357.030  21
   2   1   6 910.059 242.789  12
   2   1   6 977.372 384.401  19
  -2  -1  -6 1074.82 270.676  18
  -2  -1  -6 1319.22 377.993  10
   2   1   7 7933.77 636.564  21
   2   1   7 8338.80 558.261  19
  -2  -1  -7 7732.00 439.483  18
  -2  -1  -7 7677.67 561.514  10
  -2  -2  10 410.885 175.174  20
   2   2 -10 1027.52 254.230  10
  -2  -2   9 16572.9 770.826  20
   2   2  -9 18776.9 1037.17  10
  -2  -2   8 9306.76 627.891  17
  -2  -2   8 9233.34 706.751  20
   2   2  -8 10398.2 906.423  10
  -2  -2   7 546.513 315.553  20
  -2  -2   7 762.811 309.190  17
   2   2  -7 418.153 498.925  10
  -2  -2   6 47257.4 1809.13  20
   2   2  -6 60811.4 2016.38  10
  -2  -2   6 57771.0 1921.04  17
  -2  -2   6 56412.1 9864.34  14
  -2  -2   6 49627.5 5891.64  24
  -2  -2   5 74551.5 2380.24  20
   2   2  -5 61229.3 1585.54  10
  -2  -2   5 50658.7 1932.17  17
   2   2  -5 56724.0 2202.11  16
  -2  -2   5 55730.6 5999.81  14
  -2  -2   5 80786.7 8252.78  24
   2   2  -5 64835.0 4895.59  13
  -2  -2   5 67112.8 5438.36  23
   2   2  -4 3150.10 851.839  13
  -2  -2   4 891.896 991.044  23
   2   2  -4 3653.70 357.002  10
  -2  -2   4 4066.14 676.407  17
  -2  -2   4 3603.76 1194.00  14
  -2  -2   4 2487.22 906.995  24
  -2  -2   3 9434.41 1651.41  14
   2   2  -3 9997.35 1351.04  13
  -2  -2   3 8426.15 1279.82  15
  -2  -2   3 8789.45 2005.07  23
   2   2  -3 9505.72 1551.25   2
  -2  -2   2 3548.36 1030.03  23
  -2  -2   2 3050.94 787.152  15
  -2  -2   2 4148.09 919.950  14
   2   2  -2 3627.89 962.373   2
  -2  -2   1 36400.2 2431.32  14
   2   2  -1 33651.7 3076.21   2
  -2  -2   1 29899.1 2543.25  15
  -2  -2   1 33942.1 2933.90  23
  -2  -2   0 51708.6 4128.78  15
  -2  -2   0 59639.2 3257.02  14
   2   2   0 55008.2 4546.32   2
  -2  -2   0 54851.7 3420.53  23
  -2  -2  -1 8120.21 629.584   8
   2   2   1 6936.08 633.392  26
   2   2   1 7457.77 489.307  16
  -2  -2  -1 8063.81 2274.96  15
  -2  -2  -1 8464.21 1313.23  23
   2   2   2 28810.0 1069.24  16
   2   2   2 33510.6 3508.85   3
  -2  -2  -2 30093.7 8110.07  15
  -2  -2  -2 28288.4 1327.86   8
   2   2   3 53226.4 1827.07  21
  -2  -2  -3 51458.9 1674.73  18
   2   2   3 51800.5 4341.78   3
   2   2   3 51371.8 1949.31  16
  -2  -2  -3 43314.7 4654.56  15
   2   2   4 5508.83 640.140  21
   2   2   4 4975.97 535.424  12
  -2  -2  -4 5471.42 492.448  18
   2   2   5 907.062 373.093  19
   2   2   5 1006.14 360.197  21
  -2  -2  -5 1108.70 251.049  18
   2   2   5 1088.59 294.866  12
  -2  -2  -5 985.143 367.780  10
   2   2   6 244.766 212.241  19
  -2  -2  -6 194.293 161.614  18
  -2  -2  -6 643.681 271.202  10
  -2  -3  10 7797.29 429.590  20
   2   3 -10 8566.09 569.492  10
  -2  -3   9 29761.1 1027.19  20
   2   3  -9 31899.5 1366.92  10
  -2  -3   9 27508.8 906.268  17
  -2  -3   8 5603.48 634.057  20
   2   3  -8 6771.80 871.522  10
  -2  -3   8 6659.40 577.456  17
   2   3  -7 13677.9 1317.61  10
  -2  -3   7 11950.6 833.266  17
   2   3  -7 11037.8 718.482  16
  -2  -3   6 6293.46 655.714  20
   2   3  -6 5909.31 633.700  10
  -2  -3   6 4305.55 626.646  17
   2   3  -6 7744.64 2054.18  13
   2   3  -6 3366.17 825.636  16
  -2  -3   6 6105.00 2155.51  14
  -2  -3   6 9553.61 1957.70  23
  -2  -3   5 10134.7 545.767  20
  -2  -3   5 9710.59 2191.67  14
   2   3  -5 11420.8 736.353  10
  -2  -3   5 12123.9 1114.17  17
   2   3  -5 10836.0 776.685  16
   2   3  -5 10390.0 1869.92  13
  -2  -3   5 8011.07 2179.31  23
  -2  -3   4 15631.7 2479.50  14
   2   3  -4 14164.4 1915.78  13
   2   3  -4 13853.4 755.043  10
  -2  -3   4 12989.1 716.640  17
   2   3  -4 13475.2 679.489  16
  -2  -3   4 15859.4 3485.46  23
  -2  -3   3 10314.1 830.190   8
   2   3  -3 7994.58 524.637  26
   2   3  -3 7932.78 557.844  10
  -2  -3   3 8475.90 523.260  17
   2   3  -3 8433.72 500.641  16
  -2  -3   3 9637.86 1777.80  14
   2   3  -3 7255.70 1564.34   2
  -2  -3   3 7538.35 1699.44  23
  -2  -3   2 13144.8 799.426   8
   2   3  -2 14271.4 801.404  10
   2   3  -2 13728.2 629.449  16
  -2  -3   2 13051.1 2214.75  15
   2   3  -2 13271.4 681.759  26
   2   3  -2 12855.4 2154.60   2
  -2  -3   2 12470.1 1985.69  23
  -2  -3   2 13731.8 1884.73  14
  -2  -3   1 107883. 2287.54   8
   2   3  -1 104420. 2299.59  10
   2   3  -1 102554. 1782.82  16
  -2  -3   1 100802. 7142.51  15
   2   3  -1 105692. 2039.59  26
  -2  -3   1 113861. 5306.74  14
   2   3  -1 102904. 6653.58   2
  -2  -3   1 111272. 5742.69  23
  -2  -3   0 14762.1 996.275   8
   2   3   0 14487.3 692.509  16
   2   3   0 13805.4 858.883  26
  -2  -3   0 17248.5 4328.71  15
   2   3   0 15006.3 2994.99   2
  -2  -3   0 14666.4 2124.34  23
   2   3   1 3337.06 382.299  16
   2   3   1 2573.71 1041.21   3
   2   3   1 2919.36 559.181  26
  -2  -3  -1 5416.66 2411.91  15
  -2  -3  -1 3367.39 639.512   8
  -2  -3  -2 8886.22 585.700  18
   2   3   2 8366.29 655.008  16
  -2  -3  -3 21.4020 235.062   8
  -2  -3  -3-66.9011 176.143  18
   2   3   3 193.383 247.558  21
  -2  -3  -4 6177.73 421.113  18
   2   3   4 6559.05 576.929  12
   2   3   5 2018.08 267.797  12
   2   3   5 1757.04 312.621  19
  -2  -3  -5 1221.72 184.338  18
  -2  -3  -5 1563.62 346.604  10
  -2  -4   9 234.508 239.190  20
  -2  -4   9 222.579 197.639  17
   2   4  -9 743.512 368.122  10
  -2  -4   8 1454.29 389.774  20
  -2  -4   8 2378.66 405.870  17
   2   4  -8 2013.70 844.225  10
   2   4  -8 2029.26 302.160  16
  -2  -4   7 2354.78 441.327  20
  -2  -4   7 1624.85 417.482  17
   2   4  -7 2238.15 568.146  10
   2   4  -7 1776.56 403.946  16
   2   4  -6 4874.01 596.121  10
  -2  -4   6 5665.78 1000.44  17
   2   4  -6 4788.18 775.517  16
   2   4  -5 88986.0 2247.73  10
  -2  -4   5 86632.6 2015.11  17
   2   4  -5 88237.5 2041.55  16
  -2  -4   5 86360.1 6610.92  14
  -2  -4   4 42561.5 4274.65  14
   2   4  -4 41362.7 1505.73  10
  -2  -4   4 40208.8 1201.71  17
   2   4  -4 39610.4 1260.24  16
   2   4  -4 40372.3 1438.45  26
  -2  -4   4 41992.1 5007.29  23
  -2  -4   3 1001.04 546.899   8
   2   4  -3 516.843 200.645  26
   2   4  -3-497.544 648.527   2
  -2  -4   3 512.456 209.236  17
   2   4  -3 301.717 244.767  10
   2   4  -3 333.314 173.766  16
  -2  -4   3-268.166 658.673  23
   2   4  -2 30785.6 1404.74  10
   2   4  -2 33773.0 1128.27  16
   2   4  -2 31446.8 1280.88  26
   2   4  -2 30302.5 4160.40   2
  -2  -4   2 33906.3 3741.70  23
  -2  -4   2 32475.3 1596.69   8
   2   4  -1 3449.85 1682.35   2
   2   4  -1 6395.34 531.697  16
   2   4  -1 5930.41 628.629  26
  -2  -4   1 7966.09 2042.62  23
  -2  -4   1 6332.27 848.862   8
  -2  -4   0 2640.51 824.082   8
   2   4   0 2703.53 373.508  16
   2   4   0 2307.04 496.275  26
  -2  -4  -1 3817.91 772.047   8
   2   4   1 2652.87 397.255  16
  -2  -4  -2 168.735 289.030   8
   2   4   3 11772.2 687.879  12
  -2  -4  -3 10468.1 573.957   8
  -2  -4  -4 13183.3 658.191  10
   2   5  -9 5282.83 546.943  10
  -2  -5   9 6093.03 404.968  17
  -2  -5   8 6672.98 551.950  17
   2   5  -8 5487.78 472.645  16
  -2  -5   7 1597.88 529.009  17
   2   5  -7 2307.95 568.167  10
   2   5  -7 1464.11 448.679  16
   2   5  -6 17295.7 1100.57  10
  -2  -5   6 14242.1 1007.10  17
   2   5  -6 16461.0 1059.98  16
   2   5  -5 15527.5 1036.78  10
  -2  -5   5 12820.8 722.105  17
   2   5  -5 13923.5 812.047  16
  -2  -5   4 78.7451 517.655   8
  -2  -5   4-179.685 189.512  17
   2   5  -4-200.780 362.201  10
   2   5  -4 95.9683 206.805  16
   2   5  -4 154.546 205.671  26
   2   5  -3 4015.86 458.608  16
  -2  -5   3 3646.09 354.606   9
   2   5  -3 3955.90 536.201  26
  -2  -5   2 1395.13 806.278   8
   2   5  -2 586.745 241.789  16
   2   5  -2 702.950 322.045  26
   2   5  -1 29539.7 1124.67  16
   2   5  -1 32452.0 1660.50  26
   2   5   0 20460.6 931.882  16
  -2  -5   0 26478.7 1214.63   8
  -2  -5  -1 7361.37 545.003   8
   2   5   2 3456.10 347.852  12
  -2  -5  -2 2542.04 281.627   8
  -2  -6   7 339.165 445.158  17
   2   6  -7 63.7586 386.592  10
   2   6  -7 488.208 354.016  16
  -2  -6   6 102.544 214.750  17
  -2  -6   6-3.66807 188.804   9
   2   6  -6 339.225 252.027  16
  -2  -6   6 553.382 425.209  25
   2   6  -5 6328.93 511.446  16
  -2  -6   5 5505.75 433.566   9
   2   6  -4 5691.18 498.463  16
   2   6  -4 6662.56 714.603  26
  -2  -6   3 2589.46 485.564   8
   2   6  -3 2516.28 338.352  16
   2   6  -3 1932.41 442.272  26
  -2  -6   3 2294.99 600.531  25
  -2  -6   2 2126.06 350.039   8
   2   6  -2 1959.05 286.402  16
   2   6  -2 2885.34 587.960  26
  -2  -6   2 3128.53 535.921  25
  -2  -6   1 18280.8 722.653   8
  -3   8  -1 4431.55 644.206  21
  -3   8  -2 1149.57 470.452  21
   3  -8   2 688.592 294.606   9
   3  -8   2 339.064 292.089  25
  -3   8  -3 10269.3 990.325  21
   3  -8   3 5828.39 830.896  25
   3  -8   3 8871.66 658.259   9
  -3   8  -3 7139.34 522.104  26
   3  -8   4 172.328 224.732   9
  -3   8  -4 186.722 184.526  26
   3  -8   4-46.8891 437.387  25
   3  -8   5 8210.85 817.961  25
  -3   8  -5 9410.25 636.473  26
   3  -8   6 5188.63 536.580  25
  -3   8  -6 6290.60 616.246  26
  -3   8  -7 7433.00 778.337  26
  -3   7   2 4809.41 559.146  21
   3  -7  -2 3009.73 288.186   6
  -3   7   1 1928.39 844.086  21
   3  -7  -1 1734.63 301.332   8
  -3   7   0 5642.11 760.069  21
   3  -7   0 3968.25 440.141   7
   3  -7   0 4853.63 488.587   8
   3  -7   1 5740.16 1140.81   8
   3  -7   1 5426.93 445.946   7
  -3   7  -1 7060.80 826.281  21
   3  -7   1 5100.22 694.503  25
   3  -7   1 6013.55 653.752   9
   3  -7   2 47829.9 1587.13   9
   3  -7   2 47980.5 2165.67  25
   3  -7   2 43115.8 1397.43   8
   3  -7   3 19470.7 1047.63  12
   3  -7   3 21324.2 2122.58  25
   3  -7   3 23076.1 1052.02   9
  -3   7  -3 21209.5 1011.02  26
   3  -7   4 501.774 339.613  12
   3  -7   4-309.253 336.753  17
   3  -7   4 84.5544 199.837   9
  -3   7  -4-79.2709 220.147  26
   3  -7   4 99.6142 410.747  25
   3  -7   5 12483.2 936.225  12
  -3   7  -5 9590.49 696.820  16
   3  -7   5 13042.4 894.565   9
   3  -7   5 11054.7 964.711  25
   3  -7   6 8077.43 724.669  25
   3  -7   6 7827.10 756.767  17
  -3   7  -6 8821.97 814.163  16
   3  -7   7 80.7055 302.328  12
   3  -7   7 39.1528 268.336  11
  -3   7  -7 185.759 370.838  16
   3  -7   8 1126.13 322.127  11
  -3   7  -8 808.810 288.940  16
  -3   6   4 411.178 240.499  21
   3  -6  -4 432.693 152.277   6
  -3   6   3 571.864 378.509  21
  -3   6   3 13.2290 344.753  20
   3  -6  -3 530.645 218.453   6
  -3   6   2 18674.5 1830.04  21
   3  -6  -2 12423.2 696.879   8
  -3   6   1 20879.6 1314.15  21
   3  -6  -1 20364.3 1012.20   7
   3  -6  -1 21192.6 935.032   8
  -3   6   0 6274.25 696.075  21
   3  -6   0 5881.05 475.136   7
   3  -6   0 5785.34 622.907   9
   3  -6   0 5712.44 677.625  25
   3  -6   0 6293.39 681.279   8
   3  -6   1 9005.84 663.774  12
   3  -6   1 11972.5 785.423   9
  -3   6  -1 11745.3 664.429  26
   3  -6   1 13539.2 1101.19  25
   3  -6   1 9589.67 959.371   8
   3  -6   2 46820.8 1446.74  12
  -3   6  -2 44466.2 4680.42   2
   3  -6   2 49975.4 1489.58   9
  -3   6  -2 48229.6 1443.72  26
   3  -6   2 51380.0 5031.34  14
   3  -6   2 60500.6 3059.38  25
   3  -6   2 51636.3 1367.03   8
  -3   6  -2 46983.0 6300.25  24
   3  -6   3 5726.23 561.291  12
   3  -6   3 3264.56 795.164  25
   3  -6   3 5750.53 554.618  17
  -3   6  -3 6531.69 1669.22   2
   3  -6   3 6118.37 524.369   9
   3  -6   3 4859.91 1524.90  14
   3  -6   4 16507.6 922.007  12
   3  -6   4 17157.2 766.443  11
   3  -6   4 18472.2 967.959  17
  -3   6  -4 14050.8 862.427  16
   3  -6   4 15650.5 822.553   9
   3  -6   4 13915.2 1164.68  25
   3  -6   5 907.374 374.826  12
   3  -6   5 645.093 209.778  11
   3  -6   5 258.943 554.657  17
   3  -6   5 690.645 307.754  25
   3  -6   6 13002.3 1386.38  12
   3  -6   6 12175.3 922.238  20
   3  -6   6 12053.7 701.919  11
   3  -6   6 13171.1 786.042  17
   3  -6   7 31355.8 1306.31  12
   3  -6   7 37652.9 1692.67  11
   3  -6   8 1574.45 351.109  20
   3  -6   8 1175.30 304.863  12
   3  -6   8 988.334 350.267  11
  -3   6  -8 992.669 327.305  16
   3  -6   9 4196.11 348.072  11
  -3   6  -9 2840.20 370.494  16
  -3   5   5 5765.84 507.571  21
   3  -5  -5 5139.68 343.317   6
  -3   5   4 1486.88 426.520  21
   3  -5  -4 1581.06 295.615   6
  -3   5   3 15678.0 1458.72  21
   3  -5  -3 12098.5 668.227   8
  -3   5   2 15606.4 1289.72  21
   3  -5  -2 16689.5 976.688   7
   3  -5  -2 16026.8 793.728   8
  -3   5   1 4654.60 592.942  21
  -3   5   1 3320.95 1450.39  24
   3  -5  -1 4716.38 437.364   7
   3  -5  -1 4786.56 485.813   8
   3  -5  -1 4316.17 559.848   9
   3  -5  -1 4778.12 566.843  25
   3  -5   0 295.102 1021.52   8
   3  -5   0 971.293 236.077  12
   3  -5   0 974.681 259.091   9
   3  -5   0 1340.21 370.898  25
  -3   5   0 573.996 1011.11  24
   3  -5   1 1513.45 289.643   8
   3  -5   1 1301.95 294.035  12
  -3   5  -1 2290.30 1024.66   2
   3  -5   1 1375.33 412.060   4
   3  -5   1 1448.39 257.444   9
   3  -5   1 576.936 449.198  14
   3  -5   1 1704.54 490.637  25
  -3   5  -1 928.347 1089.92  24
   3  -5   2 1128.61 278.781  12
   3  -5   2 827.253 361.279   4
   3  -5   2 659.751 237.268  17
  -3   5  -2 969.797 541.403   2
   3  -5   2 931.779 207.339   9
   3  -5   2 1252.24 1928.98  25
   3  -5   2 299.232 367.415  14
   3  -5   3 30333.0 1051.16  12
  -3   5  -3 32486.1 3911.91   2
   3  -5   3 30988.5 939.123  11
   3  -5   3 28804.5 1062.46  17
   3  -5   3 30831.1 3308.15  14
   3  -5   3 29783.4 983.681   9
   3  -5   3 28466.3 1568.00  25
   3  -5   4 8023.05 606.857  12
   3  -5   4 8596.98 587.436  20
   3  -5   4 6995.59 759.299   4
  -3   5  -4 7228.27 2159.80   2
   3  -5   4 8741.19 525.105  11
   3  -5   4 11144.0 801.215  17
   3  -5   4 7869.91 727.998  25
  -3   5  -5 12033.8 3242.11  13
   3  -5   5 22458.8 1302.73  12
   3  -5   5 19946.8 914.812  20
  -3   5  -5 16702.7 3724.11   2
   3  -5   5 17771.8 780.460  11
   3  -5   5 14380.1 1083.92  17
   3  -5   5 17041.3 1001.68  25
   3  -5   6 35862.0 1580.96  12
   3  -5   6 43875.3 1452.50  11
   3  -5   7 30570.2 1212.20  12
   3  -5   7 27928.3 1355.39  20
   3  -5   7 27182.9 1970.81  11
   3  -5   8 824.656 265.876  20
   3  -5   8 970.300 290.006  12
   3  -5   8 627.386 288.586  11
   3  -5   9 1313.31 224.015  11
  -3   4   6 26790.8 1069.74  21
   3  -4  -6 23973.1 732.137  18
   3  -4  -6 25435.4 743.860   6
  -3   4   5 5060.68 613.273  21
   3  -4  -5 4688.43 386.552  18
   3  -4  -5 4442.04 410.785   6
  -3   4   4 649.035 312.895  21
  -3   4   4 498.955 528.717  20
   3  -4  -4 987.710 293.771  18
   3  -4  -4 729.741 248.615   6
   3  -4  -3 1289.50 261.448   8
  -3   4   3 1683.84 577.462  21
   3  -4  -3 1071.65 369.287   7
   3  -4  -3 796.450 284.512  18
  -3   4   3 3800.85 2827.05   1
  -3   4   3 3788.85 1961.32  24
  -3   4   2 10846.4 951.458  21
   3  -4  -2 11639.1 671.954   7
   3  -4  -2 12124.0 675.399   8
  -3   4   2 10882.2 2552.92  24
   3  -4  -1 20841.5 3688.22  22
  -3   4   1 17224.6 973.611  21
   3  -4  -1 14846.9 927.418   4
   3  -4  -1 17537.2 882.001   9
  -3   4   1 17154.4 4523.13   1
   3  -4  -1 20364.6 1041.16  25
   3  -4  -1 13969.6 959.952   8
  -3   4   1 16659.9 2748.15  24
   3  -4   0 4234.69 1350.66  22
  -3   4   0 4814.35 1142.62   2
   3  -4   0 4313.73 480.982   4
   3  -4   0 4648.06 407.810   9
   3  -4   0 5784.65 635.715  25
   3  -4   0 5204.80 526.953   8
  -3   4   0 4991.07 1451.23  24
   3  -4   1 7212.02 1575.55  22
   3  -4   1 7350.55 563.509   4
  -3   4  -1 8643.90 1613.47   2
   3  -4   1 7682.84 1392.29  14
   3  -4   1 8850.26 1113.91  25
   3  -4   2 48357.5 1620.27   4
   3  -4   2 46867.2 1089.60  12
   3  -4   2 45123.0 953.548  11
  -3   4  -2 50703.0 4053.75   2
   3  -4   2 44545.3 1146.00  17
   3  -4   2 45179.2 1955.49  25
   3  -4   2 44167.1 3107.36  14
   3  -4   3 43697.6 1912.39   4
   3  -4   3 35314.8 1015.35  12
   3  -4   3 35103.4 999.985  20
   3  -4   3 36517.3 929.665  11
  -3   4  -3 40800.4 4192.04   2
   3  -4   3 38526.6 1145.18  17
   3  -4   3 37258.7 2995.85  14
   3  -4   3 35141.8 1362.43  25
  -3   4  -4-155.390 506.533  13
   3  -4   4 601.153 257.607   4
   3  -4   4 805.824 222.659  20
   3  -4   4 807.236 295.891  12
   3  -4   4 662.782 196.283  19
   3  -4   4 555.593 165.027  11
   3  -4   4 642.024 240.619  25
  -3   4  -4 319.960 723.019   2
  -3   4  -5 732.373 985.817  13
   3  -4   5 2098.75 381.369  20
   3  -4   5 2061.57 565.005  12
   3  -4   5 1399.47 364.925  19
   3  -4   5 1332.40 266.421  11
  -3   4  -5 1360.41 1371.99   2
  -3   4  -6 3459.96 1578.50  13
   3  -4   6 7695.38 657.926  12
   3  -4   6 3581.87 993.362  20
   3  -4   6 4757.02 666.576  19
   3  -4   6 7377.59 836.476  11
  -3   4  -6 9963.56 3249.16   2
   3  -4   7 192.285 229.131  12
   3  -4   7 190.752 274.965  19
   3  -4   7-68.5396 231.988  11
   3  -4   8 11911.2 750.595  19
   3  -4   8 12560.4 702.707  11
   3  -4   9 171.856 145.514  11
  -3   3   7 7642.64 606.938  21
  -3   3   7 6507.34 635.769  20
   3  -3  -7 5948.50 399.983  18
   3  -3  -7 6094.74 390.722   6
  -3   3   6 7337.57 697.625  21
  -3   3   6 5372.25 758.008  20
   3  -3  -6 6290.33 459.595  18
   3  -3  -6 6704.80 466.840   6
  -3   3   5 441.751 272.750  21
  -3   3   5 89.0590 366.969  20
   3  -3  -5 518.208 224.579  18
   3  -3  -5 483.556 192.675   6
  -3   3   4 5325.03 1598.81  23
  -3   3   4 5542.28 637.203  21
  -3   3   4 6510.04 2793.51   1
   3  -3  -4 4210.38 807.520  18
   3  -3  -4 5944.65 449.819   6
  -3   3   4 1891.08 2923.10  24
   3  -3  -3 203.017 188.062   7
   3  -3  -3 150.653 179.623  18
  -3   3   3-23.7187 1551.78   1
   3  -3  -3 232.523 175.062   6
  -3   3   3 1073.21 782.338  24
   3  -3  -2 82610.3 5800.20  22
   3  -3  -2 68190.5 1582.19   4
   3  -3  -2 72787.2 1397.44   7
   3  -3  -2 73502.5 1199.93  18
   3  -3  -2 68491.5 1746.61   8
  -3   3   2 77064.6 5995.21  24
   3  -3  -1 116954. 1856.69   4
   3  -3  -1 123996. 5638.94  22
  -3   3   1 123029. 6609.52  24
   3  -3   0 108.543 270.799  22
  -3   3   0-119.921 1360.94   1
  -3   3   0-642.395 375.314   2
  -3   3   0 60.7582 572.417  24
   3  -3   1 12080.5 1598.27  22
  -3   3  -1 13198.8 3517.05  13
   3  -3   1 12833.5 1414.49   3
  -3   3  -1 14485.8 1902.24   2
   3  -3   1 14760.3 1526.09  14
   3  -3   2 18002.2 2110.38  22
   3  -3   2 18099.6 1752.10   3
   3  -3   2 22000.1 1712.94  14
  -3   3  -2 20275.2 1534.15  15
   3  -3   3 2596.70 1043.52  22
  -3   3  -3 3199.05 1843.18  13
   3  -3   3 5195.62 1134.89   3
  -3   3  -4 2845.11 1310.56  13
   3  -3   4 3689.72 647.098  12
   3  -3   4 3056.77 532.415  19
   3  -3   4 2800.72 295.254  11
   3  -3   4 3698.31 1575.34   3
  -3   3  -5 552.251 702.341  13
   3  -3   5 162.895 222.834  12
   3  -3   5 42.6211 212.478  19
   3  -3   5 151.391 194.984  11
   3  -3   5-46.3473 399.311   3
  -3   3  -6 3267.16 1350.41  13
   3  -3   6 5745.30 542.228  12
   3  -3   6 5226.50 583.686  19
   3  -3   6 3234.46 598.951  11
   3  -3   7 34416.0 1118.15  12
   3  -3   7 33227.5 1185.70  11
   3  -3   8 958.137 323.994  19
   3  -3   8 1151.36 237.235  11
   3  -3   9 63.7869 188.530  19
  -3   2   8 552.657 282.512  20
   3  -2  -8 233.327 147.899  18
  -3   2   7 55.6486 270.862  21
  -3   2   7 24.5176 387.091  20
   3  -2  -7 13.1655 190.765  18
   3  -2  -7-35.4878 175.291   6
   3  -2  -7 196.861 192.799  10
  -3   2   6 15697.8 990.556  21
  -3   2   6 16020.6 1102.80  20
   3  -2  -6 12752.0 713.256  18
   3  -2  -6 12919.1 656.811   6
   3  -2  -6 13531.9 824.936  10
  -3   2   5 39965.0 1673.80  20
  -3   2   5 39969.9 6144.50   1
   3  -2  -5 37503.6 1459.62  18
   3  -2  -5 39315.9 1118.24   6
  -3   2   5 33476.4 4980.01  24
   3  -2  -4 220.275 322.912  22
  -3   2   4 23.2433 365.133  20
   3  -2  -4 212.034 223.622  18
   3  -2  -4 74.0332 146.446   6
  -3   2   4 328.948 531.155  23
  -3   2   4 266.138 1009.22   1
  -3   2   4 82.8806 1358.05  24
   3  -2  -3 22725.1 3798.42  22
   3  -2  -3 17566.2 869.289   7
   3  -2  -3 18720.6 650.206  18
   3  -2  -3 16130.6 711.381   6
  -3   2   3 18107.5 3777.83   1
  -3   2   3 14542.4 3300.26  24
  -3   2   3 16403.8 2412.28  23
   3  -2  -2 228563. 7952.55  22
  -3   2   2 212493. 11900.4   1
  -3   2   2 187611. 8255.43  24
  -3   2   2 189271. 8581.72  23
  -3   2   1 678.046 1014.09   1
   3  -2  -1 1199.51 550.511  22
  -3   2   1 965.144 542.107  24
  -3   2   0 5135.85 2034.88   1
   3  -2   0 4413.32 756.666   3
   3  -2   0 4362.64 842.485  22
  -3   2   0 4880.44 1102.18  24
   3  -2   1 4363.67 833.671  22
   3  -2   1 4450.49 789.699   3
  -3   2  -1 5365.44 1205.93  23
  -3   2  -2 2984.63 773.140  23
   3  -2   2 2945.49 851.715  22
   3  -2   2 2800.58 781.299   3
  -3   2  -2 3624.10 757.553  15
  -3   2  -3 85182.7 8074.84  13
   3  -2   3 89871.0 4778.41  22
  -3   2  -3 102186. 4329.56  15
  -3   2  -4 17039.6 4266.35  13
   3  -2   4 13527.8 729.960  12
   3  -2   4 14758.6 782.084  19
   3  -2   4 14923.0 722.349  11
   3  -2   4 14785.0 2313.73   3
   3  -2   4 13455.3 912.930   5
   3  -2   5 14058.9 719.944  12
  -3   2  -5 10247.7 2548.60  13
   3  -2   5 14083.8 812.026  19
   3  -2   5 8862.32 1332.16  11
   3  -2   5 13735.8 2003.59   3
   3  -2   6 5858.53 470.665  12
   3  -2   6 5874.47 555.832  19
   3  -2   6 5092.28 567.104  11
  -3   2  -6 6826.53 589.363  18
   3  -2   7 13477.5 664.555  12
   3  -2   7 12426.9 770.717  19
  -3   2  -7 14059.6 665.147  18
   3  -2   8 667.791 282.965  19
  -3   2  -8 661.326 177.548  18
  -3   1   9 6517.44 459.849  20
   3  -1  -9 5956.92 331.411  18
  -3   1   8 917.248 432.988  20
   3  -1  -8 606.577 210.444  18
   3  -1  -8 440.225 249.918  10
   3  -1  -7 11909.2 667.895   6
   3  -1  -7 13218.1 687.762  18
  -3   1   7 12205.3 978.409  17
   3  -1  -7 13281.1 858.911  10
  -3   1   6 52503.8 1817.36  20
   3  -1  -6 48789.6 1485.94  18
   3  -1  -6 51704.0 1308.25   6
   3  -1  -6 50699.9 1741.72  10
  -3   1   5 9857.19 818.193  20
   3  -1  -5 11897.0 1262.34  18
   3  -1  -5 11194.8 620.397   6
  -3   1   5 11841.0 3435.37   1
   3  -1  -5 7713.50 1025.64  10
   3  -1  -5 5656.69 1459.26  22
  -3   1   5 11422.5 2709.18  24
  -3   1   5 13191.4 2302.53  23
  -3   1   4 3053.59 1143.07  23
  -3   1   4 2767.16 422.882  20
   3  -1  -4 3893.81 1658.27  22
   3  -1  -4 3459.22 321.119  18
   3  -1  -4 2955.29 341.675   6
  -3   1   4 1244.98 1121.99  24
  -3   1   4 1064.26 880.524   1
   3  -1  -3 1133.45 723.814  22
  -3   1   3 1064.57 1450.27   1
  -3   1   3 1229.22 726.220  23
  -3   1   3 216.637 1168.61  24
  -3   1   2-15.3202 819.903  23
   3  -1  -2 35.6381 410.224  22
  -3   1   2-12.2463 603.298   1
  -3   1   2 393.151 1010.09  24
   3  -1  -1 58631.6 3118.86  22
  -3   1   1 64972.3 3919.59   1
   3  -1  -1 53303.1 2415.49   3
  -3   1   1 55951.3 4195.51  24
  -3   1   1 61658.7 4852.05  23
   3  -1   0 35780.6 2252.12  22
   3  -1   0 35695.2 2166.61   3
  -3   1   0 36860.2 2674.27  24
  -3   1   0 34988.6 2731.34  23
  -3   1  -1 398.239 335.223  23
   3  -1   1 325.087 218.774  22
   3  -1   1 183.222 241.765   3
  -3   1  -1 722.011 413.339  15
   3  -1   2 270235. 6958.00  22
  -3   1  -2 279880. 7643.64  15
   3  -1   3 48303.7 1330.25  12
   3  -1   3 42795.5 4018.63   3
   3  -1   3 45429.4 1251.20   5
   3  -1   3 45520.3 1557.01  16
  -3   1  -3 50567.3 3636.36  15
  -3   1  -4-469.260 1615.47  13
   3  -1   4 183.021 155.205  12
   3  -1   4 158.115 185.600  19
   3  -1   4 391.119 480.206   3
  -3   1  -4-240.584 736.306  15
   3  -1   4-30.0629 225.540   5
  -3   1  -5 831.352 1123.86  13
   3  -1   5 630.472 238.357  12
   3  -1   5 669.860 265.247  19
  -3   1  -5 1581.57 505.995  18
   3  -1   5 526.759 393.304   3
   3  -1   6 2291.11 311.881  12
   3  -1   6 2010.55 376.568  19
  -3   1  -6 2322.11 391.651  18
  -3   1  -6 2310.72 397.765  10
   3  -1   7 3306.85 357.564  12
   3  -1   7 3648.78 494.568  19
  -3   1  -7 2666.96 335.270  18
   3  -1   8 2059.12 322.096  19
  -3   1  -8 1652.23 219.307  18
  -3   0   9 12011.7 669.487  20
   3   0  -9 10366.2 479.952  18
   3   0  -9 10591.6 618.558  10
  -3   0   8 167.774 369.809  20
   3   0  -8 128.689 213.704  18
  -3   0   8 157.297 250.851  17
   3   0  -8 200.421 270.393  10
  -3   0   7 24818.5 1287.72  20
   3   0  -7 22366.4 961.372  18
   3   0  -7 21224.2 1210.48  10
  -3   0   7 22928.0 1235.35  17
  -3   0   6 3711.53 2283.05   1
  -3   0   6 4223.81 575.438  20
   3   0  -6 3509.72 412.238   6
   3   0  -6 2925.15 577.173  18
  -3   0   6 3486.57 526.832  17
   3   0  -6 2548.38 658.802  10
  -3   0   6 2842.19 1233.33  24
  -3   0   6 1119.15 980.170  14
   3   0  -5 8550.40 2822.83  13
  -3   0   5 17863.7 1070.14  20
  -3   0   5 9650.40 3127.64   1
   3   0  -5 14140.6 768.382   6
   3   0  -5 18392.0 796.109  18
   3   0  -5 17592.8 1026.49  10
  -3   0   5 15800.0 1015.72  17
  -3   0   5 18340.2 3510.42  24
  -3   0   5 18261.2 2813.24  23
  -3   0   4 897.012 661.306  23
   3   0  -4 987.745 483.403  13
  -3   0   4 1104.58 313.225  20
  -3   0   4 1406.18 1508.25   1
   3   0  -4 1437.88 195.247  18
   3   0  -4 1804.93 400.472   6
  -3   0   4 1012.80 322.293  17
  -3   0   4 1378.31 1260.35  24
  -3   0   3 785.618 769.600  23
   3   0  -3 670.396 286.036  13
  -3   0   3 744.680 475.984   1
  -3   0   3 739.282 630.113  14
  -3   0   3 381.000 918.552  24
  -3   0   2 94257.3 5285.88   1
   3   0  -2 84709.6 2855.66   3
  -3   0   2 104294. 5257.19  14
  -3   0   2 102240. 7682.02  24
  -3   0   2 103207. 6688.88  23
   3   0  -1 138062. 4765.74  22
   3   0  -1 127640. 4135.79   3
  -3   0   1 130588. 4725.26  15
  -3   0   1 138315. 5879.81  23
  -3   0   0-59.2656 304.390  23
   3   0   0-145.091 345.441  22
   3   0   0 227.160 297.279   3
  -3   0   0-120.852 497.217  15
   3   0   1 5997.49 888.412  22
   3   0   1 5976.83 1638.52   3
  -3   0  -1 4799.07 1061.57  15
  -3   0  -1 5937.84 1120.67  23
   3   0   2 13836.6 694.005  12
   3   0   2 11086.0 2141.76   3
   3   0   2 12018.9 634.774   5
   3   0   2 11399.5 708.848  16
  -3   0  -2 12008.3 1845.82  15
   3   0   3 220.435 187.153  12
   3   0   3-38.3428 282.413  16
   3   0   3 483.650 393.057   3
  -3   0  -3-108.726 727.638  15
   3   0   3 107.807 164.759   5
   3   0   4 14717.4 751.601  12
   3   0   4 16013.4 2260.23   3
   3   0   4 14041.1 861.565  16
   3   0   5 137.830 217.724  12
   3   0   5 6.92440 272.281  19
  -3   0  -5 235.292 281.150  18
  -3   0  -5 171.605 247.267  10
   3   0   6 10595.5 618.082  12
   3   0   6 9760.30 753.075  19
  -3   0  -6 10222.8 680.158  18
  -3   0  -6 11496.8 811.487  10
   3   0   7 22213.8 884.334  19
  -3   0  -7 21499.1 726.656  18
   3   1  -9 67.8500 119.049   5
  -3  -1   9 53.5555 231.757  20
   3   1  -9 359.714 270.218  10
  -3  -1   8 3488.05 512.342  20
   3   1  -8 3207.15 356.186  18
   3   1  -8 3111.19 516.119  10
  -3  -1   8 3346.67 449.776  17
  -3  -1   7-89.1682 320.446  20
   3   1  -7-59.4430 215.021  18
  -3  -1   7-68.2814 306.837  17
   3   1  -7 260.139 415.744  10
  -3  -1   6 32025.3 1576.62  20
   3   1  -6 33504.8 1254.11  18
   3   1  -6 28940.3 1589.36  10
  -3  -1   6 30062.5 1499.93  17
  -3  -1   6 29494.0 4914.98  24
  -3  -1   6 23310.3 6925.91  14
   3   1  -6 20928.0 4820.22  13
  -3  -1   6 18490.2 4844.46   1
  -3  -1   5 94396.9 2755.09  20
   3   1  -5 103994. 1634.01  18
   3   1  -5 100091. 2063.01  10
  -3  -1   5 112688. 2880.64  17
  -3  -1   5 85356.0 8556.66  14
  -3  -1   5 93037.8 8367.71  24
   3   1  -5 105676. 6919.12  13
  -3  -1   5 115644. 7705.56  23
  -3  -1   5 103837. 10029.6   1
   3   1  -4 16983.7 590.495  18
   3   1  -4 15825.6 733.614  10
  -3  -1   4 10094.3 959.297  17
  -3  -1   4 11743.7 1734.69  15
   3   1  -4 15029.1 620.038   5
  -3  -1   4 13559.5 2603.41  14
  -3  -1   4 19270.0 3694.09  24
   3   1  -4 15055.7 1950.72  13
  -3  -1   4 10823.7 2898.58  23
  -3  -1   3 39662.7 2985.66  15
  -3  -1   3 46213.2 3839.79  14
  -3  -1   3 43369.4 3415.84  24
   3   1  -3 37928.7 2777.11  13
  -3  -1   3 43024.3 5482.49  23
   3   1  -2 105516. 3955.03   3
  -3  -1   2 112771. 5309.28  15
  -3  -1   2 102730. 5965.03  23
  -3  -1   1 1000.81 633.011  23
   3   1  -1 1443.04 592.743  22
   3   1  -1 789.348 431.394   3
  -3  -1   1 1019.70 710.634  15
   3   1   0 6956.62 1931.53   3
   3   1   0 6520.40 437.931  16
  -3  -1   0 5864.23 1299.96  15
  -3  -1   0 6317.60 1343.09  23
  -3  -1  -1 6251.18 527.464   8
   3   1   1 4327.95 397.248   5
   3   1   1 4997.36 450.033  16
  -3  -1  -1 4805.61 1344.25  15
   3   1   1 3892.82 1544.28   3
  -3  -1  -2 5813.73 544.763   8
   3   1   2 3846.72 543.196   5
   3   1   2 5238.04 547.374  16
  -3  -1  -2 6820.75 1929.74  15
   3   1   2 5494.99 1404.30   3
  -3  -1  -3 32085.1 5587.17  13
   3   1   3 43202.1 1306.88  12
   3   1   3 44851.2 3939.64   3
   3   1   3 54400.5 2238.60  16
  -3  -1  -3 38006.3 8103.75  15
   3   1   4 11233.5 698.619  12
  -3  -1  -4 8516.23 884.580  18
   3   1   5 99.0690 259.042  12
   3   1   5 431.012 346.009  19
  -3  -1  -5 286.900 237.991  18
  -3  -1  -5 204.841 265.603  10
   3   1   6 10470.2 530.908  12
   3   1   6 10095.2 628.585  19
  -3  -1  -6 8985.85 487.984  18
  -3  -1  -6 9848.83 647.188  10
  -3  -2   9 2706.44 344.694  20
   3   2  -9 2788.26 440.458  10
  -3  -2   9 2504.31 343.264  17
  -3  -2   8 3752.12 491.105  20
  -3  -2   8 3179.72 456.190  17
   3   2  -8 2617.15 559.165  10
  -3  -2   7 3023.42 484.439  20
  -3  -2   7 3507.01 552.782  17
   3   2  -7 3460.95 821.205  10
  -3  -2   6 95265.9 3255.01  20
   3   2  -6 85203.6 2217.17  10
  -3  -2   6 95844.1 2658.89  17
   3   2  -6 94897.9 9429.69  13
  -3  -2   6 93904.0 6748.81  23
   3   2  -5 12171.6 740.621  10
  -3  -2   5 10314.0 1108.04  17
   3   2  -5 9655.72 1079.22  16
  -3  -2   5 10930.9 2424.67  14
   3   2  -5 12721.2 2116.49  13
  -3  -2   5 10287.3 2621.08  23
  -3  -2   4 6518.85 2882.29  23
   3   2  -4 7395.27 558.879  10
  -3  -2   4 7613.07 726.797  17
   3   2  -4 6947.26 533.819  16
   3   2  -4 6996.27 1419.04  13
   3   2  -3 11279.1 654.740  10
  -3  -2   3 11565.1 679.362  17
   3   2  -3 10610.5 570.117  16
  -3  -2   3 9252.45 1594.82  15
  -3  -2   3 10973.6 2276.33  23
  -3  -2   2-72.4310 753.840  23
   3   2  -2 101.511 162.505  10
   3   2  -2 92.6303 119.720  16
  -3  -2   2 1.21677 387.710  15
  -3  -2   1 78931.4 1941.14   8
   3   2  -1 73533.4 1809.60  10
   3   2  -1 76657.2 1577.54  16
  -3  -2   1 72536.4 4895.96  15
   3   2  -1 77315.1 2088.01  26
  -3  -2   0 32314.6 1298.18   8
   3   2   0 30086.2 1089.95  16
  -3  -2   0 27366.0 3488.15  15
   3   2   0 28214.9 1497.82  26
  -3  -2   0 25733.2 2648.69  23
  -3  -2  -1 416.474 293.949   8
   3   2   1 158.168 182.112  16
   3   2   1 855.029 510.713   3
  -3  -2  -1 31.7181 907.900  15
   3   2   1 230.132 181.613   5
   3   2   2 33290.8 1429.39  16
  -3  -2  -2 38345.8 1660.34   8
   3   2   3 22767.6 1035.46  12
  -3  -2  -3 19377.2 1114.17  18
   3   2   4 902.692 340.307  12
  -3  -2  -4 716.691 265.513  18
   3   2   5 900.669 244.771  12
   3   2   5 826.963 286.693  19
  -3  -2  -5 514.224 177.669  18
  -3  -2  -5 918.057 277.075  10
  -3  -3   9 5337.01 418.048  20
   3   3  -9 5579.33 584.111  10
  -3  -3   9 5716.69 429.151  17
  -3  -3   8 538.899 285.402  20
  -3  -3   8 671.795 301.247  17
   3   3  -8 912.549 561.313  10
  -3  -3   7 1569.79 457.741  17
   3   3  -7 1767.06 551.536  10
  -3  -3   6 1007.73 506.998  17
   3   3  -6 1055.94 347.426  10
   3   3  -6 859.161 399.794  16
   3   3  -5 6938.43 648.899  10
  -3  -3   5 8043.33 768.966  17
   3   3  -5 8188.43 729.375  16
  -3  -3   4 3800.00 895.917   8
   3   3  -4 5224.74 548.753  10
  -3  -3   4 4844.76 471.672  17
   3   3  -4 4887.68 461.596  16
  -3  -3   4 4472.45 1855.10  23
  -3  -3   3 1083.76 396.188   8
   3   3  -3 1271.78 330.181  10
   3   3  -3 1164.02 243.725  16
  -3  -3   3 551.241 558.015  23
  -3  -3   2 90413.7 2276.46   8
   3   3  -2 90709.8 2285.13  10
   3   3  -2 93959.8 1879.16  16
   3   3  -2 93411.9 2390.07  26
   3   3  -2 90706.0 7891.49   2
  -3  -3   2 88929.8 5777.56  23
  -3  -3   1 59650.6 1930.67   8
   3   3  -1 49593.9 8240.86   3
   3   3  -1 58319.4 1560.47  16
  -3  -3   1 49348.9 6002.32  15
   3   3  -1 52860.1 1960.16  26
  -3  -3   1 48690.9 4280.73  23
  -3  -3   0 3385.19 588.309   8
   3   3   0 2990.69 406.272  16
   3   3   1 7554.26 653.956  16
  -3  -3  -1 7556.92 932.352   8
   3   3   2 6288.82 767.435  16
  -3  -3  -2 9024.18 1010.89   8
   3   3   3 3623.63 455.559  12
   3   3   4 6325.60 440.763  12
   3   3   4 5604.73 489.584  19
  -3  -3  -4 5273.40 461.091  10
  -3  -4   9 1710.61 266.366  17
   3   4  -9 1738.54 353.232  10
  -3  -4   8 682.154 287.050  17
   3   4  -8 929.197 702.079  10
  -3  -4   7 908.071 481.211  17
   3   4  -7 1985.04 554.062  10
   3   4  -7 1278.44 292.290  16
   3   4  -6 10720.6 841.739  10
  -3  -4   6 10701.1 994.271  17
   3   4  -6 10984.3 1315.53  16
   3   4  -5 17386.4 1038.55  10
  -3  -4   5 15325.3 838.080  17
   3   4  -5 17002.2 952.059  16
   3   4  -4 5290.69 609.898  10
  -3  -4   4 4842.36 419.857  17
   3   4  -4 5115.05 507.713  16
  -3  -4   3 294.869 419.290   8
   3   4  -3 661.298 326.640  10
   3   4  -3 629.494 258.539  16
   3   4  -3 142.093 237.478  26
   3   4  -2 11362.1 737.768  16
   3   4  -2 10224.3 935.180  26
  -3  -4   2 9707.47 967.057   8
  -3  -4   1 528.274 640.943   8
   3   4  -1 471.094 243.539  16
  -3  -4   0 3983.26 1176.62   8
   3   4   0 2532.70 386.521  16
  -3  -4  -1 1529.50 464.456   8
   3   4   1 936.605 349.329  16
   3   4   2 6115.97 498.009  12
  -3  -4  -2 7323.37 468.354   8
  -3  -5   8 4286.26 423.792  17
   3   5  -8 3761.59 698.688  10
  -3  -5   7 242.743 519.872  17
   3   5  -7 968.078 280.968  16
   3   5  -6 9929.55 834.139  10
  -3  -5   6 9126.99 628.727  17
   3   5  -6 11522.1 1010.85  16
   3   5  -5 1377.12 478.171  10
   3   5  -5 1132.10 314.321  16
  -3  -5   4 590.609 848.958   8
   3   5  -4 1532.47 318.585  16
  -3  -5   3 283.207 765.833   8
   3   5  -3 477.584 254.269  16
  -3  -5   2 3639.55 693.630   8
   3   5  -2 3489.93 425.762  16
   3   5  -1 6101.60 517.934  16
  -3  -5   1 7882.38 708.069   8
   3   5   0 3030.42 352.904  12
  -3  -5   0 3732.17 384.499   8
   4  -8   1 2652.95 362.061   7
   4  -8   1 2350.84 389.952  25
   4  -8   2 851.554 376.919  25
   4  -8   2 607.991 202.377   7
   4  -8   3 6711.79 458.313   7
   4  -8   3 7241.08 1004.59  25
   4  -8   3 6992.82 647.552   9
   4  -8   4 2704.95 442.202  12
  -4   8  -4 2706.44 376.580  26
   4  -8   5 13165.4 848.987  12
  -4   8  -5 14278.0 777.246  26
   4  -8   6 17312.2 1375.54  12
  -4   8  -6 14553.6 939.826  26
  -4   7   2 213.115 370.022  20
   4  -7  -2 1295.52 207.802   6
   4  -7  -1 187.190 308.884   7
   4  -7  -1 485.314 195.059   6
   4  -7   0 1578.15 346.973   7
   4  -7   0 795.650 244.562   6
   4  -7   0 1017.02 368.188  25
   4  -7   1 12235.0 683.026   7
   4  -7   1 12703.4 953.890   9
   4  -7   1 12761.1 1039.49  25
   4  -7   2 14044.0 848.792  12
   4  -7   2 15533.2 958.025   9
   4  -7   3 2079.14 426.344  12
   4  -7   3 1881.16 388.167   9
  -4   7  -3 1247.70 289.165  26
   4  -7   4 1183.37 395.154  12
   4  -7   4 864.178 479.993  25
   4  -7   5 11428.8 922.456  12
   4  -7   5 8794.30 835.961  25
   4  -7   6 5347.64 553.183  25
  -4   7  -6 6084.57 802.446  16
   4  -7   7 3182.31 490.059  12
  -4   7  -7 1073.81 392.643  16
  -4   7  -8 458.032 200.552  16
   4  -6  -4 60.5094 134.833   6
  -4   6   3 1.32623 445.077  20
   4  -6  -3 199.730 180.950   6
   4  -6  -2 22641.4 1333.36   7
   4  -6  -2 24483.7 874.102   6
   4  -6  -1 598.208 279.477   7
   4  -6  -1 199.730 198.275   6
   4  -6   0 5967.32 492.367   7
   4  -6   0 5708.67 677.781  25
   4  -6   1 6549.57 562.741  12
   4  -6   1 7690.86 677.249   9
   4  -6   1 8754.65 977.586  25
   4  -6   2 19983.2 949.141  12
   4  -6   2 20535.1 1041.42   9
   4  -6   2 20855.6 2539.32  25
   4  -6   3 1287.34 345.367  12
   4  -6   3 1148.37 761.049   4
   4  -6   3 1019.29 482.968  25
   4  -6   4 573.139 323.545  12
   4  -6   4 206.791 367.247   4
   4  -6   4 537.734 353.132  25
   4  -6   5 3588.14 613.863  12
   4  -6   5 3023.61 366.834  11
   4  -6   5 2378.11 439.933  25
   4  -6   6 5354.24 784.424  12
   4  -6   6 7071.39 612.026  11
   4  -6   7 11766.5 769.833  12
   4  -6   7 11047.5 1271.57  11
   4  -6   8 860.846 262.174  12
   4  -6   8 943.609 248.680  11
  -4   5   5 943.670 335.445  20
   4  -5  -5 3564.20 299.267   6
  -4   5   4 444.152 591.671  20
   4  -5  -4 5613.12 434.099   6
   4  -5  -3 22425.7 1578.13   7
   4  -5  -3 24958.5 907.541   6
   4  -5  -2 29481.6 1258.75   7
   4  -5  -2 25627.9 989.546   6
   4  -5  -1 349.016 193.423   7
   4  -5  -1 128.619 221.871   6
   4  -5  -1 392.235 263.380  25
  -4   5   1 480.340 1185.38  24
   4  -5   0 2192.64 1112.35  22
   4  -5   0 1265.20 382.395   4
   4  -5   0 1089.23 462.810   6
   4  -5   0 1264.66 339.453   9
   4  -5   0 1701.34 468.993  25
  -4   5   0 1868.01 1159.28  24
   4  -5   1 4529.69 1673.05  22
   4  -5   1 5222.58 461.301  12
   4  -5   1 4783.38 597.814   4
   4  -5   1 5751.09 542.427   9
   4  -5   1 6349.75 1000.31  25
  -4   5  -1 5501.69 1997.17  24
   4  -5   2 13711.2 721.251  12
   4  -5   2 12666.6 1025.09   4
  -4   5  -2 11702.2 2308.42   2
   4  -5   2 8987.09 1352.77  25
  -4   5  -2 16058.1 3464.94  24
   4  -5   3 10248.3 640.686  12
   4  -5   3 11053.9 602.278  11
  -4   5  -3 8332.83 1956.18   2
   4  -5   3 8803.30 848.454  25
   4  -5   4 3040.79 445.824  12
   4  -5   4 2495.90 490.601   4
   4  -5   4 3373.88 365.999  11
   4  -5   4 2806.19 481.539  25
   4  -5   5 14486.9 1309.58  12
   4  -5   5 12205.6 683.684  11
   4  -5   6 15417.9 987.935  12
   4  -5   6 19237.7 1142.09  11
   4  -5   7 5229.13 534.289  12
   4  -5   7 4468.47 616.027  11
   4  -5   8-72.9915 206.476  12
   4  -5   8 173.906 174.189  11
  -4   4   6 8811.38 755.197  20
   4  -4  -6 14351.0 577.606  18
   4  -4  -6 15724.1 597.639   6
   4  -4  -6 10235.5 490.810   5
   4  -4  -5 266.212 156.879   5
  -4   4   5-160.256 398.911  20
   4  -4  -5 580.091 242.990  18
   4  -4  -5 369.249 223.292   6
  -4   4   4-146.723 618.713  20
   4  -4  -4 843.480 604.618  18
   4  -4  -4 957.842 265.148   6
   4  -4  -3 10360.0 912.053   7
   4  -4  -3 11169.1 718.604  18
   4  -4  -3 10787.0 643.602   6
   4  -4  -3 9888.23 685.344   5
   4  -4  -2 213.145 119.404   5
   4  -4  -2 191.738 231.766   4
   4  -4  -2 262.164 222.711   7
  -4   4   2-989.538 2696.15   1
   4  -4  -2 452.984 154.701  18
   4  -4  -2 149.949 193.468   6
  -4   4   2 156.211 706.714  24
   4  -4  -1 26271.4 3636.20  22
   4  -4  -1 22924.3 1039.27   4
   4  -4  -1 25259.7 888.345   7
   4  -4  -1 25549.0 1713.53   6
   4  -4  -1 29468.2 1382.67  25
  -4   4   1 26535.5 3818.74  24
   4  -4   0 287.934 531.140  22
   4  -4   0 440.132 233.116   4
   4  -4   0 450.163 341.377  25
   4  -4   1 40357.5 3783.92  22
   4  -4   1 41593.7 1056.77  12
   4  -4   1 38545.2 3319.71  25
  -4   4  -1 43344.3 4591.89  24
   4  -4   2 113362. 1858.53  12
   4  -4   2 111377. 1649.32  11
   4  -4   2 114053. 2938.33  25
   4  -4   3 11779.1 661.174  12
   4  -4   3 12827.4 598.797  11
  -4   4  -3 14235.4 2950.94   2
   4  -4   3 12613.3 868.296  25
  -4   4  -4 4232.09 1660.55  13
   4  -4   4 5541.40 660.918  12
   4  -4   4 4725.20 568.421  25
   4  -4   4 7112.05 2417.69   3
   4  -4   4 5154.28 414.274  11
  -4   4  -5 828.104 826.410  13
   4  -4   5 884.945 375.782  12
   4  -4   5 2206.71 616.477  19
   4  -4   5 1602.38 314.991  11
   4  -4   6 3492.25 513.984  19
   4  -4   6 2899.87 864.319  11
   4  -4   7 2496.96 395.966  12
   4  -4   7 2353.04 406.586  19
   4  -4   7 2135.72 344.453  11
   4  -4   8 125.604 180.240  12
   4  -4   8 113.380 144.870  11
  -4   3   7 8219.90 734.692  20
   4  -3  -7 7334.26 424.359   6
   4  -3  -7 7385.08 438.352  18
  -4   3   6 427.625 480.333  20
   4  -3  -6 446.367 220.776  18
   4  -3  -6 589.821 239.382   6
  -4   3   6 181.170 288.027  17
  -4   3   5 1630.70 560.738  20
   4  -3  -5 2526.45 356.428   6
   4  -3  -5 2422.64 475.065  18
  -4   3   4-67.3376 520.087  20
   4  -3  -4 186.750 278.803  18
   4  -3  -4 281.888 217.469   6
  -4   3   4 1497.49 1460.48   1
   4  -3  -3 13301.7 3150.45  22
   4  -3  -3 9551.47 778.555   7
   4  -3  -3 10060.7 569.402  18
   4  -3  -3 8837.08 620.898   6
  -4   3   3 13758.6 4023.52   1
  -4   3   3 9209.75 3267.99  24
  -4   3   3 10915.8 2628.35  23
   4  -3  -2 106925. 6941.62  22
   4  -3  -2 97483.5 1780.32   4
   4  -3  -2 95801.8 1813.66   7
   4  -3  -2 93412.1 1464.75  18
   4  -3  -2 111146. 3376.05   6
  -4   3   2 105541. 10215.8   1
   4  -3  -2 97317.0 1561.58   5
  -4   3   2 94422.1 7315.51  24
  -4   3   2 102783. 7910.92  23
  -4   3   1 5929.31 2171.28  23
   4  -3  -1 9878.68 1781.03  22
   4  -3  -1 9388.78 435.512  18
   4  -3  -1 8563.28 489.137   6
   4  -3  -1 9482.15 453.929   5
   4  -3  -1 10408.3 850.628  25
  -4   3   1 9572.67 2079.11  24
  -4   3   0 3074.46 2194.16  23
   4  -3   0 2578.29 847.861  22
   4  -3   0 2974.95 592.781  25
  -4   3   0 3170.03 1278.80  24
   4  -3   1 55238.3 3808.19  22
   4  -3   1 51477.8 3267.86   3
   4  -3   1 57109.7 2236.71  25
  -4   3  -1 55474.0 4886.81  23
  -4   3  -2 18231.0 3789.58  13
   4  -3   2 13975.8 2060.77  22
   4  -3   2 13981.4 614.897  12
   4  -3   2 14854.1 541.282  11
   4  -3   2 12758.8 1750.60   3
   4  -3   2 15113.5 591.715   5
  -4   3  -2 17827.4 1963.72  15
   4  -3   2 14296.9 856.076  25
  -4   3  -2 19673.2 2627.94  23
   4  -3   3 372.703 515.907  22
  -4   3  -3 1554.62 1338.92  13
   4  -3   3 873.391 276.458  12
   4  -3   3 822.364 170.629  11
   4  -3   3 646.091 564.747   3
   4  -3   3 682.773 179.732   5
  -4   3  -4 4487.26 2374.48  13
   4  -3   4 3583.20 566.021  12
   4  -3   4 4870.27 401.326  11
   4  -3   4 3382.35 494.671   5
   4  -3   4 5090.03 1829.76   3
  -4   3  -5 26.9968 1130.65  13
   4  -3   5 1627.08 371.029  12
   4  -3   5 1544.75 396.890  19
   4  -3   5 1814.32 428.009  11
   4  -3   5 1452.84 612.249   3
   4  -3   6 29436.9 1092.34  12
   4  -3   6 29828.3 1194.45  19
   4  -3   7 12256.6 648.887  12
   4  -3   7 12482.7 720.195  19
   4  -3   8 369.193 181.626  12
   4  -3   8 289.318 196.351  19
   4  -2  -8 873.760 169.917   5
   4  -2  -8 971.018 181.977  18
  -4   2   7 316.126 445.249  20
   4  -2  -7 280.749 206.371   6
   4  -2  -7 123.947 219.182  18
  -4   2   7-515.178 376.181  17
  -4   2   6 38918.8 1625.64  20
   4  -2  -6 37067.3 1315.23  18
   4  -2  -6 33920.9 1120.06   6
  -4   2   5 13264.7 1024.78  20
   4  -2  -5 15988.5 787.718   6
  -4   2   4 3527.43 1353.70  23
   4  -2  -4 3706.56 1492.41  22
  -4   2   4 2565.52 581.857  20
   4  -2  -4 3978.28 428.423  18
   4  -2  -4 3478.12 417.103   6
  -4   2   4 4191.74 1979.81   1
  -4   2   4 2141.17 1396.94  24
   4  -2  -3 67927.3 6779.72  22
   4  -2  -3 52609.6 1802.07   7
   4  -2  -3 54870.6 1233.24   5
  -4   2   3 41195.6 7132.99   1
   4  -2  -3 53655.8 1154.37  18
   4  -2  -3 68843.5 2534.46   6
  -4   2   3 57219.3 9100.74  24
  -4   2   3 63087.9 5624.72  23
   4  -2  -2 52148.7 4285.58  22
   4  -2  -2 50275.9 1241.70   7
  -4   2   2 56306.8 6876.11   1
   4  -2  -2 46959.7 994.387  18
   4  -2  -2 44236.2 1089.06   6
   4  -2  -2 49383.8 1048.70   5
  -4   2   2 38949.8 4882.63  24
  -4   2   2 38332.9 4427.85  23
   4  -2  -1 1781.78 633.896  22
   4  -2  -1 2500.49 231.937  18
   4  -2  -1 1551.28 561.516   3
   4  -2  -1 2663.68 233.958   5
  -4   2   1 1745.94 522.196  24
   4  -2   0 6107.20 1143.36  22
   4  -2   0 6018.79 1079.11   3
  -4   2   0 7869.79 1722.29  24
  -4   2   0 5965.98 1497.91  23
  -4   2  -1 1740.14 753.315  23
   4  -2   1 1049.87 528.689  22
   4  -2   1 782.954 406.392   3
   4  -2   1 1121.75 159.769   5
  -4   2  -1 1547.95 622.205  15
   4  -2   2 18784.1 2299.30  22
   4  -2   2 21202.7 938.626  12
   4  -2   2 19460.2 2446.01   3
   4  -2   2 15439.6 839.247  16
   4  -2   2 18512.5 687.506   5
  -4   2  -3 57258.3 7180.98  13
   4  -2   3 55050.9 4113.88  22
   4  -2   3 47644.9 1843.85  12
   4  -2   3 52411.5 1411.65   5
  -4   2  -3 63851.4 4161.77  15
   4  -2   4 67.1173 234.576  12
   4  -2   4 120.552 223.351  19
   4  -2   4-138.736 432.862   3
   4  -2   4 86.5852 154.855   5
   4  -2   5 16367.4 815.347  12
   4  -2   5 17100.0 882.142  19
   4  -2   6 21904.0 874.725  12
   4  -2   6 20929.4 944.665  19
   4  -2   7 1784.24 298.066  12
   4  -2   7 1945.17 362.988  19
  -4   2  -7 1716.88 241.204  18
   4  -2   8 361.790 195.441  19
   4  -1  -8-68.3938 131.167   5
  -4   1   8-138.010 299.429  20
   4  -1  -8 188.397 188.043  18
  -4   1   8 63.3138 246.099  17
  -4   1   7 33462.8 1491.26  20
   4  -1  -7 30717.1 1107.53  18
   4  -1  -6 56775.3 1505.41   6
  -4   1   6 55891.3 1969.90  17
  -4   1   5-225.571 942.874  23
   4  -1  -5-1061.89 832.655  22
  -4   1   5 397.178 332.165  20
  -4   1   5-1385.65 1526.43   1
   4  -1  -5 167.130 252.664  18
   4  -1  -5 288.322 224.576   6
  -4   1   5 87.9080 293.895  17
  -4   1   5 132.044 931.883  24
   4  -1  -4 15318.6 5522.49  22
  -4   1   4 13141.2 928.706  20
  -4   1   4 18892.1 6439.54   1
   4  -1  -4 13462.1 637.384  18
   4  -1  -4 16143.1 1268.92   6
   4  -1  -4 13094.2 656.737   5
  -4   1   4 12567.7 2959.38  24
  -4   1   4 15647.0 2955.06  23
   4  -1  -3 18870.9 3143.33  22
  -4   1   3 17254.1 3216.23   1
  -4   1   3 17307.6 1022.42  20
   4  -1  -3 19407.5 685.052  18
   4  -1  -3 18714.0 780.717   6
   4  -1  -3 18743.6 700.100   5
  -4   1   3 14744.4 3173.70  24
  -4   1   3 17075.5 3180.01  23
   4  -1  -2 20894.7 2554.92  22
   4  -1  -2 18323.5 653.402   6
   4  -1  -2 20583.5 670.889  18
   4  -1  -2 21139.0 689.759   5
  -4   1   2 15430.6 3155.90  24
  -4   1   2 23265.8 4657.27  23
   4  -1  -1 27794.4 2531.48  22
   4  -1  -1 31349.7 2292.70   3
   4  -1  -1 32724.2 827.135   5
  -4   1   1 34848.0 3087.25  15
  -4   1   1 30934.4 3449.12  23
   4  -1   0 11810.9 1583.42  22
   4  -1   0 12063.9 1565.64   3
   4  -1   0 12782.1 510.259   5
  -4   1   0 14487.8 1980.78  15
  -4   1   0 12737.8 1949.24  23
   4  -1   1 41742.5 3015.44  22
   4  -1   1 48111.8 1534.08  12
   4  -1   1 41650.7 3354.69   3
   4  -1   1 40827.0 1013.32   5
  -4   1  -1 44350.6 3551.90  15
  -4   1  -1 45550.0 3398.74  23
   4  -1   2 92183.3 2888.13  16
   4  -1   2 78640.8 1645.52   5
  -4   1  -2 89898.2 5247.83  15
   4  -1   3 8449.97 680.050  12
   4  -1   3 6812.96 588.024  19
   4  -1   3 7138.67 1869.08   3
   4  -1   3 6869.22 607.802   5
   4  -1   3 6271.58 651.044  16
  -4   1  -3 8116.78 1829.36  15
   4  -1   4 235.763 226.334  12
   4  -1   4 415.566 220.293  19
   4  -1   4 243.103 545.548   3
   4  -1   4 289.721 326.048   5
   4  -1   5 1933.11 340.750  12
   4  -1   5 1655.76 343.248  19
  -4   1  -5 2114.73 575.238  18
   4  -1   6 939.524 266.720  12
   4  -1   6 770.018 324.994  19
  -4   1  -6 857.927 278.082  18
   4  -1   7 6683.45 435.798  12
  -4   1  -7 5899.09 368.333  18
  -4   0   9 667.987 200.946  20
   4   0  -8 446.619 195.944   5
  -4   0   8 809.436 331.275  20
   4   0  -8 547.332 210.994  18
  -4   0   8 365.938 304.983  17
   4   0  -8 524.799 277.373  10
  -4   0   7 7568.57 762.448  20
   4   0  -7 6553.57 597.033  18
   4   0  -7 5806.85 708.179  10
  -4   0   7 6231.29 741.764  17
   4   0  -7 4682.74 590.107   5
   4   0  -6 394.767 296.884   5
  -4   0   6 298.739 350.414  20
   4   0  -6 781.291 430.314  18
  -4   0   6 458.083 389.336  17
   4   0  -6 878.208 501.082  10
  -4   0   5 9627.53 2213.29  23
   4   0  -5 4245.95 2004.96  22
  -4   0   5 7067.13 789.146  20
   4   0  -5 7063.20 504.535  18
   4   0  -5 6687.05 575.436  10
  -4   0   5 7238.87 854.082  17
   4   0  -5 6155.10 503.927   5
  -4   0   5 5404.58 1881.91  24
  -4   0   4 2557.24 1293.92  23
   4   0  -4 800.784 1192.87  22
   4   0  -4 2618.70 294.887  18
  -4   0   4 2075.17 523.490  17
   4   0  -4 2045.92 273.367   5
  -4   0   4 2960.59 1585.41   1
  -4   0   3 7809.47 3312.09  23
   4   0  -3 5870.27 1523.12  22
   4   0  -3 6895.10 417.370  18
  -4   0   3 6034.84 964.822  17
  -4   0   3 6004.32 1349.44  15
   4   0  -3 6966.08 442.349   5
   4   0  -2 290529. 9154.83  22
  -4   0   2 302709. 4091.33  17
   4   0  -2 292617. 2599.85   5
  -4   0   2 284885. 11475.6  23
   4   0  -1 42888.2 3213.88  22
   4   0  -1 40793.5 2920.81   3
   4   0  -1 38061.3 1168.34  16
   4   0  -1 39466.0 948.000   5
  -4   0   1 47820.9 3934.29  15
  -4   0   1 40798.0 3851.10  23
   4   0   0 9449.28 1431.36  22
   4   0   0 10834.1 813.980  12
   4   0   0 8137.51 1471.72   3
   4   0   0 8136.46 559.258  16
   4   0   0 9012.84 508.269   5
  -4   0   0 8836.89 1664.46  15
  -4   0   0 11030.4 1965.50  23
   4   0   1 22958.8 1172.32  12
   4   0   1 35720.7 4657.98   3
   4   0   1 26238.5 1137.23  16
   4   0   1 31405.2 1106.80   5
  -4   0  -1 30433.4 3097.26  15
  -4   0  -2 6207.52 533.405   8
   4   0   2 5560.27 533.583  12
   4   0   2 5298.39 539.702   5
   4   0   2 4482.15 650.752  16
   4   0   2 4853.41 1704.87   3
  -4   0  -2 5625.84 1551.44  15
   4   0   3 2912.66 418.369  12
   4   0   3 2023.05 508.421   5
   4   0   3 2024.79 508.624  16
   4   0   3 3117.98 1267.67   3
   4   0   4 4423.44 467.828  12
   4   0   4 3880.71 488.552  19
   4   0   5 1104.62 331.399  12
   4   0   5 665.335 320.614  19
  -4   0  -5 821.935 328.958  18
   4   0   6 13641.8 629.079  12
   4   0   6 15146.3 736.608  19
  -4   0  -6 13102.8 599.078  18
  -4  -1   9 169.687 164.077  20
  -4  -1   9 54.5518 172.882  17
   4   1  -9 142.667 186.286  10
  -4  -1   8 2838.88 403.346  20
  -4  -1   8 2878.99 454.389  17
   4   1  -8 1993.45 424.097  10
   4   1  -8 1956.01 297.055   5
  -4  -1   7 5610.32 616.432  20
   4   1  -7 4859.45 560.425  18
   4   1  -7 4117.33 939.728  10
   4   1  -7 4210.51 598.000   5
  -4  -1   6 11672.4 932.850  20
   4   1  -6 15016.6 807.831  18
   4   1  -6 13950.9 957.007  10
   4   1  -6 12846.2 775.024   5
  -4  -1   5 9668.55 2821.84  23
   4   1  -5 11473.0 576.307  18
   4   1  -5 10538.2 701.263  10
  -4  -1   5 10341.5 1095.91  17
   4   1  -5 10556.9 595.937   5
  -4  -1   4 1357.12 2200.98  23
   4   1  -4-1048.33 945.861  22
   4   1  -4 201.859 110.815   5
  -4  -1   4-120.072 604.840  17
   4   1  -4 252.308 164.168  10
  -4  -1   4-727.440 821.481  15
   4   1  -3 54732.9 4340.66  22
   4   1  -3 61365.8 1553.62  10
  -4  -1   3 68571.2 1962.33  17
   4   1  -3 62122.3 1674.44  16
   4   1  -3 63991.6 1257.09   5
  -4  -1   3 63340.2 4784.47  15
  -4  -1   3 68672.8 6867.39  23
   4   1  -2 11203.9 1790.30  22
   4   1  -2 14940.8 774.148  10
   4   1  -2 15672.6 776.992  16
   4   1  -2 15110.1 610.266   5
  -4  -1   2 16476.1 2550.28  15
  -4  -1   2 14061.5 2551.41  23
  -4  -1   1 1963.49 848.196  23
   4   1  -1 2398.26 330.945  16
   4   1  -1 2340.67 269.626   5
   4   1  -1 1992.78 682.795   3
  -4  -1   1 1744.78 826.590  15
  -4  -1   0 4608.47 565.930   8
   4   1   0 3552.33 539.092  12
   4   1   0 5150.73 494.931  16
   4   1   0 5358.26 461.080   5
   4   1   0 3815.63 1449.58   3
  -4  -1   0 3069.28 1172.06  15
  -4  -1  -1 1496.06 369.499   8
   4   1   1 1294.32 345.408  12
   4   1   1 1282.23 290.942   5
   4   1   1 1409.53 339.874  16
   4   1   1 3064.98 1702.75   3
  -4  -1  -1 2074.27 1079.32  15
   4   1   2 48324.9 1460.79  12
   4   1   2 45415.0 2003.21  16
   4   1   3 39737.6 1305.83  12
   4   1   3 39759.3 1843.39  16
   4   1   4 493.077 309.383  12
   4   1   4 419.611 342.176  19
  -4  -1  -4 188.413 273.624  18
   4   1   5 4799.12 413.191  12
   4   1   5 4378.68 444.308  19
   4   2  -9 1984.51 334.661  10
  -4  -2   9 1396.30 240.394  17
  -4  -2   8 311.958 298.543  17
   4   2  -8-75.9775 346.287  10
   4   2  -7 13339.4 1304.72  10
  -4  -2   7 14621.8 1002.75  17
   4   2  -6 13272.1 890.265  10
  -4  -2   6 12843.2 1066.35  17
  -4  -2   5-0.57466 541.501  17
   4   2  -5-25.2842 213.982  10
   4   2  -4 8064.02 664.374  10
  -4  -2   4 8363.88 681.913  17
   4   2  -4 8267.42 713.132  16
  -4  -2   3 1207.81 1004.73  23
  -4  -2   3 597.293 321.470   8
   4   2  -3 771.980 263.848  10
   4   2  -3 621.625 207.512  16
  -4  -2   2 6413.10 702.735   8
   4   2  -2 7648.76 681.432  10
   4   2  -2 7515.35 567.817  16
  -4  -2   2 8701.36 1894.81  15
  -4  -2   1 9403.35 858.997   8
   4   2  -1 11087.2 737.048  16
  -4  -2   1 10709.7 2303.38  15
  -4  -2   1 9290.17 1764.02  23
  -4  -2   0 2860.11 528.115   8
   4   2   0 2531.44 415.083  16
  -4  -2  -1 14739.7 975.651   8
   4   2   1 13375.8 785.643  12
   4   2   1 13773.7 974.071  16
   4   2   2 31959.5 1150.53  12
   4   2   2 33177.2 1847.28  16
  -4  -2  -2 28123.7 1593.09   8
  -4  -2  -3 1666.67 342.192  18
   4   2   3 2393.63 420.779  16
   4   2   4 1209.56 245.687  12
   4   2   4 1048.91 293.454  19
  -4  -2  -4 467.577 169.415  18
  -4  -2  -4 1419.07 292.684  10
   4   3  -8 3077.91 592.403  10
  -4  -3   8 4047.07 435.577  17
  -4  -3   7 2663.87 490.697  17
   4   3  -7 2496.02 594.844  10
   4   3  -6 4230.67 583.164  10
  -4  -3   6 5348.32 987.869  17
  -4  -3   5 803.625 299.431  17
   4   3  -5 995.906 341.187  10
   4   3  -5 1232.60 437.927  16
  -4  -3   4 566.535 683.859   8
   4   3  -4 523.820 279.529  10
   4   3  -4 612.455 256.470  16
  -4  -3   3 1635.46 524.106   8
   4   3  -3 2846.22 474.160  10
   4   3  -3 2679.54 377.458  16
  -4  -3   2 20209.1 1263.43   8
   4   3  -2 22563.7 1053.16  16
  -4  -3   1 5122.14 733.393   8
   4   3  -1 4597.31 525.233  16
  -4  -3   0 4787.15 757.676   8
   4   3   0 4220.44 469.555  12
   4   3   0 4643.31 562.583  16
  -4  -3  -1 1562.05 763.197   8
   4   3   1 835.987 286.325  12
   4   3   1 652.592 390.447  16
  -4  -3  -2 37.0116 227.537   8
   4   3   2 328.809 250.350  12
   4   3   2-32.8870 223.818  16
  -4  -4   7 2197.12 470.877  17
   4   4  -7 3015.17 625.802  10
   4   4  -6 30398.8 1313.53  10
  -4  -4   6 33994.0 1164.32  17
   4   4  -5 17794.5 1018.03  10
   4   4  -5 19750.1 1173.62  16
  -4  -4   4 248.076 750.428   8
   4   4  -4 968.411 315.833  16
   4   4  -3 8639.54 645.816  16
  -4  -4   3 9208.67 1111.43   8
  -4  -4   2 1548.82 608.305   8
   4   4  -2 1840.49 372.223  16
  -4  -4   1 289.686 734.019   8
   4   4  -1 103.511 222.551  12
   4   4  -1 150.701 231.917  16
  -4  -4   0 775.694 395.385   8
   4   4   0 416.036 217.895  12
   4   4   0-20.4594 268.015  16
   4   5  -5 68.5169 256.727  16
   4   5  -4 2955.07 360.798  16
   4   5  -3 576.254 205.941  16
   5  -8   1 1841.55 311.353   7
   5  -8   2 2465.86 331.795   7
   5  -8   2 1035.62 376.573  25
   5  -8   3 225.521 165.531   7
   5  -8   3 390.751 629.024  25
   5  -8   4 7595.28 566.849  12
   5  -8   4 4098.06 622.003  25
   5  -8   5 4171.49 510.870  12
  -5   7   2-162.406 372.296  20
   5  -7  -2 165.316 131.050   6
   5  -7  -1 778.579 349.311   7
   5  -7   0 2570.63 401.783   7
   5  -7   1 22424.4 924.633   7
   5  -7   1 22902.6 1364.38  25
   5  -7   2 7234.20 582.071  12
   5  -7   2 8280.72 1296.62  25
   5  -7   3-31.4113 296.852  12
   5  -7   3 177.308 599.487  25
   5  -7   4 3011.53 495.966  12
   5  -7   4 1656.69 483.593  25
   5  -7   5 9260.72 839.920  12
   5  -7   5 6261.54 627.890  25
   5  -7   6 1175.32 547.976  12
   5  -7   7 396.227 256.856  12
   5  -6  -4-63.9868 126.519   6
  -5   6   3 662.015 442.311  20
   5  -6  -3 7207.33 440.411   6
   5  -6  -2 15846.4 1108.80   7
   5  -6  -2 16092.2 744.752   6
   5  -6  -1 3674.49 469.871   7
   5  -6  -1 2835.76 560.236   6
   5  -6   0 8965.12 608.267   7
   5  -6   0 9085.22 876.842  25
   5  -6   1 23447.0 1429.63   4
   5  -6   1 29376.8 1844.16  25
   5  -6   2 7944.41 640.168  12
   5  -6   2 6976.05 917.462   4
   5  -6   3 3350.86 451.278  12
   5  -6   3 2964.98 629.692  25
   5  -6   4 167.829 270.307  12
   5  -6   4 135.463 313.022   4
   5  -6   4-74.6286 274.559  25
   5  -6   5 5713.51 885.352  12
   5  -6   5 1693.17 433.298   4
   5  -6   6 9181.32 792.667  12
   5  -6   7 299.547 263.143  12
  -5   5   5 24.6951 261.184  20
   5  -5  -5-2.08439 149.301   6
  -5   5   4 2353.38 762.516  20
   5  -5  -4 13834.0 626.206   6
   5  -5  -3 25534.3 944.516   6
   5  -5  -2 2986.94 477.811   7
   5  -5  -2 2681.48 438.140   6
   5  -5  -1 191.615 243.262   4
   5  -5  -1 329.498 213.173   7
   5  -5  -1 222.649 303.482   6
   5  -5   0 3234.84 519.260   4
   5  -5   0 3684.19 670.581  25
   5  -5   1 570.263 859.659  22
   5  -5   1-37.8431 301.218   4
   5  -5   1-548.632 699.739  25
  -5   5  -1 787.443 1078.74  24
   5  -5   2 18793.3 3132.91  22
   5  -5   2 22477.1 919.644  12
   5  -5   2 26308.9 1512.83   4
   5  -5   2 17405.2 1446.41  25
  -5   5  -2 29438.4 4597.64  24
   5  -5   3 2684.77 394.800  12
   5  -5   3 3437.46 770.567   4
   5  -5   3 2357.24 476.831  25
   5  -5   4 11478.1 899.803   4
   5  -5   4 11995.9 875.467  12
   5  -5   5 22818.0 1664.84  12
   5  -5   5 25867.2 1102.85  11
   5  -5   6 17440.5 974.204  12
   5  -5   6 6811.34 1258.83  11
   5  -5   7 210.104 228.554  12
   5  -5   7 9.12925 173.540  11
  -5   4   6 2944.45 433.948  20
   5  -4  -6 3571.23 295.116  18
   5  -4  -6 2623.22 251.681   5
   5  -4  -5 2037.22 320.730   6
   5  -4  -5 1915.99 337.371  18
   5  -4  -5 1633.43 307.004   5
  -5   4   4 3181.35 795.678  20
   5  -4  -4 3018.47 684.647  18
   5  -4  -4 2295.00 569.591   5
   5  -4  -3 9356.29 963.983   7
   5  -4  -3 10448.5 673.481  18
   5  -4  -3 9192.53 695.750   6
   5  -4  -3 10094.9 672.514   5
   5  -4  -2 12804.7 3847.34  22
   5  -4  -2 10342.2 740.372   4
   5  -4  -2 11794.0 791.662   7
   5  -4  -2 12518.2 630.894  18
   5  -4  -2 12697.8 1344.90   6
   5  -4  -2 12084.8 639.587   5
  -5   4   1 1947.38 1444.35  23
   5  -4  -1 4036.03 1645.72  22
   5  -4  -1 1979.35 377.314   4
   5  -4  -1 2163.91 310.379   7
   5  -4  -1 2021.72 252.619  18
   5  -4  -1 1768.38 291.433   6
   5  -4  -1 2069.94 244.648   5
  -5   4   1 2017.65 1273.98  24
   5  -4   0 6292.52 389.799   5
  -5   4   0 5304.80 947.687  24
   5  -4   1 55751.6 4723.84  22
  -5   4  -1 56776.1 4012.86  15
  -5   4  -1 62183.2 6138.77  23
   5  -4   2 36793.9 3918.14  22
   5  -4   2 37693.7 1130.71  12
   5  -4   3 105.914 231.794  12
   5  -4   3 412.261 791.021   3
   5  -4   4 3817.31 844.540  12
   5  -4   4 3406.75 371.052  11
   5  -4   5 5911.53 692.511  12
   5  -4   6-21.8310 325.287  12
   5  -4   7 3503.23 361.921  12
  -5   3   7 2442.70 443.448  20
   5  -3  -7 2964.30 273.748  18
   5  -3  -7 1964.40 222.648   5
   5  -3  -6-50.5972 179.030   5
  -5   3   6 77.6680 380.611  20
   5  -3  -6 147.764 226.339  18
   5  -3  -6 102.048 213.272   6
  -5   3   6-69.4072 344.190  17
   5  -3  -5 1570.46 691.109   5
  -5   3   5 1951.87 529.993  20
   5  -3  -5 2483.65 388.588   6
   5  -3  -5 1756.27 684.870  18
   5  -3  -4 222.163 206.607   5
  -5   3   4 146.787 374.981  20
   5  -3  -4 469.396 265.033  18
   5  -3  -4 590.078 311.681   6
   5  -3  -3 44135.5 1937.99   7
   5  -3  -3 49556.3 1292.18  18
   5  -3  -3 46310.0 2426.50   6
   5  -3  -3 50847.7 1363.48   5
   5  -3  -2 91474.9 7093.03  22
   5  -3  -2 77541.4 1856.99   7
   5  -3  -2 74439.5 1417.78  18
   5  -3  -2 74466.1 1679.30   6
   5  -3  -2 76176.7 1506.26   5
  -5   3   2 79953.8 9635.75  24
  -5   3   2 89073.3 8605.83  23
   5  -3  -1 83.2419 106.987   5
   5  -3  -1-311.793 703.034  22
   5  -3  -1-17.2443 119.991   7
   5  -3  -1 71.2913 124.183  18
   5  -3  -1 68.1784 121.568   6
  -5   3   1-22.5219 1888.04  24
   5  -3   0 22632.6 2739.97  22
   5  -3   0 23882.1 793.587   5
  -5   3   0 24355.0 3993.71  23
   5  -3   1 38730.0 3636.65  22
   5  -3   1 38115.2 3256.53   3
   5  -3   1 39198.9 1036.88   5
  -5   3  -1 49905.9 4042.04  15
  -5   3  -1 53000.5 5232.11  23
   5  -3   2 1934.63 1057.50  22
  -5   3  -2 116.568 1240.40  13
   5  -3   2 1523.09 280.607  12
   5  -3   2 1481.28 250.282   5
   5  -3   2 1549.40 843.796   3
  -5   3  -2 2552.27 1098.09  15
   5  -3   3-2165.82 1098.54  22
  -5   3  -3-253.353 1950.80  13
   5  -3   3 1804.64 513.464  12
   5  -3   3 995.428 259.647   5
   5  -3   3 1097.63 1158.84   3
   5  -3   4 279.074 300.088  12
   5  -3   4 133.242 220.467   5
   5  -3   5 3906.56 522.755  12
   5  -3   6 29297.3 1023.26  12
   5  -3   6 28816.7 1061.09  19
  -5   3  -6 30186.3 977.829  18
   5  -3   7 931.077 233.883  12
   5  -3   7 961.614 226.148  19
  -5   2   7 3419.17 518.355  20
   5  -2  -7 2890.80 344.065  18
   5  -2  -7 2323.60 296.055   5
  -5   2   6 8342.03 929.215  20
   5  -2  -6 10988.3 833.434  18
   5  -2  -6 8604.27 815.777   5
   5  -2  -5 94.8967 290.209   5
  -5   2   5 36.7882 324.280  20
   5  -2  -5 19.2910 411.808  18
   5  -2  -5-135.564 263.755   6
  -5   2   5 85.2613 364.452  17
  -5   2   4 9577.26 942.358  20
   5  -2  -4 9886.22 645.381  18
   5  -2  -4 7595.11 838.304   6
   5  -2  -4 10155.1 674.661   5
   5  -2  -3 93963.7 8215.57  22
  -5   2   3 81694.8 2617.58  20
   5  -2  -3 76893.0 1522.58  18
   5  -2  -3 82637.6 1944.68   6
   5  -2  -3 80819.9 1593.26   5
  -5   2   3 97802.8 8568.32  23
   5  -2  -2 4920.41 1510.64  22
   5  -2  -2 3799.45 363.787   6
   5  -2  -2 3842.63 337.301  18
   5  -2  -2 4220.38 348.284   5
  -5   2   1 5356.57 1858.60  23
   5  -2  -1 4606.67 1207.48  22
   5  -2  -1 3981.56 987.045   3
   5  -2  -1 4892.08 361.159   5
  -5   2   1 6870.24 1875.71  15
   5  -2   0 8981.96 1657.54  22
   5  -2   0 6862.71 1309.08   3
   5  -2   0 8599.04 487.970   5
  -5   2   0 10922.6 2299.27  23
   5  -2   1 1194.25 491.806  22
   5  -2   1 1716.93 259.814  12
   5  -2   1 722.741 293.391  16
   5  -2   1 1862.96 253.341   5
   5  -2   1 981.741 562.845   3
   5  -2   2 61936.9 4605.68  22
   5  -2   2 73639.0 2102.20  12
   5  -2   2 73728.5 5939.69   3
   5  -2   2 56765.7 1471.52   5
  -5   2  -2 67808.0 4895.44  15
   5  -2   3 11288.7 949.609  12
   5  -2   3 13081.2 843.851   5
   5  -2   4 8423.28 698.946  12
   5  -2   4 5985.95 796.119   5
   5  -2   5 18988.4 877.985  12
   5  -2   5 18084.2 861.182  19
  -5   2  -5 21076.8 1408.45  18
   5  -2   6 11777.2 609.854  12
   5  -2   6 11069.9 623.170  19
  -5   2  -6 9966.43 545.590  18
  -5   1   8 3269.59 376.765  20
   5  -1  -8 3573.11 292.534  18
   5  -1  -8 2664.38 265.327   5
  -5   1   7 18368.9 985.248  20
   5  -1  -7 15327.7 779.097  18
  -5   1   7 10191.4 950.236  17
   5  -1  -7 12005.0 750.754   5
   5  -1  -6 1458.70 762.139   5
  -5   1   6 2593.20 524.454  20
   5  -1  -6 2028.38 823.980  18
  -5   1   6 2022.57 569.917  17
   5  -1  -5 593.872 236.730   5
  -5   1   5 616.570 367.588  20
   5  -1  -5 595.875 266.750  18
  -5   1   5 516.485 457.928  17
   5  -1  -4 705.666 202.302   5
   5  -1  -4 483.961 878.624  22
   5  -1  -4 819.117 229.918  18
  -5   1   4 714.756 429.368  17
  -5   1   3 1299.19 1143.55  23
   5  -1  -3 25.7712 103.229   5
   5  -1  -3 1066.27 922.280  22
   5  -1  -3 8.03386 147.095  18
  -5   1   3-57.9757 386.048  17
  -5   1   3-430.720 983.155  15
  -5   1   2 11646.6 2686.21  23
   5  -1  -2 11867.7 2126.10  22
  -5   1   2 9860.29 1186.14  17
   5  -1  -2 11150.9 574.386   5
  -5   1   2 15539.1 2978.83  15
  -5   1   1 5515.11 1626.84  23
   5  -1  -1 6989.49 1522.66  22
   5  -1  -1 4501.76 1027.47   3
   5  -1  -1 6732.96 434.938   5
  -5   1   1 9599.79 2300.36  15
  -5   1   0 803.783 910.998  23
   5  -1   0 406.248 325.282  22
   5  -1   0 934.649 684.912   3
   5  -1   0 158.666 285.275  16
  -5   1   0 953.578 748.324  15
   5  -1   0 350.023 150.085   5
   5  -1   1 113943. 2557.12  12
   5  -1   1 106849. 6563.00   3
   5  -1   1 113877. 3601.65  16
   5  -1   1 102491. 1952.62   5
  -5   1  -1 113813. 6640.85  15
   5  -1   2 37218.0 1738.69  16
   5  -1   2 37711.5 1345.02   5
  -5   1  -2 35036.8 3885.66  15
   5  -1   3 257.659 284.600  12
   5  -1   3 58.7964 240.303   5
   5  -1   4 2892.02 417.613  12
   5  -1   4 2400.06 373.836  19
   5  -1   5 4171.69 426.399  12
   5  -1   5 4220.56 453.201  19
  -5   1  -5 3499.08 467.026  18
   5  -1   6 2718.35 294.635  12
   5  -1   6 2765.79 316.797  19
  -5   1  -6 2270.27 244.252  18
  -5   0   8 4032.36 423.980  17
   5   0  -8 4346.30 356.199   5
   5   0  -7 459.558 259.674   5
  -5   0   7 1163.71 344.996  20
   5   0  -7 883.775 288.951  18
  -5   0   7 721.225 437.677  17
   5   0  -6 1939.12 470.113   5
   5   0  -6 2761.42 528.129  18
  -5   0   6 2428.80 640.284  17
   5   0  -5 4380.32 417.423  18
  -5   0   5 4618.09 783.166  17
   5   0  -5 4387.11 439.738   5
   5   0  -4 680.002 189.204   5
  -5   0   4 205.051 436.907  17
  -5   0   3 20211.9 1323.52  17
   5   0  -3 18751.4 770.074   5
  -5   0   3 23652.0 3398.38  15
  -5   0   3 17878.7 4429.36  23
   5   0  -2 20934.2 2715.24  22
   5   0  -2 26139.2 884.921   5
  -5   0   2 25072.5 3761.81  23
  -5   0   1 20.6987 728.603  23
   5   0  -1 654.026 272.823  16
   5   0  -1 869.012 193.825   5
   5   0   0 1076.75 240.774   5
   5   0   0 683.605 298.421  16
   5   0   0 1351.98 885.362   3
  -5   0   0 1755.33 1016.69  15
  -5   0  -1 4290.87 515.070   8
   5   0   1 2772.57 703.346  12
   5   0   1 4592.60 709.535  16
   5   0   1 4483.63 490.922   5
  -5   0  -2 49.6086 209.182   8
   5   0   2 83.4270 271.046  12
   5   0   2-102.122 423.395  16
   5   0   2-105.252 215.283   5
   5   0   3 3933.44 470.247  12
   5   0   3 3428.68 453.117  19
   5   0   4 328.611 247.640  12
   5   0   4 753.498 299.840  19
  -5   0  -4 203.764 386.073  18
   5   0   5 6494.17 420.351  12
   5   0   5 6267.87 454.359  19
  -5  -1   8 160.051 214.739  17
  -5  -1   7 15023.6 919.420  17
  -5  -1   6 27616.0 1487.30  17
   5   1  -6 29557.1 1151.99   5
  -5  -1   5 3950.08 806.832  17
   5   1  -5 5000.01 412.019   5
  -5  -1   4 7174.98 727.777  17
   5   1  -4 6370.26 452.330   5
   5   1  -3 22830.0 1404.11  16
   5   1  -3 23532.5 854.057   5
   5   1  -2 122.198 243.539  16
   5   1  -2 92.4180 110.065   5
   5   1  -1 8587.83 741.429  16
   5   1  -1 9133.98 597.231   5
  -5  -1   0 626.375 375.883   8
   5   1   0 46.4203 972.910  12
   5   1   0 472.102 254.539  16
   5   1   0 967.075 259.274   5
  -5  -1  -1 1623.44 402.755   8
   5   1   1 1876.20 404.817  12
   5   1   1 865.324 374.683  16
   5   1   1 866.018 340.022   5
   5   1   2 13287.3 777.365  12
   5   1   2 13128.4 1173.58  16
  -5  -1  -2 11992.8 870.785   8
   5   1   3 2263.52 354.244  12
   5   1   3 2131.48 352.093  19
  -5  -1  -3 1374.34 373.023  18
   5   1   4 81.6735 166.643  12
   5   1   4 51.9369 174.410  19
  -5  -1  -4 89.1545 139.676  18
  -5  -2   8 2636.11 310.197  17
   5   2  -7 40865.1 2763.46  10
  -5  -2   7 46484.3 1365.44  17
   5   2  -6 9623.44 797.145  10
  -5  -2   6 7165.40 814.013  17
  -5  -2   5 2013.60 423.631  17
   5   2  -5 1884.68 352.812  10
   5   2  -4 4495.93 515.989  10
   5   2  -4 5199.19 935.673  16
  -5  -2   3 113.504 372.320   8
   5   2  -3 456.246 255.554  16
  -5  -2   2 11902.9 1006.81   8
   5   2  -2 15571.4 942.135  16
  -5  -2   1 5487.99 736.724   8
   5   2  -1 5834.94 616.718  16
  -5  -2   0-286.165 415.534   8
   5   2   0-173.492 372.129  12
   5   2   0 288.513 373.372  16
   5   2   1 9865.04 635.418  12
   5   2   1 10465.0 1105.93  16
  -5  -2  -1 8295.32 842.057   8
   5   2   2 6408.82 445.141  12
   5   2   2 5843.80 487.214  19
   5   3  -6 5146.59 607.369  10
  -5  -3   5 2318.75 495.402   8
   5   3  -5 4049.22 669.306  16
  -5  -3   4 472.223 831.041   8
   5   3  -4 832.041 415.137  16
  -5  -3   3 24809.0 1524.61   8
   5   3  -3 38726.3 1392.85  16
   5   3  -2 28527.2 1181.86  16
  -5  -3   2 25184.8 1387.43   8
  -5  -3   1 1774.64 590.743   8
   5   3  -1 1847.08 394.442  16
  -5  -3   0 3370.39 855.348   8
   5   3   0 2514.59 567.961  16
   6  -8   2 3391.81 337.224   7
   6  -8   3 1965.53 256.855   7
   6  -8   4 5792.90 396.388   7
   6  -7  -1-234.103 312.234   7
   6  -7   0 8787.07 650.037   7
   6  -7   1 18484.8 841.596   7
   6  -7   2 993.929 260.346   7
   6  -7   3 1968.27 358.801  12
   6  -7   4 6508.46 575.639  12
   6  -7   5 7723.25 888.295  12
   6  -7   6 1196.92 361.599  12
  -6   6   3 1813.36 481.233  20
   6  -6  -3 17346.5 639.822   6
  -6   6   2 448.151 726.829  20
   6  -6  -2 1802.30 415.829   6
   6  -6  -1 7492.92 652.050   7
   6  -6   0 11285.2 947.548   4
   6  -6   0 14239.5 775.468   7
   6  -6   1 15158.5 1068.65   4
   6  -6   1 17626.5 806.713   7
   6  -6   2-24.3492 409.038   4
   6  -6   3 3062.70 847.069   4
   6  -6   3 1913.42 355.820  12
   6  -6   4 910.095 354.603  12
   6  -6   4 477.503 277.810   4
   6  -6   5 7888.82 1218.07  12
   6  -6   6 6791.27 578.689  12
  -6   5   4 1490.20 586.138  20
   6  -5  -4 17668.8 672.378   6
  -6   5   3 2888.17 846.507  20
   6  -5  -3 15617.8 821.035   6
   6  -5  -2-120.230 309.309   7
   6  -5  -2-420.520 570.918   6
   6  -5  -1 2103.44 429.070   4
   6  -5  -1 2289.89 361.887   7
   6  -5   0 8391.11 758.526   4
   6  -5   0 8088.46 555.554   7
   6  -5   1 7818.94 742.545   4
   6  -5   2 23762.2 1667.26   4
   6  -5   2 15812.9 774.062  12
   6  -5   3 2443.95 640.846   4
   6  -5   3 1593.36 337.140  12
   6  -5   4 13335.3 914.932   4
   6  -5   4 16534.6 1131.19  12
   6  -5   5 17153.7 1164.79  12
   6  -5   6 2879.48 398.367  12
   6  -4  -5 216.617 156.916   5
  -6   4   5 437.532 346.221  20
   6  -4  -5 576.404 234.944  18
  -6   4   5-2.30016 320.598  17
   6  -4  -4 1488.64 487.147   5
  -6   4   4 1564.62 505.416  20
   6  -4  -4 2910.88 421.465   6
   6  -4  -4 2485.98 650.504  18
   6  -4  -3 192.217 167.249   5
  -6   4   3-137.776 435.667  20
   6  -4  -3 86.5931 186.868  18
   6  -4  -3-395.214 681.159   6
   6  -4  -2 5313.31 624.923   7
   6  -4  -2 6101.35 558.263   6
   6  -4  -2 5919.86 471.108   5
   6  -4  -1 120.447 125.944   5
   6  -4  -1 53.6177 232.669   4
   6  -4  -1 110.674 168.989   7
   6  -4   0 21803.2 810.459   5
   6  -4   1 67001.6 1476.96   5
   6  -4   2 8869.20 601.140  12
   6  -4   2 8761.35 591.018   5
   6  -4   3 5574.84 609.867  12
   6  -4   3 4200.89 478.178   5
   6  -4   4 8178.94 1253.16  12
   6  -4   4 4209.77 690.450   5
   6  -4   5 3863.46 542.478  12
   6  -4   6 3606.82 381.112  12
   6  -3  -6 362.776 161.199   5
  -6   3   6-112.414 296.816  20
   6  -3  -6 585.643 191.490  18
  -6   3   6 244.708 305.987  17
   6  -3  -5 527.269 649.784   5
  -6   3   5 1600.88 568.576  20
   6  -3  -5 469.426 775.845  18
  -6   3   5 676.405 467.860  17
  -6   3   4 1781.18 686.493  20
   6  -3  -4 2578.19 431.156  18
  -6   3   4 1034.37 652.178  17
   6  -3  -4 2215.91 398.106   5
   6  -3  -3 21923.8 864.155  18
   6  -3  -3 21754.7 928.986   5
   6  -3  -2 1301.37 233.961   5
   6  -3  -1 792.079 192.564   5
   6  -3   0 17340.7 758.509   5
   6  -3   1 11507.4 661.775   5
   6  -3   2 293.892 210.228  12
   6  -3   2 409.327 193.997   5
   6  -3   3 2593.18 693.780  12
   6  -3   3 1516.77 351.443   5
   6  -3   4 194.688 348.454  12
   6  -3   4 82.8450 314.280   5
   6  -3   5 20999.9 925.429  12
  -6   3  -5 22245.5 1059.90  18
   6  -3   6 11200.1 543.669  12
   6  -2  -7 8082.29 422.554   5
   6  -2  -6 3235.61 452.708  18
  -6   2   6 2162.22 539.878  17
   6  -2  -6 2729.50 422.067   5
   6  -2  -5 1431.74 429.264   5
   6  -2  -5 1672.89 572.385  18
  -6   2   5 1522.22 650.972  17
   6  -2  -4 14812.4 754.066  18
  -6   2   4 15656.9 1406.23  17
   6  -2  -4 14092.6 784.599   5
  -6   2   3 7435.48 989.728  17
   6  -2  -3 9357.50 576.840   5
   6  -2  -2 521.952 173.677   5
  -6   2   2-418.003 968.439  17
   6  -2  -1 8664.52 547.727   5
   6  -2   0 200.340 148.373   5
   6  -2   1 3517.07 396.615   5
   6  -2   2 13271.4 1034.37  12
   6  -2   2 10551.2 745.272   5
   6  -2   3-392.183 366.382  12
   6  -2   3 113.193 239.783   5
   6  -2   4 7450.53 591.848  12
   6  -2   4 3073.86 1213.77   5
   6  -2   5 15067.4 676.643  12
  -6   2  -5 10316.2 619.882  18
  -6   1   7 10186.3 796.057  17
   6  -1  -7 25762.4 842.403   5
   6  -1  -6 241.818 420.683   5
  -6   1   6 107.329 471.170  17
  -6   1   5 4370.66 815.342  17
   6  -1  -5 3445.24 459.221   5
  -6   1   4 4350.77 796.359  17
   6  -1  -4 4669.81 437.304   5
  -6   1   3 4320.79 831.054  17
   6  -1  -3 3250.39 349.722   5
   6  -1  -2 2618.13 322.120   5
   6  -1  -1 304.735 177.859   5
   6  -1   0 7196.40 883.029  16
   6  -1   0 7716.83 568.875   5
   6  -1   1 18860.8 1145.20  16
   6  -1   1 20962.3 1004.69   5
   6  -1   2 702.675 464.749  12
   6  -1   2 2464.92 452.967   5
   6  -1   3 1181.75 324.573  12
   6  -1   3 1031.89 566.772   5
   6  -1   4 209.769 197.416  12
  -6   1  -4 184.230 323.324  18
  -6   0   7 156.765 278.814  17
   6   0  -7 16.0122 120.540   5
  -6   0   6 4611.20 720.739  17
   6   0  -6 6461.05 828.599   5
  -6   0   5 2071.52 625.936  17
   6   0  -5 2712.60 361.710   5
  -6   0   4 4251.82 784.678  17
   6   0  -4 4404.50 410.274   5
   6   0  -3 82611.4 1693.91   5
   6   0  -2 18566.4 837.987   5
   6   0  -1 1215.00 543.101  16
   6   0  -1 1297.29 273.417   5
  -6   0   0 8865.08 902.783   8
   6   0   0 8520.19 651.769   5
  -6   0  -1 2241.69 493.677   8
   6   0   1 2241.73 510.537  16
   6   0   1 1672.14 385.532   5
   6   0   2 227.470 269.161  12
   6   0   2 110.084 452.130   5
   6   0   3 139.632 173.755  12
  -6   0  -3 638.141 414.548  18
  -6  -1   6 7209.47 622.344  17
  -6  -1   5 19.9578 345.707   8
  -6  -1   4 6354.89 1371.87   8
  -6  -1   3 4324.01 788.219   8
   6   1  -3 16142.8 733.521   5
  -6  -1   2 260.055 411.302   8
   6   1  -2 1003.43 517.944  16
   6   1  -2 1048.23 234.021   5
   6   1  -1 3660.63 426.957   5
   6   1  -1 3237.06 654.165  16
  -6  -1   0 610.424 424.994   8
   6   1   0 1227.78 678.607  16
   6   1   0 726.524 291.654   5
   6   1   1 14192.9 838.932  16
  -6  -1  -1 18150.6 1094.66   8
  -6  -2   4 240.971 652.263   8
  -6  -2   3 1291.67 459.335   8
   6   2  -3 4461.35 946.254  16
  -6  -2   2 5764.01 678.230   8
   6   2  -2 9941.80 949.122  16
  -6  -2   1 2626.81 525.227   8
   6   2  -1 1528.23 482.816  16
   6   2   0 7813.37 574.721  16
   7  -7   1 7539.31 533.154   7
   7  -7   2 378.023 190.530   7
   7  -6   0 10635.5 697.589   7
   7  -6   1 4336.35 572.941   4
   7  -6   2 1885.22 580.297   4
   7  -6   3 705.514 356.541   4
   7  -6   4 2255.44 427.633  12
  -7   5   3-289.036 329.869  17
   7  -5  -1 131.866 201.449   4
   7  -5   0 319.203 237.957   4
   7  -5   1 6350.07 704.262   4
   7  -5   2 1297.16 705.847   4
   7  -5   3 5969.38 663.759   4
   7  -5   4 12010.5 1059.30  12
  -7   4   4-226.017 383.570  17
   7  -4  -4 1719.95 748.064   5
  -7   4   3-103.385 478.600  17
   7  -4  -3 847.689 230.412   5
   7  -4  -2 440.006 184.473   5
   7  -4  -1 2946.37 438.288   4
   7  -4  -1 2470.02 305.006   5
   7  -4   0 12870.3 647.990   5
   7  -4   1 8478.38 554.465   5
   7  -4   2 89.1789 146.000   5
   7  -4   3 295.869 239.004   5
   7  -4   4 2497.50 522.162  12
   7  -3  -5 705.037 305.781   5
  -7   3   5 42.0310 389.896  17
  -7   3   4 7594.63 980.317  17
   7  -3  -4 17926.1 994.897   5
  -7   3   3 8825.91 1246.64  17
   7  -3  -3 25721.3 957.627   5
   7  -3  -2 117.624 157.784   5
   7  -3  -1 5313.72 443.247   5
   7  -3   0 11856.2 663.277   5
   7  -3   1 1374.82 269.139   5
   7  -3   2 769.687 255.667   5
   7  -3   3 73.9178 748.957  12
   7  -3   3 578.772 301.335   5
   7  -3   4 777.968 286.469  12
  -7   3  -4 369.846 365.330  18
  -7   2   5 3673.94 750.240  17
   7  -2  -5 6999.58 989.147   5
  -7   2   4 23988.8 1634.68  17
   7  -2  -4 43243.8 1298.04   5
   7  -2  -3 3475.56 355.598   5
   7  -2  -2 2136.90 306.384   5
   7  -2  -1 4378.81 423.209   5
   7  -2   0 274.706 194.262   5
   7  -2   1 16050.9 859.344   5
   7  -2   2 2637.17 451.528   5
   7  -2   3 778.512 548.233   5
   7  -1  -5 2602.41 458.844   5
   7  -1  -4 431.135 186.775   5
   7  -1  -3 8437.62 528.469   5
   7  -1  -2 6929.94 502.364   5
   7  -1  -1 300.165 187.527   5
  -7   1   0 27828.1 1784.20   8
   7  -1   0 45413.8 1367.99   5
   7  -1   1 24131.6 1103.62   5
   7  -1   2 151.592 412.732   5
  -7   0   4 101.412 439.834   8
   7   0  -4 11356.0 597.666   5
  -7   0   3 3118.50 640.572   8
   7   0  -3 17542.5 728.926   5
  -7   0   2 618.916 391.138   8
   7   0  -2 557.259 187.732   5
  -7   0   1 1716.57 461.630   8
   7   0  -1 3969.76 412.977   5
  -7   0   0 4705.30 618.282   8
   7   0   0 8761.00 692.473   5
   8  -4  -1 9216.05 517.325   5
   8  -4   0 29524.4 904.304   5
   8  -4   1 2960.28 317.823   5
   8  -3  -2 1660.34 236.702   5
   8  -3  -1 14965.1 650.839   5
   8  -3   0 8276.05 498.510   5
   8  -3   1 439.887 176.230   5
   8  -2  -2 403.755 167.240   5
   8  -2  -1 620.603 180.450   5
   0   0   0    0.00    0.00   0
TITL neu in P-1
REM P-1 (#2 in standard setting)
CELL 1.54184   6.913360   7.323859   8.761039 111.7963  92.1497 115.2036
ZERR    1.00   0.000949   0.001027   0.000991   0.0118   0.0104   0.0135
LATT  1
SFAC C H O P W
UNIT 7.00 7.00 7.00 3.00 2.00
TREF
HKLF 4
END
;
_shelx_hkl_checksum              51978
_olex2_exptl_crystal_mounting_method
'The crystal was mounted on a mylar loop with inert oil'
_olex2_submission_special_instructions 'No special instructions were received'
#END Tags that were not found in dictionaries
loop_
_space_group_symop_operation_xyz
'x, y, z'
'-x, -y, -z'
loop_
_atom_site_label
_atom_site_type_symbol
_atom_site_fract_x
_atom_site_fract_y
_atom_site_fract_z
_atom_site_U_iso_or_equiv
_atom_site_adp_type
_atom_site_occupancy
_atom_site_site_symmetry_order
_atom_site_calc_flag
_atom_site_refinement_flags_posn
_atom_site_refinement_flags_occupancy
_atom_site_disorder_assembly
_atom_site_disorder_group
Cr1 Cr 0.08453(8) 0.66816(8) 0.67753(6) 0.0269(2) Uani 1 1 d . . . .
P1 P 0.03779(14) 0.30844(13) 0.55997(10) 0.0283(3) Uani 1 1 d . . . .
H1A H 0.218(4) 0.2926(3) 0.56467(13) 0.034 Uiso 1 1 calc GR . . .
H1B H -0.112(3) 0.168(3) 0.6042(9) 0.034 Uiso 1 1 calc GR . . .
P2 P 0.2222(19) 0.694(2) 0.9276(7) 0.0380(17) Uani 0.32 1 d D P A 1
H2A H 0.360(2) 0.613(2) 0.9070(7) 0.057 Uiso 0.32 1 calc DGR P A 1
H2B H 0.063(2) 0.580(2) 0.9821(8) 0.057 Uiso 0.32 1 calc DGR P A 1
H2C H 0.3234(19) 0.902(2) 1.0372(9) 0.057 Uiso 0.32 1 calc DGR P A 1
O1 O 0.5522(5) 0.8612(5) 0.6346(4) 0.0558(8) Uani 1 1 d . . . .
O3 O -0.3729(4) 0.4955(5) 0.7457(3) 0.0485(7) Uani 1 1 d . . . .
C4 C 0.121(3) 0.962(3) 0.800(2) 0.038(3) Uani 0.82 1 d . P A 2
O4 O 0.1406(7) 1.1354(7) 0.8731(5) 0.0504(10) Uani 0.82 1 d . P A 2
C1 C 0.3734(6) 0.7846(6) 0.6462(4) 0.0350(8) Uani 1 1 d . . . .
C3 C -0.2029(6) 0.5574(6) 0.7173(4) 0.0344(8) Uani 1 1 d . . . .
O2 O 0.2766(10) 0.6973(9) 1.0120(8) 0.0646(18) Uani 0.68 1 d . P A 2
C2 C 0.201(4) 0.683(4) 0.882(2) 0.0377(19) Uani 0.68 1 d . P A 2
P3 P 0.164(3) 1.020(3) 0.837(3) 0.036(3) Uani 0.18 1 d D P A 1
H3A H 0.199(3) 1.059(3) 0.996(3) 0.054 Uiso 0.18 1 calc DGR P A 1
H3B H 0.000(3) 1.052(3) 0.800(3) 0.054 Uiso 0.18 1 calc DGR P A 1
H3C H 0.340(3) 1.155(3) 0.809(3) 0.054 Uiso 0.18 1 calc DGR P A 1
loop_
_atom_site_aniso_label
_atom_site_aniso_U_11
_atom_site_aniso_U_22
_atom_site_aniso_U_33
_atom_site_aniso_U_23
_atom_site_aniso_U_13
_atom_site_aniso_U_12
Cr1 0.0246(4) 0.0261(3) 0.0278(3) 0.0115(2) 0.0073(2) 0.0101(3)
P1 0.0282(5) 0.0264(4) 0.0316(4) 0.0143(4) 0.0078(3) 0.0124(4)
P2 0.040(3) 0.0450(18) 0.027(5) 0.015(4) 0.006(4) 0.019(2)
O1 0.0291(16) 0.0490(16) 0.0638(18) 0.0130(14) 0.0155(13) 0.0059(13)
O3 0.0320(16) 0.0657(18) 0.0440(14) 0.0243(14) 0.0162(12) 0.0185(14)
C4 0.036(6) 0.040(8) 0.035(7) 0.017(6) 0.006(4) 0.013(5)
O4 0.071(3) 0.039(2) 0.0413(19) 0.0103(17) 0.0115(17) 0.033(2)
C1 0.037(2) 0.0268(17) 0.0314(16) 0.0062(14) 0.0048(15) 0.0129(16)
C3 0.040(2) 0.0333(18) 0.0280(15) 0.0122(14) 0.0043(15) 0.0173(17)
O2 0.089(4) 0.072(3) 0.033(3) 0.020(3) -0.010(3) 0.042(3)
C2 0.040(3) 0.0443(19) 0.027(5) 0.014(4) 0.006(4) 0.019(2)
P3 0.032(7) 0.033(8) 0.042(8) 0.012(6) 0.013(6) 0.018(7)
loop_
_atom_type_symbol
_atom_type_description
_atom_type_scat_dispersion_real
_atom_type_scat_dispersion_imag
_atom_type_scat_source
C C 0.0181 0.0091 'International Tables Vol C Tables 4.2.6.8 and 6.1.1.4'
H H 0.0000 0.0000 'International Tables Vol C Tables 4.2.6.8 and 6.1.1.4'
Cr Cr -0.1635 2.4439 'International Tables Vol C Tables 4.2.6.8 and 6.1.1.4'
O O 0.0492 0.0322 'International Tables Vol C Tables 4.2.6.8 and 6.1.1.4'
P P 0.2955 0.4335 'International Tables Vol C Tables 4.2.6.8 and 6.1.1.4'
loop_
_exptl_crystal_face_index_h
_exptl_crystal_face_index_k
_exptl_crystal_face_index_l
_exptl_crystal_face_perp_dist
_exptl_oxdiff_crystal_face_indexfrac_h
_exptl_oxdiff_crystal_face_indexfrac_k
_exptl_oxdiff_crystal_face_indexfrac_l
_exptl_oxdiff_crystal_face_x
_exptl_oxdiff_crystal_face_y
_exptl_oxdiff_crystal_face_z
0 -4 3 0.0521 -0.0007 -4.0023 2.9989 -0.7834 -0.3916 0.3455
4 -2 1 0.2014 3.9944 -1.9936 1.0004 0.2084 0.1725 0.8749
-4 2 -1 0.3337 -3.9944 1.9936 -1.0004 -0.2084 -0.1725 -0.8749
-2 2 -1 0.2922 -1.9973 1.9975 -0.9999 0.0666 0.0523 -0.5142
0 0 1 0.0048 -0.0013 0.0005 1.0001 -0.0999 0.1627 0.0383
0 0 -1 0.0048 0.0013 -0.0005 -1.0001 0.0999 -0.1627 -0.0383
0 4 -3 0.0983 0.0007 4.0023 -2.9989 0.7834 0.3916 -0.3455
loop_
_geom_angle_atom_site_label_1
_geom_angle_atom_site_label_2
_geom_angle_atom_site_label_3
_geom_angle
_geom_angle_site_symmetry_1
_geom_angle_site_symmetry_3
P1 Cr1 Cr1 50.30(3) . 2_566
P1 Cr1 Cr1 50.37(3) 2_566 2_566
P1 Cr1 P1 100.67(3) 2_566 .
P2 Cr1 Cr1 136.8(3) . 2_566
P2 Cr1 P1 86.5(3) . .
P2 Cr1 P1 172.6(3) . 2_566
C4 Cr1 Cr1 136.0(5) . 2_566
C4 Cr1 P1 85.7(5) . 2_566
C4 Cr1 P1 173.0(6) . .
C1 Cr1 Cr1 91.09(10) . 2_566
C1 Cr1 P1 89.82(11) . 2_566
C1 Cr1 P1 91.58(11) . .
C1 Cr1 P2 88.3(3) . .
C1 Cr1 C4 91.2(6) . .
C1 Cr1 C3 178.01(13) . .
C1 Cr1 P3 86.7(5) . .
C3 Cr1 Cr1 90.88(10) . 2_566
C3 Cr1 P1 91.63(10) . 2_566
C3 Cr1 P1 89.50(11) . .
C3 Cr1 P2 90.1(3) . .
C3 Cr1 C4 87.5(6) . .
C3 Cr1 P3 91.9(5) . .
C2 Cr1 Cr1 135.4(8) . 2_566
C2 Cr1 P1 85.1(8) . .
C2 Cr1 P1 173.8(8) . 2_566
C2 Cr1 C4 88.6(10) . .
C2 Cr1 C1 87.8(8) . .
C2 Cr1 C3 90.7(8) . .
P3 Cr1 Cr1 141.0(6) . 2_566
P3 Cr1 P1 168.6(6) . .
P3 Cr1 P1 90.7(6) . 2_566
P3 Cr1 P2 82.1(7) . .
Cr1 P1 Cr1 79.33(3) 2_566 .
Cr1 P1 H1A 115.4 . .
Cr1 P1 H1A 115.4 2_566 .
Cr1 P1 H1B 115.4 . .
Cr1 P1 H1B 115.4 2_566 .
H1A P1 H1B 112.4 . .
Cr1 P2 H2A 109.5 . .
Cr1 P2 H2B 109.5 . .
Cr1 P2 H2C 109.5 . .
H2A P2 H2B 109.5 . .
H2A P2 H2C 109.5 . .
H2B P2 H2C 109.5 . .
O4 C4 Cr1 179.4(17) . .
O1 C1 Cr1 177.0(3) . .
O3 C3 Cr1 178.1(3) . .
O2 C2 Cr1 179(2) . .
Cr1 P3 H3A 109.5 . .
Cr1 P3 H3B 109.5 . .
Cr1 P3 H3C 109.5 . .
H3A P3 H3B 109.5 . .
H3A P3 H3C 109.5 . .
H3B P3 H3C 109.5 . .
loop_
_geom_bond_atom_site_label_1
_geom_bond_atom_site_label_2
_geom_bond_distance
_geom_bond_site_symmetry_2
Cr1 Cr1 2.9487(11) 2_566
Cr1 P1 2.3087(9) 2_566
Cr1 P1 2.3111(10) .
Cr1 P2 2.265(6) .
Cr1 C4 1.909(17) .
Cr1 C1 1.885(4) .
Cr1 C3 1.902(4) .
Cr1 C2 1.884(18) .
Cr1 P3 2.23(2) .
P1 Cr1 2.3087(9) 2_566
P1 H1A 1.30(3) .
P1 H1B 1.30(3) .
P2 H2A 1.299(6) .
P2 H2B 1.299(6) .
P2 H2C 1.299(6) .
O1 C1 1.147(5) .
O3 C3 1.141(5) .
C4 O4 1.134(17) .
O2 C2 1.182(15) .
P3 H3A 1.300(6) .
P3 H3B 1.300(6) .
P3 H3C 1.300(6) .
