#------------------------------------------------------------------------------
#$Date: 2016-03-23 23:52:22 +0200 (Wed, 23 Mar 2016) $
#$Revision: 179516 $
#$URL: svn://www.crystallography.net/cod/cif/4/34/13/4341321.cif $
#------------------------------------------------------------------------------
#
# This file is available in the Crystallography Open Database (COD),
# http://www.crystallography.net/
#
# All data on this site have been placed in the public domain by the
# contributors.
#
data_4341321
loop_
_publ_author_name
'Bauer, Susanne'
'Hunger, Cornelia'
'Bodensteiner, Michael'
'Ojo, Wilfried-Solo'
'Cros-Gagneux, Arnaud'
'Chaudret, Bruno'
'Nayral, C\'eline'
'Delpech, Fabien'
'Scheer, Manfred'
_publ_section_title
;
 Transition-metal complexes containing parent phosphine or phosphinyl
 ligands and their use as precursors for phosphide nanoparticles.
;
_journal_issue                   21
_journal_name_full               'Inorganic chemistry'
_journal_page_first              11438
_journal_page_last               11446
_journal_paper_doi               10.1021/ic5012082
_journal_volume                  53
_journal_year                    2014
_chemical_formula_moiety         'C7 H7 O7 P3 W2'
_chemical_formula_sum            'C7 H7 O7 P3 W2'
_chemical_formula_weight         663.74
_chemical_name_systematic
;
 ?
;
_space_group_crystal_system      triclinic
_space_group_IT_number           2
_space_group_name_Hall           '-P 1'
_space_group_name_H-M_alt        'P -1'
_symmetry_space_group_name_Hall  '-P 1'
_symmetry_space_group_name_H-M   'P -1'
_atom_sites_solution_hydrogens   mixed
_audit_creation_date             2014-08-04
_audit_creation_method
;
Olex2 1.2-beta
(compiled 2014.07.22 svn.r2960 for OlexSys, GUI svn.r4862)
;
_cell_angle_alpha                111.050(13)
_cell_angle_beta                 92.726(12)
_cell_angle_gamma                114.076(13)
_cell_formula_units_Z            1
_cell_length_a                   7.0082(10)
_cell_length_b                   7.4298(10)
_cell_length_c                   8.8711(13)
_cell_measurement_reflns_used    4082
_cell_measurement_temperature    123(2)
_cell_measurement_theta_max      66.6586
_cell_measurement_theta_min      5.4898
_cell_volume                     383.24(12)
_computing_cell_refinement
;
CrysAlisPro, Oxford Diffraction Ltd.,
Version 1.171.33.34d (release 27-02-2009 CrysAlis171 .NET)
(compiled Feb 27 2009,15:38:38)
;
_computing_data_collection
;
CrysAlisPro, Oxford Diffraction Ltd.,
Version 1.171.33.34d (release 27-02-2009 CrysAlis171 .NET)
(compiled Feb 27 2009,15:38:38)
;
_computing_data_reduction
;
CrysAlisPro, Oxford Diffraction Ltd.,
Version 1.171.33.34d (release 27-02-2009 CrysAlis171 .NET)
(compiled Feb 27 2009,15:38:38)
;
_computing_molecular_graphics    'Olex2 (Dolomanov et al., 2009)'
_computing_publication_material  'Olex2 (Dolomanov et al., 2009)'
_computing_structure_refinement  'ShelXL (Sheldrick, 2008)'
_diffrn_ambient_temperature      123.15
_diffrn_detector_area_resol_mean 10.5431
_diffrn_measured_fraction_theta_full 0.943
_diffrn_measured_fraction_theta_max 0.965
_diffrn_measurement_details
;
  1 omega  -99.00  -53.00   2.0000    3.0000
omega____ theta____ kappa____ phi______ frames
    -      -11.6137  179.0000 -120.0000 23

  2 omega    7.00   41.00   2.0000    3.0000
omega____ theta____ kappa____ phi______ frames
    -       11.6137  -77.0000 -120.0000 17

  3 omega   34.00   62.00   2.0000    3.0000
omega____ theta____ kappa____ phi______ frames
    -       11.6137  179.0000  150.0000 14

  4 omega  -36.00    6.00   2.0000    3.0000
omega____ theta____ kappa____ phi______ frames
    -       11.6137  -77.0000 -120.0000 21

  5 omega  -66.00  -38.00   2.0000    3.0000
omega____ theta____ kappa____ phi______ frames
    -       11.6137  -77.0000 -120.0000 14

  6 omega   62.00  100.00   2.0000    3.0000
omega____ theta____ kappa____ phi______ frames
    -       11.6137  179.0000  150.0000 19

  7 omega   -6.00   24.00   2.0000    3.0000
omega____ theta____ kappa____ phi______ frames
    -       30.0000   84.0000 -117.0000 15

  8 omega  -35.00   27.00   2.0000    3.0000
omega____ theta____ kappa____ phi______ frames
    -       30.0000  -60.0000  129.0000 31

  9 omega   26.00   58.00   2.0000    3.0000
omega____ theta____ kappa____ phi______ frames
    -       30.0000  -60.0000  129.0000 16

 10 omega   -3.00   25.00   2.0000    3.0000
omega____ theta____ kappa____ phi______ frames
    -       32.0000   84.0000    3.0000 14

 11 omega   21.00   53.00   2.0000    3.0000
omega____ theta____ kappa____ phi______ frames
    -       42.0000   77.0000  165.0000 16

 12 omega   10.00   38.00   2.0000    3.0000
omega____ theta____ kappa____ phi______ frames
    -       44.0000   79.0000   93.0000 14

 13 omega  -73.00  -27.00   2.0000    5.0000
omega____ theta____ kappa____ phi______ frames
    -      -52.0000  -75.0000 -176.0000 23

 14 omega -129.00  -83.00   2.0000    5.0000
omega____ theta____ kappa____ phi______ frames
    -      -52.0000  -75.0000 -176.0000 23

 15 omega  -66.00  -22.00   2.0000    5.0000
omega____ theta____ kappa____ phi______ frames
    -      -56.0000  -79.0000 -133.0000 22

 16 omega  -46.00  -20.00   2.0000    5.0000
omega____ theta____ kappa____ phi______ frames
    -      -56.0000  -84.0000   85.0000 13

 17 omega   24.00   60.00   2.0000    5.0000
omega____ theta____ kappa____ phi______ frames
    -       58.0000   77.0000   14.0000 18

 18 omega  -66.00  -28.00   2.0000    5.0000
omega____ theta____ kappa____ phi______ frames
    -      -62.0000  -77.0000  -62.0000 19

 19 omega  -56.00  -28.00   2.0000    5.0000
omega____ theta____ kappa____ phi______ frames
    -      -62.0000  -79.0000    1.0000 14

 20 omega   33.00   63.00   2.0000    5.0000
omega____ theta____ kappa____ phi______ frames
    -       64.0000   77.0000   95.0000 15

 21 omega  -73.00  -43.00   2.0000    5.0000
omega____ theta____ kappa____ phi______ frames
    -      -68.0000  -75.0000 -157.0000 15

 22 omega  -68.00  -40.00   2.0000    5.0000
omega____ theta____ kappa____ phi______ frames
    -      -72.0000  -71.0000  -13.0000 14

 23 omega  -76.00  -40.00   2.0000    5.0000
omega____ theta____ kappa____ phi______ frames
    -      -72.0000  -69.0000  131.0000 18

 24 omega  -69.00  -41.00   2.0000    5.0000
omega____ theta____ kappa____ phi______ frames
    -      -74.0000  -71.0000  -41.0000 14

 25 omega  -72.00  -42.00   2.0000    5.0000
omega____ theta____ kappa____ phi______ frames
    -      -74.0000  -71.0000   88.0000 15

 26 omega  -80.00  -42.00   2.0000    5.0000
omega____ theta____ kappa____ phi______ frames
    -      -76.0000  -73.0000 -112.0000 19

 27 omega  -73.00  -45.00   2.0000    5.0000
omega____ theta____ kappa____ phi______ frames
    -      -78.0000  -77.0000   71.0000 14

 28 omega  -82.00  -48.00   2.0000    5.0000
omega____ theta____ kappa____ phi______ frames
    -      -80.0000  -68.0000 -135.0000 17

 29 omega  -80.00  -50.00   2.0000    5.0000
omega____ theta____ kappa____ phi______ frames
    -      -80.0000  -68.0000   15.0000 15

 30 omega  -84.00  -48.00   2.0000    5.0000
omega____ theta____ kappa____ phi______ frames
    -      -82.0000  -77.0000  -69.0000 18

 31 omega -111.00  -19.00   2.0000    5.0000
omega____ theta____ kappa____ phi______ frames
    -      -90.0000  125.0000  -90.0000 46

 32 omega  -87.00  -57.00   2.0000    5.0000
omega____ theta____ kappa____ phi______ frames
    -      -90.0000  -77.0000 -150.0000 15

 33 omega  -96.00  -58.00   2.0000    5.0000
omega____ theta____ kappa____ phi______ frames
    -      -90.0000  -71.0000   73.0000 19

 34 omega -164.00 -104.00   2.0000    5.0000
omega____ theta____ kappa____ phi______ frames
    -      -90.0000  -71.0000   73.0000 30

 35 omega -112.00  -70.00   2.0000    5.0000
omega____ theta____ kappa____ phi______ frames
    -      -90.0000  125.0000    0.0000 21

 36 omega  -88.00  -58.00   2.0000    5.0000
omega____ theta____ kappa____ phi______ frames
    -      -90.0000  -69.0000   -6.0000 15

 37 omega -144.00  -98.00   2.0000    5.0000
omega____ theta____ kappa____ phi______ frames
    -      -90.0000  -69.0000   -6.0000 23

 38 omega -153.00  -61.00   2.0000    5.0000
omega____ theta____ kappa____ phi______ frames
    -      -90.0000  -63.0000  107.0000 46

 39 omega -118.00  -88.00   2.0000    5.0000
omega____ theta____ kappa____ phi______ frames
    -      -90.0000  -75.0000   34.0000 15

 40 omega -156.00 -126.00   2.0000    5.0000
omega____ theta____ kappa____ phi______ frames
    -      -90.0000  -75.0000   34.0000 15

 41 omega  -92.00  -56.00   2.0000    5.0000
omega____ theta____ kappa____ phi______ frames
    -      -90.0000  -77.0000  150.0000 18

 42 omega -145.00  -59.00   2.0000    5.0000
omega____ theta____ kappa____ phi______ frames
    -      -90.0000  -65.0000  -70.0000 43

 43 omega -166.00 -122.00   2.0000    5.0000
omega____ theta____ kappa____ phi______ frames
    -      -90.0000  -77.0000  150.0000 22

 44 omega  -87.00  -57.00   2.0000    5.0000
omega____ theta____ kappa____ phi______ frames
    -      -90.0000  -77.0000  -30.0000 15

 45 omega   15.00   65.00   2.0000    5.0000
omega____ theta____ kappa____ phi______ frames
    -       93.5000  -77.0000   30.0000 25

 46 omega  125.00  151.00   2.0000    5.0000
omega____ theta____ kappa____ phi______ frames
    -       93.5000   77.0000   60.0000 13

 47 omega   60.00   96.00   2.0000    5.0000
omega____ theta____ kappa____ phi______ frames
    -       93.5000   77.0000   60.0000 18

 48 omega   61.00  133.00   2.0000    5.0000
omega____ theta____ kappa____ phi______ frames
    -       93.5000   77.0000    0.0000 36

 49 omega  108.00  172.00   2.0000    5.0000
omega____ theta____ kappa____ phi______ frames
    -       93.5000   77.0000  -90.0000 32

 50 omega   74.00  102.00   2.0000    5.0000
omega____ theta____ kappa____ phi______ frames
    -       93.5000   77.0000  -90.0000 14

 51 omega  136.00  164.00   2.0000    5.0000
omega____ theta____ kappa____ phi______ frames
    -       93.5000   77.0000 -120.0000 14

 52 omega   66.00  112.00   2.0000    5.0000
omega____ theta____ kappa____ phi______ frames
    -       93.5000   77.0000 -120.0000 23

 53 omega   98.00  156.00   2.0000    5.0000
omega____ theta____ kappa____ phi______ frames
    -       93.5000   77.0000 -180.0000 29

 54 omega   63.00  127.00   2.0000    5.0000
omega____ theta____ kappa____ phi______ frames
    -       93.5000   77.0000  120.0000 32

 55 omega   61.00   91.00   2.0000    5.0000
omega____ theta____ kappa____ phi______ frames
    -       93.5000   77.0000 -180.0000 15

 56 omega   65.00  127.00   2.0000    5.0000
omega____ theta____ kappa____ phi______ frames
    -       93.5000  -77.0000  120.0000 31

 57 omega   62.00  172.00   2.0000    5.0000
omega____ theta____ kappa____ phi______ frames
    -       93.5000   77.0000 -150.0000 55

 58 omega  134.00  164.00   2.0000    5.0000
omega____ theta____ kappa____ phi______ frames
    -       93.5000  125.0000  120.0000 15

 59 omega   77.00  129.00   2.0000    5.0000
omega____ theta____ kappa____ phi______ frames
    -       93.5000  125.0000  120.0000 26

 60 omega   78.00  120.00   2.0000    5.0000
omega____ theta____ kappa____ phi______ frames
    -       93.5000  -48.0000  152.0000 21

 61 omega   27.00   59.00   2.0000    5.0000
omega____ theta____ kappa____ phi______ frames
    -       93.5000  -48.0000  152.0000 16

 62 omega   68.00  128.00   2.0000    5.0000
omega____ theta____ kappa____ phi______ frames
    -       93.5000  -77.0000   30.0000 30
;
_diffrn_measurement_device_type
'Goniometer Xcalibur, detector: Ruby (Gemini ultra Cu)'
_diffrn_measurement_method       '\w scans'
_diffrn_orient_matrix_UB_11      -0.1903431232
_diffrn_orient_matrix_UB_12      0.0043586325
_diffrn_orient_matrix_UB_13      0.0771111676
_diffrn_orient_matrix_UB_21      -0.1201806496
_diffrn_orient_matrix_UB_22      -0.2487322653
_diffrn_orient_matrix_UB_23      -0.0826299114
_diffrn_orient_matrix_UB_31      0.1024773845
_diffrn_orient_matrix_UB_32      -0.0086478293
_diffrn_orient_matrix_UB_33      0.1532137982
_diffrn_radiation_monochromator  mirror
_diffrn_radiation_type           CuK\a
_diffrn_radiation_wavelength     1.54178
_diffrn_reflns_av_R_equivalents  0.1595
_diffrn_reflns_av_unetI/netI     0.0887
_diffrn_reflns_Laue_measured_fraction_full 0.943
_diffrn_reflns_Laue_measured_fraction_max 0.965
_diffrn_reflns_limit_h_max       8
_diffrn_reflns_limit_h_min       -8
_diffrn_reflns_limit_k_max       8
_diffrn_reflns_limit_k_min       -8
_diffrn_reflns_limit_l_max       10
_diffrn_reflns_limit_l_min       -10
_diffrn_reflns_number            5585
_diffrn_reflns_point_group_measured_fraction_full 0.943
_diffrn_reflns_point_group_measured_fraction_max 0.965
_diffrn_reflns_theta_full        67.679
_diffrn_reflns_theta_max         66.716
_diffrn_reflns_theta_min         5.487
_diffrn_source                   'Enhance Ultra (Cu) X-ray Source'
_exptl_absorpt_coefficient_mu    30.530
_exptl_absorpt_correction_T_max  0.524
_exptl_absorpt_correction_T_min  0.119
_exptl_absorpt_correction_type   analytical
_exptl_absorpt_process_details
;
;
_exptl_crystal_colour_primary    red
_exptl_crystal_density_diffrn    2.876
_exptl_crystal_description       rod
_exptl_crystal_F_000             298
_exptl_crystal_size_max          0.1173
_exptl_crystal_size_mid          0.0663
_exptl_crystal_size_min          0.0281
_refine_diff_density_max         3.077
_refine_diff_density_min         -3.033
_refine_diff_density_rms         0.431
_refine_ls_extinction_method     none
_refine_ls_goodness_of_fit_ref   1.081
_refine_ls_hydrogen_treatment    mixed
_refine_ls_matrix_type           full
_refine_ls_number_parameters     117
_refine_ls_number_reflns         1312
_refine_ls_number_restraints     61
_refine_ls_restrained_S_all      1.056
_refine_ls_R_factor_all          0.0637
_refine_ls_R_factor_gt           0.0609
_refine_ls_shift/su_max          0.002
_refine_ls_shift/su_mean         0.000
_refine_ls_structure_factor_coef Fsqd
_refine_ls_weighting_details
'w=1/[\s^2^(Fo^2^)+(0.1130P)^2^+2.0131P] where P=(Fo^2^+2Fc^2^)/3'
_refine_ls_weighting_scheme      calc
_refine_ls_wR_factor_gt          0.1605
_refine_ls_wR_factor_ref         0.1638
_reflns_Friedel_coverage         0.000
_reflns_number_gt                1224
_reflns_number_total             1312
_reflns_threshold_expression     'I > 2\s(I)'
_cod_data_source_file            ic5012082_si_006.cif
_cod_data_source_block           1
_cod_depositor_comments
'Adding full bibliography for 4341321--4341322.cif.'
_cod_original_cell_volume        383.24(11)
_cod_database_code               4341321
#BEGIN Tags that were not found in dictionaries:
_shelxl_version_number           2014-3
_chemical_oxdiff_formula         'W2 P3 C7 O7 H7'
_shelx_space_group_comment
;
The symmetry employed for this shelxl refinement is uniquely defined
by the following loop, which should always be used as a source of
symmetry information in preference to the above space-group names.
They are only intended as comments.
;
_olex2_refinement_description
;
1. Others
 Fixed Sof: C2(0.86) O2(0.86) P2(0.36) H2A(0.36) H2B(0.36) H2C(0.36) C4(0.64)
 O4(0.64) P3(0.14) H3A(0.14) H3B(0.14) H3C(0.14)
 Fixed Uiso: H2A(0.053) H2B(0.053) H2C(0.053) H1A(0.028) H1B(0.028) H3A(0.056)
 H3B(0.056) H3C(0.056)
;
_shelx_res_file
;
TITL c168_2 in P1 New: P-1
CELL 1.54178 7.0082 7.4298 8.8711 111.05 92.726 114.076
ZERR 1 0.001 0.001 0.0013 0.013 0.012 0.013
LATT 1

SFAC C H O P W
UNIT 7 7 7 3 2
DFIX 1.3 0.05 P3 H3c P3 H3a P3 H3b P2 H2b P2 H2c P2 H2a
SADI 0.001 W1 P1 W1 P2
SADI 0.01 W1 C1 W1 C3 W1 C2 W1 C4
SADI 0.01 O3 C3 O2 C2 O1 C1 O4 C4
SIMU 0.001 0.001 2 C2 P3 O2 C4 P2 O4 C1 O1

L.S. 10
PLAN  20
TEMP -150
MORE -1
BOND $H
CONF
fmap 2
acta
MERG 2
OMIT 1 -7 9
REM <HKL>C:/Xray/c168_2/C168_2_calc/1.hkl</HKL>

WGHT    0.113000    2.013100
FVAR       0.17480
C1    1   -0.216193    0.058392    0.220057    11.00000    0.03408    0.04075 =
         0.03121    0.00963    0.01373    0.01758
PART 2
C2    1    0.130092    0.477377    0.310074    10.86000    0.05613    0.03021 =
         0.01861    0.00186    0.00864    0.02002
PART 0
C3    1    0.388962    0.283652    0.143852    11.00000    0.03693    0.03075 =
         0.03298    0.01112    0.01821    0.01902
O1    3   -0.384088   -0.003223    0.246852    11.00000    0.03460    0.04128 =
         0.03178    0.00915    0.01336    0.01714
PART 2
O2    3    0.145433    0.646644    0.385619    10.86000    0.05636    0.03024 =
         0.01869    0.00173    0.00858    0.01996
PART 0
O3    3    0.561976    0.356211    0.126966    11.00000    0.03092    0.04036 =
         0.03911    0.00405    0.01827   -0.00065
P1    4   -0.037523    0.203725   -0.068037    11.00000    0.03327    0.01869 =
         0.02222    0.00839    0.00879    0.01093
PART 1
P2    4    0.235121    0.200071    0.448513    10.36000    0.04181    0.03650 =
         0.02049    0.00797   -0.00616    0.01574
AFIX 134
H2A   2    0.378523    0.129710    0.431451    10.36000   -1.50000
H2B   2    0.082220    0.084489    0.501415    10.36000   -1.50000
H2C   2    0.323977    0.401797    0.555077    10.36000   -1.50000
AFIX   0
PART 0
PART 2
C4    1    0.209131    0.193947    0.402287    10.64000    0.04180    0.03639 =
         0.02021    0.00833   -0.00638    0.01583
O4    3    0.289424    0.204445    0.523776    10.64000    0.04217    0.03681 =
         0.02055    0.00808   -0.00644    0.01557
PART 0
W1    5    0.085404    0.170296    0.179853    11.00000    0.03056    0.01869 =
         0.01622    0.00520    0.00705    0.00906
H1A   2   -0.227289    0.222799   -0.079132    11.00000   -1.20000
H1B   2    0.090080    0.353035   -0.128272    11.00000   -1.20000
PART 1
P3    4    0.171645    0.539351    0.358166    10.14000    0.05615    0.03017 =
         0.01858    0.00178    0.00870    0.02009
AFIX 134
H3A   2    0.312793    0.606188    0.491495    10.14000   -1.50000
H3B   2   -0.001182    0.548313    0.398596    10.14000   -1.50000
H3C   2    0.249766    0.662302    0.280437    10.14000   -1.50000
AFIX   0
HKLF 4

REM  c168_2 in P1 New: P-1
REM R1 =  0.0609 for    1224 Fo > 4sig(Fo)  and  0.0637 for all    1312 data
REM    117 parameters refined using     61 restraints

END

WGHT      0.1130      2.0131

REM Highest difference peak  3.077,  deepest hole -3.033,  1-sigma level  0.431
Q1    1   0.2077  0.1672  0.1601  11.00000  0.05    3.08
Q2    1  -0.0331  0.1723  0.2026  11.00000  0.05    2.89
Q3    1   0.0833  0.1865  0.3113  11.00000  0.05    2.32
Q4    1   0.1540  0.3274  0.2424  11.00000  0.05    2.19
Q5    1   0.0312  0.0125  0.1028  11.00000  0.05    2.02
Q6    1   0.1129  0.1803  0.0595  11.00000  0.05    1.82
Q7    1   0.3822  0.2599  0.2626  11.00000  0.05    1.59
Q8    1  -0.0726  0.0311 -0.1800  11.00000  0.05    1.35
Q9    1   0.4073  0.0922  0.2444  11.00000  0.05    1.18
Q10   1  -0.1589 -0.0811  0.1880  11.00000  0.05    1.14
Q11   1   0.3149  0.4240  0.1734  11.00000  0.05    1.14
Q12   1  -0.1226 -0.0015  0.0418  11.00000  0.05    1.03
Q13   1  -0.2121  0.0873  0.0997  11.00000  0.05    1.02
Q14   1  -0.4093  0.1779  0.2323  11.00000  0.05    1.01
Q15   1  -0.0076  0.3989  0.3462  11.00000  0.05    1.00
Q16   1   0.2766  0.3191  0.3455  11.00000  0.05    0.99
Q17   1  -0.1951  0.2447  0.1316  11.00000  0.05    0.99
Q18   1   0.0864  0.2263 -0.1202  11.00000  0.05    0.96
Q19   1  -0.0643  0.1008  0.3362  11.00000  0.05    0.95
Q20   1  -0.2876 -0.0653  0.2244  11.00000  0.05    0.94
;
_shelx_res_checksum              67043
_shelx_hkl_file
;
  -1   1  -2   31.77    1.04
   0   1  -2   59.56    1.31
  -1   2  -2  392.32    3.51
   0   2  -2   34.77    1.07
   0   3  -2   56.73    1.73
  -2   0  -1   83.43    1.34
  -1   0  -1    7.86    0.44
   0   1  -1  544.31    2.75
  -1  -1   1  419.98    1.90
   1   1   1   28.25    0.73
  -2  -1   2  444.41    3.17
  -1  -1   2  234.09    2.35
   1   0   2  153.06    2.28
   1   1   2   78.58    1.71
  -1  -2   3  209.83    2.79
  -2  -1   3   21.04    0.98
  -1  -1   3   45.70    1.39
   0  -1   3  440.90    4.38
   1  -1   3 1000.00    6.91
  -1   0   3   96.91    2.03
   0   0   3  556.29    5.01
   1   0   3  158.58    2.89
   0   1   3   16.92    1.02
   1   1   3   56.85    1.87
   0   2   3  286.84    4.13
  -1  -2   4   39.58    1.53
   0  -2   4  229.42    3.68
  -2  -1   4  289.77    3.88
  -1  -1   4  714.34    6.15
   0  -1   4  444.55    5.18
   1  -1   4  225.13    3.96
  -3   0   4  142.77    2.94
  -2   0   4  332.57    4.33
  -1   0   4  152.40    3.00
   0   0   4   36.92    1.64
   1   0   4   18.14    1.39
  -1   1   4   86.07    2.42
   0   1   4  607.19    6.48
  -1  -2   5  625.08    6.58
   0  -2   5  299.94    4.80
  -1  -1   5  182.19    3.67
   0  -1   5   23.45    1.50
   0   1  -3  441.69    4.40
  -1   2  -3   11.86    1.08
  -1   3  -3  108.89    2.07
   2  -2  -2  388.96    3.73
   1  -1  -2  111.06    2.06
  -1   2  -2  171.60    1.99
  -1   3  -2  146.05    1.73
   0   3   0  432.94    3.99
   2  -2   1   49.12    0.82
   1  -1   1  458.47    2.35
   0   1   1  244.15    2.44
   0   2   1  617.63    4.71
   0   3   1   51.87    1.96
   2  -2   2   59.39    1.37
   3  -2   2    9.19    0.94
   1  -1   2   34.89    1.18
   2  -1   2  308.09    3.27
   3  -1   2  711.89    5.83
   1   0   2  228.00    2.88
   2   0   2  335.73    3.88
   0   1   2  556.76    4.77
   1   1   2  159.59    2.84
   2   1   2   20.14    1.51
   0   2   2   61.25    2.17
   3  -2   3  404.55    4.67
   2  -1   3  384.32    4.47
   1   0   3  234.35    3.61
   2   0   3   30.74    1.74
   1   1   3   63.61    2.39
   1   0  -3   72.43    1.42
   1   0  -2   10.50    0.55
  -1   2  -2  348.02    2.76
  -2   3  -2  399.88    3.20
   1  -3   0  613.58    3.75
  -1   1   0  390.32    1.10
   0  -4   1  167.13    2.99
   1  -4   1   95.51    2.06
   0  -3   1   52.78    1.39
   1  -3   1    4.37    0.56
   0  -2   1   82.84    1.35
   0  -1   1  558.46    2.59
  -1   0   1  390.83    1.85
  -2   1   1   86.03    0.77
   0  -4   2    7.89    1.05
   0  -3   2   88.60    1.87
  -2  -2   2   68.89    1.68
  -1  -2   2  164.80    2.26
   0  -2   2   36.08    1.06
  -3  -1   2  316.52    3.50
  -2  -1   2  458.31    3.53
  -1  -1   2  199.07    2.09
  -3   0   2  270.78    2.70
  -2   0   2   36.03    0.90
  -1  -3   3  267.94    3.52
  -2  -2   3   90.42    1.98
  -1  -2   3  176.01    2.53
  -3  -1   3  160.27    2.67
  -2  -1   3   17.00    0.87
   0  -1  -2  423.45    3.08
  -1   0  -2  154.95    1.88
  -2   2  -2   42.07    0.85
   0  -2  -1  410.27    2.69
   1  -2  -1  800.23    3.11
  -1  -1  -1   31.07    0.82
   0  -1  -1  183.61    1.54
   4  -1  -1  127.93    2.15
   3   0  -1  290.26    2.98
  -1   1  -1  327.15    1.59
   3   1  -1    1.25    0.65
   2   2  -1   83.91    1.70
   0   3  -1   49.18    0.95
   1   3  -1  347.63    3.25
   2  -2   0   57.32    0.55
   3  -2   0  149.51    1.48
   4  -2   0   54.28    1.25
   0  -1   0  136.97    0.89
   2  -1   0  147.76    1.31
   3  -1   0  199.81    2.12
   4  -1   0   41.04    1.28
   1   0   0  470.21    1.96
   2   0   0   92.10    1.31
   3   0   0    0.34    0.47
   0   1   0  153.73    1.00
   1   1   0    6.13    0.40
   2   1   0   72.25    1.39
   0   2   0  230.31    1.82
   1   2   0  419.62    3.18
   2   2   0  273.61    3.19
   1   3   0  197.50    2.73
   3  -2   1  155.88    1.68
   4  -2   1   24.05    0.97
   2  -1   1   60.89    1.01
   3  -1   1    4.24    0.45
   1   0   1    6.72    0.41
   2   0   1   84.50    1.44
   3   0   1  148.35    2.33
   1   1   1   30.70    0.89
   2   1   1  230.72    2.76
   1   3  -4  128.50    2.23
   2   2  -3   60.62    1.51
   0   3  -3  217.82    2.27
   1   3  -3  193.88    2.44
   3  -2  -2  439.11    3.49
   3   0  -2  218.20    2.74
   2   1  -2  330.98    3.03
   1   2  -2  141.76    1.77
  -1   3  -2  320.75    1.46
   3  -2  -1    3.85    0.32
   2  -1  -1   90.71    1.22
   3  -1  -1  222.05    2.30
   2   0  -1  803.12    3.81
   1   1  -1  278.09    1.97
  -3   2  -1  112.54    1.56
  -2   2  -1   36.50    0.54
   1  -3   0  447.53    1.97
   0  -2   0  212.25    1.55
  -1  -1   0    6.79    0.37
   1  -1   0  385.71    1.10
  -2   0   0  111.95    1.45
   1  -1  -3   89.75    1.58
   1  -1  -2   76.50    1.12
   0   0  -2  198.36    1.91
  -1   1  -2   35.72    0.93
  -2   2  -2   50.78    1.22
   1  -1  -1    6.00    0.24
  -1   1  -1  364.47    2.14
  -3   2  -1  177.40    2.05
  -2   2  -1   39.73    0.85
  -3   2   0  172.90    1.43
   1  -2   1  328.87    2.44
   2  -4   2  141.67    2.39
   1  -3   2  449.52    3.99
   1  -2   2  350.81    3.04
   0  -1   2   64.05    1.20
  -1   0   2   12.13    0.56
   1  -4   3  332.97    4.26
   2  -4   3  413.20    4.64
   0  -3   3  261.14    3.46
   1  -3   3  291.92    3.58
   0  -2   3   53.61    1.47
   1  -2   3   22.78    1.11
  -1  -1   3   45.19    1.24
   0  -1   3  408.51    3.53
  -3   0   3   10.57    0.71
  -2   0   3  111.79    1.73
   0  -3   4   44.79    1.66
   1  -3   4    4.32    0.89
  -2  -2   4   24.11    1.27
  -1  -2   4   32.04    1.37
   0  -2   4  195.11    3.02
  -2  -1   4  243.70    3.25
  -1  -1   4  630.18    4.92
  -2   0   4  336.94    3.36
  -2  -1   5  294.25    3.93
  -2   2  -5    0.53    1.56
  -1   2  -5   94.65    2.06
  -3   3  -5   33.46    2.03
  -2   3  -5  181.44    3.16
  -1   1  -4  203.41    2.72
  -3   2  -4   77.55    2.36
  -2   2  -4  271.98    3.53
  -4   3  -4   98.91    3.07
  -3   3  -4   75.28    2.24
  -3   1  -3  166.16    3.22
  -2   1  -3  283.99    3.47
  -1   1  -3  901.46    4.83
   0   1  -3  354.17    2.22
  -4   2  -3  213.02    4.06
  -3   2  -3  316.23    4.09
  -4   3  -3   48.39    2.12
  -3   1  -2  529.08    5.07
  -2   1  -2  223.86    2.73
  -4   2  -2  103.74    2.72
  -2   0  -1   90.88    1.81
  -1   0  -1    6.65    0.62
  -4   1  -1  144.81    2.95
  -5   2  -1    0.84    2.32
  -4   2  -1   31.27    1.45
  -5   3  -1  152.75    3.57
  -2   0   0   94.30    1.54
  -1   0   0  445.42    2.17
  -4   1   0   57.50    1.72
  -3   1   0  205.30    2.54
  -4   2   0   73.66    1.88
  -5   3   0  125.64    3.14
  -2   0   1  704.64    3.18
  -1   0   1  400.47    1.26
   0   0   1  136.63    0.90
  -4   1   1  188.02    2.61
  -3   1   1  245.30    2.37
   2  -2  -4  129.20    2.59
   2  -3  -3   17.09    1.26
   2  -2  -3   13.74    0.93
   3  -2  -3   87.12    1.91
   2  -1  -3  202.25    2.21
   3  -1  -3  122.45    1.80
   0   1  -3  343.61    1.60
   2  -4  -2   72.41    2.64
   3  -4  -2   16.51    1.41
   4  -4  -2    2.31    1.82
   2  -3  -2   16.29    1.13
   3  -3  -2  106.67    2.51
   4  -3  -2  227.78    3.79
   2  -2  -2  189.61    2.77
   3  -2  -2  412.66    4.06
   4  -2  -2  151.74    2.73
   2  -1  -2  104.44    1.53
   3  -1  -2    3.55    0.47
   1   0  -2   10.45    0.33
   0   1  -2   59.31    0.56
   2  -4  -1   14.48    1.25
   3  -4  -1   60.96    2.16
   4  -4  -1  119.91    3.11
   2  -3  -1  230.13    3.51
   3  -3  -1  295.84    3.87
   4  -3  -1   60.26    1.97
   2  -2  -1  163.56    2.33
   3  -2  -1    4.13    0.60
   4  -2  -1   33.76    1.39
   2  -1  -1   82.77    1.34
   1   0  -1  423.38    1.69
   2  -5   0   20.72    1.64
   3  -5   0   35.41    1.74
   2  -4   0  261.88    4.11
   3  -4   0   52.18    1.90
   4  -4   0   18.78    1.33
   2  -3   0   55.42    1.64
   3  -3   0    0.34    0.60
   4  -3   0   37.45    1.58
   2  -2   0   56.19    1.30
   3  -2   0  156.98    2.45
   1  -1   0  388.01    2.21
   2  -1   0  171.18    1.92
   1  -5   1   61.32    2.14
   2  -5   1  234.19    4.08
   3  -5   1   94.78    2.68
   1  -4   1  107.70    2.43
   2  -4   1   25.96    1.28
   4  -4   1   86.82    2.52
   1  -3   1    4.88    0.69
   2  -3   1   74.75    1.67
   3  -3   1  217.27    3.11
   4  -3   1  250.64    3.82
   1  -2   1  310.62    2.54
   2  -2   1   23.64    0.84
   3  -2   1  171.19    2.58
   1  -1   1  353.55    2.10
  -1   0   1  442.19    1.68
   1  -5   2   82.55    2.28
   2  -5   2   70.75    2.05
   3  -5   2    0.93    1.20
   4  -5   2   50.57    2.13
   1  -4   2    8.15    0.73
   2  -4   2  176.06    2.76
   3  -4   2  228.53    3.48
   4  -4   2  296.92    4.42
   1  -3   2  433.66    3.39
   2  -3   2  285.42    3.04
   3  -3   2  194.95    2.95
   0  -2   2   25.93    0.64
   1  -2   2  334.33    2.38
   2  -2   2   48.61    1.22
  -1  -1   2  219.85    1.03
   2  -5   3  113.72    2.41
   3  -5   3  143.58    2.95
   1  -4   3  317.28    3.18
   2  -4   3  480.21    4.31
   3  -4   3  132.23    2.62
   0  -3   3  191.80    1.81
   1  -3   3  291.09    2.51
   2  -3   3   52.40    1.36
   0  -2   3   48.32    0.62
   2  -4   4   20.73    0.97
   4  -1  -2   54.66    1.58
   2   0  -2   35.78    0.73
   3   0  -2  252.24    2.58
   5  -2  -1   79.84    2.44
   4  -1  -1  253.16    3.35
   2   0  -1  737.04    3.56
   3   0  -1  310.40    3.27
   5  -3   0  140.52    3.27
   4  -2   0   90.31    2.18
   5  -2   0  103.96    2.85
   3  -1   0  208.03    2.67
   4  -1   0   63.93    1.94
   1   0   0  473.59    2.27
   2   0   0  101.03    1.65
   5  -3   1  171.13    3.70
   4  -2   1   28.38    1.46
   5  -2   1    4.99    1.91
   2  -1   1   64.60    1.29
   3  -1   1    2.63    0.65
   4  -1   1  140.31    3.13
   4  -3   2   40.16    1.66
   3  -2   2    7.10    0.82
   4  -2   2  102.59    2.64
   0  -1   2   50.44    0.51
   1  -1   2   29.57    0.78
   2  -1   2  222.63    2.70
   3  -1   2  539.83    5.24
   4  -4   3   18.34    1.36
   4  -3   3   49.56    1.97
   1  -2   3   22.71    0.74
   2  -2   3  142.28    2.11
   3  -2   3  338.01    4.03
   4  -4   4   75.25    2.51
   2  -3   4   86.54    1.77
   3  -3   4   77.68    2.11
   4  -3   4  108.99    2.97
   0   0  -6   87.57    2.80
  -1   1  -6  173.63    3.69
   0   1  -6   50.21    2.02
  -2   2  -6  145.23    3.33
  -1   2  -6   86.20    2.47
  -2   3  -6    1.58    1.14
   1  -2  -5   74.71    2.53
   0  -1  -5  275.42    4.70
   1  -1  -5  201.24    3.88
   0   0  -5  137.38    3.13
   1   0  -5   19.03    1.31
  -1   1  -5   24.07    1.36
   0   1  -5   15.16    1.13
  -1   2  -5  107.27    2.49
  -2   3  -5  202.30    3.17
   1  -2  -4  245.63    4.08
   1  -1  -4   59.81    1.94
   0   0  -4   28.41    1.36
   1   0  -4  122.49    2.65
   0   1  -4  282.38    3.59
  -1   2  -4  532.38    4.71
  -2   3  -4   78.37    1.72
   1  -2  -3    8.40    0.97
   1  -1  -3   86.32    2.03
   1   0  -3   66.22    1.65
   0   1  -3  322.89    3.18
  -1   2  -3   20.16    0.84
  -2   3  -3   53.92    1.15
   1  -2  -2  180.33    2.56
   1  -1  -2   56.19    1.34
   0   1  -2   51.22    1.05
  -1   2  -2  322.60    2.17
   1  -1  -1    4.73    0.41
  -2   2   0   31.28    0.65
  -3   3  -5   23.66    1.50
  -4   4  -5   64.03    2.39
  -3   2  -4   70.97    1.77
  -4   3  -4   99.51    2.51
  -3   3  -4   42.98    1.63
  -4   4  -4   35.60    1.74
  -4   5  -4    0.89    1.96
  -2   1  -3  258.68    2.30
  -3   2  -3  269.92    3.19
  -4   3  -3   39.22    1.65
  -5   4  -3    2.51    2.06
  -4   4  -3   12.17    1.36
  -4   5  -3   64.43    2.32
  -1   0  -2  160.73    1.05
  -2   1  -2  216.80    2.03
  -3   2  -2    7.49    0.75
  -4   3  -2   36.59    1.52
  -3   3  -2  158.15    2.65
  -5   4  -2   99.86    2.89
  -4   4  -2  227.62    3.79
  -5   5  -2   86.05    3.03
  -4   5  -2   42.61    2.05
  -4   6  -2   38.31    2.50
  -3   6  -2  118.51    3.06
  -1   0  -1    7.45    0.33
  -2   1  -1   60.17    1.11
  -3   2  -1  160.03    2.32
  -4   3  -1  204.24    3.27
  -3   3  -1  205.90    2.82
  -4   4  -1   93.44    2.40
  -3   4  -1    4.51    0.82
  -4   5  -1   52.04    2.04
  -3   5  -1   80.28    2.17
  -2   1   0  168.93    1.74
  -1   1   0  401.79    1.90
  -3   2   0  168.33    2.35
  -2   2   0   54.12    1.14
  -3   3   0    0.11    0.62
  -2   3   0   59.48    1.32
  -4   4   0   20.38    1.36
  -3   4   0   63.56    1.73
  -2   4   0  261.91    2.90
  -4   5   0  107.07    2.65
  -2   2   1  185.58    2.02
  -1   2   1  808.30    2.93
  -2   3   1  334.00    2.82
   2   3  -7   48.91    2.29
  -2   4  -7    3.28    1.74
  -1   4  -7   39.76    2.07
   0   4  -7   68.48    2.73
   2   3  -6   46.04    2.01
  -2   4  -6   77.68    2.63
  -1   4  -6   55.75    2.30
   0   4  -6   60.58    2.38
   1   4  -6    9.40    1.06
   2   4  -6    1.48    1.65
  -2   5  -6   64.73    2.50
  -1   5  -6   26.17    1.75
   0   5  -6    2.14    1.23
  -2   3  -5  105.28    2.64
   2   3  -5   14.70    1.20
  -2   4  -5   75.85    2.42
  -1   4  -5    8.43    0.98
   0   4  -5    5.10    0.83
   1   4  -5   60.77    2.19
   2   4  -5  151.54    3.28
  -1   5  -5   17.27    1.37
  -2   3  -4   45.15    1.59
   0   3  -4   26.58    1.28
   1   3  -4  107.22    2.51
   2   3  -4  136.29    2.80
  -2   4  -4    7.73    0.87
  -1   4  -4   71.85    2.19
   0   4  -4  240.87    4.01
   1   4  -4  150.50    3.17
  -2   2  -3  123.00    2.03
   2   2  -3   57.21    1.52
  -2   3  -3   32.74    1.22
  -1   3  -3  255.66    3.35
   0   3  -3  200.11    3.01
   1   3  -3  160.11    2.75
  -2   2  -2   39.74    1.00
  -1   2  -2  377.90    3.14
   1   2  -2  147.59    2.07
   2   2  -2   40.32    1.13
  -1   3  -2  407.69    3.81
   0   3  -2   79.21    1.74
  -1   1  -1  341.68    1.94
   1   1  -1  193.40    1.72
   2   1  -1   45.38    0.79
   0   2  -1   90.39    1.40
  -4   3  -6   28.35    1.41
  -5   3  -5    4.24    1.09
  -4   3  -5    1.28    0.86
  -5   4  -5   13.26    1.29
  -4   4  -5   16.42    1.01
  -5   2  -4    5.51    1.09
  -5   3  -4   10.44    0.96
  -4   3  -4   55.63    1.62
  -5   4  -4   26.09    1.25
  -4   4  -4   23.83    1.02
  -5   1  -3    1.89    1.03
  -5   2  -3   32.30    1.53
  -6   3  -3   14.65    1.30
  -5   3  -3   40.03    1.60
  -4   3  -3   35.46    1.28
  -3   3  -3    0.90    0.36
  -2   3  -3   48.72    0.92
  -6   4  -3   16.78    1.33
  -5   4  -3    1.51    0.86
  -4   4  -3   11.35    0.82
  -3   4  -3   77.35    1.39
  -5   0  -2    0.33    0.99
  -5   1  -2   71.62    2.07
  -6   2  -2   27.64    1.63
  -5   2  -2  147.07    2.80
  -4   2  -2   85.52    1.84
  -6   3  -2   10.22    1.10
  -5   3  -2    0.46    0.70
  -4   3  -2   45.93    1.31
  -3   3  -2  185.44    2.04
  -2   3  -2  428.25    2.40
  -6   4  -2    6.74    1.13
  -5   4  -2   69.43    1.93
  -4   4  -2  301.25    3.26
  -3   4  -2  190.34    2.15
  -4  -1  -1   10.79    0.82
  -5   0  -1   35.44    1.46
  -4   0  -1  190.44    2.71
  -6   1  -1   44.20    1.83
  -5   1  -1  196.85    3.10
  -4   1  -1  132.00    2.18
  -6   2  -1   15.84    1.24
  -5   2  -1    2.86    0.62
  -4   2  -1   32.64    1.09
  -3   2  -1  157.23    1.83
  -2   2  -1   37.08    0.72
  -1   2  -1  315.01    1.47
  -6   3  -1   17.80    1.30
  -5   3  -1  165.46    2.88
  -4   3  -1  317.39    3.30
  -3   3  -1  224.76    2.29
  -2   3  -1   70.64    1.11
  -6   4  -1   96.44    2.48
  -5   4  -1  142.37    2.68
  -4   4  -1   87.17    1.80
  -4  -1   0  109.86    1.90
  -5   0   0   39.99    1.42
  -4   0   0   61.11    1.43
  -3   0   0    0.25    0.35
  -6   1   0   18.61    1.23
  -5   1   0    0.56    0.61
  -4   1   0   66.75    1.46
  -3   1   0  223.82    2.10
  -6   2   0    7.76    1.08
  -5   2   0  104.63    2.27
  -4   2   0  107.08    1.89
  -3   2   0  158.46    1.88
  -2   2   0   51.20    0.90
  -6   3   0   92.61    2.46
  -5   3   0  136.68    2.60
  -4   3   0   41.73    1.28
  -4  -1   1   29.37    1.02
  -3  -1   1    1.30    0.33
  -2  -1   1  100.83    1.06
  -5   0   1   -0.57    0.76
  -4   0   1  111.55    1.85
  -3   0   1  384.65    2.67
  -1   0   1  436.93    1.65
  -5   1   1   80.31    1.94
  -4   1   1  260.26    2.83
  -3   1   1  262.38    2.35
  -2   1   1   93.21    1.17
  -6   2   1   28.29    1.42
  -5   2   1   78.04    1.95
  -4   2   1   38.56    1.19
  -3   2   1    3.56    0.48
  -3  -1   2  338.00    2.42
  -5   0   2   93.78    1.96
  -4   0   2  532.26    3.88
  -3   0   2  292.32    2.42
  -4   1   2   62.51    1.47
  -1   3  -1    3.50    0.87
  -2   4  -1   15.82    1.71
  -4   5  -1   26.23    3.42
  -1   2   0    2.32    1.44
  -2   3   0   95.86    3.20
  -1   3   0  577.98    4.37
  -3   4   0   63.01    3.46
  -2   4   0  274.51    4.23
  -6   5   0   13.40    4.30
  -5   5   0   26.16    3.83
  -4   5   0   53.86    3.58
  -1   2   1  713.19    5.66
  -3   3   1  636.26    8.60
  -2   3   1  220.26    4.69
  -1   3   1  344.62    3.95
  -6   4   1    3.67    3.24
  -5   4   1   71.47    4.88
  -4   4   1  142.99    5.55
  -3   4   1   74.28    3.31
  -2   4   1   14.25    1.31
  -5   5   1   14.32    3.02
  -4   5   1    6.29    2.03
  -1  -1   2  215.51    2.69
  -1   0   2   14.01    1.71
  -2   1   2  233.78    4.30
  -1   1   2   64.90    1.94
  -3   2   2  830.65    9.65
  -2   2   2  198.66    4.44
  -1   2   2  182.74    3.05
  -6   3   2   12.30    3.85
  -5   3   2  207.30    7.10
  -4   3   2  269.49    6.96
  -3   3   2  154.22    4.79
  -2   3   2   31.93    1.95
  -6   4   2   10.05    3.86
  -5   4   2   41.90    4.32
  -4   4   2    3.80    2.29
  -3   4   2   30.62    2.21
  -2   4   2  103.80    2.93
  -5   5   2    6.42    2.64
  -4   5   2   83.38    3.15
  -2  -1   3   15.35    1.64
  -1  -1   3   39.01    1.25
  -2   0   3  107.99    3.13
  -1   0   3   83.89    2.05
  -6   1   3    1.82    3.95
  -4   1   3  179.18    5.32
  -3   1   3  156.83    4.48
  -2   1   3  159.41    4.11
  -1   1   3   97.98    2.32
  -6   2   3   13.21    3.51
  -5   2   3  134.31    6.03
  -4   2   3  248.64    6.59
  -3   2   3   86.32    3.83
  -2   2   3   21.36    1.74
  -6   3   3   35.83    3.96
  -5   3   3   67.81    5.05
  -4   3   3    9.92    3.03
  -3   3   3    4.97    1.66
  -2   3   3   26.29    1.77
  -5   4   3   18.11    2.56
  -4   4   3   69.14    3.16
  -3   4   3   94.92    3.06
  -4   5   3  135.91    3.63
  -2  -1   4  240.07    3.47
  -1  -1   4  635.11    4.62
  -4   0   4   38.70    3.06
  -3   0   4   95.84    3.41
  -2   0   4  247.27    3.85
  -1   0   4  170.45    2.99
  -5   1   4   23.28    3.38
  -4   1   4  102.97    4.10
  -3   1   4   65.48    3.09
  -2   1   4    1.88    1.08
  -5   2   4   24.86    3.57
  -4   2   4    6.30    2.33
  -3   2   4   11.80    1.72
  -2   2   4  131.21    3.29
  -5   3   4    9.66    2.12
  -4   3   4   36.09    2.52
  -3   3   4  113.56    3.46
  -4   4   4   63.12    2.75
  -2  -1   5  262.79    3.44
  -4   0   5   96.12    3.21
  -3   0   5  123.12    3.16
  -5   1   5   15.07    2.27
  -4   1   5    0.51    1.35
  -3   1   5   44.76    2.24
  -2   1   5  290.36    4.70
  -5   2   5    3.77    1.84
  -4   2   5  103.72    3.52
  -3   2   5  224.30    4.50
  -4   3   5   68.85    2.79
  -3   0   6   32.36    1.76
  -4   1   6  146.74    3.44
  -3   1   6  280.26    4.83
  -4   2   6  151.96    3.77
  -3   2  -7    8.77    1.22
  -2  -1  -6   55.35    1.87
  -3   1  -6   14.11    1.10
  -4   2  -6   27.73    1.31
  -3   2  -6   25.40    1.37
  -3  -1  -5    8.42    1.14
  -2  -1  -5   -0.38    0.82
  -3   0  -5   14.27    1.08
  -4   1  -5   23.68    1.34
  -3   1  -5   38.79    1.57
  -4   2  -5   34.08    1.48
  -4   3  -5   -0.27    0.96
  -2  -2  -4    4.96    0.89
  -3  -1  -4   34.71    1.49
  -4   0  -4   28.30    1.44
  -3   0  -4   82.38    2.10
  -5   1  -4   16.24    1.17
  -4   1  -4   19.08    1.08
  -3   1  -4    5.84    0.69
  -5   2  -4    2.97    1.12
  -4   2  -4   -0.40    0.76
  -4   3  -4   71.37    1.64
  -3   3  -4   52.79    1.28
  -3  -2  -3   30.65    1.34
  -2  -2  -3  192.53    2.78
  -4  -1  -3   62.14    1.94
  -3  -1  -3  216.47    3.23
  -2  -1  -3  198.44    2.77
  -5   0  -3   21.73    1.31
  -4   0  -3   32.75    1.40
  -3   0  -3    8.31    0.75
  -5   1  -3    1.61    0.93
  -4   1  -3   12.61    0.90
  -3   1  -3  158.74    2.38
  -5   2  -3   20.64    1.15
  -4   2  -3  153.20    2.48
  -3   2  -3  268.87    2.77
  -5   3  -3   21.46    1.00
  -4   3  -3   37.58    1.13
  -3   3  -3    0.42    0.41
  -4  -2  -2   22.83    1.26
  -3  -2  -2  114.55    2.28
  -2  -2  -2  142.31    2.19
  -4  -1  -2   66.28    1.92
  -3  -1  -2   24.80    1.05
  -2  -1  -2   19.37    0.82
  -4   0  -2   12.66    0.89
  -3   0  -2  146.72    2.22
  -5   1  -2   58.51    1.89
  -4   1  -2  231.62    3.08
  -3   1  -2  535.74    3.75
  -5   2  -2   89.38    2.12
  -4   2  -2   84.04    1.68
  -3   2  -2    9.26    0.50
  -4   3  -2   38.11    1.02
  -2  -3  -1   10.33    0.67
  -1  -3  -1    1.36    0.45
  -3  -2  -1    2.30    0.64
  -2  -2  -1   43.66    1.12
  -1  -2  -1  166.18    1.72
  -4  -1  -1    8.39    0.82
  -3  -1  -1  116.70    2.01
  -2  -1  -1  269.86    2.40
  -4   0  -1  141.54    2.45
  -3   0  -1  187.78    2.25
  -2   0  -1   98.80    1.30
  -5   1  -1  136.52    2.71
  -4   1  -1  121.91    2.10
  -3   1  -1    3.05    0.40
  -2   1  -1   68.74    0.93
  -4   2  -1   24.87    0.92
  -3   2  -1  179.87    1.72
  -2   2  -1   24.88    0.46
  -2  -3   0   23.55    0.90
  -1  -3   0  275.67    2.17
  -3  -2   0   82.44    1.75
  -2  -2   0  324.77    2.70
  -1  -2   0  484.12    2.49
  -4  -1   0   59.06    1.73
  -3  -1   0   67.87    1.45
  -2  -1   0   87.44    1.26
  -1  -1   0    8.12    0.33
  -4   0   0   47.10    1.44
  -3   0   0    1.33    0.36
  -2   0   0  121.05    1.27
  -3   1   0  255.31    2.24
  -2   1   0  273.60    1.65
  -2  -1   1  115.11    1.43
  -2   4  -7    2.82    1.23
  -3   5  -7   21.49    1.64
  -2   5  -7   73.08    2.38
  -1   3  -6   16.43    1.27
   0   3  -6  182.09    2.95
  -2   4  -6   81.82    2.53
  -1   4  -6   31.41    1.68
  -3   5  -6   94.91    2.98
  -2   5  -6   33.24    1.95
  -1   5  -6   55.97    2.22
  -3   6  -6    3.96    1.29
   0   2  -5   61.74    1.65
   0   3  -5   56.25    1.81
  -1   4  -5    6.05    1.23
  -2   5  -5   -0.58    1.26
  -1   5  -5   39.66    1.96
  -4   6  -5    0.96    1.33
  -3   6  -5    8.97    1.48
   0   2  -4   64.35    1.66
   0   3  -4   26.07    1.40
  -1   4  -4   30.94    1.72
  -1   5  -4  141.74    3.18
  -3   6  -4   27.77    1.99
  -2   6  -4   42.23    2.07
   0   2  -3   18.23    1.06
   0   3  -3  175.47    2.77
  -1   4  -3   72.17    2.20
  -2   5  -3   25.28    1.73
  -4   6  -3    6.17    1.55
  -3   6  -3   -0.32    1.19
   0   3  -2   92.73    1.94
  -3   5  -2    0.34    1.01
  -2   5  -2   46.23    1.91
  -4   6  -2   10.99    1.44
  -3   6  -2  180.82    3.50
   0   2  -1   85.26    1.47
  -1   3  -1    1.78    0.78
  -2   4  -1    8.73    1.03
  -3   5  -1   19.88    1.44
  -1   3   0  717.51    4.08
  -2   4   0  283.36    3.08
   1   0  -8   62.50    1.79
   2   0  -8    3.60    0.91
   0   1  -8    1.51    0.72
  -1   2  -8   37.11    1.29
   0   2  -8  116.18    2.31
   1   2  -8  148.56    2.63
  -1   3  -8  108.68    2.05
   0   3  -8  139.62    2.37
   1   3  -8   47.12    1.48
   2  -1  -7    1.33    0.86
   3  -1  -7   27.08    1.28
   1   0  -7   11.79    0.86
   2   0  -7   64.28    1.91
   3   0  -7   99.15    2.29
   1   1  -7  138.65    2.59
   2   1  -7   57.07    1.71
   3   1  -7   10.41    0.80
   0   2  -7  109.29    2.15
   1   2  -7   55.44    1.64
   2   2  -7    2.44    0.63
  -2   3  -7  186.44    2.53
  -1   3  -7   48.50    1.38
   0   3  -7    2.41    0.56
   1   3  -7   25.91    1.12
   0   4  -7   89.74    1.76
   2  -2  -6    0.72    0.91
   2  -1  -6  161.27    2.80
   3  -1  -6  159.13    2.76
   2   0  -6  108.18    2.26
   3   0  -6   23.59    1.13
   1   1  -6   12.77    0.82
   2   1  -6    7.26    0.71
   3   1  -6   77.92    1.98
   1   2  -6   59.79    1.55
   2   2  -6  130.07    2.36
  -1   3  -6   39.85    1.13
   0   3  -6  119.26    1.99
   1   3  -6   98.57    1.89
   3  -2  -5  140.58    2.45
   2  -1  -5  225.19    2.99
   3  -1  -5   32.95    1.24
   2   0  -5    6.68    0.66
   3   0  -5   99.31    2.02
   1   1  -5  142.01    2.16
   2   1  -5  213.50    2.76
   0   2  -5  178.93    2.21
   1   2  -5  366.18    3.37
   2   2  -5  160.11    2.42
  -1   3  -5  121.05    1.68
   0   3  -5   55.06    1.22
   3  -2  -4    7.44    0.62
   3  -1  -4   62.09    1.46
   2   0  -4  206.60    2.46
   3   0  -4   95.11    1.77
   1   1  -4  441.84    3.24
   2   1  -4  193.84    2.31
   0   2  -4  146.52    1.74
   1   2  -4   25.28    0.83
  -1   3  -4    2.98    0.32
   0   3  -4   33.78    0.84
   3  -2  -3   77.55    1.39
   2  -1  -3  169.93    1.94
   3  -1  -3   97.92    1.55
   2   0  -3   80.61    1.33
   1   1  -3   35.84    0.83
   2   1  -3   15.12    0.63
   0   2  -3   46.33    0.85
   1   2  -3  147.11    1.64
  -1   3  -3  256.76    1.61
   3  -2  -2  425.09    2.51
   2  -1  -2   96.55    1.19
   2   0  -2   34.61    0.74
   1   1  -2  189.49    1.49
   0   2  -2   36.85    0.60
   2  -1  -1   91.20    0.88
   0   0  -8  101.23    1.99
   1   0  -8   56.07    1.54
   2   0  -8    5.61    0.74
  -1   1  -8   53.47    1.44
   0   1  -8    2.27    0.62
  -1   2  -8   33.90    1.21
  -2   3  -8   46.33    1.38
   1  -2  -7   48.63    1.45
   2  -2  -7   51.22    1.47
  -1  -1  -7  227.02    2.96
   0  -1  -7   99.55    2.06
   1  -1  -7   22.04    1.05
   2  -1  -7   -0.27    0.63
   3  -1  -7   28.99    1.18
  -2   0  -7   86.57    1.70
  -1   0  -7   70.38    1.70
   1   0  -7   10.06    0.73
   2   0  -7   56.69    1.54
   3   0  -7   94.50    1.86
  -2   1  -7    1.52    0.71
  -1   1  -7   36.92    1.26
  -2   2  -7  135.45    2.18
   0  -2  -6   80.94    1.87
   1  -2  -6   10.49    0.79
   2  -2  -6    2.30    0.75
   3  -2  -6   41.89    1.27
  -1  -1  -6   20.13    1.02
   0  -1  -6   -0.08    0.51
   1  -1  -6   39.54    1.24
   2  -1  -6  154.68    2.34
   3  -1  -6  154.64    2.25
  -2   0  -6    0.92    0.50
  -1   0  -6   20.78    0.93
   0   0  -6   75.50    1.64
  -2   1  -6   85.02    1.68
   3  -3  -5   22.31    0.98
   0  -2  -5    3.62    0.53
   1  -2  -5   66.23    1.59
   2  -2  -5  185.24    2.48
   3  -2  -5  156.09    2.16
  -1  -1  -5   53.58    1.42
   0  -1  -5  220.49    2.65
   1  -1  -5  161.97    2.21
   3  -1  -5   47.14    1.17
  -2   0  -5   61.71    1.41
  -1   0  -5  210.02    2.45
  -2   1  -5   36.83    1.01
   1  -3  -4   40.60    1.30
   2  -3  -4   79.76    1.67
   3  -3  -4   94.89    1.69
  -1  -2  -4   64.67    1.57
   0  -2  -4  276.75    2.97
   1  -2  -4  217.29    2.47
   2  -2  -4  123.53    1.78
   3  -2  -4   10.32    0.57
  -2  -1  -4  148.80    2.15
  -1  -1  -4  177.91    2.22
   0  -1  -4  354.05    2.87
   1  -1  -4   54.56    1.10
  -2   0  -4   79.88    1.40
  -1   0  -4   12.53    0.57
   1  -3  -3  146.22    2.18
   2  -3  -3   23.34    0.84
   3  -3  -3    4.93    0.45
   0  -2  -3  177.56    2.09
   1  -2  -3    7.99    0.48
   2  -2  -3   18.43    0.63
  -2  -1  -3  204.18    2.23
  -1  -1  -3   43.92    0.95
   0  -1  -3   12.97    0.52
  -2   0  -3   19.11    0.62
   2  -3  -2   28.03    0.78
   0  -2  -2   39.13    0.87
   1  -2  -2  154.99    1.50
   2  -2  -2  237.19    1.73
  -1  -1  -2   76.90    1.06
   0  -1  -2  392.35    2.09
  -2   0  -2  217.64    1.57
   0  -2  -1  388.46    2.29
   1  -2  -1  762.92    2.80
   2  -2  -1  184.76    1.21
  -1  -1  -1   30.36    0.57
   0   2  -8   91.69    1.95
   1   2  -8  123.10    2.40
   2   2  -8  102.60    2.26
  -1   3  -8   61.99    1.60
   0   3  -8  106.25    2.25
   1   3  -8   46.16    1.62
  -1   4  -8    7.35    0.76
   0   4  -8    1.03    0.71
   1   4  -8   39.04    1.49
   2   4  -8   50.84    1.60
   0   5  -8   58.03    1.74
   0   1  -7   70.81    1.60
   1   1  -7  127.12    2.31
   2   1  -7   59.95    1.72
  -1   2  -7  103.16    1.91
   0   2  -7   94.67    2.01
   1   2  -7   53.72    1.64
   2   2  -7    2.40    0.68
   1   3  -7   26.71    1.26
   2   3  -7   77.44    2.04
   3   3  -7   43.31    1.49
   1   4  -7   70.93    1.97
   2   4  -7   41.70    1.48
   1   5  -7   31.34    1.37
   0   1  -6   46.75    1.28
   1   1  -6   15.49    0.88
   2   1  -6    9.90    0.77
   1   2  -6   54.79    1.65
   2   2  -6  160.76    2.74
   3   2  -6  169.02    2.84
   2   3  -6   61.26    1.81
   2   4  -6    2.14    0.82
   0   0  -5  130.14    1.73
   1   0  -5   20.02    0.80
   2   0  -5    9.58    0.64
  -1   1  -5   18.87    0.76
   0   1  -5   14.97    0.74
   1   1  -5  146.31    2.23
   2   1  -5  239.20    2.93
   3   1  -5  258.84    3.22
   2   2  -5  157.91    2.63
   3   2  -5   17.48    0.99
   2   3  -5   22.94    1.10
   2   4  -5  108.41    2.15
   0   0  -4   29.11    0.76
   1   0  -4  120.49    1.64
   2   0  -4  248.91    2.57
   2   1  -4  204.95    2.44
   3   1  -4   29.45    1.03
   2   2  -4   14.84    0.84
   3   2  -4   49.21    1.30
   0   0  -3  432.18    2.41
   1   0  -3   81.09    1.17
   2   0  -3   83.57    1.31
   2   1  -3   13.22    0.64
   3   1  -3  138.90    1.82
   2   0  -2   35.58    0.74
   2   1  -2  435.28    2.61
  -2   5  -7   54.86    1.66
   1   5  -7   28.04    1.23
  -2   6  -7   24.21    1.22
  -1   6  -7   10.28    0.91
   0   6  -7   -0.49    0.86
  -2   5  -6   58.47    1.75
   1   5  -6   17.38    1.00
  -3   6  -6    6.61    1.05
  -2   6  -6    0.46    0.85
  -1   6  -6   15.79    1.06
   0   6  -6   43.58    1.63
   1   6  -6   38.88    1.53
  -2   7  -6   52.94    1.82
   2   4  -5  156.55    2.47
  -3   5  -5   15.43    0.97
  -1   5  -5   19.14    1.03
   0   5  -5   85.69    2.03
   1   5  -5   72.94    1.91
  -3   6  -5   20.01    1.19
  -2   6  -5   46.67    1.75
  -1   6  -5   51.16    1.79
   0   6  -5   24.85    1.26
   1   6  -5    0.38    1.06
  -3   4  -4    4.97    0.54
   2   4  -4   72.61    1.67
  -3   5  -4   20.82    1.07
  -2   5  -4   90.68    2.07
  -1   5  -4   65.51    1.77
   0   5  -4   45.88    1.49
   1   5  -4    0.68    0.68
  -3   6  -4   57.21    1.89
  -2   6  -4   20.32    1.18
  -1   6  -4    0.62    0.71
   0   6  -4   21.77    1.20
   2   3  -3   53.05    1.18
  -3   4  -3   57.26    1.41
  -2   4  -3  284.78    2.91
  -1   4  -3  197.80    2.45
   0   4  -3   85.53    1.66
   1   4  -3    8.35    0.62
  -3   5  -3   64.81    1.74
  -2   5  -3   58.24    1.68
  -1   5  -3    0.44    0.50
   0   5  -3   18.39    1.01
   1   5  -3   34.49    1.30
  -3   3  -2  172.33    1.79
  -1   3  -2  414.43    2.80
   0   3  -2   84.41    1.30
   1   3  -2    6.51    0.47
  -3   4  -2  141.79    2.09
  -2   4  -2  132.88    2.02
  -1   4  -2    6.37    0.53
   0   4  -2    6.62    0.55
   1   4  -2   48.42    1.29
  -2   5  -2   40.05    1.38
  -1   5  -2   43.69    1.44
  -1   2  -1  387.54    2.02
   0   2  -1   95.75    1.03
   1   2  -1   -0.10    0.23
  -2   3  -1  100.29    1.41
  -1   3  -1    7.17    0.47
   0   3  -1   58.98    1.12
   1   3  -1  352.95    2.79
  -1   4  -1   90.33    1.69
   0   2   0  302.51    1.93
  -5   3  -6   46.48    2.32
  -5   1  -5    4.16    1.43
  -5   3  -5    7.86    1.20
  -5   0  -4    3.39    1.69
  -6   2  -4    2.35    1.38
  -6   3  -4   -1.37    1.68
  -5   3  -4   16.08    1.54
  -5   0  -3   33.44    2.12
  -6   1  -3    3.59    1.31
  -5   1  -3    1.12    1.32
  -6   2  -3   -0.48    1.41
  -5   2  -3   28.05    2.07
  -6   3  -3   28.35    2.10
  -5   3  -3   50.75    2.34
  -5   4  -3    4.89    1.15
  -5  -1  -2   52.35    2.54
  -6   0  -2    8.98    1.86
  -5   0  -2    0.07    1.04
  -6   1  -2    4.19    1.23
  -5   1  -2   78.64    3.19
  -6   2  -2   41.06    2.53
  -5   2  -2  140.14    3.89
  -6   3  -2   13.66    1.66
  -5   3  -2    1.22    0.90
  -4   3  -2   40.61    1.73
  -3   3  -2  173.06    2.58
  -5   4  -2  101.87    2.91
  -4  -2  -1   37.81    1.86
  -5  -1  -1    5.21    1.08
  -4  -1  -1   13.02    1.28
  -5   0  -1   59.93    2.65
  -6   1  -1  104.35    3.65
  -5   1  -1  213.16    4.75
  -4   1  -1  142.43    3.21
  -6   2  -1   25.81    1.97
  -5   2  -1    2.60    0.86
  -4   2  -1   27.09    1.39
  -3   2  -1  148.02    2.40
  -6   3  -1   18.24    1.58
  -5   3  -1  149.41    3.67
  -4   3  -1  269.99    3.98
  -3   3  -1  204.28    2.73
  -3  -2   0  138.71    2.86
  -5  -1   0   31.95    1.91
  -4  -1   0  128.98    3.16
  -6   0   0   82.54    3.09
  -5   0   0   60.02    2.57
  -4   0   0   62.34    2.13
  -6   1   0   37.26    2.17
  -5   1   0    0.41    0.70
  -4   1   0   61.36    2.08
  -3   1   0  238.92    3.05
  -5   2   0   92.65    3.01
  -4   2   0   94.94    2.44
  -3   2   0  165.11    2.53
  -3  -2   1  250.47    3.51
  -2  -2   1  129.15    1.94
  -5  -1   1   20.22    1.49
  -4  -1   1   30.19    1.56
  -3  -1   1    0.65    0.53
  -2  -1   1  114.16    1.75
  -4   0   1   99.72    2.61
  -3   0   1  400.55    4.07
  -5   1   1   82.84    2.88
  -4   1   1  230.51    3.88
  -3   1   1  260.90    3.35
  -3  -1   2  331.20    3.85
   1   2  -9   18.64    0.86
   2   2  -9   62.91    1.59
   0   3  -9   26.12    1.02
   1   3  -9   51.15    1.45
   2   3  -9   64.12    1.57
   0   4  -9   38.11    1.23
   1   4  -9   13.11    0.81
   1   1  -8   17.63    0.91
   2   1  -8   60.42    1.65
   3   1  -8   63.29    1.69
   0   2  -8   75.35    1.71
   1   2  -8   80.74    1.90
   2   2  -8   72.78    1.87
   3   2  -8   19.91    1.00
  -1   3  -8   42.25    1.25
   2   3  -8    3.02    0.59
   3   3  -8    8.06    0.70
   2   4  -8   42.67    1.45
   1   0  -7    9.99    0.64
   2   0  -7   61.61    1.62
   3   0  -7  110.90    2.25
   0   1  -7   67.07    1.51
   1   1  -7  106.63    2.11
   2   1  -7   53.47    1.61
   3   1  -7   14.80    0.93
   4   1  -7    2.75    0.62
  -1   2  -7   81.43    1.62
   2   2  -7    2.63    0.55
   3   2  -7   14.92    0.98
   4   2  -7   47.73    1.38
   3   3  -7   35.47    1.32
   0   0  -6   78.39    1.43
   1   0  -6  136.00    2.10
   2   0  -6  118.78    2.13
   3   0  -6   32.44    1.24
   0   1  -6   40.11    1.15
   1   1  -6   12.65    0.76
   2   1  -6    7.69    0.69
   3   1  -6   91.18    2.09
   4   1  -6   76.58    1.84
   3   2  -6  140.51    2.56
   4   2  -6   47.00    1.43
   3   3  -6    1.89    0.69
   2  -1  -5  233.37    2.70
   3  -1  -5   50.71    1.38
   0   0  -5  133.40    1.72
   1   0  -5   20.77    0.80
   2   0  -5    9.73    0.63
   3   0  -5  107.81    2.03
   4   0  -5   96.37    1.95
   3   1  -5  275.42    3.31
   4   1  -5   51.22    1.46
   1  -1  -4   58.54    1.10
   2  -1  -4    2.98    0.35
   3  -1  -4   68.09    1.41
   0   0  -4   26.88    0.71
   1   0  -4  133.02    1.69
   2   0  -4  261.52    2.58
   3   0  -4  108.07    1.81
   4   0  -4   41.86    1.17
   3   1  -4   33.65    1.06
   1  -1  -3   90.87    1.17
   2  -1  -3  212.29    1.98
   3  -1  -3  117.76    1.61
   2   0  -3   91.92    1.33
   3   0  -3    9.94    0.51
   4   0  -3   20.27    0.70
   3   1  -3  117.00    1.69
   2  -1  -2  107.79    1.18
   3   0  -2  249.19    1.90
  -5   5  -6   28.95    1.44
  -6   5  -5   64.07    2.16
  -5   5  -5  101.65    2.63
  -4   5  -5   79.53    2.23
  -3   5  -5   37.05    1.61
  -5   6  -5    2.65    1.38
  -4   6  -5    0.89    1.40
  -2   4  -4   21.24    1.11
  -6   5  -4   43.05    2.00
  -5   5  -4   17.56    1.55
  -3   5  -4   54.05    1.89
  -2   5  -4   69.83    2.14
  -6   6  -4    3.94    1.38
  -5   6  -4   17.86    1.72
  -4   6  -4   36.91    2.13
  -3   6  -4   41.75    2.18
  -5   7  -4   31.02    2.08
  -2   4  -3  490.03    4.13
  -1   4  -3   87.56    2.01
  -7   5  -3    4.52    1.43
  -6   5  -3   -0.12    1.19
  -5   5  -3   37.62    1.97
  -4   5  -3  142.06    3.07
  -3   5  -3  110.55    2.76
  -2   5  -3   25.15    1.77
  -6   6  -3   22.31    2.00
  -5   6  -3   41.23    2.43
  -4   6  -3    5.80    1.82
  -3   6  -3    0.18    1.70
  -5   7  -3    3.88    1.58
  -1   3  -2  332.18    2.89
  -3   4  -2  241.99    3.15
  -2   4  -2  133.86    2.44
  -7   5  -2   10.54    1.57
  -6   5  -2   61.95    2.41
  -5   5  -2  103.00    2.97
  -4   5  -2   54.51    2.28
  -3   5  -2   -0.43    1.40
  -2   5  -2   55.63    2.32
  -6   6  -2    1.24    1.66
  -5   6  -2    3.28    1.83
  -4   6  -2   11.58    2.13
  -2   3  -1   88.58    1.60
  -1   3  -1    1.51    0.95
  -7   4  -1   35.00    1.95
  -6   4  -1  127.16    3.15
  -4   4  -1   99.09    2.39
  -3   4  -1    5.82    1.02
  -2   4  -1   10.48    1.31
  -7   5  -1   12.23    1.80
  -6   5  -1   20.58    1.99
  -5   5  -1   -1.76    1.68
  -4   5  -1   32.61    2.24
  -3   5  -1   20.33    2.00
  -6   6  -1   10.18    1.92
  -5   6  -1   27.30    2.32
  -4   6  -1  117.16    3.75
  -3   3   0    0.19    0.69
  -2   3   0   46.94    1.47
  -7   4   0   45.69    2.23
  -6   4   0   35.52    1.93
  -5   4   0    2.78    1.26
  -4   4   0   19.98    1.52
  -3   4   0   27.64    1.69
  -2   4   0  266.72    3.95
  -7   5   0    1.91    1.90
  -6   5   0   16.69    2.07
  -5   5   0   31.17    2.35
  -4   5   0   25.44    2.27
  -6   6   0   90.27    3.11
  -6   3   1    9.96    1.28
  -5   3   1   -0.54    0.88
  -4   3   1   68.37    1.87
  -3   3   1  249.33    3.23
  -2   3   1  168.56    2.74
  -6   4   1    3.21    1.50
  -5   4   1   42.60    2.23
  -4   4   1   66.69    2.43
  -3   4   1   96.80    2.63
  -6   5   1   28.32    2.12
  -5   5   1   33.20    2.25
  -4   2   2  165.76    2.34
  -3   2   2  297.29    2.95
  -2   2   2  253.90    2.74
  -5   3   2   76.55    2.37
  -4   3   2  109.80    2.52
  -3   3   2  173.61    2.92
  -5   4   2   47.41    2.34
   2   0  -9   84.41    1.54
   0   1  -9   40.19    1.05
   1   1  -9   32.66    1.04
   2   1  -9    2.74    0.59
   3   1  -9    4.73    0.61
   0   2  -9    0.13    0.56
   1   2  -9   16.68    0.82
   2   2  -9   50.00    1.31
   3   2  -9   38.68    1.09
  -1   3  -9    0.52    0.66
   2  -1  -8   72.58    1.56
   3  -1  -8   26.21    0.93
   0   0  -8   85.12    1.61
   1   0  -8   50.82    1.38
   2   0  -8    5.08    0.60
   3   0  -8    4.95    0.55
   4   0  -8   15.94    0.80
   0   1  -8    1.77    0.48
   1   1  -8   15.23    0.88
   2   1  -8   51.20    1.44
   3   1  -8   51.43    1.41
  -1   2  -8   21.03    0.82
   1  -1  -7   18.44    0.88
   2  -1  -7    0.30    0.46
   3  -1  -7   29.03    1.08
   4  -1  -7   70.64    1.56
   0   0  -7    3.73    0.48
   1   0  -7    8.02    0.67
   2   0  -7   53.63    1.51
   3   0  -7   96.45    2.00
   4   0  -7   36.01    1.16
  -1   1  -7   31.54    1.03
   3  -2  -6   36.52    1.22
   1  -1  -6   39.13    1.19
   2  -1  -6  141.29    2.24
   3  -1  -6  167.47    2.47
   4  -1  -6  154.27    2.32
  -1   0  -6   17.89    0.73
   0   0  -6   68.11    1.48
   4   0  -6    0.68    0.59
   1  -2  -5   58.20    1.39
   2  -2  -5  164.53    2.33
   3  -2  -5  175.59    2.43
   4  -2  -5   99.24    1.81
   0  -1  -5  206.53    2.30
   1  -1  -5  169.55    2.17
   2  -1  -5  240.24    2.65
   3  -1  -5   44.08    1.17
   4  -1  -5   -0.48    0.49
  -1   0  -5  189.20    2.05
   1  -2  -4  199.24    2.27
   2  -2  -4  109.91    1.76
   3  -2  -4    8.93    0.54
   4  -2  -4    7.69    0.49
  -1  -1  -4  191.31    1.93
   0  -1  -4  335.70    2.55
   1  -1  -4   50.31    1.04
   2  -1  -4    2.61    0.31
   3  -1  -4   60.84    1.22
  -1   0  -4   12.47    0.49
   1  -2  -3    6.72    0.42
   2  -2  -3   16.84    0.60
   3  -2  -3  100.20    1.40
  -1  -1  -3   39.67    0.75
   0  -1  -3   12.58    0.45
   1  -1  -3   73.69    1.04
   2  -1  -3  193.72    1.73
   3  -1  -3  104.69    1.32
   1  -2  -2  177.35    1.55
   2  -2  -2  222.39    1.74
   3  -2  -2  384.58    2.31
  -4   6  -7   26.92    1.30
  -3   6  -7  116.83    2.33
  -1   5  -6   53.14    1.74
  -3   6  -6   13.58    1.16
  -2   6  -6    1.96    0.85
  -1   6  -6   28.92    1.40
  -4   7  -6   11.47    1.05
  -3   7  -6   73.55    2.06
   0   4  -5    9.89    0.88
  -1   5  -5   37.32    1.67
  -1   6  -5  101.46    2.63
  -3   7  -5  123.56    2.82
  -2   7  -5   46.87    1.82
  -3   8  -5   17.66    1.08
   0   3  -4   39.26    1.23
  -1   5  -4  128.09    2.75
   0   5  -4   85.70    2.36
  -2   6  -4   42.56    1.88
  -4   7  -4   39.68    1.78
  -3   7  -4    7.44    1.26
  -4   8  -4   -0.66    0.93
  -3   8  -4   19.35    1.17
   0   4  -3  143.42    2.62
  -1   5  -3    2.01    0.91
   0   5  -3   33.37    1.61
  -2   6  -3   64.39    2.25
  -1   6  -3  149.17    3.23
  -5   7  -3    4.00    1.08
  -4   7  -3    6.49    1.04
  -3   7  -3   74.55    2.29
  -2   7  -3  102.65    2.61
   0   3  -2   79.34    1.65
  -1   4  -2    7.96    0.91
   0   4  -2    6.66    0.79
  -2   5  -2   52.36    1.90
  -1   5  -2   81.52    2.21
  -3   6  -2  173.60    3.42
  -2   6  -2  199.96    3.57
  -5   7  -2   48.64    1.85
  -4   7  -2   87.91    2.34
   0   3  -1   50.46    1.34
  -1   4  -1  102.00    2.07
   0   4  -1  196.32    2.97
  -2   5  -1  222.57    3.33
  -1   5  -1   55.22    1.80
  -4   6  -1   96.55    2.54
  -2   6  -1   63.86    2.04
  -4   7  -1   25.36    1.35
  -1   3   0  603.38    3.87
   0   3   0  354.49    3.21
  -2   4   0  191.81    2.68
  -2   5   0   27.96    1.28
  -1   3   1  247.19    2.34
  -2  -1  -7   55.44    1.63
  -3   0  -7   87.47    2.00
  -3   1  -7   18.26    1.10
   0  -3  -6   53.08    1.57
  -2  -2  -6   36.72    1.37
  -1  -2  -6   41.74    1.56
  -3  -1  -6   89.41    2.15
  -2  -1  -6   61.44    1.92
  -4   0  -6   47.34    1.66
  -3   0  -6   40.36    1.64
  -4   1  -6    1.00    1.09
  -1  -3  -5   58.65    1.71
   0  -3  -5   70.88    1.88
  -3  -2  -5   31.02    1.41
  -2  -2  -5   46.40    1.70
  -4  -1  -5   32.96    1.43
  -3  -1  -5   12.84    1.08
  -4   0  -5    0.80    0.99
  -3   0  -5   17.04    1.19
  -5   1  -5    4.65    1.44
  -4   1  -5   35.13    1.51
  -2  -3  -4   42.41    1.60
  -1  -3  -4   25.98    1.29
  -3  -2  -4    3.03    0.85
  -2  -2  -4    8.76    0.93
  -4  -1  -4    2.46    0.95
  -3  -1  -4   50.57    1.79
  -5   0  -4    4.24    1.20
  -4   0  -4   31.32    1.44
  -3   0  -4  103.56    2.35
  -5   1  -4   15.45    1.32
  -4   1  -4   21.69    1.18
  -2  -4  -3   40.88    1.43
  -1  -4  -3   16.66    1.03
  -3  -3  -3   12.20    1.07
  -2  -3  -3   -1.42    0.83
  -1  -3  -3   43.43    1.43
  -4  -2  -3    3.86    1.00
  -3  -2  -3   46.58    1.72
  -2  -2  -3  218.86    3.23
  -4  -1  -3   70.11    2.15
  -5   0  -3   18.28    1.17
  -4   0  -3   33.41    1.45
  -3   0  -3    5.24    0.67
  -5   1  -3    1.19    1.08
  -4   1  -3   12.35    0.87
  -1  -4  -2   37.61    1.41
  -3  -3  -2   27.03    1.38
  -2  -3  -2   88.11    2.13
  -1  -3  -2  164.80    2.51
  -4  -2  -2   77.79    2.28
  -2  -2  -2  147.59    2.43
  -4  -1  -2   83.97    2.30
  -3  -1  -2   23.36    1.09
  -2  -1  -2   20.39    0.85
  -4   0  -2   13.07    0.95
  -3   0  -2  136.79    2.13
  -5   1  -2   57.55    1.77
  -4   1  -2  203.64    2.71
  -3   1  -2  564.01    3.53
  -2  -4  -1   56.17    1.75
  -1  -4  -1  150.97    2.55
  -3  -3  -1   74.78    2.18
  -2  -3  -1   15.31    0.98
  -1  -3  -1    0.70    0.52
   0  -3  -1   40.55    0.98
  -3  -2  -1    2.88    0.66
  -2  -2  -1   47.58    1.28
  -1  -2  -1  170.36    1.99
  -4  -1  -1   12.37    0.99
  -3  -1  -1  105.61    1.98
  -2  -1  -1  282.25    2.52
  -4   0  -1  132.16    2.42
  -3   0  -1  179.62    2.19
  -4   1  -1  131.28    2.06
  -1  -4   0    8.59    0.70
  -2  -3   0   29.80    1.20
  -1  -3   0  291.89    2.77
  -3  -2   0  113.24    2.28
  -2  -2   0  337.63    3.09
  -1  -2   0  527.98    2.96
  -3  -1   0   53.18    1.37
  -2  -1   0   93.89    1.36
  -3   0   0    0.20    0.43
  -1  -3   1  482.63    3.43
  -2  -1   1  106.28    1.47
  -2   6  -8   31.00    1.09
  -1   6  -8   74.69    1.54
   0   4  -7  119.01    2.04
   1   4  -7   92.17    1.81
  -1   5  -7  125.85    2.29
   0   5  -7  113.52    2.15
  -1   6  -7   15.72    0.92
  -3   7  -7    5.45    0.59
  -2   7  -7    5.63    0.65
  -1   7  -7   39.05    1.21
   1   3  -6  113.67    1.92
   0   4  -6   95.34    1.92
   1   4  -6   16.83    0.90
   0   5  -6    1.70    0.57
   1   5  -6   24.62    1.15
  -1   6  -6   24.00    1.16
   0   6  -6   42.14    1.42
  -2   7  -6   67.82    1.71
  -1   7  -6   85.27    1.87
   1   2  -5  345.50    2.78
   1   3  -5    1.76    0.49
   1   4  -5   88.63    1.96
   0   5  -5   85.18    2.02
   1   5  -5  107.23    2.28
  -1   6  -5   73.20    1.93
   0   6  -5   33.52    1.38
  -2   7  -5   35.09    1.35
  -1   7  -5    7.39    0.74
  -4   8  -5   34.01    1.07
  -3   8  -5   13.55    0.78
  -2   8  -5   -0.38    0.63
   1   2  -4   18.85    0.73
   1   3  -4  114.11    1.94
   1   4  -4  203.19    2.88
   0   5  -4   67.73    1.79
  -1   6  -4    0.90    0.55
   0   6  -4   34.73    1.36
  -2   7  -4    3.32    0.68
  -1   7  -4   45.04    1.43
  -4   8  -4    0.52    0.78
  -3   8  -4   14.39    0.84
  -2   8  -4   31.18    1.02
   1   3  -3  165.39    2.21
   1   4  -3   11.69    0.79
   0   5  -3   23.47    1.10
  -1   6  -3  111.12    2.25
   0   6  -3  128.09    2.34
  -2   7  -3   77.09    1.80
  -1   7  -3   67.60    1.60
   1   3  -2    5.89    0.51
   0   4  -2    6.11    0.59
   1   4  -2   74.86    1.63
   0   5  -2  118.57    2.10
  -1   6  -2   77.67    1.73
   1   3  -1  323.99    2.73
   0   4  -1  146.66    1.98
  -1   5  -1   54.01    1.30
   0   5  -1   18.82    0.82
  -4   1  -7    0.72    1.59
  -4   2  -7    0.23    1.68
  -4   0  -6   11.09    1.36
  -4   1  -6   -1.17    1.41
  -2  -3  -5    2.18    1.49
  -3  -2  -5    4.00    1.38
  -4  -1  -5   10.70    1.30
  -5   0  -5    1.39    1.41
  -4   0  -5    0.67    1.39
  -5   1  -5    3.92    1.57
  -5   2  -5   22.89    1.62
  -3  -3  -4    2.68    1.53
  -2  -3  -4   18.19    1.59
  -4  -2  -4    2.50    1.43
  -3  -2  -4    2.93    1.33
  -5  -1  -4   -0.23    1.36
  -4  -1  -4    3.06    1.26
  -5   0  -4    3.87    1.30
  -4   0  -4   28.44    2.09
  -6   1  -4    0.68    1.68
  -5   1  -4    9.08    1.31
  -6   2  -4    3.93    1.90
  -5   2  -4    5.05    1.44
  -3  -3  -3    4.43    1.34
  -4  -2  -3    2.89    1.24
  -3  -2  -3   61.26    2.60
  -5  -1  -3    9.97    1.36
  -4  -1  -3  104.37    3.47
  -6   0  -3    5.75    1.35
  -5   0  -3   25.81    1.88
  -4   0  -3   42.21    2.36
  -6   1  -3    2.27    1.57
  -5   1  -3    2.11    1.14
  -4   1  -3    8.66    1.20
  -6   2  -3   -0.83    1.66
  -5   2  -3   30.53    1.79
  -4   2  -3  110.82    2.77
  -4  -3  -2   -2.34    1.40
  -3  -3  -2   32.17    1.83
  -2  -3  -2  110.71    3.01
  -5  -2  -2    8.53    1.31
  -4  -2  -2   99.07    3.18
  -3  -2  -2  168.69    3.92
  -5  -1  -2   53.72    2.51
  -4  -1  -2  124.66    3.56
  -5   0  -2    0.62    1.16
  -4   0  -2   17.61    1.45
  -6   1  -2    5.91    1.37
  -5   1  -2   74.46    2.76
  -4   1  -2  222.68    4.01
  -5   2  -2  120.99    3.08
  -4   2  -2   66.18    1.91
  -4  -3  -1   23.42    1.56
  -3  -3  -1   94.65    2.80
  -2  -3  -1   21.00    1.42
  -5  -2  -1   39.42    2.05
  -4  -2  -1   52.01    2.38
  -3  -2  -1    4.70    0.85
  -5  -1  -1    5.19    1.36
  -4  -1  -1   14.16    1.32
  -3  -1  -1  117.89    2.80
  -5   0  -1   51.19    2.47
  -4   0  -1  193.37    3.81
  -3   0  -1  156.15    2.82
  -5   1  -1  187.63    4.09
  -4   1  -1  126.10    2.77
  -5   2  -1    4.04    1.04
  -4   2  -1   24.25    1.15
  -4  -3   0    4.79    1.33
  -3  -3   0   -0.46    1.07
  -2  -3   0   45.45    1.66
  -1  -3   0  238.58    2.94
  -4  -2   0   23.70    1.56
  -3  -2   0  168.05    3.34
  -2  -2   0  310.24    3.68
  -5  -1   0   41.90    2.12
  -4  -1   0  123.12    3.13
  -3  -1   0   72.46    2.03
  -5   0   0   56.64    2.47
  -4   0   0   58.53    2.03
  -3   0   0    0.23    0.59
  -4   1   0   55.51    1.82
  -3  -3   1  167.38    3.40
  -2  -3   1  306.19    3.75
  -4  -2   1  117.38    3.16
  -3  -2   1  239.92    3.76
  -2  -2   1  118.23    2.10
  -4  -1   1   28.97    1.60
  -3  -1   1    1.16    0.63
  -4   0   1   91.86    2.41
  -3   0   1  360.61    3.78
   1   3  -9   59.52    1.35
   2   3  -9   84.55    1.65
   0   4  -9   40.95    1.18
   1   4  -9   14.43    0.82
   2   4  -9    0.16    0.62
   0   5  -9   -1.07    0.69
   1   5  -9   20.43    0.90
   1   2  -8  125.82    2.06
   2   2  -8   93.16    1.95
   3   2  -8   29.96    1.19
   0   3  -8  101.53    1.92
   1   3  -8   46.75    1.49
   2   3  -8    5.35    0.69
   3   3  -8   10.22    0.83
   1   4  -8   44.26    1.52
   2   4  -8   56.70    1.62
   3   4  -8   40.12    1.29
   1   5  -8   88.29    2.01
   2   5  -8   71.13    1.72
   1   6  -8   11.19    0.75
   2   1  -7   58.05    1.52
   3   1  -7   15.44    0.93
   1   2  -7   57.53    1.54
   2   2  -7    2.27    0.62
   3   2  -7   20.54    1.14
   2   3  -7   91.36    2.20
   3   3  -7   56.28    1.73
   2   4  -7   68.79    2.02
   3   4  -7    6.75    0.71
   2   5  -7    0.24    0.75
   3   5  -7    7.20    0.81
   2   0  -6  118.56    1.90
   1   1  -6   14.25    0.75
   2   1  -6    8.41    0.66
   3   1  -6   77.47    1.88
   2   2  -6  154.17    2.69
   3   2  -6  183.43    3.01
   4   2  -6   58.94    1.80
   3   3  -6    1.78    0.68
   4   3  -6    7.66    0.78
   3   4  -6   33.76    1.34
   2   5  -6   62.01    1.80
   1   0  -5   18.66    0.69
   2   0  -5    8.16    0.56
   3   0  -5   66.21    1.54
   2   1  -5  235.90    2.82
   3   1  -5  276.01    3.30
   4   1  -5   58.10    1.67
   3   2  -5   19.24    1.11
   3   3  -5   52.51    1.68
   4   3  -5   54.91    1.58
   3   4  -5   68.89    1.79
   2   5  -5   26.87    1.28
   2   0  -4  252.94    2.37
   3   0  -4  107.04    1.83
   2   1  -4  203.25    2.42
   3   1  -4   32.31    1.13
   3   2  -4   42.14    1.36
   4   2  -4   18.23    0.92
   3   3  -4   65.17    1.73
   3   0  -3    7.72    0.54
   3   1  -3  127.27    1.90
   4   1  -3  205.10    2.62
   3   2  -3   83.58    1.77
   3   0  -2  251.12    2.20
   3   1  -2  277.32    2.48
   0   0  -9   29.68    0.98
  -1   1  -9   47.75    1.30
   1  -2  -8    4.83    0.76
   2  -2  -8   16.84    0.80
  -1  -1  -8   12.12    0.78
   0  -1  -8   31.57    1.11
   1  -1  -8   99.21    1.94
  -2   0  -8   29.94    1.00
  -1   0  -8  145.14    2.34
  -2   1  -8   64.17    1.52
   1  -3  -7   12.85    0.84
   2  -3  -7   24.35    0.94
  -1  -2  -7    6.04    0.80
   0  -2  -7   24.59    1.05
   1  -2  -7   43.03    1.45
   2  -2  -7   53.35    1.52
  -2  -1  -7   28.79    1.04
  -1  -1  -7  130.07    2.34
   0  -1  -7  101.78    2.17
  -2   0  -7   89.26    1.89
   1  -4  -6   29.88    1.08
   2  -4  -6   45.24    1.21
   0  -3  -6   36.68    1.27
   1  -3  -6   85.98    1.94
   2  -3  -6   62.39    1.62
  -2  -2  -6   16.76    0.84
  -1  -2  -6   48.27    1.59
   0  -2  -6   81.11    1.99
   1  -2  -6   11.40    0.86
  -2  -1  -6   62.29    1.67
  -1  -1  -6   18.75    1.05
  -2   0  -6    1.40    0.73
   1  -4  -5  183.99    2.76
   2  -4  -5   87.38    1.91
  -1  -3  -5   62.69    1.75
   0  -3  -5   81.97    1.98
   1  -3  -5   40.28    1.41
   2  -3  -5    1.37    0.68
  -2  -2  -5   47.30    1.57
  -1  -2  -5    5.69    0.69
   0  -2  -5    3.91    0.62
  -3  -1  -5   11.44    0.93
  -2  -1  -5    0.78    0.53
   0  -4  -4   80.01    1.97
   1  -4  -4   44.99    1.49
   2  -4  -4    2.42    0.85
  -1  -3  -4   25.41    1.22
   0  -3  -4    0.58    0.68
   1  -3  -4   46.22    1.36
   2  -3  -4   84.61    1.67
  -2  -2  -4    4.65    0.63
  -1  -2  -4   73.73    1.70
   0  -2  -4  286.78    3.00
  -3  -1  -4   46.57    1.36
  -2  -1  -4  154.53    2.28
   1  -4  -3   67.49    1.68
   2  -4  -3   80.82    1.67
  -1  -3  -3   36.82    1.33
   0  -3  -3  123.79    2.05
   1  -3  -3  152.92    2.09
   2  -3  -3   23.20    0.83
  -2  -2  -3  200.82    2.68
  -1  -2  -3  173.17    2.25
  -3  -1  -3  170.79    2.33
  -2  -1  -3  217.61    2.37
   0  -4  -2   78.07    1.81
   1  -4  -2  168.86    2.38
   2  -4  -2   91.47    1.62
  -1  -3  -2  127.33    2.11
   0  -3  -2   22.81    0.84
   1  -3  -2    1.35    0.48
   2  -3  -2   29.83    0.78
  -2  -2  -2  133.03    2.00
  -1  -2  -2    4.56    0.46
   0  -2  -2   42.77    0.89
  -3  -1  -2   23.32    0.86
  -2  -1  -2   16.95    0.64
   1  -4  -1   34.86    1.04
   2  -4  -1   16.60    0.68
   0  -3  -1   42.05    0.99
   1  -3  -1  306.88    2.24
  -2  -2  -1   42.03    1.05
  -1  -2  -1  130.36    1.50
   0  -3   0  330.85    2.42
   4  -2   2   89.36    2.18
   3  -3   3    0.87    0.88
   4  -3   3   39.82    1.80
   3  -2   3  297.80    3.98
   4  -2   3  158.29    3.36
   3  -1   3  151.59    2.79
   0   2   3  271.96    3.42
   0   3   3  174.40    3.13
  -1   4   3   92.39    2.45
  -2   5   3   23.84    1.44
  -3   6   3    2.62    1.00
   2  -4   4   21.45    1.27
   3  -4   4   11.94    1.10
   4  -4   4   89.22    2.90
   2  -3   4   92.91    2.25
   3  -3   4   77.85    2.42
   4  -3   4   96.96    2.95
   2  -2   4  281.29    3.81
   3  -2   4   73.68    2.33
   4  -2   4    1.66    1.32
   2  -1   4   12.69    1.05
   3  -1   4    6.46    1.16
   4  -1   4   21.21    1.47
   1   0   4   16.90    1.02
   2   0   4   65.02    1.99
   3   0   4   84.52    2.44
  -1   1   4   73.69    1.81
   0   1   4  547.74    4.92
   1   1   4  311.15    4.13
   2   1   4  182.73    3.28
  -1   2   4  337.21    4.23
   0   2   4  438.81    4.92
   1   2   4  101.63    2.48
  -1   3   4   60.63    2.06
   0   3   4    2.14    1.11
  -2   4   4    2.01    0.95
  -1   4   4   61.56    2.02
  -3   5   4    4.69    0.98
  -2   5   4   70.09    2.11
  -5   6   4    2.57    0.87
  -4   6   4   17.22    1.06
  -3   6   4   28.21    1.20
   1  -4   5   17.41    1.22
   2  -4   5  160.71    3.27
   3  -4   5  111.80    3.17
   4  -4   5  110.34    3.38
   1  -3   5  146.27    2.73
   2  -3   5  208.39    3.73
   3  -3   5   34.86    1.86
   4  -3   5    0.14    1.33
   1  -2   5   99.78    2.27
   2  -2   5    0.84    0.83
   3  -2   5   47.94    2.20
   4  -2   5   77.08    2.81
   0  -1   5   20.36    1.07
   1  -1   5   29.69    1.44
   2  -1   5   44.65    1.87
   3  -1   5   88.63    2.80
   4  -1   5   46.67    2.10
  -2   0   5   11.42    0.83
  -1   0   5   25.91    1.18
   0   0   5  180.66    3.01
   1   0   5  318.11    4.32
   2   0   5   79.88    2.46
   3   0   5   16.28    1.46
  -2   1   5  322.49    3.94
  -1   1   5  267.18    3.75
   0   1   5  367.16    4.66
   1   1   5   84.39    2.41
   2   1   5    0.67    1.31
  -2   2   5  244.27    3.91
  -1   2   5   95.30    2.57
   0   2   5    8.24    0.95
   1   2   5    9.08    1.15
  -3   3   5   29.52    1.61
  -2   3   5    0.39    0.75
  -1   3   5   55.14    2.10
   0   3   5  132.05    2.92
  -6   4   5   16.17    0.97
  -5   4   5   24.02    1.47
  -4   4   5    0.68    0.86
  -3   4   5   43.69    1.87
  -2   4   5  116.39    2.82
  -1   4   5  256.35    3.80
  -5   5   5    5.15    0.86
  -4   5   5   52.06    1.79
  -3   5   5   82.32    2.12
  -2   5   5   59.48    1.64
   2  -5   6  136.55    3.18
   3  -5   6  210.16    4.32
   1  -4   6   96.56    2.48
   2  -4   6  159.05    3.57
   3  -4   6   73.40    2.76
   4  -4   6    8.87    1.35
   0  -3   6  132.94    2.59
   1  -3   6   41.07    1.67
   2  -3   6    1.31    1.06
   3  -3   6   31.94    1.99
   4  -3   6  121.74    3.71
   0  -2   6    4.24    0.81
   1  -2   6   97.23    2.56
   2  -2   6  158.66    3.60
   3  -2   6  127.27    3.54
   4  -2   6   90.87    3.10
  -1  -1   6   17.91    1.08
   0  -1   6   58.31    1.93
   1  -1   6  232.19    3.96
   2  -1   6  112.14    3.06
   3  -1   6   35.12    2.01
   4  -1   6   -0.55    1.61
  -3   0   6   39.77    1.45
  -2   0   6  156.05    2.77
  -1   0   6  202.73    3.36
   0   0   6  118.04    2.79
   1   0   6   33.81    1.68
   2   0   6    3.66    1.11
   3   0   6   42.18    1.95
  -4   1   6  192.59    3.07
  -3   1   6  248.82    3.69
  -2   1   6  211.66    3.56
  -1   1   6   60.57    2.06
   0   1   6    0.48    0.92
   1   1   6   33.01    1.73
   2   1   6   85.72    2.63
  -4   2   6  158.36    3.07
  -3   2   6   52.25    2.00
  -2   2   6    1.30    0.88
  -1   2   6   14.01    1.20
   0   2   6  129.89    3.05
   1   2   6   76.03    2.23
  -5   3   6   10.67    0.92
  -4   3   6    0.03    0.86
  -3   3   6   43.39    1.86
  -2   3   6   84.26    2.47
  -1   3   6  131.35    2.92
   0   3   6   92.37    2.25
  -5   4   6   22.76    1.19
  -4   4   6  103.85    2.44
  -3   4   6  167.69    3.07
  -2   4   6   91.04    2.20
  -1   4   6   44.30    1.43
   2  -5   7  124.63    3.13
   3  -5   7   56.92    2.36
   1  -4   7   58.94    2.15
   2  -4   7    6.17    1.28
   3  -4   7   12.43    1.53
   4  -4   7   43.43    2.31
   0  -3   7    2.61    1.11
   1  -3   7   55.64    2.21
   2  -3   7  203.88    4.38
   3  -3   7  121.83    3.65
   4  -3   7   44.26    2.27
  -1  -2   7   79.63    2.09
   0  -2   7  126.04    2.85
   1  -2   7  160.70    3.54
   2  -2   7  184.95    4.15
   3  -2   7   36.61    2.15
   4  -2   7    0.34    1.33
  -2  -1   7   82.61    2.04
  -1  -1   7  171.40    3.16
   0  -1   7  104.11    2.69
   1  -1   7   53.58    2.19
   2  -1   7    0.80    1.20
   3  -1   7   26.91    1.76
  -3   0   7  171.20    2.87
  -2   0   7   90.22    2.33
  -1   0   7   15.51    1.23
   0   0   7    7.15    1.04
   1   0   7  110.80    3.04
   2   0   7  116.62    3.15
  -3   1   7   47.27    1.71
  -2   1   7    0.61    0.82
  -1   1   7   33.00    1.65
   0   1   7  162.70    3.46
   1   1   7  186.63    3.60
   2   1   7   78.34    2.09
  -4   2   7    0.92    0.91
  -3   2   7   18.72    1.30
  -2   2   7   74.70    2.31
  -1   2   7   63.23    2.09
   0   2   7   66.94    2.06
   1   2   7    5.71    1.36
  -5   3   7   16.35    0.95
  -4   3   7   77.60    1.97
  -3   3   7  104.49    2.36
  -2   3   7   62.65    1.85
  -1   3   7   17.81    1.10
   3  -5   8   24.42    1.51
   1  -4   8   14.00    1.28
   2  -4   8   84.70    2.81
   3  -4   8   62.12    2.43
   4  -4   8   15.44    1.30
   0  -3   8  168.04    3.39
   1  -3   8  115.67    3.07
   2  -3   8   90.53    2.96
   3  -3   8    5.52    1.23
  -1  -2   8  174.21    3.21
   0  -2   8  143.15    3.18
   1  -2   8   46.74    2.17
   2  -2   8    0.01    1.10
   3  -2   8    9.38    1.18
  -2  -1   8  110.07    2.39
  -1  -1   8   28.09    1.49
   0  -1   8    1.66    0.99
   1  -1   8   73.44    2.57
   2  -1   8   83.96    2.81
   3  -1   8   27.07    1.43
  -3   0   8    9.34    0.97
  -2   0   8    6.60    0.85
  -1   0   8   85.74    2.42
   0   0   8  152.04    3.34
   1   0   8  212.10    3.94
   2   0   8   56.66    1.93
  -3   1   8   39.15    1.44
  -2   1   8  123.37    2.69
  -1   1   8  136.97    2.92
   0   1   8   84.79    2.33
   1   1   8   17.65    1.15
  -4   2   8   37.80    1.27
  -3   2   8   62.09    1.73
  -2   2   8   41.64    1.46
  -1   2   8    7.48    0.85
   1  -4   9   50.00    1.91
   2  -4   9   18.33    1.40
   3  -4   9   -0.22    1.08
   0  -3   9   56.63    1.94
   1  -3   9    2.72    1.15
   2  -3   9    5.04    1.06
   3  -3   9   16.31    1.27
  -1  -2   9   43.77    1.69
   0  -2   9    0.02    1.04
   1  -2   9   20.67    1.46
   2  -2   9   58.86    2.14
  -1  -1   9   67.32    2.01
   0  -1   9   78.59    2.35
   1  -1   9   67.07    2.18
   2  -1   9   20.93    1.15
  -2   0   9  155.76    2.64
  -1   0   9  164.02    2.89
   0   0   9   54.04    1.79
   1   0   9    8.49    0.89
  -2   1   9   61.27    1.60
  -1   1   9   10.61    0.87
   1  -3  10   19.45    1.19
   0  -2  10   48.70    1.53
   1  -2  10   35.22    1.44
  -6   3  -6    6.55    1.22
  -6   1  -5   -0.25    1.01
  -6   2  -5    6.77    1.07
  -6   3  -5   10.57    1.17
  -5  -1  -4    1.15    1.04
  -6   1  -4    6.05    1.04
  -6   2  -4    2.09    1.08
  -7   3  -4    0.88    1.22
  -6   3  -4    0.62    1.16
  -6   0  -3    9.24    1.06
  -6   1  -3    3.84    1.09
  -7   2  -3    1.48    1.15
  -6   2  -3    0.53    1.08
  -7   3  -3    3.08    1.22
  -6   3  -3   14.01    1.41
  -6   4  -3   14.24    1.28
  -6  -1  -2    5.67    1.12
  -6   0  -2    9.52    1.19
  -7   1  -2    0.38    1.04
  -6   1  -2    2.25    1.11
  -7   2  -2    8.60    1.34
  -6   2  -2   32.78    1.91
  -7   3  -2    6.52    1.19
  -6   3  -2    9.19    1.25
  -5   3  -2    0.74    1.01
  -6   4  -2    7.03    1.24
  -6  -1  -1    8.63    1.12
  -5  -1  -1    5.89    1.02
  -7   0  -1    0.13    1.18
  -6   0  -1    5.88    1.26
  -7   1  -1   36.40    1.85
  -6   1  -1   77.51    2.77
  -7   2  -1   38.82    2.11
  -6   2  -1   21.14    1.62
  -5   2  -1    2.31    0.85
  -7   3  -1   -1.49    1.22
  -6   3  -1   14.46    1.33
  -5   3  -1  118.07    2.65
  -6   4  -1   90.86    2.66
  -5  -2   0   -0.30    1.16
  -4  -2   0   13.95    1.21
  -6  -1   0    4.72    1.10
  -5  -1   0   23.10    1.44
  -6   0   0   73.07    2.56
  -5   0   0   49.67    2.00
  -7   1   0   73.47    2.56
  -6   1   0   34.23    2.04
  -5   1   0   -0.12    0.87
  -6   2   0    7.54    1.16
  -5   2   0   72.79    2.20
  -4   2   0   95.76    2.02
  -6   3   0   72.30    2.53
  -5   3   0  122.42    2.72
  -4  -2   1   82.58    2.16
  -6  -1   1   32.55    1.71
  -5  -1   1   23.39    1.39
  -4  -1   1   23.82    1.26
  -6   0   1   15.84    1.48
  -5   0   1    1.18    0.83
  -4   0   1   77.81    1.98
  -6   1   1   15.98    1.56
  -5   1   1   59.52    2.08
  -4   1   1  211.75    3.04
  -6   2   1   28.16    1.78
  -5   2   1   55.14    1.98
  -4   2   1   30.61    1.32
  -4  -2   2   26.67    1.43
  -5  -1   2    1.17    0.97
  -4  -1   2   46.88    1.64
  -5   0   2  102.38    2.69
  -4   0   2  379.23    4.24
  -5   1   2   56.45    2.05
  -4   1   2   52.40    1.68
  -3   7  -8   34.77    0.91
  -2   7  -8   24.13    0.82
  -1   7  -8    4.10    0.58
   0   5  -7  105.66    1.92
   1   5  -7   43.18    1.24
  -1   6  -7   14.11    0.85
   0   6  -7    0.00    0.58
   1   6  -7   14.19    0.78
  -2   7  -7    5.34    0.66
  -1   7  -7   40.50    1.15
   0   7  -7   65.96    1.34
  -3   8  -7   18.06    0.74
  -2   8  -7   42.85    0.99
   1   4  -6   15.66    0.87
   2   4  -6    3.12    0.61
   0   5  -6    1.27    0.56
   1   5  -6   25.72    1.12
   1   6  -6   66.02    1.62
  -1   7  -6   83.49    1.83
   0   7  -6   46.85    1.29
   1   7  -6    6.52    0.52
  -3   8  -6   44.35    1.19
  -2   8  -6   29.47    0.99
  -1   8  -6   13.88    0.68
   1   3  -5    2.34    0.64
   2   3  -5   21.69    0.91
   1   4  -5   90.14    1.86
   1   5  -5  106.27    2.22
   2   5  -5   37.96    1.38
   0   6  -5   35.34    1.37
   1   6  -5    1.06    0.57
  -1   7  -5    7.17    0.75
   0   7  -5    3.26    0.59
   1   7  -5   33.75    1.03
  -2   8  -5   -0.02    0.49
  -1   8  -5   11.38    0.69
   1   3  -4  118.27    1.86
   3   3  -4   53.75    1.52
   1   4  -4  191.17    2.71
   2   4  -4   75.33    1.84
   1   5  -4    1.77    0.61
   2   5  -4    8.82    0.77
   0   6  -4   32.70    1.37
   1   6  -4   86.30    1.98
  -1   7  -4   44.12    1.47
   0   7  -4   74.27    1.69
  -3   8  -4   13.39    0.86
  -2   8  -4   33.15    1.09
   2   3  -3   48.95    1.31
   1   4  -3   10.17    0.75
   2   4  -3    3.84    0.61
   0   5  -3   24.28    1.15
   1   5  -3   47.58    1.50
   2   5  -3   76.67    1.90
   0   6  -3  121.55    2.35
   0   7  -3   31.32    1.08
  -2   8  -3    6.25    0.63
  -1   8  -3    0.67    0.64
   2   3  -2   31.48    1.08
   1   4  -2   57.31    1.44
   2   4  -2  117.56    2.20
   0   5  -2  111.02    2.11
   0   6  -2   44.71    1.40
  -2   7  -2   32.81    1.20
  -1   7  -2    2.92    0.65
   0   7  -2    4.25    0.63
   2   3  -1  240.22    2.66
   0   4  -1  137.26    1.97
   2   4  -1   16.75    0.90
   0   5  -1   17.98    0.89
   1   5  -1    5.92    0.68
  -1   6  -1    5.13    0.65
   0   6  -1   17.82    0.91
   0   4   0   13.93    0.73
   1   4   0    8.72    0.69
   3   5  -7    5.33    0.69
   4   3  -6    8.34    0.72
   4   2  -5    2.50    0.71
   5   2  -5   30.95    1.16
   5   3  -5   59.97    1.49
   4   4  -5   52.30    1.51
   4   5  -5    3.07    0.54
   3   6  -5   40.87    1.06
   4   1  -4    0.80    0.63
   5   1  -4   38.01    1.34
   5   2  -4   46.20    1.55
   6   2  -4    9.66    0.69
   4   3  -4   23.67    1.20
   5   3  -4    3.18    0.66
   4   4  -4    0.92    0.64
   5   4  -4   17.33    0.85
   4   5  -4   48.67    1.24
   6  -1  -3   13.58    0.89
   7  -1  -3   33.23    1.20
   4   0  -3   17.17    0.73
   5   0  -3   75.03    1.79
   7   0  -3   43.39    1.39
   5   1  -3   81.34    2.03
   6   1  -3   21.84    1.13
   7   1  -3    0.49    0.71
   4   2  -3   10.10    0.86
   5   2  -3    0.68    0.65
   6   2  -3   11.53    0.76
   4   3  -3    7.41    0.82
   5   3  -3   66.30    1.79
   4   4  -3   59.19    1.74
   4   5  -3   13.25    0.75
   3   6  -3    1.83    0.57
   5  -2  -2    4.81    0.64
   6  -2  -2    8.11    0.79
   4  -1  -2   48.54    1.10
   5  -1  -2   72.95    1.65
   7  -1  -2   36.36    1.41
   5   0  -2  100.48    2.14
   6   0  -2   38.19    1.46
   7   0  -2    0.82    0.69
   4   1  -2   39.81    1.32
   5   1  -2   -0.08    0.62
   6   1  -2    7.51    0.80
   7   1  -2    7.55    0.67
   4   2  -2   27.74    1.25
   5   2  -2   71.07    2.00
   6   2  -2   44.03    1.40
   4   3  -2   89.36    2.20
   4   4  -2   10.86    0.85
   5   4  -2   -0.19    0.59
   3   5  -2    2.13    0.64
   5  -2  -1   64.37    1.55
   7  -2  -1   47.76    1.65
   5  -1  -1   68.64    1.65
   6  -1  -1   19.82    1.13
   7  -1  -1    0.80    0.69
   4   0  -1   85.25    1.65
   5   0  -1    0.86    0.57
   6   0  -1   16.26    1.05
   7   0  -1   26.18    1.21
   4   1  -1   25.20    1.07
   5   1  -1   22.86    1.20
   6   1  -1   53.09    1.68
   4   2  -1  102.77    2.23
   6   2  -1   12.81    0.81
   4   3  -1   20.13    1.08
   5   3  -1    0.19    0.60
   3   4  -1    1.37    0.62
   4   4  -1   12.31    0.81
   3   5  -1   52.73    1.32
   5  -3   0  121.53    2.16
   5  -2   0   89.21    1.88
   6  -2   0   12.28    0.98
   4  -1   0   56.32    1.24
   5  -1   0    0.37    0.44
   6  -1   0   30.01    1.36
   7  -1   0   91.86    2.18
   4   0   0   53.58    1.32
   5   0   0   55.34    1.63
   6   0   0   88.52    2.22
   3   1   0   68.38    1.33
   4   1   0  112.71    2.09
   6   1   0    8.65    0.79
   4   2   0   20.27    1.02
   5   2   0    0.44    0.64
   6   2   0   25.08    0.97
   3   3   0    0.21    0.61
   4   3   0    4.92    0.64
   5   3   0   40.92    1.14
   3   4   0   61.62    1.52
   4   4   0   31.89    1.02
   5  -3   1  141.74    2.41
   4  -2   1   28.63    0.93
   5  -2   1    2.21    0.53
   7  -2   1   70.45    1.95
   5  -1   1  209.84    2.96
   6  -1   1  115.33    2.50
   4   0   1  193.27    2.48
   6   0   1    9.93    0.85
   4   1   1   13.52    0.84
   5   1   1    8.11    0.79
   6   1   1   53.83    1.45
   3   2   1    2.54    0.54
   4   2   1   60.10    1.59
   5   2   1   67.34    1.60
   3   3   1   95.25    1.81
   4   3   1   43.08    1.16
   4  -2   2   73.32    1.48
   5  -2   2  168.06    2.66
   6  -2   2   69.60    1.95
   4  -1   2  249.82    2.73
   6  -1   2    7.66    0.80
   4   0   2   16.82    0.84
   5   0   2    0.40    0.64
   6   0   2   19.07    1.00
   3   1   2   21.93    0.80
   4   1   2  123.78    2.10
   5   1   2   63.71    1.58
   4  -2   3  170.75    2.32
   5  -2   3   45.58    1.42
   4  -1   3   12.40    0.74
   5  -1   3    4.36    0.68
   4   0   3   51.47    1.36
   5   0   3   35.88    1.21
   4  -3   3   42.56    1.22
   3  -1   3  126.84    1.93
   3  -4   4    6.67    0.85
   4  -4   4   56.06    1.54
   3  -3   4   64.33    1.52
   4  -3   4   76.65    1.85
   3  -2   4   59.56    1.48
   2  -1   4   15.54    0.78
   3  -1   4   10.69    0.74
   2   0   4   70.31    1.56
   3  -5   5   33.68    1.38
   3  -4   5   92.15    2.05
   4  -4   5   74.17    1.94
   2  -3   5  215.42    2.90
   3  -3   5   33.49    1.31
   4  -3   5    0.31    0.78
   2  -2   5    0.89    0.62
   3  -2   5   51.79    1.56
   1  -1   5   25.71    1.00
   2  -1   5   42.60    1.32
   0   0   5  144.60    1.87
   1   0   5  265.20    2.85
   3  -6   6   17.17    1.19
   3  -5   6  189.59    3.06
   4  -5   6   88.84    2.11
   2  -4   6  169.15    2.94
   3  -4   6   76.68    2.03
   4  -4   6    5.94    0.86
   2  -3   6    1.63    0.70
   3  -3   6   31.43    1.39
   1  -2   6   96.71    2.03
   2  -2   6  165.68    2.73
   3  -2   6  110.09    2.42
   0  -1   6   48.02    1.31
   1  -1   6  202.57    2.75
   2  -1   6   96.30    2.14
   0   0   6   92.46    1.69
   1   0   6   23.51    0.97
   2  -6   7   61.18    1.77
   3  -6   7  129.04    2.38
   2  -5   7  141.43    2.84
   3  -5   7   61.62    1.85
   4  -5   7    0.21    0.89
   2  -4   7    7.30    0.85
   3  -4   7   12.79    1.03
   4  -4   7   43.27    1.57
   1  -3   7   53.84    1.72
   2  -3   7  211.41    3.34
   3  -3   7  119.15    2.55
   0  -2   7  127.17    2.39
   1  -2   7  158.09    2.72
   2  -2   7  170.49    2.94
  -1  -1   7  136.69    2.23
   0  -1   7   88.29    1.88
   1  -1   7   45.99    1.48
   1  -7   8    5.89    0.78
   2  -7   8   31.86    1.08
   1  -6   8   98.27    2.14
   2  -6   8   43.85    1.49
   3  -6   8    6.27    0.84
   4  -6   8    2.57    0.92
   1  -5   8   52.65    1.73
   2  -5   8    0.29    0.79
   3  -5   8   26.41    1.22
   4  -5   8   31.45    1.18
   1  -4   8   15.47    1.09
   2  -4   8   92.50    2.28
   3  -4   8   68.84    1.89
   0  -3   8  168.61    2.89
   1  -3   8  108.98    2.36
   2  -3   8   77.09    2.04
  -1  -2   8  125.71    2.31
   0  -2   8  138.36    2.43
   1  -2   8   47.29    1.49
   2  -2   8   -0.04    0.74
   0  -1   8    0.82    0.79
   1  -1   8   62.08    1.58
   0  -6   9   38.00    1.15
   1  -6   9    3.97    0.66
   2  -6   9    6.06    0.70
   3  -6   9   38.80    1.13
   0  -5   9    0.14    0.68
   1  -5   9   21.95    1.07
   2  -5   9   43.30    1.37
   3  -5   9   74.13    1.61
  -1  -4   9   22.56    1.06
   0  -4   9   83.22    1.94
   1  -4   9   52.14    1.53
   2  -4   9   24.70    1.12
  -2  -3   9  100.83    1.85
  -1  -3   9   90.69    1.83
   0  -3   9   56.11    1.57
   1  -3   9    3.91    0.70
   2  -3   9    6.14    0.73
   0  -2   9    0.31    0.77
   1  -2   9   17.27    0.92
   0  -5  10   45.84    1.10
   1  -5  10   48.77    1.15
  -1  -4  10   42.83    1.03
   0  -4  10   16.89    0.73
   1  -4  10    0.75    0.63
   0  -3  10    3.92    0.72
   1  -3  10   23.64    0.81
   2   2 -10    1.14    0.45
   1   3 -10    1.63    0.46
   2   3 -10   15.23    0.66
   0   4 -10    3.68    0.53
   2   1  -9    2.19    0.48
   3   1  -9    6.82    0.59
   4   1  -9   24.71    0.84
   1   2  -9   16.17    0.76
   2   2  -9   56.38    1.40
   3   2  -9   56.16    1.39
   4   2  -9   41.72    1.04
   3   3  -9   16.37    0.76
   3   4  -9   13.92    0.62
   2   0  -8    4.95    0.54
   3   0  -8    5.57    0.59
   4   0  -8   21.29    0.94
   1   1  -8   14.26    0.75
   2   1  -8   54.26    1.48
   3   1  -8   78.58    1.85
   4   1  -8   21.60    1.00
   5   1  -8   10.05    0.61
   3   2  -8   21.31    1.05
   4   2  -8    1.77    0.50
   4   3  -8   25.48    0.88
   3  -1  -7   30.42    1.15
   4  -1  -7   80.45    1.88
   1   0  -7    7.56    0.55
   2   0  -7   58.09    1.50
   3   0  -7  112.92    2.22
   4   0  -7   49.52    1.52
   5   0  -7   14.54    0.85
   3   1  -7   12.29    0.91
   4   1  -7    1.89    0.58
   5   1  -7   31.92    1.11
   4   2  -7   45.14    1.39
   4   3  -7   27.47    1.01
   2  -1  -6  157.69    2.28
   3  -1  -6  162.76    2.53
   4  -1  -6  147.04    2.57
   1   0  -6  160.59    2.14
   2   0  -6  107.89    1.95
   3   0  -6   29.35    1.17
   4   0  -6    2.01    0.52
   5   0  -6   28.57    1.16
   4   1  -6   71.07    1.80
   5   1  -6   78.25    1.72
   4   2  -6   48.31    1.46
   3  -2  -5  146.52    2.33
   1  -1  -5  145.35    1.79
   2  -1  -5  245.02    2.60
   3  -1  -5   49.33    1.33
   4  -1  -5    1.45    0.50
   5  -1  -5   15.76    0.87
   3   0  -5   93.26    1.81
   4   0  -5   90.71    1.90
   5   0  -5   31.83    1.16
   4   1  -5   45.07    1.37
   4   2  -5    2.47    0.69
   2  -2  -4  119.22    1.71
   3  -2  -4    9.73    0.64
   2  -1  -4    2.97    0.37
   3  -1  -4   60.72    1.30
   4  -1  -4  118.37    2.01
   5  -1  -4   44.64    1.32
   4   0  -4   40.73    1.20
   4   1  -4    1.37    0.63
   3  -2  -3   78.20    1.38
   4  -2  -3  194.87    2.42
   4  -1  -3   97.41    1.62
   4   0  -3   17.77    0.72
   4  -1  -2   54.09    1.06
   4  -2  -8   32.75    0.94
   4  -3  -7   68.27    1.37
   5  -3  -7   17.66    0.76
   6  -2  -7   55.88    1.24
   6  -1  -7   67.81    1.37
   4  -4  -6   96.33    1.62
   5  -4  -6   30.51    1.02
   3  -3  -6   29.92    1.05
   4  -3  -6    1.80    0.73
   5  -3  -6   11.29    0.81
   6  -3  -6   24.70    0.99
   6  -2  -6   50.08    1.38
   4  -5  -5   47.43    1.21
   5  -5  -5    7.66    0.73
   3  -4  -5   34.17    1.10
   4  -4  -5    0.90    0.70
   5  -4  -5   26.54    1.12
   6  -4  -5   28.62    1.08
   3  -3  -5   24.21    1.00
   5  -3  -5   42.60    1.43
   6  -3  -5   13.15    0.92
   7  -3  -5    7.71    0.95
   6  -2  -5    2.14    0.81
   4  -5  -4    8.05    0.80
   5  -5  -4   49.40    1.46
   6  -5  -4   67.23    1.63
   3  -4  -4   39.26    1.23
   4  -4  -4   61.42    1.60
   5  -4  -4   62.61    1.68
   6  -4  -4   28.40    1.19
   7  -4  -4    9.47    0.93
   2  -3  -4   78.93    1.46
   5  -3  -4    6.08    0.72
   6  -3  -4    4.63    0.80
   4  -6  -3    0.36    0.84
   5  -6  -3   24.35    1.09
   6  -6  -3   64.31    1.53
   3  -5  -3   67.90    1.61
   4  -5  -3  130.50    2.28
   5  -5  -3  102.27    2.10
   6  -5  -3   55.43    1.59
   7  -5  -3    1.50    0.89
   2  -4  -3   74.14    1.44
   3  -4  -3   76.33    1.58
   4  -4  -3   63.97    1.59
   5  -4  -3   22.09    1.16
   6  -4  -3    0.91    0.79
   7  -4  -3   16.48    0.95
   5  -3  -3   74.34    1.71
   6  -3  -3  106.34    2.09
   3  -6  -2   35.32    1.19
   4  -6  -2   95.99    2.03
   5  -6  -2   75.62    1.85
   6  -6  -2   22.63    1.10
   2  -5  -2  177.74    2.39
   3  -5  -2  114.13    2.04
   4  -5  -2   90.62    1.93
   5  -5  -2    7.86    0.84
   6  -5  -2    3.45    0.78
   7  -5  -2   10.44    0.94
   2  -4  -2   83.88    1.47
   3  -4  -2   27.35    0.94
   4  -4  -2    3.71    0.60
   5  -4  -2   59.50    1.53
   6  -4  -2   65.64    1.66
   5  -3  -2  206.64    2.56
   6  -3  -2   19.09    0.94
   3  -6  -1   86.56    1.96
   4  -6  -1   22.75    1.16
   5  -6  -1    1.40    0.79
   6  -6  -1   20.40    1.14
   2  -5  -1  130.33    2.11
   3  -5  -1    9.29    0.73
   4  -5  -1    9.08    0.77
   5  -5  -1   35.45    1.29
   6  -5  -1   62.84    1.72
   2  -4  -1   14.49    0.65
   3  -4  -1   86.34    1.48
   4  -4  -1  150.28    2.10
   5  -4  -1   74.36    1.62
   6  -4  -1   12.14    0.82
   4  -3  -1   60.69    1.22
   5  -3  -1    0.84    0.63
   4  -6   0   36.04    1.38
   5  -6   0   70.18    1.86
   6  -6   0   86.65    1.99
   2  -5   0   24.61    0.98
   3  -5   0   43.10    1.26
   4  -5   0  100.27    1.91
   5  -5   0   79.82    1.86
   6  -5   0   43.60    1.43
   2  -4   0  249.59    2.26
   3  -4   0   60.54    1.20
   4  -4   0   18.91    0.79
   5  -4   0    1.90    0.71
   4  -3   0   37.48    0.91
   4  -6   1   99.18    2.16
   5  -6   1   87.85    2.04
   2  -5   1  184.86    2.46
   3  -5   1   82.36    1.67
   4  -5   1   50.08    1.41
   5  -5   1    1.58    0.81
   6  -5   1   27.18    1.14
   3  -4   1    4.02    0.55
   4  -4   1   91.50    1.56
   5  -4   1  178.38    2.31
   4  -5   2   46.90    1.38
   3  -4   2  211.07    2.20
   4  -4   2  197.00    2.27
  -5   7  -6    2.12    1.01
  -2   6  -5   71.85    1.96
  -4   7  -5   84.34    2.13
  -3   7  -5  108.65    2.40
  -2   7  -5   42.72    1.52
  -5   8  -5   32.00    1.22
  -4   8  -5   37.63    1.31
  -3   8  -5   14.95    0.93
  -2   8  -5   -0.05    0.91
  -1   5  -4  113.79    2.35
   0   5  -4   82.47    1.92
  -2   6  -4   32.84    1.64
  -1   6  -4    0.27    0.98
   0   6  -4   43.17    1.50
   1   6  -4  120.92    2.33
  -4   7  -4   34.16    1.71
  -3   7  -4    7.18    1.14
  -2   7  -4    4.81    0.92
  -1   7  -4   52.39    1.72
   0   7  -4   92.20    1.98
  -5   8  -4    6.71    0.96
  -3   8  -4   17.60    1.04
  -2   8  -4   38.70    1.35
  -1   8  -4   31.66    1.04
   0   4  -3  121.12    2.13
   1   4  -3   11.69    0.99
   2   4  -3    3.08    1.01
   3   4  -3   33.92    1.40
  -1   5  -3    0.89    0.86
   0   5  -3   30.20    1.37
   1   5  -3   61.44    1.89
   2   5  -3  100.15    2.30
   3   5  -3   28.66    1.16
  -2   6  -3   54.93    2.06
  -1   6  -3  135.34    2.75
   0   6  -3  151.90    2.93
   1   6  -3   64.31    1.86
   2   6  -3   39.38    1.35
  -4   7  -3    4.55    1.10
  -3   7  -3   71.67    2.23
  -2   7  -3   93.78    2.35
  -1   7  -3   54.87    1.73
   0   7  -3   43.39    1.60
   1   7  -3    6.02    0.90
  -6   8  -3    0.57    0.85
  -5   8  -3   12.82    1.14
  -4   8  -3   49.32    1.66
  -3   8  -3   38.90    1.41
  -2   8  -3    7.68    0.79
  -1   8  -3    0.51    0.75
   3   2  -2   -0.01    0.96
   4   2  -2   31.02    1.30
   2   3  -2   26.31    1.13
   3   3  -2  153.76    2.74
   4   3  -2  105.92    2.38
   0   4  -2    7.23    0.87
   1   4  -2   65.35    1.81
   2   4  -2  137.83    2.76
   3   4  -2   39.11    1.59
   4   4  -2   12.33    1.00
  -1   5  -2   65.63    2.05
   0   5  -2  137.32    2.70
   1   5  -2   47.68    1.70
   2   5  -2   21.96    1.40
   3   5  -2    1.23    0.95
  -3   6  -2  143.14    3.15
  -2   6  -2  175.51    3.32
  -1   6  -2   58.45    1.89
   0   6  -2   53.29    1.97
   1   6  -2    3.57    0.99
   2   6  -2   13.59    0.92
  -7   7  -2    4.17    0.90
  -5   7  -2   44.64    1.93
  -4   7  -2   83.48    2.49
  -3   7  -2   88.02    2.44
  -2   7  -2   39.60    1.65
  -1   7  -2    4.01    0.92
   0   7  -2    5.05    0.82
   1   7  -2   47.51    1.32
  -6   8  -2   28.66    1.24
  -5   8  -2   26.68    1.22
  -4   8  -2    5.46    0.82
  -3   8  -2    3.11    0.73
  -2   8  -2   24.59    1.13
  -1   8  -2   48.06    1.35
   4   1  -1   24.74    1.11
   3   2  -1  161.78    2.61
   4   2  -1   75.74    2.05
   2   3  -1  207.04    3.04
   3   3  -1   58.58    1.88
   4   3  -1   15.31    1.18
  -1   4  -1   88.46    1.93
   0   4  -1  171.28    2.69
   1   4  -1   82.03    2.03
   2   4  -1   19.82    1.36
   3   4  -1    1.96    0.88
   4   4  -1   15.07    1.01
  -2   5  -1  193.15    3.19
  -1   5  -1   48.18    1.62
   0   5  -1   21.84    1.34
   1   5  -1    7.34    1.06
   2   5  -1   84.33    2.34
   3   5  -1   70.28    1.83
  -3   6  -1   79.50    2.34
  -2   6  -1   55.19    2.04
  -1   6  -1    5.35    0.91
   0   6  -1   25.93    1.46
   1   6  -1   93.77    2.33
   2   6  -1   94.75    2.02
  -6   7  -1   63.58    2.01
  -5   7  -1   68.51    2.12
  -4   7  -1   23.62    1.60
  -3   7  -1    1.11    0.92
  -2   7  -1    9.54    1.04
  -1   7  -1   44.40    1.63
   0   7  -1   71.67    1.86
   1   7  -1   36.95    1.17
  -5   8  -1    5.08    0.86
  -4   8  -1   22.90    1.13
  -3   8  -1   57.06    1.54
  -2   8  -1   44.35    1.34
   3   1   0   55.78    1.44
   4   1   0   89.61    2.13
   2   2   0  250.26    2.97
   3   2   0   78.97    2.00
   4   2   0   14.03    1.21
   1   3   0  121.93    2.15
   2   3   0   38.35    1.51
   3   3   0    1.17    0.93
  -1   4   0  117.91    2.18
   0   4   0   15.70    1.05
   1   4   0   10.45    1.03
   2   4   0   45.48    1.84
   3   4   0   68.53    2.16
   4   4   0   42.41    1.49
  -3   5   0   36.18    1.53
  -2   5   0   22.62    1.42
  -1   5   0   12.22    1.09
   0   5   0  113.55    2.59
   1   5   0  154.11    3.14
   2   5   0  132.37    2.80
   3   5   0   47.92    1.44
  -4   6   0   30.27    1.80
  -3   6   0    0.82    1.03
  -2   6   0   36.37    1.62
  -1   6   0   96.84    2.44
   0   6   0  137.23    2.84
   1   6   0   65.40    1.89
   2   6   0   10.33    0.81
  -6   7   0   10.99    1.14
  -4   7   0    8.78    1.02
  -3   7   0   58.24    1.81
  -2   7   0   68.30    1.91
  -1   7   0   25.56    1.29
   0   7   0    1.46    0.79
  -4   8   0   33.59    1.16
  -3   8   0   41.38    1.21
   3   1   1   70.33    1.67
   4   1   1   13.41    1.07
   2   2   1   38.45    1.30
   3   2   1    3.16    0.85
   4   2   1   55.84    1.95
   1   3   1    0.65    0.75
   2   3   1   23.75    1.23
   3   3   1  103.35    2.62
   4   3   1   44.66    1.72
  -2   4   1   12.50    1.03
  -1   4   1   32.11    1.27
   0   4   1   61.89    1.74
   1   4   1  127.83    2.75
   2   4   1  100.96    2.53
   3   4   1   38.40    1.59
  -4   5   1    7.34    1.19
  -3   5   1    6.95    1.18
  -2   5   1  138.70    2.65
  -1   5   1  158.96    2.90
   0   5   1  144.64    2.89
   1   5   1   99.01    2.44
   2   5   1   22.32    1.22
  -5   6   1    0.58    1.13
  -4   6   1   25.77    1.46
  -3   6   1  108.34    2.41
  -2   6   1  178.39    3.09
  -1   6   1   57.00    1.87
   0   6   1    9.43    0.92
   1   6   1   -0.54    0.78
  -4   7   1   35.05    1.32
  -3   7   1   25.74    1.19
  -2   7   1   -0.18    0.85
  -1   7   1   11.16    0.84
   3   0   2   91.28    1.71
   3   1   2   24.55    1.15
   4   1   2  135.97    2.78
   1   2   2    4.15    0.73
   2   2   2  150.09    2.53
   3   2   2  181.20    3.12
   4   2   2  120.25    2.70
   0   3   2   22.70    1.01
   1   3   2  148.94    2.59
   2   3   2  133.32    2.71
   3   3   2   51.47    1.79
  -2   4   2   84.25    1.79
  -1   4   2  178.13    2.67
   0   4   2   77.98    1.99
   1   4   2   54.90    1.82
   2   4   2    2.87    0.84
   3   4   2   16.47    0.98
  -3   5   2  126.30    2.32
  -2   5   2  181.69    2.84
  -1   5   2   97.88    2.24
   0   5   2   23.11    1.25
   1   5   2    0.94    0.82
   2   5   2   38.66    1.26
  -3   6   2   36.55    1.43
  -2   6   2    4.27    0.92
  -1   6   2    0.87    0.91
   0   6   2   27.04    1.08
   3   0   3    6.59    0.66
   2   1   3  246.54    2.85
   3   1   3  196.80    3.00
   1   2   3  209.06    2.61
   2   2   3  230.26    3.19
   3   2   3   81.85    2.11
   0   3   3  143.28    2.28
   1   3   3   44.54    1.49
   2   3   3    0.50    0.77
   3   3   3   20.34    1.07
  -1   4   3   71.66    1.69
   0   4   3    1.75    0.87
   1   4   3   31.27    1.31
   2   4   3   71.77    1.73
   0   5   3   45.02    1.38
   1   5   3   85.29    1.66
   2   1   4  178.35    2.46
   2   2   4    6.24    0.87
   1   3   4   27.23    1.16
   2   3   4   63.46    1.59
   4   1  -8   21.83    0.87
   5   1  -8   12.44    0.66
   4   2  -8    1.46    0.55
   5   2  -8   10.47    0.61
   4   4  -8   34.13    0.96
   4   0  -7   48.76    1.35
   5   0  -7   16.62    0.84
   6   0  -7   -0.21    0.52
   5   1  -7   37.60    1.25
   6   1  -7   47.30    1.15
   5   2  -7   99.50    1.90
   5   3  -7    3.69    0.52
   4  -1  -6  140.31    2.09
   5  -1  -6   19.99    0.94
   4   0  -6    1.55    0.54
   5   0  -6   26.88    1.12
   6   0  -6   44.13    1.37
   5   1  -6   96.43    2.11
   6   1  -6   31.76    1.16
   5   2  -6   10.28    0.80
   6   2  -6   -0.15    0.55
   5   3  -6   28.27    1.04
   3  -1  -5   45.97    1.06
   4  -1  -5    0.25    0.50
   5  -1  -5   11.80    0.80
   6  -1  -5   50.60    1.54
   5   0  -5   37.19    1.41
   6   0  -5   21.96    1.11
   5   1  -5   11.87    0.90
   6   1  -5    0.45    0.58
   5   2  -5   19.91    1.01
   6   2  -5   15.20    0.75
   5   3  -5   47.47    1.28
   4  -2  -4    8.83    0.64
   5  -2  -4   34.02    1.19
   4  -1  -4  116.78    1.93
   5  -1  -4   39.22    1.35
   6  -1  -4   40.23    1.45
   5   0  -4    2.39    0.55
   6   0  -4    6.74    0.70
   5   1  -4   33.11    1.29
   6   1  -4   50.06    1.44
   5   2  -4   47.57    1.46
   6   2  -4    8.67    0.72
   4  -2  -3  197.40    2.28
   5  -2  -3  168.29    2.50
   4  -1  -3   89.21    1.62
   5  -1  -3    1.58    0.51
   6  -1  -3   13.79    0.91
   5   0  -3   77.85    1.82
   6   0  -3  117.53    2.27
   5   1  -3  103.87    2.08
   6   1  -3   32.13    1.14
   5   2  -3   -0.33    0.69
   4  -2  -2  169.86    2.04
   5  -2  -2    5.68    0.58
   4  -1  -2   51.36    1.15
   5  -1  -2   76.15    1.66
   4   0  -2  300.40    2.83
   5   0  -2  118.06    2.08
   6   0  -2   51.01    1.48
   5   1  -2    0.85    0.62
   4  -2  -1   31.97    0.87
   4  -1  -1  149.91    1.81
   5  -1  -1   75.22    1.56
   4   0  -1   90.91    1.46
   5   0  -1    0.94    0.53
   4   1  -1   30.36    0.92
   4  -1   0   58.71    1.09
   4   0   0   50.25    1.07
   6  -3  -5   21.26    1.12
   7  -3  -5    7.17    1.04
   7  -4  -4   11.00    1.24
   7  -3  -4   40.07    1.41
   5  -4  -3   25.29    1.19
   6  -4  -3    1.34    1.03
   7  -4  -3   20.69    1.15
   7  -3  -3  104.20    2.31
   8  -3  -3   13.83    0.99
   7  -5  -2   11.68    0.91
   5  -4  -2   57.30    1.68
   6  -4  -2   60.62    1.87
   7  -4  -2   33.24    1.57
   8  -4  -2   11.54    1.03
   7  -3  -2    0.05    0.38
   8  -3  -2    5.42    0.98
   7  -2  -2   35.72    1.58
   5  -5  -1   30.40    1.32
   6  -5  -1   56.50    1.81
   7  -5  -1   28.59    1.45
   4  -4  -1  155.90    2.20
   5  -4  -1   78.13    1.89
   6  -4  -1   15.34    1.18
   7  -4  -1    0.98    1.06
   8  -4  -1   17.15    1.12
   7  -3  -1   67.82    2.01
   8  -3  -1   55.08    1.51
   7  -2  -1   63.66    1.97
   7  -1  -1   -0.46    1.14
   5  -5   0   79.69    2.02
   6  -5   0   44.62    1.73
   3  -4   0   60.58    1.33
   4  -4   0   22.33    0.99
   5  -4   0    3.01    0.73
   6  -4   0   39.85    1.61
   7  -4   0   73.07    2.09
   4  -3   0   41.30    1.11
   5  -3   0  146.55    2.41
   6  -3   0   80.62    2.01
   7  -3   0   85.46    2.21
   8  -3   0   16.82    1.31
   6  -2   0   14.30    1.08
   7  -2   0    0.88    1.30
   6  -1   0   40.57    1.44
   6  -5   1   24.47    1.45
   3  -4   1    4.74    0.67
   4  -4   1   91.35    1.77
   5  -4   1  175.94    2.73
   6  -4   1  133.20    2.60
   7  -4   1   46.36    1.72
   4  -3   1  195.38    2.23
   5  -3   1  173.37    2.51
   6  -3   1   28.93    1.39
   7  -3   1    0.03    0.59
   5  -2   1    3.32    0.80
   6  -2   1   30.17    1.31
   4  -4   2  221.62    2.73
   5  -4   2  111.64    2.24
   6  -4   2   16.54    1.18
   4  -3   2   43.98    1.24
   5  -3   2    1.02    0.74
   6  -3   2   17.85    1.13
   4  -2   2  105.52    1.65
   5  -2   2  193.98    2.47
   4  -3   3   43.87    1.26
  -6   6  -6    3.58    1.35
  -6   6  -5   11.93    1.48
  -4   6  -5    0.25    1.34
  -6   7  -5    1.92    1.35
  -7   6  -4    0.54    1.23
  -6   6  -4    0.93    1.49
  -5   6  -4   21.60    1.81
  -4   6  -4   31.90    2.00
  -6   7  -4    8.07    1.30
  -5   7  -4   11.94    1.49
  -7   6  -3    6.27    1.55
  -6   6  -3   28.74    2.19
  -5   6  -3   33.82    2.33
  -4   6  -3    8.80    1.76
  -3   6  -3    1.03    1.36
  -7   7  -3   21.97    1.43
  -6   7  -3    9.00    1.49
  -5   7  -3    3.55    1.28
  -4   7  -3    4.75    1.32
  -7   5  -2    9.70    1.84
  -3   5  -2    1.41    1.36
  -2   5  -2   46.36    1.75
  -7   6  -2    5.79    1.62
  -6   6  -2    5.80    1.81
  -5   6  -2    1.85    1.79
  -4   6  -2   10.84    1.90
  -3   6  -2  183.34    3.45
  -7   7  -2    0.79    1.13
  -6   7  -2    3.69    1.37
  -5   7  -2   41.74    2.14
  -4   7  -2   84.17    2.62
  -7   5  -1    7.05    1.83
  -6   5  -1   18.91    2.12
  -5   5  -1    0.60    1.76
  -4   5  -1   30.48    2.17
  -3   5  -1   20.04    1.74
  -2   5  -1  237.87    3.56
  -7   6  -1    1.05    1.48
  -6   6  -1    7.55    1.82
  -5   6  -1   25.59    2.17
  -4   6  -1  117.50    3.19
  -3   6  -1  112.48    3.05
  -7   7  -1   22.28    1.45
  -6   7  -1   61.28    2.27
  -5   7  -1   81.49    2.65
  -7   4   0   20.97    2.00
  -6   4   0   29.99    2.19
  -4   4   0   23.65    1.74
  -3   4   0   21.63    1.54
  -2   4   0  261.19    3.32
  -7   5   0    1.46    1.54
  -6   5   0   12.70    2.05
  -5   5   0   27.33    2.27
  -4   5   0   19.82    1.92
  -3   5   0   58.75    2.25
  -7   6   0   40.65    1.93
  -6   6   0   88.62    2.87
  -5   6   0   92.22    3.02
  -4   6   0   39.79    2.20
  -6   3   1    9.19    1.60
  -4   3   1   73.44    2.08
  -7   4   1    0.72    1.55
  -6   4   1    4.62    1.64
  -5   4   1   22.85    2.00
  -4   4   1   45.31    2.14
  -3   4   1   96.09    2.41
  -2   4   1   13.10    1.33
  -7   5   1   21.27    1.68
  -6   5   1   39.49    2.19
  -5   5   1   40.19    2.29
  -4   5   1   10.38    1.78
  -7   6   1   23.43    1.47
  -6   6   1   17.15    1.72
  -4   2   2  166.29    2.53
  -5   3   2   64.96    2.32
  -4   3   2   64.82    2.03
  -3   3   2  200.39    2.93
  -2   3   2   34.59    1.42
  -6   4   2   46.14    2.08
  -5   4   2   72.20    2.49
  -4   4   2    4.67    1.37
  -3   4   2   33.44    1.74
  -6   5   2    2.70    1.26
  -5   5   2    5.79    1.46
  -4   3   3   16.57    1.41
  -5   4   3   23.15    1.67
   1  -1  -9    6.74    0.60
   2  -1  -9   35.78    1.01
   0   0  -9   28.80    0.94
  -1   1  -9   39.50    1.08
   0  -2  -8    6.21    0.69
   1  -2  -8    5.16    0.58
   2  -2  -8   26.75    0.95
   3  -2  -8   44.51    1.20
  -1  -1  -8   10.79    0.79
   0  -1  -8   43.36    1.25
  -1   0  -8  130.00    2.12
   0  -3  -7    1.93    0.71
   1  -3  -7   12.40    0.75
   2  -3  -7   32.68    1.14
   3  -3  -7   80.15    1.67
  -1  -2  -7    5.22    0.74
   0  -2  -7   33.27    1.17
   1  -2  -7   47.22    1.52
  -1  -1  -7  133.61    2.28
   0  -4  -6    0.65    0.67
   1  -4  -6   31.59    1.15
   2  -4  -6   58.18    1.46
   3  -4  -6  137.94    2.16
  -1  -3  -6   10.39    0.76
   0  -3  -6   45.44    1.41
   1  -3  -6   88.19    2.00
   2  -3  -6   63.04    1.72
   3  -3  -6   31.85    1.23
  -1  -2  -6   46.44    1.46
   0  -2  -6   84.57    1.99
  -2  -1  -6   63.54    1.61
  -1  -1  -6   22.84    1.09
  -2   0  -6    1.29    0.71
   1  -5  -5   17.24    0.89
   2  -5  -5   39.50    1.20
   3  -5  -5   77.87    1.62
  -1  -4  -5   22.23    1.05
   0  -4  -5   64.24    1.64
   1  -4  -5  182.95    2.83
   2  -4  -5   92.54    2.04
   3  -4  -5   33.96    1.26
  -2  -3  -5   27.32    1.08
  -1  -3  -5   60.05    1.68
   0  -3  -5   89.31    2.06
   1  -3  -5   38.51    1.37
   2  -3  -5    1.75    0.64
  -2  -2  -5   46.98    1.47
  -1  -2  -5    5.97    0.64
   0  -2  -5    2.62    0.56
  -2  -1  -5    0.18    0.49
   2  -6  -4   29.41    1.05
   0  -5  -4   40.83    1.36
   1  -5  -4  118.31    2.30
   2  -5  -4   64.15    1.71
   3  -5  -4    5.06    0.87
  -2  -4  -4   43.66    1.31
  -1  -4  -4  113.12    2.26
   0  -4  -4   83.44    2.08
   1  -4  -4   44.89    1.55
   2  -4  -4    0.88    0.59
   3  -4  -4   40.73    1.30
  -2  -3  -4   56.93    1.63
  -1  -3  -4   23.38    1.20
   0  -3  -4    0.52    0.51
   1  -3  -4   43.53    1.37
  -2  -2  -4    8.10    0.81
  -1  -2  -4   69.72    1.65
  -2  -1  -4  153.03    2.22
   0  -6  -3   26.53    1.02
   1  -6  -3   38.32    1.32
   2  -6  -3   34.65    1.32
  -1  -5  -3   71.41    1.78
   0  -5  -3   42.39    1.57
   1  -5  -3    4.98    0.71
   2  -5  -3   21.81    1.09
   3  -5  -3   71.85    1.71
  -2  -4  -3   47.32    1.59
  -1  -4  -3   26.41    1.24
   0  -4  -3    1.12    0.69
   1  -4  -3   69.22    1.72
   2  -4  -3   80.75    1.74
   3  -4  -3   97.09    1.77
  -2  -3  -3    0.81    0.83
  -1  -3  -3   41.36    1.36
   0  -3  -3  125.52    2.11
   1  -3  -3  180.01    2.38
  -2  -2  -3  208.54    2.73
  -1  -2  -3  167.77    2.25
  -2  -1  -3  209.35    2.28
   2  -7  -2   39.78    1.22
   0  -6  -2   18.85    1.06
   1  -6  -2    0.88    0.85
   2  -6  -2    5.05    0.88
  -2  -5  -2   26.20    1.12
  -1  -5  -2    0.42    0.89
   0  -5  -2   24.21    1.29
   1  -5  -2  100.18    2.18
   2  -5  -2  194.82    2.78
  -2  -4  -2    1.18    0.93
  -1  -4  -2   52.32    1.66
   0  -4  -2   79.71    1.86
   1  -4  -2  165.26    2.35
   2  -4  -2   89.78    1.66
  -3  -3  -2   29.69    1.26
  -2  -3  -2  116.67    2.27
  -1  -3  -2  136.20    2.19
   0  -3  -2   23.68    0.84
   1  -3  -2    2.23    0.50
  -2  -2  -2  136.90    2.03
  -1  -2  -2    4.78    0.48
   1  -7  -1   10.18    0.88
   2  -7  -1    2.69    1.02
  -1  -6  -1    0.57    0.87
   0  -6  -1    8.03    0.87
   1  -6  -1   44.53    1.60
   2  -6  -1  176.68    2.85
  -2  -5  -1   16.49    1.08
  -1  -5  -1   69.18    2.03
   0  -5  -1  130.19    2.58
   1  -5  -1  168.36    2.68
   2  -5  -1  159.30    2.38
  -3  -4  -1   27.32    1.32
  -2  -4  -1   75.99    2.05
  -1  -4  -1  123.97    2.39
   0  -4  -1   67.47    1.60
   1  -4  -1   35.29    1.04
   2  -4  -1   15.12    0.68
  -3  -3  -1   71.16    1.91
  -2  -3  -1   22.88    1.10
  -1  -3  -1    0.84    0.52
   0  -3  -1   38.86    0.98
  -2  -2  -1   43.26    1.10
   0  -7   0    0.48    0.91
   1  -7   0   19.26    1.19
   2  -7   0   55.52    1.68
  -2  -6   0    7.88    1.04
  -1  -6   0   47.95    1.70
   0  -6   0  107.29    2.51
   1  -6   0   83.83    2.15
   2  -6   0   36.98    1.41
  -3  -5   0   31.23    1.34
  -2  -5   0   92.32    2.35
  -1  -5   0  114.80    2.59
   0  -5   0   98.48    2.20
   1  -5   0   12.87    0.82
   2  -5   0   29.03    1.10
  -3  -4   0   50.04    1.75
  -2  -4   0   39.60    1.54
  -1  -4   0   11.30    0.85
   0  -4   0   21.57    0.91
   1  -4   0  263.16    2.53
  -3  -3   0    1.93    1.08
  -2  -3   0   50.81    1.45
  -1  -3   0  273.93    2.64
  -1  -7   1   25.38    1.11
   0  -7   1   53.49    1.74
   1  -7   1   36.90    1.58
   2  -7   1    8.76    1.15
  -2  -6   1   65.70    1.84
  -1  -6   1   68.55    2.11
   0  -6   1   22.61    1.34
   1  -6   1    5.22    0.89
   2  -6   1   55.30    1.63
  -3  -5   1   50.74    1.71
  -2  -5   1   64.71    2.09
  -1  -5   1    8.39    0.90
   0  -5   1   21.14    1.10
   1  -5   1   81.30    1.78
   2  -5   1  234.16    2.68
  -3  -4   1    1.64    1.13
  -2  -4   1   21.64    1.25
  -1  -4   1  157.17    2.54
   0  -4   1  207.10    2.49
  -3  -3   1   81.44    2.03
  -2  -3   1  343.22    3.47
  -3  -2   1  314.23    3.37
   1  -8   2   36.04    1.22
  -1  -7   2   35.11    1.42
   0  -7   2    3.77    0.92
   1  -7   2    2.38    1.01
   2  -7   2   32.29    1.49
  -2  -6   2   13.05    1.16
  -1  -6   2    2.72    0.97
   0  -6   2   43.09    1.74
   1  -6   2   77.81    2.11
   2  -6   2  170.12    2.81
  -3  -5   2    2.16    1.11
  -2  -5   2   18.68    1.37
  -1  -5   2   59.28    1.91
   0  -5   2  133.39    2.53
   1  -5   2   78.80    1.76
  -3  -4   2   36.02    1.58
  -2  -4   2  144.40    2.83
  -1  -4   2   90.29    1.97
   0  -4   2   11.05    0.75
  -3  -3   2  205.16    3.26
  -2  -3   2   61.33    1.65
  -3  -2   2   -0.15    1.08
   0  -7   3   36.80    1.56
   1  -7   3   76.41    2.17
  -2  -6   3   32.19    1.44
  -1  -6   3   59.74    2.04
   0  -6   3  133.07    2.90
   1  -6   3  115.43    2.55
  -2  -5   3   84.96    2.43
  -1  -5   3   55.89    1.90
   0  -5   3   26.58    1.31
   1  -5   3    1.42    0.87
  -3  -4   3   31.49    1.55
  -2  -4   3    5.06    0.98
  -1  -4   3   15.57    1.05
   0  -4   3  179.89    2.56
  -2  -3   3  112.37    2.22
  -1  -6   4   92.82    2.50
   0  -6   4   36.73    1.64
   1  -6   4   -1.61    1.05
  -2  -5   4   11.72    1.18
  -1  -5   4    3.07    0.93
   0  -5   4   74.68    2.06
   1  -5   4  122.90    2.38
  -2  -4   4  114.43    2.64
  -1  -4   4  275.58    3.65
   0  -4   4  391.89    3.97
   1   4   0   13.01    1.23
   3   1   1  101.52    2.06
   2   2   1   22.79    1.15
   3   2   1    3.12    1.18
   1   3   1    0.12    1.03
   2   3   1   21.22    1.30
   1   4   1  165.38    3.22
   2   4   1  110.41    2.53
   0   5   1  182.39    3.51
   1   5   1  116.73    2.61
  -1   6   1   67.71    2.24
   0   6   1   11.85    1.17
  -2   7   1    1.08    1.01
   2   1   2   16.04    0.96
   3   1   2   17.33    1.07
   1   2   2    6.14    0.94
   2   2   2  125.65    2.73
   3   2   2  148.21    3.15
   1   3   2  165.40    3.20
   2   3   2  143.95    3.16
   0   4   2  103.89    2.72
   1   4   2   76.35    2.39
   2   4   2    1.65    1.20
   0   5   2   35.52    1.71
   1   5   2    2.49    1.19
  -1   6   2    1.34    1.05
   0   6   2   33.54    1.35
  -3   7   2   13.72    1.06
  -2   7   2   54.71    1.56
   2   1   3  271.89    3.79
   3   1   3  199.01    3.73
   1   2   3  261.32    3.83
   2   2   3  254.98    4.17
   3   2   3   75.80    2.43
   0   3   3  170.97    3.25
   1   3   3   52.93    2.05
   2   3   3    2.08    1.08
   0   4   3    1.75    1.04
   1   4   3   39.50    1.79
   2   4   3   92.24    2.30
  -1   5   3    4.89    1.08
   0   5   3   62.38    2.04
   1   5   3  117.62    2.34
  -2   6   3   48.58    1.75
  -1   6   3   57.81    1.69
   2  -1   4   15.03    0.93
   2   0   4   88.85    2.17
   0   1   4  523.43    4.44
   1   1   4  321.97    4.10
   2   1   4  220.20    3.77
   3   1   4   59.91    2.22
   0   2   4  425.54    4.75
   1   2   4  106.49    2.69
   2   2   4    9.87    1.05
   0   3   4    0.07    1.00
   1   3   4   35.58    1.78
   2   3   4   77.38    2.40
  -1   4   4   60.34    2.18
   0   4   4  111.92    2.84
   1   4   4  165.34    3.17
  -2   5   4   78.27    2.33
  -1   5   4  151.88    3.03
   0   5   4   66.43    1.83
  -4   6   4   23.11    1.13
  -3   6   4   37.97    1.42
  -2   6   4   59.43    1.59
   1  -1   5   27.53    1.06
   0   0   5  171.66    2.36
   1   0   5  297.46    3.71
   2   0   5   89.88    2.43
  -1   1   5  265.17    3.14
   0   1   5  337.47    4.00
   1   1   5   78.87    2.21
   2   1   5    2.77    0.99
  -1   2   5   97.07    2.30
   0   2   5    6.83    0.98
   1   2   5    8.35    1.04
   2   2   5   66.85    2.32
  -2   3   5    0.88    0.96
  -1   3   5   53.62    1.97
   0   3   5  125.02    2.98
   1   3   5   86.72    2.42
  -2   4   5  120.21    2.71
  -1   4   5  242.52    3.86
   0   4   5   96.55    2.35
   1   4   5   33.72    1.28
  -4   5   5   57.39    1.57
  -3   5   5   91.68    2.10
  -2   5   5   55.61    1.68
  -1   5   5   21.24    1.09
   0   0   6  114.01    2.17
   1   0   6   35.12    1.44
  -1   1   6   60.59    1.67
   0   1   6    1.27    0.96
   1   1   6   33.90    1.58
   2   1   6   86.68    2.47
  -1   2   6   14.46    1.04
   0   2   6  116.61    2.71
   1   2   6   64.69    2.12
  -2   3   6   86.10    2.14
  -1   3   6  119.51    2.57
   0   3   6   65.69    1.94
   1   3   6   15.58    0.99
  -3   4   6  157.04    2.55
  -2   4   6   81.31    1.90
  -1   4   6   39.10    1.32
   0   4   6   -0.48    0.84
   0   1   7  143.98    2.62
   1   1   7  169.56    2.97
  -1   2   7   60.37    1.68
   0   2   7   50.23    1.56
  -1   3   7   15.38    0.96
   1   1 -10   34.40    0.90
   2   1 -10   49.69    1.09
   0   2 -10   24.83    0.79
   2  -1  -9   46.03    1.10
   3  -1  -9   75.29    1.39
   0   0  -9   29.41    0.86
   1   0  -9  101.94    1.75
   2   0  -9   97.81    1.82
   3   0  -9   47.88    1.28
   4   0  -9    4.93    0.74
   0   1  -9   45.15    1.20
   3   1  -9    6.83    0.65
   2  -2  -8   30.69    1.00
   3  -2  -8   42.44    1.20
   4  -2  -8   35.37    1.03
   0  -1  -8   60.18    1.22
   1  -1  -8   89.57    1.77
   2  -1  -8   81.42    1.82
   3  -1  -8   27.59    1.10
   0   0  -8   85.89    1.73
   1   0  -8   56.76    1.55
   3   0  -8    5.16    0.72
   4   0  -8   20.57    0.94
   4   1  -8   17.77    0.88
   1  -2  -7   42.32    1.30
   2  -2  -7   52.35    1.49
   3  -2  -7   15.21    0.92
   4  -2  -7    0.19    0.33
   0  -1  -7   99.64    1.86
   1  -1  -7   23.01    1.04
   2  -1  -7    0.65    0.73
   3  -1  -7   32.79    1.31
   4  -1  -7   84.81    1.88
   4   0  -7   45.50    1.43
   2  -3  -6   55.33    1.58
   3  -3  -6   31.14    1.25
   0  -2  -6   80.36    1.63
   1  -2  -6    9.36    0.73
   2  -2  -6    1.75    0.63
   3  -2  -6   43.04    1.47
   4  -2  -6  124.46    2.33
   0  -1  -6    0.48    0.63
   4  -1  -6  143.10    2.43
   1  -3  -5   35.19    1.20
   2  -3  -5    1.04    0.51
   3  -3  -5   23.75    1.11
   4  -3  -5   66.34    1.75
   0  -2  -5    3.86    0.58
   1  -2  -5   69.55    1.59
   2  -2  -5  189.71    2.65
   3  -2  -5  189.62    2.72
   4  -2  -5  117.62    2.16
   4  -1  -5    0.10    0.70
   1  -3  -4   40.56    1.23
   2  -3  -4   76.21    1.70
   3  -3  -4   84.81    1.84
   4  -3  -4   35.64    1.23
   0  -2  -4  278.93    2.66
   1  -2  -4  225.60    2.46
   2  -2  -4  126.77    1.92
   3  -2  -4   11.23    0.67
   4  -2  -4    8.62    0.68
   1  -3  -3  124.09    1.88
   2  -3  -3   24.72    0.89
   3  -3  -3    4.55    0.50
   4  -3  -3   18.89    0.83
   3  -2  -3   99.40    1.51
   2  -3  -2   29.74    0.83
   3  -3  -2  200.82    2.15
   0  -5   3   33.05    1.16
   1  -5   3    0.08    0.95
  -1  -4   3   17.24    1.14
  -1  -5   4    3.79    1.11
   0  -5   4   91.20    2.02
   1  -5   4  127.51    2.45
  -2  -4   4  144.82    2.49
  -1  -4   4  323.49    3.56
   0  -4   4  336.58    3.51
   1  -4   4  126.67    2.21
   2  -4   4   13.70    1.00
  -4  -3   4   50.24    1.62
  -1  -3   4  190.65    2.58
  -1  -6   5    1.27    1.09
   0  -6   5   45.63    1.59
   1  -6   5   99.41    2.36
  -2  -5   5   63.13    1.66
  -1  -5   5  164.97    2.76
   0  -5   5  125.50    2.49
   1  -5   5   38.68    1.57
  -3  -4   5  139.26    2.52
  -2  -4   5  227.92    3.25
  -1  -4   5  128.56    2.52
   0  -4   5   10.59    1.06
   1  -4   5   16.68    1.14
   2  -4   5  108.85    2.29
  -4  -3   5   63.11    1.82
  -2  -3   5   28.85    1.37
  -1  -3   5    4.76    0.93
   0  -3   5   74.55    1.83
   1  -3   5  137.84    2.26
   2  -3   5  141.30    2.22
  -6  -2   5   18.86    1.01
  -1  -6   6   84.14    1.91
   0  -6   6   64.63    1.87
   1  -6   6   30.63    1.55
  -3  -5   6   81.79    1.63
  -2  -5   6   72.47    1.83
  -1  -5   6   34.99    1.46
   0  -5   6    1.58    0.95
   1  -5   6   52.01    1.85
  -4  -4   6  113.08    1.96
  -3  -4   6   50.65    1.70
  -2  -4   6    2.49    0.99
  -1  -4   6   18.81    1.35
   0  -4   6  132.17    2.59
   1  -4   6  114.19    2.37
  -5  -3   6   49.46    1.41
  -4  -3   6   15.23    1.24
  -2  -3   6   88.56    2.19
  -1  -3   6  155.62    2.74
   0  -3   6  171.36    2.82
   1  -3   6   45.90    1.50
  -6  -2   6    0.13    0.94
  -1  -2   6   64.13    1.77
   0  -2   6    4.37    1.18
  -2  -6   7   21.09    0.88
  -1  -6   7   18.12    1.14
   0  -6   7   -0.72    0.91
  -3  -5   7   12.92    0.87
  -2  -5   7    4.19    0.90
  -1  -5   7   58.98    1.81
   0  -5   7  146.48    2.86
   1  -5   7  171.69    3.09
  -4  -4   7    0.35    0.84
  -3  -4   7    9.69    1.03
  -2  -4   7   76.48    2.17
  -1  -4   7  132.73    2.74
   0  -4   7  154.87    2.85
   1  -4   7   74.91    2.04
  -5  -3   7    5.68    0.86
  -4  -3   7   58.67    1.75
  -3  -3   7   66.81    2.04
  -2  -3   7  108.58    2.49
  -1  -3   7   37.38    1.62
   0  -3   7    5.24    1.10
   1  -3   7   58.65    1.71
  -5  -2   7  121.94    2.28
  -4  -2   7   73.04    2.01
  -3  -2   7   24.64    1.45
  -1  -2   7   76.61    1.94
  -6  -1   7   53.34    1.35
  -2  -1   7   71.35    1.83
  -2  -6   8    0.81    0.80
  -1  -6   8   19.59    1.03
   0  -6   8   64.62    1.79
  -3  -5   8   29.46    0.98
  -2  -5   8   72.18    1.71
  -1  -5   8  149.30    2.61
   0  -5   8  130.02    2.56
   1  -5   8   47.45    1.67
  -4  -4   8   58.05    1.23
  -3  -4   8   62.49    1.65
  -2  -4   8   91.54    2.13
  -1  -4   8   71.70    1.94
   0  -4   8    5.44    1.01
   1  -4   8   17.57    1.19
  -4  -3   8   55.81    1.50
  -3  -3   8    9.74    1.04
  -2  -3   8    6.52    1.03
  -1  -3   8   76.10    1.98
   0  -3   8  185.59    2.78
  -5  -2   8   14.38    0.88
  -4  -2   8    1.89    0.84
  -3  -2   8   34.84    1.48
  -2  -2   8  130.74    2.41
  -5  -1   8   15.94    0.96
  -4  -1   8   28.93    1.27
  -3  -1   8   88.84    1.95
  -5   0   8   46.39    1.21
  -2  -5   9   51.30    1.27
  -1  -5   9   30.73    1.16
   0  -5   9    0.70    0.88
  -3  -4   9   27.73    0.99
  -2  -4   9    0.80    0.82
  -1  -4   9   26.09    1.13
   0  -4   9   82.95    1.85
  -4  -3   9    5.26    0.73
  -3  -3   9   34.86    1.19
  -2  -3   9  127.13    2.11
  -1  -3   9  143.18    2.23
  -4  -2   9   66.15    1.39
  -3  -2   9   85.37    1.68
   3   5   0   24.05    1.15
   2   6   0    6.57    0.86
   3   4   1   26.39    1.12
   1   6   1   -0.29    0.85
  -2   7   1   -0.34    1.01
  -1   7   1    5.74    0.92
   3   3   2   43.08    1.46
   3   4   2    9.10    1.16
  -2   5   2  189.28    2.93
   1   5   2    1.30    0.93
   2   5   2   24.68    1.11
  -2   6   2    4.72    0.99
  -1   6   2    0.02    0.90
   0   6   2   19.18    1.04
   1   6   2   31.29    1.08
  -2   7   2   30.89    1.18
   2   1   3  248.92    2.66
   0   2   3  229.32    2.49
   2   2   3  221.53    2.90
  -2   3   3   31.13    1.13
  -1   3   3  254.95    3.02
   0   3   3  130.92    2.36
   1   3   3   43.64    1.52
   2   3   3    0.27    0.92
  -2   4   3   88.23    1.97
  -1   4   3   73.25    1.91
   0   4   3    2.82    0.86
   1   4   3   30.03    1.40
   2   4   3   65.38    1.74
  -2   5   3   21.64    1.23
  -1   5   3    3.59    0.94
   0   5   3   45.02    1.58
   1   5   3   80.59    1.83
  -2   6   3   39.12    1.42
  -1   6   3   43.01    1.39
   0   6   3   27.55    1.03
   0   1   4  459.75    3.52
   1   1   4  286.04    2.99
   2   1   4  196.53    2.67
  -1   2   4  308.22    3.33
   0   2   4  336.29    3.48
   1   2   4   82.82    1.90
   2   2   4    7.93    1.05
  -2   3   4  103.02    2.11
  -1   3   4   53.92    1.63
   0   3   4    1.20    0.87
   1   3   4   28.87    1.36
   2   3   4   67.56    1.81
  -2   4   4    2.19    1.03
  -1   4   4   48.73    1.71
   0   4   4   92.07    2.23
   1   4   4  125.99    2.41
  -1   5   4  126.77    2.41
   0   5   4   57.00    1.55
   0   2   5    4.97    0.88
   1   2   5    9.48    0.92
   0   3   5   97.38    2.27
   3   4  -9   19.77    1.03
   2   5  -9   36.40    1.26
   0   6  -9   26.62    1.13
   1   6  -9   35.38    1.24
   3   4  -8   37.07    1.46
   2   5  -8   44.82    1.65
   3   5  -8   17.53    1.03
   0   6  -8   39.85    1.62
   1   6  -8   13.61    0.96
   2   6  -8   -0.19    0.73
  -1   7  -8    4.08    0.89
   0   7  -8    1.35    0.73
   2   5  -7    1.31    0.80
   3   5  -7    7.46    0.82
  -1   6  -7   14.12    1.04
   0   6  -7    0.81    0.84
   1   6  -7   13.74    1.16
   2   6  -7   22.79    1.15
  -1   7  -7   30.75    1.37
   0   7  -7   57.72    1.74
   1   7  -7   38.20    1.36
   3   4  -6   32.90    1.60
   2   5  -6   59.94    2.17
   3   5  -6   47.42    1.78
  -1   6  -6   17.79    1.26
   0   6  -6   57.13    2.09
   1   6  -6   59.32    2.13
   2   6  -6   15.25    1.12
  -1   7  -6   65.14    2.02
   0   7  -6   38.57    1.62
   1   7  -6    6.49    0.78
   3   4  -5   89.70    2.48
   1   5  -5   94.38    2.62
   2   5  -5   38.67    1.75
   3   5  -5    1.44    0.89
  -2   6  -5   52.43    1.81
  -1   6  -5   63.59    2.07
   0   6  -5   29.68    1.63
   1   6  -5    0.14    0.82
   2   6  -5   11.41    1.08
  -1   7  -5    5.27    0.92
   0   7  -5    2.30    0.82
   1   7  -5   24.72    1.28
   3   3  -4   84.23    2.24
   2   4  -4   90.22    2.41
   3   4  -4    8.21    1.03
  -1   5  -4   89.31    2.16
   0   5  -4   57.76    1.92
   1   5  -4    1.51    0.77
   2   5  -4    8.91    1.08
   3   5  -4   14.91    1.15
  -2   6  -4   25.20    1.25
  -1   6  -4   -0.95    0.89
   0   6  -4   27.82    1.51
   1   6  -4   73.25    2.31
   2   6  -4   53.98    1.87
  -2   7  -4    1.93    1.06
  -1   7  -4   34.95    1.62
   0   7  -4   60.43    2.03
   3   3  -3    6.68    0.90
   1   4  -3   12.05    0.97
   2   4  -3    2.92    0.83
   3   4  -3   25.15    1.47
  -1   5  -3    1.01    0.77
   0   5  -3   20.56    1.27
   1   5  -3   42.35    1.76
   2   5  -3   65.60    2.22
  -2   6  -3   36.78    1.51
  -1   6  -3   86.24    2.43
   0   6  -3  109.41    2.80
   1   6  -3   72.15    2.36
   2   3  -2   38.97    1.39
   3   3  -2  152.56    2.81
   0   4  -2    7.21    0.65
   1   4  -2   60.04    1.82
   2   4  -2  117.34    2.67
  -2   5  -2   41.03    1.40
  -1   5  -2   56.06    1.69
   0   5  -2  105.24    2.49
   1   5  -2   56.65    2.05
  -1   6  -2   61.15    2.05
   2   3  -1  253.35    3.28
   0   4  -1  151.09    2.48
   1   4  -1   86.63    2.10
  -1   5  -1   52.97    1.69
   0   5  -1   15.92    1.14
   1   3   0   78.42    1.66
   2   1 -10   73.45    1.64
   1   2 -10   22.61    1.01
   2   2 -10    1.11    0.62
   1   3 -10    3.40    0.68
   2   3 -10   28.00    0.98
   3  -1  -9   92.85    1.90
   3   0  -9   67.34    1.91
   4   0  -9    3.09    0.64
   3   1  -9    7.70    0.92
   4   1  -9   25.06    1.14
   2   2  -9  101.66    2.51
   3   2  -9   43.26    1.51
   4   2  -9   43.83    1.37
   1   3  -9   98.33    2.25
   2   3  -9   91.40    2.14
   3   3  -9   21.38    0.98
   3  -2  -8   50.35    1.55
   4  -1  -8    0.32    0.81
   5  -1  -8   10.60    0.83
   3   0  -8    8.70    1.09
   4   0  -8   21.80    1.40
   5   0  -8   45.73    1.54
   3   1  -8   63.18    2.30
   4   1  -8   20.08    1.26
   5   1  -8    9.75    0.80
   2   2  -8  105.17    2.81
   3   2  -8   23.68    1.38
   4   2  -8    1.94    0.66
   5   2  -8   11.00    0.80
   2   3  -8    4.43    0.84
   3   3  -8    9.71    0.89
   4   3  -8   31.82    1.27
   4  -2  -7    0.53    0.95
   5  -2  -7   10.32    0.99
   4  -1  -7   81.19    2.49
   5  -1  -7   69.24    2.11
   6  -1  -7   70.36    1.78
   4   0  -7   43.36    1.96
   5   0  -7   12.61    1.15
   6   0  -7    0.67    0.71
   3   1  -7   11.29    1.21
   4   1  -7    1.41    0.89
   5   1  -7   40.82    1.72
   6   1  -7   42.67    1.41
   3   2  -7   24.04    1.43
   4   2  -7   49.76    1.86
   5   2  -7   86.82    2.23
   2   3  -7   71.72    2.13
   3   3  -7   41.25    1.64
   4   3  -7   34.80    1.47
   5   3  -7    1.93    0.70
   3   4  -7    6.46    0.83
   4  -2  -6   97.65    2.73
   5  -2  -6   58.48    1.94
   4  -1  -6  105.06    2.90
   5  -1  -6   16.34    1.31
   6  -1  -6    0.30    0.89
   4   0  -6    1.50    0.85
   5   0  -6   35.58    1.78
   6   0  -6   41.51    1.69
   3   1  -6  106.00    2.74
   4   1  -6   75.44    2.45
   5   1  -6  105.78    2.80
   6   1  -6   38.55    1.57
   3   2  -6  162.36    3.24
   4   2  -6   56.73    2.06
   5   2  -6   14.81    1.21
   6   2  -6    0.96    0.69
   2   3  -6   58.07    1.85
   3   3  -6    0.75    0.74
   4   3  -6    7.90    0.95
   5   3  -6   29.22    1.31
   3   4  -6   31.63    1.35
   4   4  -6   97.43    2.12
   4  -2  -5   69.42    2.21
   5  -2  -5    3.26    0.99
   6  -2  -5    2.18    1.09
   4  -1  -5    1.63    0.90
   5  -1  -5   14.35    1.22
   6  -1  -5   39.37    1.76
   7  -1  -5   23.84    1.22
   4   0  -5   74.89    2.34
   5   0  -5   34.58    1.76
   6   0  -5   25.46    1.51
   7   0  -5    0.54    0.78
   3   1  -5  239.28    3.72
   4   1  -5   58.73    2.08
   5   1  -5   17.15    1.34
   6   1  -5    1.07    0.87
   2   2  -5  170.61    2.84
   3   2  -5   20.51    1.21
   4   2  -5    2.74    0.80
   5   2  -5   28.13    1.55
   6   2  -5   16.63    1.10
   2   3  -5   23.90    1.17
   3   3  -5   53.05    1.83
   4   3  -5   51.42    1.86
   5   3  -5   56.05    1.90
   3   4  -5   80.91    2.09
   4   4  -5   57.23    1.80
   4  -2  -4    7.04    0.94
   5  -2  -4   33.30    1.49
   6  -2  -4   76.51    2.18
   4  -1  -4   91.85    2.36
   5  -1  -4   33.37    1.60
   6  -1  -4   40.92    1.82
   7  -1  -4    3.07    0.98
   3   0  -4  105.99    2.30
   4   0  -4   38.33    1.60
   5   0  -4    2.13    0.82
   6   0  -4    8.13    1.07
   7   0  -4   31.10    1.54
   3   1  -4   29.48    1.31
   4   1  -4    2.21    0.65
   5   1  -4   39.91    1.87
   6   1  -4   67.68    2.29
   7   1  -4   42.61    1.55
   3   2  -4   60.06    1.74
   4   2  -4   23.89    1.39
   5   2  -4   59.67    2.18
   6   2  -4   11.09    1.12
   2   3  -4   84.51    1.83
   3   3  -4   78.20    2.10
   4   3  -4   31.65    1.59
   5   3  -4    3.37    0.87
   3   4  -4    8.01    0.90
   4   4  -4    0.15    0.91
   4  -2  -3  200.04    3.02
   5  -2  -3  154.87    2.83
   6  -2  -3   51.84    1.89
   4  -1  -3   74.63    1.89
   5  -1  -3    1.24    0.80
   6  -1  -3   14.07    1.20
   7  -1  -3   31.35    1.56
   4   0  -3   15.35    0.98
   5   0  -3   66.87    2.19
   6   0  -3  156.29    3.52
   7   0  -3   52.01    1.87
   3   1  -3  116.90    2.20
   4   1  -3   94.84    2.29
   5   1  -3  102.19    2.81
   6   1  -3   33.54    1.78
   3   2  -3  100.15    2.13
   4   2  -3   16.88    1.19
   5   2  -3   -0.18    0.80
   6   2  -3   15.44    1.19
   2   3  -3   73.44    1.69
   3   3  -3    6.25    0.78
   4   3  -3   13.43    1.19
   5   3  -3   77.27    2.29
   3   4  -3   23.88    1.31
   5  -2  -2    5.59    0.90
   6  -2  -2    4.35    1.02
   4  -1  -2   45.14    1.38
   5  -1  -2   70.96    2.06
   6  -1  -2   78.82    2.45
   7  -1  -2   39.33    1.77
   4   0  -2  235.05    3.18
   5   0  -2  101.34    2.58
   6   0  -2   42.60    1.94
   4   1  -2   41.23    1.51
   5   1  -2    1.03    0.79
   6   1  -2   10.37    1.21
   3   2  -2   -0.04    0.66
   4   2  -2   31.42    1.57
   5   2  -2   81.81    2.55
   2   3  -2   37.94    1.25
   3   3  -2  163.35    3.03
   4   3  -2   98.41    2.67
   5  -2  -1   67.42    1.74
   6  -2  -1   37.27    1.58
   5  -1  -1   66.84    1.97
   6  -1  -1   19.64    1.34
   4   0  -1   79.84    1.89
   5   0  -1    0.86    0.74
   6   0  -1   13.98    1.33
   4   1  -1   23.09    1.24
   5   1  -1   19.61    1.41
   3   2  -1  194.30    2.99
   4   2  -1   96.20    2.63
   2   3  -1  234.45    3.10
   3   3  -1  130.13    2.80
   5  -2   0   90.82    2.01
   6  -2   0   11.09    1.03
   5  -1   0    0.87    0.74
   6  -1   0   37.22    1.74
   4   0   0   49.34    1.55
   5   0   0   48.10    1.94
   3   1   0   61.91    1.61
   4   1   0   98.43    2.42
   3   2   0  130.96    2.65
   4  -1   1  115.84    2.15
   4   0   1  160.21    2.92
   2  -4  -6   61.87    1.72
   2  -5  -5   39.01    1.46
   3  -5  -5   91.49    2.19
   3  -4  -5   43.47    1.77
   3  -6  -4   38.80    1.55
   4  -6  -4   25.18    1.22
   3  -5  -4    6.01    1.04
   4  -5  -4    6.97    1.13
   5  -5  -4   44.93    1.82
   3  -4  -4   39.28    1.88
   4  -4  -4   61.44    2.19
   2  -6  -3   51.08    1.92
   3  -6  -3    3.86    0.95
   4  -6  -3    1.07    0.98
   5  -6  -3   27.98    1.53
   6  -6  -3   56.35    1.79
   3  -5  -3   78.18    2.70
   4  -5  -3  115.91    3.20
   5  -5  -3  105.44    2.93
   4  -4  -3   51.03    2.07
   5  -4  -3   18.50    1.39
   4  -3  -3   14.24    1.10
   2  -7  -2   54.01    1.69
   3  -7  -2   15.82    1.15
   4  -7  -2   -0.79    0.93
   5  -7  -2   13.41    1.15
   3  -6  -2   50.61    2.22
   4  -6  -2  102.61    3.10
   5  -6  -2   72.58    2.56
   6  -6  -2   22.84    1.47
   3  -5  -2  123.15    3.25
   4  -5  -2   79.60    2.68
   5  -5  -2    4.96    1.14
   6  -5  -2    2.19    1.23
   4  -4  -2    4.06    1.00
   6  -4  -2   52.99    2.12
   3  -3  -2  145.46    2.67
   4  -3  -2  225.25    3.50
   5  -3  -2  180.82    3.34
   1  -7  -1    7.53    0.88
   2  -7  -1    0.25    0.85
   3  -7  -1   28.54    1.64
   4  -7  -1   38.24    1.80
   5  -7  -1   35.58    1.79
   6  -7  -1   10.69    1.06
   2  -6  -1  234.73    4.30
   3  -6  -1  126.45    3.32
   4  -6  -1   26.33    1.68
   5  -6  -1    0.88    1.10
   6  -6  -1   20.18    1.50
   3  -5  -1    8.17    1.10
   4  -5  -1    9.71    1.19
   6  -5  -1   51.40    2.26
   7  -5  -1   27.91    1.61
   4  -4  -1  117.98    2.87
   5  -4  -1   64.51    2.30
   6  -4  -1   15.81    1.36
   4  -3  -1   50.69    1.71
   5  -3  -1    1.05    0.97
   6  -3  -1   12.65    1.22
   5  -2  -1   67.20    2.03
   3  -8   0   43.03    1.43
   4  -8   0   35.12    1.45
   5  -8   0   31.53    1.37
   1  -7   0   24.27    1.25
   2  -7   0   76.32    2.30
   3  -7   0   71.83    2.40
   4  -7   0    8.65    1.23
   5  -7   0    0.48    0.99
   6  -7   0   13.21    1.30
   2  -6   0   50.61    1.96
   3  -6   0    3.38    0.96
   4  -6   0   37.56    1.98
   6  -6   0   88.19    2.96
   7  -6   0   46.24    1.94
   4  -5   0   88.39    2.74
   5  -5   0   68.37    2.58
   6  -5   0   36.24    2.07
   3  -4   0   57.70    1.78
   4  -4   0   18.49    1.26
   5  -4   0    2.36    1.00
   6  -4   0   37.12    1.97
   4  -3   0   37.06    1.51
   5  -3   0  128.19    3.02
   3  -8   1   56.11    1.67
   4  -8   1   20.93    1.35
   5  -8   1    3.11    0.90
   6  -8   1    2.08    0.92
   2  -7   1    9.16    1.03
   3  -7   1    0.62    0.92
   4  -7   1   24.52    1.58
   6  -7   1   72.45    2.46
   2  -6   1   59.45    2.11
   4  -6   1  112.69    3.09
   5  -6   1  103.20    3.18
   6  -6   1   37.22    2.09
   2  -5   1  223.41    3.45
   3  -5   1   81.29    2.28
   4  -5   1   47.01    1.94
   5  -5   1    2.64    0.99
   6  -5   1   22.56    1.72
   3  -4   1    5.44    0.74
   4  -4   1   80.30    2.28
   5  -4   1  155.02    3.51
   6  -4   1  135.18    3.61
   4  -3   1  188.30    3.12
   5  -3   1  141.58    3.24
   4  -2   1   26.72    1.26
   3  -8   2    2.11    1.06
   4  -8   2    5.56    0.95
   6  -8   2   36.50    1.48
   2  -7   2   38.39    1.54
   4  -7   2   82.24    2.57
   5  -7   2   44.00    2.06
   6  -7   2    5.20    1.01
   2  -6   2  171.81    3.12
   3  -6   2  146.72    3.12
   4  -6   2   41.00    1.95
   5  -6   2    1.15    1.06
   6  -6   2   14.68    1.51
   1  -5   2   86.85    1.89
   2  -5   2   64.85    1.77
   3  -5   2    0.16    0.80
   4  -5   2   47.45    1.97
   5  -5   2   89.65    2.85
   6  -5   2   69.47    2.71
   3  -4   2  199.23    3.00
   4  -4   2  205.17    3.52
   5  -4   2   98.74    2.89
   4  -3   2   39.97    1.61
   4  -8   3   52.36    1.69
   5  -8   3   12.54    1.08
   3  -7   3   67.06    2.05
   4  -7   3    4.25    1.04
   5  -7   3    2.57    0.97
   6  -7   3   26.74    1.50
   3  -6   3    1.44    0.94
   4  -6   3   19.88    1.38
   5  -6   3   66.76    2.54
   6  -6   3   55.29    2.28
   2  -5   3   96.50    2.04
   3  -5   3  118.56    2.58
   4  -5   3   84.82    2.48
   5  -5   3   30.91    1.82
   3  -4   3  114.68    2.29
   4  -4   3   18.24    1.22
   4  -7   4   33.58    1.63
   5  -7   4   61.83    2.14
   3  -6   4  112.50    2.55
   4  -6   4   62.88    2.16
   5  -6   4   36.05    1.77
   3  -5   4   47.95    1.65
   4  -5   4    0.90    0.93
   3  -4   4    8.28    0.92
  -1  -2  -7    4.00    0.74
   0  -2  -7   32.88    1.15
  -1  -3  -6    9.80    0.82
   0  -3  -6   46.19    1.51
   1  -3  -6   89.47    2.10
  -3  -2  -6    5.13    0.62
   0  -2  -6   90.08    2.20
   1  -2  -6   11.15    0.99
  -1  -4  -5   26.52    1.11
   0  -4  -5   63.00    1.79
   1  -4  -5  189.94    3.17
  -1  -3  -5   63.77    2.00
   0  -3  -5   93.57    2.43
   1  -3  -5   42.17    1.68
   2  -3  -5    2.89    0.96
   1  -2  -5   75.37    1.95
   0  -5  -4   39.23    1.34
  -2  -4  -4   63.14    1.55
  -1  -4  -4  130.54    2.61
   0  -4  -4   94.46    2.43
   1  -4  -4   51.24    1.90
   2  -4  -4    2.58    0.89
  -3  -3  -4   47.48    1.43
   1  -3  -4   46.12    1.73
   2  -3  -4   68.51    1.97
   1  -2  -4  213.24    2.94
   2  -2  -4   87.46    1.87
  -1  -5  -3   88.27    1.93
   0  -5  -3   49.54    1.76
   1  -5  -3    4.69    1.01
  -3  -4  -3   62.50    1.35
  -2  -4  -3   70.17    1.82
  -1  -4  -3   28.39    1.46
   0  -4  -3    2.47    0.88
   1  -4  -3   67.12    2.16
   2  -4  -3   68.25    2.12
  -4  -3  -3   15.64    0.85
   1  -3  -3  191.43    3.01
   2  -3  -3   18.32    1.11
  -2  -5  -2   31.83    1.16
  -1  -5  -2    0.19    0.80
   0  -5  -2   25.05    1.39
   1  -5  -2   99.89    2.54
  -3  -4  -2   12.91    0.87
  -1  -4  -2   52.79    1.84
   0  -4  -2   79.54    2.16
   1  -4  -2  167.61    2.99
   2  -4  -2   79.58    2.07
   1  -3  -2    2.74    0.72
  -2  -5  -1   19.42    1.05
  -1  -5  -1   86.03    2.08
   0  -5  -1  132.37    2.71
   1  -5  -1  161.89    2.97
  -2  -4  -1   83.15    2.05
  -1  -4  -1  120.92    2.43
   0  -4  -1   64.73    1.74
   1  -4  -1   36.39    1.35
   2  -4  -1   15.07    1.01
  -1  -5   0  152.87    2.56
   0  -5   0  111.51    2.27
   1  -5   0   11.81    0.92
  -2  -4   0   46.76    1.44
  -1  -4   0   13.69    0.86
   0  -4   0   19.34    1.00
   0  -5   1   24.96    1.09
   3  -7  -1   26.36    1.30
   4  -7  -1   37.03    1.37
   3  -6  -1  102.10    2.36
   4  -6  -1   19.30    1.25
   4  -5  -1    5.94    1.23
   4  -4  -1  115.63    1.98
   3  -8   0   43.82    1.27
   3  -7   0   62.91    1.90
   4  -7   0    8.32    1.17
   4  -6   0   20.49    1.33
   4  -5   0   63.60    1.81
   3  -4   0   49.56    1.42
   4  -4   0   15.20    1.02
   1  -8   1   39.29    1.14
   2  -8   1   48.72    1.39
   3  -8   1   59.32    1.60
   4  -8   1   24.88    1.10
   3  -7   1    1.26    1.04
   4  -7   1   24.09    1.45
   3  -6   1   77.52    2.12
   4  -6   1   93.20    2.40
   3  -5   1   80.31    1.98
   4  -5   1   40.04    1.57
   1  -8   2   49.49    1.31
   2  -8   2   24.72    1.13
   3  -8   2    3.22    0.91
   4  -8   2    5.31    0.98
   3  -7   2  101.48    2.44
   4  -7   2   89.19    2.38
   3  -6   2  172.26    3.08
   4  -6   2   44.96    1.81
   3  -5   2    0.37    0.90
   4  -5   2   43.15    1.57
   3  -4   2  215.65    2.60
   1  -8   3    2.16    0.85
   2  -8   3    9.56    0.96
   3  -8   3   50.95    1.56
   2  -7   3  105.82    2.39
   3  -7   3   79.25    2.20
   4  -7   3    4.70    1.07
   2  -6   3   70.34    1.91
   3  -6   3    0.59    0.98
   4  -6   3   19.81    1.32
   2  -5   3  113.68    2.11
   3  -5   3  141.71    2.45
   3  -4   3  133.19    2.08
   1  -8   4   44.46    1.18
   2  -8   4   48.88    1.38
   3  -8   4   21.71    1.15
   0  -7   4   98.53    1.84
   1  -7   4   62.17    1.69
   2  -7   4    5.67    0.95
   3  -7   4   10.03    1.08
   2  -6   4   41.30    1.48
   3  -6   4  128.19    2.53
   2  -5   4  156.97    2.36
   3  -5   4   51.16    1.56
   2  -4   4   20.36    0.97
   2  -8   5   -0.83    0.91
   1  -7   5    9.86    0.99
   2  -7   5   49.45    1.50
   1  -6   5  102.47    1.94
   2  -6   5   73.60    1.76
   2  -5   5    0.15    0.96
  -4   0  -6   18.12    1.53
  -3  -2  -5   51.86    1.73
  -2  -2  -5   49.14    1.98
  -4  -1  -5   19.35    1.58
  -3  -1  -5    4.67    1.55
  -2  -1  -5    1.04    1.45
  -5   0  -5    3.15    1.25
  -2  -4  -4   59.90    1.43
  -1  -4  -4  137.52    2.43
  -3  -3  -4   64.17    1.72
  -2  -3  -4   71.48    2.11
  -1  -3  -4   34.93    1.69
  -4  -2  -4   25.03    1.52
  -3  -2  -4    1.61    1.40
  -2  -2  -4    3.92    1.58
  -1  -2  -4   32.87    1.97
  -5  -1  -4    1.94    1.09
  -6   0  -4   -0.51    1.08
  -3  -4  -3   85.79    1.73
  -2  -4  -3   82.63    2.18
  -1  -4  -3   32.71    1.64
   0  -4  -3    1.85    1.00
  -4  -3  -3   30.84    1.28
  -3  -3  -3   17.51    1.61
  -2  -3  -3    0.03    0.43
  -1  -3  -3   40.11    2.16
   0  -3  -3  154.33    2.91
  -5  -2  -3    0.09    0.86
  -4  -2  -3    2.48    1.59
  -3  -2  -3   17.69    2.14
  -2  -2  -3   59.22    2.67
  -1  -2  -3   56.12    2.26
  -5  -1  -3    3.49    1.60
  -6   0  -3   21.64    1.80
  -7   1  -3   15.90    1.38
  -2  -5  -2   41.63    1.46
  -1  -5  -2    1.97    0.89
  -3  -4  -2   20.15    1.23
  -2  -4  -2    3.29    1.15
  -1  -4  -2   60.72    2.25
   0  -4  -2   88.54    2.45
   1  -4  -2  194.29    3.18
  -4  -3  -2    0.60    1.18
  -3  -3  -2   30.73    2.16
  -2  -3  -2   71.95    2.92
  -1  -3  -2   98.20    2.77
   0  -3  -2   25.05    1.51
  -5  -2  -2   19.72    1.61
  -4  -2  -2   34.65    2.37
  -3  -2  -2  118.42    3.56
  -6  -1  -2   24.69    1.58
  -5  -1  -2   75.78    2.89
  -2  -5  -1   38.67    1.74
  -1  -5  -1   98.31    2.64
   0  -5  -1  152.75    3.21
  -4  -4  -1    0.36    0.76
  -3  -4  -1   41.46    1.81
  -2  -4  -1  103.58    2.81
  -1  -4  -1  129.94    3.05
   0  -4  -1   69.57    2.16
   1  -4  -1   33.08    1.46
  -5  -3  -1   25.44    1.14
  -4  -3  -1   45.55    2.05
  -3  -3  -1   52.82    2.65
  -2  -3  -1    9.25    1.71
  -1  -3  -1    0.37    1.31
  -5  -2  -1   29.59    1.91
  -4  -2  -1   18.75    2.00
  -6  -1  -1   12.70    1.67
  -7   0  -1   -0.83    1.36
  -3  -5   0   47.96    1.50
  -2  -5   0  142.85    2.90
  -1  -5   0  158.67    3.21
   0  -5   0  116.51    2.80
  -4  -4   0   42.73    1.52
  -3  -4   0   75.19    2.32
  -2  -4   0   51.83    2.12
  -1  -4   0   15.29    1.29
   0  -4   0   20.06    1.23
  -5  -3   0   49.92    1.56
  -4  -3   0    4.39    1.51
  -3  -3   0    0.86    1.44
  -2  -3   0   15.52    1.63
  -6  -2   0   28.09    1.12
  -5  -2   0    1.26    1.39
  -4  -2   0    8.50    1.83
  -6  -1   0    3.30    1.33
  -3  -5   1   72.01    1.83
  -2  -5   1   87.91    2.29
  -1  -5   1    8.91    1.24
   0  -5   1   25.88    1.48
  -4  -4   1   15.87    1.07
  -3  -4   1    3.87    0.93
  -2  -4   1   29.58    1.55
   0  -4   1  218.13    2.99
  -5  -3   1    2.49    0.98
  -4  -3   1   20.74    1.64
  -2  -3   1  188.65    3.18
  -4  -2   1   33.46    1.99
  -3  -2   1  241.83    3.56
  -2  -5   2   23.77    1.41
  -1  -5   2   80.26    2.10
  -3  -4   2   63.46    1.83
  -2  -4   2  188.16    3.00
  -1  -4   2   86.03    1.94
   0  -4   2    9.04    0.90
  -3  -3   2  192.03    3.12
  -2  -3   2   44.01    1.52
  -2  -4   3    4.20    0.85
  -1  -4   3   14.27    0.91
  -7   0   0   15.74    1.31
  -2  -3   1  224.41    3.69
  -4  -2   1  119.21    3.10
  -3  -2   1  288.95    4.04
  -6  -1   1   58.68    2.45
  -7   0   1   29.24    1.85
  -8   2   1    3.72    1.09
  -2  -4   2  187.92    3.86
  -1  -4   2  105.41    2.77
  -4  -3   2   92.87    3.11
  -3  -3   2  143.46    3.50
  -2  -3   2   32.68    1.79
  -6  -2   2   49.44    2.06
  -5  -2   2   78.78    2.83
  -4  -2   2   38.90    2.08
  -3  -2   2    0.43    0.99
  -7  -1   2    7.16    1.17
  -6  -1   2   10.79    1.63
  -7   0   2    1.01    1.27
  -8   2   2   13.18    1.30
  -2  -5   3  135.67    3.33
  -1  -5   3   91.00    2.80
  -4  -4   3   95.04    2.85
  -3  -4   3   31.75    2.29
  -2  -4   3    5.53    1.60
  -1  -4   3   17.23    1.77
   0  -4   3  189.08    3.48
  -5  -3   3   76.42    2.65
  -4  -3   3   12.64    1.73
  -3  -3   3    4.42    1.40
  -2  -3   3   67.52    2.39
  -6  -2   3   14.19    1.60
  -5  -2   3    0.80    1.50
  -4  -2   3   18.76    1.73
  -3  -2   3  138.03    3.08
  -7  -1   3    1.03    1.06
  -6  -1   3   39.20    2.28
  -5  -1   3  150.08    3.73
  -7   0   3   60.42    2.44
  -6   0   3  184.16    4.12
  -7   1   3   46.13    2.30
  -4  -5   4   80.61    1.90
  -3  -5   4   29.83    1.82
  -2  -5   4   15.19    1.82
  -1  -5   4    2.94    1.31
  -5  -4   4   29.83    1.41
  -4  -4   4    2.16    1.32
  -3  -4   4   10.56    1.76
  -2  -4   4  130.73    3.61
  -1  -4   4  364.30    5.34
   0  -4   4  361.57    4.91
  -5  -3   4    4.59    1.47
  -4  -3   4   32.85    2.19
  -3  -3   4   78.28    2.92
  -2  -3   4  104.59    2.89
  -1  -3   4  180.38    3.46
  -6  -2   4   12.42    1.53
  -5  -2   4   53.82    2.58
  -4  -2   4   24.77    1.79
  -3  -2   4   69.17    2.44
  -2  -2   4   19.41    1.41
  -7  -1   4   40.13    1.74
  -6  -1   4   59.72    2.41
  -5  -1   4   52.78    2.45
  -4  -1   4    0.18    1.12
  -3  -1   4   45.74    1.76
  -7   0   4   32.46    1.79
  -6   0   4   11.36    1.52
  -7   1   4    1.79    1.12
  -6   1   4   64.62    2.45
  -7   2   4  102.66    2.66
  -4  -5   5    5.39    0.97
  -3  -5   5    3.16    1.21
  -2  -5   5   72.43    2.76
  -1  -5   5  195.76    4.32
  -5  -4   5   12.09    1.16
  -4  -4   5   88.90    2.80
  -3  -4   5  139.92    3.76
  -2  -4   5  210.31    4.45
  -1  -4   5  147.42    3.66
   0  -4   5   12.49    1.49
  -5  -3   5   70.32    2.50
  -4  -3   5   45.29    2.31
  -3  -3   5   52.79    2.54
  -2  -3   5   23.47    1.73
  -1  -3   5    3.15    1.16
   0  -3   5   86.42    2.37
  -6  -2   5   14.29    1.26
  -5  -2   5   28.00    2.05
  -4  -2   5    3.92    1.54
  -3  -2   5   15.17    1.55
  -2  -2   5  141.07    3.12
  -6  -1   5    0.87    1.18
  -5  -1   5   17.85    1.73
  -4  -1   5   65.81    2.42
  -3  -1   5  242.30    3.84
  -7   0   5    2.84    1.20
  -6   0   5   29.70    1.92
  -5   0   5   45.29    2.13
  -4   0   5  103.79    2.63
  -7   1   5   23.72    1.54
  -6   1   5   56.82    2.14
  -3  -5   6  100.64    2.77
  -2  -5   6   74.05    2.65
  -1  -5   6   43.35    2.40
  -5  -4   6   79.17    1.86
  -3  -4   6   61.67    2.61
  -2  -4   6    2.76    1.51
  -1  -4   6   24.36    1.79
  -5  -3   6   49.87    2.07
  -4  -3   6    8.99    1.66
  -3  -3   6    3.18    1.47
  -2  -3   6   90.70    2.91
  -1  -3   6  170.55    3.50
  -6  -2   6    0.41    0.99
  -5  -2   6   16.14    1.74
  -4  -2   6   62.00    2.59
  -3  -2   6  160.87    3.61
  -2  -2   6  194.19    3.57
  -6  -1   6   36.11    1.74
  -5  -1   6   96.89    2.88
  -4  -1   6   75.88    2.56
  -6   0   6   41.12    1.79
  -4  -4   7    1.71    0.83
  -3  -4   7   12.02    1.45
  -2  -4   7   90.57    2.85
  -5  -3   7    4.97    0.97
  -4  -3   7   65.57    2.30
  -3  -3   7   77.82    2.63
  -2  -3   7  119.12    3.05
  -5  -2   7  146.03    2.89
  -4  -2   7   83.52    2.49
  -4  -3   8   59.32    1.80
  -4   8  -6   28.51    1.02
  -5   7  -5   16.79    1.00
  -5   8  -5   15.67    0.87
  -4   8  -5   24.06    1.03
  -5   6  -4   12.74    1.01
  -5   7  -4   36.14    1.40
  -5   8  -4    5.22    0.84
  -4   8  -4   -0.07    0.77
  -3   8  -4   11.27    0.82
  -2   8  -4   20.53    0.92
  -5   5  -3   20.46    1.08
  -5   6  -3   39.54    1.49
  -6   7  -3    6.36    1.03
  -5   7  -3    3.36    0.92
  -6   8  -3    0.52    0.91
  -5   8  -3    9.76    0.79
  -4   8  -3   35.55    1.30
  -3   8  -3   37.65    1.24
  -2   8  -3    3.49    0.87
  -5   5  -2   78.72    1.82
  -6   6  -2    7.94    0.96
  -5   6  -2    1.66    0.88
  -4   6  -2   36.74    1.41
  -6   7  -2    3.77    0.87
  -5   7  -2   36.72    1.44
  -4   7  -2   71.59    1.93
  -3   7  -2   94.49    2.10
  -2   7  -2   28.23    1.18
  -6   8  -2   21.89    0.93
  -5   8  -2   29.93    1.13
  -4   8  -2    4.03    0.73
  -3   8  -2    2.04    0.84
  -5   4  -1  161.96    2.27
  -4   4  -1   87.81    1.67
  -6   5  -1   20.18    1.08
  -5   5  -1    1.66    0.84
  -4   5  -1   45.69    1.42
  -6   6  -1   30.97    1.22
  -5   6  -1   90.93    2.15
  -4   6  -1  105.54    2.25
  -3   6  -1   73.07    1.84
  -2   6  -1   44.46    1.42
  -6   7  -1   50.52    1.54
  -5   7  -1   66.72    1.78
  -4   7  -1   21.87    1.20
  -3   7  -1    0.84    0.84
  -2   7  -1    6.43    0.92
  -6   8  -1    3.22    0.79
  -5   8  -1    2.87    0.78
  -4   8  -1   18.08    0.85
  -3   8  -1   32.09    1.02
  -5   4   0    0.53    0.83
  -4   4   0   19.15    0.93
  -3   4   0   65.13    1.34
  -6   5   0   33.69    1.33
  -5   5   0   72.61    1.83
  -4   5   0  107.18    2.02
  -3   5   0   27.77    1.07
  -2   5   0   23.34    0.99
  -6   6   0   77.95    1.94
  -5   6   0   63.01    1.75
  -4   6   0   34.51    1.35
  -3   6   0    3.91    0.79
  -2   6   0   31.34    1.18
  -6   7   0   11.58    0.96
  -5   7   0    0.26    0.78
  -4   7   0    8.64    0.82
  -3   7   0   49.69    1.37
  -5   8   0   27.11    0.94
  -4   8   0   22.00    0.88
  -5   3   1    0.50    0.85
  -4   3   1   71.23    1.36
  -6   4   1   13.51    0.91
  -5   4   1   76.11    1.72
  -4   4   1  159.48    2.30
  -3   4   1   63.02    1.34
  -2   4   1   15.00    0.72
  -6   5   1   54.10    1.67
  -5   5   1   30.59    1.26
  -4   5   1    8.87    0.84
  -3   5   1    9.32    0.78
  -2   5   1  136.62    2.05
  -7   6   1   29.40    1.15
  -6   6   1   21.22    1.18
  -5   6   1    0.28    0.77
  -4   6   1   27.50    1.27
  -3   6   1  101.58    1.96
  -6   7   1    9.69    0.78
  -5   7   1   30.98    1.19
  -4   7   1   33.03    1.18
  -3   7   1   18.54    0.94
  -5   2   2    8.81    0.90
  -4   2   2  146.65    1.85
  -5   3   2  198.11    2.63
  -4   3   2  275.12    2.76
  -6   4   2   61.55    1.73
  -5   4   2   50.67    1.49
  -4   4   2    4.99    0.68
  -3   4   2   30.67    1.05
  -2   4   2   85.43    1.54
  -7   5   2   16.34    1.14
  -6   5   2    3.71    0.89
  -5   5   2    9.18    0.94
  -4   5   2   94.46    2.02
  -3   5   2  129.32    2.20
  -2   5   2  166.20    2.29
  -7   6   2    0.76    0.94
  -6   6   2   25.31    1.22
  -5   6   2   81.40    1.91
  -4   6   2   99.89    2.02
  -3   6   2   35.86    1.25
  -6   7   2   24.14    0.93
  -5   7   2   12.40    0.81
  -4   7   2    0.20    0.72
  -4   1   3  102.54    1.64
  -5   2   3  200.89    2.64
  -4   2   3  223.87    2.51
  -6   3   3  104.63    2.15
  -5   3   3   79.93    1.78
  -4   3   3   17.19    0.94
  -3   3   3    5.64    0.61
  -2   3   3   22.75    0.88
  -6   4   3   -0.17    0.93
  -5   4   3   21.93    1.15
  -4   4   3   71.00    1.73
  -3   4   3   94.53    1.86
  -2   4   3   73.93    1.55
  -6   5   3   56.52    1.63
  -5   5   3  123.09    2.34
  -4   5   3  130.28    2.34
  -3   5   3   63.05    1.61
  -6   6   3   61.93    1.50
  -5   6   3   25.95    1.11
  -4   6   3    1.89    0.89
  -4   1   4  132.75    2.10
  -3   1   4   48.26    1.17
  -5   2   4   43.14    1.40
  -4   2   4    8.33    0.76
  -3   2   4   12.10    0.77
  -2   2   4  136.63    1.95
  -5   3   4    6.18    0.84
  -4   3   4   43.23    1.41
  -3   3   4   91.13    1.78
  -2   3   4   80.83    1.63
  -6   4   4   30.42    1.32
  -5   4   4   70.74    1.87
  -4   4   4   62.55    1.69
  -3   4   4   39.02    1.38
  -6   5   4   69.95    1.69
  -5   5   4   47.03    1.50
  -4   5   4    7.84    0.85
  -3   5   4    3.86    0.96
  -5   6   4    2.41    0.78
  -3   2   5  169.07    2.52
  -2   2   5  188.52    2.50
  -4   3   5   68.78    1.80
  -3   3   5   25.99    1.20
  -4   4   5    1.72    0.86
  -3   4   5   32.30    1.26
  -6   4  -5    6.22    1.04
  -6   3  -4    2.16    1.01
  -7   4  -4   25.65    1.15
  -7   5  -4   30.59    1.20
  -6   2  -3    1.14    1.00
  -7   3  -3   10.04    0.92
  -6   3  -3   46.96    1.60
  -7   4  -3   27.95    1.26
  -5   1  -2   94.28    1.91
  -6   2  -2   66.17    1.95
  -7   3  -2   22.44    1.26
  -8   4  -2   10.82    0.96
  -7   4  -2   -0.78    0.87
  -8   5  -2    0.85    0.91
  -7   7  -2    2.55    0.96
  -5   0  -1   36.09    1.31
  -4   0  -1  205.23    2.45
  -6   1  -1  108.19    2.48
  -5   1  -1  214.78    2.89
  -6   2  -1   20.15    1.14
  -8   4  -1    5.53    0.91
  -7   4  -1   34.28    1.53
  -8   5  -1   27.46    1.16
  -7   5  -1   28.98    1.35
  -7   6  -1    1.79    0.93
  -5   0   0   56.39    1.64
  -4   0   0   78.52    1.59
  -5   1   0   -0.26    0.71
  -7   2   0    0.43    0.76
  -6   2   0   10.94    1.00
  -7   3   0   74.82    2.06
  -6   3   0   59.65    1.74
  -8   4   0   82.45    1.88
  -7   4   0   64.57    1.96
  -8   5   0    9.30    0.97
  -7   5   0    1.34    0.93
  -7   6   0   40.46    1.34
  -5   0   1    1.65    0.79
  -4   0   1   96.76    1.72
  -6   1   1   22.50    1.28
  -5   1   1   77.95    1.80
  -4   1   1  128.81    1.77
  -6   2   1   21.11    1.14
  -5   2   1   73.46    1.69
  -7   3   1   57.97    1.91
  -6   3   1   13.84    1.06
  -7   4   1    1.12    0.88
  -6   4   1   13.82    0.98
  -7   5   1   26.78    1.20
  -6   5   1   61.60    1.64
  -4   0   2  317.04    3.07
  -5   1   2   79.13    1.82
  -4   1   2   58.10    1.27
  -6   2   2    6.58    0.89
  -5   2   2    7.92    0.78
  -4   2   2  131.59    1.73
  -6   3   2   21.06    1.11
  -5   3   2  212.05    2.67
  -7   4   2   34.17    1.33
  -6   4   2   65.32    1.67
  -4   1   3  102.36    1.70
  -5   2   3  195.59    2.61
   3   2  -1  250.29    2.75
   5  -2   0   88.74    1.69
   5  -1   0    0.58    0.68
   4   0   0   59.89    1.36
   5   0   0   51.21    1.49
   4   1   0  122.42    2.12
   5   1   0   29.08    1.35
   3   2   0  156.35    2.42
   4   2   0   17.66    1.27
   7  -5   1   19.73    1.06
   7  -4   1   26.33    1.18
   6  -3   1   18.62    1.07
   7  -3   1   -0.15    0.91
   5  -2   1    2.56    0.63
   6  -2   1   18.94    1.03
   7  -2   1   44.82    1.38
   4  -1   1  139.83    2.08
   5  -1   1  201.41    2.97
   6  -1   1   70.31    1.89
   4   0   1  192.44    2.67
   5   0   1   50.54    1.62
   6   0   1    6.94    0.99
   3   1   1   99.03    1.83
   4   1   1   14.58    1.02
   5   1   1    3.97    0.96
   2   2   1   36.50    1.31
   3   2   1    4.47    0.98
   4   2   1   45.24    1.82
   7  -7   2    0.45    0.82
   7  -6   2   16.69    0.96
   7  -5   2    9.19    0.84
   7  -4   2    0.77    0.80
   6  -3   2   12.25    0.96
   7  -3   2   15.71    1.01
   5  -2   2  160.12    2.72
   6  -2   2   46.25    1.67
   7  -2   2   18.89    1.06
   4  -1   2  290.58    3.24
   5  -1   2   80.45    2.05
   6  -1   2    5.11    0.78
   7  -1   2    2.07    0.77
   3   0   2  106.31    1.82
   4   0   2   15.30    1.05
   5   0   2    1.21    0.68
   6   0   2   11.19    1.07
   3   1   2   18.38    1.06
   4   1   2  113.53    2.46
   5   1   2   48.70    1.73
   2   2   2  125.27    2.39
   3   2   2  165.95    3.02
   7  -7   3   24.51    0.97
   7  -6   3   14.87    0.91
   7  -5   3    3.24    0.74
   6  -4   3   26.38    1.40
   7  -4   3   23.98    1.18
   5  -3   3   48.07    1.63
   6  -3   3   32.43    1.53
   7  -3   3    8.99    0.80
   4  -2   3  171.65    2.65
   5  -2   3   53.89    1.76
   6  -2   3    0.13    0.74
   7  -2   3    5.44    0.72
   4  -1   3   13.74    0.95
   5  -1   3    1.81    0.74
   6  -1   3    7.90    0.92
   3   0   3    4.71    0.74
   4   0   3   52.65    1.74
   5   0   3   38.63    1.59
   6   0   3   17.89    1.11
   2   1   3  230.03    2.94
   3   1   3  181.78    3.00
   4   1   3  100.52    2.59
   5   1   3   18.92    1.22
   1   2   3  190.31    2.82
   2   2   3  206.88    3.30
   3   2   3   73.04    2.23
   7  -6   4    1.15    0.69
   6  -5   4   35.70    1.53
   7  -5   4   37.16    1.35
   6  -4   4   51.12    1.76
   7  -4   4   17.48    1.03
   5  -3   4   17.77    1.14
   6  -3   4    0.38    0.76
   7  -3   4    2.56    0.68
   4  -2   4    0.69    0.65
   5  -2   4   18.55    1.21
   6  -2   4   27.38    1.35
   3  -1   4   10.15    0.77
   4  -1   4   31.43    1.43
   5  -1   4   48.00    1.72
   6  -1   4   22.00    1.19
   2   0   4   72.66    1.63
   3   0   4  123.84    2.45
   4   0   4   57.50    1.86
   5   0   4   10.94    1.16
   1   1   4  231.88    2.89
   2   1   4  161.37    2.72
   3   1   4   46.02    1.79
   4   1   4    1.43    0.92
   6  -6   5   20.24    1.06
   7  -6   5   28.54    1.00
   6  -5   5   50.65    1.64
   7  -5   5   14.74    0.82
   5  -4   5   29.35    1.34
   6  -4   5    4.42    0.71
   7  -4   5    0.55    0.68
   4  -3   5    0.25    0.67
   5  -3   5   11.28    1.01
   6  -3   5   40.75    1.50
   2  -2   5    1.50    0.71
   3  -2   5   41.97    1.36
   4  -2   5   67.27    1.90
   5  -2   5   81.02    2.16
   6  -2   5   36.60    1.32
   2  -1   5   36.20    1.21
   3  -1   5   89.65    2.07
   4  -1   5   51.20    1.77
   5  -1   5   17.95    1.12
   6  -1   5    0.26    0.59
   2   0   5   61.91    1.68
   3   0   5   17.15    1.18
   4   0   5   -0.03    0.91
   5   0   5   13.32    1.03
   1   1   5   58.21    1.70
   2   1   5    1.46    0.88
   3   1   5    8.93    1.16
   6  -7   6   13.58    0.73
   5  -6   6   36.84    1.28
   6  -6   6   17.52    0.89
   5  -5   6   19.48    1.05
   6  -5   6    0.64    0.66
   4  -4   6    4.07    0.66
   5  -4   6    3.80    0.70
   6  -4   6   18.96    0.97
   3  -3   6   21.06    1.05
   4  -3   6   67.95    1.83
   5  -3   6   60.34    1.76
   6  -3   6   23.06    0.99
   3  -2   6   87.90    1.97
   4  -2   6   66.51    1.85
   5  -2   6   14.83    0.98
   3  -1   6   23.37    1.24
   4  -1   6   -0.01    0.71
   5  -1   6   10.24    0.86
   3   0   6   30.68    1.43
   4   0   6   42.15    1.45
   4  -6   7   20.57    0.92
   5  -6   7    1.24    0.64
   4  -5   7    0.06    0.78
   5  -5   7    6.23    0.68
   4  -4   7   25.83    1.08
   5  -4   7   25.52    1.03
   4  -3   7   29.06    1.14
   5  -3   7    4.72    0.67
   4  -2   7    0.97    0.77
   4  -1   7   19.68    1.02
  -6   2  -5   64.83    1.63
  -5   0  -4   20.95    1.24
  -4   0  -4   80.91    2.01
  -6   1  -4   38.29    1.50
  -5  -1  -3    6.02    1.18
  -4  -1  -3  154.02    2.98
  -3  -1  -3  183.92    2.84
  -6   0  -3   22.49    1.39
  -6   1  -3   13.32    1.15
  -7   2  -3    9.22    0.95
  -3  -3  -2   27.05    1.73
  -5  -2  -2   13.55    1.39
  -4  -2  -2   34.00    1.90
  -3  -2  -2   99.38    2.58
  -2  -2  -2  122.09    2.41
  -6  -1  -2   24.93    1.50
  -5  -1  -2   61.86    2.14
  -4  -1  -2  146.92    2.98
  -3  -1  -2   24.53    1.16
  -6   0  -2   23.91    1.47
  -5   0  -2    0.46    0.86
  -7   1  -2    2.96    0.83
  -3  -4  -1   39.82    1.69
  -2  -4  -1   93.93    2.54
  -1  -4  -1  146.83    2.92
  -5  -3  -1   27.53    1.18
  -4  -3  -1   25.81    1.74
  -3  -3  -1   49.19    2.33
  -2  -3  -1   10.42    1.48
  -1  -3  -1    0.91    1.16
  -5  -2  -1   29.67    1.87
  -4  -2  -1   31.19    1.95
  -3  -2  -1    5.12    1.06
  -2  -2  -1   48.18    1.49
  -6  -1  -1   16.77    1.52
  -5  -1  -1    8.50    1.18
  -4  -1  -1   14.16    1.16
  -7   0  -1   -0.65    0.98
  -6   0  -1   14.41    1.31
  -6   1  -1  125.50    2.88
  -7   2  -1   76.61    2.22
  -8   3  -1    5.44    0.99
  -8   4  -1    5.74    0.92
  -3  -5   0   51.13    1.55
  -2  -5   0  149.23    2.91
  -1  -5   0  172.90    3.27
   0  -5   0  147.77    2.91
   1  -5   0   16.84    1.08
  -4  -4   0   46.32    1.67
  -3  -4   0   60.69    2.24
  -2  -4   0   40.78    2.03
  -1  -4   0   11.71    1.32
   0  -4   0   20.19    1.30
  -5  -3   0   39.33    1.69
  -4  -3   0    2.44    1.46
  -3  -3   0    0.46    1.51
  -2  -3   0   18.67    1.60
  -6  -2   0   11.45    1.30
  -5  -2   0   -0.28    1.29
  -4  -2   0   17.55    1.67
  -6  -1   0    3.86    1.23
  -4  -1   0  131.76    2.57
  -3  -1   0   80.73    1.66
  -6   0   0  109.59    2.72
  -5   0   0   63.70    1.96
  -7   1   0  118.41    2.72
  -6   1   0   40.14    1.67
  -8   3   0   13.69    1.05
   1  -7   1   50.72    1.54
   2  -7   1   10.91    0.99
  -2  -6   1  102.42    1.99
  -1  -6   1  112.79    2.44
   0  -6   1   32.69    1.51
   1  -6   1    6.15    0.97
   2  -6   1   55.75    1.88
  -3  -5   1   74.64    2.08
  -2  -5   1   92.01    2.65
  -1  -5   1   10.98    1.34
   0  -5   1   29.70    1.63
   2  -5   1  157.58    2.79
   3  -5   1   58.59    1.78
  -4  -4   1   17.86    1.35
  -3  -4   1    1.85    1.39
  -2  -4   1   15.83    1.71
   0  -4   1  209.54    3.18
  -5  -3   1   -0.26    1.15
  -4  -3   1   12.80    1.68
  -2  -3   1  127.10    2.83
  -6  -2   1    8.73    1.33
  -4  -2   1   82.42    2.57
  -3  -2   1  253.23    3.46
  -6  -1   1   27.86    1.83
  -5  -1   1   29.20    1.59
  -4  -1   1   30.17    1.34
  -7   0   1   15.32    1.41
  -6   0   1   20.10    1.40
  -7   1   1    0.91    0.88
  -6   1   1   23.66    1.36
  -7   2   1   61.32    1.89
  -1  -7   2   47.70    1.36
   0  -7   2    6.36    0.86
   1  -7   2    5.69    0.89
   2  -7   2   44.59    1.70
  -2  -6   2   16.97    1.10
  -1  -6   2    4.57    1.00
   0  -6   2   71.19    2.18
   2  -6   2  165.45    3.26
   3  -6   2  108.00    2.62
  -4  -5   2   40.25    1.33
  -3  -5   2    3.14    1.02
  -2  -5   2   23.58    1.76
   0  -5   2  175.65    3.35
   1  -5   2   89.61    2.25
   2  -5   2   57.24    1.79
   3  -5   2    0.22    0.81
  -5  -4   2    1.17    0.69
  -4  -4   2   14.57    1.38
  -2  -4   2  118.55    2.96
  -1  -4   2   77.94    2.22
   0  -4   2    9.57    1.11
  -4  -3   2   57.58    2.43
  -3  -3   2   94.25    2.76
  -2  -3   2   25.44    1.54
  -6  -2   2   34.96    1.72
  -5  -2   2   36.21    2.03
  -4  -2   2   17.69    1.60
  -3  -2   2    0.04    0.85
  -7  -1   2    5.64    1.09
  -6  -1   2    3.84    1.28
  -5  -1   2    1.76    1.00
  -4  -1   2   62.30    1.75
  -7   0   2    2.54    1.06
  -6   0   2   69.11    2.12
  -5   0   2  145.31    2.60
  -7   1   2   47.24    1.72
  -5   1   2   94.50    1.87
   1  -8   3    0.80    0.73
   2  -8   3    9.44    0.91
  -1  -7   3    6.00    0.78
   0  -7   3   50.64    1.77
   2  -7   3  104.60    2.65
  -3  -6   3    2.26    0.63
  -2  -6   3   41.10    1.63
   0  -6   3  184.06    3.52
   1  -6   3  155.21    3.20
   2  -6   3   65.05    2.17
   3  -6   3   -1.42    0.86
  -4  -5   3   18.36    1.05
  -2  -5   3  108.44    2.81
  -1  -5   3   72.56    2.42
   0  -5   3   38.84    1.74
   1  -5   3    1.54    0.78
   2  -5   3  104.64    2.37
   3  -5   3  101.94    2.40
  -4  -4   3   76.42    2.30
  -3  -4   3   32.17    1.86
  -2  -4   3    7.43    1.26
  -1  -4   3   14.74    1.26
   0  -4   3  175.56    2.83
  -5  -3   3   75.18    2.30
  -4  -3   3    7.53    1.51
  -3  -3   3    4.45    1.32
  -2  -3   3   52.15    1.88
  -6  -2   3    8.71    1.24
  -5  -2   3   -0.54    1.17
  -4  -2   3    6.82    1.36
  -3  -2   3   41.13    1.58
  -6  -1   3   15.93    1.51
  -5  -1   3   61.79    2.16
   0  -8   4   15.72    0.83
   2  -8   4   49.78    1.61
   0  -7   4  109.23    2.48
   1  -7   4   67.83    2.16
   2  -7   4    4.57    0.95
  -2  -6   4  107.08    2.37
  -1  -6   4  136.61    2.92
   0  -6   4   52.26    1.96
   1  -6   4   -0.20    0.80
   2  -6   4   43.88    1.82
  -4  -5   4   71.71    1.70
  -3  -5   4   24.32    1.43
  -2  -5   4   14.54    1.37
  -1  -5   4    1.87    1.04
   0  -5   4  102.24    2.45
   1  -5   4  144.27    2.78
   2  -5   4  202.07    3.27
  -5  -4   4   25.30    1.12
  -4  -4   4    2.16    0.89
  -3  -4   4   12.85    1.36
  -2  -4   4  126.54    2.79
  -1  -4   4  304.99    3.86
   1  -4   4  154.93    2.46
   2  -4   4   22.53    1.06
  -5  -3   4    5.66    0.95
  -4  -3   4   33.00    1.75
  -3  -3   4   75.53    2.27
  -5  -2   4   43.34    1.90
  -3  -2   4   39.41    1.61
   0  -8   5   51.31    1.26
   1  -8   5   16.88    0.97
  -1  -7   5   51.79    1.52
   0  -7   5    4.97    0.88
   1  -7   5   11.38    1.07
   2  -7   5   52.91    1.94
  -3  -6   5   61.76    1.40
  -2  -6   5   25.87    1.18
  -1  -6   5    1.16    0.75
   0  -6   5   48.14    1.82
   1  -6   5  110.54    2.63
   2  -6   5   81.66    2.31
  -4  -5   5    5.98    0.69
  -3  -5   5    1.54    0.81
  -2  -5   5   56.43    1.95
  -1  -5   5  156.21    2.93
   0  -5   5  132.50    2.63
   1  -5   5   41.93    1.63
   2  -5   5    0.58    0.72
  -4  -4   5   87.07    1.99
  -3  -4   5  136.31    2.75
  -2  -4   5  184.08    3.03
  -1  -4   5  133.27    2.48
   0  -4   5    9.52    0.86
   1  -4   5   19.19    1.04
  -3  -3   5   79.11    2.01
  -1  -7   6   11.08    0.84
   0  -7   6   64.67    1.73
   1  -7   6  125.19    2.55
  -2  -6   6   23.10    1.08
  -1  -6   6   94.61    2.15
   0  -6   6   81.24    2.11
   1  -6   6   33.55    1.41
  -3  -5   6   80.90    1.70
  -2  -5   6   71.61    1.83
  -1  -5   6   35.14    1.44
   0  -5   6    1.02    0.82
   1  -5   6   52.85    1.71
   0  -7   7   97.95    1.80
  -1  -6   7   20.85    1.02
   0  -6   7    1.19    0.82
   1  -4   5   17.79    0.99
   0  -3   5   73.16    1.60
   1  -3   5  128.16    2.14
   1  -2   5  104.24    1.99
   2  -2   5    0.59    0.94
   1  -1   5   23.76    1.11
   0  -4   6  117.64    2.16
   1  -4   6   99.87    2.10
   0  -3   6  159.54    2.60
   1  -3   6   41.60    1.51
   1  -2   6   92.58    2.13
   1  -1   6  220.48    3.06
   0   0   6  101.09    2.09
  -1  -4   7  122.24    2.24
   0  -4   7  136.57    2.51
   1  -4   7   66.04    1.92
  -1  -3   7   32.97    1.39
   0  -3   7    3.51    1.02
   1  -3   7   56.34    1.88
   0  -2   7  140.70    2.71
   1  -2   7  222.55    3.36
   0  -1   7   96.09    2.29
   1  -1   7   44.67    1.57
   0   0   7    5.21    1.21
  -1  -4   8   61.60    1.67
   0  -4   8    5.11    0.95
  -3  -3   8    9.52    1.03
  -2  -3   8    6.57    1.00
  -1  -3   8   70.96    1.95
   0  -3   8  180.43    3.06
   0  -2   8  145.26    2.77
   1  -2   8   44.34    1.61
  -1  -1   8   26.81    1.35
   0  -1   8    2.01    1.05
  -1   0   8   72.88    1.88
  -2   1   8   99.24    1.97
  -2  -4   9    1.59    0.94
  -1  -4   9   24.52    1.06
   0  -4   9   79.79    1.89
  -3  -3   9   31.69    1.03
  -2  -3   9  121.95    2.12
  -1  -3   9  185.43    2.85
   0  -3   9   56.64    1.71
  -4  -2   9   65.44    1.30
  -2  -2   9  112.63    2.20
  -1  -2   9   34.81    1.41
   0  -2   9    0.57    0.89
  -4  -1   9   35.47    1.11
  -3  -1   9   11.06    0.86
  -2  -1   9    3.32    0.84
  -1  -1   9   52.23    1.54
   0  -1   9   59.46    1.57
  -3   0   9   61.87    1.49
  -2   0   9  121.66    2.04
  -1   0   9  121.25    1.84
  -2  -3  10   31.05    0.98
  -1  -3  10    4.05    0.75
  -2  -2  10    1.21    0.77
  -1  -2  10   21.96    0.97
  -2  -1  10   61.71    1.26
  -8   4   1   14.88    1.08
  -8   5   1   16.92    1.11
  -7   6   1   22.79    1.26
  -7   2   2   32.91    1.61
  -8   3   2    5.81    1.06
  -8   4   2    9.93    1.02
  -7   5   2    9.70    1.03
  -5   0   3   79.15    2.12
  -4   0   3   23.86    1.17
  -7   1   3   31.92    1.36
  -6   1   3   14.95    1.25
  -7   2   3    6.01    1.12
  -8   3   3   13.26    1.10
  -7   3   3   90.64    2.56
  -6   3   3   99.42    2.79
  -3   3   3    5.49    1.00
  -7   4   3   23.38    1.51
  -5   4   3   24.24    1.53
  -4   4   3   55.14    2.03
  -7   5   3    3.36    1.04
  -6   5   3   41.00    1.77
  -4  -1   4   -0.11    1.04
  -3  -1   4   39.27    1.42
  -6   0   4    9.09    1.15
  -5   0   4    0.79    0.96
  -4   0   4   50.17    1.84
  -3   0   4  132.58    2.41
  -7   1   4    2.14    1.16
  -6   1   4   49.13    1.93
  -5   1   4   54.35    2.09
  -4   1   4  148.81    2.92
  -7   2   4   85.07    2.30
  -6   2   4   93.67    2.69
  -4   2   4   10.25    1.23
  -3   2   4   11.57    1.18
  -2   2   4  131.64    2.48
  -6   3   4    4.02    1.16
  -5   3   4    6.54    1.23
  -4   3   4   37.75    1.74
  -3   3   4  112.71    2.53
  -7   4   4    7.88    1.05
  -6   4   4   21.83    1.48
  -5   4   4   53.98    1.97
  -3  -2   5   31.25    1.37
  -2  -2   5  226.78    3.19
  -1  -2   5  586.46    5.02
  -5  -1   5   22.06    1.33
  -4  -1   5   77.41    2.19
  -3  -1   5  302.75    3.90
  -2  -1   5  274.72    3.57
  -1  -1   5  120.70    2.39
  -6   0   5   34.25    1.50
  -5   0   5   42.57    1.85
  -4   0   5   89.82    2.48
  -2   0   5   14.80    1.15
  -1   0   5   26.33    1.34
  -7   1   5   27.46    1.25
  -6   1   5   52.08    2.00
  -4   1   5    0.43    0.95
  -3   1   5   43.47    1.74
  -2   1   5  264.52    3.71
  -1   1   5  276.48    3.63
  -7   2   5   33.58    1.50
  -6   2   5    1.69    1.02
  -5   2   5    5.00    1.25
  -4   2   5  102.00    2.72
  -3   2   5  184.33    3.36
  -2   2   5  233.79    3.49
  -7   3   5    7.20    0.91
  -6   3   5   14.03    1.31
  -5   3   5   39.92    1.81
  -4   3   5   67.25    2.25
  -6   4   5   23.52    1.26
  -5   4   5   20.99    1.27
  -4  -2   6  100.88    2.31
  -3  -2   6  260.54    3.77
  -2  -2   6  216.50    3.50
  -1  -2   6   39.07    1.59
  -5  -1   6  155.89    2.89
  -4  -1   6  110.35    2.63
  -3  -1   6   64.04    2.05
  -2  -1   6   11.07    1.19
  -1  -1   6   20.87    1.35
  -6   0   6   57.86    1.76
  -5   0   6   33.63    1.64
  -4   0   6    2.24    1.09
  -3   0   6   31.71    1.67
  -2   0   6  135.28    2.89
  -1   0   6  214.02    3.56
  -6   1   6    0.23    0.93
  -5   1   6   21.55    1.51
  -4   1   6  135.95    3.17
  -3   1   6  192.21    3.56
  -2   1   6  192.96    3.47
  -7   2   6    7.24    0.85
  -6   2   6   56.19    1.92
  -5   2   6   71.35    2.27
  -4   2   6  137.72    3.12
  -3   2   6   54.55    1.98
  -6   3   6   22.37    1.22
  -5   3   6    8.42    1.06
  -4   3   6    0.65    0.91
  -4  -2   7   90.85    2.23
  -3  -2   7   15.48    1.13
  -5  -1   7   45.06    1.55
  -4  -1   7    3.90    0.94
  -3  -1   7   19.56    1.42
  -2  -1   7   79.48    2.42
  -6   0   7    0.54    0.86
  -5   0   7   21.09    1.34
  -4   0   7   62.58    2.19
  -3   0   7  136.56    3.12
  -2   0   7   87.26    2.53
  -6   1   7  100.79    2.12
  -5   1   7   94.40    2.45
  -4   1   7  100.72    2.65
  -3   1   7   39.81    1.85
  -6   2   7   66.38    1.69
  -5   2   7   18.58    1.18
  -4   2   7    2.11    1.13
  -3   2   7   21.33    1.35
  -5   3   7   18.47    1.05
  -4  -1   8   33.98    1.54
  -5   0   8   84.37    1.95
  -4   0   8   31.70    1.55
  -5   1   8   15.65    1.02
   6   2   0   13.92    1.86
   0   4   0   25.92    1.68
   1   4   0   14.36    1.83
   2   4   0   38.67    2.47
   3   4   0   50.36    2.62
   0   5   0  143.92    3.54
   1   5   0  156.06    3.67
   5   2   1   46.80    2.79
   1   3   1    3.25    1.63
   2   3   1   22.53    2.42
   3   3   1   79.45    3.50
   4   3   1   33.58    2.53
  -1   4   1   45.94    2.20
   0   4   1  100.05    3.11
   1   4   1  189.71    4.54
   2   4   1   97.64    3.63
   3   4   1   30.42    2.13
   0   5   1  171.80    4.18
   1   5   1   96.84    3.19
   2   5   1   17.28    1.56
   6   1   2   37.24    2.15
   4   2   2   72.52    3.48
   5   2   2   25.19    2.03
  -1   3   2    3.93    1.56
   0   3   2   44.76    2.47
   1   3   2  160.07    4.37
   2   3   2  127.56    4.31
   3   3   2   37.55    2.85
   4   3   2   -1.01    1.50
  -1   4   2  186.67    4.36
   0   4   2  120.22    3.74
   1   4   2   84.21    3.37
   2   4   2    2.36    1.59
   3   4   2   13.18    1.44
   0   5   2   32.66    2.28
   1   5   2    1.56    1.51
   2   5   2   26.93    1.57
   5   1   3   17.32    2.16
   0   2   3  311.20    5.09
   1   2   3  260.00    5.19
   2   2   3  191.18    4.98
   3   2   3   58.57    3.40
   4   2   3    3.47    1.83
   5   2   3    0.22    1.34
  -1   3   3  191.07    4.22
   0   3   3  233.49    4.94
   1   3   3   62.53    3.31
   2   3   3   -2.49    1.92
   3   3   3   15.79    2.16
   4   3   3   23.07    1.57
  -1   4   3  111.61    3.74
   0   4   3    1.40    1.60
   1   4   3   35.58    2.48
   2   4   3   67.80    2.79
   3   4   3   64.54    2.07
   6   0   4    0.11    1.48
   1   1   4  325.36    5.29
   2   1   4  143.17    4.22
   3   1   4   35.36    2.87
   4   1   4    3.56    1.86
   5   1   4    4.08    1.47
  -1   2   4  334.08    5.09
   0   2   4  521.15    6.93
   1   2   4  104.31    3.75
   2   2   4    8.59    2.23
   3   2   4    4.17    2.09
   4   2   4   23.46    1.93
  -1   3   4   65.63    2.86
   0   3   4    1.90    1.64
   1   3   4   38.16    2.56
   2   3   4   73.50    3.07
   3   3   4   56.92    2.32
   0   4   4  138.89    4.04
   1   4   4  143.42    3.77
   2   4   4   56.60    2.13
   1   0   5  284.21    4.44
   2   0   5   56.60    2.72
   3   0   5   17.40    2.26
   5   0   5   12.60    1.59
   0   1   5  432.99    5.66
   1   1   5   63.03    2.93
   2   1   5    2.39    1.78
   3   1   5   13.64    2.12
   4   1   5   38.19    2.20
   0   2   5    5.88    1.58
   1   2   5   10.34    1.77
   2   2   5   49.09    2.76
   3   2   5   41.64    2.27
   0   3   5  137.02    3.89
   1   3   5   71.45    2.99
   2   3   5   38.02    1.96
   2   0   6    1.01    1.90
   3   0   6   31.97    2.17
   4   0   6   52.36    2.21
   0   1   6    1.11    1.67
   1   1   6   26.50    1.96
   2   1   6   68.80    2.74
   3   1   6   85.22    2.64
   0   2   6  127.27    3.48
   1   2   6   56.34    2.42
   2   2   6   23.38    1.60
   7  -2  -3    6.31    1.23
   7  -1  -3   34.56    1.60
   5   0  -3   83.56    2.25
   8  -4  -2    9.09    1.12
   8  -3  -2    2.64    1.17
   7  -2  -2   34.88    1.93
   6  -1  -2   86.72    2.70
   7  -1  -2   37.44    1.88
   5   0  -2  121.03    2.82
   6   0  -2   45.92    2.01
   4   1  -2   47.13    1.69
   5   1  -2   -1.32    1.22
   8  -5  -1   19.53    1.31
   8  -4  -1   13.31    1.34
   8  -3  -1   67.75    2.27
   7  -2  -1   52.26    2.29
   8  -2  -1    6.12    1.11
   6  -1  -1   17.00    1.51
   7  -1  -1    0.85    1.13
   5   0  -1    0.25    0.98
   6   0  -1   16.00    1.39
   4   1  -1   29.16    1.43
   5   1  -1   23.82    1.59
   8  -5   0    8.59    1.14
   7  -3   0   71.02    2.72
   8  -3   0   16.15    1.37
   7  -2   0    0.46    1.13
   8  -2   0   10.30    1.20
   6  -1   0   36.89    2.14
   7  -1   0   84.76    2.78
   4   0   0   56.65    1.87
   5   0   0   52.03    2.21
   6   0   0   76.86    2.72
   4   1   0   93.13    2.62
   8  -5   1   52.78    1.99
   7  -4   1   42.82    2.17
   8  -4   1    9.70    1.18
   7  -3   1    0.18    1.10
   8  -3   1    9.68    1.18
   6  -2   1   26.26    1.84
   7  -2   1   68.67    2.59
   4  -1   1  122.00    2.62
   5  -1   1  194.18    3.93
   6  -1   1   98.78    3.13
   4   0   1  178.09    3.40
   3   1   1  102.66    2.55
   7  -6   2   28.15    1.39
   7  -5   2   13.25    1.24
   7  -4   2   -1.26    1.15
   8  -4   2   16.47    1.17
   6  -3   2   16.56    1.56
   7  -3   2   25.27    1.77
   5  -2   2  155.69    3.45
   6  -2   2   58.76    2.50
   7  -2   2   25.52    1.73
   4  -1   2  239.38    3.78
   5  -1   2   92.54    2.88
   6  -1   2    7.73    1.36
   3   0   2  120.62    2.62
   4   0   2   15.02    1.39
   6  -5   3   -2.01    1.23
   7  -5   3    5.66    1.25
   6  -4   3   41.04    1.94
   7  -4   3   33.09    1.67
   5  -3   3   58.92    2.18
   6  -3   3   40.69    2.01
   7  -3   3   11.93    1.22
   4  -2   3  170.94    3.15
   5  -2   3   49.79    2.12
   6  -2   3    2.46    1.10
   3  -1   3  196.82    3.08
   4  -1   3   12.28    1.26
   5  -1   3    5.11    1.31
   6  -4   4   66.76    2.13
   5  -3   4   26.88    1.58
   6  -3   4    1.90    1.15
   4  -2   4    0.56    1.00
   5  -2   4   19.59    1.57
   4  -5  -1   10.58    0.87
   4  -4  -1  188.56    2.51
   5  -4  -1   74.26    1.94
   4  -3  -1   64.50    1.46
   4  -2  -1   28.33    0.97
   5  -6   0   56.68    1.69
   4  -5   0  118.43    2.13
   5  -5   0   79.95    2.01
   4  -4   0   25.11    1.01
   5  -4   0    1.16    0.72
   4  -3   0   45.90    1.24
   5  -3   0  139.17    2.45
   5  -7   1   35.42    1.30
   4  -6   1  102.60    2.12
   5  -6   1   93.47    2.24
   6  -6   1   30.35    1.45
   3  -5   1  105.29    1.91
   4  -5   1   56.84    1.64
   5  -5   1    0.33    0.73
   6  -5   1   28.25    1.44
   3  -4   1    6.31    0.65
   4  -4   1  108.86    2.02
   5  -4   1  193.20    3.01
   4  -3   1  347.69    3.20
   5  -3   1  144.07    2.48
   5  -2   1    0.86    0.75
   4  -7   2   52.12    1.55
   5  -7   2   25.38    1.23
   6  -7   2    1.59    0.83
   3  -6   2  144.17    2.49
   4  -6   2   43.40    1.57
   5  -6   2    0.20    0.81
   6  -6   2   11.13    1.01
   2  -5   2   64.44    1.65
   3  -5   2    0.59    0.73
   4  -5   2   53.82    1.64
   5  -5   2   87.41    2.24
   3  -4   2  228.60    2.90
   4  -4   2  490.78    4.39
   5  -4   2  109.16    2.33
   6  -4   2   10.75    1.02
   4  -3   2   50.46    1.35
   5  -3   2    1.01    0.76
   4  -2   2  115.24    1.78
   5  -8   3    4.84    0.84
   6  -8   3    0.43    0.83
   3  -7   3   48.34    1.58
   4  -7   3    3.06    0.82
   5  -7   3    1.28    0.82
   6  -7   3   12.61    0.96
   2  -6   3   49.54    1.70
   3  -6   3    0.98    0.87
   4  -6   3   13.78    1.06
   5  -6   3   51.96    1.86
   6  -6   3   60.60    2.05
   2  -5   3   97.97    2.17
   3  -5   3  122.38    2.51
   4  -5   3  104.95    2.45
   5  -5   3   26.63    1.41
   6  -5   3    0.67    0.88
   3  -4   3  121.79    2.31
   4  -4   3   18.76    1.04
   5  -4   3    3.30    0.79
   6  -4   3   28.06    1.44
   4  -3   3   44.42    1.32
   5  -3   3   57.85    1.60
   4  -8   4   -0.84    0.81
   5  -8   4    3.61    0.76
   6  -8   4    9.03    0.79
   2  -7   4    3.27    0.97
   3  -7   4    5.26    0.88
   4  -7   4   23.64    1.27
   5  -7   4   35.01    1.53
   6  -7   4   44.34    1.62
   2  -6   4   33.26    1.51
   3  -6   4   87.48    2.41
   4  -6   4   43.68    1.78
   5  -6   4   19.22    1.28
   6  -6   4    1.83    0.86
   3  -5   4   34.44    1.59
   4  -5   4   -0.49    0.89
   5  -5   4   11.24    1.07
   6  -5   4   26.62    1.30
   3  -4   4    7.53    0.98
   4  -4   4   52.13    1.68
   5  -4   4   68.85    1.91
   3  -3   4   56.48    1.58
   4  -3   4  103.56    1.91
   3  -8   5   12.67    0.83
   4  -8   5   21.23    1.02
   5  -8   5   15.86    0.92
   1  -7   5    4.66    1.02
   2  -7   5   35.85    1.64
   3  -7   5   85.09    2.29
   4  -7   5   64.35    1.96
   5  -7   5   29.63    1.37
   6  -7   5    5.58    0.81
   2  -6   5   52.70    1.97
   3  -6   5   33.15    1.71
   4  -6   5   -1.15    0.91
   5  -6   5    3.46    0.87
   6  -6   5   13.47    0.97
   3  -5   5   26.24    1.51
   4  -5   5   44.45    1.76
   5  -5   5   80.71    2.19
   6  -5   5   38.74    1.39
   3  -4   5   76.56    2.07
   4  -4   5   76.13    1.93
   2  -8   6   26.65    1.05
   3  -8   6   35.79    1.25
   4  -8   6   38.41    1.29
   5  -8   6    8.21    0.72
   1  -7   6   64.81    1.94
   2  -7   6   61.77    2.01
   3  -7   6   49.06    1.80
   4  -7   6    8.37    0.95
   5  -7   6    0.24    0.75
   3  -6   6   12.43    1.28
   4  -6   6   32.22    1.60
   5  -6   6   44.67    1.57
   3  -5   6  131.51    2.98
   4  -5   6   70.55    2.05
   5  -5   6   17.21    1.06
   3  -4   6   50.55    1.75
   2  -8   7   30.28    1.11
   3  -8   7   14.79    0.79
   4  -8   7   -0.04    0.66
   1  -7   7   25.61    1.32
   2  -7   7    6.13    0.89
   3  -7   7    5.06    0.88
   4  -7   7   26.43    1.17
   5  -7   7   16.33    0.89
   2  -6   7   42.90    1.82
   3  -6   7   86.10    2.35
   4  -6   7   27.61    1.30
   5  -6   7    1.65    1.01
   3  -5   7   46.09    1.74
   4  -5   7   -0.89    0.99
   1  -7   8    3.31    0.75
   2  -7   8   21.45    1.19
   3  -7   8   29.47    1.18
   4  -7   8   14.58    0.81
   2  -6   8   29.96    1.43
   3  -6   8    3.93    0.87
   2  -5   8   -0.29    1.06
   1  -7   9    5.73    0.67
   1  -6   9    0.96    0.78
   2  -6   9    3.62    0.79
   0   0   0    0.00    0.00
;
_shelx_hkl_checksum              29739
_olex2_submission_original_sample_id 3b_neu
_olex2_submission_special_instructions 'No special instructions were received'
#END Tags that were not found in dictionaries
loop_
_space_group_symop_operation_xyz
'x, y, z'
'-x, -y, -z'
loop_
_atom_site_label
_atom_site_type_symbol
_atom_site_fract_x
_atom_site_fract_y
_atom_site_fract_z
_atom_site_U_iso_or_equiv
_atom_site_adp_type
_atom_site_occupancy
_atom_site_site_symmetry_order
_atom_site_calc_flag
_atom_site_refinement_flags_posn
_atom_site_refinement_flags_occupancy
_atom_site_disorder_assembly
_atom_site_disorder_group
C1 C -0.216(2) 0.058(3) 0.220(2) 0.037(2) Uani 1 1 d . . . .
C2 C 0.130(4) 0.477(2) 0.310(2) 0.037(2) Uani 0.86 1 d . P A 2
C3 C 0.389(2) 0.284(2) 0.144(2) 0.032(3) Uani 1 1 d . . . .
O1 O -0.3841(16) -0.003(2) 0.2469(15) 0.038(2) Uani 1 1 d . . . .
O2 O 0.145(2) 0.6466(16) 0.3856(14) 0.038(2) Uani 0.86 1 d . P A 2
O3 O 0.5620(16) 0.356(2) 0.1270(16) 0.047(3) Uani 1 1 d . . . .
P1 P -0.0375(6) 0.2037(6) -0.0680(5) 0.0250(8) Uani 1 1 d . . . .
P2 P 0.235(3) 0.200(3) 0.4485(11) 0.035(2) Uani 0.36 1 d D P A 1
H2A H 0.379(4) 0.130(3) 0.4315(12) 0.053 Uiso 0.36 1 calc DGR P A 1
H2B H 0.082(4) 0.084(4) 0.5014(16) 0.053 Uiso 0.36 1 calc DGR P A 1
H2C H 0.324(3) 0.402(5) 0.555(3) 0.053 Uiso 0.36 1 calc DGR P A 1
C4 C 0.209(8) 0.194(8) 0.402(3) 0.035(2) Uani 0.64 1 d . P A 2
O4 O 0.289(3) 0.204(3) 0.5238(17) 0.036(2) Uani 0.64 1 d . P A 2
W1 W 0.08540(8) 0.17030(7) 0.17985(6) 0.0232(3) Uani 1 1 d . . . .
H1A H -0.23(2) 0.22(2) -0.079(18) 0.028 Uiso 1 1 d R . . .
H1B H 0.09(2) 0.35(2) -0.128(18) 0.028 Uiso 1 1 d R . . .
P3 P 0.172(6) 0.539(6) 0.358(4) 0.037(2) Uani 0.14 1 d D P A 1
H3A H 0.313(7) 0.606(6) 0.491(5) 0.056 Uiso 0.14 1 calc DGR P A 1
H3B H -0.001(7) 0.548(6) 0.399(4) 0.056 Uiso 0.14 1 calc DGR P A 1
H3C H 0.250(6) 0.662(7) 0.280(4) 0.056 Uiso 0.14 1 calc DGR P A 1
loop_
_atom_site_aniso_label
_atom_site_aniso_U_11
_atom_site_aniso_U_22
_atom_site_aniso_U_33
_atom_site_aniso_U_23
_atom_site_aniso_U_13
_atom_site_aniso_U_12
C1 0.034(4) 0.041(5) 0.031(5) 0.010(4) 0.014(4) 0.018(4)
C2 0.056(6) 0.030(6) 0.019(5) 0.002(4) 0.009(4) 0.020(5)
C3 0.037(8) 0.031(7) 0.033(8) 0.011(6) 0.018(6) 0.019(6)
O1 0.035(4) 0.041(5) 0.032(5) 0.009(4) 0.013(4) 0.017(4)
O2 0.056(6) 0.030(6) 0.019(5) 0.002(4) 0.009(4) 0.020(5)
O3 0.031(6) 0.040(7) 0.039(7) 0.004(5) 0.018(5) -0.001(5)
P1 0.0333(18) 0.0187(16) 0.0222(18) 0.0084(14) 0.0088(14) 0.0109(14)
P2 0.042(7) 0.037(4) 0.020(8) 0.008(7) -0.006(7) 0.016(4)
C4 0.042(7) 0.036(4) 0.020(8) 0.008(7) -0.006(7) 0.016(4)
O4 0.042(7) 0.037(4) 0.021(8) 0.008(7) -0.006(7) 0.016(4)
W1 0.0306(5) 0.0187(5) 0.0162(5) 0.0052(3) 0.0071(3) 0.0091(3)
P3 0.056(6) 0.030(6) 0.019(5) 0.002(4) 0.009(4) 0.020(5)
loop_
_atom_type_symbol
_atom_type_description
_atom_type_scat_dispersion_real
_atom_type_scat_dispersion_imag
_atom_type_scat_source
C C 0.0181 0.0091 'International Tables Vol C Tables 4.2.6.8 and 6.1.1.4'
H H 0.0000 0.0000 'International Tables Vol C Tables 4.2.6.8 and 6.1.1.4'
O O 0.0492 0.0322 'International Tables Vol C Tables 4.2.6.8 and 6.1.1.4'
P P 0.2955 0.4335 'International Tables Vol C Tables 4.2.6.8 and 6.1.1.4'
W W -5.4734 5.5774 'International Tables Vol C Tables 4.2.6.8 and 6.1.1.4'
loop_
_geom_angle_atom_site_label_1
_geom_angle_atom_site_label_2
_geom_angle_atom_site_label_3
_geom_angle
_geom_angle_site_symmetry_1
_geom_angle_site_symmetry_3
O1 C1 W1 178.3(15) . .
O2 C2 W1 176.5(19) . .
O3 C3 W1 177.2(13) . .
W1 P1 W1 77.13(10) . 2
W1 P1 H1A 115(6) 2 .
W1 P1 H1A 117(6) . .
W1 P1 H1B 125(6) . .
W1 P1 H1B 121(5) 2 .
H1A P1 H1B 102(8) . .
H2A P2 H2B 109.5 . .
H2A P2 H2C 109.5 . .
H2B P2 H2C 109.5 . .
W1 P2 H2A 109.5 . .
W1 P2 H2B 109.5 . .
W1 P2 H2C 109.5 . .
O4 C4 W1 176(5) . .
C1 W1 P1 91.6(5) . .
C1 W1 P1 88.6(5) . 2
C1 W1 P2 91.1(7) . .
C1 W1 C4 91.1(16) . .
C1 W1 W1 90.2(5) . 2
C1 W1 P3 91.8(10) . .
C2 W1 C1 88.8(8) . .
C2 W1 C3 91.0(8) . .
C2 W1 P1 86.5(7) . .
C2 W1 P1 170.3(6) . 2
C2 W1 C4 85.1(16) . .
C2 W1 W1 137.9(7) . 2
C3 W1 C1 179.0(5) . .
C3 W1 P1 89.3(5) . .
C3 W1 P1 91.5(4) . 2
C3 W1 P2 87.9(6) . .
C3 W1 C4 87.9(16) . .
C3 W1 W1 90.7(4) . 2
C3 W1 P3 87.8(10) . .
P1 W1 P1 102.87(11) . 2
P1 W1 W1 51.38(9) 2 2
P1 W1 W1 51.49(8) . 2
P2 W1 P1 170.9(4) . .
P2 W1 P1 85.9(4) . 2
P2 W1 W1 137.2(4) . 2
C4 W1 P1 171.1(15) . .
C4 W1 P1 85.7(15) . 2
C4 W1 W1 137.0(15) . 2
P3 W1 P1 92.5(9) . .
P3 W1 P1 164.6(9) . 2
P3 W1 P2 78.7(10) . .
P3 W1 W1 144.0(9) . 2
W1 P3 H3A 109.5 . .
W1 P3 H3B 109.5 . .
W1 P3 H3C 109.5 . .
H3A P3 H3B 109.5 . .
H3A P3 H3C 109.5 . .
H3B P3 H3C 109.5 . .
loop_
_geom_bond_atom_site_label_1
_geom_bond_atom_site_label_2
_geom_bond_distance
_geom_bond_site_symmetry_2
C1 O1 1.147(14) .
C1 W1 2.034(11) .
C2 O2 1.149(14) .
C2 W1 2.032(11) .
C3 O3 1.151(14) .
C3 W1 2.033(11) .
P1 W1 2.459(3) 2
P1 W1 2.455(4) .
P1 H1A 1.40(14) .
P1 H1B 1.41(15) .
P2 H2A 1.30(3) .
P2 H2B 1.30(3) .
P2 H2C 1.30(3) .
P2 W1 2.454(4) .
C4 O4 1.153(14) .
C4 W1 2.035(13) .
W1 P1 2.459(3) 2
W1 W1 3.0632(12) 2
W1 P3 2.41(4) .
P3 H3A 1.30(3) .
P3 H3B 1.30(3) .
P3 H3C 1.30(3) .
#BEGIN Loops that were not found in dictionaries:
loop_
_diffrn_oxdiff_twin_id
_diffrn_oxdiff_twin_ratio
_diffrn_oxdiff_twin_reflns_isolated
_diffrn_oxdiff_twin_reflns_overlapped
1 0.7912 4533 1291
2 0.2088 4375 1291
#END Loops that were not found in dictionaries
