#------------------------------------------------------------------------------
#$Date: 2016-03-24 00:03:39 +0200 (Thu, 24 Mar 2016) $
#$Revision: 179522 $
#$URL: svn://www.crystallography.net/cod/cif/4/34/19/4341949.cif $
#------------------------------------------------------------------------------
#
# This file is available in the Crystallography Open Database (COD),
# http://www.crystallography.net/
#
# All data on this site have been placed in the public domain by the
# contributors.
#
data_4341949
loop_
_publ_author_name
'Schwarz, Michael'
'R\"ohr, Caroline'
_publ_section_title
;
 Cs8[Fe4S10] and Cs7[Fe4S8], Two New Sulfido Ferrates with Different
 Tetrameric anions.
;
_journal_issue                   3
_journal_name_full               'Inorganic chemistry'
_journal_page_first              1038
_journal_page_last               1048
_journal_paper_doi               10.1021/ic502382v
_journal_volume                  54
_journal_year                    2015
_chemical_formula_sum            'Cs7 Fe4 S8'
_chemical_formula_weight         1410.25
_chemical_name_systematic
;
 ?
;
_space_group_crystal_system      monoclinic
_space_group_IT_number           15
_space_group_name_Hall           '-C 2yc'
_space_group_name_H-M_alt        'C 1 2/c 1'
_symmetry_space_group_name_Hall  '-C 2yc'
_symmetry_space_group_name_H-M   'C 1 2/c 1'
_audit_creation_method           SHELXL-2013
_cell_angle_alpha                90
_cell_angle_beta                 117.9501(13)
_cell_angle_gamma                90
_cell_formula_units_Z            4
_cell_length_a                   18.9165(7)
_cell_length_b                   8.5292(3)
_cell_length_c                   16.6862(6)
_cell_measurement_temperature    293(2)
_cell_volume                     2378.17(15)
_computing_structure_refinement  'SHELXL-2013 (Sheldrick, 2013)'
_diffrn_ambient_temperature      293(2)
_diffrn_measured_fraction_theta_full 1.000
_diffrn_measured_fraction_theta_max 0.995
_diffrn_radiation_type           MoK\a
_diffrn_radiation_wavelength     0.7107
_diffrn_reflns_av_unetI/netI     0.0210
_diffrn_reflns_Laue_measured_fraction_full 1.000
_diffrn_reflns_Laue_measured_fraction_max 0.995
_diffrn_reflns_limit_h_max       25
_diffrn_reflns_limit_h_min       -29
_diffrn_reflns_limit_k_max       13
_diffrn_reflns_limit_k_min       0
_diffrn_reflns_limit_l_max       25
_diffrn_reflns_limit_l_min       0
_diffrn_reflns_number            5567
_diffrn_reflns_point_group_measured_fraction_full 1.000
_diffrn_reflns_point_group_measured_fraction_max 0.995
_diffrn_reflns_theta_full        25.241
_diffrn_reflns_theta_max         33.306
_diffrn_reflns_theta_min         2.438
_exptl_absorpt_coefficient_mu    13.637
_exptl_absorpt_correction_T_max  1.0
_exptl_absorpt_correction_T_min  0.8
_exptl_absorpt_correction_type   multi-scan
_exptl_absorpt_process_details   Sadabs
_exptl_crystal_colour            'metallic dark-green'
_exptl_crystal_density_diffrn    3.939
_exptl_crystal_description       block
_exptl_crystal_F_000             2468
_exptl_crystal_size_max          0.12
_exptl_crystal_size_mid          0.1
_exptl_crystal_size_min          0.06
_refine_diff_density_max         5.070
_refine_diff_density_min         -3.095
_refine_diff_density_rms         0.444
_refine_ls_extinction_method     none
_refine_ls_goodness_of_fit_ref   1.211
_refine_ls_hydrogen_treatment    undef
_refine_ls_matrix_type           full
_refine_ls_number_parameters     88
_refine_ls_number_reflns         5567
_refine_ls_number_restraints     0
_refine_ls_restrained_S_all      1.211
_refine_ls_R_factor_all          0.0507
_refine_ls_R_factor_gt           0.0489
_refine_ls_shift/su_max          0.000
_refine_ls_shift/su_mean         0.000
_refine_ls_structure_factor_coef Fsqd
_refine_ls_weighting_details
'w=1/[\s^2^(Fo^2^)+248.9034P] where P=(Fo^2^+2Fc^2^)/3'
_refine_ls_weighting_scheme      calc
_refine_ls_wR_factor_gt          0.1200
_refine_ls_wR_factor_ref         0.1206
_reflns_Friedel_coverage         0.000
_reflns_number_gt                5334
_reflns_number_total             5567
_reflns_threshold_expression     'I > 2\s(I)'
_cod_data_source_file            ic502382v_si_002.cif
_cod_data_source_block           Cs~7~Fe~4~S~8~
_cod_depositor_comments
'Adding full bibliography for 4341949--4341950.cif.'
_cod_database_code               4341949
#BEGIN Tags that were not found in dictionaries:
_shelx_space_group_comment
;
The symmetry employed for this shelxl refinement is uniquely defined
by the following loop, which should always be used as a source of
symmetry information in preference to the above space-group names.
They are only intended as comments.
;
_shelxl_version_number           2013-3
_shelx_res_file
;
TITL Cs7[Fe4S8]  MS172-1, T=100 K, teilweise Entzwilling -1 0 0; 0 -1 0; -1 0 1
TITL R(int)=0.0349
CELL  0.71070  18.9165    8.5292   16.6862   90.0000  117.9501   90.0000
ZERR     4      0.0007    0.0003    0.0006    0.0000    0.0013    0.0000
REM ******* C2/c *****************
LATT   7
SYMM   - X ,   Y , 0.50000 - Z
REM ******* tidy o.k. ************
SFAC  Cs  Fe S
UNIT  28   16  32
L.S. 10
CONN 50 3.5 $CS $CS
CONN 50 3.5 $CS $FE
ACTA
WGHT    0.000000  248.903397
BASF   0.18603
FVAR       0.07119
CS1   1    0.000000    0.230593    0.250000    10.50000    0.01636    0.00531 =
         0.01500    0.00000    0.00895    0.00000
CS2   1    0.004787    0.248550    0.486111    11.00000    0.01456    0.02515 =
         0.01283   -0.00124    0.00673   -0.00729
CS3   1    0.235117    0.239144    0.108466    11.00000    0.00849    0.01489 =
         0.01591    0.00465    0.00580   -0.00010
CS4   1    0.240792    0.253560    0.360347    11.00000    0.01710    0.01222 =
         0.01240    0.00078    0.00515    0.00077
FE1   2    0.439422    0.116254    0.159332    11.00000    0.00708    0.00556 =
         0.00906   -0.00053    0.00351   -0.00026
FE2   2    0.440722    0.347979    0.279233    11.00000    0.00696    0.00530 =
         0.00959   -0.00042    0.00419    0.00005
S1    3    0.424409    0.078421    0.290582    11.00000    0.00787    0.00646 =
         0.01206    0.00003    0.00550   -0.00036
S2    3    0.421737    0.384730    0.130439    11.00000    0.00914    0.00628 =
         0.01042    0.00075    0.00345    0.00089
S3    3    0.357692    0.034411    0.544612    11.00000    0.01050    0.00872 =
         0.01235    0.00274    0.00315    0.00205
S4    3    0.134272    0.001338    0.183092    11.00000    0.00990    0.00966 =
         0.01446   -0.00014    0.00658   -0.00359
HKLF 5

REM  R(int)=0.0349
REM R1 =  0.0489 for    5334 Fo > 4sig(Fo)  and  0.0507 for all    5567 data
REM     88 parameters refined using      0 restraints

END

WGHT      0.0000    248.7434

REM Highest difference peak  5.070,  deepest hole -3.095,  1-sigma level  0.444
Q1    1   0.2088  0.2236  0.3670  11.00000  0.05    5.07
Q2    1   0.0059  0.2451  0.4301  11.00000  0.05    2.85
Q3    1   0.0315  0.2356  0.4802  11.00000  0.05    2.40
Q4    1  -0.0023  0.2543  0.5530  11.00000  0.05    2.40
Q5    1   0.2411  0.1795  0.1380  11.00000  0.05    2.36
Q6    1  -0.0603  0.2648  0.4846  11.00000  0.05    2.16
Q7    1   0.2165  0.1966  0.0683  11.00000  0.05    2.09
Q8    1  -0.0155  0.1993  0.4474  11.00000  0.05    1.91
Q9    1   0.2249  0.2449  0.0385  11.00000  0.05    1.76
Q10   1   0.4169  0.3003  0.2370  11.00000  0.05    1.74
Q11   1   0.3426  0.0237  0.4971  11.00000  0.05    1.70
Q12   1   0.4500  0.0833  0.2804  11.00000  0.05    1.64
Q13   1   0.3108  0.2494  0.4097  11.00000  0.05    1.63
Q14   1   0.2963  0.2793  0.1104  11.00000  0.05    1.55
Q15   1   0.0341  0.2687  0.2404  11.00000  0.05    1.53
Q16   1  -0.0071  0.2131  0.5083  11.00000  0.05    1.51
Q17   1   0.2900  0.2527  0.2491  11.00000  0.05    1.44
Q18   1   0.4643  0.1254  0.1992  11.00000  0.05    1.40
Q19   1   0.4654  0.3237  0.3204  11.00000  0.05    1.35
Q20   1   0.3898  0.2383  0.6034  11.00000  0.05    1.34
;
_shelx_res_checksum              16561
_shelx_hkl_file
;
   2   0   0 180.407 2.20165  -2
   2   0   0 180.407 2.20165   1
   4   0   0 5531.17 56.9105  -2
   4   0   0 5531.17 56.9105   1
   6   0   0 857.110 11.7920  -2
   6   0   0 857.110 11.7920   1
   8   0   0 2162.70 26.6322  -2
   8   0   0 2162.70 26.6322   1
  10   0   0 400.237 5.11100  -2
  10   0   0 400.237 5.11100   1
  12   0   0 1981.72 24.2501  -2
  12   0   0 1981.72 24.2501   1
  14   0   0 853.015 13.0202  -2
  14   0   0 853.015 13.0202   1
  16   0   0 1609.34 24.1384  -2
  16   0   0 1609.34 24.1384   1
  18   0   0 109.024 3.53788  -2
  18   0   0 109.024 3.53788   1
  20   0   0 116.915 3.84227  -2
  20   0   0 116.915 3.84227   1
  22   0   0 126.553 4.27840  -2
  22   0   0 126.553 4.27840   1
  24   0   0 1.24335 1.56544  -2
  24   0   0 1.24335 1.56544   1
   1   1   0 0.95803 0.04490  -2
   1   1   0 0.95803 0.04490   1
   3   1   0 2.37388 0.08764  -2
   3   1   0 2.37388 0.08764   1
   5   1   0 10.2847 0.20728  -2
   5   1   0 10.2847 0.20728   1
   7   1   0 9.68291 0.21105  -2
   7   1   0 9.68291 0.21105   1
   9   1   0 52.6363 0.65065  -2
   9   1   0 52.6363 0.65065   1
  11   1   0 1.59729 0.22368  -2
  11   1   0 1.59729 0.22368   1
  13   1   0 4.94609 0.40126  -2
  13   1   0 4.94609 0.40126   1
  15   1   0 1.62961 0.44232  -2
  15   1   0 1.62961 0.44232   1
  17   1   0 4.37209 0.62856  -2
  17   1   0 4.37209 0.62856   1
  19   1   0 4.64032 0.72362  -2
  19   1   0 4.64032 0.72362   1
  21   1   0 2.02639 0.99283  -2
  21   1   0 2.02639 0.99283   1
  23   1   0 13.6901 1.23911  -2
  23   1   0 13.6901 1.23911   1
  25   1   0 3.88798 1.18924  -2
  25   1   0 3.88798 1.18924   1
   0   2   0 6247.65 85.9662  -2
   0   2   0 6247.65 85.9662   1
   2   2   0 170.267 1.45847  -2
   2   2   0 170.267 1.45847   1
   4   2   0 9999.99 95.6733  -2
   4   2   0 9999.99 95.6733   1
   6   2   0 109.589 1.04111  -2
   6   2   0 109.589 1.04111   1
   8   2   0 3101.58 25.8172  -2
   8   2   0 3101.58 25.8172   1
  10   2   0 73.0910 0.76582  -2
  10   2   0 73.0910 0.76582   1
  12   2   0 1874.55 16.9497  -2
  12   2   0 1874.55 16.9497   1
  14   2   0 14.1892 0.60849  -2
  14   2   0 14.1892 0.60849   1
  16   2   0 585.782 7.61455  -2
  16   2   0 585.782 7.61455   1
  18   2   0 326.542 4.63765  -2
  18   2   0 326.542 4.63765   1
  20   2   0 204.137 3.56670  -2
  20   2   0 204.137 3.56670   1
  22   2   0 83.4821 2.06278  -2
  22   2   0 83.4821 2.06278   1
  24   2   0 16.7608 1.22461  -2
  24   2   0 16.7608 1.22461   1
   1   3   0 195.962 1.62816  -2
   1   3   0 195.962 1.62816   1
   1   3   0 198.613 5.97982   1
   3   3   0 47.4821 0.50441  -2
   3   3   0 47.4821 0.50441   1
   5   3   0 34.3344 0.44089  -2
   5   3   0 34.3344 0.44089   1
   7   3   0 59.7157 0.62163  -2
   7   3   0 59.7157 0.62163   1
   9   3   0 6.25223 0.22038  -2
   9   3   0 6.25223 0.22038   1
  11   3   0 10.3896 0.31299  -2
  11   3   0 10.3896 0.31299   1
  13   3   0 94.2967 1.36214  -2
  13   3   0 94.2967 1.36214   1
  15   3   0 2.45248 0.50258  -2
  15   3   0 2.45248 0.50258   1
  17   3   0 13.2717 0.78218  -2
  17   3   0 13.2717 0.78218   1
  19   3   0 4.76567 0.71507  -2
  19   3   0 4.76567 0.71507   1
  21   3   0 6.25692 0.98990  -2
  21   3   0 6.25692 0.98990   1
  23   3   0 7.88644 1.12586  -2
  23   3   0 7.88644 1.12586   1
  25   3   0 1.77057 1.21331  -2
  25   3   0 1.77057 1.21331   1
   0   4   0 3372.05 41.7197  -2
   0   4   0 3372.05 41.7197   1
   2   4   0 984.363 7.69804  -2
   2   4   0 984.363 7.69804   1
   4   4   0 3829.72 29.8993  -2
   4   4   0 3829.72 29.8993   1
   6   4   0 217.973 1.98790  -2
   6   4   0 217.973 1.98790   1
   8   4   0 6149.26 50.8834  -2
   8   4   0 6149.26 50.8834   1
  10   4   0 53.9759 0.73665  -2
  10   4   0 53.9759 0.73665   1
  12   4   0 960.853 9.88381  -2
  12   4   0 960.853 9.88381   1
  14   4   0 14.7801 0.61656  -2
  14   4   0 14.7801 0.61656   1
  16   4   0 209.159 3.48256  -2
  16   4   0 209.159 3.48256   1
  18   4   0 2.20050 0.71935  -2
  18   4   0 2.20050 0.71935   1
  20   4   0 149.118 2.89449  -2
  20   4   0 149.118 2.89449   1
  22   4   0 290.469 5.36944  -2
  22   4   0 290.469 5.36944   1
  24   4   0 44.1092 1.75943  -2
  24   4   0 44.1092 1.75943   1
   1   5   0 285.546 2.36364  -2
   1   5   0 285.546 2.36364   1
   3   5   0 43.3983 0.54819  -2
   3   5   0 43.3983 0.54819   1
   5   5   0 57.7557 0.72236  -2
   5   5   0 57.7557 0.72236   1
   7   5   0 56.3251 0.73466  -2
   7   5   0 56.3251 0.73466   1
   9   5   0 21.4148 0.45914  -2
   9   5   0 21.4148 0.45914   1
  11   5   0 39.5771 0.72456  -2
  11   5   0 39.5771 0.72456   1
  13   5   0 49.9432 0.92590  -2
  13   5   0 49.9432 0.92590   1
  15   5   0 47.6345 1.05488  -2
  15   5   0 47.6345 1.05488   1
  17   5   0 123.467 2.43685  -2
  17   5   0 123.467 2.43685   1
  19   5   0 0.58014 0.72153  -2
  19   5   0 0.58014 0.72153   1
  21   5   0 8.32489 1.00088  -2
  21   5   0 8.32489 1.00088   1
  23   5   0 1.72695 1.08274  -2
  23   5   0 1.72695 1.08274   1
   0   6   0 2711.23 30.6344  -2
   0   6   0 2711.23 30.6344   1
   2   6   0 87.2368 0.92510  -2
   2   6   0 87.2368 0.92510   1
   4   6   0 2945.36 23.5917  -2
   4   6   0 2945.36 23.5917   1
   6   6   0 146.852 1.49101  -2
   6   6   0 146.852 1.49101   1
   8   6   0 1411.10 12.8721  -2
   8   6   0 1411.10 12.8721   1
  10   6   0 42.2633 0.80248  -2
  10   6   0 42.2633 0.80248   1
  12   6   0 1391.80 15.1042  -2
  12   6   0 1391.80 15.1042   1
  14   6   0 22.2108 0.66909  -2
  14   6   0 22.2108 0.66909   1
  16   6   0 227.694 3.53423  -2
  16   6   0 227.694 3.53423   1
  18   6   0 24.6303 1.24888  -2
  18   6   0 24.6303 1.24888   1
  20   6   0 35.3217 1.71446  -2
  20   6   0 35.3217 1.71446   1
  22   6   0 36.7894 1.79066  -2
  22   6   0 36.7894 1.79066   1
   1   7   0 12.1283 0.30401  -2
   1   7   0 12.1283 0.30401   1
   3   7   0 43.9198 0.60738  -2
   3   7   0 43.9198 0.60738   1
   5   7   0 265.587 2.61052  -2
   5   7   0 265.587 2.61052   1
   7   7   0 55.2047 0.87673  -2
   7   7   0 55.2047 0.87673   1
   9   7   0 201.752 2.42300  -2
   9   7   0 201.752 2.42300   1
  11   7   0 21.9196 0.60351  -2
  11   7   0 21.9196 0.60351   1
  13   7   0 22.4897 0.89930  -2
  13   7   0 22.4897 0.89930   1
  15   7   0 40.2755 1.09457  -2
  15   7   0 40.2755 1.09457   1
  17   7   0 23.3906 1.20702  -2
  17   7   0 23.3906 1.20702   1
  19   7   0 7.85462 1.11272  -2
  19   7   0 7.85462 1.11272   1
  21   7   0 27.6287 1.58950  -2
  21   7   0 27.6287 1.58950   1
   0   8   0 2522.84 31.1105  -2
   0   8   0 2522.84 31.1105   1
   2   8   0 20.3820 0.46335  -2
   2   8   0 20.3820 0.46335   1
   4   8   0 1178.30 11.4517  -2
   4   8   0 1178.30 11.4517   1
   6   8   0 124.161 1.67094  -2
   6   8   0 124.161 1.67094   1
   8   8   0 733.178 8.65499  -2
   8   8   0 733.178 8.65499   1
  10   8   0 75.9441 1.35566  -2
  10   8   0 75.9441 1.35566   1
  12   8   0 427.435 5.84356  -2
  12   8   0 427.435 5.84356   1
  14   8   0 41.4384 1.30001  -2
  14   8   0 41.4384 1.30001   1
  16   8   0 367.762 6.45006  -2
  16   8   0 367.762 6.45006   1
  18   8   0 37.6184 1.75209  -2
  18   8   0 37.6184 1.75209   1
  20   8   0 53.6518 2.49673  -2
  20   8   0 53.6518 2.49673   1
   1   9   0 25.6748 0.56473  -2
   1   9   0 25.6748 0.56473   1
   3   9   0 5.68532 0.40189  -2
   3   9   0 5.68532 0.40189   1
   5   9   0 59.6720 1.08306  -2
   5   9   0 59.6720 1.08306   1
   7   9   0 114.652 1.81738  -2
   7   9   0 114.652 1.81738   1
   9   9   0 276.045 3.65782  -2
   9   9   0 276.045 3.65782   1
  11   9   0 15.3244 0.79658  -2
  11   9   0 15.3244 0.79658   1
  13   9   0 96.4475 1.99563  -2
  13   9   0 96.4475 1.99563   1
  15   9   0 1.94336 0.87988  -2
  15   9   0 1.94336 0.87988   1
  17   9   0 1.83624 0.94001  -2
  17   9   0 1.83624 0.94001   1
   0  10   0 671.297 12.3114  -2
   0  10   0 671.297 12.3114   1
   2  10   0 65.6638 1.30710  -2
   2  10   0 65.6638 1.30710   1
   4  10   0 792.956 10.2478  -2
   4  10   0 792.956 10.2478   1
   6  10   0 34.3243 0.90705  -2
   6  10   0 34.3243 0.90705   1
   8  10   0 397.696 5.38668  -2
   8  10   0 397.696 5.38668   1
  10  10   0 31.0882 1.06078  -2
  10  10   0 31.0882 1.06078   1
  12  10   0 209.550 4.54624  -2
  12  10   0 209.550 4.54624   1
  14  10   0 4.39036 0.94669  -2
  14  10   0 4.39036 0.94669   1
  16  10   0 102.156 3.50371  -2
  16  10   0 102.156 3.50371   1
   1  11   0 45.1915 1.45632  -2
   1  11   0 45.1915 1.45632   1
   3  11   0 77.4349 1.60394  -2
   3  11   0 77.4349 1.60394   1
   5  11   0 56.7732 1.45116  -2
   5  11   0 56.7732 1.45116   1
   7  11   0 15.6313 1.08849  -2
   7  11   0 15.6313 1.08849   1
   9  11   0 37.9096 1.52945  -2
   9  11   0 37.9096 1.52945   1
  11  11   0 26.4786 1.33380  -2
  11  11   0 26.4786 1.33380   1
  13  11   0 63.3026 2.09493  -2
  13  11   0 63.3026 2.09493   1
   0  12   0 290.896 10.1218  -2
   0  12   0 290.896 10.1218   1
   2  12   0 62.4452 2.41609  -2
   2  12   0 62.4452 2.41609   1
   4  12   0 273.696 6.80047  -2
   4  12   0 273.696 6.80047   1
   6  12   0 34.1365 1.78294  -2
   6  12   0 34.1365 1.78294   1
   8  12   0 267.798 9.77255  -2
   8  12   0 267.798 9.77255   1
  10  12   0 7.27552 1.52674  -2
  10  12   0 7.27552 1.52674   1
   1  13   0 103.221 3.37422  -2
   1  13   0 103.221 3.37422   1
   3  13   0 9.79443 1.21038  -2
   3  13   0 9.79443 1.21038   1
 -26   0   1 0.75683 0.83785   1
 -24   0   1 0.66220 0.73253   1
 -22   0   1 -0.1809 0.65872   1
 -20   0   1 0.70947 0.58823   1
 -18   0   1 0.71135 0.53538   1
 -16   0   1 0.55460 0.41384   1
 -14   0   1 -0.1981 0.28581   1
 -12   0   1 0.93173 0.25246   1
 -10   0   1 0.78442 0.15224   1
  -8   0   1 0.82626 0.11432   1
  -6   0   1 0.20552 0.09097   1
  -4   0   1 0.41038 0.08407   1
  -2   0   1 0.12028 0.02838   1
   2   0   1 0.16806 0.05748   1
   4   0   1 0.69907 0.15441   1
   6   0   1 0.59994 0.19694   1
   8   0   1 1.97211 0.24841   1
  10   0   1 1.29986 0.28358   1
  12   0   1 0.73205 0.28498   1
  14   0   1 1.26185 0.48572   1
  16   0   1 0.45295 0.74018   1
  18   0   1 0.13395 0.72231   1
  20   0   1 -0.3450 1.01203   1
  22   0   1 0.14782 1.01405   1
  24   0   1 -2.2801 1.02655   1
 -25   1   1 508.128 7.96677   1
 -23   1   1 7.49038 0.90238   1
 -21   1   1 721.551 10.4249   1
 -19   1   1 103.763 1.80697   1
 -17   1   1 540.007 6.54858   1
 -15   1   1 213.548 2.40133   1
 -13   1   1 802.179 6.86741   1
 -11   1   1 22.1892 0.36470   1
  -9   1   1 2381.60 18.4343   1
  -7   1   1 402.701 3.13181   1
  -5   1   1 1030.69 7.60087   1
  -3   1   1 12.4411 0.16122   1
  -1   1   1 81.7274 0.76934   1
   1   1   1 3.07973 0.10086   1
   3   1   1 52.4399 0.76104   1
   5   1   1 1420.20 15.2723   1
   7   1   1 122.462 1.21737   1
   9   1   1 968.631 8.50349   1
  11   1   1 126.323 1.38719   1
  13   1   1 110.227 1.66533   1
  15   1   1 319.656 4.43719   1
  17   1   1 38.3195 1.24149   1
  19   1   1 60.0175 1.90230   1
  21   1   1 67.2195 2.17166   1
  23   1   1 7.88138 1.13186   1
  25   1   1 24.2972 2.16359   1
 -26   2   1 0.36386 1.09349   1
 -24   2   1 12.1269 1.12001   1
 -22   2   1 13.6852 1.03092   1
 -20   2   1 32.7925 1.10833   1
 -18   2   1 2.21125 0.46730   1
 -16   2   1 1.71818 0.31334   1
 -14   2   1 19.9751 0.48482   1
 -12   2   1 11.1251 0.30028   1
 -10   2   1 2.15853 0.16919   1
  -8   2   1 53.5030 0.56134   1
  -6   2   1 44.3585 0.42834   1
  -4   2   1 99.0239 0.80880   1
  -2   2   1 6.12636 0.12435   1
   0   2   1 15.8933 0.22269   1
   2   2   1 24.4703 0.29252   1
   4   2   1 9.77074 0.22062   1
   6   2   1 22.4327 0.33857   1
   8   2   1 4.78848 0.22206   1
  10   2   1 17.6424 0.41124   1
  12   2   1 6.26550 0.39174   1
  14   2   1 60.6949 1.25986   1
  16   2   1 15.3238 0.73942   1
  18   2   1 3.61119 0.54277   1
  20   2   1 42.7890 1.44746   1
  22   2   1 9.98580 1.18829   1
  24   2   1 6.99426 1.19338   1
 -25   3   1 330.578 6.25649   1
 -23   3   1 80.3480 2.32783   1
 -21   3   1 442.580 6.82482   1
 -19   3   1 34.9689 1.19520   1
 -17   3   1 990.647 10.9585   1
 -15   3   1 20.8019 0.61789   1
 -13   3   1 1289.45 11.8057   1
 -11   3   1 34.8074 0.49096   1
  -9   3   1 207.113 1.90323   1
  -7   3   1 165.262 1.52398   1
  -5   3   1 492.498 4.07809   1
  -3   3   1 393.167 3.14238   1
  -1   3   1 945.954 7.40431   1
   1   3   1 1193.86 9.72960   1
   3   3   1 34.1847 0.39353   1
   5   3   1 22.2647 0.35591   1
   7   3   1 579.832 5.62310   1
   9   3   1 197.019 1.93554   1
  11   3   1 79.4964 1.16035   1
  13   3   1 449.384 4.88932   1
  15   3   1 4.13200 0.51776   1
  17   3   1 157.179 2.64486   1
  19   3   1 114.247 2.21773   1
  21   3   1 8.30137 0.87459   1
  23   3   1 34.5814 1.57733   1
 -24   4   1 22.3805 1.46658   1
 -22   4   1 15.2277 1.19605   1
 -20   4   1 19.3472 1.04022   1
 -18   4   1 5.20798 0.57746   1
 -16   4   1 21.7974 0.76665   1
 -14   4   1 7.39917 0.39351   1
 -12   4   1 16.1245 0.39834   1
 -10   4   1 25.4241 0.43071   1
  -8   4   1 374.900 3.29801   1
  -6   4   1 55.2413 0.60012   1
  -4   4   1 78.6393 0.72750   1
  -2   4   1 38.1151 0.63435   1
   0   4   1 20.4401 0.28432   1
   2   4   1 136.186 1.28811   1
   4   4   1 16.7620 0.28948   1
   6   4   1 188.446 1.82270   1
   8   4   1 76.9691 0.90933   1
  10   4   1 73.0286 1.06265   1
  12   4   1 5.73141 0.40513   1
  14   4   1 1.79544 0.33959   1
  16   4   1 99.4241 2.06556   1
  18   4   1 2.53567 0.60197   1
  20   4   1 1.98353 0.60798   1
  22   4   1 24.3746 1.37470   1
  24   4   1 1.85043 1.34118   1
 -23   5   1 58.9025 2.27988   1
 -21   5   1 420.144 7.34019   1
 -19   5   1 20.2357 0.93841   1
 -17   5   1 1019.84 12.0884   1
 -15   5   1 13.0351 0.51572   1
 -13   5   1 562.455 5.68433   1
 -11   5   1 163.759 1.79202   1
  -9   5   1 254.652 2.36874   1
  -7   5   1 48.8500 0.63428   1
  -5   5   1 191.217 1.79563   1
  -3   5   1 207.187 1.76888   1
  -1   5   1 618.073 5.06957   1
   1   5   1 338.433 2.98965   1
   3   5   1 2.13466 0.17755   1
   5   5   1 191.181 1.79667   1
   7   5   1 155.668 1.46430   1
   9   5   1 31.7064 0.60336   1
  11   5   1 126.202 1.66840   1
  13   5   1 226.038 2.91914   1
  15   5   1 37.4928 0.99152   1
  17   5   1 127.019 2.54286   1
  19   5   1 4.97893 0.72566   1
  21   5   1 38.4107 1.59879   1
  23   5   1 55.1978 1.99732   1
 -22   6   1 4.63600 1.04618   1
 -20   6   1 9.90724 1.04110   1
 -18   6   1 1.20534 0.47271   1
 -16   6   1 52.5024 1.03032   1
 -14   6   1 30.1584 0.68994   1
 -12   6   1 297.306 3.04797   1
 -10   6   1 9.35421 0.38729   1
  -8   6   1 28.7102 0.52555   1
  -6   6   1 4.12359 0.24299   1
  -4   6   1 85.9664 0.92288   1
  -2   6   1 11.8765 0.27812   1
   0   6   1 83.7607 0.89045   1
   2   6   1 98.6486 1.05941   1
   4   6   1 38.0275 0.55963   1
   6   6   1 15.5406 0.38091   1
   8   6   1 21.0023 0.46412   1
  10   6   1 87.8549 1.37640   1
  12   6   1 21.2972 0.61418   1
  14   6   1 9.16348 0.60135   1
  16   6   1 21.1870 0.92560   1
  18   6   1 13.6252 1.07625   1
  20   6   1 16.8115 1.24062   1
  22   6   1 56.5783 2.26762   1
 -21   7   1 276.742 7.25958   1
 -19   7   1 20.5554 1.17018   1
 -17   7   1 274.881 4.54693   1
 -15   7   1 122.283 1.85750   1
 -13   7   1 429.753 5.06337   1
 -11   7   1 2.62358 0.30570   1
  -9   7   1 438.571 4.74929   1
  -7   7   1 9.68860 0.38785   1
  -5   7   1 256.084 2.32554   1
  -3   7   1 21.6472 0.40703   1
  -1   7   1 18.1718 0.34206   1
   1   7   1 40.6160 0.63204   1
   3   7   1 48.7308 0.71927   1
   5   7   1 238.764 2.60954   1
   7   7   1 2.63680 0.28285   1
   9   7   1 196.005 2.36253   1
  11   7   1 136.860 2.12219   1
  13   7   1 4.82129 0.46714   1
  15   7   1 69.8553 1.74640   1
  17   7   1 78.9493 2.13738   1
  19   7   1 20.1730 1.45711   1
  21   7   1 35.5635 1.80029   1
 -20   8   1 45.5594 2.32853   1
 -18   8   1 17.2161 1.33672   1
 -16   8   1 200.398 3.12838   1
 -14   8   1 24.3170 0.80094   1
 -12   8   1 59.4849 1.15711   1
 -10   8   1 5.56780 0.45357   1
  -8   8   1 43.8413 0.89265   1
  -6   8   1 31.7571 0.66953   1
  -4   8   1 53.7959 0.75997   1
  -2   8   1 115.510 1.36546   1
   0   8   1 319.404 2.97712   1
   2   8   1 76.6514 1.05436   1
   4   8   1 50.0172 0.85931   1
   6   8   1 16.1311 0.53494   1
   8   8   1 76.6555 1.32231   1
  10   8   1 5.71529 0.59721   1
  12   8   1 2.85845 0.48373   1
  14   8   1 127.145 2.82300   1
  16   8   1 3.47334 0.71218   1
  18   8   1 90.7294 2.82959   1
 -19   9   1 110.745 3.79001   1
 -17   9   1 115.537 2.74430   1
 -15   9   1 35.7993 1.18351   1
 -13   9   1 215.165 3.57431   1
 -11   9   1 5.62688 0.49989   1
  -9   9   1 391.416 4.93255   1
  -7   9   1 2.54315 0.36869   1
  -5   9   1 36.9328 0.77080   1
  -3   9   1 4.29297 0.31238   1
  -1   9   1 22.5379 0.52813   1
   1   9   1 3.29212 0.30096   1
   3   9   1 6.88278 0.46657   1
   5   9   1 81.9229 1.33680   1
   7   9   1 2.42170 0.35888   1
   9   9   1 54.5200 1.11704   1
  11   9   1 10.4603 0.86095   1
  13   9   1 86.4389 1.89100   1
  15   9   1 53.1004 2.02381   1
  17   9   1 3.56883 0.87355   1
 -16  10   1 73.2767 2.31782   1
 -14  10   1 3.35390 0.72940   1
 -12  10   1 39.5713 1.54206   1
 -10  10   1 6.85111 0.57464   1
  -8  10   1 74.2242 1.37996   1
  -6  10   1 37.6569 0.99325   1
  -4  10   1 170.960 2.54043   1
  -2  10   1 8.29208 0.49034   1
   0  10   1 45.2891 1.04607   1
   2  10   1 38.5734 0.99147   1
   4  10   1 21.3139 0.71658   1
   6  10   1 14.6706 0.64566   1
   8  10   1 3.08905 0.45838   1
  10  10   1 23.4425 0.93257   1
  12  10   1 24.8236 1.32654   1
  14  10   1 40.5940 1.79842   1
  16  10   1 6.73167 1.05988   1
 -13  11   1 87.1688 3.35883   1
 -11  11   1 38.2721 2.13984   1
  -9  11   1 34.6392 1.50854   1
  -7  11   1 9.97336 0.88548   1
  -5  11   1 136.226 2.37227   1
  -3  11   1 16.5253 0.78059   1
  -1  11   1 15.9156 1.00832   1
   1  11   1 1.56931 0.45259   1
   3  11   1 15.1307 0.80279   1
   5  11   1 5.53324 0.62962   1
   7  11   1 17.1218 0.87031   1
   9  11   1 64.9766 2.02533   1
  11  11   1 1.64542 0.63511   1
  13  11   1 30.7447 1.47325   1
 -10  12   1 26.5407 2.54963   1
  -8  12   1 147.738 4.23073   1
  -6  12   1 7.77221 1.17642   1
  -4  12   1 44.2300 2.04288   1
  -2  12   1 3.30410 0.95768   1
   0  12   1 11.2456 1.35045   1
   2  12   1 2.10257 0.81533   1
   4  12   1 14.2546 1.43837   1
   6  12   1 54.1014 1.93310   1
   8  12   1 21.8957 1.88007   1
  10  12   1 87.6061 4.50264   1
  -3  13   1 3.37400 1.02017   1
  -1  13   1 11.3061 1.45273   1
   1  13   1 0.75356 0.80909   1
   3  13   1 0.76384 0.85260   1
  24   0   2 29.5127 1.90406  -2
 -26   0   2 29.5127 1.90406   1
  22   0   2 22.4035 1.54912  -2
 -24   0   2 22.4035 1.54912   1
  20   0   2 64.7357 2.22514  -2
 -22   0   2 64.7357 2.22514   1
  18   0   2 22.1219 1.28631  -2
 -20   0   2 22.1219 1.28631   1
  16   0   2 31.5433 1.58883  -2
 -18   0   2 31.5433 1.58883   1
  14   0   2 192.684 3.14382  -2
 -16   0   2 192.684 3.14382   1
  12   0   2 61.4377 1.31333  -2
 -14   0   2 61.4377 1.31333   1
  10   0   2 33.6554 0.53601  -2
 -12   0   2 33.6554 0.53601   1
   8   0   2 991.041 10.0726  -2
 -10   0   2 991.041 10.0726   1
   6   0   2 830.986 8.01169  -2
  -8   0   2 830.986 8.01169   1
   4   0   2 763.072 7.72666  -2
  -6   0   2 763.072 7.72666   1
   2   0   2 45.0200 0.56252  -2
  -4   0   2 45.0200 0.56252   1
   0   0   2 130.420 1.87403  -2
  -2   0   2 130.420 1.87403   1
  -2   0   2 113.453 1.49255  -2
   0   0   2 113.453 1.49255   1
  -4   0   2 37.6482 0.70370  -2
   2   0   2 37.6482 0.70370   1
  -6   0   2 683.004 9.42224  -2
   4   0   2 683.004 9.42224   1
  -8   0   2 940.032 16.6596  -2
   6   0   2 940.032 16.6596   1
 -10   0   2 894.390 12.1850  -2
   8   0   2 894.390 12.1850   1
 -12   0   2 26.5683 0.78322  -2
  10   0   2 26.5683 0.78322   1
 -14   0   2 88.1930 2.15667  -2
  12   0   2 88.1930 2.15667   1
 -16   0   2 64.8763 1.78393  -2
  14   0   2 64.8763 1.78393   1
 -18   0   2 39.3752 1.96187  -2
  16   0   2 39.3752 1.96187   1
 -20   0   2 15.8262 1.46841  -2
  18   0   2 15.8262 1.46841   1
 -22   0   2 90.6005 3.45913  -2
  20   0   2 90.6005 3.45913   1
 -24   0   2 48.1860 2.68378  -2
  22   0   2 48.1860 2.68378   1
 -26   0   2 10.3541 2.39937  -2
  24   0   2 10.3541 2.39937   1
  23   1   2 32.4483 1.30152  -2
 -25   1   2 32.4483 1.30152   1
  21   1   2 45.4516 1.36739  -2
 -23   1   2 45.4516 1.36739   1
  19   1   2 1.99548 0.70395  -2
 -21   1   2 1.99548 0.70395   1
  17   1   2 1.97292 0.56647  -2
 -19   1   2 1.97292 0.56647   1
  15   1   2 1.60009 0.47799  -2
 -17   1   2 1.60009 0.47799   1
  13   1   2 121.798 1.46526  -2
 -15   1   2 121.798 1.46526   1
  11   1   2 121.769 1.22462  -2
 -13   1   2 121.769 1.22462   1
   9   1   2 37.2619 0.42081  -2
 -11   1   2 37.2619 0.42081   1
   7   1   2 148.337 1.21886  -2
  -9   1   2 148.337 1.21886   1
   5   1   2 85.3319 0.66748  -2
  -7   1   2 85.3319 0.66748   1
   3   1   2 8.98438 0.15104  -2
  -5   1   2 8.98438 0.15104   1
   1   1   2 205.548 1.58701  -2
  -3   1   2 205.548 1.58701   1
  -1   1   2 14.0790 0.20708  -2
  -1   1   2 14.0790 0.20708   1
  -3   1   2 277.378 3.30473  -2
   1   1   2 277.378 3.30473   1
  -5   1   2 11.2278 0.35182  -2
   3   1   2 11.2278 0.35182   1
  -7   1   2 20.6370 0.44627  -2
   5   1   2 20.6370 0.44627   1
  -9   1   2 176.859 1.85274  -2
   7   1   2 176.859 1.85274   1
 -11   1   2 86.7992 1.04590  -2
   9   1   2 86.7992 1.04590   1
 -13   1   2 115.295 1.53721  -2
  11   1   2 115.295 1.53721   1
 -15   1   2 103.126 1.93613  -2
  13   1   2 103.126 1.93613   1
 -17   1   2 1.48955 0.59591  -2
  15   1   2 1.48955 0.59591   1
 -19   1   2 3.20762 0.86824  -2
  17   1   2 3.20762 0.86824   1
 -21   1   2 3.62000 0.91677  -2
  19   1   2 3.62000 0.91677   1
 -23   1   2 62.4749 2.05542  -2
  21   1   2 62.4749 2.05542   1
 -25   1   2 52.8161 2.00076  -2
  23   1   2 52.8161 2.00076   1
  24   2   2 6.53538 1.16867  -2
 -26   2   2 6.53538 1.16867   1
  22   2   2 7.09294 0.97844  -2
 -24   2   2 7.09294 0.97844   1
  20   2   2 51.0136 1.44796  -2
 -22   2   2 51.0136 1.44796   1
  18   2   2 30.2950 0.97808  -2
 -20   2   2 30.2950 0.97808   1
  16   2   2 78.3415 1.46149  -2
 -18   2   2 78.3415 1.46149   1
  14   2   2 17.1390 0.61512  -2
 -16   2   2 17.1390 0.61512   1
  12   2   2 176.948 1.77001  -2
 -14   2   2 176.948 1.77001   1
  10   2   2 21.1356 0.38045  -2
 -12   2   2 21.1356 0.38045   1
   8   2   2 224.407 1.84107  -2
 -10   2   2 224.407 1.84107   1
   6   2   2 72.8917 0.68331  -2
  -8   2   2 72.8917 0.68331   1
   4   2   2 239.990 1.84858  -2
  -6   2   2 239.990 1.84858   1
   2   2   2 194.341 1.54945  -2
  -4   2   2 194.341 1.54945   1
   0   2   2 203.398 1.94962  -2
  -2   2   2 203.398 1.94962   1
  -2   2   2 192.062 1.76686  -2
   0   2   2 192.062 1.76686   1
   0   2   2 162.654 5.09014   1
  -4   2   2 203.571 2.17590  -2
   2   2   2 203.571 2.17590   1
  -6   2   2 182.701 2.00684  -2
   4   2   2 182.701 2.00684   1
  -8   2   2 47.8017 0.84456  -2
   6   2   2 47.8017 0.84456   1
 -10   2   2 215.938 2.39054  -2
   8   2   2 215.938 2.39054   1
 -12   2   2 77.9162 1.15124  -2
  10   2   2 77.9162 1.15124   1
 -14   2   2 209.972 2.76806  -2
  12   2   2 209.972 2.76806   1
 -16   2   2 12.0202 0.61510  -2
  14   2   2 12.0202 0.61510   1
 -18   2   2 132.349 2.83678  -2
  16   2   2 132.349 2.83678   1
 -20   2   2 19.9643 1.14978  -2
  18   2   2 19.9643 1.14978   1
 -22   2   2 27.3059 1.40350  -2
  20   2   2 27.3059 1.40350   1
 -24   2   2 7.78799 1.13806  -2
  22   2   2 7.78799 1.13806   1
 -26   2   2 12.9567 1.84263  -2
  24   2   2 12.9567 1.84263   1
  23   3   2 9.76921 1.41304  -2
 -25   3   2 9.76921 1.41304   1
  21   3   2 11.7295 1.14852  -2
 -23   3   2 11.7295 1.14852   1
  19   3   2 58.9472 1.67256  -2
 -21   3   2 58.9472 1.67256   1
  17   3   2 7.73577 0.72547  -2
 -19   3   2 7.73577 0.72547   1
  15   3   2 108.132 1.68680  -2
 -17   3   2 108.132 1.68680   1
  13   3   2 104.797 1.37247  -2
 -15   3   2 104.797 1.37247   1
  11   3   2 15.0275 0.37826  -2
 -13   3   2 15.0275 0.37826   1
   9   3   2 163.051 1.58516  -2
 -11   3   2 163.051 1.58516   1
   7   3   2 43.2064 0.48466  -2
  -9   3   2 43.2064 0.48466   1
   5   3   2 176.206 1.56629  -2
  -7   3   2 176.206 1.56629   1
   3   3   2 235.284 2.01089  -2
  -5   3   2 235.284 2.01089   1
   1   3   2 315.845 2.64457  -2
  -3   3   2 315.845 2.64457   1
  -1   3   2 11.6273 0.22885  -2
  -1   3   2 11.6273 0.22885   1
  -3   3   2 124.598 1.12067  -2
   1   3   2 124.598 1.12067   1
  -5   3   2 136.134 1.31864  -2
   3   3   2 136.134 1.31864   1
  -7   3   2 361.101 3.39603  -2
   5   3   2 361.101 3.39603   1
  -9   3   2 67.2670 0.85862  -2
   7   3   2 67.2670 0.85862   1
 -11   3   2 54.1555 0.90248  -2
   9   3   2 54.1555 0.90248   1
 -13   3   2 14.2776 0.55258  -2
  11   3   2 14.2776 0.55258   1
 -15   3   2 26.0856 0.77771  -2
  13   3   2 26.0856 0.77771   1
 -17   3   2 35.1096 0.99052  -2
  15   3   2 35.1096 0.99052   1
 -19   3   2 12.2878 0.75342  -2
  17   3   2 12.2878 0.75342   1
 -21   3   2 94.9684 2.13387  -2
  19   3   2 94.9684 2.13387   1
 -23   3   2 18.3827 1.37980  -2
  21   3   2 18.3827 1.37980   1
 -25   3   2 5.07243 1.35528  -2
  23   3   2 5.07243 1.35528   1
  22   4   2 14.8253 1.75853  -2
 -24   4   2 14.8253 1.75853   1
  20   4   2 17.0451 1.25148  -2
 -22   4   2 17.0451 1.25148   1
  18   4   2 8.46472 0.89449  -2
 -20   4   2 8.46472 0.89449   1
  16   4   2 242.255 3.16337  -2
 -18   4   2 242.255 3.16337   1
  14   4   2 68.4386 1.13012  -2
 -16   4   2 68.4386 1.13012   1
  12   4   2 186.882 2.15983  -2
 -14   4   2 186.882 2.15983   1
  10   4   2 20.1933 0.44338  -2
 -12   4   2 20.1933 0.44338   1
   8   4   2 8.34688 0.30181  -2
 -10   4   2 8.34688 0.30181   1
   6   4   2 120.223 1.15440  -2
  -8   4   2 120.223 1.15440   1
   4   4   2 44.2310 0.50217  -2
  -6   4   2 44.2310 0.50217   1
   2   4   2 336.628 2.95042  -2
  -4   4   2 336.628 2.95042   1
   0   4   2 957.332 8.06344  -2
  -2   4   2 957.332 8.06344   1
  -2   4   2 699.680 5.72408  -2
   0   4   2 699.680 5.72408   1
  -4   4   2 168.542 1.63084  -2
   2   4   2 168.542 1.63084   1
  -6   4   2 21.6902 0.37021  -2
   4   4   2 21.6902 0.37021   1
  -8   4   2 51.3510 0.60907  -2
   6   4   2 51.3510 0.60907   1
 -10   4   2 11.9822 0.42283  -2
   8   4   2 11.9822 0.42283   1
 -12   4   2 7.74880 0.51763  -2
  10   4   2 7.74880 0.51763   1
 -14   4   2 253.536 3.33722  -2
  12   4   2 253.536 3.33722   1
 -16   4   2 96.1203 1.92651  -2
  14   4   2 96.1203 1.92651   1
 -18   4   2 125.724 2.59873  -2
  16   4   2 125.724 2.59873   1
 -20   4   2 10.0968 1.00001  -2
  18   4   2 10.0968 1.00001   1
 -22   4   2 30.9903 1.45341  -2
  20   4   2 30.9903 1.45341   1
 -24   4   2 6.73389 1.08045  -2
  22   4   2 6.73389 1.08045   1
  21   5   2 34.9559 2.14418  -2
 -23   5   2 34.9559 2.14418   1
  19   5   2 87.3625 2.71397  -2
 -21   5   2 87.3625 2.71397   1
  17   5   2 37.4203 1.33865  -2
 -19   5   2 37.4203 1.33865   1
  15   5   2 45.8859 0.95430  -2
 -17   5   2 45.8859 0.95430   1
  13   5   2 55.8914 0.98337  -2
 -15   5   2 55.8914 0.98337   1
  11   5   2 27.7705 0.60532  -2
 -13   5   2 27.7705 0.60532   1
   9   5   2 27.1235 0.57493  -2
 -11   5   2 27.1235 0.57493   1
   7   5   2 81.7792 0.99402  -2
  -9   5   2 81.7792 0.99402   1
   5   5   2 224.025 2.17329  -2
  -7   5   2 224.025 2.17329   1
   3   5   2 15.6932 0.31093  -2
  -5   5   2 15.6932 0.31093   1
   1   5   2 185.374 1.60624  -2
  -3   5   2 185.374 1.60624   1
  -1   5   2 7.18583 0.24492  -2
  -1   5   2 7.18583 0.24492   1
  -3   5   2 564.153 5.05050  -2
   1   5   2 564.153 5.05050   1
  -5   5   2 16.3381 0.34434  -2
   3   5   2 16.3381 0.34434   1
  -7   5   2 48.6630 0.64469  -2
   5   5   2 48.6630 0.64469   1
  -9   5   2 91.6397 1.15459  -2
   7   5   2 91.6397 1.15459   1
 -11   5   2 23.1651 0.62742  -2
   9   5   2 23.1651 0.62742   1
 -13   5   2 29.6595 0.96120  -2
  11   5   2 29.6595 0.96120   1
 -15   5   2 86.5975 1.57062  -2
  13   5   2 86.5975 1.57062   1
 -17   5   2 167.007 3.00540  -2
  15   5   2 167.007 3.00540   1
 -19   5   2 46.7681 1.46977  -2
  17   5   2 46.7681 1.46977   1
 -21   5   2 23.0621 1.26009  -2
  19   5   2 23.0621 1.26009   1
 -23   5   2 31.0811 1.52783  -2
  21   5   2 31.0811 1.52783   1
  20   6   2 17.3451 1.73841  -2
 -22   6   2 17.3451 1.73841   1
  18   6   2 15.4624 1.18155  -2
 -20   6   2 15.4624 1.18155   1
  16   6   2 62.8682 1.52030  -2
 -18   6   2 62.8682 1.52030   1
  14   6   2 13.1102 0.61892  -2
 -16   6   2 13.1102 0.61892   1
  12   6   2 116.428 1.65450  -2
 -14   6   2 116.428 1.65450   1
  10   6   2 8.41934 0.45748  -2
 -12   6   2 8.41934 0.45748   1
   8   6   2 39.1346 0.72761  -2
 -10   6   2 39.1346 0.72761   1
   6   6   2 30.6788 0.50978  -2
  -8   6   2 30.6788 0.50978   1
   4   6   2 109.239 1.13309  -2
  -6   6   2 109.239 1.13309   1
   2   6   2 61.2731 0.69368  -2
  -4   6   2 61.2731 0.69368   1
   0   6   2 51.1345 0.62766  -2
  -2   6   2 51.1345 0.62766   1
  -2   6   2 113.849 1.18479  -2
   0   6   2 113.849 1.18479   1
  -4   6   2 187.119 1.79891  -2
   2   6   2 187.119 1.79891   1
  -6   6   2 160.873 1.58701  -2
   4   6   2 160.873 1.58701   1
  -8   6   2 63.7507 0.93027  -2
   6   6   2 63.7507 0.93027   1
 -10   6   2 92.8931 1.28967  -2
   8   6   2 92.8931 1.28967   1
 -12   6   2 5.64232 0.46688  -2
  10   6   2 5.64232 0.46688   1
 -14   6   2 30.3530 0.98733  -2
  12   6   2 30.3530 0.98733   1
 -16   6   2 5.69304 0.71861  -2
  14   6   2 5.69304 0.71861   1
 -18   6   2 81.1009 1.96383  -2
  16   6   2 81.1009 1.96383   1
 -20   6   2 55.0046 1.85186  -2
  18   6   2 55.0046 1.85186   1
 -22   6   2 34.1650 1.61405  -2
  20   6   2 34.1650 1.61405   1
  19   7   2 31.1070 2.09242  -2
 -21   7   2 31.1070 2.09242   1
  17   7   2 63.4053 1.90171  -2
 -19   7   2 63.4053 1.90171   1
  15   7   2 13.9069 0.75751  -2
 -17   7   2 13.9069 0.75751   1
  13   7   2 12.9791 0.67242  -2
 -15   7   2 12.9791 0.67242   1
  11   7   2 91.8707 1.45229  -2
 -13   7   2 91.8707 1.45229   1
   9   7   2 131.649 1.75776  -2
 -11   7   2 131.649 1.75776   1
   7   7   2 30.8067 0.67019  -2
  -9   7   2 30.8067 0.67019   1
   5   7   2 348.062 3.08058  -2
  -7   7   2 348.062 3.08058   1
   3   7   2 35.9976 0.56145  -2
  -5   7   2 35.9976 0.56145   1
   1   7   2 351.563 2.95270  -2
  -3   7   2 351.563 2.95270   1
  -1   7   2 81.7001 0.95756  -2
  -1   7   2 81.7001 0.95756   1
  -3   7   2 76.8434 0.96145  -2
   1   7   2 76.8434 0.96145   1
  -5   7   2 77.2025 1.01674  -2
   3   7   2 77.2025 1.01674   1
  -7   7   2 229.002 2.51947  -2
   5   7   2 229.002 2.51947   1
  -9   7   2 19.8226 0.60334  -2
   7   7   2 19.8226 0.60334   1
 -11   7   2 157.894 2.34883  -2
   9   7   2 157.894 2.34883   1
 -13   7   2 78.9979 1.56987  -2
  11   7   2 78.9979 1.56987   1
 -15   7   2 54.0522 1.55648  -2
  13   7   2 54.0522 1.55648   1
 -17   7   2 7.40734 0.87389  -2
  15   7   2 7.40734 0.87389   1
 -19   7   2 13.7816 1.30049  -2
  17   7   2 13.7816 1.30049   1
 -21   7   2 18.9603 1.51477  -2
  19   7   2 18.9603 1.51477   1
  18   8   2 17.2287 1.40983  -2
 -20   8   2 17.2287 1.40983   1
  16   8   2 2.77305 1.03081  -2
 -18   8   2 2.77305 1.03081   1
  14   8   2 11.8249 0.78492  -2
 -16   8   2 11.8249 0.78492   1
  12   8   2 19.4339 0.86059  -2
 -14   8   2 19.4339 0.86059   1
  10   8   2 70.9975 1.32685  -2
 -12   8   2 70.9975 1.32685   1
   8   8   2 301.054 3.88183  -2
 -10   8   2 301.054 3.88183   1
   6   8   2 62.1129 1.05924  -2
  -8   8   2 62.1129 1.05924   1
   4   8   2 54.9868 0.84666  -2
  -6   8   2 54.9868 0.84666   1
   2   8   2 32.7686 0.63650  -2
  -4   8   2 32.7686 0.63650   1
   0   8   2 7.13453 0.40061  -2
  -2   8   2 7.13453 0.40061   1
  -2   8   2 10.6777 0.44206  -2
   0   8   2 10.6777 0.44206   1
  -4   8   2 79.8030 1.15074  -2
   2   8   2 79.8030 1.15074   1
  -6   8   2 246.840 2.88845  -2
   4   8   2 246.840 2.88845   1
  -8   8   2 111.689 1.64216  -2
   6   8   2 111.689 1.64216   1
 -10   8   2 71.8173 1.38941  -2
   8   8   2 71.8173 1.38941   1
 -12   8   2 20.9033 0.91074  -2
  10   8   2 20.9033 0.91074   1
 -14   8   2 26.3688 1.00814  -2
  12   8   2 26.3688 1.00814   1
 -16   8   2 9.94004 1.03581  -2
  14   8   2 9.94004 1.03581   1
 -18   8   2 8.18988 1.08653  -2
  16   8   2 8.18988 1.08653   1
 -20   8   2 19.0129 1.54122  -2
  18   8   2 19.0129 1.54122   1
  17   9   2 1.16614 1.14142  -2
 -19   9   2 1.16614 1.14142   1
  15   9   2 7.58321 1.15973  -2
 -17   9   2 7.58321 1.15973   1
  13   9   2 82.1081 2.42017  -2
 -15   9   2 82.1081 2.42017   1
  11   9   2 24.6859 0.83479  -2
 -13   9   2 24.6859 0.83479   1
   9   9   2 199.342 2.82092  -2
 -11   9   2 199.342 2.82092   1
   7   9   2 10.6822 0.58211  -2
  -9   9   2 10.6822 0.58211   1
   5   9   2 239.461 3.00331  -2
  -7   9   2 239.461 3.00331   1
   3   9   2 13.7659 0.52602  -2
  -5   9   2 13.7659 0.52602   1
   1   9   2 101.773 1.33457  -2
  -3   9   2 101.773 1.33457   1
  -1   9   2 64.3079 0.89814  -2
  -1   9   2 64.3079 0.89814   1
  -3   9   2 122.146 1.66316  -2
   1   9   2 122.146 1.66316   1
  -5   9   2 18.9717 0.61484  -2
   3   9   2 18.9717 0.61484   1
  -7   9   2 169.724 2.43111  -2
   5   9   2 169.724 2.43111   1
  -9   9   2 29.7601 0.83281  -2
   7   9   2 29.7601 0.83281   1
 -11   9   2 263.999 4.32555  -2
   9   9   2 263.999 4.32555   1
 -13   9   2 17.1719 0.98200  -2
  11   9   2 17.1719 0.98200   1
 -15   9   2 18.9321 1.34376  -2
  13   9   2 18.9321 1.34376   1
 -17   9   2 10.9451 1.26721  -2
  15   9   2 10.9451 1.26721   1
 -19   9   2 1.07647 1.16081  -2
  17   9   2 1.07647 1.16081   1
  14  10   2 9.17337 1.14530  -2
 -16  10   2 9.17337 1.14530   1
  12  10   2 24.8689 1.37954  -2
 -14  10   2 24.8689 1.37954   1
  10  10   2 18.2316 0.92447  -2
 -12  10   2 18.2316 0.92447   1
   8  10   2 22.0006 0.93980  -2
 -10  10   2 22.0006 0.93980   1
   6  10   2 32.3664 1.02278  -2
  -8  10   2 32.3664 1.02278   1
   4  10   2 158.172 2.41480  -2
  -6  10   2 158.172 2.41480   1
   2  10   2 37.5313 0.90355  -2
  -4  10   2 37.5313 0.90355   1
   0  10   2 19.6347 0.77930  -2
  -2  10   2 19.6347 0.77930   1
  -2  10   2 25.5093 0.82701  -2
   0  10   2 25.5093 0.82701   1
  -4  10   2 11.5097 0.60984  -2
   2  10   2 11.5097 0.60984   1
  -6  10   2 50.1181 1.10375  -2
   4  10   2 50.1181 1.10375   1
  -8  10   2 12.6467 0.66532  -2
   6  10   2 12.6467 0.66532   1
 -10  10   2 104.684 2.11912  -2
   8  10   2 104.684 2.11912   1
 -12  10   2 85.0357 3.01802  -2
  10  10   2 85.0357 3.01802   1
 -14  10   2 32.3470 1.97520  -2
  12  10   2 32.3470 1.97520   1
 -16  10   2 32.6357 2.05643  -2
  14  10   2 32.6357 2.05643   1
 -15  11   2 74.2917 4.11846   1
  11  11   2 15.8321 1.72981  -2
 -13  11   2 15.8321 1.72981   1
   9  11   2 122.134 3.09022  -2
 -11  11   2 122.134 3.09022   1
   7  11   2 10.1888 1.17396  -2
  -9  11   2 10.1888 1.17396   1
   5  11   2 76.5116 1.91430  -2
  -7  11   2 76.5116 1.91430   1
   3  11   2 30.1375 1.14713  -2
  -5  11   2 30.1375 1.14713   1
   1  11   2 157.196 3.19260  -2
  -3  11   2 157.196 3.19260   1
  -1  11   2 0.38582 0.53497  -2
  -1  11   2 0.38582 0.53497   1
  -3  11   2 216.951 3.36385  -2
   1  11   2 216.951 3.36385   1
  -5  11   2 7.34919 0.68613  -2
   3  11   2 7.34919 0.68613   1
  -7  11   2 120.127 2.96970  -2
   5  11   2 120.127 2.96970   1
  -9  11   2 11.6705 0.99618  -2
   7  11   2 11.6705 0.99618   1
 -11  11   2 41.4498 1.69133  -2
   9  11   2 41.4498 1.69133   1
 -13  11   2 7.86399 1.32136  -2
  11  11   2 7.86399 1.32136   1
   8  12   2 10.0327 1.18260  -2
 -10  12   2 10.0327 1.18260   1
   6  12   2 7.49677 1.14203  -2
  -8  12   2 7.49677 1.14203   1
   4  12   2 25.8894 1.64364  -2
  -6  12   2 25.8894 1.64364   1
   2  12   2 102.445 3.30269  -2
  -4  12   2 102.445 3.30269   1
   0  12   2 83.1074 2.86008  -2
  -2  12   2 83.1074 2.86008   1
  -2  12   2 21.7279 1.47156  -2
   0  12   2 21.7279 1.47156   1
  -4  12   2 32.6946 1.70301  -2
   2  12   2 32.6946 1.70301   1
  -6  12   2 10.3693 1.03537  -2
   4  12   2 10.3693 1.03537   1
  -8  12   2 12.7472 1.55646  -2
   6  12   2 12.7472 1.55646   1
 -10  12   2 10.0282 1.54494  -2
   8  12   2 10.0282 1.54494   1
   1  13   2 168.102 4.74096  -2
  -3  13   2 168.102 4.74096   1
  -1  13   2 -0.8291 0.91962  -2
  -1  13   2 -0.8291 0.91962   1
  -3  13   2 157.317 4.48481  -2
   1  13   2 157.317 4.48481   1
 -26   0   3 0.65243 0.83582   1
 -24   0   3 0.02184 0.72604   1
 -22   0   3 0.57734 0.67894   1
 -20   0   3 0.94403 0.57681   1
 -18   0   3 0.14371 0.37581   1
 -16   0   3 0.40741 0.31484   1
 -14   0   3 0.84480 0.19581   1
 -12   0   3 0.38207 0.15398   1
 -10   0   3 1.14379 0.13563   1
  -8   0   3 0.44586 0.11272   1
  -6   0   3 0.45534 0.11023   1
  -4   0   3 0.35463 0.10208   1
  -2   0   3 0.25372 0.07808   1
   0   0   3 0.38334 0.08610   1
   2   0   3 0.83043 0.14711   1
   4   0   3 0.19670 0.11735   1
   6   0   3 0.97093 0.15903   1
   8   0   3 0.38926 0.28623   1
  10   0   3 0.67555 0.38073   1
  12   0   3 0.19905 0.42562   1
  14   0   3 -0.4036 0.59506   1
  16   0   3 -0.3631 0.69798   1
  18   0   3 0.56518 0.81990   1
  20   0   3 0.46304 0.97218   1
  22   0   3 0.42942 1.06068   1
 -27   1   3 14.2960 1.28671   1
 -25   1   3 17.4526 1.01417   1
 -23   1   3 33.8638 1.17064   1
 -21   1   3 120.065 2.20510   1
 -19   1   3 21.4330 0.71714   1
 -17   1   3 322.119 3.31493   1
 -15   1   3 30.4178 0.51170   1
 -13   1   3 233.416 2.03826   1
 -11   1   3 293.702 2.17159   1
  -9   1   3 107.358 0.99939   1
  -7   1   3 147.350 1.11404   1
  -5   1   3 99.9799 1.70846   1
  -3   1   3 40.6765 0.38873   1
  -1   1   3 23.5127 0.27573   1
   1   1   3 164.839 2.01781   1
   3   1   3 654.143 7.59756   1
   5   1   3 86.1942 1.31668   1
   7   1   3 1069.61 11.4318   1
   9   1   3 103.774 1.29559   1
  11   1   3 926.653 10.7463   1
  13   1   3 220.981 3.56395   1
  15   1   3 588.030 8.52310   1
  17   1   3 151.188 3.25824   1
  19   1   3 417.240 7.36513   1
  21   1   3 62.2319 2.14378   1
  23   1   3 318.990 6.25595   1
 -26   2   3 2.44926 0.79225   1
 -24   2   3 97.6436 2.23518   1
 -22   2   3 68.5608 1.63414   1
 -20   2   3 20.1621 0.74606   1
 -18   2   3 65.7780 1.15878   1
 -16   2   3 70.2328 0.94713   1
 -14   2   3 82.8771 0.91749   1
 -12   2   3 6.86018 0.21453   1
 -10   2   3 42.0094 0.46261   1
  -8   2   3 183.089 1.45937   1
  -6   2   3 150.862 1.14371   1
  -4   2   3 19.0976 0.21560   1
  -2   2   3 59.6911 0.68688   1
   0   2   3 11.8007 0.25407   1
   2   2   3 17.5751 0.35229   1
   4   2   3 132.882 1.61253   1
   6   2   3 8.70408 0.31735   1
   8   2   3 3.37720 0.25142   1
  10   2   3 96.7530 1.35782   1
  12   2   3 167.077 2.83048   1
  14   2   3 172.092 3.00126   1
  16   2   3 3.30540 0.58823   1
  18   2   3 24.7690 1.28582   1
  20   2   3 63.2891 2.10106   1
  22   2   3 23.0485 1.53916   1
 -25   3   3 54.8987 1.85486   1
 -23   3   3 31.3170 1.23947   1
 -21   3   3 45.5393 1.26494   1
 -19   3   3 50.7920 1.09250   1
 -17   3   3 132.864 1.77439   1
 -15   3   3 85.9221 1.07359   1
 -13   3   3 292.882 2.68626   1
 -11   3   3 8.18979 0.23253   1
  -9   3   3 221.648 1.75789   1
  -7   3   3 86.9489 0.79539   1
  -5   3   3 24.7114 0.31554   1
  -3   3   3 45.8806 0.50142   1
  -1   3   3 363.182 3.44164   1
   1   3   3 68.0791 0.72646   1
   3   3   3 177.487 1.84296   1
   5   3   3 268.681 3.07071   1
   7   3   3 597.819 6.53808   1
   9   3   3 218.298 2.64850   1
  11   3   3 843.677 9.82135   1
  13   3   3 52.1662 1.17742   1
  15   3   3 724.597 10.3655   1
  17   3   3 129.326 2.62979   1
  19   3   3 350.781 6.43003   1
  21   3   3 76.2400 2.40721   1
  23   3   3 167.876 5.30727   1
 -26   4   3 1.00382 0.90881   1
 -24   4   3 12.5792 1.25288   1
 -22   4   3 14.1968 0.96820   1
 -20   4   3 28.3160 0.92703   1
 -18   4   3 9.84638 0.49364   1
 -16   4   3 2.93775 0.33901   1
 -14   4   3 38.2711 0.63509   1
 -12   4   3 3.86486 0.25926   1
 -10   4   3 8.14599 0.23157   1
  -8   4   3 22.4425 0.32572   1
  -6   4   3 198.921 1.69843   1
  -4   4   3 126.135 1.20378   1
  -2   4   3 18.8848 0.29857   1
   0   4   3 150.113 1.61758   1
   2   4   3 7.43806 0.19832   1
   4   4   3 11.0505 0.23837   1
   6   4   3 91.3161 1.03988   1
   8   4   3 73.0918 1.12961   1
  10   4   3 227.621 3.00268   1
  12   4   3 3.08515 0.42493   1
  14   4   3 0.17801 0.41569   1
  16   4   3 2.81340 0.55271   1
  18   4   3 9.83784 0.89138   1
  20   4   3 3.97277 0.83346   1
  22   4   3 22.6486 1.39510   1
 -25   5   3 80.3587 2.55659   1
 -23   5   3 5.45551 0.89795   1
 -21   5   3 88.4496 2.01117   1
 -19   5   3 128.666 1.93509   1
 -17   5   3 10.9488 0.51491   1
 -15   5   3 72.8922 1.02765   1
 -13   5   3 155.444 1.61945   1
 -11   5   3 10.2936 0.33841   1
  -9   5   3 288.344 2.63656   1
  -7   5   3 3.47085 0.20703   1
  -5   5   3 43.5733 0.52193   1
  -3   5   3 45.5161 0.57796   1
  -1   5   3 90.9690 1.04197   1
   1   5   3 31.1805 0.46752   1
   3   5   3 384.050 3.24404   1
   5   5   3 161.401 1.78764   1
   7   5   3 334.658 3.65813   1
   9   5   3 106.725 1.66268   1
  11   5   3 515.667 6.31226   1
  13   5   3 241.269 3.58262   1
  15   5   3 427.488 6.45446   1
  17   5   3 33.1858 1.22023   1
  19   5   3 392.219 6.89755   1
  21   5   3 35.9831 1.58166   1
 -24   6   3 0.41438 0.72140   1
 -22   6   3 37.9464 1.65794   1
 -20   6   3 1.49817 0.61704   1
 -18   6   3 16.1686 0.64983   1
 -16   6   3 138.771 1.90203   1
 -14   6   3 79.1173 1.15323   1
 -12   6   3 29.4260 0.62296   1
 -10   6   3 1.67982 0.23681   1
  -8   6   3 13.4331 0.34344   1
  -6   6   3 3.57390 0.21034   1
  -4   6   3 99.0330 0.98260   1
  -2   6   3 85.6281 0.95546   1
   0   6   3 53.4708 0.69919   1
   2   6   3 180.310 1.75063   1
   4   6   3 41.2038 0.63933   1
   6   6   3 323.711 3.37487   1
   8   6   3 3.59701 0.34008   1
  10   6   3 3.45709 0.46941   1
  12   6   3 19.2960 0.74053   1
  14   6   3 17.1346 0.96644   1
  16   6   3 2.57040 0.59142   1
  18   6   3 77.2186 2.20574   1
  20   6   3 93.5908 2.56784   1
 -23   7   3 6.24802 1.00527   1
 -21   7   3 81.8845 2.48125   1
 -19   7   3 3.73767 0.52997   1
 -17   7   3 85.1088 1.49187   1
 -15   7   3 109.828 1.56977   1
 -13   7   3 5.31881 0.41356   1
 -11   7   3 58.1592 0.94032   1
  -9   7   3 19.8717 0.48915   1
  -7   7   3 7.60240 0.31077   1
  -5   7   3 169.035 1.56259   1
  -3   7   3 98.8372 1.06381   1
  -1   7   3 108.407 1.24815   1
   1   7   3 5.95965 0.32975   1
   3   7   3 345.372 3.59593   1
   5   7   3 4.58962 0.34433   1
   7   7   3 336.349 4.32431   1
   9   7   3 317.939 4.14591   1
  11   7   3 131.577 2.31162   1
  13   7   3 106.051 2.05947   1
  15   7   3 300.245 5.44913   1
  17   7   3 56.1756 1.86012   1
  19   7   3 311.667 5.86102   1
 -20   8   3 29.5633 1.46709   1
 -18   8   3 2.72403 0.59042   1
 -16   8   3 29.3260 0.95182   1
 -14   8   3 6.52820 0.48393   1
 -12   8   3 86.0036 1.47617   1
 -10   8   3 16.9697 0.55196   1
  -8   8   3 33.5128 0.60751   1
  -6   8   3 4.46252 0.33707   1
  -4   8   3 16.7994 0.42256   1
  -2   8   3 94.3875 1.18024   1
   0   8   3 41.5057 0.72642   1
   2   8   3 394.181 4.33477   1
   4   8   3 24.2128 0.61454   1
   6   8   3 20.5457 0.65123   1
   8   8   3 31.5893 0.99057   1
  10   8   3 46.3610 1.22400   1
  12   8   3 1.93568 0.58485   1
  14   8   3 96.7638 2.41079   1
  16   8   3 60.6986 2.20826   1
  18   8   3 67.2705 2.44801   1
 -19   9   3 0.81828 0.71929   1
 -17   9   3 103.574 2.79448   1
 -15   9   3 3.40057 0.72195   1
 -13   9   3 18.8045 0.72452   1
 -11   9   3 75.3628 1.37819   1
  -9   9   3 2.74571 0.36660   1
  -7   9   3 2.82307 0.31372   1
  -5   9   3 1.18440 0.28249   1
  -3   9   3 18.8830 0.57142   1
  -1   9   3 1.17578 0.26015   1
   1   9   3 18.6712 0.59464   1
   3   9   3 162.458 2.20154   1
   5   9   3 71.8058 1.29621   1
   7   9   3 94.7014 1.96200   1
   9   9   3 47.7938 1.31556   1
  11   9   3 234.545 5.04581   1
  13   9   3 68.8404 1.98188   1
  15   9   3 185.750 4.49705   1
  17   9   3 37.3811 2.73444   1
 -18  10   3 4.44801 0.95251   1
 -16  10   3 26.5697 1.34464   1
 -14  10   3 3.56475 0.72781   1
 -12  10   3 1.90220 0.68826   1
 -10  10   3 1.35343 0.46493   1
  -8  10   3 44.7554 1.08909   1
  -6  10   3 77.7999 1.54814   1
  -4  10   3 27.0475 0.83359   1
  -2  10   3 123.575 1.99926   1
   0  10   3 9.16474 0.58379   1
   2  10   3 30.3514 0.84270   1
   4  10   3 12.8904 0.65538   1
   6  10   3 91.3085 1.89023   1
   8  10   3 2.83096 0.58197   1
  10  10   3 89.9435 2.40007   1
  12  10   3 25.9587 1.70768   1
  14  10   3 98.1975 2.98343   1
 -15  11   3 5.99981 1.72722   1
 -13  11   3 139.184 3.97272   1
 -11  11   3 45.5564 2.00731   1
  -9  11   3 6.13543 0.95322   1
  -7  11   3 58.5405 1.43373   1
  -5  11   3 73.8665 1.95528   1
  -3  11   3 16.9866 0.86188   1
  -1  11   3 10.1990 0.80472   1
   1  11   3 195.978 3.11619   1
   3  11   3 27.4091 0.89459   1
   5  11   3 87.6982 2.39066   1
   7  11   3 169.027 3.85244   1
   9  11   3 1.07648 0.75339   1
  11  11   3 212.327 5.80782   1
 -10  12   3 23.1472 1.57220   1
  -8  12   3 21.0706 1.54967   1
  -6  12   3 40.2853 1.98075   1
  -4  12   3 15.8406 1.40121   1
  -2  12   3 23.7114 1.58145   1
   0  12   3 9.44123 1.26959   1
   2  12   3 48.8671 1.82139   1
   4  12   3 2.61595 1.03418   1
   6  12   3 100.798 3.64989   1
   8  12   3 15.2905 1.13200   1
  -3  13   3 8.73557 1.33531   1
  -1  13   3 3.10713 0.98819   1
   1  13   3 18.3161 1.45923   1
  22   0   4 25.7262 2.15527  -2
 -26   0   4 25.7262 2.15527   1
  20   0   4 45.5500 1.94644  -2
 -24   0   4 45.5500 1.94644   1
  18   0   4 235.112 5.15237  -2
 -22   0   4 235.112 5.15237   1
  16   0   4 201.979 3.81908  -2
 -20   0   4 201.979 3.81908   1
  14   0   4 669.820 9.51958  -2
 -18   0   4 669.820 9.51958   1
  12   0   4 93.7165 1.51457  -2
 -16   0   4 93.7165 1.51457   1
  10   0   4 1979.86 19.8408  -2
 -14   0   4 1979.86 19.8408   1
   8   0   4 63.1245 0.84034  -2
 -12   0   4 63.1245 0.84034   1
   6   0   4 3133.16 31.4958  -2
 -10   0   4 3133.16 31.4958   1
   4   0   4 251.879 2.68117  -2
  -8   0   4 251.879 2.68117   1
   2   0   4 9397.31 99.6285  -2
  -6   0   4 9397.31 99.6285   1
  -4   0   4 253.908 7.94053   1
   0   0   4 316.373 4.47431  -2
  -4   0   4 316.373 4.47431   1
  -2   0   4 5342.43 94.4893  -2
  -2   0   4 5342.43 94.4893   1
  -4   0   4 209.209 2.72983  -2
   0   0   4 209.209 2.72983   1
  -6   0   4 8587.64 130.203  -2
   2   0   4 8587.64 130.203   1
  -8   0   4 64.9606 1.08765  -2
   4   0   4 64.9606 1.08765   1
 -10   0   4 2750.50 33.7536  -2
   6   0   4 2750.50 33.7536   1
 -12   0   4 153.622 2.36708  -2
   8   0   4 153.622 2.36708   1
 -14   0   4 1447.55 25.1171  -2
  10   0   4 1447.55 25.1171   1
 -16   0   4 41.8369 1.36964  -2
  12   0   4 41.8369 1.36964   1
 -18   0   4 417.165 9.64054  -2
  14   0   4 417.165 9.64054   1
 -20   0   4 470.710 11.1088  -2
  16   0   4 470.710 11.1088   1
 -22   0   4 160.402 4.73634  -2
  18   0   4 160.402 4.73634   1
 -24   0   4 190.702 5.79198  -2
  20   0   4 190.702 5.79198   1
 -26   0   4 11.5075 1.74798  -2
  22   0   4 11.5075 1.74798   1
  23   1   4 3.14704 1.33989  -2
 -27   1   4 3.14704 1.33989   1
  21   1   4 63.4755 1.86903  -2
 -25   1   4 63.4755 1.86903   1
  19   1   4 61.2068 1.58974  -2
 -23   1   4 61.2068 1.58974   1
  17   1   4 20.1141 0.88658  -2
 -21   1   4 20.1141 0.88658   1
  15   1   4 19.1002 0.72308  -2
 -19   1   4 19.1002 0.72308   1
  13   1   4 89.1791 1.15556  -2
 -17   1   4 89.1791 1.15556   1
  11   1   4 109.258 1.17193  -2
 -15   1   4 109.258 1.17193   1
   9   1   4 16.0643 0.29880  -2
 -13   1   4 16.0643 0.29880   1
   7   1   4 8.56282 0.22628  -2
 -11   1   4 8.56282 0.22628   1
   5   1   4 78.3394 0.69474  -2
  -9   1   4 78.3394 0.69474   1
   3   1   4 93.1985 0.77354  -2
  -7   1   4 93.1985 0.77354   1
   1   1   4 4.89352 0.14779  -2
  -5   1   4 4.89352 0.14779   1
  -5   1   4 2.52487 0.38847   1
  -1   1   4 8.07554 0.26872  -2
  -3   1   4 8.07554 0.26872   1
  -3   1   4 7.37599 0.32119   1
  -3   1   4 3.20603 0.16700  -2
  -1   1   4 3.20603 0.16700   1
  -5   1   4 11.3508 0.28382  -2
   1   1   4 11.3508 0.28382   1
  -7   1   4 180.852 1.98866  -2
   3   1   4 180.852 1.98866   1
  -9   1   4 85.5355 1.21334  -2
   5   1   4 85.5355 1.21334   1
 -11   1   4 3.19823 0.29135  -2
   7   1   4 3.19823 0.29135   1
 -13   1   4 11.6520 0.42332  -2
   9   1   4 11.6520 0.42332   1
 -15   1   4 33.8827 0.93946  -2
  11   1   4 33.8827 0.93946   1
 -17   1   4 95.9951 1.89435  -2
  13   1   4 95.9951 1.89435   1
 -19   1   4 26.2964 1.20582  -2
  15   1   4 26.2964 1.20582   1
 -21   1   4 36.0255 1.45225  -2
  17   1   4 36.0255 1.45225   1
 -23   1   4 97.0200 2.57749  -2
  19   1   4 97.0200 2.57749   1
 -25   1   4 26.3209 1.41633  -2
  21   1   4 26.3209 1.41633   1
 -27   1   4 2.69549 1.51326  -2
  23   1   4 2.69549 1.51326   1
  22   2   4 9.39108 1.45350  -2
 -26   2   4 9.39108 1.45350   1
  20   2   4 121.519 2.77239  -2
 -24   2   4 121.519 2.77239   1
  18   2   4 137.179 2.47755  -2
 -22   2   4 137.179 2.47755   1
  16   2   4 33.6952 0.95035  -2
 -20   2   4 33.6952 0.95035   1
  14   2   4 818.683 8.54506  -2
 -18   2   4 818.683 8.54506   1
  12   2   4 117.448 1.37218  -2
 -16   2   4 117.448 1.37218   1
  10   2   4 1581.89 12.7810  -2
 -14   2   4 1581.89 12.7810   1
   8   2   4 171.815 1.43292  -2
 -12   2   4 171.815 1.43292   1
   6   2   4 4090.61 29.8059  -2
 -10   2   4 4090.61 29.8059   1
   4   2   4 151.906 1.28070  -2
  -8   2   4 151.906 1.28070   1
   2   2   4 4069.56 29.0366  -2
  -6   2   4 4069.56 29.0366   1
   0   2   4 334.635 3.19100  -2
  -4   2   4 334.635 3.19100   1
  -4   2   4 286.307 8.51341   1
  -2   2   4 9815.14 112.360  -2
  -2   2   4 9815.14 112.360   1
  -2   2   4 8433.13 242.034   1
  -4   2   4 186.429 2.14846  -2
   0   2   4 186.429 2.14846   1
   0   2   4 108.180 3.44738   1
  -6   2   4 4047.57 46.7880  -2
   2   2   4 4047.57 46.7880   1
  -8   2   4 50.8534 0.74148  -2
   4   2   4 50.8534 0.74148   1
 -10   2   4 3757.94 42.1998  -2
   6   2   4 3757.94 42.1998   1
 -12   2   4 46.8351 0.91702  -2
   8   2   4 46.8351 0.91702   1
 -14   2   4 1016.76 12.6515  -2
  10   2   4 1016.76 12.6515   1
 -16   2   4 241.890 3.83984  -2
  12   2   4 241.890 3.83984   1
 -18   2   4 454.454 6.65697  -2
  14   2   4 454.454 6.65697   1
 -20   2   4 113.589 2.63712  -2
  16   2   4 113.589 2.63712   1
 -22   2   4 116.284 2.74676  -2
  18   2   4 116.284 2.74676   1
 -24   2   4 375.967 6.83564  -2
  20   2   4 375.967 6.83564   1
 -26   2   4 10.6018 1.44839  -2
  22   2   4 10.6018 1.44839   1
  21   3   4 29.0978 1.68573  -2
 -25   3   4 29.0978 1.68573   1
  19   3   4 37.0395 1.72134  -2
 -23   3   4 37.0395 1.72134   1
  17   3   4 40.4376 1.17288  -2
 -21   3   4 40.4376 1.17288   1
  15   3   4 24.3943 0.74035  -2
 -19   3   4 24.3943 0.74035   1
  13   3   4 51.3136 0.93541  -2
 -17   3   4 51.3136 0.93541   1
  11   3   4 158.329 1.63495  -2
 -15   3   4 158.329 1.63495   1
   9   3   4 69.5073 0.84686  -2
 -13   3   4 69.5073 0.84686   1
   7   3   4 52.5880 0.57624  -2
 -11   3   4 52.5880 0.57624   1
   5   3   4 49.0883 0.56325  -2
  -9   3   4 49.0883 0.56325   1
   3   3   4 118.842 1.07927  -2
  -7   3   4 118.842 1.07927   1
  -5   3   4 94.8787 2.94899   1
   1   3   4 136.372 1.28785  -2
  -5   3   4 136.372 1.28785   1
  -1   3   4 45.2756 0.59862  -2
  -3   3   4 45.2756 0.59862   1
  -3   3   4 145.164 1.71358  -2
  -1   3   4 145.164 1.71358   1
  -1   3   4 141.159 4.54691   1
  -5   3   4 220.710 2.03881  -2
   1   3   4 220.710 2.03881   1
  -7   3   4 281.292 2.98108  -2
   3   3   4 281.292 2.98108   1
  -9   3   4 93.9879 1.16515  -2
   5   3   4 93.9879 1.16515   1
 -11   3   4 78.0557 1.32800  -2
   7   3   4 78.0557 1.32800   1
 -13   3   4 88.6579 1.41630  -2
   9   3   4 88.6579 1.41630   1
 -15   3   4 105.604 1.83191  -2
  11   3   4 105.604 1.83191   1
 -17   3   4 25.7069 1.00322  -2
  13   3   4 25.7069 1.00322   1
 -19   3   4 38.0842 1.28723  -2
  15   3   4 38.0842 1.28723   1
 -21   3   4 24.2189 1.25989  -2
  17   3   4 24.2189 1.25989   1
 -23   3   4 62.3010 2.07885  -2
  19   3   4 62.3010 2.07885   1
 -25   3   4 48.5974 1.97190  -2
  21   3   4 48.5974 1.97190   1
  22   4   4 63.0388 2.41170  -2
 -26   4   4 63.0388 2.41170   1
  20   4   4 28.1045 1.64319  -2
 -24   4   4 28.1045 1.64319   1
  18   4   4 105.913 2.53994  -2
 -22   4   4 105.913 2.53994   1
  16   4   4 59.8493 1.45448  -2
 -20   4   4 59.8493 1.45448   1
  14   4   4 379.256 4.54961  -2
 -18   4   4 379.256 4.54961   1
  12   4   4 59.3624 0.89256  -2
 -16   4   4 59.3624 0.89256   1
  10   4   4 1822.31 15.2583  -2
 -14   4   4 1822.31 15.2583   1
   8   4   4 27.7034 0.47281  -2
 -12   4   4 27.7034 0.47281   1
   6   4   4 2089.74 16.2370  -2
 -10   4   4 2089.74 16.2370   1
   4   4   4 316.617 2.71291  -2
  -8   4   4 316.617 2.71291   1
   2   4   4 4528.55 37.5852  -2
  -6   4   4 4528.55 37.5852   1
   0   4   4 200.111 1.98826  -2
  -4   4   4 200.111 1.98826   1
  -2   4   4 3755.57 34.0329  -2
  -2   4   4 3755.57 34.0329   1
  -4   4   4 68.1069 0.89099  -2
   0   4   4 68.1069 0.89099   1
  -6   4   4 4794.74 39.8914  -2
   2   4   4 4794.74 39.8914   1
  -8   4   4 95.6753 1.18942  -2
   4   4   4 95.6753 1.18942   1
 -10   4   4 1538.66 16.3853  -2
   6   4   4 1538.66 16.3853   1
 -12   4   4 56.5612 1.13533  -2
   8   4   4 56.5612 1.13533   1
 -14   4   4 1305.87 16.0848  -2
  10   4   4 1305.87 16.0848   1
 -16   4   4 82.5778 1.73201  -2
  12   4   4 82.5778 1.73201   1
 -18   4   4 336.515 5.13388  -2
  14   4   4 336.515 5.13388   1
 -20   4   4 238.655 4.55181  -2
  16   4   4 238.655 4.55181   1
 -22   4   4 59.3784 2.17464  -2
  18   4   4 59.3784 2.17464   1
 -24   4   4 111.295 3.31859  -2
  20   4   4 111.295 3.31859   1
 -26   4   4 17.7500 1.83220  -2
  22   4   4 17.7500 1.83220   1
  21   5   4 8.95204 1.40339  -2
 -25   5   4 8.95204 1.40339   1
  19   5   4 57.7152 2.17086  -2
 -23   5   4 57.7152 2.17086   1
  17   5   4 4.21554 0.99443  -2
 -21   5   4 4.21554 0.99443   1
  15   5   4 12.5250 0.74126  -2
 -19   5   4 12.5250 0.74126   1
  13   5   4 65.9371 1.18606  -2
 -17   5   4 65.9371 1.18606   1
  11   5   4 44.8667 0.80936  -2
 -15   5   4 44.8667 0.80936   1
   9   5   4 25.1067 0.59985  -2
 -13   5   4 25.1067 0.59985   1
   7   5   4 99.5664 1.11866  -2
 -11   5   4 99.5664 1.11866   1
   5   5   4 39.1998 0.55729  -2
  -9   5   4 39.1998 0.55729   1
   3   5   4 86.2929 0.91520  -2
  -7   5   4 86.2929 0.91520   1
   1   5   4 64.6905 0.71793  -2
  -5   5   4 64.6905 0.71793   1
  -1   5   4 31.1157 0.47986  -2
  -3   5   4 31.1157 0.47986   1
  -3   5   4 46.1688 0.64565  -2
  -1   5   4 46.1688 0.64565   1
  -5   5   4 43.2881 0.62789  -2
   1   5   4 43.2881 0.62789   1
  -7   5   4 106.783 1.25948  -2
   3   5   4 106.783 1.25948   1
  -9   5   4 32.6808 0.68843  -2
   5   5   4 32.6808 0.68843   1
 -11   5   4 41.4636 0.97127  -2
   7   5   4 41.4636 0.97127   1
 -13   5   4 19.7408 0.77709  -2
   9   5   4 19.7408 0.77709   1
 -15   5   4 175.273 2.75624  -2
  11   5   4 175.273 2.75624   1
 -17   5   4 36.3189 1.18293  -2
  13   5   4 36.3189 1.18293   1
 -19   5   4 41.1874 1.38096  -2
  15   5   4 41.1874 1.38096   1
 -21   5   4 1.75398 0.86956  -2
  17   5   4 1.75398 0.86956   1
 -23   5   4 14.9269 1.17887  -2
  19   5   4 14.9269 1.17887   1
 -25   5   4 26.8219 1.76443  -2
  21   5   4 26.8219 1.76443   1
  20   6   4 127.753 3.46840  -2
 -24   6   4 127.753 3.46840   1
  18   6   4 208.301 4.70084  -2
 -22   6   4 208.301 4.70084   1
  16   6   4 14.0212 0.89502  -2
 -20   6   4 14.0212 0.89502   1
  14   6   4 305.836 4.12054  -2
 -18   6   4 305.836 4.12054   1
  12   6   4 81.0900 1.24063  -2
 -16   6   4 81.0900 1.24063   1
  10   6   4 496.554 4.87954  -2
 -14   6   4 496.554 4.87954   1
   8   6   4 135.052 1.68182  -2
 -12   6   4 135.052 1.68182   1
   6   6   4 2254.84 18.8290  -2
 -10   6   4 2254.84 18.8290   1
   4   6   4 11.8158 0.37226  -2
  -8   6   4 11.8158 0.37226   1
   2   6   4 2429.46 18.7974  -2
  -6   6   4 2429.46 18.7974   1
   0   6   4 130.220 1.29631  -2
  -4   6   4 130.220 1.29631   1
  -2   6   4 2826.60 25.5447  -2
  -2   6   4 2826.60 25.5447   1
  -4   6   4 199.235 1.99021  -2
   0   6   4 199.235 1.99021   1
  -6   6   4 1518.17 14.5074  -2
   2   6   4 1518.17 14.5074   1
  -8   6   4 27.0387 0.60699  -2
   4   6   4 27.0387 0.60699   1
 -10   6   4 1696.17 18.1797  -2
   6   6   4 1696.17 18.1797   1
 -12   6   4 43.4125 1.09187  -2
   8   6   4 43.4125 1.09187   1
 -14   6   4 647.316 8.44333  -2
  10   6   4 647.316 8.44333   1
 -16   6   4 191.336 3.06467  -2
  12   6   4 191.336 3.06467   1
 -18   6   4 339.111 5.34485  -2
  14   6   4 339.111 5.34485   1
 -20   6   4 66.2650 2.02062  -2
  16   6   4 66.2650 2.02062   1
 -22   6   4 55.2983 1.83062  -2
  18   6   4 55.2983 1.83062   1
 -24   6   4 105.364 3.14178  -2
  20   6   4 105.364 3.14178   1
  19   7   4 53.7498 2.20074  -2
 -23   7   4 53.7498 2.20074   1
  17   7   4 8.74784 1.25947  -2
 -21   7   4 8.74784 1.25947   1
  15   7   4 29.7794 1.16970  -2
 -19   7   4 29.7794 1.16970   1
  13   7   4 11.5873 0.80585  -2
 -17   7   4 11.5873 0.80585   1
  11   7   4 47.3176 0.97955  -2
 -15   7   4 47.3176 0.97955   1
   9   7   4 73.9246 1.21396  -2
 -13   7   4 73.9246 1.21396   1
   7   7   4 63.9768 0.95764  -2
 -11   7   4 63.9768 0.95764   1
   5   7   4 89.6526 1.04916  -2
  -9   7   4 89.6526 1.04916   1
   3   7   4 190.278 1.75230  -2
  -7   7   4 190.278 1.75230   1
   1   7   4 156.421 1.55199  -2
  -5   7   4 156.421 1.55199   1
  -1   7   4 144.573 1.57709  -2
  -3   7   4 144.573 1.57709   1
  -3   7   4 88.7973 1.13064  -2
  -1   7   4 88.7973 1.13064   1
  -5   7   4 93.5719 1.24304  -2
   1   7   4 93.5719 1.24304   1
  -7   7   4 67.4598 1.05609  -2
   3   7   4 67.4598 1.05609   1
  -9   7   4 34.8668 0.72255  -2
   5   7   4 34.8668 0.72255   1
 -11   7   4 192.308 2.72375  -2
   7   7   4 192.308 2.72375   1
 -13   7   4 62.6024 1.44428  -2
   9   7   4 62.6024 1.44428   1
 -15   7   4 197.556 3.45328  -2
  11   7   4 197.556 3.45328   1
 -17   7   4 36.9862 1.38991  -2
  13   7   4 36.9862 1.38991   1
 -19   7   4 18.8177 1.23219  -2
  15   7   4 18.8177 1.23219   1
 -21   7   4 34.4675 1.64419  -2
  17   7   4 34.4675 1.64419   1
 -23   7   4 11.2649 1.41761  -2
  19   7   4 11.2649 1.41761   1
 -22   8   4 96.9266 3.68648   1
  18   8   4 100.600 4.69643  -2
 -22   8   4 100.600 4.69643   1
  16   8   4 40.4039 1.82707  -2
 -20   8   4 40.4039 1.82707   1
  14   8   4 268.193 5.57808  -2
 -18   8   4 268.193 5.57808   1
  12   8   4 32.1553 1.15281  -2
 -16   8   4 32.1553 1.15281   1
  10   8   4 418.611 4.96466  -2
 -14   8   4 418.611 4.96466   1
   8   8   4 133.437 1.83367  -2
 -12   8   4 133.437 1.83367   1
   6   8   4 675.436 6.76212  -2
 -10   8   4 675.436 6.76212   1
   4   8   4 56.9130 0.89224  -2
  -8   8   4 56.9130 0.89224   1
   2   8   4 1962.01 15.9041  -2
  -6   8   4 1962.01 15.9041   1
   0   8   4 49.9626 0.74084  -2
  -4   8   4 49.9626 0.74084   1
  -2   8   4 1154.73 10.7323  -2
  -2   8   4 1154.73 10.7323   1
  -4   8   4 193.805 2.35880  -2
   0   8   4 193.805 2.35880   1
  -6   8   4 1036.55 10.6561  -2
   2   8   4 1036.55 10.6561   1
  -8   8   4 62.1307 1.19809  -2
   4   8   4 62.1307 1.19809   1
 -10   8   4 735.119 10.4452  -2
   6   8   4 735.119 10.4452   1
 -12   8   4 78.9179 1.72265  -2
   8   8   4 78.9179 1.72265   1
 -14   8   4 610.661 9.99707  -2
  10   8   4 610.661 9.99707   1
 -16   8   4 30.1187 1.56119  -2
  12   8   4 30.1187 1.56119   1
 -18   8   4 102.845 2.89420  -2
  14   8   4 102.845 2.89420   1
 -20   8   4 43.3575 2.00128  -2
  16   8   4 43.3575 2.00128   1
 -22   8   4 41.0713 3.27101  -2
  18   8   4 41.0713 3.27101   1
  15   9   4 52.1917 2.06216  -2
 -19   9   4 52.1917 2.06216   1
  13   9   4 6.31197 1.10818  -2
 -17   9   4 6.31197 1.10818   1
  11   9   4 36.4232 1.28116  -2
 -15   9   4 36.4232 1.28116   1
   9   9   4 23.6693 0.87299  -2
 -13   9   4 23.6693 0.87299   1
   7   9   4 65.5010 1.37969  -2
 -11   9   4 65.5010 1.37969   1
   5   9   4 3.88813 0.59836  -2
  -9   9   4 3.88813 0.59836   1
   3   9   4 107.852 1.63140  -2
  -7   9   4 107.852 1.63140   1
   1   9   4 88.2710 1.27211  -2
  -5   9   4 88.2710 1.27211   1
  -1   9   4 4.80315 0.41778  -2
  -3   9   4 4.80315 0.41778   1
  -3   9   4 9.77891 0.56801  -2
  -1   9   4 9.77891 0.56801   1
  -5   9   4 49.3304 0.98933  -2
   1   9   4 49.3304 0.98933   1
  -7   9   4 167.853 2.40749  -2
   3   9   4 167.853 2.40749   1
  -9   9   4 9.16424 0.76999  -2
   5   9   4 9.16424 0.76999   1
 -11   9   4 110.153 2.23131  -2
   7   9   4 110.153 2.23131   1
 -13   9   4 22.3015 1.02039  -2
   9   9   4 22.3015 1.02039   1
 -15   9   4 31.3598 1.60063  -2
  11   9   4 31.3598 1.60063   1
 -17   9   4 15.8484 1.64498  -2
  13   9   4 15.8484 1.64498   1
 -19   9   4 45.0065 2.04228  -2
  15   9   4 45.0065 2.04228   1
  14  10   4 159.060 6.74501  -2
 -18  10   4 159.060 6.74501   1
  12  10   4 9.64160 2.17407  -2
 -16  10   4 9.64160 2.17407   1
  10  10   4 427.884 9.81522  -2
 -14  10   4 427.884 9.81522   1
   8  10   4 15.3614 1.44446  -2
 -12  10   4 15.3614 1.44446   1
   6  10   4 438.593 6.57393  -2
 -10  10   4 438.593 6.57393   1
   4  10   4 160.290 2.63059  -2
  -8  10   4 160.290 2.63059   1
   2  10   4 370.418 5.17315  -2
  -6  10   4 370.418 5.17315   1
   0  10   4 173.335 2.76445  -2
  -4  10   4 173.335 2.76445   1
  -2  10   4 777.591 10.0532  -2
  -2  10   4 777.591 10.0532   1
  -4  10   4 43.2343 1.02078  -2
   0  10   4 43.2343 1.02078   1
  -6  10   4 783.109 9.31154  -2
   2  10   4 783.109 9.31154   1
  -8  10   4 41.2693 1.16465  -2
   4  10   4 41.2693 1.16465   1
 -10  10   4 406.814 6.88143  -2
   6  10   4 406.814 6.88143   1
 -12  10   4 21.9609 1.08334  -2
   8  10   4 21.9609 1.08334   1
 -14  10   4 127.720 3.95470  -2
  10  10   4 127.720 3.95470   1
 -16  10   4 2.01232 1.35996  -2
  12  10   4 2.01232 1.35996   1
 -18  10   4 101.626 3.64963  -2
  14  10   4 101.626 3.64963   1
  11  11   4 65.3053 3.90428  -2
 -15  11   4 65.3053 3.90428   1
   9  11   4 9.72287 1.31927  -2
 -13  11   4 9.72287 1.31927   1
   7  11   4 68.9657 2.63421  -2
 -11  11   4 68.9657 2.63421   1
   5  11   4 49.1349 2.20083  -2
  -9  11   4 49.1349 2.20083   1
   3  11   4 32.7750 1.34632  -2
  -7  11   4 32.7750 1.34632   1
   1  11   4 10.9506 0.76172  -2
  -5  11   4 10.9506 0.76172   1
  -1  11   4 41.6756 1.35752  -2
  -3  11   4 41.6756 1.35752   1
  -3  11   4 104.247 1.99356  -2
  -1  11   4 104.247 1.99356   1
  -5  11   4 18.5945 1.19284  -2
   1  11   4 18.5945 1.19284   1
  -7  11   4 100.978 2.63386  -2
   3  11   4 100.978 2.63386   1
  -9  11   4 53.1868 1.83506  -2
   5  11   4 53.1868 1.83506   1
 -11  11   4 59.5368 2.51174  -2
   7  11   4 59.5368 2.51174   1
 -13  11   4 20.6975 1.72937  -2
   9  11   4 20.6975 1.72937   1
 -15  11   4 33.7877 2.08041  -2
  11  11   4 33.7877 2.08041   1
   6  12   4 232.553 6.06739  -2
 -10  12   4 232.553 6.06739   1
   4  12   4 114.765 3.65678  -2
  -8  12   4 114.765 3.65678   1
   2  12   4 170.694 4.76211  -2
  -6  12   4 170.694 4.76211   1
   0  12   4 135.218 4.00094  -2
  -4  12   4 135.218 4.00094   1
  -2  12   4 246.306 6.21916  -2
  -2  12   4 246.306 6.21916   1
  -4  12   4 34.3208 1.53123  -2
   0  12   4 34.3208 1.53123   1
  -6  12   4 450.305 10.8199  -2
   2  12   4 450.305 10.8199   1
  -8  12   4 24.2541 1.89733  -2
   4  12   4 24.2541 1.89733   1
 -10  12   4 123.037 3.13175  -2
   6  12   4 123.037 3.13175   1
  -3  13   4 16.9531 1.52992   1
 -26   0   5 -0.8833 0.78637   1
 -24   0   5 -0.1029 0.71888   1
 -22   0   5 0.48285 0.66637   1
 -20   0   5 0.79065 0.40544   1
 -18   0   5 0.41971 0.27887   1
 -16   0   5 0.57543 0.27975   1
 -14   0   5 0.47323 0.19172   1
 -12   0   5 0.67842 0.16141   1
 -10   0   5 0.31808 0.12757   1
  -8   0   5 0.43931 0.11790   1
  -6   0   5 0.41205 0.10165   1
  -4   0   5 0.18844 0.16232   1
  -2   0   5 0.27126 0.17632   1
   0   0   5 1.60797 0.20310   1
   2   0   5 0.36702 0.19309   1
   4   0   5 0.35815 0.19771   1
   6   0   5 0.27634 0.18599   1
   8   0   5 0.42707 0.25323   1
  10   0   5 0.39961 0.41144   1
  12   0   5 0.36157 0.60361   1
  14   0   5 -0.7116 0.62648   1
  16   0   5 0.45834 0.75194   1
  18   0   5 -0.1124 0.89054   1
  20   0   5 0.01595 0.92538   1
  22   0   5 0.77558 1.42383   1
 -27   1   5 425.874 8.46607   1
 -25   1   5 22.3087 1.21695   1
 -23   1   5 604.567 8.06840   1
 -21   1   5 14.9031 0.63293   1
 -19   1   5 905.672 7.89204   1
 -17   1   5 22.0203 0.45232   1
 -15   1   5 1133.26 8.14198   1
 -13   1   5 49.4680 0.52150   1
 -11   1   5 567.419 4.13243   1
  -9   1   5 105.172 0.87687   1
  -7   1   5 572.064 4.03362   1
  -5   1   5 1035.82 7.89432   1
  -3   1   5 577.179 5.99338   1
  -1   1   5 1826.62 19.7761   1
   1   1   5 16.4214 0.33674   1
   3   1   5 651.562 5.79225   1
   5   1   5 163.122 1.84897   1
   7   1   5 683.816 7.95172   1
   9   1   5 22.3410 0.54305   1
  11   1   5 649.809 9.11587   1
  13   1   5 3.21581 0.50172   1
  15   1   5 208.862 4.02106   1
  17   1   5 42.0784 1.58586   1
  19   1   5 34.0513 1.57681   1
  21   1   5 10.3925 1.21062   1
 -26   2   5 58.9138 2.11032   1
 -24   2   5 90.5219 2.56864   1
 -22   2   5 69.4627 1.45314   1
 -20   2   5 1.48066 0.33131   1
 -18   2   5 13.6261 0.47696   1
 -16   2   5 115.649 1.17753   1
 -14   2   5 30.8271 0.42578   1
 -12   2   5 1.51687 0.14354   1
 -10   2   5 170.626 1.36538   1
  -8   2   5 144.642 1.18449   1
  -6   2   5 224.797 1.65955   1
  -4   2   5 111.320 1.06525   1
  -2   2   5 11.8691 0.27956   1
   0   2   5 85.8585 1.09802   1
   2   2   5 118.415 1.47820   1
   4   2   5 36.3631 0.60607   1
   6   2   5 14.9202 0.45993   1
   8   2   5 76.9883 1.34741   1
  10   2   5 127.825 2.04652   1
  12   2   5 150.845 2.66437   1
  14   2   5 0.98634 0.46313   1
  16   2   5 6.29003 0.83896   1
  18   2   5 67.0834 2.09588   1
  20   2   5 28.6342 1.50805   1
  22   2   5 9.78956 1.62822   1
 -27   3   5 332.243 6.91618   1
 -25   3   5 2.12156 0.66791   1
 -23   3   5 769.789 11.0209   1
 -21   3   5 5.59406 0.56878   1
 -19   3   5 711.257 7.17840   1
 -17   3   5 28.3605 0.54427   1
 -15   3   5 391.012 3.40375   1
 -13   3   5 13.0155 0.28903   1
 -11   3   5 1215.32 8.71555   1
  -9   3   5 618.009 4.49111   1
  -7   3   5 727.689 5.25768   1
  -5   3   5 517.179 4.26970   1
  -3   3   5 32.5528 0.48876   1
  -1   3   5 271.233 2.70311   1
   1   3   5 8.98102 0.26240   1
   3   3   5 1325.44 13.2717   1
   5   3   5 20.3146 0.42862   1
   7   3   5 764.411 8.29949   1
   9   3   5 31.3985 0.84906   1
  11   3   5 318.309 4.46168   1
  13   3   5 69.6207 1.64007   1
  15   3   5 149.596 2.84651   1
  17   3   5 5.56486 0.83387   1
  19   3   5 61.8196 2.08496   1
  21   3   5 19.2342 1.66784   1
 -26   4   5 3.29137 0.90760   1
 -24   4   5 2.34005 0.65718   1
 -22   4   5 42.1948 1.31603   1
 -20   4   5 14.8959 0.67008   1
 -18   4   5 54.1702 0.96664   1
 -16   4   5 4.33662 0.32910   1
 -14   4   5 37.9547 0.56073   1
 -12   4   5 27.9125 0.40772   1
 -10   4   5 5.18271 0.22762   1
  -8   4   5 44.2889 0.49594   1
  -6   4   5 246.626 2.32760   1
  -4   4   5 65.0789 0.81555   1
  -2   4   5 82.2802 0.94508   1
   0   4   5 29.4538 0.42381   1
   2   4   5 40.8756 0.59660   1
   4   4   5 8.71499 0.33566   1
   6   4   5 3.31919 0.30111   1
   8   4   5 108.301 1.77479   1
  10   4   5 0.85483 0.31961   1
  12   4   5 54.0346 1.43158   1
  14   4   5 1.68143 0.52684   1
  16   4   5 5.15717 0.73271   1
  18   4   5 26.2506 1.60680   1
  20   4   5 8.50889 1.23770   1
 -25   5   5 58.6771 2.12268   1
 -23   5   5 322.767 6.56138   1
 -21   5   5 12.4499 0.73743   1
 -19   5   5 541.236 6.72126   1
 -17   5   5 9.75963 0.40842   1
 -15   5   5 834.356 7.86238   1
 -13   5   5 54.5417 0.75076   1
 -11   5   5 378.616 3.06154   1
  -9   5   5 93.3626 0.95065   1
  -7   5   5 377.359 3.21207   1
  -5   5   5 186.832 1.82558   1
  -3   5   5 19.2339 0.37943   1
  -1   5   5 505.606 4.55182   1
   1   5   5 16.9785 0.36119   1
   3   5   5 553.332 6.14731   1
   5   5   5 3.08745 0.31583   1
   7   5   5 744.149 9.44656   1
   9   5   5 39.7972 1.00142   1
  11   5   5 122.879 2.11060   1
  13   5   5 58.8356 1.49603   1
  15   5   5 92.6385 2.06635   1
  17   5   5 23.6333 1.53844   1
  19   5   5 81.1912 2.79303   1
 -24   6   5 10.2979 1.19197   1
 -22   6   5 8.11825 1.01752   1
 -20   6   5 2.27041 0.50337   1
 -18   6   5 177.330 2.62715   1
 -16   6   5 32.5090 0.68447   1
 -14   6   5 107.239 1.36655   1
 -12   6   5 23.3564 0.49698   1
 -10   6   5 98.1287 1.02334   1
  -8   6   5 21.7147 0.40442   1
  -6   6   5 4.55931 0.23998   1
  -4   6   5 17.3050 0.39646   1
  -2   6   5 45.5097 0.66231   1
   0   6   5 71.5076 0.92287   1
   2   6   5 200.057 2.21071   1
   4   6   5 304.493 3.41361   1
   6   6   5 2.72430 0.40826   1
   8   6   5 2.34570 0.39678   1
  10   6   5 78.0122 1.59074   1
  12   6   5 1.73638 0.46792   1
  14   6   5 29.4016 1.17042   1
  16   6   5 117.377 2.78173   1
  18   6   5 29.1905 1.43039   1
 -23   7   5 143.387 3.63853   1
 -21   7   5 94.7958 2.68094   1
 -19   7   5 378.905 5.76612   1
 -17   7   5 41.7291 0.92907   1
 -15   7   5 650.473 6.93997   1
 -13   7   5 51.0867 0.89648   1
 -11   7   5 360.289 3.47658   1
  -9   7   5 5.41941 0.26660   1
  -7   7   5 2.82825 0.24108   1
  -5   7   5 56.9783 0.78211   1
  -3   7   5 162.536 1.80874   1
  -1   7   5 468.123 4.53029   1
   1   7   5 67.6682 1.00764   1
   3   7   5 529.573 5.63973   1
   5   7   5 23.8603 0.70045   1
   7   7   5 70.8265 1.47703   1
   9   7   5 57.0607 1.44929   1
  11   7   5 171.923 3.12511   1
  13   7   5 33.4161 1.35621   1
  15   7   5 86.5107 2.32068   1
  17   7   5 2.49924 0.72812   1
 -22   8   5 34.3860 1.61738   1
 -20   8   5 2.82217 0.77893   1
 -18   8   5 21.8464 1.25664   1
 -16   8   5 5.84998 0.50784   1
 -14   8   5 229.664 2.80596   1
 -12   8   5 31.7119 0.71986   1
 -10   8   5 102.046 1.39685   1
  -8   8   5 13.9910 0.44182   1
  -6   8   5 25.1588 0.55479   1
  -4   8   5 17.8687 0.47917   1
  -2   8   5 29.1134 0.63896   1
   0   8   5 155.464 1.97695   1
   2   8   5 53.7982 1.00708   1
   4   8   5 75.1333 1.49424   1
   6   8   5 10.2217 0.62321   1
   8   8   5 47.2698 1.34326   1
  10   8   5 53.5322 1.49355   1
  12   8   5 24.1731 1.22906   1
  14   8   5 4.85744 0.79816   1
  16   8   5 31.7075 1.51807   1
 -19   9   5 168.420 3.95785   1
 -17   9   5 41.7423 1.58238   1
 -15   9   5 179.073 3.11987   1
 -13   9   5 3.08102 0.45039   1
 -11   9   5 131.866 2.24599   1
  -9   9   5 26.8232 0.74479   1
  -7   9   5 160.485 2.13572   1
  -5   9   5 41.6874 0.79559   1
  -3   9   5 8.36195 0.50911   1
  -1   9   5 142.576 1.98705   1
   1   9   5 8.69283 0.50585   1
   3   9   5 84.7934 1.57883   1
   5   9   5 18.0455 0.81687   1
   7   9   5 124.223 2.36687   1
   9   9   5 30.5516 1.41913   1
  11   9   5 81.1785 2.18175   1
  13   9   5 0.65332 0.68681   1
  15   9   5 91.3408 3.35246   1
 -18  10   5 73.0993 4.01822   1
 -16  10   5 1.38317 0.76771   1
 -14  10   5 58.4243 2.25496   1
 -12  10   5 5.02903 0.61287   1
 -10  10   5 82.3485 1.65003   1
  -8  10   5 5.47341 0.57833   1
  -6  10   5 92.7805 1.65258   1
  -4  10   5 100.477 1.87007   1
  -2  10   5 56.9880 1.16205   1
   0  10   5 4.97412 0.48900   1
   2  10   5 6.33329 0.50292   1
   4  10   5 19.4254 0.96011   1
   6  10   5 3.46069 0.61048   1
   8  10   5 104.484 2.87858   1
  10  10   5 26.7822 1.71711   1
  12  10   5 91.3661 2.81666   1
 -15  11   5 9.29816 1.24207   1
 -13  11   5 73.4343 2.66409   1
 -11  11   5 68.2469 2.55295   1
  -9  11   5 38.2791 1.60630   1
  -7  11   5 180.864 3.15165   1
  -5  11   5 128.808 2.69326   1
  -3  11   5 28.8550 1.05049   1
  -1  11   5 3.50679 0.48687   1
   1  11   5 91.8268 2.03943   1
   3  11   5 8.85298 0.98107   1
   5  11   5 9.50836 1.25374   1
   7  11   5 113.100 3.64693   1
   9  11   5 12.7644 1.48314   1
 -12  12   5 0.78590 0.79837   1
 -10  12   5 55.2232 2.34136   1
  -8  12   5 29.9875 1.73829   1
  -6  12   5 77.2561 2.80494   1
  -4  12   5 16.2736 1.38220   1
  -2  12   5 23.5128 1.32674   1
   0  12   5 30.2007 1.44783   1
   2  12   5 5.14526 1.18030   1
   4  12   5 27.0277 1.37154   1
   6  12   5 1.62444 0.85835   1
 -28   0   6 2.29863 1.43256   1
  20   0   6 52.1101 3.45167  -2
 -26   0   6 52.1101 3.45167   1
  18   0   6 8.31271 2.06506  -2
 -24   0   6 8.31271 2.06506   1
  16   0   6 101.410 2.48851  -2
 -22   0   6 101.410 2.48851   1
  14   0   6 138.393 2.15978  -2
 -20   0   6 138.393 2.15978   1
  12   0   6 43.6494 1.00814  -2
 -18   0   6 43.6494 1.00814   1
  10   0   6 289.247 3.23868  -2
 -16   0   6 289.247 3.23868   1
   8   0   6 50.4786 0.83608  -2
 -14   0   6 50.4786 0.83608   1
   6   0   6 39.2251 0.70807  -2
 -12   0   6 39.2251 0.70807   1
   4   0   6 529.509 5.81016  -2
 -10   0   6 529.509 5.81016   1
   2   0   6 23.8596 0.47091  -2
  -8   0   6 23.8596 0.47091   1
   0   0   6 264.870 3.85564  -2
  -6   0   6 264.870 3.85564   1
  -6   0   6 170.798 3.02117   1
  -2   0   6 1006.75 17.9326  -2
  -4   0   6 1006.75 17.9326   1
  -4   0   6 845.692 25.9658   1
  -4   0   6 906.305 16.1635  -2
  -2   0   6 906.305 16.1635   1
  -6   0   6 338.758 4.82393  -2
   0   0   6 338.758 4.82393   1
  -8   0   6 16.7677 0.82200  -2
   2   0   6 16.7677 0.82200   1
 -10   0   6 388.249 6.20878  -2
   4   0   6 388.249 6.20878   1
 -12   0   6 19.9593 0.72189  -2
   6   0   6 19.9593 0.72189   1
 -14   0   6 84.4367 1.69367  -2
   8   0   6 84.4367 1.69367   1
 -16   0   6 301.123 5.79667  -2
  10   0   6 301.123 5.79667   1
 -18   0   6 110.162 3.31728  -2
  12   0   6 110.162 3.31728   1
 -20   0   6 190.506 5.20484  -2
  14   0   6 190.506 5.20484   1
 -22   0   6 66.2786 2.64595  -2
  16   0   6 66.2786 2.64595   1
 -24   0   6 22.7467 2.07268  -2
  18   0   6 22.7467 2.07268   1
 -26   0   6 17.5117 1.74376  -2
  20   0   6 17.5117 1.74376   1
  21   1   6 4.94579 1.58433  -2
 -27   1   6 4.94579 1.58433   1
  19   1   6 10.7794 1.55974  -2
 -25   1   6 10.7794 1.55974   1
  17   1   6 79.3630 1.93362  -2
 -23   1   6 79.3630 1.93362   1
  15   1   6 1.72493 0.48744  -2
 -21   1   6 1.72493 0.48744   1
  13   1   6 86.7566 1.13614  -2
 -19   1   6 86.7566 1.13614   1
  11   1   6 44.7695 0.66955  -2
 -17   1   6 44.7695 0.66955   1
   9   1   6 3.32795 0.31604  -2
 -15   1   6 3.32795 0.31604   1
   7   1   6 117.956 1.07519  -2
 -13   1   6 117.956 1.07519   1
   5   1   6 8.72773 0.29157  -2
 -11   1   6 8.72773 0.29157   1
   3   1   6 225.829 1.79004  -2
  -9   1   6 225.829 1.79004   1
   1   1   6 190.715 1.69415  -2
  -7   1   6 190.715 1.69415   1
  -7   1   6 157.589 2.79626   1
  -5   1   6 82.1667 1.59046   1
  -1   1   6 85.7255 1.14626  -2
  -5   1   6 85.7255 1.14626   1
  -3   1   6 3.49266 0.27027  -2
  -3   1   6 3.49266 0.27027   1
  -3   1   6 3.63804 0.64163   1
  -5   1   6 18.9964 0.41821  -2
  -1   1   6 18.9964 0.41821   1
  -7   1   6 153.408 2.64645  -2
   1   1   6 153.408 2.64645   1
  -9   1   6 236.726 2.59482  -2
   3   1   6 236.726 2.59482   1
 -11   1   6 60.0817 1.40700  -2
   5   1   6 60.0817 1.40700   1
 -13   1   6 77.1825 0.96432  -2
   7   1   6 77.1825 0.96432   1
 -15   1   6 3.69095 0.64363  -2
   9   1   6 3.69095 0.64363   1
 -17   1   6 13.6386 0.70626  -2
  11   1   6 13.6386 0.70626   1
 -19   1   6 32.8896 1.14437  -2
  13   1   6 32.8896 1.14437   1
 -21   1   6 6.06301 0.89522  -2
  15   1   6 6.06301 0.89522   1
 -23   1   6 64.9207 1.94306  -2
  17   1   6 64.9207 1.94306   1
 -25   1   6 4.67715 1.09375  -2
  19   1   6 4.67715 1.09375   1
 -27   1   6 0.86651 1.41618  -2
  21   1   6 0.86651 1.41618   1
  20   2   6 22.9579 1.85563  -2
 -26   2   6 22.9579 1.85563   1
  18   2   6 36.5398 1.57355  -2
 -24   2   6 36.5398 1.57355   1
  16   2   6 23.6620 1.12680  -2
 -22   2   6 23.6620 1.12680   1
  14   2   6 55.9692 1.10137  -2
 -20   2   6 55.9692 1.10137   1
  12   2   6 110.341 1.27759  -2
 -18   2   6 110.341 1.27759   1
  10   2   6 32.2732 0.58449  -2
 -16   2   6 32.2732 0.58449   1
   8   2   6 86.7865 1.21002  -2
 -14   2   6 86.7865 1.21002   1
   6   2   6 90.4083 0.89607  -2
 -12   2   6 90.4083 0.89607   1
   4   2   6 46.3230 0.55230  -2
 -10   2   6 46.3230 0.55230   1
   2   2   6 151.862 1.32957  -2
  -8   2   6 151.862 1.32957   1
   0   2   6 15.5204 0.36013  -2
  -6   2   6 15.5204 0.36013   1
  -6   2   6 13.2279 0.34048   1
  -4   2   6 89.1633 1.71808   1
  -2   2   6 93.9669 1.19734  -2
  -4   2   6 93.9669 1.19734   1
  -4   2   6 55.4827 1.01457  -2
  -2   2   6 55.4827 1.01457   1
  -6   2   6 6.05125 0.31388  -2
   0   2   6 6.05125 0.31388   1
  -8   2   6 82.1368 1.17457  -2
   2   2   6 82.1368 1.17457   1
 -10   2   6 109.732 1.86563  -2
   4   2   6 109.732 1.86563   1
 -12   2   6 107.987 1.94278  -2
   6   2   6 107.987 1.94278   1
 -14   2   6 23.4944 0.66425  -2
   8   2   6 23.4944 0.66425   1
 -16   2   6 93.7706 1.85650  -2
  10   2   6 93.7706 1.85650   1
 -18   2   6 100.272 1.98874  -2
  12   2   6 100.272 1.98874   1
 -20   2   6 42.7823 1.42938  -2
  14   2   6 42.7823 1.42938   1
 -22   2   6 26.4185 1.30926  -2
  16   2   6 26.4185 1.30926   1
 -24   2   6 39.9642 1.68607  -2
  18   2   6 39.9642 1.68607   1
 -26   2   6 29.9005 1.61997  -2
  20   2   6 29.9005 1.61997   1
  21   3   6 13.5086 1.79566  -2
 -27   3   6 13.5086 1.79566   1
  19   3   6 8.34728 1.30743  -2
 -25   3   6 8.34728 1.30743   1
  17   3   6 13.5570 1.19130  -2
 -23   3   6 13.5570 1.19130   1
  15   3   6 5.46541 0.69043  -2
 -21   3   6 5.46541 0.69043   1
  13   3   6 15.6427 0.72420  -2
 -19   3   6 15.6427 0.72420   1
  11   3   6 146.753 1.57282  -2
 -17   3   6 146.753 1.57282   1
   9   3   6 145.303 1.53171  -2
 -15   3   6 145.303 1.53171   1
   7   3   6 83.9787 0.87693  -2
 -13   3   6 83.9787 0.87693   1
   5   3   6 30.3900 0.44073  -2
 -11   3   6 30.3900 0.44073   1
   3   3   6 143.224 1.29056  -2
  -9   3   6 143.224 1.29056   1
  -9   3   6 121.050 4.40761   1
   1   3   6 86.3691 0.84763  -2
  -7   3   6 86.3691 0.84763   1
  -1   3   6 186.305 2.05953  -2
  -5   3   6 186.305 2.05953   1
  -5   3   6 105.459 2.53469   1
  -3   3   6 60.5144 0.91566  -2
  -3   3   6 60.5144 0.91566   1
  -3   3   6 44.4453 0.98684   1
  -5   3   6 388.725 4.60972  -2
  -1   3   6 388.725 4.60972   1
  -1   3   6 354.845 7.59273   1
  -7   3   6 88.5466 1.45027  -2
   1   3   6 88.5466 1.45027   1
  -9   3   6 136.434 1.84430  -2
   3   3   6 136.434 1.84430   1
 -11   3   6 73.9640 0.99224  -2
   5   3   6 73.9640 0.99224   1
 -13   3   6 33.3916 0.83986  -2
   7   3   6 33.3916 0.83986   1
 -15   3   6 148.258 2.34644  -2
   9   3   6 148.258 2.34644   1
 -17   3   6 86.9590 1.80505  -2
  11   3   6 86.9590 1.80505   1
 -19   3   6 11.2139 0.89790  -2
  13   3   6 11.2139 0.89790   1
 -21   3   6 13.5244 1.11107  -2
  15   3   6 13.5244 1.11107   1
 -23   3   6 26.0878 1.48406  -2
  17   3   6 26.0878 1.48406   1
 -25   3   6 19.4644 1.44858  -2
  19   3   6 19.4644 1.44858   1
 -27   3   6 25.7505 2.13696  -2
  21   3   6 25.7505 2.13696   1
  20   4   6 10.8799 1.67754  -2
 -26   4   6 10.8799 1.67754   1
  18   4   6 34.8178 1.78715  -2
 -24   4   6 34.8178 1.78715   1
  16   4   6 29.9498 1.12497  -2
 -22   4   6 29.9498 1.12497   1
  14   4   6 7.72866 0.71997  -2
 -20   4   6 7.72866 0.71997   1
  12   4   6 155.691 1.93865  -2
 -18   4   6 155.691 1.93865   1
  10   4   6 4.42777 0.40541  -2
 -16   4   6 4.42777 0.40541   1
   8   4   6 35.5333 0.63116  -2
 -14   4   6 35.5333 0.63116   1
   6   4   6 258.616 2.17070  -2
 -12   4   6 258.616 2.17070   1
   4   4   6 159.338 1.41749  -2
 -10   4   6 159.338 1.41749   1
  -8   4   6 277.377 6.06680   1
   2   4   6 326.645 2.73413  -2
  -8   4   6 326.645 2.73413   1
   0   4   6 10.0119 0.33658  -2
  -6   4   6 10.0119 0.33658   1
  -6   4   6 3.75497 0.26868   1
  -2   4   6 111.719 1.27340  -2
  -4   4   6 111.719 1.27340   1
  -4   4   6 86.7829 3.19030   1
  -2   4   6 91.1889 2.28328   1
  -4   4   6 116.995 1.47713  -2
  -2   4   6 116.995 1.47713   1
  -6   4   6 17.8033 0.45265  -2
   0   4   6 17.8033 0.45265   1
   0   4   6 15.7746 1.01453   1
  -8   4   6 241.055 3.02495  -2
   2   4   6 241.055 3.02495   1
 -10   4   6 213.410 2.55776  -2
   4   4   6 213.410 2.55776   1
 -12   4   6 358.185 4.71116  -2
   6   4   6 358.185 4.71116   1
 -14   4   6 86.6173 1.79530  -2
   8   4   6 86.6173 1.79530   1
 -16   4   6 6.61927 0.71366  -2
  10   4   6 6.61927 0.71366   1
 -18   4   6 54.7703 1.44363  -2
  12   4   6 54.7703 1.44363   1
 -20   4   6 16.8485 1.19049  -2
  14   4   6 16.8485 1.19049   1
 -22   4   6 48.6287 1.81061  -2
  16   4   6 48.6287 1.81061   1
 -24   4   6 14.0777 1.37323  -2
  18   4   6 14.0777 1.37323   1
 -26   4   6 47.9675 2.63277  -2
  20   4   6 47.9675 2.63277   1
  19   5   6 51.5676 2.47009  -2
 -25   5   6 51.5676 2.47009   1
  17   5   6 4.75781 1.20783  -2
 -23   5   6 4.75781 1.20783   1
  15   5   6 22.0512 1.05021  -2
 -21   5   6 22.0512 1.05021   1
  13   5   6 8.06937 0.72763  -2
 -19   5   6 8.06937 0.72763   1
  11   5   6 13.4624 0.60059  -2
 -17   5   6 13.4624 0.60059   1
   9   5   6 58.6386 0.93523  -2
 -15   5   6 58.6386 0.93523   1
   7   5   6 254.032 2.43892  -2
 -13   5   6 254.032 2.43892   1
   5   5   6 50.3297 0.67290  -2
 -11   5   6 50.3297 0.67290   1
   3   5   6 177.897 1.62175  -2
  -9   5   6 177.897 1.62175   1
   1   5   6 7.42152 0.32969  -2
  -7   5   6 7.42152 0.32969   1
  -1   5   6 257.637 2.69339  -2
  -5   5   6 257.637 2.69339   1
  -5   5   6 253.077 8.48654   1
  -3   5   6 40.3524 0.62981  -2
  -3   5   6 40.3524 0.62981   1
  -3   5   6 30.8456 1.59011   1
  -5   5   6 57.6242 0.80551  -2
  -1   5   6 57.6242 0.80551   1
  -7   5   6 18.3021 0.49176  -2
   1   5   6 18.3021 0.49176   1
  -9   5   6 153.371 2.14029  -2
   3   5   6 153.371 2.14029   1
 -11   5   6 16.1624 0.63276  -2
   5   5   6 16.1624 0.63276   1
 -13   5   6 103.086 1.94808  -2
   7   5   6 103.086 1.94808   1
 -15   5   6 80.6648 1.72754  -2
   9   5   6 80.6648 1.72754   1
 -17   5   6 26.6278 1.09418  -2
  11   5   6 26.6278 1.09418   1
 -19   5   6 4.17707 1.02080  -2
  13   5   6 4.17707 1.02080   1
 -21   5   6 14.3681 1.29073  -2
  15   5   6 14.3681 1.29073   1
 -23   5   6 3.80409 1.30225  -2
  17   5   6 3.80409 1.30225   1
 -25   5   6 14.9048 1.70248  -2
  19   5   6 14.9048 1.70248   1
  18   6   6 24.7948 1.87676  -2
 -24   6   6 24.7948 1.87676   1
  16   6   6 108.251 2.99094  -2
 -22   6   6 108.251 2.99094   1
 -22   6   6 100.941 4.22749   1
  14   6   6 9.96691 0.91010  -2
 -20   6   6 9.96691 0.91010   1
  12   6   6 5.33771 0.60881  -2
 -18   6   6 5.33771 0.60881   1
  10   6   6 133.389 1.83760  -2
 -16   6   6 133.389 1.83760   1
   8   6   6 15.9569 0.55492  -2
 -14   6   6 15.9569 0.55492   1
   6   6   6 89.5999 1.13607  -2
 -12   6   6 89.5999 1.13607   1
   4   6   6 57.8203 0.73772  -2
 -10   6   6 57.8203 0.73772   1
   2   6   6 46.4812 0.69768  -2
  -8   6   6 46.4812 0.69768   1
   0   6   6 32.3418 0.58112  -2
  -6   6   6 32.3418 0.58112   1
  -2   6   6 101.532 1.18295  -2
  -4   6   6 101.532 1.18295   1
  -4   6   6 82.0091 1.04598  -2
  -2   6   6 82.0091 1.04598   1
  -6   6   6 65.7717 0.95505  -2
   0   6   6 65.7717 0.95505   1
  -8   6   6 91.3321 1.39404  -2
   2   6   6 91.3321 1.39404   1
 -10   6   6 64.4919 1.24275  -2
   4   6   6 64.4919 1.24275   1
 -12   6   6 34.2910 0.99156  -2
   6   6   6 34.2910 0.99156   1
 -14   6   6 8.24454 0.80958  -2
   8   6   6 8.24454 0.80958   1
 -16   6   6 73.7168 1.72071  -2
  10   6   6 73.7168 1.72071   1
 -18   6   6 17.8882 1.08602  -2
  12   6   6 17.8882 1.08602   1
 -20   6   6 6.48220 1.03941  -2
  14   6   6 6.48220 1.03941   1
 -22   6   6 35.4050 1.52710  -2
  16   6   6 35.4050 1.52710   1
 -24   6   6 25.9249 1.72198  -2
  18   6   6 25.9249 1.72198   1
  17   7   6 39.7955 2.16397  -2
 -23   7   6 39.7955 2.16397   1
  15   7   6 56.1579 2.07840  -2
 -21   7   6 56.1579 2.07840   1
  13   7   6 12.3855 0.94446  -2
 -19   7   6 12.3855 0.94446   1
  11   7   6 123.108 1.87847  -2
 -17   7   6 123.108 1.87847   1
   9   7   6 23.1726 0.77358  -2
 -15   7   6 23.1726 0.77358   1
   7   7   6 55.4428 0.96177  -2
 -13   7   6 55.4428 0.96177   1
   5   7   6 76.9515 1.01215  -2
 -11   7   6 76.9515 1.01215   1
   3   7   6 229.723 2.18555  -2
  -9   7   6 229.723 2.18555   1
   1   7   6 42.7885 0.73869  -2
  -7   7   6 42.7885 0.73869   1
  -1   7   6 352.659 3.53738  -2
  -5   7   6 352.659 3.53738   1
  -3   7   6 18.1836 0.53950  -2
  -3   7   6 18.1836 0.53950   1
  -5   7   6 245.226 2.84756  -2
  -1   7   6 245.226 2.84756   1
  -7   7   6 81.2603 1.21806  -2
   1   7   6 81.2603 1.21806   1
  -9   7   6 68.2430 1.20412  -2
   3   7   6 68.2430 1.20412   1
 -11   7   6 38.8828 1.14126  -2
   5   7   6 38.8828 1.14126   1
 -13   7   6 110.503 2.22225  -2
   7   7   6 110.503 2.22225   1
 -15   7   6 78.5389 2.09162  -2
   9   7   6 78.5389 2.09162   1
 -17   7   6 89.1468 2.30431  -2
  11   7   6 89.1468 2.30431   1
 -19   7   6 52.3422 1.80955  -2
  13   7   6 52.3422 1.80955   1
 -21   7   6 11.2869 1.20246  -2
  15   7   6 11.2869 1.20246   1
 -23   7   6 10.1121 1.41079  -2
  17   7   6 10.1121 1.41079   1
  16   8   6 10.7995 1.51642  -2
 -22   8   6 10.7995 1.51642   1
  14   8   6 15.5293 1.51690  -2
 -20   8   6 15.5293 1.51690   1
  12   8   6 5.35590 1.24069  -2
 -18   8   6 5.35590 1.24069   1
  10   8   6 95.8478 1.78977  -2
 -16   8   6 95.8478 1.78977   1
   8   8   6 5.03068 0.69635  -2
 -14   8   6 5.03068 0.69635   1
   6   8   6 2.35551 0.52180  -2
 -12   8   6 2.35551 0.52180   1
   4   8   6 27.4489 0.71115  -2
 -10   8   6 27.4489 0.71115   1
   2   8   6 22.4598 0.55948  -2
  -8   8   6 22.4598 0.55948   1
   0   8   6 36.0550 0.70960  -2
  -6   8   6 36.0550 0.70960   1
  -2   8   6 47.9925 0.87833  -2
  -4   8   6 47.9925 0.87833   1
  -4   8   6 106.652 1.51130  -2
  -2   8   6 106.652 1.51130   1
  -6   8   6 145.949 2.04584  -2
   0   8   6 145.949 2.04584   1
  -8   8   6 13.4295 0.85277  -2
   2   8   6 13.4295 0.85277   1
 -10   8   6 10.2454 0.70529  -2
   4   8   6 10.2454 0.70529   1
 -12   8   6 4.80722 0.84870  -2
   6   8   6 4.80722 0.84870   1
 -14   8   6 4.48998 0.93100  -2
   8   8   6 4.48998 0.93100   1
   8   8   6 2.19396 1.50679   1
 -16   8   6 22.6722 1.36652  -2
  10   8   6 22.6722 1.36652   1
 -18   8   6 30.9301 1.52390  -2
  12   8   6 30.9301 1.52390   1
 -20   8   6 51.8826 1.95668  -2
  14   8   6 51.8826 1.95668   1
 -22   8   6 41.6335 2.10350  -2
  16   8   6 41.6335 2.10350   1
 -21   9   6 117.354 5.41380   1
  13   9   6 42.4088 3.27363  -2
 -19   9   6 42.4088 3.27363   1
  11   9   6 86.4738 2.93045  -2
 -17   9   6 86.4738 2.93045   1
   9   9   6 26.5540 1.47948  -2
 -15   9   6 26.5540 1.47948   1
   7   9   6 80.9815 1.82622  -2
 -13   9   6 80.9815 1.82622   1
   5   9   6 13.3838 0.70206  -2
 -11   9   6 13.3838 0.70206   1
   3   9   6 147.202 2.19833  -2
  -9   9   6 147.202 2.19833   1
   1   9   6 9.12347 0.55875  -2
  -7   9   6 9.12347 0.55875   1
  -1   9   6 247.693 3.11296  -2
  -5   9   6 247.693 3.11296   1
  -3   9   6 1.28948 0.48508  -2
  -3   9   6 1.28948 0.48508   1
  -5   9   6 169.776 2.30083  -2
  -1   9   6 169.776 2.30083   1
  -7   9   6 2.11510 0.49486  -2
   1   9   6 2.11510 0.49486   1
  -9   9   6 146.410 2.69833  -2
   3   9   6 146.410 2.69833   1
   5   9   6 2.21644 0.70004   1
 -11   9   6 9.22724 1.10913  -2
   5   9   6 9.22724 1.10913   1
 -13   9   6 18.7305 1.33453  -2
   7   9   6 18.7305 1.33453   1
 -15   9   6 14.7768 1.34405  -2
   9   9   6 14.7768 1.34405   1
 -17   9   6 34.4668 2.01859  -2
  11   9   6 34.4668 2.01859   1
 -19   9   6 47.0115 2.09778  -2
  13   9   6 47.0115 2.09778   1
  12  10   6 12.9249 2.47163  -2
 -18  10   6 12.9249 2.47163   1
  10  10   6 37.9238 2.02698  -2
 -16  10   6 37.9238 2.02698   1
   8  10   6 52.1140 2.29931  -2
 -14  10   6 52.1140 2.29931   1
   6  10   6 34.1932 1.19573  -2
 -12  10   6 34.1932 1.19573   1
   4  10   6 12.8197 0.82199  -2
 -10  10   6 12.8197 0.82199   1
   2  10   6 54.9284 1.35946  -2
  -8  10   6 54.9284 1.35946   1
   0  10   6 56.2934 1.45011  -2
  -6  10   6 56.2934 1.45011   1
  -2  10   6 74.2678 1.40800  -2
  -4  10   6 74.2678 1.40800   1
  -4  10   6 26.1468 0.83745  -2
  -2  10   6 26.1468 0.83745   1
  -6  10   6 15.9827 0.75005  -2
   0  10   6 15.9827 0.75005   1
  -8  10   6 18.2602 1.02668  -2
   2  10   6 18.2602 1.02668   1
 -10  10   6 20.3289 1.06391  -2
   4  10   6 20.3289 1.06391   1
 -12  10   6 8.73618 1.16568  -2
   6  10   6 8.73618 1.16568   1
 -14  10   6 44.0336 2.26155  -2
   8  10   6 44.0336 2.26155   1
 -16  10   6 53.1504 2.56266  -2
  10  10   6 53.1504 2.56266   1
 -18  10   6 36.6709 2.27232  -2
  12  10   6 36.6709 2.27232   1
   9  11   6 7.06624 1.47136  -2
 -15  11   6 7.06624 1.47136   1
   7  11   6 149.679 4.36783  -2
 -13  11   6 149.679 4.36783   1
   5  11   6 3.13334 1.32190  -2
 -11  11   6 3.13334 1.32190   1
   3  11   6 163.079 4.58245  -2
  -9  11   6 163.079 4.58245   1
   1  11   6 11.1159 0.99196  -2
  -7  11   6 11.1159 0.99196   1
  -1  11   6 85.6697 2.16301  -2
  -5  11   6 85.6697 2.16301   1
  -3  11   6 32.7023 1.54694  -2
  -3  11   6 32.7023 1.54694   1
  -5  11   6 129.757 2.65825  -2
  -1  11   6 129.757 2.65825   1
  -7  11   6 13.3140 1.20590  -2
   1  11   6 13.3140 1.20590   1
  -9  11   6 132.690 4.02603  -2
   3  11   6 132.690 4.02603   1
 -11  11   6 3.74100 1.26620  -2
   5  11   6 3.74100 1.26620   1
 -13  11   6 63.8300 2.69280  -2
   7  11   6 63.8300 2.69280   1
 -15  11   6 4.82589 1.46972  -2
   9  11   6 4.82589 1.46972   1
   4  12   6 10.4615 1.54961  -2
 -10  12   6 10.4615 1.54961   1
   2  12   6 108.522 3.57815  -2
  -8  12   6 108.522 3.57815   1
   0  12   6 8.69655 1.44438  -2
  -6  12   6 8.69655 1.44438   1
  -2  12   6 8.63824 1.36953  -2
  -4  12   6 8.63824 1.36953   1
  -4  12   6 7.07511 1.79870  -2
  -2  12   6 7.07511 1.79870   1
  -6  12   6 2.55580 1.42817  -2
   0  12   6 2.55580 1.42817   1
  -8  12   6 34.8131 1.58567  -2
   2  12   6 34.8131 1.58567   1
 -10  12   6 6.95108 1.40206  -2
   4  12   6 6.95108 1.40206   1
 -28   0   7 0.36736 1.27770   1
 -26   0   7 0.77925 0.90025   1
 -24   0   7 0.50956 0.81295   1
 -22   0   7 1.17525 0.43527   1
 -20   0   7 1.16209 0.36408   1
 -18   0   7 0.78538 0.25553   1
 -16   0   7 0.55733 0.23268   1
 -14   0   7 0.23113 0.19252   1
 -12   0   7 0.37344 0.21127   1
 -10   0   7 0.36227 0.16770   1
  -8   0   7 0.68507 0.14405   1
  -6   0   7 0.54114 0.13342   1
  -4   0   7 0.42610 0.16387   1
  -2   0   7 0.44278 0.15317   1
   0   0   7 0.52169 0.20524   1
   2   0   7 1.04500 0.28849   1
   4   0   7 0.43830 0.26603   1
   6   0   7 0.47960 0.23430   1
   8   0   7 0.36006 0.30468   1
  10   0   7 0.76397 0.53904   1
  12   0   7 0.23568 0.61545   1
  14   0   7 0.12470 0.75153   1
  16   0   7 1.27097 0.88148   1
  18   0   7 0.52702 0.93285   1
  20   0   7 -1.7292 0.81224   1
 -27   1   7 91.2776 3.12656   1
 -25   1   7 2.38804 0.73167   1
 -23   1   7 101.498 1.94083   1
 -21   1   7 51.5356 0.87170   1
 -19   1   7 43.4933 0.66561   1
 -17   1   7 95.9211 0.99045   1
 -15   1   7 256.704 2.09969   1
 -13   1   7 87.2918 0.84163   1
 -11   1   7 618.237 4.77664   1
  -9   1   7 160.810 1.39903   1
  -7   1   7 25.6270 0.38155   1
  -5   1   7 13.6339 0.31159   1
  -3   1   7 770.830 8.35061   1
  -1   1   7 141.958 1.73267   1
   1   1   7 138.186 1.59894   1
   3   1   7 1163.58 11.8292   1
   5   1   7 157.749 1.85453   1
   7   1   7 618.199 7.35391   1
   9   1   7 741.205 9.39824   1
  11   1   7 90.3699 2.02238   1
  13   1   7 642.099 10.2595   1
  15   1   7 137.142 3.01021   1
  17   1   7 221.894 4.44872   1
  19   1   7 112.777 2.91044   1
 -28   2   7 -0.0782 0.80415   1
 -26   2   7 18.4500 1.41759   1
 -24   2   7 6.67611 0.72934   1
 -22   2   7 25.6827 0.79332   1
 -20   2   7 3.67221 0.35905   1
 -18   2   7 8.77589 0.37064   1
 -16   2   7 42.2173 0.57440   1
 -14   2   7 14.9499 0.29925   1
 -12   2   7 0.47951 0.13310   1
 -10   2   7 17.6498 0.30557   1
  -8   2   7 205.866 1.81581   1
  -6   2   7 130.042 1.18290   1
  -4   2   7 28.2471 0.47851   1
  -2   2   7 76.5866 0.96517   1
   0   2   7 28.8648 0.51978   1
   2   2   7 63.8412 1.03332   1
   4   2   7 5.18319 0.27948   1
   6   2   7 41.6502 0.83641   1
   8   2   7 136.356 2.19427   1
  10   2   7 16.0576 0.71846   1
  12   2   7 1.74553 0.47935   1
  14   2   7 3.25600 0.63884   1
  16   2   7 3.08988 0.87788   1
 -24   2   7 3.55762 1.84889  -2
  16   2   7 3.55762 1.84889   1
  18   2   7 0.81137 0.69109   1
  20   2   7 2.87149 1.04973   1
 -27   3   7 21.7300 1.57355   1
 -25   3   7 28.9515 1.64404   1
 -23   3   7 45.8843 1.11222   1
 -21   3   7 15.4156 0.64782   1
 -19   3   7 334.339 3.41227   1
 -17   3   7 52.4892 0.73532   1
 -15   3   7 264.991 2.18217   1
 -13   3   7 73.5042 0.75877   1
 -11   3   7 33.4563 0.43280   1
  -9   3   7 43.6648 0.47647   1
  -7   3   7 33.5451 0.52667   1
  -5   3   7 516.925 4.63706   1
  -3   3   7 119.178 1.32696   1
  -1   3   7 655.932 7.54991   1
   1   3   7 479.388 5.68577   1
   3   3   7 104.669 1.53359   1
   5   3   7 851.440 10.8002   1
   7   3   7 202.548 3.33763   1
   9   3   7 333.065 4.60065   1
  11   3   7 567.415 8.18657   1
  13   3   7 240.611 4.00899   1
  15   3   7 115.596 2.71607   1
 -25   3   7 278.372 7.64589  -2
  17   3   7 278.372 7.64589   1
  17   3   7 251.184 6.88566   1
  19   3   7 51.6814 2.68237   1
 -27   3   7 56.5289 3.97066  -2
  19   3   7 56.5289 3.97066   1
 -26   4   7 10.3050 1.35305   1
 -24   4   7 1.73206 0.71925   1
 -22   4   7 16.5922 0.69711   1
 -20   4   7 2.02280 0.32680   1
 -18   4   7 49.7477 0.78799   1
 -16   4   7 15.3420 0.44208   1
 -14   4   7 11.8838 0.32420   1
 -12   4   7 7.82454 0.26803   1
 -10   4   7 16.6046 0.31907   1
  -8   4   7 13.0066 0.27242   1
  -6   4   7 15.2236 0.34530   1
  -4   4   7 325.002 3.28420   1
  -2   4   7 74.6130 1.05324   1
   0   4   7 34.5956 0.63351   1
   2   4   7 40.0278 0.77272   1
   4   4   7 6.38313 0.37983   1
   6   4   7 32.3185 0.73496   1
   8   4   7 16.5998 0.70173   1
  10   4   7 49.0170 1.32081   1
  12   4   7 109.639 2.25546   1
  14   4   7 12.4688 0.96358   1
  16   4   7 4.11816 0.86273   1
  18   4   7 0.15491 0.89194   1
 -26   4   7 3.78800 2.38803  -2
  18   4   7 3.78800 2.38803   1
 -25   5   7 11.2242 1.36579   1
 -23   5   7 124.953 2.67624   1
 -21   5   7 24.3212 0.84576   1
 -19   5   7 217.562 2.67353   1
  11   5   7 272.856 10.4984  -2
 -19   5   7 272.856 10.4984   1
 -17   5   7 16.0357 0.48865   1
 -15   5   7 40.3900 0.68292   1
 -13   5   7 42.5617 0.57762   1
 -11   5   7 28.4564 0.44435   1
  -9   5   7 3.32200 0.26296   1
  -7   5   7 97.5533 1.07797   1
  -5   5   7 381.001 3.66773   1
  -3   5   7 14.5009 0.36341   1
  -1   5   7 307.515 3.38117   1
   1   5   7 212.217 2.78763   1
   3   5   7 62.5206 1.10554   1
   5   5   7 646.288 8.20883   1
   7   5   7 277.616 3.91092   1
   9   5   7 278.292 3.98390   1
  11   5   7 244.082 4.50472   1
  13   5   7 148.337 3.61527   1
 -21   5   7 153.699 7.31412  -2
  13   5   7 153.699 7.31412   1
  15   5   7 240.017 4.69926   1
  17   5   7 188.602 4.62202   1
  19   5   7 22.6067 2.11357   1
 -24   6   7 13.3339 1.34865   1
 -22   6   7 37.1372 1.58941   1
 -20   6   7 15.3602 0.67502   1
 -18   6   7 12.0308 0.56465   1
 -16   6   7 6.49406 0.37909   1
 -14   6   7 39.7327 0.70786   1
 -12   6   7 31.8548 0.50898   1
 -10   6   7 24.3586 0.46929   1
  -8   6   7 24.2895 0.50526   1
  -6   6   7 22.7601 0.72975   1
  -4   6   7 21.4124 0.47589   1
  -2   6   7 12.8177 1.17416   1
   0   6   7 339.183 3.98942   1
   2   6   7 45.9980 0.85896   1
   4   6   7 51.2270 1.06077   1
   6   6   7 8.25597 0.66270   1
   8   6   7 13.2092 0.72279   1
  10   6   7 19.2773 0.85800   1
  12   6   7 23.1430 1.12068   1
 -20   6   7 26.1951 3.31455  -2
  12   6   7 26.1951 3.31455   1
  14   6   7 69.1803 2.20136   1
 -22   6   7 85.5824 5.49355  -2
  14   6   7 85.5824 5.49355   1
 -24   6   7 75.2975 5.36027  -2
  16   6   7 75.2975 5.36027   1
  16   6   7 71.4014 3.01206   1
  18   6   7 10.8335 1.62994   1
 -23   7   7 122.529 3.67682   1
 -21   7   7 11.5426 1.26593   1
 -19   7   7 17.8341 0.74664   1
 -17   7   7 33.2618 0.80170   1
 -15   7   7 9.85046 0.45071   1
 -13   7   7 1.33648 0.31428   1
 -11   7   7 193.821 1.97037   1
  -9   7   7 161.255 1.62814   1
  -7   7   7 4.45094 0.31415   1
  -5   7   7 20.0790 0.51681   1
  -3   7   7 88.0504 1.13967   1
  -1   7   7 37.2093 0.73626   1
   1   7   7 181.445 2.39575   1
   3   7   7 367.007 4.35312   1
   5   7   7 70.1623 1.46979   1
   7   7   7 165.555 3.26270   1
   9   7   7 253.755 4.19795   1
  11   7   7 176.098 3.98171   1
 -19   7   7 185.544 8.29002  -2
  11   7   7 185.544 8.29002   1
 -21   7   7 206.903 6.30365  -2
  13   7   7 206.903 6.30365   1
  13   7   7 201.859 5.35275   1
  15   7   7 55.8418 2.08158   1
 -23   7   7 81.1391 5.34886  -2
  15   7   7 81.1391 5.34886   1
  17   7   7 113.030 5.15423   1
 -22   8   7 2.06829 0.86448   1
 -20   8   7 29.2418 1.53084   1
 -18   8   7 14.3868 1.06577   1
 -16   8   7 18.4978 0.78034   1
 -14   8   7 16.6588 0.60131   1
 -12   8   7 84.2790 1.37018   1
 -10   8   7 70.9824 1.00733   1
  -8   8   7 50.2452 0.82063   1
  -6   8   7 64.3315 0.98120   1
  -4   8   7 16.3774 0.51556   1
  -2   8   7 31.2847 0.75880   1
   0   8   7 38.3884 0.94658   1
   2   8   7 15.8935 0.66466   1
   4   8   7 334.909 5.18885   1
   6   8   7 33.8235 1.16263   1
   8   8   7 50.9062 1.62673   1
  10   8   7 0.60178 0.64592   1
 -20   8   7 8.02212 2.80961  -2
  12   8   7 8.02212 2.80961   1
  12   8   7 4.95695 0.95069   1
  14   8   7 12.3066 1.28398   1
 -21   9   7 16.3164 2.47183   1
 -19   9   7 16.6590 2.12185   1
 -17   9   7 1.92628 0.70037   1
 -15   9   7 103.603 2.08382   1
 -13   9   7 48.8528 1.06243   1
 -11   9   7 16.6283 0.74543   1
  -9   9   7 4.06369 0.46106   1
  -7   9   7 2.56515 0.36673   1
  -5   9   7 15.6751 0.60811   1
  -3   9   7 68.6871 1.26402   1
  -1   9   7 113.185 1.93773   1
  -7   9   7 115.924 5.31082  -2
  -1   9   7 115.924 5.31082   1
   1   9   7 19.3514 0.84298   1
   3   9   7 121.550 2.56822   1
 -11   9   7 138.840 6.05614  -2
   3   9   7 138.840 6.05614   1
   5   9   7 95.1492 2.54322   1
   7   9   7 202.528 4.45867   1
   9   9   7 100.390 3.29012   1
  11   9   7 48.8754 2.24391   1
  13   9   7 140.150 4.32265   1
 -18  10   7 9.65507 1.24082   1
 -16  10   7 12.3177 1.27324   1
 -14  10   7 47.8555 1.57783   1
 -12  10   7 33.7101 1.29853   1
 -10  10   7 5.49697 0.56343   1
  -8  10   7 44.4461 1.17697   1
  -6  10   7 15.9388 0.66343   1
  -4  10   7 67.1539 1.29583   1
  -2  10   7 6.32275 0.51966   1
   0  10   7 65.8923 1.75214   1
  -8  10   7 75.4552 4.49854  -2
   0  10   7 75.4552 4.49854   1
   2  10   7 9.48929 0.93910   1
 -10  10   7 16.4727 2.78511  -2
   2  10   7 16.4727 2.78511   1
 -12  10   7 60.6030 4.01904  -2
   4  10   7 60.6030 4.01904   1
   4  10   7 44.7224 1.49719   1
 -14  10   7 28.6008 3.16603  -2
   6  10   7 28.6008 3.16603   1
   6  10   7 18.5375 1.40617   1
   8  10   7 176.770 4.98288   1
  10  10   7 15.7827 1.66126   1
 -15  11   7 34.3821 1.85175   1
 -13  11   7 3.35155 0.94548   1
 -11  11   7 3.59018 0.95913   1
  -9  11   7 2.63959 0.71180   1
  -7  11   7 15.9796 1.13965   1
  -5  11   7 31.5845 1.40136   1
  -3  11   7 0.57776 0.53296   1
  -5  11   7 5.88144 2.59109  -2
  -3  11   7 5.88144 2.59109   1
  -1  11   7 74.9175 2.49068   1
  -7  11   7 82.5214 4.97013  -2
  -1  11   7 82.5214 4.97013   1
  -9  11   7 29.1866 3.39467  -2
   1  11   7 29.1866 3.39467   1
   1  11   7 25.2430 1.92817   1
   3  11   7 109.448 4.54072   1
 -11  11   7 134.693 6.55271  -2
   3  11   7 134.693 6.55271   1
   5  11   7 37.3705 1.96634   1
   7  11   7 45.0394 2.87631   1
 -15  11   7 60.5165 4.48293  -2
   7  11   7 60.5165 4.48293   1
 -10  12   7 5.31874 1.11029   1
  -8  12   7 43.4142 2.03343   1
  -6  12   7 6.48698 1.14524   1
  -4  12   7 110.273 3.45658   1
  -4  12   7 133.297 6.81130  -2
  -4  12   7 133.297 6.81130   1
  -6  12   7 11.3364 2.05295  -2
  -2  12   7 11.3364 2.05295   1
   0  12   7 70.5722 2.60266   1
  -8  12   7 82.8041 4.70878  -2
   0  12   7 82.8041 4.70878   1
 -10  12   7 0.57712 2.61239  -2
   2  12   7 0.57712 2.61239   1
   2  12   7 0.19680 0.88043   1
   4  12   7 33.4923 2.33045   1
  20   0   8 62.8689 3.91635  -2
 -28   0   8 62.8689 3.91635   1
  18   0   8 143.596 6.01048  -2
 -26   0   8 143.596 6.01048   1
 -24   0   8 174.774 7.62262   1
  16   0   8 193.611 5.35378  -2
 -24   0   8 193.611 5.35378   1
 -22   0   8 191.892 6.73976   1
  14   0   8 220.353 4.23892  -2
 -22   0   8 220.353 4.23892   1
  12   0   8 238.457 3.89082  -2
 -20   0   8 238.457 3.89082   1
  10   0   8 203.140 2.97358  -2
 -18   0   8 203.140 2.97358   1
 -18   0   8 179.563 6.89741   1
   8   0   8 976.660 11.4121  -2
 -16   0   8 976.660 11.4121   1
 -16   0   8 905.235 27.2312   1
   6   0   8 126.033 1.68609  -2
 -14   0   8 126.033 1.68609   1
   4   0   8 5918.96 62.5849  -2
 -12   0   8 5918.96 62.5849   1
 -10   0   8 15.8866 0.70530   1
   2   0   8 114.148 1.69894  -2
 -10   0   8 114.148 1.69894   1
  -8   0   8 2324.44 40.3119   1
   0   0   8 2748.97 41.3233  -2
  -8   0   8 2748.97 41.3233   1
  -2   0   8 1458.53 25.3333  -2
  -6   0   8 1458.53 25.3333   1
  -6   0   8 1234.97 37.9945   1
  -4   0   8 2129.86 36.7469  -2
  -4   0   8 2129.86 36.7469   1
  -6   0   8 972.907 16.8023  -2
  -2   0   8 972.907 16.8023   1
  -2   0   8 663.406 20.7436   1
  -8   0   8 2453.85 52.3625  -2
   0   0   8 2453.85 52.3625   1
 -10   0   8 272.766 9.07892  -2
   2   0   8 272.766 9.07892   1
 -12   0   8 4558.73 96.9247  -2
   4   0   8 4558.73 96.9247   1
   4   0   8 3374.66 102.808   1
 -14   0   8 260.453 5.14743  -2
   6   0   8 260.453 5.14743   1
   8   0   8 336.689 10.2571   1
 -16   0   8 526.294 12.0523  -2
   8   0   8 526.294 12.0523   1
 -18   0   8 143.741 3.84448  -2
  10   0   8 143.741 3.84448   1
 -20   0   8 72.6498 2.38606  -2
  12   0   8 72.6498 2.38606   1
 -22   0   8 137.214 4.07931  -2
  14   0   8 137.214 4.07931   1
 -24   0   8 67.1278 2.65426  -2
  16   0   8 67.1278 2.65426   1
 -26   0   8 485.228 11.8867  -2
  18   0   8 485.228 11.8867   1
 -28   0   8 28.6401 2.73700  -2
  20   0   8 28.6401 2.73700   1
  19   1   8 5.83086 1.53986  -2
 -27   1   8 5.83086 1.53986   1
  17   1   8 4.78663 1.09513  -2
 -25   1   8 4.78663 1.09513   1
  15   1   8 9.93588 0.98292  -2
 -23   1   8 9.93588 0.98292   1
 -23   1   8 5.06059 0.86676   1
  13   1   8 18.6177 0.78818  -2
 -21   1   8 18.6177 0.78818   1
 -21   1   8 6.08088 0.84371   1
  11   1   8 23.1109 0.65147  -2
 -19   1   8 23.1109 0.65147   1
 -19   1   8 3.22693 0.56436   1
   9   1   8 18.7824 0.49394  -2
 -17   1   8 18.7824 0.49394   1
 -17   1   8 15.1851 1.35997   1
   7   1   8 72.2999 1.09914  -2
 -15   1   8 72.2999 1.09914   1
 -15   1   8 19.7339 1.48968   1
   5   1   8 5.99231 0.31640  -2
 -13   1   8 5.99231 0.31640   1
 -13   1   8 6.88101 1.04886   1
   3   1   8 5.59336 0.32852  -2
 -11   1   8 5.59336 0.32852   1
 -11   1   8 1.34361 0.31263   1
   1   1   8 9.44468 0.33601  -2
  -9   1   8 9.44468 0.33601   1
  -9   1   8 8.45140 0.36265   1
  -1   1   8 76.6416 1.37277  -2
  -7   1   8 76.6416 1.37277   1
  -7   1   8 50.4450 0.81543   1
  -3   1   8 40.7123 0.87024  -2
  -5   1   8 40.7123 0.87024   1
  -5   1   8 14.5863 0.56498   1
  -5   1   8 118.653 1.70651  -2
  -3   1   8 118.653 1.70651   1
  -3   1   8 117.087 2.74215   1
  -1   1   8 109.925 3.96806   1
  -7   1   8 115.647 2.06041  -2
  -1   1   8 115.647 2.06041   1
   1   1   8 3.75161 0.53417   1
  -9   1   8 3.94104 0.34697  -2
   1   1   8 3.94104 0.34697   1
 -11   1   8 10.2111 0.56648  -2
   3   1   8 10.2111 0.56648   1
   3   1   8 10.4397 0.70793   1
 -13   1   8 1.80260 0.33395  -2
   5   1   8 1.80260 0.33395   1
 -15   1   8 26.9239 0.83392  -2
   7   1   8 26.9239 0.83392   1
 -17   1   8 10.2982 0.65028  -2
   9   1   8 10.2982 0.65028   1
 -19   1   8 34.3602 1.23788  -2
  11   1   8 34.3602 1.23788   1
 -21   1   8 66.8611 1.86498  -2
  13   1   8 66.8611 1.86498   1
 -23   1   8 1.10534 0.88151  -2
  15   1   8 1.10534 0.88151   1
 -25   1   8 13.7273 1.26648  -2
  17   1   8 13.7273 1.26648   1
 -27   1   8 2.28975 1.22079  -2
  19   1   8 2.28975 1.22079   1
 -28   2   8 54.5812 2.36096   1
  18   2   8 54.6138 2.48597  -2
 -26   2   8 54.6138 2.48597   1
  16   2   8 110.858 2.92615  -2
 -24   2   8 110.858 2.92615   1
 -24   2   8 105.822 3.21441   1
 -22   2   8 8.67316 1.04365   1
  14   2   8 74.8361 1.79244  -2
 -22   2   8 74.8361 1.79244   1
  12   2   8 402.567 4.52722  -2
 -20   2   8 402.567 4.52722   1
 -20   2   8 376.767 8.72164   1
  10   2   8 210.033 2.01975  -2
 -18   2   8 210.033 2.01975   1
 -16   2   8 1563.16 33.9468   1
   8   2   8 1683.78 14.1462  -2
 -16   2   8 1683.78 14.1462   1
   6   2   8 75.1708 0.83277  -2
 -14   2   8 75.1708 0.83277   1
 -14   2   8 36.1597 1.93151   1
 -12   2   8 1639.89 24.4852   1
   4   2   8 1819.17 15.8514  -2
 -12   2   8 1819.17 15.8514   1
   2   2   8 481.611 4.58320  -2
 -10   2   8 481.611 4.58320   1
 -10   2   8 459.907 6.36027   1
  -8   2   8 3342.70 49.8192   1
   0   2   8 3864.54 38.8728  -2
  -8   2   8 3864.54 38.8728   1
  -2   2   8 282.235 3.75149  -2
  -6   2   8 282.235 3.75149   1
  -6   2   8 226.175 3.27465   1
  -4   2   8 2676.74 30.6616  -2
  -4   2   8 2676.74 30.6616   1
  -4   2   8 2171.60 62.3236   1
  -6   2   8 117.344 1.73996  -2
  -2   2   8 117.344 1.73996   1
  -2   2   8 45.6566 1.96498   1
  -8   2   8 3684.32 55.2722  -2
   0   2   8 3684.32 55.2722   1
   0   2   8 2938.00 62.6964   1
 -10   2   8 116.552 2.14537  -2
   2   2   8 116.552 2.14537   1
   2   2   8 4.04406 0.94403   1
 -12   2   8 1187.76 12.1407  -2
   4   2   8 1187.76 12.1407   1
 -14   2   8 182.936 2.52385  -2
   6   2   8 182.936 2.52385   1
 -16   2   8 921.431 10.7174  -2
   8   2   8 921.431 10.7174   1
 -18   2   8 182.979 3.35139  -2
  10   2   8 182.979 3.35139   1
  10   2   8 148.304 5.92771   1
 -20   2   8 190.287 3.51440  -2
  12   2   8 190.287 3.51440   1
 -22   2   8 337.896 5.97343  -2
  14   2   8 337.896 5.97343   1
 -24   2   8 34.1263 1.36981  -2
  16   2   8 34.1263 1.36981   1
 -26   2   8 206.605 4.34252  -2
  18   2   8 206.605 4.34252   1
  19   3   8 2.04332 1.51066  -2
 -27   3   8 2.04332 1.51066   1
  17   3   8 7.27954 1.47740  -2
 -25   3   8 7.27954 1.47740   1
  15   3   8 6.93206 1.04843  -2
 -23   3   8 6.93206 1.04843   1
 -23   3   8 4.30771 1.08022   1
 -21   3   8 1.42511 0.42992   1
  13   3   8 2.74875 0.75948  -2
 -21   3   8 2.74875 0.75948   1
 -19   3   8 14.6589 1.02037   1
  11   3   8 14.6248 0.87188  -2
 -19   3   8 14.6248 0.87188   1
   9   3   8 9.61832 0.44331  -2
 -17   3   8 9.61832 0.44331   1
   7   3   8 24.9722 0.55158  -2
 -15   3   8 24.9722 0.55158   1
 -15   3   8 19.3380 1.52502   1
   5   3   8 88.6275 0.96196  -2
 -13   3   8 88.6275 0.96196   1
 -13   3   8 79.9453 3.38906   1
   3   3   8 83.3480 1.45960  -2
 -11   3   8 83.3480 1.45960   1
 -11   3   8 17.7274 0.50308   1
  -9   3   8 1.23329 0.18590   1
   1   3   8 48.0520 0.69901  -2
  -9   3   8 48.0520 0.69901   1
  -7   3   8 2.95202 0.32339   1
  -1   3   8 11.0877 0.35605  -2
  -7   3   8 11.0877 0.35605   1
  -3   3   8 8.50453 0.51492  -2
  -5   3   8 8.50453 0.51492   1
  -5   3   8 6.46529 0.32931   1
  -5   3   8 5.15474 0.43711  -2
  -3   3   8 5.15474 0.43711   1
  -3   3   8 2.02099 0.32164   1
  -7   3   8 13.5117 0.62105  -2
  -1   3   8 13.5117 0.62105   1
  -1   3   8 8.64073 0.65318   1
   1   3   8 192.933 3.37975   1
  -9   3   8 200.349 3.46471  -2
   1   3   8 200.349 3.46471   1
 -11   3   8 31.4883 0.98101  -2
   3   3   8 31.4883 0.98101   1
 -13   3   8 26.8689 0.97788  -2
   5   3   8 26.8689 0.97788   1
   5   3   8 9.33957 1.60506   1
 -15   3   8 5.80975 0.89596  -2
   7   3   8 5.80975 0.89596   1
   7   3   8 0.84085 0.47675   1
 -17   3   8 31.0337 1.14973  -2
   9   3   8 31.0337 1.14973   1
   9   3   8 27.5308 2.24528   1
  11   3   8 5.43358 1.49465   1
 -19   3   8 9.56004 0.87287  -2
  11   3   8 9.56004 0.87287   1
 -21   3   8 4.95558 1.13854  -2
  13   3   8 4.95558 1.13854   1
 -23   3   8 17.7443 1.24761  -2
  15   3   8 17.7443 1.24761   1
 -25   3   8 15.3560 1.33103  -2
  17   3   8 15.3560 1.33103   1
 -27   3   8 1.97290 1.43331  -2
  19   3   8 1.97290 1.43331   1
  18   4   8 43.2534 2.26945  -2
 -26   4   8 43.2534 2.26945   1
  16   4   8 122.416 3.73090  -2
 -24   4   8 122.416 3.73090   1
 -24   4   8 119.645 4.79150   1
  14   4   8 61.9025 2.04814  -2
 -22   4   8 61.9025 2.04814   1
 -22   4   8 10.3816 1.08775   1
  12   4   8 914.894 10.9691  -2
 -20   4   8 914.894 10.9691   1
 -20   4   8 868.142 18.6500   1
  10   4   8 105.503 1.33468  -2
 -18   4   8 105.503 1.33468   1
   8   4   8 820.146 7.68462  -2
 -16   4   8 820.146 7.68462   1
 -16   4   8 735.434 16.6634   1
   6   4   8 672.874 5.62768  -2
 -14   4   8 672.874 5.62768   1
 -14   4   8 667.812 21.4859   1
   4   4   8 938.771 8.73079  -2
 -12   4   8 938.771 8.73079   1
 -12   4   8 839.669 11.4917   1
   2   4   8 504.502 4.43163  -2
 -10   4   8 504.502 4.43163   1
 -10   4   8 464.872 10.5005   1
  -8   4   8 1726.01 29.4410   1
   0   4   8 1979.21 17.2335  -2
  -8   4   8 1979.21 17.2335   1
  -2   4   8 18.1378 0.50012  -2
  -6   4   8 18.1378 0.50012   1
  -6   4   8 7.94868 0.55922   1
  -4   4   8 4604.36 68.2935   1
  -4   4   8 5820.83 78.6640  -2
  -4   4   8 5820.83 78.6640   1
  -6   4   8 21.1401 0.84721  -2
  -2   4   8 21.1401 0.84721   1
  -2   4   8 12.9548 0.97662   1
   0   4   8 1033.30 22.0507   1
  -8   4   8 1390.43 17.1934  -2
   0   4   8 1390.43 17.1934   1
 -10   4   8 188.773 2.92293  -2
   2   4   8 188.773 2.92293   1
   2   4   8 78.9672 2.23714   1
   4   4   8 467.480 8.67995   1
 -12   4   8 657.094 14.3458  -2
   4   4   8 657.094 14.3458   1
 -14   4   8 147.796 2.71886  -2
   6   4   8 147.796 2.71886   1
   6   4   8 2.64689 1.10970   1
   8   4   8 324.976 11.6649   1
 -16   4   8 500.090 7.18506  -2
   8   4   8 500.090 7.18506   1
  10   4   8 444.998 15.4632   1
 -18   4   8 446.333 7.38558  -2
  10   4   8 446.333 7.38558   1
 -20   4   8 467.447 7.67400  -2
  12   4   8 467.447 7.67400   1
  12   4   8 285.490 10.6976   1
 -22   4   8 271.301 5.10696  -2
  14   4   8 271.301 5.10696   1
 -24   4   8 41.5869 1.62195  -2
  16   4   8 41.5869 1.62195   1
 -26   4   8 199.879 5.67914  -2
  18   4   8 199.879 5.67914   1
  17   5   8 10.0644 1.57397  -2
 -25   5   8 10.0644 1.57397   1
  15   5   8 18.1326 1.42109  -2
 -23   5   8 18.1326 1.42109   1
  13   5   8 3.29588 1.04997  -2
 -21   5   8 3.29588 1.04997   1
 -21   5   8 3.00350 0.59255   1
  11   5   8 11.0207 0.83997  -2
 -19   5   8 11.0207 0.83997   1
 -19   5   8 6.39158 0.63384   1
   9   5   8 14.0954 0.63903  -2
 -17   5   8 14.0954 0.63903   1
 -17   5   8 10.8438 1.35536   1
 -15   5   8 6.64242 0.78704   1
   7   5   8 15.2951 0.56389  -2
 -15   5   8 15.2951 0.56389   1
   5   5   8 109.536 1.18979  -2
 -13   5   8 109.536 1.18979   1
   3   5   8 106.008 1.25400  -2
 -11   5   8 106.008 1.25400   1
 -11   5   8 86.8510 3.69799   1
   1   5   8 105.099 1.31060  -2
  -9   5   8 105.099 1.31060   1
  -9   5   8 93.0861 2.56566   1
  -1   5   8 48.7760 0.91421  -2
  -7   5   8 48.7760 0.91421   1
  -7   5   8 26.6445 1.08563   1
  -5   5   8 8.25769 0.61094   1
  -3   5   8 12.8358 0.45269  -2
  -5   5   8 12.8358 0.45269   1
  -5   5   8 8.38174 0.46746  -2
  -3   5   8 8.38174 0.46746   1
  -3   5   8 3.79274 0.62525   1
  -1   5   8 43.4708 1.18221   1
  -7   5   8 56.5409 1.14470  -2
  -1   5   8 56.5409 1.14470   1
  -9   5   8 37.0610 0.88897  -2
   1   5   8 37.0610 0.88897   1
   1   5   8 14.2227 1.67642   1
 -11   5   8 89.7717 1.70813  -2
   3   5   8 89.7717 1.70813   1
   3   5   8 67.1188 3.66851   1
 -13   5   8 380.851 7.25178  -2
   5   5   8 380.851 7.25178   1
   5   5   8 380.247 8.78163   1
 -15   5   8 37.1474 1.76448  -2
   7   5   8 37.1474 1.76448   1
   7   5   8 36.2454 1.92131   1
 -17   5   8 21.3272 1.50125  -2
   9   5   8 21.3272 1.50125   1
   9   5   8 9.58547 1.82606   1
 -19   5   8 12.6826 1.24280  -2
  11   5   8 12.6826 1.24280   1
  11   5   8 6.63195 1.81282   1
 -21   5   8 -0.0445 1.48073  -2
  13   5   8 -0.0445 1.48073   1
  13   5   8 0.29429 1.33953   1
 -23   5   8 14.5330 1.48377  -2
  15   5   8 14.5330 1.48377   1
 -25   5   8 15.7729 1.87257  -2
  17   5   8 15.7729 1.87257   1
  16   6   8 163.672 4.64526  -2
 -24   6   8 163.672 4.64526   1
  14   6   8 55.4674 2.03751  -2
 -22   6   8 55.4674 2.03751   1
 -20   6   8 329.598 6.28251   1
  12   6   8 336.913 6.85002  -2
 -20   6   8 336.913 6.85002   1
 -18   6   8 142.311 3.06287   1
  10   6   8 158.106 2.63720  -2
 -18   6   8 158.106 2.63720   1
   8   6   8 524.311 6.40768  -2
 -16   6   8 524.311 6.40768   1
 -16   6   8 451.893 10.6713   1
   6   6   8 158.860 1.92470  -2
 -14   6   8 158.860 1.92470   1
 -14   6   8 149.345 4.83942   1
   4   6   8 859.852 7.75437  -2
 -12   6   8 859.852 7.75437   1
 -12   6   8 773.839 24.9071   1
   2   6   8 153.205 1.87878  -2
 -10   6   8 153.205 1.87878   1
 -10   6   8 145.366 2.99185   1
   0   6   8 2179.54 21.9649  -2
  -8   6   8 2179.54 21.9649   1
  -8   6   8 1879.04 39.8371   1
  -2   6   8 73.8807 1.05966  -2
  -6   6   8 73.8807 1.05966   1
  -4   6   8 1300.13 13.1425  -2
  -4   6   8 1300.13 13.1425   1
  -4   6   8 1035.01 33.1615   1
  -6   6   8 89.8274 1.48436  -2
  -2   6   8 89.8274 1.48436   1
  -2   6   8 71.7101 3.79281   1
  -8   6   8 1599.20 24.0962  -2
   0   6   8 1599.20 24.0962   1
   0   6   8 1186.32 18.3416   1
 -10   6   8 35.5448 0.94150  -2
   2   6   8 35.5448 0.94150   1
   2   6   8 3.91320 1.25854   1
 -12   6   8 614.519 8.70337  -2
   4   6   8 614.519 8.70337   1
 -14   6   8 73.6674 2.01849  -2
   6   6   8 73.6674 2.01849   1
   6   6   8 36.4032 1.98801   1
 -16   6   8 382.952 7.16140  -2
   8   6   8 382.952 7.16140   1
   8   6   8 275.281 7.47723   1
 -18   6   8 96.5478 2.26343  -2
  10   6   8 96.5478 2.26343   1
  10   6   8 63.5384 3.99204   1
  12   6   8 59.0781 3.97612   1
 -20   6   8 136.207 3.39370  -2
  12   6   8 136.207 3.39370   1
 -22   6   8 242.451 5.50801  -2
  14   6   8 242.451 5.50801   1
 -24   6   8 65.2123 2.80109  -2
  16   6   8 65.2123 2.80109   1
  15   7   8 3.31377 1.30132  -2
 -23   7   8 3.31377 1.30132   1
  13   7   8 42.1205 2.01240  -2
 -21   7   8 42.1205 2.01240   1
 -19   7   8 1.88803 0.70836   1
  11   7   8 3.52838 0.88341  -2
 -19   7   8 3.52838 0.88341   1
   9   7   8 51.2116 1.89887  -2
 -17   7   8 51.2116 1.89887   1
 -17   7   8 28.0513 1.07269   1
   7   7   8 28.5964 1.01157  -2
 -15   7   8 28.5964 1.01157   1
 -15   7   8 19.0083 1.23368   1
   5   7   8 8.09449 0.64718  -2
 -13   7   8 8.09449 0.64718   1
 -13   7   8 6.34170 1.23819   1
   3   7   8 43.2938 0.76745  -2
 -11   7   8 43.2938 0.76745   1
   1   7   8 19.4793 0.59081  -2
  -9   7   8 19.4793 0.59081   1
  -7   7   8 103.470 3.11063   1
  -1   7   8 116.921 1.61741  -2
  -7   7   8 116.921 1.61741   1
  -3   7   8 80.9112 1.24807  -2
  -5   7   8 80.9112 1.24807   1
  -5   7   8 53.6108 2.44511   1
  -5   7   8 118.382 1.68367  -2
  -3   7   8 118.382 1.68367   1
  -3   7   8 104.285 5.02987   1
  -7   7   8 59.6307 1.24712  -2
  -1   7   8 59.6307 1.24712   1
  -1   7   8 34.8072 1.90375   1
  -9   7   8 70.6865 1.78153  -2
   1   7   8 70.6865 1.78153   1
   1   7   8 68.3805 1.64245   1
   3   7   8 35.5834 1.47872   1
 -11   7   8 48.4604 2.01183  -2
   3   7   8 48.4604 2.01183   1
 -13   7   8 7.18777 1.28802  -2
   5   7   8 7.18777 1.28802   1
   5   7   8 6.28135 1.65877   1
   7   7   8 15.2824 2.51168   1
 -15   7   8 20.5721 1.33955  -2
   7   7   8 20.5721 1.33955   1
 -17   7   8 130.475 3.23861  -2
   9   7   8 130.475 3.23861   1
   9   7   8 111.469 5.78641   1
 -19   7   8 11.1490 1.17729  -2
  11   7   8 11.1490 1.17729   1
 -21   7   8 48.7655 1.83204  -2
  13   7   8 48.7655 1.83204   1
 -23   7   8 12.8062 1.53302  -2
  15   7   8 12.8062 1.53302   1
  14   8   8 90.4431 4.78418  -2
 -22   8   8 90.4431 4.78418   1
 -20   8   8 52.6822 2.71221   1
  12   8   8 81.8330 4.42510  -2
 -20   8   8 81.8330 4.42510   1
  10   8   8 77.1882 3.01863  -2
 -18   8   8 77.1882 3.01863   1
 -18   8   8 72.1514 2.45814   1
 -16   8   8 366.560 8.42887   1
   8   8   8 392.908 6.74018  -2
 -16   8   8 392.908 6.74018   1
   6   8   8 27.8194 0.92246  -2
 -14   8   8 27.8194 0.92246   1
 -14   8   8 20.1890 1.94964   1
   4   8   8 1161.40 13.7935  -2
 -12   8   8 1161.40 13.7935   1
 -12   8   8 997.135 29.8915   1
 -10   8   8 31.7947 2.07562   1
   2   8   8 34.6017 0.81814  -2
 -10   8   8 34.6017 0.81814   1
   0   8   8 639.916 6.86458  -2
  -8   8   8 639.916 6.86458   1
  -8   8   8 493.091 15.3694   1
  -2   8   8 326.273 3.57886  -2
  -6   8   8 326.273 3.57886   1
  -6   8   8 310.609 10.0782   1
  -4   8   8 545.787 18.8945   1
  -4   8   8 666.357 7.43102  -2
  -4   8   8 666.357 7.43102   1
  -6   8   8 113.497 2.15165  -2
  -2   8   8 113.497 2.15165   1
  -2   8   8 46.2004 3.25869   1
  -8   8   8 703.211 9.92955  -2
   0   8   8 703.211 9.92955   1
   0   8   8 613.223 14.3282   1
 -10   8   8 11.9097 0.98777  -2
   2   8   8 11.9097 0.98777   1
   2   8   8 6.97338 0.79044   1
 -12   8   8 774.269 12.0954  -2
   4   8   8 774.269 12.0954   1
   4   8   8 545.187 19.1745   1
 -14   8   8 22.3782 1.41270  -2
   6   8   8 22.3782 1.41270   1
   6   8   8 16.7838 2.72249   1
 -16   8   8 176.330 4.02079  -2
   8   8   8 176.330 4.02079   1
 -18   8   8 59.3298 2.15008  -2
  10   8   8 59.3298 2.15008   1
 -20   8   8 60.6832 2.04270  -2
  12   8   8 60.6832 2.04270   1
 -22   8   8 75.0926 2.65291  -2
  14   8   8 75.0926 2.65291   1
 -21   9   8 56.6468 3.55853   1
  11   9   8 28.3691 2.92270  -2
 -19   9   8 28.3691 2.92270   1
 -19   9   8 16.5353 1.70158   1
 -17   9   8 20.4531 1.88413   1
   9   9   8 28.2258 2.69068  -2
 -17   9   8 28.2258 2.69068   1
   7   9   8 42.5415 1.48395  -2
 -15   9   8 42.5415 1.48395   1
 -15   9   8 31.3217 2.27948   1
 -13   9   8 0.89684 0.93055   1
   5   9   8 1.79254 0.85553  -2
 -13   9   8 1.79254 0.85553   1
   3   9   8 31.7807 1.35869  -2
 -11   9   8 31.7807 1.35869   1
 -11   9   8 18.7944 1.12366   1
   1   9   8 16.2753 0.76611  -2
  -9   9   8 16.2753 0.76611   1
  -9   9   8 4.48971 1.53009   1
  -1   9   8 22.8744 0.92056  -2
  -7   9   8 22.8744 0.92056   1
  -7   9   8 18.1014 1.40468   1
  -5   9   8 75.5162 2.71442   1
  -3   9   8 127.518 2.29401  -2
  -5   9   8 127.518 2.29401   1
  -5   9   8 263.583 4.48181  -2
  -3   9   8 263.583 4.48181   1
  -3   9   8 242.654 9.86662   1
  -7   9   8 25.3144 1.12806  -2
  -1   9   8 25.3144 1.12806   1
  -1   9   8 20.4955 2.42032   1
   1   9   8 48.5315 2.00037   1
  -9   9   8 55.0098 1.89562  -2
   1   9   8 55.0098 1.89562   1
 -11   9   8 22.3276 1.39759  -2
   3   9   8 22.3276 1.39759   1
   3   9   8 5.02757 1.66714   1
 -13   9   8 4.79387 1.40041  -2
   5   9   8 4.79387 1.40041   1
 -15   9   8 44.6951 2.27229  -2
   7   9   8 44.6951 2.27229   1
 -17   9   8 45.6713 2.34077  -2
   9   9   8 45.6713 2.34077   1
 -19   9   8 74.5627 3.02172  -2
  11   9   8 74.5627 3.02172   1
  10  10   8 29.9206 2.98074  -2
 -18  10   8 29.9206 2.98074   1
 -18  10   8 26.7101 2.13520   1
 -16  10   8 252.555 8.98673   1
   8  10   8 272.085 9.74056  -2
 -16  10   8 272.085 9.74056   1
 -14  10   8 22.8297 2.09621   1
   6  10   8 27.4764 2.56193  -2
 -14  10   8 27.4764 2.56193   1
   4  10   8 336.164 5.81230  -2
 -12  10   8 336.164 5.81230   1
   2  10   8 116.030 2.61656  -2
 -10  10   8 116.030 2.61656   1
 -10  10   8 112.383 4.85992   1
   0  10   8 414.418 6.99793  -2
  -8  10   8 414.418 6.99793   1
  -8  10   8 351.166 11.7602   1
  -2  10   8 71.1358 1.61401  -2
  -6  10   8 71.1358 1.61401   1
  -6  10   8 59.1785 2.49843   1
  -4  10   8 312.753 7.99629   1
  -4  10   8 388.669 6.38937  -2
  -4  10   8 388.669 6.38937   1
  -6  10   8 73.6335 2.18951  -2
  -2  10   8 73.6335 2.18951   1
  -2  10   8 65.5040 4.34679   1
  -8  10   8 386.395 6.54702  -2
   0  10   8 386.395 6.54702   1
 -10  10   8 26.0984 1.50353  -2
   2  10   8 26.0984 1.50353   1
 -12  10   8 226.079 4.98080  -2
   4  10   8 226.079 4.98080   1
 -14  10   8 11.4898 1.60046  -2
   6  10   8 11.4898 1.60046   1
 -16  10   8 173.814 5.00861  -2
   8  10   8 173.814 5.00861   1
 -18  10   8 22.6355 1.97912  -2
  10  10   8 22.6355 1.97912   1
 -15  11   8 15.2887 1.91018   1
   7  11   8 20.9553 2.59469  -2
 -15  11   8 20.9553 2.59469   1
 -13  11   8 24.9723 2.33035   1
   5  11   8 43.0307 3.10913  -2
 -13  11   8 43.0307 3.10913   1
   3  11   8 6.45203 1.47808  -2
 -11  11   8 6.45203 1.47808   1
   1  11   8 53.5677 2.35960  -2
  -9  11   8 53.5677 2.35960   1
  -1  11   8 69.9571 2.27580  -2
  -7  11   8 69.9571 2.27580   1
  -3  11   8 2.48233 1.01909  -2
  -5  11   8 2.48233 1.01909   1
  -5  11   8 10.4215 1.14336  -2
  -3  11   8 10.4215 1.14336   1
  -7  11   8 27.2840 1.82074  -2
  -1  11   8 27.2840 1.82074   1
  -9  11   8 105.894 3.56646  -2
   1  11   8 105.894 3.56646   1
 -11  11   8 7.47610 1.50179  -2
   3  11   8 7.47610 1.50179   1
 -13  11   8 83.9786 3.23135  -2
   5  11   8 83.9786 3.23135   1
 -15  11   8 24.7308 1.99417  -2
   7  11   8 24.7308 1.99417   1
   2  12   8 47.7708 3.15573  -2
 -10  12   8 47.7708 3.15573   1
 -10  12   8 45.0408 3.12769   1
  -8  12   8 230.063 8.76981   1
   0  12   8 245.196 8.62903  -2
  -8  12   8 245.196 8.62903   1
  -6  12   8 36.7116 2.88444   1
  -4  12   8 189.788 7.54493   1
  -4  12   8 254.033 10.2318  -2
  -4  12   8 254.033 10.2318   1
  -2  12   8 24.6186 2.48636   1
  -6  12   8 26.9621 3.48811  -2
  -2  12   8 26.9621 3.48811   1
  -8  12   8 129.491 4.01515  -2
   0  12   8 129.491 4.01515   1
 -10  12   8 35.8954 2.12338  -2
   2  12   8 35.8954 2.12338   1
 -28   0   9 -0.0411 1.01627   1
 -26   0   9 0.32800 0.79938   1
 -24   0   9 0.54415 0.47970   1
 -22   0   9 0.77017 0.46740   1
  12   0   9 2.30448 2.32949  -2
 -22   0   9 2.30448 2.32949   1
 -20   0   9 0.79407 0.35669   1
  10   0   9 -0.2806 2.15475  -2
 -20   0   9 -0.2806 2.15475   1
 -18   0   9 0.30934 0.31144   1
   8   0   9 0.39453 1.10990  -2
 -18   0   9 0.39453 1.10990   1
   6   0   9 -0.0402 1.07666  -2
 -16   0   9 -0.0402 1.07666   1
 -16   0   9 0.50113 0.31513   1
 -14   0   9 0.19748 0.22628   1
   4   0   9 1.63445 1.27934  -2
 -14   0   9 1.63445 1.27934   1
 -12   0   9 0.32784 0.19678   1
 -10   0   9 0.37884 0.14198   1
  -8   0   9 0.17344 0.17866   1
  -6   0   9 0.10715 0.20684   1
  -4   0   9 0.42333 0.19145   1
  -2   0   9 -0.0512 0.18864   1
   0   0   9 0.49107 0.28653   1
   2   0   9 0.70286 0.42038   1
   4   0   9 0.21959 0.35141   1
   6   0   9 -0.0837 0.38444   1
 -16   0   9 1.39410 1.66107  -2
   6   0   9 1.39410 1.66107   1
 -18   0   9 -1.5854 1.83412  -2
   8   0   9 -1.5854 1.83412   1
   8   0   9 0.68398 0.59376   1
 -20   0   9 -0.4171 2.04580  -2
  10   0   9 -0.4171 2.04580   1
  10   0   9 0.41376 0.68766   1
 -22   0   9 -0.7088 1.01919  -2
  12   0   9 -0.7088 1.01919   1
 -24   0   9 -0.9448 1.26350  -2
  14   0   9 -0.9448 1.26350   1
 -26   0   9 -1.9910 1.40168  -2
  16   0   9 -1.9910 1.40168   1
 -28   0   9 3.16035 1.98901  -2
  18   0   9 3.16035 1.98901   1
 -27   1   9 24.8261 1.56816   1
 -25   1   9 480.360 6.57508   1
 -23   1   9 21.4696 0.68131   1
  13   1   9 109.924 5.84048  -2
 -23   1   9 109.924 5.84048   1
 -21   1   9 1031.59 10.6967   1
  11   1   9 1078.29 24.6188  -2
 -21   1   9 1078.29 24.6188   1
 -19   1   9 168.311 1.95039   1
   9   1   9 325.136 8.36484  -2
 -19   1   9 325.136 8.36484   1
 -17   1   9 650.171 6.44270   1
   7   1   9 678.518 10.9689  -2
 -17   1   9 678.518 10.9689   1
 -15   1   9 58.6815 0.72052   1
   5   1   9 178.040 4.31409  -2
 -15   1   9 178.040 4.31409   1
 -13   1   9 158.208 1.45152   1
   3   1   9 196.922 7.03883  -2
 -13   1   9 196.922 7.03883   1
 -11   1   9 216.729 1.81086   1
  -9   1   9 256.225 2.01684   1
  -7   1   9 1793.52 16.9616   1
  -5   1   9 636.321 7.42705   1
  -3   1   9 2221.29 25.0567   1
  -1   1   9 35.4285 0.67466   1
   1   1   9 951.030 14.4098   1
 -11   1   9 1028.85 32.0000  -2
   1   1   9 1028.85 32.0000   1
   3   1   9 104.156 1.52601   1
 -15   1   9 533.167 12.1326  -2
   5   1   9 533.167 12.1326   1
   5   1   9 522.033 7.40223   1
   7   1   9 12.3089 0.59637   1
 -17   1   9 147.829 5.81949  -2
   7   1   9 147.829 5.81949   1
 -19   1   9 806.045 18.4118  -2
   9   1   9 806.045 18.4118   1
   9   1   9 724.823 15.1404   1
 -21   1   9 230.315 6.14169  -2
  11   1   9 230.315 6.14169   1
  11   1   9 18.5235 1.44475   1
 -23   1   9 434.841 7.33837  -2
  13   1   9 434.841 7.33837   1
 -25   1   9 101.951 2.33214  -2
  15   1   9 101.951 2.33214   1
 -27   1   9 80.6749 2.40628  -2
  17   1   9 80.6749 2.40628   1
  19   1   9 9.59647 1.41954   1
 -28   2   9 6.03069 1.12712   1
 -26   2   9 15.6753 1.34543   1
 -24   2   9 6.74609 0.63425   1
 -22   2   9 12.9014 0.59336   1
 -20   2   9 48.9944 1.01283   1
  10   2   9 51.9915 1.64034  -2
 -20   2   9 51.9915 1.64034   1
 -18   2   9 12.6407 0.43699   1
   8   2   9 18.3828 1.04851  -2
 -18   2   9 18.3828 1.04851   1
 -16   2   9 7.41499 0.32821   1
   6   2   9 17.8107 1.11821  -2
 -16   2   9 17.8107 1.11821   1
 -14   2   9 25.9673 0.49360   1
   4   2   9 35.7937 1.20881  -2
 -14   2   9 35.7937 1.20881   1
 -12   2   9 3.06080 0.19552   1
 -10   2   9 18.5070 0.30907   1
  -8   2   9 53.2526 0.66802   1
  -6   2   9 13.6533 0.34786   1
  -4   2   9 1.56625 0.19497   1
  -2   2   9 1.89480 0.21662   1
   0   2   9 8.75014 0.42756   1
   2   2   9 26.5086 0.66211   1
   4   2   9 41.2648 0.96743   1
 -14   2   9 46.7320 2.41956  -2
   4   2   9 46.7320 2.41956   1
 -16   2   9 53.1350 2.23077  -2
   6   2   9 53.1350 2.23077   1
   6   2   9 48.9091 1.32888   1
   8   2   9 18.3022 0.99861   1
 -18   2   9 19.7598 1.69489  -2
   8   2   9 19.7598 1.69489   1
 -20   2   9 19.5231 1.10556  -2
  10   2   9 19.5231 1.10556   1
  10   2   9 10.0032 1.51893   1
 -22   2   9 24.6040 1.23722  -2
  12   2   9 24.6040 1.23722   1
 -24   2   9 4.61564 0.99237  -2
  14   2   9 4.61564 0.99237   1
 -26   2   9 9.08153 1.19412  -2
  16   2   9 9.08153 1.19412   1
  18   2   9 38.4424 2.80299   1
 -28   2   9 47.3566 3.56948  -2
  18   2   9 47.3566 3.56948   1
  17   3   9 29.2349 2.76590  -2
 -27   3   9 29.2349 2.76590   1
 -27   3   9 5.90354 1.65309   1
 -25   3   9 457.608 7.77072   1
  15   3   9 469.269 15.1183  -2
 -25   3   9 469.269 15.1183   1
 -23   3   9 1.92825 0.51254   1
  13   3   9 28.0648 1.88322  -2
 -23   3   9 28.0648 1.88322   1
 -21   3   9 334.539 4.01706   1
  11   3   9 356.830 7.38095  -2
 -21   3   9 356.830 7.38095   1
 -19   3   9 3.56953 0.33823   1
   9   3   9 77.3217 2.35593  -2
 -19   3   9 77.3217 2.35593   1
 -17   3   9 573.415 5.48844   1
   7   3   9 581.128 13.6476  -2
 -17   3   9 581.128 13.6476   1
 -15   3   9 299.540 2.77257   1
   5   3   9 596.253 13.7226  -2
 -15   3   9 596.253 13.7226   1
 -13   3   9 709.394 5.89043   1
   3   3   9 721.000 23.1521  -2
 -13   3   9 721.000 23.1521   1
 -11   3   9 808.404 6.92682   1
   1   3   9 1112.15 34.8250  -2
 -11   3   9 1112.15 34.8250   1
  -9   3   9 386.030 3.42622   1
  -1   3   9 439.139 13.7514  -2
  -9   3   9 439.139 13.7514   1
  -7   3   9 486.587 4.05893   1
  -3   3   9 681.855 21.8577  -2
  -7   3   9 681.855 21.8577   1
  -5   3   9 4.83699 0.27199   1
  -5   3   9 4.93880 1.39185  -2
  -5   3   9 4.93880 1.39185   1
  -3   3   9 790.850 8.56851   1
  -1   3   9 14.7911 0.42674   1
   1   3   9 1332.35 18.2475   1
 -11   3   9 1559.06 48.0665  -2
   1   3   9 1559.06 48.0665   1
   3   3   9 68.6601 1.31962   1
   5   3   9 1291.88 17.8117   1
 -15   3   9 1437.82 44.0057  -2
   5   3   9 1437.82 44.0057   1
 -17   3   9 127.644 3.92642  -2
   7   3   9 127.644 3.92642   1
   7   3   9 6.99181 0.83857   1
 -19   3   9 292.976 5.02187  -2
   9   3   9 292.976 5.02187   1
   9   3   9 270.995 10.3208   1
 -21   3   9 87.7229 2.47382  -2
  11   3   9 87.7229 2.47382   1
  11   3   9 27.3474 1.74873   1
 -23   3   9 137.762 3.76363  -2
  13   3   9 137.762 3.76363   1
  13   3   9 122.284 4.69822   1
  15   3   9 10.2560 1.66163   1
 -25   3   9 93.4259 2.75895  -2
  15   3   9 93.4259 2.75895   1
 -27   3   9 119.874 4.45579  -2
  17   3   9 119.874 4.45579   1
  17   3   9 110.302 4.87376   1
 -26   4   9 2.94187 0.95297   1
 -24   4   9 16.8729 1.27818   1
  14   4   9 39.6199 3.85399  -2
 -24   4   9 39.6199 3.85399   1
 -22   4   9 1.10141 0.41429   1
  12   4   9 2.37871 1.59506  -2
 -22   4   9 2.37871 1.59506   1
 -20   4   9 61.3308 1.16897   1
  10   4   9 84.6405 2.60271  -2
 -20   4   9 84.6405 2.60271   1
 -18   4   9 4.15540 0.37533   1
   8   4   9 8.24450 1.36704  -2
 -18   4   9 8.24450 1.36704   1
 -16   4   9 29.9662 0.59859   1
   6   4   9 32.2615 1.88839  -2
 -16   4   9 32.2615 1.88839   1
 -14   4   9 9.96426 0.33770   1
   4   4   9 37.7828 1.75913  -2
 -14   4   9 37.7828 1.75913   1
   2   4   9 14.5403 1.08415  -2
 -12   4   9 14.5403 1.08415   1
 -12   4   9 10.6785 0.34457   1
   0   4   9 37.0222 1.79008  -2
 -10   4   9 37.0222 1.79008   1
 -10   4   9 28.3903 0.50233   1
  -8   4   9 2.86597 0.21117   1
  -6   4   9 105.380 1.27088   1
  -4   4   9 143.074 5.39961  -2
  -6   4   9 143.074 5.39961   1
  -4   4   9 113.977 1.60328   1
  -6   4   9 141.002 5.16946  -2
  -4   4   9 141.002 5.16946   1
  -2   4   9 122.628 1.62015   1
   0   4   9 31.6881 0.60115   1
   2   4   9 15.2160 0.64238   1
 -14   4   9 123.776 5.58329  -2
   4   4   9 123.776 5.58329   1
   4   4   9 122.633 3.61347   1
 -16   4   9 11.0482 1.25226  -2
   6   4   9 11.0482 1.25226   1
   6   4   9 3.56334 0.85712   1
 -18   4   9 1.62562 0.94042  -2
   8   4   9 1.62562 0.94042   1
   8   4   9 1.68409 0.48846   1
 -20   4   9 107.369 3.21683  -2
  10   4   9 107.369 3.21683   1
  10   4   9 87.6483 2.68421   1
 -22   4   9 4.47518 1.31487  -2
  12   4   9 4.47518 1.31487   1
  12   4   9 7.73008 1.36998   1
 -24   4   9 68.8265 2.73713  -2
  14   4   9 68.8265 2.73713   1
  14   4   9 56.0811 3.01357   1
 -26   4   9 -0.4684 1.51614  -2
  16   4   9 -0.4684 1.51614   1
  16   4   9 1.70086 1.20224   1
  18   4   9 4.91293 1.19310   1
 -25   5   9 314.098 7.57140   1
 -23   5   9 50.9555 1.76052   1
 -21   5   9 172.215 3.28248   1
  11   5   9 191.978 5.03851  -2
 -21   5   9 191.978 5.03851   1
   9   5   9 77.7335 3.03240  -2
 -19   5   9 77.7335 3.03240   1
 -19   5   9 3.10115 0.41282   1
   7   5   9 374.034 9.33744  -2
 -17   5   9 374.034 9.33744   1
 -17   5   9 352.135 3.94201   1
 -15   5   9 300.632 3.04139   1
   5   5   9 460.079 11.0554  -2
 -15   5   9 460.079 11.0554   1
 -13   5   9 959.690 9.35956   1
   3   5   9 1025.13 18.8197  -2
 -13   5   9 1025.13 18.8197   1
 -11   5   9 532.808 5.10187   1
   1   5   9 813.524 18.4708  -2
 -11   5   9 813.524 18.4708   1
  -9   5   9 78.0918 1.01359   1
  -1   5   9 83.6499 2.90740  -2
  -9   5   9 83.6499 2.90740   1
  -7   5   9 266.719 2.66520   1
  -3   5   9 341.889 11.9551  -2
  -7   5   9 341.889 11.9551   1
  -5   5   9 2.84209 1.41975  -2
  -5   5   9 2.84209 1.41975   1
  -5   5   9 1.35840 0.22019   1
  -3   5   9 361.548 3.76343   1
  -1   5   9 9.40961 0.47490   1
   1   5   9 1240.83 14.2939   1
   3   5   9 28.6171 0.78547   1
   5   5   9 630.229 9.84720   1
 -15   5   9 706.781 23.5099  -2
   5   5   9 706.781 23.5099   1
 -17   5   9 74.1855 2.30662  -2
   7   5   9 74.1855 2.30662   1
   7   5   9 1.27017 0.60921   1
 -19   5   9 368.005 7.55260  -2
   9   5   9 368.005 7.55260   1
   9   5   9 357.524 11.2883   1
 -21   5   9 72.3856 2.54521  -2
  11   5   9 72.3856 2.54521   1
  11   5   9 38.1506 2.36184   1
 -23   5   9 100.148 3.86114  -2
  13   5   9 100.148 3.86114   1
  13   5   9 76.3971 3.64816   1
 -25   5   9 75.3793 3.10429  -2
  15   5   9 75.3793 3.10429   1
  15   5   9 5.79909 1.46457   1
  17   5   9 49.7849 2.47975   1
 -24   6   9 71.6143 2.53943   1
 -22   6   9 2.68577 0.58140   1
  12   6   9 4.58339 2.64157  -2
 -22   6   9 4.58339 2.64157   1
 -20   6   9 18.4404 0.78913   1
  10   6   9 45.7886 3.12652  -2
 -20   6   9 45.7886 3.12652   1
 -18   6   9 1.87928 0.33103   1
   8   6   9 5.47837 2.29627  -2
 -18   6   9 5.47837 2.29627   1
   6   6   9 78.9883 2.97608  -2
 -16   6   9 78.9883 2.97608   1
 -16   6   9 61.7436 1.27493   1
 -14   6   9 0.74478 0.25289   1
   4   6   9 2.47774 1.93179  -2
 -14   6   9 2.47774 1.93179   1
 -12   6   9 34.7071 0.63553   1
   2   6   9 37.8341 1.99996  -2
 -12   6   9 37.8341 1.99996   1
 -10   6   9 46.2757 0.88316   1
   0   6   9 49.2877 1.51359  -2
 -10   6   9 49.2877 1.51359   1
  -8   6   9 45.4925 0.74417   1
  -6   6   9 14.1174 0.42428   1
  -4   6   9 45.8795 0.83672   1
  -2   6   9 141.529 2.08122   1
  -8   6   9 156.532 5.68562  -2
  -2   6   9 156.532 5.68562   1
   0   6   9 2.22325 0.36192   1
 -10   6   9 13.8986 2.03253  -2
   0   6   9 13.8986 2.03253   1
   2   6   9 11.8055 0.81831   1
 -12   6   9 18.2582 1.69615  -2
   2   6   9 18.2582 1.69615   1
   4   6   9 4.48764 0.57852   1
 -14   6   9 3.84212 2.20824  -2
   4   6   9 3.84212 2.20824   1
 -16   6   9 58.5218 2.02543  -2
   6   6   9 58.5218 2.02543   1
   6   6   9 45.2115 1.91912   1
   8   6   9 12.7472 1.06620   1
 -18   6   9 12.7691 1.52843  -2
   8   6   9 12.7691 1.52843   1
 -20   6   9 109.922 3.36963  -2
  10   6   9 109.922 3.36963   1
  10   6   9 98.8704 4.22707   1
  12   6   9 8.85236 1.56600   1
 -22   6   9 8.96284 1.88337  -2
  12   6   9 8.96284 1.88337   1
 -24   6   9 46.0237 2.07280  -2
  14   6   9 46.0237 2.07280   1
  16   6   9 28.3697 1.97737   1
 -23   7   9 6.71398 1.64020   1
 -21   7   9 319.492 6.39515   1
 -19   7   9 13.4787 0.93711   1
   9   7   9 60.6244 3.46027  -2
 -19   7   9 60.6244 3.46027   1
 -17   7   9 301.076 3.99374   1
 -15   7   9 19.7623 0.68628   1
   5   7   9 126.107 6.04136  -2
 -15   7   9 126.107 6.04136   1
 -13   7   9 48.4425 0.90525   1
   3   7   9 57.6673 2.02271  -2
 -13   7   9 57.6673 2.02271   1
   1   7   9 158.949 2.88175  -2
 -11   7   9 158.949 2.88175   1
 -11   7   9 114.014 1.79342   1
  -9   7   9 230.681 3.32917   1
  -1   7   9 241.559 4.37774  -2
  -9   7   9 241.559 4.37774   1
  -7   7   9 419.520 4.88194   1
  -3   7   9 563.070 12.7652  -2
  -7   7   9 563.070 12.7652   1
  -5   7   9 61.3662 1.08156   1
  -5   7   9 77.1405 3.72345  -2
  -5   7   9 77.1405 3.72345   1
  -3   7   9 537.446 6.65060   1
  -7   7   9 653.128 19.9859  -2
  -3   7   9 653.128 19.9859   1
  -1   7   9 1.85921 0.33727   1
  -9   7   9 57.8851 3.03422  -2
  -1   7   9 57.8851 3.03422   1
   1   7   9 192.385 2.97752   1
 -11   7   9 205.463 7.84361  -2
   1   7   9 205.463 7.84361   1
 -13   7   9 22.2825 1.64529  -2
   3   7   9 22.2825 1.64529   1
   3   7   9 12.9629 1.17536   1
 -15   7   9 475.273 11.6274  -2
   5   7   9 475.273 11.6274   1
   5   7   9 455.006 10.1260   1
   7   7   9 3.47810 0.81020   1
 -17   7   9 70.1652 3.12901  -2
   7   7   9 70.1652 3.12901   1
   9   7   9 246.473 6.08848   1
 -19   7   9 247.481 7.00283  -2
   9   7   9 247.481 7.00283   1
  11   7   9 1.68425 0.74300   1
 -21   7   9 73.6147 3.17318  -2
  11   7   9 73.6147 3.17318   1
  13   7   9 122.711 3.77680   1
 -23   7   9 133.563 4.87103  -2
  13   7   9 133.563 4.87103   1
  15   7   9 12.4375 1.69350   1
 -22   8   9 10.3911 1.94971   1
 -20   8   9 37.6580 1.77685   1
 -18   8   9 2.34517 0.60836   1
   8   8   9 2.07272 1.69594  -2
 -18   8   9 2.07272 1.69594   1
 -16   8   9 37.4567 0.99007   1
 -14   8   9 37.0318 1.03716   1
   4   8   9 49.3774 3.64074  -2
 -14   8   9 49.3774 3.64074   1
 -12   8   9 176.817 2.38169   1
   2   8   9 240.553 5.33432  -2
 -12   8   9 240.553 5.33432   1
   0   8   9 51.0454 1.52315  -2
 -10   8   9 51.0454 1.52315   1
 -10   8   9 45.8927 1.15407   1
  -8   8   9 59.7891 1.15440   1
  -2   8   9 64.9535 2.25872  -2
  -8   8   9 64.9535 2.25872   1
  -4   8   9 41.4138 1.71967  -2
  -6   8   9 41.4138 1.71967   1
  -6   8   9 35.2448 0.92702   1
  -4   8   9 22.7270 0.85569   1
  -6   8   9 31.8831 2.61674  -2
  -4   8   9 31.8831 2.61674   1
  -2   8   9 9.20158 0.69667   1
  -8   8   9 23.7357 1.84648  -2
  -2   8   9 23.7357 1.84648   1
   0   8   9 2.73539 0.48350   1
 -10   8   9 14.4189 1.55133  -2
   0   8   9 14.4189 1.55133   1
 -12   8   9 261.738 5.68397  -2
   2   8   9 261.738 5.68397   1
   2   8   9 215.188 5.54348   1
   4   8   9 30.0370 1.71469   1
 -14   8   9 39.0469 2.24950  -2
   4   8   9 39.0469 2.24950   1
 -16   8   9 204.868 5.68837  -2
   6   8   9 204.868 5.68837   1
   6   8   9 196.979 7.15621   1
 -18   8   9 6.04075 1.63675  -2
   8   8   9 6.04075 1.63675   1
   8   8   9 3.99624 1.27654   1
  10   8   9 5.23828 1.02701   1
 -20   8   9 15.9529 2.14985  -2
  10   8   9 15.9529 2.14985   1
  12   8   9 111.793 3.63305   1
 -22   8   9 123.426 6.72398  -2
  12   8   9 123.426 6.72398   1
 -21   9   9 326.722 11.4192   1
 -19   9   9 30.4975 1.71780   1
 -17   9   9 93.1160 2.37250   1
 -15   9   9 6.42061 0.72377   1
   5   9   9 34.6499 2.94351  -2
 -15   9   9 34.6499 2.94351   1
   3   9   9 45.1458 3.34665  -2
 -13   9   9 45.1458 3.34665   1
 -13   9   9 43.5797 1.26260   1
 -11   9   9 26.5474 0.91849   1
   1   9   9 70.7581 2.35216  -2
 -11   9   9 70.7581 2.35216   1
  -9   9   9 52.1677 1.20281   1
  -1   9   9 53.9027 2.04848  -2
  -9   9   9 53.9027 2.04848   1
  -7   9   9 309.697 4.77628   1
  -3   9   9 353.648 7.00648  -2
  -7   9   9 353.648 7.00648   1
  -5   9   9 91.1830 1.64434   1
  -5   9   9 111.941 5.19842  -2
  -5   9   9 111.941 5.19842   1
  -3   9   9 183.243 3.93822   1
  -7   9   9 265.118 7.13425  -2
  -3   9   9 265.118 7.13425   1
  -1   9   9 6.21789 0.69857   1
  -9   9   9 16.7415 2.37322  -2
  -1   9   9 16.7415 2.37322   1
   1   9   9 199.149 4.51081   1
 -11   9   9 214.683 8.18320  -2
   1   9   9 214.683 8.18320   1
   3   9   9 17.0583 2.01738   1
 -13   9   9 28.9428 1.84568  -2
   3   9   9 28.9428 1.84568   1
 -15   9   9 132.603 5.86147  -2
   5   9   9 132.603 5.86147   1
   5   9   9 120.133 5.02531   1
 -17   9   9 26.3742 1.66812  -2
   7   9   9 26.3742 1.66812   1
 -19   9   9 162.810 4.09175  -2
   9   9   9 162.810 4.09175   1
  11   9   9 12.1415 2.07738   1
 -21   9   9 93.1306 3.52916  -2
  11   9   9 93.1306 3.52916   1
 -18  10   9 3.69173 0.97798   1
 -16  10   9 120.748 3.66690   1
 -14  10   9 19.2990 1.40575   1
   2  10   9 96.4741 4.71409  -2
 -12  10   9 96.4741 4.71409   1
 -12  10   9 71.3144 3.48232   1
   0  10   9 35.1909 2.19867  -2
 -10  10   9 35.1909 2.19867   1
 -10  10   9 31.1012 1.34192   1
  -8  10   9 16.6940 0.83170   1
  -2  10   9 34.5966 1.85060  -2
  -8  10   9 34.5966 1.85060   1
  -6  10   9 1.89302 0.48632   1
  -4  10   9 5.66782 1.48617  -2
  -6  10   9 5.66782 1.48617   1
  -4  10   9 6.18360 0.73954   1
  -6  10   9 9.76269 2.47621  -2
  -4  10   9 9.76269 2.47621   1
  -2  10   9 65.3236 1.91370   1
  -8  10   9 74.3384 4.43525  -2
  -2  10   9 74.3384 4.43525   1
 -10  10   9 10.4774 2.31731  -2
   0  10   9 10.4774 2.31731   1
   0  10   9 2.95431 0.66382   1
 -12  10   9 112.341 5.49905  -2
   2  10   9 112.341 5.49905   1
   2  10   9 82.4021 2.89348   1
 -14  10   9 16.7439 1.77173  -2
   4  10   9 16.7439 1.77173   1
   4  10   9 12.7234 2.17049   1
 -16  10   9 133.657 4.22626  -2
   6  10   9 133.657 4.22626   1
 -18  10   9 17.6209 2.83220  -2
   8  10   9 17.6209 2.83220   1
   8  10   9 17.0581 2.07026   1
 -15  11   9 32.7941 1.85051   1
 -13  11   9 76.2196 2.75612   1
   1  11   9 41.8802 3.30813  -2
 -11  11   9 41.8802 3.30813   1
 -11  11   9 17.2380 2.17192   1
  -9  11   9 4.31658 1.31095   1
  -1  11   9 13.6732 1.82612  -2
  -9  11   9 13.6732 1.82612   1
  -3  11   9 42.2816 2.36401  -2
  -7  11   9 42.2816 2.36401   1
  -7  11   9 5.74754 1.31261   1
  -5  11   9 3.50884 1.51190  -2
  -5  11   9 3.50884 1.51190   1
  -5  11   9 0.38506 0.91272   1
  -3  11   9 165.020 6.02493   1
  -7  11   9 182.138 7.84265  -2
  -3  11   9 182.138 7.84265   1
  -9  11   9 27.1862 3.19268  -2
  -1  11   9 27.1862 3.19268   1
  -1  11   9 23.3784 1.91858   1
 -11  11   9 136.158 4.20500  -2
   1  11   9 136.158 4.20500   1
 -13  11   9 25.5699 2.96023  -2
   3  11   9 25.5699 2.96023   1
   3  11   9 10.7273 1.84070   1
 -15  11   9 56.5186 2.76515  -2
   5  11   9 56.5186 2.76515   1
 -10  12   9 0.07439 1.11132   1
   0  12   9 2.27210 2.30814  -2
 -10  12   9 2.27210 2.30814   1
  -2  12   9 51.0710 3.70184  -2
  -8  12   9 51.0710 3.70184   1
  -4  12   9 104.405 3.89364  -2
  -6  12   9 104.405 3.89364   1
  -6  12   9 75.4697 3.28533  -2
  -4  12   9 75.4697 3.28533   1
  -8  12   9 86.2759 5.25552  -2
  -2  12   9 86.2759 5.25552   1
  -2  12   9 74.8484 3.40966   1
 -10  12   9 2.60390 1.90059  -2
   0  12   9 2.60390 1.90059   1
   0  12   9 7.01386 1.93306   1
 -28   0  10 120.307 5.25048   1
 -26   0  10 4.12441 1.38175   1
 -24   0  10 35.8164 1.45996   1
  14   0  10 53.6055 3.13862  -2
 -24   0  10 53.6055 3.13862   1
  12   0  10 99.5767 4.24434  -2
 -22   0  10 99.5767 4.24434   1
 -22   0  10 90.7541 2.19339   1
 -20   0  10 22.4626 0.73462   1
 -18   0  10 10.1334 0.60736   1
   8   0  10 11.4328 1.91975  -2
 -18   0  10 11.4328 1.91975   1
 -16   0  10 333.636 4.88945   1
   6   0  10 389.716 7.38012  -2
 -16   0  10 389.716 7.38012   1
 -14   0  10 76.2580 1.39944   1
   4   0  10 94.7125 2.43178  -2
 -14   0  10 94.7125 2.43178   1
   2   0  10 163.616 4.16004  -2
 -12   0  10 163.616 4.16004   1
 -12   0  10 165.456 2.34573   1
 -10   0  10 13.7145 0.59993   1
   0   0  10 30.3089 1.46981  -2
 -10   0  10 30.3089 1.46981   1
  -2   0  10 4.59564 0.98778  -2
  -8   0  10 4.59564 0.98778   1
  -8   0  10 1.95556 0.29673   1
  -6   0  10 222.663 4.22777   1
  -4   0  10 268.338 9.07131  -2
  -6   0  10 268.338 9.07131   1
  -4   0  10 176.243 3.47043   1
  -6   0  10 230.631 7.34019  -2
  -4   0  10 230.631 7.34019   1
  -2   0  10 7.14240 0.47983   1
  -8   0  10 6.98838 1.04285  -2
  -2   0  10 6.98838 1.04285   1
   0   0  10 6.07931 1.08184   1
 -10   0  10 18.4298 1.53574  -2
   0   0  10 18.4298 1.53574   1
   4   0  10 20.4951 1.08523   1
 -14   0  10 46.9437 2.77025  -2
   4   0  10 46.9437 2.77025   1
   6   0  10 56.2854 2.65278   1
 -16   0  10 126.582 3.61449  -2
   6   0  10 126.582 3.61449   1
 -18   0  10 23.4017 2.74801  -2
   8   0  10 23.4017 2.74801   1
   8   0  10 23.8604 1.47767   1
 -20   0  10 165.934 4.46204  -2
  10   0  10 165.934 4.46204   1
 -22   0  10 69.3825 2.59397  -2
  12   0  10 69.3825 2.59397   1
 -24   0  10 78.2685 3.05322  -2
  14   0  10 78.2685 3.05322   1
 -26   0  10 14.5880 3.24521  -2
  16   0  10 14.5880 3.24521   1
  16   0  10 15.2492 2.11789   1
  18   0  10 16.4052 2.32427   1
 -29   1  10 1.06133 0.84667   1
 -27   1  10 21.9777 1.48425   1
 -25   1  10 56.8999 1.36850   1
  15   1  10 61.7308 3.52811  -2
 -25   1  10 61.7308 3.52811   1
 -23   1  10 1.95186 0.40837   1
  13   1  10 1.23966 1.13097  -2
 -23   1  10 1.23966 1.13097   1
 -21   1  10 86.2865 1.18387   1
  11   1  10 103.772 4.32110  -2
 -21   1  10 103.772 4.32110   1
 -19   1  10 1.93445 0.29297   1
   9   1  10 6.24011 1.07080  -2
 -19   1  10 6.24011 1.07080   1
 -17   1  10 12.6048 0.38311   1
   7   1  10 11.7111 0.97402  -2
 -17   1  10 11.7111 0.97402   1
   5   1  10 3.21405 0.55629  -2
 -15   1  10 3.21405 0.55629   1
 -15   1  10 2.08569 0.25277   1
   3   1  10 2.17884 0.51777  -2
 -13   1  10 2.17884 0.51777   1
 -13   1  10 1.13751 0.20610   1
   1   1  10 124.062 1.95881  -2
 -11   1  10 124.062 1.95881   1
 -11   1  10 110.054 1.33609   1
  -9   1  10 4.08061 0.20508   1
  -1   1  10 3.50136 0.81273  -2
  -9   1  10 3.50136 0.81273   1
  -7   1  10 28.0412 0.59986   1
  -3   1  10 51.8627 1.81387  -2
  -7   1  10 51.8627 1.81387   1
  -5   1  10 1.33192 0.23554   1
  -5   1  10 1.81961 0.58913  -2
  -5   1  10 1.81961 0.58913   1
  -3   1  10 103.123 1.54809   1
  -7   1  10 105.667 4.02131  -2
  -3   1  10 105.667 4.02131   1
  -1   1  10 5.07900 0.39524   1
  -9   1  10 4.33866 1.12406  -2
  -1   1  10 4.33866 1.12406   1
   1   1  10 51.0160 1.36663   1
 -11   1  10 29.7959 1.76481  -2
   1   1  10 29.7959 1.76481   1
   3   1  10 2.92347 0.39996   1
 -13   1  10 4.63332 0.81169  -2
   3   1  10 4.63332 0.81169   1
   5   1  10 0.17494 0.56262   1
 -15   1  10 1.55889 0.72545  -2
   5   1  10 1.55889 0.72545   1
 -17   1  10 2.22257 0.84323  -2
   7   1  10 2.22257 0.84323   1
   7   1  10 0.66626 0.66132   1
 -19   1  10 26.1715 2.90892  -2
   9   1  10 26.1715 2.90892   1
   9   1  10 20.0923 1.38104   1
 -21   1  10 88.1249 2.04695  -2
  11   1  10 88.1249 2.04695   1
  13   1  10 1.11960 1.57769   1
 -23   1  10 2.88332 0.95479  -2
  13   1  10 2.88332 0.95479   1
 -25   1  10 34.5729 1.49640  -2
  15   1  10 34.5729 1.49640   1
 -27   1  10 23.3911 1.75891  -2
  17   1  10 23.3911 1.75891   1
  17   1  10 24.9051 2.39352   1
 -28   2  10 86.6186 4.15888   1
  18   2  10 100.093 4.99962  -2
 -28   2  10 100.093 4.99962   1
  16   2  10 2.59089 1.98064  -2
 -26   2  10 2.59089 1.98064   1
 -26   2  10 0.51344 1.07349   1
 -24   2  10 86.5468 1.58208   1
  14   2  10 103.514 4.53483  -2
 -24   2  10 103.514 4.53483   1
 -22   2  10 17.2312 0.53181   1
 -20   2  10 84.8750 1.20105   1
  10   2  10 96.5713 2.61420  -2
 -20   2  10 96.5713 2.61420   1
   8   2  10 17.9280 0.85229  -2
 -18   2  10 17.9280 0.85229   1
 -18   2  10 17.4338 0.54621   1
   6   2  10 83.8133 1.34753  -2
 -16   2  10 83.8133 1.34753   1
 -16   2  10 64.9311 1.11372   1
   4   2  10 15.1789 0.60361  -2
 -14   2  10 15.1789 0.60361   1
 -14   2  10 5.73882 0.36215   1
 -12   2  10 150.516 1.92918   1
   2   2  10 213.355 3.29880  -2
 -12   2  10 213.355 3.29880   1
 -10   2  10 16.7897 0.39727   1
   0   2  10 17.2174 0.90473  -2
 -10   2  10 17.2174 0.90473   1
  -8   2  10 1.22960 0.16706   1
  -2   2  10 9.10425 0.65163  -2
  -8   2  10 9.10425 0.65163   1
  -4   2  10 11.5040 0.80802  -2
  -6   2  10 11.5040 0.80802   1
  -6   2  10 3.48014 0.25511   1
  -4   2  10 2.58793 0.33768   1
  -6   2  10 7.93583 0.77915  -2
  -4   2  10 7.93583 0.77915   1
  -2   2  10 41.5734 1.04213   1
  -8   2  10 40.0954 1.21101  -2
  -2   2  10 40.0954 1.21101   1
   0   2  10 22.2567 0.80338   1
 -10   2  10 14.1744 1.27381  -2
   0   2  10 14.1744 1.27381   1
   2   2  10 10.3671 0.69237   1
 -12   2  10 38.4767 1.17524  -2
   2   2  10 38.4767 1.17524   1
 -14   2  10 16.2572 0.79322  -2
   4   2  10 16.2572 0.79322   1
   4   2  10 12.4758 1.20404   1
 -16   2  10 65.6314 1.87489  -2
   6   2  10 65.6314 1.87489   1
   6   2  10 56.6818 1.83872   1
 -18   2  10 5.79477 1.09154  -2
   8   2  10 5.79477 1.09154   1
   8   2  10 4.62363 0.98887   1
 -20   2  10 28.9780 2.72740  -2
  10   2  10 28.9780 2.72740   1
  10   2  10 4.52231 0.90375   1
  12   2  10 19.8219 1.38538   1
 -22   2  10 23.7915 1.78155  -2
  12   2  10 23.7915 1.78155   1
 -24   2  10 91.1074 3.43320  -2
  14   2  10 91.1074 3.43320   1
  14   2  10 66.2018 2.63641   1
  16   2  10 5.71707 1.23683   1
 -26   2  10 4.43427 1.60550  -2
  16   2  10 4.43427 1.60550   1
  18   2  10 26.2368 1.78183   1
  17   3  10 48.8454 3.55403  -2
 -27   3  10 48.8454 3.55403   1
 -27   3  10 46.8219 2.83486   1
 -25   3  10 2.68750 0.75418   1
  15   3  10 4.22291 2.01380  -2
 -25   3  10 4.22291 2.01380   1
 -23   3  10 14.6873 0.72758   1
  13   3  10 16.2594 1.70301  -2
 -23   3  10 16.2594 1.70301   1
  11   3  10 6.08818 1.23903  -2
 -21   3  10 6.08818 1.23903   1
 -21   3  10 2.12646 0.39754   1
 -19   3  10 1.79811 0.28752   1
   9   3  10 9.05291 0.99321  -2
 -19   3  10 9.05291 0.99321   1
 -17   3  10 55.9720 0.94591   1
   7   3  10 75.8089 1.77315  -2
 -17   3  10 75.8089 1.77315   1
 -15   3  10 119.574 1.43355   1
   5   3  10 127.330 2.39856  -2
 -15   3  10 127.330 2.39856   1
 -13   3  10 45.1809 0.75627   1
   3   3  10 47.4124 1.09993  -2
 -13   3  10 47.4124 1.09993   1
 -11   3  10 54.0788 1.03982   1
   1   3  10 60.1976 1.09473  -2
 -11   3  10 60.1976 1.09473   1
  -1   3  10 3.12869 0.55757  -2
  -9   3  10 3.12869 0.55757   1
  -9   3  10 2.00086 0.21265   1
  -7   3  10 182.351 2.34714   1
  -3   3  10 202.540 3.58732  -2
  -7   3  10 202.540 3.58732   1
  -5   3  10 4.16118 0.39757   1
  -5   3  10 3.37242 0.61916  -2
  -5   3  10 3.37242 0.61916   1
  -3   3  10 21.7769 0.68113   1
  -7   3  10 63.2970 1.39161  -2
  -3   3  10 63.2970 1.39161   1
  -9   3  10 11.6717 0.73386  -2
  -1   3  10 11.6717 0.73386   1
  -1   3  10 11.3802 0.75317   1
   1   3  10 18.0404 0.84882   1
 -11   3  10 32.3985 1.48737  -2
   1   3  10 32.3985 1.48737   1
   3   3  10 8.06868 0.78932   1
 -13   3  10 13.1126 1.41895  -2
   3   3  10 13.1126 1.41895   1
   5   3  10 8.59779 0.92183   1
 -15   3  10 36.3921 1.44682  -2
   5   3  10 36.3921 1.44682   1
   7   3  10 89.0437 2.09711   1
 -17   3  10 100.413 3.49798  -2
   7   3  10 100.413 3.49798   1
   9   3  10 32.0818 1.89094   1
 -19   3  10 29.1357 1.94623  -2
   9   3  10 29.1357 1.94623   1
 -21   3  10 -0.1926 2.03419  -2
  11   3  10 -0.1926 2.03419   1
  11   3  10 1.09544 0.55034   1
 -23   3  10 13.2477 1.77450  -2
  13   3  10 13.2477 1.77450   1
  13   3  10 14.2767 1.45905   1
  15   3  10 0.54292 0.80766   1
 -25   3  10 1.90618 1.55978  -2
  15   3  10 1.90618 1.55978   1
 -27   3  10 27.9432 2.84160  -2
  17   3  10 27.9432 2.84160   1
  17   3  10 19.6219 2.42151   1
 -26   4  10 0.07943 1.02280   1
  16   4  10 3.13153 2.14773  -2
 -26   4  10 3.13153 2.14773   1
 -24   4  10 194.951 5.25666   1
  14   4  10 189.834 7.27508  -2
 -24   4  10 189.834 7.27508   1
 -22   4  10 26.4123 0.79788   1
  12   4  10 35.0099 3.26777  -2
 -22   4  10 35.0099 3.26777   1
 -20   4  10 180.203 2.58102   1
  10   4  10 189.300 5.08164  -2
 -20   4  10 189.300 5.08164   1
 -18   4  10 6.51808 0.40754   1
   8   4  10 9.40756 0.91549  -2
 -18   4  10 9.40756 0.91549   1
 -16   4  10 9.74037 0.42430   1
   6   4  10 12.4142 0.80810  -2
 -16   4  10 12.4142 0.80810   1
   4   4  10 195.677 2.96510  -2
 -14   4  10 195.677 2.96510   1
 -14   4  10 178.596 2.42572   1
   2   4  10 39.2591 0.93205  -2
 -12   4  10 39.2591 0.93205   1
 -12   4  10 8.30839 0.39916   1
   0   4  10 21.5739 0.64030  -2
 -10   4  10 21.5739 0.64030   1
 -10   4  10 7.34716 0.99484   1
  -2   4  10 168.524 3.18534  -2
  -8   4  10 168.524 3.18534   1
  -8   4  10 140.137 1.88240   1
  -4   4  10 34.5010 0.97962  -2
  -6   4  10 34.5010 0.97962   1
  -6   4  10 24.0761 0.74800   1
  -6   4  10 35.4902 0.96699  -2
  -4   4  10 35.4902 0.96699   1
  -4   4  10 25.3589 1.00307   1
  -8   4  10 41.1111 1.12611  -2
  -2   4  10 41.1111 1.12611   1
  -2   4  10 7.85394 0.51400   1
   0   4  10 36.5324 1.08916   1
 -10   4  10 45.4106 1.91382  -2
   0   4  10 45.4106 1.91382   1
 -12   4  10 153.918 4.13777  -2
   2   4  10 153.918 4.13777   1
   2   4  10 150.672 3.56769   1
 -14   4  10 100.571 4.23871  -2
   4   4  10 100.571 4.23871   1
   4   4  10 62.1699 1.71613   1
   6   4  10 11.0743 0.90547   1
 -16   4  10 10.4964 1.19872  -2
   6   4  10 10.4964 1.19872   1
 -18   4  10 13.0404 1.59596  -2
   8   4  10 13.0404 1.59596   1
   8   4  10 17.1500 1.20468   1
  10   4  10 17.8680 1.17087   1
 -20   4  10 60.6464 2.44669  -2
  10   4  10 60.6464 2.44669   1
  12   4  10 25.7362 1.64153   1
 -22   4  10 29.2528 2.10431  -2
  12   4  10 29.2528 2.10431   1
 -24   4  10 51.3578 2.48740  -2
  14   4  10 51.3578 2.48740   1
  14   4  10 1.26268 0.92724   1
 -26   4  10 8.14779 2.40293  -2
  16   4  10 8.14779 2.40293   1
  16   4  10 3.03157 1.14743   1
 -27   5  10 -0.2475 0.95726   1
  15   5  10 14.0630 2.48615  -2
 -25   5  10 14.0630 2.48615   1
 -25   5  10 3.62782 1.16759   1
  13   5  10 27.9191 2.68546  -2
 -23   5  10 27.9191 2.68546   1
 -23   5  10 30.0853 1.37775   1
 -21   5  10 3.69892 0.44445   1
  11   5  10 7.15875 2.36000  -2
 -21   5  10 7.15875 2.36000   1
   9   5  10 128.846 5.17111  -2
 -19   5  10 128.846 5.17111   1
 -19   5  10 127.146 1.84349   1
 -17   5  10 15.9818 0.65675   1
   7   5  10 17.7050 0.99476  -2
 -17   5  10 17.7050 0.99476   1
   5   5  10 86.8259 1.52685  -2
 -15   5  10 86.8259 1.52685   1
 -15   5  10 58.2099 1.21036   1
 -13   5  10 11.3877 0.58404   1
   3   5  10 36.5527 0.90859  -2
 -13   5  10 36.5527 0.90859   1
 -11   5  10 252.098 3.30364   1
   1   5  10 275.571 4.25640  -2
 -11   5  10 275.571 4.25640   1
  -9   5  10 11.1503 0.49685   1
  -1   5  10 11.7706 0.62498  -2
  -9   5  10 11.7706 0.62498   1
  -3   5  10 23.5954 0.86595  -2
  -7   5  10 23.5954 0.86595   1
  -7   5  10 18.6127 0.60925   1
  -5   5  10 46.7831 1.11733  -2
  -5   5  10 46.7831 1.11733   1
  -5   5  10 38.4442 1.13340   1
  -7   5  10 33.6760 0.98175  -2
  -3   5  10 33.6760 0.98175   1
  -3   5  10 30.0901 1.05060   1
  -9   5  10 7.20215 0.75037  -2
  -1   5  10 7.20215 0.75037   1
  -1   5  10 6.36804 0.60775   1
   1   5  10 35.4885 0.97085   1
 -11   5  10 98.5616 3.03276  -2
   1   5  10 98.5616 3.03276   1
   3   5  10 116.195 2.77938   1
 -13   5  10 110.704 4.96341  -2
   3   5  10 110.704 4.96341   1
   5   5  10 117.429 2.83882   1
 -15   5  10 118.364 5.13863  -2
   5   5  10 118.364 5.13863   1
 -17   5  10 5.89409 0.92264  -2
   7   5  10 5.89409 0.92264   1
   7   5  10 1.47558 0.65197   1
   9   5  10 44.2289 1.94244   1
 -19   5  10 73.4491 2.98215  -2
   9   5  10 73.4491 2.98215   1
 -21   5  10 15.9719 1.92682  -2
  11   5  10 15.9719 1.92682   1
  11   5  10 4.59415 0.99842   1
 -23   5  10 13.6264 1.96633  -2
  13   5  10 13.6264 1.96633   1
  13   5  10 11.3124 1.74968   1
 -25   5  10 18.1925 3.08541  -2
  15   5  10 18.1925 3.08541   1
  15   5  10 16.4675 2.02406   1
  14   6  10 31.1043 2.98718  -2
 -24   6  10 31.1043 2.98718   1
 -22   6  10 4.51336 0.97617   1
  12   6  10 3.76767 2.06580  -2
 -22   6  10 3.76767 2.06580   1
  10   6  10 168.598 4.83463  -2
 -20   6  10 168.598 4.83463   1
 -20   6  10 165.683 3.14788   1
 -18   6  10 3.68792 0.53579   1
   8   6  10 7.04439 1.22710  -2
 -18   6  10 7.04439 1.22710   1
 -16   6  10 30.9954 0.95169   1
   6   6  10 42.6252 1.33478  -2
 -16   6  10 42.6252 1.33478   1
 -14   6  10 19.2774 0.71965   1
   4   6  10 25.9423 0.90041  -2
 -14   6  10 25.9423 0.90041   1
   2   6  10 1.36696 0.57920  -2
 -12   6  10 1.36696 0.57920   1
 -12   6  10 1.77268 0.40053   1
   0   6  10 76.5988 1.36840  -2
 -10   6  10 76.5988 1.36840   1
 -10   6  10 75.3859 1.80050   1
  -2   6  10 7.20316 0.54402  -2
  -8   6  10 7.20316 0.54402   1
  -8   6  10 5.78980 0.59724   1
  -4   6  10 19.7504 0.80895  -2
  -6   6  10 19.7504 0.80895   1
  -6   6  10 13.2812 0.80831   1
  -4   6  10 20.0487 0.69578   1
  -6   6  10 25.9492 1.03348  -2
  -4   6  10 25.9492 1.03348   1
  -2   6  10 11.4218 1.35950   1
  -8   6  10 11.8643 0.76081  -2
  -2   6  10 11.8643 0.76081   1
 -10   6  10 20.0119 0.93658  -2
   0   6  10 20.0119 0.93658   1
   0   6  10 1.94552 0.75759   1
   2   6  10 1.74886 0.55299   1
 -12   6  10 5.32889 1.14118  -2
   2   6  10 5.32889 1.14118   1
 -14   6  10 33.9203 1.78228  -2
   4   6  10 33.9203 1.78228   1
   4   6  10 28.6484 1.29312   1
   6   6  10 52.9111 2.11176   1
 -16   6  10 61.1795 3.85492  -2
   6   6  10 61.1795 3.85492   1
 -18   6  10 6.72024 1.19936  -2
   8   6  10 6.72024 1.19936   1
   8   6  10 3.37644 1.56077   1
  10   6  10 12.6235 1.40685   1
 -20   6  10 52.3763 2.57238  -2
  10   6  10 52.3763 2.57238   1
 -22   6  10 5.30419 1.80370  -2
  12   6  10 5.30419 1.80370   1
  12   6  10 9.22239 1.63656   1
 -24   6  10 28.4709 3.33651  -2
  14   6  10 28.4709 3.33651   1
  14   6  10 18.4892 2.28285   1
  13   7  10 52.7302 3.63515  -2
 -23   7  10 52.7302 3.63515   1
  11   7  10 19.8433 2.48945  -2
 -21   7  10 19.8433 2.48945   1
 -21   7  10 14.6994 1.63970   1
   9   7  10 128.517 5.41441  -2
 -19   7  10 128.517 5.41441   1
 -19   7  10 125.744 2.33230   1
 -17   7  10 1.33658 0.43372   1
   7   7  10 10.0222 1.50833  -2
 -17   7  10 10.0222 1.50833   1
   5   7  10 212.583 3.64715  -2
 -15   7  10 212.583 3.64715   1
 -15   7  10 196.949 3.45371   1
 -13   7  10 2.03282 0.54384   1
   3   7  10 5.88039 0.69492  -2
 -13   7  10 5.88039 0.69492   1
 -11   7  10 37.1204 1.41418   1
   1   7  10 64.5989 1.28079  -2
 -11   7  10 64.5989 1.28079   1
  -1   7  10 68.2638 1.24167  -2
  -9   7  10 68.2638 1.24167   1
  -9   7  10 59.5026 2.09880   1
  -3   7  10 135.198 2.15434  -2
  -7   7  10 135.198 2.15434   1
  -7   7  10 106.056 2.47750   1
  -5   7  10 8.80797 0.67234  -2
  -5   7  10 8.80797 0.67234   1
  -5   7  10 9.08566 1.03962   1
  -3   7  10 127.502 2.62493   1
  -7   7  10 153.049 3.05216  -2
  -3   7  10 153.049 3.05216   1
  -1   7  10 38.2866 2.10758   1
  -9   7  10 48.5472 1.35279  -2
  -1   7  10 48.5472 1.35279   1
   1   7  10 120.160 5.79419   1
 -11   7  10 131.775 3.09395  -2
   1   7  10 131.775 3.09395   1
   3   7  10 0.49467 0.62558   1
 -13   7  10 3.58234 1.24667  -2
   3   7  10 3.58234 1.24667   1
   5   7  10 21.7781 1.48415   1
 -15   7  10 70.8157 2.70205  -2
   5   7  10 70.8157 2.70205   1
   7   7  10 2.22248 0.81234   1
 -17   7  10 2.56138 1.46656  -2
   7   7  10 2.56138 1.46656   1
 -19   7  10 31.4816 1.39212  -2
   9   7  10 31.4816 1.39212   1
 -21   7  10 27.6553 1.83817  -2
  11   7  10 27.6553 1.83817   1
  13   7  10 5.90535 1.56094   1
 -23   7  10 18.9871 3.07108  -2
  13   7  10 18.9871 3.07108   1
 -22   8  10 83.3941 3.76942   1
  12   8  10 83.8670 4.56072  -2
 -22   8  10 83.8670 4.56072   1
  10   8  10 8.21326 2.18142  -2
 -20   8  10 8.21326 2.18142   1
 -20   8  10 0.64270 0.98795   1
 -18   8  10 2.52258 0.50711   1
   8   8  10 7.15618 2.03430  -2
 -18   8  10 7.15618 2.03430   1
 -16   8  10 144.785 4.00178   1
   6   8  10 156.334 3.77124  -2
 -16   8  10 156.334 3.77124   1
   4   8  10 12.4987 1.37918  -2
 -14   8  10 12.4987 1.37918   1
 -14   8  10 9.44988 0.64850   1
   2   8  10 45.4692 1.21597  -2
 -12   8  10 45.4692 1.21597   1
 -12   8  10 41.8783 1.40011   1
 -10   8  10 17.7830 1.38684   1
   0   8  10 17.1693 0.79555  -2
 -10   8  10 17.1693 0.79555   1
  -2   8  10 41.0485 1.01013  -2
  -8   8  10 41.0485 1.01013   1
  -8   8  10 38.8541 1.81418   1
  -4   8  10 135.978 3.10663  -2
  -6   8  10 135.978 3.10663   1
  -6   8  10 141.634 4.30176   1
  -4   8  10 1.11379 0.65840   1
  -6   8  10 34.3112 1.73886  -2
  -4   8  10 34.3112 1.73886   1
  -2   8  10 17.0955 1.10202   1
  -8   8  10 24.4142 1.07968  -2
  -2   8  10 24.4142 1.07968   1
 -10   8  10 14.7774 1.08667  -2
   0   8  10 14.7774 1.08667   1
   0   8  10 9.34471 1.97113   1
 -12   8  10 15.2257 1.28544  -2
   2   8  10 15.2257 1.28544   1
   2   8  10 6.80485 1.77184   1
   4   8  10 0.54265 0.78324   1
 -14   8  10 5.13058 1.50732  -2
   4   8  10 5.13058 1.50732   1
 -16   8  10 62.2205 2.69142  -2
   6   8  10 62.2205 2.69142   1
   6   8  10 20.3295 2.04422   1
 -18   8  10 27.4703 2.13619  -2
   8   8  10 27.4703 2.13619   1
   8   8  10 23.1854 2.18384   1
 -20   8  10 27.7693 1.89183  -2
  10   8  10 27.7693 1.89183   1
  10   8  10 25.7498 2.39498   1
  12   8  10 1.49389 1.23473   1
 -22   8  10 20.7342 2.08058  -2
  12   8  10 20.7342 2.08058   1
 -21   9  10 7.34979 1.16030   1
 -19   9  10 128.445 5.34427   1
   9   9  10 131.666 5.72359  -2
 -19   9  10 131.666 5.72359   1
   7   9  10 9.37933 2.13790  -2
 -17   9  10 9.37933 2.13790   1
 -17   9  10 3.01295 1.24019   1
   5   9  10 69.8488 3.75823  -2
 -15   9  10 69.8488 3.75823   1
 -15   9  10 64.4000 1.99058   1
 -13   9  10 50.4289 2.05776   1
   3   9  10 60.0010 2.08967  -2
 -13   9  10 60.0010 2.08967   1
   1   9  10 71.1490 1.65004  -2
 -11   9  10 71.1490 1.65004   1
 -11   9  10 67.6536 2.19678   1
  -9   9  10 0.34206 0.69018   1
  -1   9  10 2.84699 0.72811  -2
  -9   9  10 2.84699 0.72811   1
  -7   9  10 178.661 5.06123   1
  -3   9  10 228.509 3.78165  -2
  -7   9  10 228.509 3.78165   1
  -5   9  10 31.4348 1.39880  -2
  -5   9  10 31.4348 1.39880   1
  -5   9  10 23.9894 1.69230   1
  -3   9  10 242.563 6.44418   1
  -7   9  10 276.500 5.65726  -2
  -3   9  10 276.500 5.65726   1
  -1   9  10 11.0855 2.22517   1
  -9   9  10 8.67518 1.21570  -2
  -1   9  10 8.67518 1.21570   1
 -11   9  10 17.4732 1.36076  -2
   1   9  10 17.4732 1.36076   1
 -13   9  10 46.5332 2.26867  -2
   3   9  10 46.5332 2.26867   1
 -15   9  10 13.9767 1.42888  -2
   5   9  10 13.9767 1.42888   1
 -17   9  10 15.4339 2.02059  -2
   7   9  10 15.4339 2.02059   1
   7   9  10 16.7962 2.10356   1
 -19   9  10 45.3066 2.65614  -2
   9   9  10 45.3066 2.65614   1
   9   9  10 17.8168 2.43023   1
   8  10  10 57.8421 3.76445  -2
 -18  10  10 57.8421 3.76445   1
 -18  10  10 58.3147 3.32218   1
   6  10  10 1.64363 2.06112  -2
 -16  10  10 1.64363 2.06112   1
 -16  10  10 1.19179 1.10034   1
   4  10  10 -3.1906 1.88936  -2
 -14  10  10 -3.1906 1.88936   1
 -14  10  10 0.22448 1.00981   1
   2  10  10 28.6969 2.50071  -2
 -12  10  10 28.6969 2.50071   1
 -12  10  10 27.8424 2.32680   1
   0  10  10 5.25884 1.41716  -2
 -10  10  10 5.25884 1.41716   1
 -10  10  10 4.49411 1.38879   1
  -8  10  10 30.1147 1.74874   1
  -2  10  10 48.1626 2.67030  -2
  -8  10  10 48.1626 2.67030   1
  -6  10  10 3.41503 1.20510   1
  -4  10  10 7.48451 0.97715  -2
  -6  10  10 7.48451 0.97715   1
  -6  10  10 22.7454 1.13139  -2
  -4  10  10 22.7454 1.13139   1
  -2  10  10 85.9240 2.79929   1
  -8  10  10 97.7260 3.29335  -2
  -2  10  10 97.7260 3.29335   1
 -10  10  10 5.52461 1.19883  -2
   0  10  10 5.52461 1.19883   1
 -12  10  10 12.2762 1.64302  -2
   2  10  10 12.2762 1.64302   1
 -14  10  10 2.16283 1.49892  -2
   4  10  10 2.16283 1.49892   1
 -16  10  10 2.60287 1.56837  -2
   6  10  10 2.60287 1.56837   1
   8  10  10 10.9073 2.11450   1
 -18  10  10 18.6448 2.62004  -2
   8  10  10 18.6448 2.62004   1
 -15  11  10 89.0497 3.07434   1
 -13  11  10 2.17063 1.31241   1
   3  11  10 21.8139 2.40624  -2
 -13  11  10 21.8139 2.40624   1
   1  11  10 165.456 6.32618  -2
 -11  11  10 165.456 6.32618   1
 -11  11  10 152.162 6.32953   1
  -9  11  10 -0.3332 1.01751   1
  -1  11  10 7.53036 2.73039  -2
  -9  11  10 7.53036 2.73039   1
  -7  11  10 130.826 5.61254   1
  -3  11  10 141.559 4.16231  -2
  -7  11  10 141.559 4.16231   1
  -5  11  10 3.29764 1.38673  -2
  -5  11  10 3.29764 1.38673   1
  -5  11  10 1.37066 1.12836   1
  -3  11  10 25.2984 2.68239   1
  -7  11  10 54.2323 3.09951  -2
  -3  11  10 54.2323 3.09951   1
  -9  11  10 12.2589 1.67755  -2
  -1  11  10 12.2589 1.67755   1
 -11  11  10 66.2165 2.79740  -2
   1  11  10 66.2165 2.79740   1
 -13  11  10 22.2250 1.97097  -2
   3  11  10 22.2250 1.97097   1
  -8  12  10 23.9969 1.84720   1
  -4  12  10 8.74637 3.09142  -2
  -6  12  10 8.74637 3.09142   1
  -6  12  10 8.02201 1.92222   1
  -6  12  10 3.90262 1.41031  -2
  -4  12  10 3.90262 1.41031   1
  -4  12  10 0.66830 1.11152   1
  -8  12  10 47.8800 2.96055  -2
  -2  12  10 47.8800 2.96055   1
  16   0  11 2.22947 2.07196  -2
 -28   0  11 2.22947 2.07196   1
  14   0  11 -1.7148 1.83572  -2
 -26   0  11 -1.7148 1.83572   1
 -26   0  11 -0.4627 0.78736   1
  12   0  11 5.07696 1.11219  -2
 -24   0  11 5.07696 1.11219   1
 -24   0  11 1.91451 0.99437   1
  10   0  11 1.24693 0.91031  -2
 -22   0  11 1.24693 0.91031   1
 -22   0  11 0.24031 0.54644   1
 -20   0  11 1.41623 0.59125   1
   8   0  11 1.45843 0.80893  -2
 -20   0  11 1.45843 0.80893   1
   6   0  11 1.85135 0.76098  -2
 -18   0  11 1.85135 0.76098   1
 -18   0  11 0.52603 0.38748   1
   4   0  11 2.63316 0.61767  -2
 -16   0  11 2.63316 0.61767   1
 -16   0  11 0.93160 0.47366   1
   2   0  11 0.17714 0.66334  -2
 -14   0  11 0.17714 0.66334   1
 -14   0  11 0.15574 0.29505   1
   0   0  11 0.64544 0.57004  -2
 -12   0  11 0.64544 0.57004   1
 -12   0  11 0.45883 0.33246   1
 -10   0  11 0.37762 0.30178   1
  -2   0  11 1.94484 0.66368  -2
 -10   0  11 1.94484 0.66368   1
  -4   0  11 -0.7791 0.56390  -2
  -8   0  11 -0.7791 0.56390   1
  -8   0  11 1.33460 0.36360   1
  -6   0  11 0.48484 0.72660  -2
  -6   0  11 0.48484 0.72660   1
  -6   0  11 0.12407 0.25134   1
  -8   0  11 0.50366 0.33785  -2
  -4   0  11 0.50366 0.33785   1
 -10   0  11 2.99153 0.74543  -2
  -2   0  11 2.99153 0.74543   1
 -12   0  11 0.84512 0.80608  -2
   0   0  11 0.84512 0.80608   1
 -14   0  11 -0.5876 1.26566  -2
   2   0  11 -0.5876 1.26566   1
 -16   0  11 0.62621 0.74224  -2
   4   0  11 0.62621 0.74224   1
 -18   0  11 1.10489 1.75784  -2
   6   0  11 1.10489 1.75784   1
   8   0  11 0.38293 0.66313   1
 -20   0  11 1.57472 2.03606  -2
   8   0  11 1.57472 2.03606   1
  10   0  11 -0.5310 0.66323   1
 -22   0  11 -1.0008 2.16441  -2
  10   0  11 -1.0008 2.16441   1
 -24   0  11 1.11350 2.49998  -2
  12   0  11 1.11350 2.49998   1
 -26   0  11 0.88910 1.31854  -2
  14   0  11 0.88910 1.31854   1
 -28   0  11 1.83060 1.73653  -2
  16   0  11 1.83060 1.73653   1
  17   1  11 113.326 3.73348  -2
 -29   1  11 113.326 3.73348   1
  15   1  11 32.4842 1.90061  -2
 -27   1  11 32.4842 1.90061   1
  13   1  11 59.5569 1.64750  -2
 -25   1  11 59.5569 1.64750   1
 -25   1  11 43.6441 1.77251   1
 -23   1  11 56.3403 1.60501   1
  11   1  11 117.089 2.00720  -2
 -23   1  11 117.089 2.00720   1
   9   1  11 127.583 2.07167  -2
 -21   1  11 127.583 2.07167   1
 -21   1  11 56.7177 1.25192   1
   7   1  11 57.5771 1.11714  -2
 -19   1  11 57.5771 1.11714   1
 -19   1  11 15.4752 0.66521   1
 -17   1  11 179.863 2.80713   1
   5   1  11 335.525 3.41779  -2
 -17   1  11 335.525 3.41779   1
   3   1  11 130.549 1.56778  -2
 -15   1  11 130.549 1.56778   1
 -15   1  11 83.3517 1.44336   1
   1   1  11 274.085 2.97275  -2
 -13   1  11 274.085 2.97275   1
 -13   1  11 120.237 1.87701   1
  -1   1  11 199.372 2.37153  -2
 -11   1  11 199.372 2.37153   1
 -11   1  11 141.303 2.42647   1
  -9   1  11 13.6798 0.49105   1
  -3   1  11 101.374 1.49868  -2
  -9   1  11 101.374 1.49868   1
  -7   1  11 228.881 3.69127   1
  -5   1  11 251.267 3.83008  -2
  -7   1  11 251.267 3.83008   1
  -5   1  11 94.3834 2.42566   1
  -7   1  11 148.899 2.41282  -2
  -5   1  11 148.899 2.41282   1
  -9   1  11 395.670 5.15196  -2
  -3   1  11 395.670 5.15196   1
  -3   1  11 393.145 12.4098   1
 -11   1  11 273.932 4.65589  -2
  -1   1  11 273.932 4.65589   1
  -1   1  11 235.198 5.42086   1
 -13   1  11 731.339 11.5545  -2
   1   1  11 731.339 11.5545   1
   1   1  11 638.772 18.7861   1
 -15   1  11 195.736 2.92554  -2
   3   1  11 195.736 2.92554   1
   3   1  11 170.305 5.56798   1
 -17   1  11 741.839 11.8844  -2
   5   1  11 741.839 11.8844   1
   5   1  11 691.544 20.4413   1
   7   1  11 188.547 4.46931   1
 -19   1  11 218.097 6.11763  -2
   7   1  11 218.097 6.11763   1
 -21   1  11 373.366 7.41039  -2
   9   1  11 373.366 7.41039   1
 -23   1  11 316.664 5.50666  -2
  11   1  11 316.664 5.50666   1
 -25   1  11 87.2258 2.26874  -2
  13   1  11 87.2258 2.26874   1
 -27   1  11 155.192 3.44458  -2
  15   1  11 155.192 3.44458   1
 -29   1  11 104.399 3.43756  -2
  17   1  11 104.399 3.43756   1
 -28   2  11 23.6020 2.26138   1
  16   2  11 44.1355 3.14081  -2
 -28   2  11 44.1355 3.14081   1
  14   2  11 43.2939 2.12623  -2
 -26   2  11 43.2939 2.12623   1
 -24   2  11 1.01387 0.64884   1
  12   2  11 4.91616 0.98098  -2
 -24   2  11 4.91616 0.98098   1
  10   2  11 25.8347 0.97968  -2
 -22   2  11 25.8347 0.97968   1
 -22   2  11 18.4892 0.95881   1
   8   2  11 115.538 1.79713  -2
 -20   2  11 115.538 1.79713   1
 -20   2  11 99.5104 1.84657   1
   6   2  11 81.7982 1.38809  -2
 -18   2  11 81.7982 1.38809   1
 -18   2  11 70.9973 1.42062   1
   4   2  11 2.28397 0.48776  -2
 -16   2  11 2.28397 0.48776   1
 -16   2  11 2.37149 0.32678   1
   2   2  11 21.7569 0.57094  -2
 -14   2  11 21.7569 0.57094   1
 -14   2  11 2.16422 0.36665   1
   0   2  11 41.8855 0.85934  -2
 -12   2  11 41.8855 0.85934   1
 -12   2  11 26.0243 0.65164   1
 -10   2  11 16.5700 0.54488   1
  -2   2  11 33.0482 0.74381  -2
 -10   2  11 33.0482 0.74381   1
  -4   2  11 45.7717 0.95018  -2
  -8   2  11 45.7717 0.95018   1
  -8   2  11 38.2500 0.96347   1
  -6   2  11 13.6235 0.67652   1
  -6   2  11 19.7052 0.97130  -2
  -6   2  11 19.7052 0.97130   1
  -8   2  11 22.0755 0.85409  -2
  -4   2  11 22.0755 0.85409   1
  -4   2  11 11.1040 0.62998   1
 -10   2  11 77.7188 1.71133  -2
  -2   2  11 77.7188 1.71133   1
  -2   2  11 71.2360 2.96951   1
 -12   2  11 67.7162 1.59308  -2
   0   2  11 67.7162 1.59308   1
   0   2  11 59.1473 2.55091   1
 -14   2  11 99.1286 1.74331  -2
   2   2  11 99.1286 1.74331   1
   2   2  11 84.3804 4.05913   1
   4   2  11 1.69187 0.66789   1
 -16   2  11 0.63177 0.76573  -2
   4   2  11 0.63177 0.76573   1
 -18   2  11 41.1468 1.74566  -2
   6   2  11 41.1468 1.74566   1
   6   2  11 26.1780 1.82454   1
 -20   2  11 74.1317 2.19013  -2
   8   2  11 74.1317 2.19013   1
 -22   2  11 16.5175 0.92977  -2
  10   2  11 16.5175 0.92977   1
 -24   2  11 2.49293 0.83142  -2
  12   2  11 2.49293 0.83142   1
 -26   2  11 56.6283 1.85292  -2
  14   2  11 56.6283 1.85292   1
 -28   2  11 87.0807 3.05769  -2
  16   2  11 87.0807 3.05769   1
  15   3  11 18.9564 1.68206  -2
 -27   3  11 18.9564 1.68206   1
  13   3  11 234.968 5.91953  -2
 -25   3  11 234.968 5.91953   1
 -23   3  11 16.8480 0.93057   1
  11   3  11 35.0039 1.35121  -2
 -23   3  11 35.0039 1.35121   1
   9   3  11 151.667 2.35156  -2
 -21   3  11 151.667 2.35156   1
 -21   3  11 95.7031 1.99656   1
   7   3  11 99.1779 1.58634  -2
 -19   3  11 99.1779 1.58634   1
 -19   3  11 39.9690 0.90878   1
   5   3  11 117.992 1.67193  -2
 -17   3  11 117.992 1.67193   1
 -17   3  11 28.3196 0.70666   1
   3   3  11 88.3133 1.13429  -2
 -15   3  11 88.3133 1.13429   1
 -15   3  11 22.7879 0.87883   1
   1   3  11 141.499 1.55811  -2
 -13   3  11 141.499 1.55811   1
 -13   3  11 41.6188 1.12213   1
  -1   3  11 224.680 2.67744  -2
 -11   3  11 224.680 2.67744   1
 -11   3  11 188.232 2.79127   1
  -9   3  11 38.2977 0.88709   1
  -3   3  11 131.757 1.76975  -2
  -9   3  11 131.757 1.76975   1
  -5   3  11 335.397 5.07107  -2
  -7   3  11 335.397 5.07107   1
  -7   3  11 295.167 4.73061   1
  -7   3  11 177.007 2.56558  -2
  -5   3  11 177.007 2.56558   1
  -5   3  11 103.115 2.82493   1
  -3   3  11 431.130 9.10618   1
  -9   3  11 455.854 6.66558  -2
  -3   3  11 455.854 6.66558   1
 -11   3  11 164.729 2.48788  -2
  -1   3  11 164.729 2.48788   1
 -13   3  11 472.486 6.34060  -2
   1   3  11 472.486 6.34060   1
 -15   3  11 315.091 4.47934  -2
   3   3  11 315.091 4.47934   1
 -17   3  11 449.927 6.15832  -2
   5   3  11 449.927 6.15832   1
 -19   3  11 292.621 5.27289  -2
   7   3  11 292.621 5.27289   1
 -21   3  11 292.067 5.07939  -2
   9   3  11 292.067 5.07939   1
 -23   3  11 101.757 2.41624  -2
  11   3  11 101.757 2.41624   1
 -25   3  11 315.415 5.66964  -2
  13   3  11 315.415 5.66964   1
 -27   3  11 102.394 2.71064  -2
  15   3  11 102.394 2.71064   1
  14   4  11 6.52689 1.41186  -2
 -26   4  11 6.52689 1.41186   1
  12   4  11 32.6936 1.81147  -2
 -24   4  11 32.6936 1.81147   1
 -24   4  11 19.1140 1.19641   1
 -22   4  11 9.71868 0.89976   1
  10   4  11 12.5887 0.99714  -2
 -22   4  11 12.5887 0.99714   1
   8   4  11 4.37187 0.65427  -2
 -20   4  11 4.37187 0.65427   1
 -20   4  11 2.13804 0.47125   1
   6   4  11 9.55196 0.71441  -2
 -18   4  11 9.55196 0.71441   1
 -18   4  11 11.7106 0.73293   1
   4   4  11 24.6825 0.76384  -2
 -16   4  11 24.6825 0.76384   1
 -16   4  11 21.3695 0.79770   1
   2   4  11 24.5629 0.68813  -2
 -14   4  11 24.5629 0.68813   1
 -14   4  11 22.5082 0.69381   1
   0   4  11 31.9310 0.82725  -2
 -12   4  11 31.9310 0.82725   1
 -12   4  11 25.8356 0.80758   1
 -10   4  11 13.0721 0.48619   1
  -2   4  11 60.5666 1.55454  -2
 -10   4  11 60.5666 1.55454   1
  -4   4  11 13.7205 0.67484  -2
  -8   4  11 13.7205 0.67484   1
  -8   4  11 9.21368 0.65770   1
  -6   4  11 36.2773 0.90246  -2
  -6   4  11 36.2773 0.90246   1
  -6   4  11 25.0116 1.43921   1
  -8   4  11 15.8069 0.64878  -2
  -4   4  11 15.8069 0.64878   1
  -4   4  11 9.37232 0.92250   1
 -10   4  11 215.470 4.00763  -2
  -2   4  11 215.470 4.00763   1
  -2   4  11 206.612 4.64254   1
 -12   4  11 17.3839 0.95411  -2
   0   4  11 17.3839 0.95411   1
   0   4  11 9.05500 0.79931   1
 -14   4  11 4.49560 0.90237  -2
   2   4  11 4.49560 0.90237   1
 -16   4  11 17.6677 0.93920  -2
   4   4  11 17.6677 0.93920   1
 -18   4  11 4.35408 0.76193  -2
   6   4  11 4.35408 0.76193   1
 -20   4  11 3.18390 0.77122  -2
   8   4  11 3.18390 0.77122   1
 -22   4  11 24.9415 1.28166  -2
  10   4  11 24.9415 1.28166   1
 -24   4  11 63.6364 2.01456  -2
  12   4  11 63.6364 2.01456   1
 -26   4  11 23.0414 1.49139  -2
  14   4  11 23.0414 1.49139   1
  16   4  11 2.03637 0.96672   1
  15   5  11 20.1600 2.76637  -2
 -27   5  11 20.1600 2.76637   1
  13   5  11 94.7791 4.70904  -2
 -25   5  11 94.7791 4.70904   1
  11   5  11 28.7946 2.59793  -2
 -23   5  11 28.7946 2.59793   1
 -23   5  11 6.32924 0.88453   1
   9   5  11 279.665 5.77085  -2
 -21   5  11 279.665 5.77085   1
 -21   5  11 217.410 4.54304   1
   7   5  11 88.0311 1.91083  -2
 -19   5  11 88.0311 1.91083   1
 -19   5  11 42.9823 1.33480   1
   5   5  11 68.3585 1.83867  -2
 -17   5  11 68.3585 1.83867   1
 -17   5  11 28.6077 0.84129   1
   3   5  11 84.7183 1.66391  -2
 -15   5  11 84.7183 1.66391   1
 -15   5  11 17.5350 0.70381   1
   1   5  11 83.7054 1.21867  -2
 -13   5  11 83.7054 1.21867   1
 -13   5  11 2.79335 0.71971   1
 -11   5  11 47.7513 1.27588   1
  -1   5  11 85.5339 1.32387  -2
 -11   5  11 85.5339 1.32387   1
  -9   5  11 9.35284 0.46185   1
  -3   5  11 84.3522 1.46717  -2
  -9   5  11 84.3522 1.46717   1
  -5   5  11 395.782 5.03607  -2
  -7   5  11 395.782 5.03607   1
  -7   5  11 357.097 7.97028   1
  -7   5  11 85.5397 1.43273  -2
  -5   5  11 85.5397 1.43273   1
  -5   5  11 6.95674 1.05560   1
  -9   5  11 375.152 5.65987  -2
  -3   5  11 375.152 5.65987   1
  -3   5  11 351.653 10.9246   1
 -11   5  11 187.570 3.16171  -2
  -1   5  11 187.570 3.16171   1
 -13   5  11 401.059 8.01138  -2
   1   5  11 401.059 8.01138   1
 -15   5  11 212.770 3.93026  -2
   3   5  11 212.770 3.93026   1
 -17   5  11 206.284 3.86764  -2
   5   5  11 206.284 3.86764   1
 -19   5  11 225.526 4.20945  -2
   7   5  11 225.526 4.20945   1
 -21   5  11 359.954 6.25927  -2
   9   5  11 359.954 6.25927   1
 -23   5  11 120.390 3.23051  -2
  11   5  11 120.390 3.23051   1
 -25   5  11 158.857 3.96028  -2
  13   5  11 158.857 3.96028   1
  15   5  11 34.4824 2.01950   1
 -26   6  11 22.6103 2.23714   1
 -24   6  11 17.9597 1.96484   1
  10   6  11 18.1296 2.31683  -2
 -22   6  11 18.1296 2.31683   1
 -22   6  11 3.17435 0.75059   1
   8   6  11 30.3257 1.49337  -2
 -20   6  11 30.3257 1.49337   1
 -20   6  11 5.76933 0.77267   1
   6   6  11 19.6717 1.10043  -2
 -18   6  11 19.6717 1.10043   1
 -18   6  11 4.22818 0.57725   1
   4   6  11 13.5507 0.76692  -2
 -16   6  11 13.5507 0.76692   1
 -16   6  11 13.0620 0.66404   1
   2   6  11 32.5042 1.01220  -2
 -14   6  11 32.5042 1.01220   1
 -14   6  11 20.5954 0.97510   1
   0   6  11 31.5760 0.87004  -2
 -12   6  11 31.5760 0.87004   1
 -12   6  11 18.8174 0.97621   1
 -10   6  11 93.3399 1.89347   1
  -2   6  11 101.154 1.74958  -2
 -10   6  11 101.154 1.74958   1
  -4   6  11 17.5734 0.83202  -2
  -8   6  11 17.5734 0.83202   1
  -8   6  11 12.9277 0.87693   1
  -6   6  11 206.041 4.89104   1
  -6   6  11 272.271 3.69031  -2
  -6   6  11 272.271 3.69031   1
  -4   6  11 0.74894 0.69625   1
  -8   6  11 8.78701 0.74239  -2
  -4   6  11 8.78701 0.74239   1
  -2   6  11 2.49574 0.82748   1
 -10   6  11 23.9088 0.98901  -2
  -2   6  11 23.9088 0.98901   1
 -12   6  11 64.7497 1.43178  -2
   0   6  11 64.7497 1.43178   1
 -14   6  11 20.0159 1.02479  -2
   2   6  11 20.0159 1.02479   1
 -16   6  11 3.89772 0.94263  -2
   4   6  11 3.89772 0.94263   1
 -18   6  11 90.4097 2.61464  -2
   6   6  11 90.4097 2.61464   1
   6   6  11 85.7559 4.56057   1
 -20   6  11 121.225 2.84856  -2
   8   6  11 121.225 2.84856   1
 -22   6  11 80.6349 2.63776  -2
  10   6  11 80.6349 2.63776   1
 -24   6  11 6.38502 1.27738  -2
  12   6  11 6.38502 1.27738   1
  14   6  11 7.32191 1.27375   1
 -23   7  11 13.6931 1.64986   1
  11   7  11 23.4428 2.67819  -2
 -23   7  11 23.4428 2.67819   1
   9   7  11 61.4918 3.68895  -2
 -21   7  11 61.4918 3.68895   1
 -21   7  11 51.3318 2.89233   1
   7   7  11 57.8617 2.48315  -2
 -19   7  11 57.8617 2.48315   1
 -19   7  11 26.9030 1.12281   1
   5   7  11 247.093 5.35405  -2
 -17   7  11 247.093 5.35405   1
 -17   7  11 189.463 3.49593   1
 -15   7  11 85.4936 2.19937   1
   3   7  11 125.209 2.25513  -2
 -15   7  11 125.209 2.25513   1
 -13   7  11 4.31485 0.62081   1
   1   7  11 53.9826 1.23443  -2
 -13   7  11 53.9826 1.23443   1
 -11   7  11 2.31053 0.52239   1
  -1   7  11 3.87165 0.68735  -2
 -11   7  11 3.87165 0.68735   1
  -9   7  11 31.0699 1.04863   1
  -3   7  11 131.334 2.10943  -2
  -9   7  11 131.334 2.10943   1
  -7   7  11 71.6170 2.19241   1
  -5   7  11 81.9272 1.76476  -2
  -7   7  11 81.9272 1.76476   1
  -7   7  11 41.0927 1.17170  -2
  -5   7  11 41.0927 1.17170   1
  -5   7  11 27.5574 1.60578   1
  -9   7  11 502.914 6.75498  -2
  -3   7  11 502.914 6.75498   1
 -11   7  11 6.15337 0.90853  -2
  -1   7  11 6.15337 0.90853   1
 -13   7  11 241.254 4.41210  -2
   1   7  11 241.254 4.41210   1
 -15   7  11 196.493 3.78590  -2
   3   7  11 196.493 3.78590   1
 -17   7  11 283.797 5.09741  -2
   5   7  11 283.797 5.09741   1
 -19   7  11 172.492 4.93014  -2
   7   7  11 172.492 4.93014   1
 -21   7  11 98.4922 2.96740  -2
   9   7  11 98.4922 2.96740   1
 -23   7  11 91.2317 2.96984  -2
  11   7  11 91.2317 2.96984   1
 -22   8  11 6.72652 1.47816   1
  10   8  11 8.42434 2.39355  -2
 -22   8  11 8.42434 2.39355   1
 -20   8  11 0.56346 1.04575   1
   8   8  11 1.77342 2.04997  -2
 -20   8  11 1.77342 2.04997   1
 -18   8  11 4.88007 0.91634   1
   6   8  11 31.3666 2.58590  -2
 -18   8  11 31.3666 2.58590   1
 -16   8  11 14.2468 1.51177   1
   4   8  11 20.1306 1.35065  -2
 -16   8  11 20.1306 1.35065   1
 -14   8  11 54.3602 1.66249   1
   2   8  11 74.5997 2.00470  -2
 -14   8  11 74.5997 2.00470   1
 -12   8  11 6.17268 0.77839   1
   0   8  11 13.6505 1.09902  -2
 -12   8  11 13.6505 1.09902   1
 -10   8  11 160.677 2.97313   1
  -2   8  11 180.859 3.28536  -2
 -10   8  11 180.859 3.28536   1
  -4   8  11 27.4270 1.22411  -2
  -8   8  11 27.4270 1.22411   1
  -8   8  11 17.2816 1.65805   1
  -6   8  11 22.2049 1.17013  -2
  -6   8  11 22.2049 1.17013   1
  -6   8  11 20.2310 1.57783   1
  -4   8  11 51.4819 2.31317   1
  -8   8  11 57.9495 1.72756  -2
  -4   8  11 57.9495 1.72756   1
 -10   8  11 72.3033 1.79066  -2
  -2   8  11 72.3033 1.79066   1
 -12   8  11 3.77008 0.97702  -2
   0   8  11 3.77008 0.97702   1
 -14   8  11 89.6903 2.57651  -2
   2   8  11 89.6903 2.57651   1
 -16   8  11 58.4984 2.12188  -2
   4   8  11 58.4984 2.12188   1
 -18   8  11 134.482 3.41614  -2
   6   8  11 134.482 3.41614   1
 -20   8  11 2.14676 1.11483  -2
   8   8  11 2.14676 1.11483   1
 -22   8  11 4.95937 1.32332  -2
  10   8  11 4.95937 1.32332   1
   9   9  11 35.8814 3.14395  -2
 -21   9  11 35.8814 3.14395   1
 -21   9  11 4.93500 1.28409   1
   7   9  11 19.1163 2.48163  -2
 -19   9  11 19.1163 2.48163   1
 -19   9  11 3.59133 1.33446   1
   5   9  11 34.9464 2.83006  -2
 -17   9  11 34.9464 2.83006   1
 -17   9  11 17.4153 1.97406   1
   3   9  11 48.4093 1.88599  -2
 -15   9  11 48.4093 1.88599   1
 -13   9  11 81.9366 2.16244   1
   1   9  11 141.136 3.38191  -2
 -13   9  11 141.136 3.38191   1
 -11   9  11 81.1961 1.84031   1
  -1   9  11 95.2908 2.84521  -2
 -11   9  11 95.2908 2.84521   1
  -3   9  11 36.3027 1.56833  -2
  -9   9  11 36.3027 1.56833   1
  -9   9  11 17.9277 1.02930   1
  -5   9  11 43.6862 1.56720  -2
  -7   9  11 43.6862 1.56720   1
  -7   9  11 38.4768 2.39030   1
  -7   9  11 32.4088 1.41734  -2
  -5   9  11 32.4088 1.41734   1
  -5   9  11 24.4013 1.77229   1
  -9   9  11 94.4793 2.61289  -2
  -3   9  11 94.4793 2.61289   1
 -11   9  11 64.2977 2.16918  -2
  -1   9  11 64.2977 2.16918   1
 -13   9  11 296.549 7.27940  -2
   1   9  11 296.549 7.27940   1
 -15   9  11 42.0973 1.95817  -2
   3   9  11 42.0973 1.95817   1
 -17   9  11 113.520 3.20072  -2
   5   9  11 113.520 3.20072   1
 -19   9  11 72.5443 2.60099  -2
   7   9  11 72.5443 2.60099   1
   9   9  11 136.133 4.49826   1
 -21   9  11 159.502 6.80407  -2
   9   9  11 159.502 6.80407   1
   6  10  11 21.9868 2.69979  -2
 -18  10  11 21.9868 2.69979   1
 -18  10  11 19.0274 2.16235   1
   4  10  11 9.18290 1.57288  -2
 -16  10  11 9.18290 1.57288   1
   2  10  11 122.475 3.77556  -2
 -14  10  11 122.475 3.77556   1
 -12  10  11 22.1307 1.82575   1
   0  10  11 29.6309 2.11985  -2
 -12  10  11 29.6309 2.11985   1
  -2  10  11 57.4022 2.67378  -2
 -10  10  11 57.4022 2.67378   1
 -10  10  11 36.8070 2.13002   1
  -8  10  11 37.1455 2.20650   1
  -4  10  11 42.3528 2.27712  -2
  -8  10  11 42.3528 2.27712   1
  -6  10  11 23.9621 1.72321  -2
  -6  10  11 23.9621 1.72321   1
  -6  10  11 21.5770 1.95005   1
  -8  10  11 18.4747 1.61459  -2
  -4  10  11 18.4747 1.61459   1
  -4  10  11 6.23571 0.98297   1
 -10  10  11 96.6351 3.29827  -2
  -2  10  11 96.6351 3.29827   1
 -12  10  11 36.4455 2.10957  -2
   0  10  11 36.4455 2.10957   1
 -14  10  11 197.178 5.43923  -2
   2  10  11 197.178 5.43923   1
 -16  10  11 1.21641 1.44887  -2
   4  10  11 1.21641 1.44887   1
 -18  10  11 7.63020 1.62287  -2
   6  10  11 7.63020 1.62287   1
   1  11  11 12.9342 2.43319  -2
 -13  11  11 12.9342 2.43319   1
 -13  11  11 2.45302 1.33057   1
  -1  11  11 148.607 6.42947  -2
 -11  11  11 148.607 6.42947   1
  -9  11  11 81.0909 3.70922   1
  -3  11  11 82.5433 3.34592  -2
  -9  11  11 82.5433 3.34592   1
  -5  11  11 139.186 4.45918  -2
  -7  11  11 139.186 4.45918   1
  -7  11  11 119.599 4.69575   1
  -7  11  11 60.1166 2.55775  -2
  -5  11  11 60.1166 2.55775   1
  -9  11  11 28.5120 1.97146  -2
  -3  11  11 28.5120 1.97146   1
 -11  11  11 133.164 4.17062  -2
  -1  11  11 133.164 4.17062   1
 -13  11  11 36.5758 2.20947  -2
   1  11  11 36.5758 2.20947   1
   3  11  11 17.0929 2.40052   1
 -28   0  12 71.1399 3.62740   1
 -26   0  12 43.3577 2.63766   1
 -24   0  12 102.302 2.09324   1
 -22   0  12 257.524 3.48501   1
 -20   0  12 220.706 3.01134   1
 -18   0  12 1213.49 13.1618   1
 -16   0  12 106.667 1.52130   1
 -14   0  12 747.928 8.87115   1
 -12   0  12 612.334 7.89754   1
 -10   0  12 1633.76 20.1952   1
  -8   0  12 112.186 1.87457   1
  -6   0  12 1134.37 17.2213   1
  -4   0  12 20.1189 0.81100   1
  -8   0  12 65.3382 3.04256  -2
  -4   0  12 65.3382 3.04256   1
  -2   0  12 925.481 14.1475   1
   0   0  12 21.9704 1.23845   1
   2   0  12 218.268 5.58107   1
   4   0  12 271.149 5.51878   1
   6   0  12 311.076 11.3550   1
   8   0  12 282.932 6.88261   1
  10   0  12 18.9310 1.35227   1
  12   0  12 213.434 5.80921   1
  14   0  12 14.5772 1.54402   1
  16   0  12 211.360 7.78261   1
 -29   1  12 16.3550 1.37774   1
 -27   1  12 27.7802 1.56835   1
 -25   1  12 10.0967 0.63106   1
 -23   1  12 1.20439 0.29276   1
 -21   1  12 24.6330 0.58841   1
   9   1  12 29.1700 2.62753  -2
 -21   1  12 29.1700 2.62753   1
 -19   1  12 63.4645 0.77740   1
 -17   1  12 19.2689 0.42004   1
   5   1  12 61.0747 3.48047  -2
 -17   1  12 61.0747 3.48047   1
 -15   1  12 13.8446 0.37970   1
   3   1  12 14.9429 1.39036  -2
 -15   1  12 14.9429 1.39036   1
 -13   1  12 22.4848 0.48066   1
   1   1  12 82.9540 4.16326  -2
 -13   1  12 82.9540 4.16326   1
 -11   1  12 15.9206 0.41043   1
  -9   1  12 85.3292 1.09422   1
  -7   1  12 28.4809 0.62774   1
  -5   1  12 31.8010 2.27824  -2
  -7   1  12 31.8010 2.27824   1
  -5   1  12 26.5737 0.57827   1
  -3   1  12 73.9809 1.10176   1
  -1   1  12 0.75461 0.28073   1
   1   1  12 6.47471 0.57933   1
 -13   1  12 10.5963 1.64753  -2
   1   1  12 10.5963 1.64753   1
   3   1  12 7.24711 0.56850   1
 -15   1  12 8.63601 1.85474  -2
   3   1  12 8.63601 1.85474   1
   5   1  12 30.6970 0.98686   1
   7   1  12 119.404 2.47326   1
   9   1  12 6.58386 0.92248   1
  11   1  12 9.08542 0.83606   1
  13   1  12 -0.4262 0.54221   1
  15   1  12 4.52297 0.85134   1
 -28   2  12 1.44110 0.85598   1
 -26   2  12 174.220 4.60051   1
 -24   2  12 136.141 1.87654   1
 -22   2  12 301.822 3.15607   1
 -20   2  12 161.544 1.72439   1
 -18   2  12 400.322 3.52874   1
   6   2  12 447.652 15.5818  -2
 -18   2  12 447.652 15.5818   1
 -16   2  12 444.204 3.72743   1
   4   2  12 452.841 15.4909  -2
 -16   2  12 452.841 15.4909   1
 -14   2  12 1526.01 12.3953   1
   2   2  12 1671.53 52.1694  -2
 -14   2  12 1671.53 52.1694   1
 -12   2  12 99.4757 1.13199   1
 -10   2  12 1111.60 10.2495   1
  -8   2  12 212.125 2.61206   1
  -6   2  12 1308.41 14.0365   1
  -4   2  12 93.8948 1.57064   1
  -2   2  12 482.050 6.91682   1
 -12   2  12 59.7364 1.99681  -2
   0   2  12 59.7364 1.99681   1
   0   2  12 35.0363 1.06991   1
   2   2  12 553.986 7.97524   1
 -14   2  12 863.340 26.8375  -2
   2   2  12 863.340 26.8375   1
   4   2  12 82.7541 1.93620   1
 -16   2  12 171.230 6.63894  -2
   4   2  12 171.230 6.63894   1
   6   2  12 98.2421 2.74341   1
 -18   2  12 148.845 5.18809  -2
   6   2  12 148.845 5.18809   1
   8   2  12 294.313 6.14235   1
  10   2  12 33.5641 1.61740   1
  12   2  12 220.140 4.22030   1
  14   2  12 1.57020 0.65942   1
  16   2  12 237.960 6.07110   1
 -27   3  12 40.5564 1.84737   1
 -25   3  12 5.05243 0.73150   1
 -23   3  12 1.35294 0.36039   1
 -21   3  12 19.2774 0.53650   1
 -19   3  12 6.20437 0.41549   1
   7   3  12 18.4723 2.89450  -2
 -19   3  12 18.4723 2.89450   1
 -17   3  12 21.3471 0.46947   1
   5   3  12 31.3425 3.02842  -2
 -17   3  12 31.3425 3.02842   1
 -15   3  12 8.05199 0.33318   1
   3   3  12 30.9989 3.00879  -2
 -15   3  12 30.9989 3.00879   1
   1   3  12 52.6539 2.05012  -2
 -13   3  12 52.6539 2.05012   1
 -13   3  12 43.2179 0.70511   1
 -11   3  12 118.757 1.39812   1
  -1   3  12 52.0554 2.66955  -2
 -11   3  12 52.0554 2.66955   1
  -9   3  12 78.3937 1.29134   1
  -3   3  12 110.204 3.31569  -2
  -9   3  12 110.204 3.31569   1
  -7   3  12 8.19724 0.43496   1
  -5   3  12 26.4646 0.70896   1
  -7   3  12 31.2612 2.07910  -2
  -5   3  12 31.2612 2.07910   1
  -9   3  12 53.0817 1.85851  -2
  -3   3  12 53.0817 1.85851   1
  -3   3  12 40.6837 1.13822   1
  -1   3  12 88.5431 2.01784   1
 -11   3  12 113.636 4.47432  -2
  -1   3  12 113.636 4.47432   1
   1   3  12 28.3515 0.86709   1
   3   3  12 105.433 2.40493   1
 -15   3  12 99.8459 3.18527  -2
   3   3  12 99.8459 3.18527   1
 -17   3  12 60.2444 2.45264  -2
   5   3  12 60.2444 2.45264   1
   5   3  12 62.4368 1.76062   1
 -19   3  12 58.9247 2.82717  -2
   7   3  12 58.9247 2.82717   1
   7   3  12 58.3797 2.42267   1
   9   3  12 48.2029 2.31738   1
 -21   3  12 51.4592 4.07337  -2
   9   3  12 51.4592 4.07337   1
  11   3  12 11.1440 1.49887   1
 -23   3  12 7.70038 2.86897  -2
  11   3  12 7.70038 2.86897   1
  13   3  12 33.7667 1.40964   1
  15   3  12 29.4688 1.74167   1
 -26   4  12 159.334 6.35858   1
 -24   4  12 2.46247 0.75851   1
  12   4  12 65.9437 3.60336  -2
 -24   4  12 65.9437 3.60336   1
 -22   4  12 289.578 3.86388   1
 -20   4  12 324.834 3.70831   1
   8   4  12 345.594 11.1714  -2
 -20   4  12 345.594 11.1714   1
 -18   4  12 404.212 4.47137   1
   6   4  12 464.873 16.2637  -2
 -18   4  12 464.873 16.2637   1
 -16   4  12 217.803 2.25782   1
   4   4  12 246.585 9.43305  -2
 -16   4  12 246.585 9.43305   1
 -14   4  12 684.297 6.49006   1
   2   4  12 718.994 16.4432  -2
 -14   4  12 718.994 16.4432   1
 -12   4  12 198.821 2.36638   1
   0   4  12 189.161 4.94946  -2
 -12   4  12 189.161 4.94946   1
 -10   4  12 1452.67 15.6234   1
  -2   4  12 1734.11 37.0270  -2
 -10   4  12 1734.11 37.0270   1
  -4   4  12 149.145 4.19556  -2
  -8   4  12 149.145 4.19556   1
  -8   4  12 109.547 1.83419   1
  -6   4  12 546.207 7.14401   1
  -6   4  12 684.623 15.1311  -2
  -6   4  12 684.623 15.1311   1
  -8   4  12 99.8903 4.39736  -2
  -4   4  12 99.8903 4.39736   1
  -4   4  12 61.3280 1.18939   1
  -2   4  12 806.194 12.6802   1
 -10   4  12 1108.10 32.7766  -2
  -2   4  12 1108.10 32.7766   1
   0   4  12 14.6312 0.90820   1
 -12   4  12 58.2739 2.89126  -2
   0   4  12 58.2739 2.89126   1
 -14   4  12 375.615 12.0408  -2
   2   4  12 375.615 12.0408   1
   2   4  12 257.656 5.59490   1
 -16   4  12 134.399 3.94943  -2
   4   4  12 134.399 3.94943   1
   4   4  12 90.9753 2.27034   1
 -18   4  12 169.180 3.94156  -2
   6   4  12 169.180 3.94156   1
   6   4  12 82.9130 2.15414   1
 -20   4  12 160.288 4.65144  -2
   8   4  12 160.288 4.65144   1
   8   4  12 104.332 3.76711   1
 -22   4  12 81.2536 2.96973  -2
  10   4  12 81.2536 2.96973   1
  10   4  12 20.4645 3.06250   1
 -24   4  12 347.063 9.07025  -2
  12   4  12 347.063 9.07025   1
  12   4  12 322.371 12.7688   1
 -26   4  12 44.2370 3.12171  -2
  14   4  12 44.2370 3.12171   1
  14   4  12 6.19434 1.27370   1
 -27   5  12 5.57235 1.66311   1
  13   5  12 17.1329 2.56782  -2
 -25   5  12 17.1329 2.56782   1
 -23   5  12 15.5254 0.97310   1
 -21   5  12 3.00105 0.47997   1
 -19   5  12 13.8458 0.55477   1
 -17   5  12 22.4798 0.56395   1
   5   5  12 26.0538 1.69960  -2
 -17   5  12 26.0538 1.69960   1
 -15   5  12 19.1513 0.60550   1
   3   5  12 21.5943 1.20460  -2
 -15   5  12 21.5943 1.20460   1
 -13   5  12 1.67647 0.28769   1
   1   5  12 3.81920 2.37295  -2
 -13   5  12 3.81920 2.37295   1
 -11   5  12 9.77562 0.43900   1
  -1   5  12 46.6226 1.42018  -2
 -11   5  12 46.6226 1.42018   1
  -3   5  12 26.7313 1.81398  -2
  -9   5  12 26.7313 1.81398   1
  -9   5  12 20.6974 0.63767   1
  -7   5  12 1.28246 0.32801   1
  -5   5  12 4.44041 1.16590  -2
  -7   5  12 4.44041 1.16590   1
  -7   5  12 11.7000 1.03753  -2
  -5   5  12 11.7000 1.03753   1
  -5   5  12 9.45321 0.66210   1
  -9   5  12 23.2623 2.42176  -2
  -3   5  12 23.2623 2.42176   1
  -3   5  12 11.9658 0.59906   1
  -1   5  12 184.508 3.16873   1
 -11   5  12 179.960 4.58928  -2
  -1   5  12 179.960 4.58928   1
 -13   5  12 30.5355 2.96537  -2
   1   5  12 30.5355 2.96537   1
   1   5  12 21.0100 0.92548   1
   3   5  12 15.4351 1.24417   1
 -15   5  12 17.9794 2.36070  -2
   3   5  12 17.9794 2.36070   1
 -17   5  12 6.80932 1.46235  -2
   5   5  12 6.80932 1.46235   1
   5   5  12 1.17775 0.80190   1
 -19   5  12 15.0605 1.87497  -2
   7   5  12 15.0605 1.87497   1
   7   5  12 14.7405 2.37353   1
 -21   5  12 8.46448 1.89473  -2
   9   5  12 8.46448 1.89473   1
   9   5  12 7.49203 1.91596   1
  11   5  12 2.33409 1.13011   1
 -23   5  12 3.29138 1.62872  -2
  11   5  12 3.29138 1.62872   1
  13   5  12 38.6434 2.01974   1
 -24   6  12 140.865 3.94487   1
  10   6  12 284.352 9.82113  -2
 -22   6  12 284.352 9.82113   1
 -22   6  12 266.148 9.08853   1
 -20   6  12 3.73627 0.57512   1
   8   6  12 25.5023 2.35077  -2
 -20   6  12 25.5023 2.35077   1
 -18   6  12 601.243 7.24629   1
   6   6  12 643.022 21.3603  -2
 -18   6  12 643.022 21.3603   1
   4   6  12 193.522 4.23955  -2
 -16   6  12 193.522 4.23955   1
 -16   6  12 186.547 2.70681   1
 -14   6  12 420.435 5.31418   1
   2   6  12 482.313 7.98460  -2
 -14   6  12 482.313 7.98460   1
 -12   6  12 358.605 5.35649   1
   0   6  12 364.408 6.13533  -2
 -12   6  12 364.408 6.13533   1
  -2   6  12 361.821 6.19744  -2
 -10   6  12 361.821 6.19744   1
 -10   6  12 292.103 3.85382   1
  -8   6  12 156.196 2.29852   1
  -4   6  12 169.005 4.83481  -2
  -8   6  12 169.005 4.83481   1
  -6   6  12 1024.09 14.2642   1
  -6   6  12 1246.25 27.0953  -2
  -6   6  12 1246.25 27.0953   1
  -4   6  12 5.49931 0.49189   1
  -8   6  12 43.7756 2.84589  -2
  -4   6  12 43.7756 2.84589   1
  -2   6  12 445.160 6.77412   1
 -10   6  12 510.368 11.3916  -2
  -2   6  12 510.368 11.3916   1
   0   6  12 2.01081 0.64718   1
 -12   6  12 80.8251 2.62396  -2
   0   6  12 80.8251 2.62396   1
   2   6  12 204.997 4.27715   1
 -14   6  12 285.611 10.1041  -2
   2   6  12 285.611 10.1041   1
   4   6  12 17.6643 1.30157   1
 -16   6  12 51.8354 3.23396  -2
   4   6  12 51.8354 3.23396   1
 -18   6  12 156.958 6.33089  -2
   6   6  12 156.958 6.33089   1
   6   6  12 25.2168 1.52276   1
   8   6  12 109.116 4.33458   1
 -20   6  12 109.910 4.13932  -2
   8   6  12 109.910 4.13932   1
 -22   6  12 72.4456 3.10307  -2
  10   6  12 72.4456 3.10307   1
  10   6  12 16.5874 1.78870   1
  12   6  12 132.673 5.30300   1
 -24   6  12 181.690 7.89819  -2
  12   6  12 181.690 7.89819   1
 -23   7  12 6.08088 1.46377   1
  11   7  12 13.1318 2.34274  -2
 -23   7  12 13.1318 2.34274   1
   9   7  12 5.35709 2.04146  -2
 -21   7  12 5.35709 2.04146   1
 -21   7  12 11.1512 1.87864   1
 -19   7  12 37.4244 1.24625   1
   5   7  12 19.2077 2.60527  -2
 -17   7  12 19.2077 2.60527   1
 -17   7  12 7.91169 0.63571   1
 -15   7  12 13.1998 0.68981   1
   3   7  12 26.5056 1.62474  -2
 -15   7  12 26.5056 1.62474   1
   1   7  12 49.9571 1.57923  -2
 -13   7  12 49.9571 1.57923   1
 -13   7  12 32.2007 1.10612   1
  -1   7  12 39.2690 1.35459  -2
 -11   7  12 39.2690 1.35459   1
 -11   7  12 3.84656 0.64320   1
  -9   7  12 14.1904 1.08701   1
  -3   7  12 26.6413 1.21170  -2
  -9   7  12 26.6413 1.21170   1
  -5   7  12 33.6925 1.71504  -2
  -7   7  12 33.6925 1.71504   1
  -7   7  12 15.7372 0.77287   1
  -5   7  12 99.4776 2.70482   1
  -7   7  12 105.206 2.75775  -2
  -5   7  12 105.206 2.75775   1
  -9   7  12 54.0084 2.29080  -2
  -3   7  12 54.0084 2.29080   1
  -3   7  12 48.8417 1.49529   1
 -11   7  12 171.726 4.74125  -2
  -1   7  12 171.726 4.74125   1
  -1   7  12 176.858 4.93001   1
 -13   7  12 73.0896 2.86592  -2
   1   7  12 73.0896 2.86592   1
   1   7  12 62.6045 2.45908   1
 -15   7  12 55.4228 2.48674  -2
   3   7  12 55.4228 2.48674   1
   3   7  12 54.1102 2.25460   1
   5   7  12 39.2776 2.38918   1
 -17   7  12 60.2202 4.51188  -2
   5   7  12 60.2202 4.51188   1
 -19   7  12 16.1985 2.08453  -2
   7   7  12 16.1985 2.08453   1
   7   7  12 10.3794 1.58358   1
 -21   7  12 4.09561 1.88558  -2
   9   7  12 4.09561 1.88558   1
   9   7  12 2.31106 1.12663   1
 -23   7  12 53.1416 4.50006  -2
  11   7  12 53.1416 4.50006   1
  11   7  12 47.3016 2.92956   1
  10   8  12 90.6927 4.63334  -2
 -22   8  12 90.6927 4.63334   1
 -22   8  12 94.9683 4.33759   1
 -20   8  12 87.5180 4.19389   1
   8   8  12 93.9290 4.52894  -2
 -20   8  12 93.9290 4.52894   1
 -18   8  12 343.710 6.81943   1
 -16   8  12 26.0640 0.90381   1
   2   8  12 370.640 7.37210  -2
 -14   8  12 370.640 7.37210   1
 -14   8  12 344.436 5.82211   1
 -12   8  12 224.265 4.05051   1
   0   8  12 236.946 4.95741  -2
 -12   8  12 236.946 4.95741   1
  -2   8  12 350.837 6.04584  -2
 -10   8  12 350.837 6.04584   1
 -10   8  12 283.239 5.89201   1
  -4   8  12 108.544 2.67735  -2
  -8   8  12 108.544 2.67735   1
  -8   8  12 115.429 3.84419   1
  -6   8  12 338.895 8.18997  -2
  -6   8  12 338.895 8.18997   1
  -6   8  12 290.484 5.93472   1
  -8   8  12 43.0754 1.76981  -2
  -4   8  12 43.0754 1.76981   1
  -4   8  12 16.5887 1.42024   1
  -2   8  12 437.287 10.5916   1
 -10   8  12 480.897 11.0900  -2
  -2   8  12 480.897 11.0900   1
   0   8  12 12.6553 1.46029   1
 -12   8  12 57.9419 2.42186  -2
   0   8  12 57.9419 2.42186   1
   2   8  12 82.1458 3.06078   1
 -14   8  12 159.350 4.63686  -2
   2   8  12 159.350 4.63686   1
 -16   8  12 11.5697 1.78022  -2
   4   8  12 11.5697 1.78022   1
   4   8  12 8.21514 1.57139   1
 -18   8  12 107.987 3.75235  -2
   6   8  12 107.987 3.75235   1
   6   8  12 37.3293 2.58407   1
   8   8  12 41.5751 1.97880   1
 -20   8  12 59.5415 3.26694  -2
   8   8  12 59.5415 3.26694   1
  10   8  12 1.54390 0.81648   1
 -19   9  12 13.7306 1.38452   1
   5   9  12 22.9831 2.46027  -2
 -17   9  12 22.9831 2.46027   1
 -17   9  12 18.7113 2.09367   1
   3   9  12 4.39677 1.77791  -2
 -15   9  12 4.39677 1.77791   1
 -15   9  12 2.47121 1.17022   1
 -13   9  12 8.75434 0.79702   1
  -1   9  12 10.8765 2.04898  -2
 -11   9  12 10.8765 2.04898   1
 -11   9  12 1.43180 0.45538   1
  -3   9  12 101.588 2.67477  -2
  -9   9  12 101.588 2.67477   1
  -9   9  12 93.4389 2.67937   1
  -7   9  12 24.6753 1.24010   1
  -5   9  12 31.2095 2.36944  -2
  -7   9  12 31.2095 2.36944   1
  -5   9  12 63.2980 2.56068   1
  -7   9  12 66.3478 3.43923  -2
  -5   9  12 66.3478 3.43923   1
  -3   9  12 12.1753 1.39848   1
  -9   9  12 31.8737 2.55110  -2
  -3   9  12 31.8737 2.55110   1
 -11   9  12 29.5774 2.05322  -2
  -1   9  12 29.5774 2.05322   1
  -1   9  12 30.5919 2.51386   1
 -13   9  12 30.5457 2.22208  -2
   1   9  12 30.5457 2.22208   1
   1   9  12 17.7694 2.10377   1
 -15   9  12 13.0361 1.98959  -2
   3   9  12 13.0361 1.98959   1
   3   9  12 23.0492 2.31434   1
 -17   9  12 37.0181 2.54871  -2
   5   9  12 37.0181 2.54871   1
   5   9  12 28.3876 2.48178   1
 -19   9  12 89.6782 3.78415  -2
   7   9  12 89.6782 3.78415   1
   7   9  12 89.0724 4.44267   1
 -18  10  12 42.2514 1.99167   1
 -16  10  12 152.133 6.36657   1
   4  10  12 162.947 6.30719  -2
 -16  10  12 162.947 6.30719   1
 -14  10  12 246.414 9.10303   1
 -12  10  12 3.27901 0.70261   1
 -10  10  12 391.157 7.53327   1
  -8  10  12 55.7428 2.42106   1
  -4  10  12 66.3994 3.38443  -2
  -8  10  12 66.3994 3.38443   1
  -6  10  12 143.819 4.12516   1
  -6  10  12 158.792 6.07931  -2
  -6  10  12 158.792 6.07931   1
  -8  10  12 77.3280 3.92075  -2
  -4  10  12 77.3280 3.92075   1
  -4  10  12 70.2150 4.01759   1
  -2  10  12 30.2918 2.62293   1
 -10  10  12 112.887 4.98030  -2
  -2  10  12 112.887 4.98030   1
 -12  10  12 22.4962 2.48096  -2
   0  10  12 22.4962 2.48096   1
   0  10  12 20.7442 2.34637   1
 -14  10  12 168.063 6.80401  -2
   2  10  12 168.063 6.80401   1
   2  10  12 108.573 5.18698   1
 -16  10  12 71.8273 4.16830  -2
   4  10  12 71.8273 4.16830   1
   4  10  12 40.6223 3.13424   1
 -13  11  12 38.6537 2.93743   1
 -11  11  12 11.5907 1.55666   1
  -9  11  12 27.8294 1.86817   1
  -3  11  12 30.6389 2.26048  -2
  -9  11  12 30.6389 2.26048   1
  -7  11  12 28.1204 2.79762   1
  -5  11  12 37.8958 2.68530  -2
  -7  11  12 37.8958 2.68530   1
  -7  11  12 68.3592 3.57876  -2
  -5  11  12 68.3592 3.57876   1
  -5  11  12 69.6797 4.24007   1
  -3  11  12 11.0070 2.17698   1
  -9  11  12 12.6396 2.14812  -2
  -3  11  12 12.6396 2.14812   1
 -11  11  12 9.70533 2.23826  -2
  -1  11  12 9.70533 2.23826   1
  -1  11  12 6.72798 1.79923   1
 -13  11  12 12.4694 2.34723  -2
   1  11  12 12.4694 2.34723   1
  14   0  13 -1.1118 1.81669  -2
 -28   0  13 -1.1118 1.81669   1
  12   0  13 2.01062 1.77959  -2
 -26   0  13 2.01062 1.77959   1
 -24   0  13 0.83385 0.55180   1
  10   0  13 -1.6856 1.43185  -2
 -24   0  13 -1.6856 1.43185   1
   8   0  13 2.82209 0.96926  -2
 -22   0  13 2.82209 0.96926   1
 -22   0  13 0.51756 0.54676   1
   6   0  13 0.24718 0.64931  -2
 -20   0  13 0.24718 0.64931   1
 -20   0  13 -0.0136 0.53171   1
   4   0  13 0.37574 0.68736  -2
 -18   0  13 0.37574 0.68736   1
 -18   0  13 0.99667 0.46655   1
 -16   0  13 -0.1381 0.63537   1
   2   0  13 -0.0775 0.70230  -2
 -16   0  13 -0.0775 0.70230   1
   0   0  13 -0.4960 0.58144  -2
 -14   0  13 -0.4960 0.58144   1
 -14   0  13 0.13503 0.47852   1
  -2   0  13 0.48930 0.49709  -2
 -12   0  13 0.48930 0.49709   1
  -4   0  13 -0.6113 0.44907  -2
 -10   0  13 -0.6113 0.44907   1
  -8   0  13 0.22361 0.39821  -2
  -6   0  13 0.22361 0.39821   1
 -10   0  13 -0.4758 0.41326  -2
  -4   0  13 -0.4758 0.41326   1
 -12   0  13 -0.3995 0.54265  -2
  -2   0  13 -0.3995 0.54265   1
 -14   0  13 -0.8567 0.56056  -2
   0   0  13 -0.8567 0.56056   1
 -16   0  13 0.18678 0.96499  -2
   2   0  13 0.18678 0.96499   1
 -18   0  13 1.46529 1.68717  -2
   4   0  13 1.46529 1.68717   1
 -20   0  13 0.14336 1.80808  -2
   6   0  13 0.14336 1.80808   1
 -22   0  13 1.98598 2.03493  -2
   8   0  13 1.98598 2.03493   1
 -24   0  13 -0.6224 0.88676  -2
  10   0  13 -0.6224 0.88676   1
 -26   0  13 -0.3124 1.05652  -2
  12   0  13 -0.3124 1.05652   1
 -28   0  13 0.63563 1.24240  -2
  14   0  13 0.63563 1.24240   1
  15   1  13 31.9854 1.89226  -2
 -29   1  13 31.9854 1.89226   1
  13   1  13 405.147 9.31138  -2
 -27   1  13 405.147 9.31138   1
  11   1  13 87.3888 2.72668  -2
 -25   1  13 87.3888 2.72668   1
 -25   1  13 49.7863 2.50963   1
 -23   1  13 315.045 4.40462   1
   9   1  13 344.159 5.37472  -2
 -23   1  13 344.159 5.37472   1
   7   1  13 127.521 2.03605  -2
 -21   1  13 127.521 2.03605   1
 -21   1  13 71.8117 1.50568   1
   5   1  13 276.989 3.33089  -2
 -19   1  13 276.989 3.33089   1
 -19   1  13 256.923 3.82626   1
   3   1  13 540.899 5.07518  -2
 -17   1  13 540.899 5.07518   1
 -17   1  13 359.040 6.61050   1
   1   1  13 342.107 3.35014  -2
 -15   1  13 342.107 3.35014   1
 -15   1  13 311.848 7.15150   1
  -1   1  13 1259.45 11.1503  -2
 -13   1  13 1259.45 11.1503   1
 -13   1  13 879.735 27.1692   1
  -3   1  13 179.454 1.97111  -2
 -11   1  13 179.454 1.97111   1
  -5   1  13 1098.94 13.7797  -2
  -9   1  13 1098.94 13.7797   1
  -7   1  13 8.55262 0.57024  -2
  -7   1  13 8.55262 0.57024   1
  -9   1  13 1325.98 15.2215  -2
  -5   1  13 1325.98 15.2215   1
 -11   1  13 75.0252 1.18578  -2
  -3   1  13 75.0252 1.18578   1
 -13   1  13 1807.61 24.4275  -2
  -1   1  13 1807.61 24.4275   1
 -15   1  13 116.433 2.06368  -2
   1   1  13 116.433 2.06368   1
 -17   1  13 1076.30 16.9096  -2
   3   1  13 1076.30 16.9096   1
   3   1  13 976.873 28.5717   1
 -19   1  13 59.9562 2.37352  -2
   5   1  13 59.9562 2.37352   1
 -21   1  13 379.790 7.47571  -2
   7   1  13 379.790 7.47571   1
   7   1  13 365.222 11.4621   1
 -23   1  13 63.7822 1.87365  -2
   9   1  13 63.7822 1.87365   1
 -25   1  13 289.074 5.15922  -2
  11   1  13 289.074 5.15922   1
 -27   1  13 90.1251 2.12737  -2
  13   1  13 90.1251 2.12737   1
  15   1  13 123.579 3.62922   1
  14   2  13 51.3796 3.30376  -2
 -28   2  13 51.3796 3.30376   1
  12   2  13 35.3324 1.79182  -2
 -26   2  13 35.3324 1.79182   1
  10   2  13 5.59014 0.88436  -2
 -24   2  13 5.59014 0.88436   1
 -24   2  13 6.21732 0.81151   1
 -22   2  13 39.3129 1.07408   1
   8   2  13 43.4548 1.52979  -2
 -22   2  13 43.4548 1.52979   1
   6   2  13 76.6221 1.37845  -2
 -20   2  13 76.6221 1.37845   1
 -20   2  13 61.7818 1.47571   1
 -18   2  13 102.969 2.36797   1
   4   2  13 113.677 1.49550  -2
 -18   2  13 113.677 1.49550   1
   2   2  13 45.7397 0.82056  -2
 -16   2  13 45.7397 0.82056   1
 -16   2  13 41.8846 1.11316   1
   0   2  13 26.7177 0.59809  -2
 -14   2  13 26.7177 0.59809   1
  -2   2  13 147.015 1.80539  -2
 -12   2  13 147.015 1.80539   1
 -10   2  13 118.373 4.18686   1
  -4   2  13 159.899 2.13933  -2
 -10   2  13 159.899 2.13933   1
  -6   2  13 12.7671 0.57035  -2
  -8   2  13 12.7671 0.57035   1
  -8   2  13 15.0431 0.66272  -2
  -6   2  13 15.0431 0.66272   1
 -10   2  13 206.508 3.22538  -2
  -4   2  13 206.508 3.22538   1
 -12   2  13 219.214 3.47706  -2
  -2   2  13 219.214 3.47706   1
 -14   2  13 118.092 2.18059  -2
   0   2  13 118.092 2.18059   1
 -16   2  13 27.2136 0.97963  -2
   2   2  13 27.2136 0.97963   1
 -18   2  13 61.2410 1.49567  -2
   4   2  13 61.2410 1.49567   1
 -20   2  13 90.9679 2.50675  -2
   6   2  13 90.9679 2.50675   1
 -22   2  13 15.9141 1.16345  -2
   8   2  13 15.9141 1.16345   1
 -24   2  13 0.99887 0.69981  -2
  10   2  13 0.99887 0.69981   1
 -26   2  13 62.5010 1.85013  -2
  12   2  13 62.5010 1.85013   1
 -28   2  13 40.3003 1.88753  -2
  14   2  13 40.3003 1.88753   1
  13   3  13 152.385 6.21397  -2
 -27   3  13 152.385 6.21397   1
  11   3  13 48.7031 2.92061  -2
 -25   3  13 48.7031 2.92061   1
 -23   3  13 331.887 6.58144   1
   9   3  13 362.889 7.13850  -2
 -23   3  13 362.889 7.13850   1
   7   3  13 347.747 5.91751  -2
 -21   3  13 347.747 5.91751   1
 -21   3  13 239.475 4.23696   1
   5   3  13 516.762 6.93253  -2
 -19   3  13 516.762 6.93253   1
 -19   3  13 477.991 8.86998   1
   3   3  13 484.249 4.79248  -2
 -17   3  13 484.249 4.79248   1
 -17   3  13 361.339 6.77416   1
   1   3  13 146.403 1.77349  -2
 -15   3  13 146.403 1.77349   1
 -15   3  13 132.074 3.25309   1
  -1   3  13 434.212 4.49960  -2
 -13   3  13 434.212 4.49960   1
 -13   3  13 260.272 8.61097   1
  -3   3  13 14.9573 0.58267  -2
 -11   3  13 14.9573 0.58267   1
  -5   3  13 1338.59 13.6345  -2
  -9   3  13 1338.59 13.6345   1
  -7   3  13 242.962 3.79990  -2
  -7   3  13 242.962 3.79990   1
  -9   3  13 1717.19 23.1741  -2
  -5   3  13 1717.19 23.1741   1
 -11   3  13 30.5098 0.87501  -2
  -3   3  13 30.5098 0.87501   1
 -13   3  13 1025.99 18.3861  -2
  -1   3  13 1025.99 18.3861   1
 -15   3  13 50.9374 1.13082  -2
   1   3  13 50.9374 1.13082   1
 -17   3  13 666.701 8.80691  -2
   3   3  13 666.701 8.80691   1
 -19   3  13 114.108 2.46419  -2
   5   3  13 114.108 2.46419   1
 -21   3  13 676.092 12.5999  -2
   7   3  13 676.092 12.5999   1
 -23   3  13 74.3890 2.25774  -2
   9   3  13 74.3890 2.25774   1
 -25   3  13 207.828 4.02631  -2
  11   3  13 207.828 4.02631   1
 -27   3  13 37.5294 1.40199  -2
  13   3  13 37.5294 1.40199   1
  12   4  13 25.5335 2.57824  -2
 -26   4  13 25.5335 2.57824   1
 -24   4  13 1.47986 1.07210   1
   8   4  13 6.98882 0.80207  -2
 -22   4  13 6.98882 0.80207   1
 -22   4  13 7.70953 0.85027   1
   6   4  13 13.4643 0.98407  -2
 -20   4  13 13.4643 0.98407   1
 -20   4  13 4.17227 0.48898   1
 -18   4  13 31.5599 1.10102   1
   4   4  13 37.0640 1.01089  -2
 -18   4  13 37.0640 1.01089   1
   2   4  13 4.61587 0.50729  -2
 -16   4  13 4.61587 0.50729   1
 -16   4  13 2.58804 0.69501   1
   0   4  13 34.4753 0.79341  -2
 -14   4  13 34.4753 0.79341   1
 -14   4  13 21.2110 0.94934   1
 -12   4  13 35.9899 1.83832   1
  -2   4  13 36.4623 0.80370  -2
 -12   4  13 36.4623 0.80370   1
  -4   4  13 15.3472 0.65809  -2
 -10   4  13 15.3472 0.65809   1
  -6   4  13 5.01015 0.53534  -2
  -8   4  13 5.01015 0.53534   1
  -8   4  13 2.60745 0.50151  -2
  -6   4  13 2.60745 0.50151   1
 -10   4  13 70.0175 1.58265  -2
  -4   4  13 70.0175 1.58265   1
 -12   4  13 9.88987 0.63257  -2
  -2   4  13 9.88987 0.63257   1
 -14   4  13 80.5191 1.85480  -2
   0   4  13 80.5191 1.85480   1
 -16   4  13 12.2479 1.05490  -2
   2   4  13 12.2479 1.05490   1
 -18   4  13 31.0022 1.12050  -2
   4   4  13 31.0022 1.12050   1
 -20   4  13 40.9193 1.65206  -2
   6   4  13 40.9193 1.65206   1
 -22   4  13 5.00767 1.23834  -2
   8   4  13 5.00767 1.23834   1
 -24   4  13 3.92712 1.19899  -2
  10   4  13 3.92712 1.19899   1
 -26   4  13 16.3749 1.21399  -2
  12   4  13 16.3749 1.21399   1
  11   5  13 64.5772 3.65087  -2
 -25   5  13 64.5772 3.65087   1
 -25   5  13 40.5818 2.49262   1
 -23   5  13 212.653 7.56820   1
   9   5  13 232.230 8.22153  -2
 -23   5  13 232.230 8.22153   1
   7   5  13 97.5518 2.25326  -2
 -21   5  13 97.5518 2.25326   1
 -21   5  13 42.0793 1.36398   1
   5   5  13 193.366 3.69491  -2
 -19   5  13 193.366 3.69491   1
 -19   5  13 180.600 3.30152   1
   3   5  13 269.045 3.63518  -2
 -17   5  13 269.045 3.63518   1
 -17   5  13 145.854 3.89256   1
   1   5  13 84.4974 1.34091  -2
 -15   5  13 84.4974 1.34091   1
 -15   5  13 74.3473 3.41395   1
  -1   5  13 592.955 6.73485  -2
 -13   5  13 592.955 6.73485   1
 -13   5  13 475.971 15.4689   1
  -3   5  13 198.997 2.66882  -2
 -11   5  13 198.997 2.66882   1
 -11   5  13 189.282 6.51916   1
  -5   5  13 883.344 10.4207  -2
  -9   5  13 883.344 10.4207   1
  -7   5  13 31.0641 0.82788  -2
  -7   5  13 31.0641 0.82788   1
  -9   5  13 988.364 12.4705  -2
  -5   5  13 988.364 12.4705   1
 -11   5  13 44.7550 1.01491  -2
  -3   5  13 44.7550 1.01491   1
 -13   5  13 606.928 8.05096  -2
  -1   5  13 606.928 8.05096   1
 -15   5  13 19.3577 1.00318  -2
   1   5  13 19.3577 1.00318   1
 -17   5  13 699.864 12.6350  -2
   3   5  13 699.864 12.6350   1
 -19   5  13 42.0693 1.32612  -2
   5   5  13 42.0693 1.32612   1
 -21   5  13 387.912 6.64096  -2
   7   5  13 387.912 6.64096   1
 -23   5  13 59.5722 2.68007  -2
   9   5  13 59.5722 2.68007   1
 -25   5  13 186.974 5.74007  -2
  11   5  13 186.974 5.74007   1
 -24   6  13 2.24350 1.09369   1
  10   6  13 8.35624 2.07653  -2
 -24   6  13 8.35624 2.07653   1
 -22   6  13 30.0859 1.46300   1
   8   6  13 46.5259 2.98852  -2
 -22   6  13 46.5259 2.98852   1
   6   6  13 29.6079 1.13605  -2
 -20   6  13 29.6079 1.13605   1
 -20   6  13 17.2863 1.83144   1
   4   6  13 35.1751 1.18897  -2
 -18   6  13 35.1751 1.18897   1
   2   6  13 6.52523 0.65413  -2
 -16   6  13 6.52523 0.65413   1
 -16   6  13 3.22353 0.76141   1
   0   6  13 30.2540 0.95239  -2
 -14   6  13 30.2540 0.95239   1
 -14   6  13 27.8350 2.03125   1
  -2   6  13 45.5011 1.10917  -2
 -12   6  13 45.5011 1.10917   1
 -12   6  13 37.9025 2.16949   1
  -4   6  13 112.836 1.91078  -2
 -10   6  13 112.836 1.91078   1
 -10   6  13 100.334 3.83354   1
  -6   6  13 221.188 3.11229  -2
  -8   6  13 221.188 3.11229   1
  -8   6  13 48.2591 1.39400  -2
  -6   6  13 48.2591 1.39400   1
 -10   6  13 25.5636 0.97969  -2
  -4   6  13 25.5636 0.97969   1
 -12   6  13 52.5496 1.40477  -2
  -2   6  13 52.5496 1.40477   1
 -14   6  13 13.0022 1.13082  -2
   0   6  13 13.0022 1.13082   1
 -16   6  13 10.8895 1.10491  -2
   2   6  13 10.8895 1.10491   1
 -18   6  13 177.702 4.05383  -2
   4   6  13 177.702 4.05383   1
 -20   6  13 78.6155 2.40805  -2
   6   6  13 78.6155 2.40805   1
 -22   6  13 101.078 2.86059  -2
   8   6  13 101.078 2.86059   1
 -24   6  13 22.7010 1.56992  -2
  10   6  13 22.7010 1.56992   1
 -23   7  13 171.390 6.57982   1
   9   7  13 193.573 7.36850  -2
 -23   7  13 193.573 7.36850   1
   7   7  13 69.6506 2.59541  -2
 -21   7  13 69.6506 2.59541   1
   5   7  13 15.5000 1.23588  -2
 -19   7  13 15.5000 1.23588   1
   3   7  13 112.228 2.79734  -2
 -17   7  13 112.228 2.79734   1
 -17   7  13 52.5891 1.64954   1
   1   7  13 199.458 3.91791  -2
 -15   7  13 199.458 3.91791   1
 -15   7  13 189.109 4.85760   1
  -1   7  13 565.309 7.51850  -2
 -13   7  13 565.309 7.51850   1
 -13   7  13 481.187 15.9344   1
  -3   7  13 146.450 2.45230  -2
 -11   7  13 146.450 2.45230   1
 -11   7  13 135.256 5.17310   1
  -5   7  13 592.406 10.8723  -2
  -9   7  13 592.406 10.8723   1
  -9   7  13 537.134 17.1442   1
  -7   7  13 6.03477 0.78981  -2
  -7   7  13 6.03477 0.78981   1
  -9   7  13 310.418 5.40762  -2
  -5   7  13 310.418 5.40762   1
 -11   7  13 45.9746 1.37167  -2
  -3   7  13 45.9746 1.37167   1
 -13   7  13 616.081 9.86308  -2
  -1   7  13 616.081 9.86308   1
 -15   7  13 41.5835 1.46201  -2
   1   7  13 41.5835 1.46201   1
 -17   7  13 394.759 7.72449  -2
   3   7  13 394.759 7.72449   1
 -19   7  13 14.4018 1.53658  -2
   5   7  13 14.4018 1.53658   1
 -21   7  13 319.881 6.67629  -2
   7   7  13 319.881 6.67629   1
 -23   7  13 41.1961 1.98751  -2
   9   7  13 41.1961 1.98751   1
   8   8  13 37.6991 2.08297  -2
 -22   8  13 37.6991 2.08297   1
   6   8  13 4.60321 1.35851  -2
 -20   8  13 4.60321 1.35851   1
   4   8  13 44.0015 1.76039  -2
 -18   8  13 44.0015 1.76039   1
   2   8  13 0.95138 0.95754  -2
 -16   8  13 0.95138 0.95754   1
 -16   8  13 -0.3053 0.75777   1
 -14   8  13 16.3532 1.19971   1
   0   8  13 20.6094 1.24976  -2
 -14   8  13 20.6094 1.24976   1
 -12   8  13 63.2927 3.21602   1
  -2   8  13 66.2733 1.65700  -2
 -12   8  13 66.2733 1.65700   1
  -4   8  13 47.8431 1.58846  -2
 -10   8  13 47.8431 1.58846   1
 -10   8  13 35.0507 2.10820   1
  -6   8  13 46.4104 1.58008  -2
  -8   8  13 46.4104 1.58008   1
  -8   8  13 43.2734 2.15699   1
  -8   8  13 26.5760 1.28955  -2
  -6   8  13 26.5760 1.28955   1
 -10   8  13 97.5891 2.41794  -2
  -4   8  13 97.5891 2.41794   1
 -12   8  13 28.8298 1.48296  -2
  -2   8  13 28.8298 1.48296   1
 -14   8  13 23.5175 1.43770  -2
   0   8  13 23.5175 1.43770   1
 -16   8  13 0.09035 1.05375  -2
   2   8  13 0.09035 1.05375   1
 -18   8  13 82.2697 2.54450  -2
   4   8  13 82.2697 2.54450   1
 -20   8  13 3.34880 1.19831  -2
   6   8  13 3.34880 1.19831   1
 -22   8  13 98.8120 3.58476  -2
   8   8  13 98.8120 3.58476   1
   5   9  13 183.099 5.00840  -2
 -19   9  13 183.099 5.00840   1
   3   9  13 111.665 5.25837  -2
 -17   9  13 111.665 5.25837   1
   1   9  13 34.3189 2.17558  -2
 -15   9  13 34.3189 2.17558   1
 -15   9  13 25.9913 1.75532   1
 -13   9  13 80.2514 3.49277   1
  -1   9  13 110.608 3.73676  -2
 -13   9  13 110.608 3.73676   1
  -3   9  13 13.2833 1.17868  -2
 -11   9  13 13.2833 1.17868   1
 -11   9  13 14.8985 2.01134   1
  -5   9  13 200.286 4.45078  -2
  -9   9  13 200.286 4.45078   1
  -9   9  13 143.956 5.46531   1
  -7   9  13 4.16853 1.08618  -2
  -7   9  13 4.16853 1.08618   1
  -9   9  13 412.963 8.07465  -2
  -5   9  13 412.963 8.07465   1
 -11   9  13 5.50439 1.38038  -2
  -3   9  13 5.50439 1.38038   1
 -13   9  13 235.878 6.08258  -2
  -1   9  13 235.878 6.08258   1
 -15   9  13 7.24089 1.24824  -2
   1   9  13 7.24089 1.24824   1
 -17   9  13 250.443 5.48387  -2
   3   9  13 250.443 5.48387   1
 -19   9  13 49.5388 2.05997  -2
   5   9  13 49.5388 2.05997   1
   2  10  13 24.8555 2.77758  -2
 -16  10  13 24.8555 2.77758   1
   0  10  13 82.3827 3.27279  -2
 -14  10  13 82.3827 3.27279   1
  -2  10  13 20.3860 1.83403  -2
 -12  10  13 20.3860 1.83403   1
 -12  10  13 14.8338 1.54563   1
  -4  10  13 14.6619 1.28475  -2
 -10  10  13 14.6619 1.28475   1
  -6  10  13 20.8042 1.72644  -2
  -8  10  13 20.8042 1.72644   1
  -8  10  13 6.94168 1.39174  -2
  -6  10  13 6.94168 1.39174   1
 -10  10  13 65.6192 2.70553  -2
  -4  10  13 65.6192 2.70553   1
 -12  10  13 41.4865 2.20667  -2
  -2  10  13 41.4865 2.20667   1
 -14  10  13 192.093 5.34776  -2
   0  10  13 192.093 5.34776   1
 -16  10  13 7.52233 1.51101  -2
   2  10  13 7.52233 1.51101   1
  -3  11  13 20.9670 1.95795  -2
 -11  11  13 20.9670 1.95795   1
  -5  11  13 67.7229 2.25957  -2
  -9  11  13 67.7229 2.25957   1
  -7  11  13 3.00172 1.40394  -2
  -7  11  13 3.00172 1.40394   1
  -9  11  13 174.661 5.04658  -2
  -5  11  13 174.661 5.04658   1
 -11  11  13 20.2128 1.85828  -2
  -3  11  13 20.2128 1.85828   1
 -28   0  14 2.04354 1.12005   1
 -26   0  14 93.6689 3.92085   1
 -24   0  14 9.20845 0.77153   1
 -22   0  14 396.891 5.46657   1
 -20   0  14 47.3121 1.04931   1
 -18   0  14 89.2274 1.54881   1
 -16   0  14 15.7933 0.57374   1
 -14   0  14 24.1822 0.76347   1
 -12   0  14 12.2254 0.66180   1
 -10   0  14 67.3280 1.57764   1
  -8   0  14 303.819 5.98104   1
  -6   0  14 309.666 6.02440   1
  -4   0  14 2.17836 0.48126   1
  -2   0  14 29.6366 0.95488   1
   0   0  14 12.1263 1.03347   1
   2   0  14 19.8247 1.34672   1
   4   0  14 25.1609 2.46589   1
   6   0  14 41.0000 3.23973   1
   8   0  14 42.3496 1.87748   1
  10   0  14 3.33636 0.93078   1
  12   0  14 47.5191 2.23016   1
  14   0  14 7.30599 1.46784   1
 -29   1  14 17.6128 1.92662   1
 -27   1  14 1.62968 1.16985   1
 -25   1  14 23.2612 0.88836   1
 -23   1  14 18.3574 0.59495   1
 -21   1  14 14.2832 0.47041   1
 -19   1  14 115.208 1.32039   1
 -17   1  14 1.27472 0.25866   1
 -15   1  14 11.4740 0.40100   1
 -13   1  14 24.9163 0.57043   1
 -11   1  14 67.3967 1.00798   1
  -9   1  14 157.642 2.47034   1
  -7   1  14 1.71182 0.36117   1
  -5   1  14 124.823 1.98185   1
  -9   1  14 156.080 5.93700  -2
  -5   1  14 156.080 5.93700   1
  -3   1  14 57.9019 1.06028   1
  -1   1  14 1.45966 0.38561   1
   1   1  14 2.73137 0.42406   1
   3   1  14 26.8377 0.97085   1
   5   1  14 69.6531 2.10695   1
   7   1  14 4.21369 0.72423   1
   9   1  14 12.4360 1.21702   1
  11   1  14 13.7771 1.31974   1
  13   1  14 1.12250 0.65111   1
 -28   2  14 6.85515 1.60786   1
 -26   2  14 224.333 5.47125   1
 -24   2  14 9.34977 0.62242   1
 -22   2  14 86.6645 1.34485   1
 -20   2  14 5.22935 0.38612   1
 -18   2  14 127.880 1.40583   1
 -16   2  14 2.86144 0.29460   1
   2   2  14 7.85993 2.41929  -2
 -16   2  14 7.85993 2.41929   1
 -14   2  14 85.2850 1.06505   1
 -12   2  14 77.9690 1.08455   1
 -10   2  14 183.435 2.39274   1
  -8   2  14 1.48203 0.33737   1
  -6   2  14 0.40946 0.30776   1
  -4   2  14 18.1220 0.62560   1
  -2   2  14 9.43100 0.64394   1
 -14   2  14 27.6918 2.24679  -2
   0   2  14 27.6918 2.24679   1
   0   2  14 11.0882 0.76400   1
   2   2  14 6.88396 0.66834   1
   4   2  14 21.9889 0.96169   1
   6   2  14 0.46232 0.67371   1
   8   2  14 39.4606 1.74858   1
  10   2  14 14.0934 1.40033   1
  12   2  14 7.61247 1.17286   1
 -27   3  14 42.7995 2.68190   1
 -25   3  14 39.5568 1.72384   1
 -23   3  14 14.5804 0.63446   1
 -21   3  14 14.3541 0.52644   1
 -19   3  14 6.67215 0.40643   1
 -17   3  14 4.86426 0.37110   1
 -15   3  14 20.4957 0.53020   1
 -13   3  14 173.707 2.15809   1
  -1   3  14 182.750 7.36226  -2
 -13   3  14 182.750 7.36226   1
 -11   3  14 95.3370 1.49574   1
  -9   3  14 68.5079 1.25865   1
  -7   3  14 7.40197 0.49442   1
  -5   3  14 8.28539 0.59617   1
  -3   3  14 63.6689 1.52701   1
  -1   3  14 62.0351 1.90274   1
   1   3  14 5.14462 0.77518   1
 -15   3  14 7.47058 1.97692  -2
   1   3  14 7.47058 1.97692   1
   3   3  14 44.7024 1.50093   1
 -17   3  14 32.6742 2.47529  -2
   3   3  14 32.6742 2.47529   1
   5   3  14 53.7075 1.68928   1
   7   3  14 13.7712 1.34413   1
   9   3  14 18.7104 1.49698   1
  11   3  14 13.8266 1.47408   1
  13   3  14 12.5649 2.25511   1
 -26   4  14 90.0730 2.82902   1
 -24   4  14 8.44476 1.10911   1
 -22   4  14 61.3144 1.13381   1
 -20   4  14 12.7384 0.54937   1
 -18   4  14 85.9941 1.26544   1
   4   4  14 93.2630 5.10681  -2
 -18   4  14 93.2630 5.10681   1
 -16   4  14 74.8595 1.15104   1
   2   4  14 87.5749 4.84904  -2
 -16   4  14 87.5749 4.84904   1
 -14   4  14 344.600 3.72653   1
   0   4  14 376.073 13.4112  -2
 -14   4  14 376.073 13.4112   1
 -12   4  14 17.6874 0.57946   1
  -2   4  14 25.0096 2.70358  -2
 -12   4  14 25.0096 2.70358   1
 -10   4  14 3.12296 0.38676   1
  -8   4  14 7.62475 0.53639   1
  -6   4  14 1.64778 0.35293   1
  -4   4  14 12.6624 0.73437   1
  -2   4  14 32.6082 0.93862   1
   0   4  14 109.839 2.27912   1
   2   4  14 25.9556 1.38939   1
 -16   4  14 39.0621 2.03667  -2
   2   4  14 39.0621 2.03667   1
   4   4  14 20.6384 1.34562   1
 -18   4  14 39.5682 3.17250  -2
   4   4  14 39.5682 3.17250   1
 -20   4  14 0.98206 1.36923  -2
   6   4  14 0.98206 1.36923   1
   6   4  14 0.78632 0.71801   1
 -22   4  14 18.8629 2.22062  -2
   8   4  14 18.8629 2.22062   1
   8   4  14 12.4752 1.78859   1
  10   4  14 7.45880 1.23139   1
  12   4  14 35.9612 2.39878   1
 -25   5  14 25.5839 1.50563   1
 -23   5  14 12.5887 0.98549   1
 -21   5  14 83.2978 1.37576   1
 -19   5  14 1.44849 0.35155   1
 -17   5  14 160.152 1.99824   1
   1   5  14 4.98583 1.31971  -2
 -15   5  14 4.98583 1.31971   1
 -15   5  14 4.49594 0.47080   1
 -13   5  14 3.45189 0.38957   1
  -1   5  14 11.8869 1.24643  -2
 -13   5  14 11.8869 1.24643   1
 -11   5  14 56.9185 1.13254   1
  -3   5  14 68.1105 4.04462  -2
 -11   5  14 68.1105 4.04462   1
  -9   5  14 47.4475 1.06624   1
  -7   5  14 21.3889 0.73469   1
  -5   5  14 87.3198 1.67017   1
  -3   5  14 67.0311 1.46970   1
 -13   5  14 46.9564 3.43060  -2
  -1   5  14 46.9564 3.43060   1
  -1   5  14 46.6839 1.54133   1
 -15   5  14 5.14077 2.16249  -2
   1   5  14 5.14077 2.16249   1
   1   5  14 5.94374 1.68249   1
 -17   5  14 86.5489 3.21660  -2
   3   5  14 86.5489 3.21660   1
   3   5  14 57.7185 3.76069   1
 -19   5  14 1.32879 1.50581  -2
   5   5  14 1.32879 1.50581   1
   5   5  14 1.02291 1.25895   1
   7   5  14 1.72460 1.03742   1
 -21   5  14 19.7188 2.94563  -2
   7   5  14 19.7188 2.94563   1
   9   5  14 34.7432 2.29492   1
  11   5  14 3.86676 1.93677   1
 -24   6  14 10.8132 1.90512   1
  10   6  14 8.17626 2.18941  -2
 -24   6  14 8.17626 2.18941   1
 -22   6  14 100.825 3.09425   1
 -20   6  14 57.6302 1.21537   1
 -18   6  14 262.682 3.18812   1
 -16   6  14 2.41199 0.42386   1
 -14   6  14 5.81809 0.61551   1
   0   6  14 6.42731 1.36316  -2
 -14   6  14 6.42731 1.36316   1
 -12   6  14 13.8813 0.64582   1
  -2   6  14 17.5386 2.74013  -2
 -12   6  14 17.5386 2.74013   1
 -10   6  14 4.43014 0.57060   1
  -8   6  14 5.44956 0.67098   1
  -6   6  14 51.8678 1.47791   1
  -4   6  14 74.4394 1.81812   1
 -10   6  14 67.0650 4.25865  -2
  -4   6  14 67.0650 4.25865   1
 -12   6  14 30.1575 3.13516  -2
  -2   6  14 30.1575 3.13516   1
  -2   6  14 26.7956 1.02690   1
 -14   6  14 6.14497 2.50341  -2
   0   6  14 6.14497 2.50341   1
   0   6  14 11.1784 1.10166   1
 -16   6  14 2.28852 2.43549  -2
   2   6  14 2.28852 2.43549   1
   2   6  14 0.19596 0.61162   1
 -18   6  14 66.3215 3.73139  -2
   4   6  14 66.3215 3.73139   1
 -20   6  14 15.0686 1.96911  -2
   6   6  14 15.0686 1.96911   1
 -22   6  14 53.0989 2.87748  -2
   8   6  14 53.0989 2.87748   1
  10   6  14 4.91489 2.06881   1
 -23   7  14 3.90994 0.96692   1
   7   7  14 118.567 4.96082  -2
 -21   7  14 118.567 4.96082   1
 -21   7  14 108.145 4.83755   1
 -19   7  14 18.3018 0.88025   1
 -17   7  14 130.625 2.44220   1
 -15   7  14 0.98993 0.46724   1
   1   7  14 9.42295 2.02735  -2
 -15   7  14 9.42295 2.02735   1
 -13   7  14 103.506 2.08908   1
  -1   7  14 119.853 4.90254  -2
 -13   7  14 119.853 4.90254   1
 -11   7  14 2.84124 0.49131   1
  -9   7  14 6.50182 0.76271   1
  -7   7  14 14.0975 0.82675   1
  -5   7  14 74.5459 2.17189   1
  -9   7  14 77.5085 4.79223  -2
  -5   7  14 77.5085 4.79223   1
 -11   7  14 67.4639 2.77562  -2
  -3   7  14 67.4639 2.77562   1
  -3   7  14 68.8226 2.63837   1
  -1   7  14 63.2630 1.95423   1
 -13   7  14 86.0814 4.95242  -2
  -1   7  14 86.0814 4.95242   1
 -15   7  14 33.5430 3.72600  -2
   1   7  14 33.5430 3.72600   1
   1   7  14 36.3121 1.69453   1
 -17   7  14 31.6140 3.11005  -2
   3   7  14 31.6140 3.11005   1
   3   7  14 3.53657 0.96359   1
   5   7  14 2.46655 1.11882   1
 -19   7  14 4.19969 2.67052  -2
   5   7  14 4.19969 2.67052   1
   7   7  14 47.0309 2.68144   1
 -21   7  14 75.3994 3.52292  -2
   7   7  14 75.3994 3.52292   1
   9   7  14 5.45497 1.11530   1
 -22   8  14 148.609 4.22442   1
 -20   8  14 0.59216 0.77826   1
 -18   8  14 23.3752 2.23141   1
 -16   8  14 3.26502 0.71458   1
 -14   8  14 13.0282 0.85646   1
   0   8  14 10.3944 2.01457  -2
 -14   8  14 10.3944 2.01457   1
 -12   8  14 14.7517 0.89968   1
  -2   8  14 15.7379 1.91676  -2
 -12   8  14 15.7379 1.91676   1
 -10   8  14 35.5998 1.09416   1
  -8   8  14 24.3927 1.39103   1
  -6   8  14 24.6575 2.19263  -2
  -8   8  14 24.6575 2.19263   1
  -8   8  14 24.9320 2.23129  -2
  -6   8  14 24.9320 2.23129   1
  -6   8  14 22.8935 1.55734   1
  -4   8  14 4.95993 1.30746   1
 -10   8  14 12.1499 1.63819  -2
  -4   8  14 12.1499 1.63819   1
 -12   8  14 6.34227 1.57903  -2
  -2   8  14 6.34227 1.57903   1
  -2   8  14 5.51763 1.34123   1
 -14   8  14 0.98981 1.48469  -2
   0   8  14 0.98981 1.48469   1
   0   8  14 0.24091 0.88558   1
   2   8  14 0.37822 0.69339   1
 -16   8  14 3.34504 2.75087  -2
   2   8  14 3.34504 2.75087   1
   4   8  14 15.4974 1.36666   1
 -18   8  14 17.8750 3.44933  -2
   4   8  14 17.8750 3.44933   1
   6   8  14 0.27618 1.04120   1
 -19   9  14 1.47987 1.29149   1
 -17   9  14 111.019 5.10676   1
 -15   9  14 4.87420 1.09082   1
 -13   9  14 105.467 2.74664   1
 -11   9  14 1.40622 0.60360   1
  -9   9  14 85.2517 2.43623   1
  -7   9  14 5.85519 1.15178   1
  -7   9  14 3.29876 1.78050  -2
  -7   9  14 3.29876 1.78050   1
  -5   9  14 10.6275 1.42966   1
  -9   9  14 24.4411 2.55048  -2
  -5   9  14 24.4411 2.55048   1
 -11   9  14 5.59919 1.94492  -2
  -3   9  14 5.59919 1.94492   1
  -3   9  14 6.58156 1.63162   1
  -1   9  14 23.5108 2.23422   1
 -13   9  14 43.5791 2.47614  -2
  -1   9  14 43.5791 2.47614   1
 -15   9  14 48.3412 2.79223  -2
   1   9  14 48.3412 2.79223   1
   1   9  14 50.7271 3.16299   1
   3   9  14 17.9755 1.53080   1
 -17   9  14 38.3079 4.22616  -2
   3   9  14 38.3079 4.22616   1
   5   9  14 34.2163 2.80039   1
 -19   9  14 26.2190 4.29502  -2
   5   9  14 26.2190 4.29502   1
 -16  10  14 17.1841 2.13833   1
 -14  10  14 51.3861 1.80134   1
 -12  10  14 31.7849 1.43899   1
 -10  10  14 45.0418 2.07056   1
  -6  10  14 5.28311 1.84910  -2
  -8  10  14 5.28311 1.84910   1
  -8  10  14 11.6679 2.18820   1
  -6  10  14 5.82789 1.66491   1
  -8  10  14 4.40762 1.89136  -2
  -6  10  14 4.40762 1.89136   1
 -10  10  14 17.8009 2.38632  -2
  -4  10  14 17.8009 2.38632   1
  -4  10  14 12.1592 2.19767   1
  -2  10  14 8.20271 1.85226   1
 -12  10  14 17.5400 2.45187  -2
  -2  10  14 17.5400 2.45187   1
 -14  10  14 25.6004 2.78060  -2
   0  10  14 25.6004 2.78060   1
   0  10  14 17.5073 2.17707   1
  -9  11  14 92.7570 4.08304   1
  -7  11  14 2.05254 1.94014  -2
  -7  11  14 2.05254 1.94014   1
  -7  11  14 -0.9849 0.96387   1
 -26   0  15 0.67859 0.99937   1
 -24   0  15 1.00590 1.12181   1
   8   0  15 1.04603 1.11729  -2
 -24   0  15 1.04603 1.11729   1
   6   0  15 0.11875 0.76045  -2
 -22   0  15 0.11875 0.76045   1
 -22   0  15 1.58282 1.08580   1
   4   0  15 -0.1584 0.77033  -2
 -20   0  15 -0.1584 0.77033   1
 -20   0  15 -0.0488 0.73581   1
   2   0  15 1.69167 0.67985  -2
 -18   0  15 1.69167 0.67985   1
 -18   0  15 0.75489 0.63693   1
   0   0  15 -0.1342 0.55669  -2
 -16   0  15 -0.1342 0.55669   1
  -2   0  15 -0.1642 0.55396  -2
 -14   0  15 -0.1642 0.55396   1
  -4   0  15 -0.2985 0.51246  -2
 -12   0  15 -0.2985 0.51246   1
  -6   0  15 -0.4304 0.56479  -2
 -10   0  15 -0.4304 0.56479   1
  -8   0  15 -0.3621 0.54501  -2
  -8   0  15 -0.3621 0.54501   1
 -10   0  15 -0.1617 0.50795  -2
  -6   0  15 -0.1617 0.50795   1
 -12   0  15 -1.0371 0.47323  -2
  -4   0  15 -1.0371 0.47323   1
 -14   0  15 -1.0721 1.22082  -2
  -2   0  15 -1.0721 1.22082   1
 -16   0  15 3.79095 0.68692  -2
   0   0  15 3.79095 0.68692   1
 -18   0  15 -0.8787 0.71517  -2
   2   0  15 -0.8787 0.71517   1
 -20   0  15 0.09607 1.67886  -2
   4   0  15 0.09607 1.67886   1
 -22   0  15 3.47968 2.03060  -2
   6   0  15 3.47968 2.03060   1
 -24   0  15 1.18753 0.86013  -2
   8   0  15 1.18753 0.86013   1
 -26   0  15 0.35427 0.97789  -2
  10   0  15 0.35427 0.97789   1
 -28   0  15 0.71082 1.11211  -2
  12   0  15 0.71082 1.11211   1
   9   1  15 15.3737 1.34811  -2
 -25   1  15 15.3737 1.34811   1
   7   1  15 195.861 3.37244  -2
 -23   1  15 195.861 3.37244   1
 -23   1  15 160.298 4.39457   1
   5   1  15 40.7755 1.09951  -2
 -21   1  15 40.7755 1.09951   1
 -21   1  15 28.8085 1.36156   1
   3   1  15 94.8291 1.42981  -2
 -19   1  15 94.8291 1.42981   1
 -19   1  15 53.6548 1.72554   1
   1   1  15 85.3003 1.18787  -2
 -17   1  15 85.3003 1.18787   1
  -1   1  15 85.4426 1.20425  -2
 -15   1  15 85.4426 1.20425   1
  -3   1  15 127.420 1.64223  -2
 -13   1  15 127.420 1.64223   1
  -5   1  15 136.564 2.02068  -2
 -11   1  15 136.564 2.02068   1
  -7   1  15 635.937 10.4229  -2
  -9   1  15 635.937 10.4229   1
  -9   1  15 133.922 2.34323  -2
  -7   1  15 133.922 2.34323   1
 -11   1  15 627.960 10.0609  -2
  -5   1  15 627.960 10.0609   1
 -13   1  15 180.023 2.65057  -2
  -3   1  15 180.023 2.65057   1
 -15   1  15 264.918 4.63605  -2
  -1   1  15 264.918 4.63605   1
 -17   1  15 311.243 4.41757  -2
   1   1  15 311.243 4.41757   1
 -19   1  15 366.679 7.10705  -2
   3   1  15 366.679 7.10705   1
 -21   1  15 87.9684 2.44568  -2
   5   1  15 87.9684 2.44568   1
 -23   1  15 403.373 7.94522  -2
   7   1  15 403.373 7.94522   1
 -25   1  15 20.4148 0.97179  -2
   9   1  15 20.4148 0.97179   1
 -27   1  15 196.984 3.81339  -2
  11   1  15 196.984 3.81339   1
  10   2  15 14.3165 1.94261  -2
 -26   2  15 14.3165 1.94261   1
 -24   2  15 1.74507 1.06398   1
   8   2  15 4.67789 1.16250  -2
 -24   2  15 4.67789 1.16250   1
   6   2  15 4.12118 0.72599  -2
 -22   2  15 4.12118 0.72599   1
 -22   2  15 4.29008 0.88563   1
   4   2  15 78.0773 1.40694  -2
 -20   2  15 78.0773 1.40694   1
 -20   2  15 75.8419 2.29836   1
   2   2  15 101.281 1.56749  -2
 -18   2  15 101.281 1.56749   1
 -18   2  15 93.1877 3.75169   1
   0   2  15 37.4117 0.80533  -2
 -16   2  15 37.4117 0.80533   1
 -16   2  15 33.7509 1.65129   1
  -2   2  15 48.6100 0.87224  -2
 -14   2  15 48.6100 0.87224   1
  -4   2  15 106.820 1.53734  -2
 -12   2  15 106.820 1.53734   1
  -6   2  15 99.5700 1.51705  -2
 -10   2  15 99.5700 1.51705   1
  -8   2  15 0.92157 0.48100  -2
  -8   2  15 0.92157 0.48100   1
 -10   2  15 74.5280 1.54526  -2
  -6   2  15 74.5280 1.54526   1
 -12   2  15 245.889 3.48321  -2
  -4   2  15 245.889 3.48321   1
 -14   2  15 55.1860 1.52642  -2
  -2   2  15 55.1860 1.52642   1
 -16   2  15 8.88746 0.79853  -2
   0   2  15 8.88746 0.79853   1
   0   2  15 3.44328 1.11011   1
 -18   2  15 62.5093 1.71434  -2
   2   2  15 62.5093 1.71434   1
 -20   2  15 44.1249 1.66599  -2
   4   2  15 44.1249 1.66599   1
 -22   2  15 6.01618 1.08072  -2
   6   2  15 6.01618 1.08072   1
 -24   2  15 10.1954 1.24599  -2
   8   2  15 10.1954 1.24599   1
 -26   2  15 41.4552 1.91723  -2
  10   2  15 41.4552 1.91723   1
 -28   2  15 11.3502 1.13805  -2
  12   2  15 11.3502 1.13805   1
  11   3  15 71.0819 3.55096  -2
 -27   3  15 71.0819 3.55096   1
   9   3  15 37.7602 2.75523  -2
 -25   3  15 37.7602 2.75523   1
   7   3  15 51.8973 1.79959  -2
 -23   3  15 51.8973 1.79959   1
 -23   3  15 30.7017 1.52099   1
 -21   3  15 25.0122 1.24193   1
   5   3  15 36.5027 1.19844  -2
 -21   3  15 36.5027 1.19844   1
   3   3  15 98.5512 1.74103  -2
 -19   3  15 98.5512 1.74103   1
   1   3  15 81.7283 1.44822  -2
 -17   3  15 81.7283 1.44822   1
 -17   3  15 73.2529 3.13695   1
  -1   3  15 257.822 3.06795  -2
 -15   3  15 257.822 3.06795   1
 -15   3  15 152.269 5.21067   1
  -3   3  15 319.117 3.71364  -2
 -13   3  15 319.117 3.71364   1
  -5   3  15 56.7210 1.14382  -2
 -11   3  15 56.7210 1.14382   1
  -7   3  15 192.269 2.69016  -2
  -9   3  15 192.269 2.69016   1
  -9   3  15 175.422 2.95197  -2
  -7   3  15 175.422 2.95197   1
 -11   3  15 213.703 3.44439  -2
  -5   3  15 213.703 3.44439   1
 -13   3  15 171.863 3.17130  -2
  -3   3  15 171.863 3.17130   1
 -15   3  15 770.388 11.0244  -2
  -1   3  15 770.388 11.0244   1
 -17   3  15 43.5916 1.46618  -2
   1   3  15 43.5916 1.46618   1
 -19   3  15 460.444 7.78831  -2
   3   3  15 460.444 7.78831   1
 -21   3  15 103.895 3.46158  -2
   5   3  15 103.895 3.46158   1
 -23   3  15 196.004 4.56974  -2
   7   3  15 196.004 4.56974   1
 -25   3  15 127.896 3.48551  -2
   9   3  15 127.896 3.48551   1
 -27   3  15 77.6077 3.15775  -2
  11   3  15 77.6077 3.15775   1
  10   4  15 6.66486 1.87935  -2
 -26   4  15 6.66486 1.87935   1
   8   4  15 4.45038 1.81973  -2
 -24   4  15 4.45038 1.81973   1
   6   4  15 9.95395 1.07957  -2
 -22   4  15 9.95395 1.07957   1
 -22   4  15 11.2126 1.26306   1
 -20   4  15 13.6079 1.71025   1
   4   4  15 14.2051 0.89061  -2
 -20   4  15 14.2051 0.89061   1
   2   4  15 6.06661 0.66563  -2
 -18   4  15 6.06661 0.66563   1
 -18   4  15 5.78807 1.32613   1
   0   4  15 68.6055 1.38141  -2
 -16   4  15 68.6055 1.38141   1
 -16   4  15 52.7227 2.49976   1
  -2   4  15 17.2043 0.67166  -2
 -14   4  15 17.2043 0.67166   1
  -4   4  15 40.6881 0.98322  -2
 -12   4  15 40.6881 0.98322   1
  -6   4  15 13.1063 0.71916  -2
 -10   4  15 13.1063 0.71916   1
  -8   4  15 18.5805 0.86826  -2
  -8   4  15 18.5805 0.86826   1
 -10   4  15 25.7256 1.09715  -2
  -6   4  15 25.7256 1.09715   1
 -12   4  15 11.1027 0.79198  -2
  -4   4  15 11.1027 0.79198   1
 -14   4  15 10.8133 0.78170  -2
  -2   4  15 10.8133 0.78170   1
 -16   4  15 127.065 3.99320  -2
   0   4  15 127.065 3.99320   1
 -18   4  15 19.3461 1.40857  -2
   2   4  15 19.3461 1.40857   1
 -20   4  15 8.35864 1.22304  -2
   4   4  15 8.35864 1.22304   1
 -22   4  15 0.33585 1.29147  -2
   6   4  15 0.33585 1.29147   1
 -24   4  15 6.37827 1.54323  -2
   8   4  15 6.37827 1.54323   1
 -26   4  15 7.35264 1.39819  -2
  10   4  15 7.35264 1.39819   1
   9   5  15 37.8990 2.90541  -2
 -25   5  15 37.8990 2.90541   1
   7   5  15 17.9951 2.32296  -2
 -23   5  15 17.9951 2.32296   1
 -21   5  15 15.4145 1.18585   1
   5   5  15 25.4100 1.82905  -2
 -21   5  15 25.4100 1.82905   1
   3   5  15 185.034 2.96988  -2
 -19   5  15 185.034 2.96988   1
 -19   5  15 147.870 5.91227   1
   1   5  15 198.164 3.11393  -2
 -17   5  15 198.164 3.11393   1
 -17   5  15 187.346 6.84694   1
  -1   5  15 110.792 1.86784  -2
 -15   5  15 110.792 1.86784   1
 -15   5  15 71.7654 3.08810   1
  -3   5  15 90.7909 1.78862  -2
 -13   5  15 90.7909 1.78862   1
 -13   5  15 77.8789 2.95002   1
  -5   5  15 126.308 2.31265  -2
 -11   5  15 126.308 2.31265   1
  -7   5  15 77.1649 1.83223  -2
  -9   5  15 77.1649 1.83223   1
  -9   5  15 147.020 2.91205  -2
  -7   5  15 147.020 2.91205   1
 -11   5  15 426.962 8.11884  -2
  -5   5  15 426.962 8.11884   1
 -13   5  15 24.9419 1.07444  -2
  -3   5  15 24.9419 1.07444   1
 -15   5  15 445.473 8.42024  -2
  -1   5  15 445.473 8.42024   1
 -17   5  15 97.0250 2.48729  -2
   1   5  15 97.0250 2.48729   1
 -19   5  15 395.472 8.05377  -2
   3   5  15 395.472 8.05377   1
 -21   5  15 103.223 3.73332  -2
   5   5  15 103.223 3.73332   1
 -23   5  15 92.1075 3.62723  -2
   7   5  15 92.1075 3.62723   1
 -25   5  15 66.9670 3.10639  -2
   9   5  15 66.9670 3.10639   1
   8   6  15 14.1228 2.21304  -2
 -24   6  15 14.1228 2.21304   1
   6   6  15 4.24763 1.90620  -2
 -22   6  15 4.24763 1.90620   1
   4   6  15 20.9714 1.30902  -2
 -20   6  15 20.9714 1.30902   1
   2   6  15 8.72351 0.73788  -2
 -18   6  15 8.72351 0.73788   1
   0   6  15 27.6272 1.00980  -2
 -16   6  15 27.6272 1.00980   1
 -16   6  15 25.5881 1.90398   1
  -2   6  15 6.83735 0.76426  -2
 -14   6  15 6.83735 0.76426   1
 -14   6  15 3.11986 0.92650   1
  -4   6  15 191.173 3.06153  -2
 -12   6  15 191.173 3.06153   1
  -6   6  15 37.2325 1.32082  -2
 -10   6  15 37.2325 1.32082   1
  -8   6  15 35.7846 1.47956  -2
  -8   6  15 35.7846 1.47956   1
 -10   6  15 35.8401 1.45193  -2
  -6   6  15 35.8401 1.45193   1
 -12   6  15 46.7004 1.44291  -2
  -4   6  15 46.7004 1.44291   1
 -14   6  15 19.0126 1.27097  -2
  -2   6  15 19.0126 1.27097   1
 -16   6  15 21.8352 1.30602  -2
   0   6  15 21.8352 1.30602   1
 -18   6  15 48.4365 2.06784  -2
   2   6  15 48.4365 2.06784   1
 -20   6  15 92.1706 2.57232  -2
   4   6  15 92.1706 2.57232   1
 -22   6  15 5.31008 1.02998  -2
   6   6  15 5.31008 1.02998   1
 -24   6  15 3.29413 1.09703  -2
   8   6  15 3.29413 1.09703   1
   7   7  15 108.921 5.11467  -2
 -23   7  15 108.921 5.11467   1
   5   7  15 72.7237 4.05112  -2
 -21   7  15 72.7237 4.05112   1
   3   7  15 39.7423 1.96391  -2
 -19   7  15 39.7423 1.96391   1
 -17   7  15 15.8000 1.77275   1
   1   7  15 40.3177 2.16388  -2
 -17   7  15 40.3177 2.16388   1
  -1   7  15 61.9432 1.59547  -2
 -15   7  15 61.9432 1.59547   1
 -15   7  15 31.5631 2.14176   1
 -13   7  15 29.2256 1.78390   1
  -3   7  15 37.3412 1.40050  -2
 -13   7  15 37.3412 1.40050   1
  -5   7  15 74.2982 2.18451  -2
 -11   7  15 74.2982 2.18451   1
  -7   7  15 216.764 4.08567  -2
  -9   7  15 216.764 4.08567   1
  -9   7  15 46.6898 1.52333  -2
  -7   7  15 46.6898 1.52333   1
 -11   7  15 248.508 4.60320  -2
  -5   7  15 248.508 4.60320   1
 -13   7  15 58.5610 1.95312  -2
  -3   7  15 58.5610 1.95312   1
 -15   7  15 282.970 5.69410  -2
  -1   7  15 282.970 5.69410   1
 -17   7  15 68.0883 2.67628  -2
   1   7  15 68.0883 2.67628   1
 -19   7  15 110.360 3.56070  -2
   3   7  15 110.360 3.56070   1
 -21   7  15 80.6684 2.52911  -2
   5   7  15 80.6684 2.52911   1
 -23   7  15 171.847 4.78513  -2
   7   7  15 171.847 4.78513   1
   4   8  15 24.4691 2.68640  -2
 -20   8  15 24.4691 2.68640   1
   2   8  15 9.42450 1.32836  -2
 -18   8  15 9.42450 1.32836   1
   0   8  15 25.5319 1.41295  -2
 -16   8  15 25.5319 1.41295   1
  -2   8  15 1.19302 0.94824  -2
 -14   8  15 1.19302 0.94824   1
 -14   8  15 2.00920 1.14425   1
  -4   8  15 39.2940 1.66377  -2
 -12   8  15 39.2940 1.66377   1
 -12   8  15 28.5249 1.89537   1
  -6   8  15 6.04288 1.04004  -2
 -10   8  15 6.04288 1.04004   1
  -8   8  15 223.556 4.83672  -2
  -8   8  15 223.556 4.83672   1
 -10   8  15 21.2777 1.38668  -2
  -6   8  15 21.2777 1.38668   1
 -12   8  15 52.9262 1.99249  -2
  -4   8  15 52.9262 1.99249   1
 -14   8  15 3.66915 1.03498  -2
  -2   8  15 3.66915 1.03498   1
 -16   8  15 8.74430 1.09818  -2
   0   8  15 8.74430 1.09818   1
 -18   8  15 26.8777 1.54359  -2
   2   8  15 26.8777 1.54359   1
 -20   8  15 5.65226 1.38566  -2
   4   8  15 5.65226 1.38566   1
   3   9  15 40.7989 3.25407  -2
 -19   9  15 40.7989 3.25407   1
   1   9  15 9.53106 2.15652  -2
 -17   9  15 9.53106 2.15652   1
  -1   9  15 24.0624 1.43358  -2
 -15   9  15 24.0624 1.43358   1
  -3   9  15 82.1101 2.43473  -2
 -13   9  15 82.1101 2.43473   1
  -5   9  15 51.4362 2.32448  -2
 -11   9  15 51.4362 2.32448   1
  -7   9  15 168.435 4.75690  -2
  -9   9  15 168.435 4.75690   1
  -9   9  15 49.6017 1.91584  -2
  -7   9  15 49.6017 1.91584   1
 -11   9  15 129.882 3.93704  -2
  -5   9  15 129.882 3.93704   1
 -13   9  15 63.7757 2.56380  -2
  -3   9  15 63.7757 2.56380   1
 -15   9  15 74.9034 2.46995  -2
  -1   9  15 74.9034 2.46995   1
 -17   9  15 44.7817 1.99393  -2
   1   9  15 44.7817 1.99393   1
 -19   9  15 181.293 4.37373  -2
   3   9  15 181.293 4.37373   1
  -2  10  15 4.85371 1.08467  -2
 -14  10  15 4.85371 1.08467   1
  -4  10  15 77.4284 2.40402  -2
 -12  10  15 77.4284 2.40402   1
  -6  10  15 0.29123 1.20990  -2
 -10  10  15 0.29123 1.20990   1
  -8  10  15 65.5144 2.70348  -2
  -8  10  15 65.5144 2.70348   1
 -10  10  15 1.79144 1.30803  -2
  -6  10  15 1.79144 1.30803   1
 -12  10  15 117.454 3.81790  -2
  -4  10  15 117.454 3.81790   1
 -14  10  15 4.24513 1.32753  -2
  -2  10  15 4.24513 1.32753   1
 -26   0  16 91.2015 3.95092   1
 -24   0  16 433.552 8.36283   1
 -22   0  16 72.2143 1.51059   1
 -20   0  16 201.077 3.39336   1
 -18   0  16 736.122 10.5720   1
 -16   0  16 250.937 3.76558   1
 -14   0  16 346.379 5.31303   1
 -12   0  16 365.931 6.30701   1
 -10   0  16 24.0446 1.17352   1
  -8   0  16 947.839 17.1127   1
  -6   0  16 3.63922 0.63432   1
  -4   0  16 109.213 2.65261   1
  -2   0  16 3.66274 0.73857   1
   0   0  16 3.11422 0.70745   1
   2   0  16 4.97105 1.53906   1
   4   0  16 1.07472 1.25012   1
   6   0  16 318.012 12.2727   1
   8   0  16 23.8637 3.05113   1
  10   0  16 370.696 9.11293   1
 -27   1  16 8.91221 1.62646   1
 -25   1  16 4.64228 0.95023   1
 -23   1  16 1.69462 0.43455   1
 -21   1  16 0.71922 0.29912   1
 -19   1  16 20.4344 0.59507   1
 -17   1  16 46.6130 0.88081   1
 -15   1  16 10.3494 0.54581   1
 -13   1  16 84.2186 1.24751   1
 -11   1  16 22.1454 0.75450   1
  -9   1  16 3.20117 0.45148   1
  -7   1  16 -0.1692 0.32333   1
  -5   1  16 17.3096 0.69216   1
  -3   1  16 50.6206 1.21978   1
  -1   1  16 1.18674 0.49557   1
   1   1  16 114.301 2.49876   1
   3   1  16 18.5874 1.27873   1
   5   1  16 5.77125 0.94375   1
   7   1  16 0.54784 0.69892   1
   9   1  16 -0.3208 0.68907   1
  11   1  16 8.83173 1.23473   1
 -26   2  16 51.5885 2.03475   1
 -24   2  16 209.012 4.28796   1
 -22   2  16 297.675 3.96332   1
 -20   2  16 323.459 3.59700   1
 -18   2  16 245.666 2.83901   1
 -16   2  16 260.327 3.14716   1
 -14   2  16 289.702 3.23931   1
 -12   2  16 660.437 7.08830   1
 -10   2  16 61.2187 1.36385   1
  -8   2  16 241.104 3.58423   1
  -6   2  16 22.0827 0.78285   1
  -4   2  16 179.466 3.34894   1
  -2   2  16 2.50349 0.54615   1
   0   2  16 27.3113 1.13799   1
   2   2  16 132.593 2.84807   1
   4   2  16 16.0523 1.49837   1
   6   2  16 155.515 3.89564   1
   8   2  16 5.76726 1.02325   1
  10   2  16 208.843 5.05270   1
 -27   3  16 3.84697 1.40498   1
 -25   3  16 26.0735 1.44132   1
 -23   3  16 1.95991 0.51924   1
 -21   3  16 14.5241 0.75146   1
 -19   3  16 7.18389 0.49981   1
 -17   3  16 0.26513 0.32423   1
   1   3  16 -1.8968 2.28958  -2
 -17   3  16 -1.8968 2.28958   1
 -15   3  16 0.85949 0.34260   1
  -1   3  16 -1.7487 2.24474  -2
 -15   3  16 -1.7487 2.24474   1
 -13   3  16 -0.1177 0.35186   1
 -11   3  16 81.9503 1.51201   1
  -9   3  16 27.6086 0.92405   1
  -7   3  16 0.72813 0.36729   1
  -5   3  16 18.4592 0.80600   1
  -3   3  16 17.4847 0.76881   1
  -1   3  16 1.05142 0.45515   1
   1   3  16 0.31578 0.62429   1
   3   3  16 10.2992 1.16914   1
   5   3  16 42.2850 2.20647   1
   7   3  16 0.39083 0.91947   1
   9   3  16 1.14221 0.99239   1
 -26   4  16 336.383 11.2899   1
 -24   4  16 45.6539 1.88460   1
 -22   4  16 194.542 3.68210   1
 -20   4  16 289.413 3.92435   1
 -18   4  16 108.785 1.69887   1
   0   4  16 786.227 26.1068  -2
 -16   4  16 786.227 26.1068   1
 -16   4  16 771.320 8.64379   1
 -14   4  16 69.3988 1.36124   1
  -2   4  16 74.2629 4.43140  -2
 -14   4  16 74.2629 4.43140   1
 -12   4  16 178.345 3.10845   1
  -4   4  16 199.557 8.16666  -2
 -12   4  16 199.557 8.16666   1
 -10   4  16 328.451 5.05040   1
  -8   4  16 124.794 2.30323   1
  -6   4  16 59.0104 1.85350   1
  -4   4  16 101.063 2.55391   1
  -2   4  16 58.6221 2.06019   1
   0   4  16 181.502 4.26159   1
 -18   4  16 146.298 6.61487  -2
   2   4  16 146.298 6.61487   1
   2   4  16 139.352 4.38775   1
   4   4  16 4.26244 0.92791   1
   6   4  16 105.456 3.05659   1
   8   4  16 26.5566 2.03601   1
  10   4  16 76.5443 4.32658   1
 -25   5  16 2.53323 1.33601   1
 -23   5  16 0.58094 0.56081   1
 -21   5  16 23.6418 1.20394   1
 -19   5  16 10.9993 0.77343   1
 -17   5  16 1.71634 0.42442   1
 -15   5  16 3.31318 0.46716   1
 -13   5  16 10.1608 0.74475   1
  -3   5  16 7.73098 2.55448  -2
 -13   5  16 7.73098 2.55448   1
 -11   5  16 3.72864 0.61240   1
  -9   5  16 1.55085 0.56766   1
  -7   5  16 196.360 4.15504   1
  -5   5  16 63.4993 2.01412   1
  -3   5  16 15.5128 0.98203   1
  -1   5  16 15.3184 1.06228   1
   1   5  16 -0.2888 0.68259   1
 -19   5  16 24.2469 2.26162  -2
   3   5  16 24.2469 2.26162   1
 -21   5  16 6.61824 1.75460  -2
   5   5  16 6.61824 1.75460   1
   5   5  16 2.04967 1.60857   1
   7   5  16 71.7612 3.24953   1
   9   5  16 89.9111 4.96408   1
 -24   6  16 67.7889 3.69309   1
 -22   6  16 199.133 5.10050   1
 -20   6  16 265.715 6.48989   1
 -18   6  16 50.5406 1.33761   1
 -16   6  16 289.384 3.93635   1
 -14   6  16 201.805 3.43175   1
 -12   6  16 191.156 3.34546   1
 -10   6  16 131.702 3.19421   1
  -8   6  16 88.8610 2.42816   1
  -6   6  16 20.3706 1.01826   1
  -4   6  16 204.452 3.88609   1
  -2   6  16 27.2377 1.39685   1
   0   6  16 29.0567 1.59410   1
 -18   6  16 42.0123 3.77560  -2
   2   6  16 42.0123 3.77560   1
   2   6  16 30.1021 3.06574   1
 -20   6  16 53.1932 2.59713  -2
   4   6  16 53.1932 2.59713   1
   4   6  16 3.02912 1.80283   1
 -22   6  16 101.992 6.09184  -2
   6   6  16 101.992 6.09184   1
   6   6  16 64.5283 4.37258   1
 -23   7  16 0.12468 1.25075   1
 -21   7  16 3.16612 0.90550   1
 -19   7  16 20.0645 1.37745   1
 -17   7  16 13.0369 0.91935   1
 -15   7  16 4.07179 0.55369   1
 -13   7  16 1.31328 0.54384   1
 -11   7  16 36.6556 1.49149   1
  -9   7  16 0.62154 0.55611   1
  -7   7  16 4.16623 0.77926   1
  -5   7  16 1.08782 0.63018   1
  -3   7  16 74.8363 2.25137   1
  -1   7  16 12.0717 1.39624   1
 -17   7  16 30.2505 3.76659  -2
   1   7  16 30.2505 3.76659   1
   1   7  16 30.2179 2.13884   1
   3   7  16 17.9209 1.35064   1
 -19   7  16 21.1234 3.41127  -2
   3   7  16 21.1234 3.41127   1
 -21   7  16 16.8820 3.49517  -2
   5   7  16 16.8820 3.49517   1
   5   7  16 23.1870 1.72734   1
 -20   8  16 86.7248 4.44480   1
 -18   8  16 324.440 6.53641   1
 -16   8  16 50.5310 1.80154   1
 -14   8  16 97.4520 2.61513   1
 -12   8  16 212.233 4.68899   1
 -10   8  16 20.6319 1.23045   1
  -8   8  16 218.972 4.88060   1
  -6   8  16 6.64688 0.99147   1
  -4   8  16 19.2248 1.26843   1
  -2   8  16 12.1080 1.22848   1
   0   8  16 19.2433 1.28219   1
   2   8  16 26.5242 1.53543   1
 -18   8  16 91.5152 5.16098  -2
   2   8  16 91.5152 5.16098   1
   4   8  16 0.75754 0.94413   1
 -17   9  16 19.3617 1.21622   1
 -15   9  16 91.8859 2.58179   1
 -13   9  16 15.8146 1.22516   1
 -11   9  16 5.66548 1.07675   1
  -9   9  16 16.1677 1.42827   1
  -7   9  16 3.85388 0.96601   1
  -5   9  16 16.0607 2.30076   1
 -11   9  16 15.2436 2.31324  -2
  -5   9  16 15.2436 2.31324   1
  -3   9  16 32.8524 2.17098   1
 -13   9  16 36.9959 3.06837  -2
  -3   9  16 36.9959 3.06837   1
  -1   9  16 61.2209 2.50135   1
 -15   9  16 69.3469 5.22141  -2
  -1   9  16 69.3469 5.22141   1
   1   9  16 137.934 3.24813   1
 -12  10  16 99.6723 3.36573   1
 -10  10  16 13.0731 1.52046   1
  -8  10  16 84.0848 3.04373   1
  -6  10  16 24.2595 2.61423   1
 -10  10  16 25.0982 2.71330  -2
  -6  10  16 25.0982 2.71330   1
 -12  10  16 58.6239 3.80429  -2
  -4  10  16 58.6239 3.80429   1
  -4  10  16 34.7354 2.89653   1
   8   0  17 0.23452 1.62580  -2
 -26   0  17 0.23452 1.62580   1
 -24   0  17 1.01080 0.99736   1
   6   0  17 0.67417 1.50166  -2
 -24   0  17 0.67417 1.50166   1
   4   0  17 -0.9362 1.08297  -2
 -22   0  17 -0.9362 1.08297   1
 -22   0  17 -1.2199 0.75034   1
   2   0  17 4.09250 0.87492  -2
 -20   0  17 4.09250 0.87492   1
   0   0  17 0.17585 0.90702  -2
 -18   0  17 0.17585 0.90702   1
  -2   0  17 -0.3717 0.68778  -2
 -16   0  17 -0.3717 0.68778   1
  -4   0  17 -1.3856 0.76536  -2
 -14   0  17 -1.3856 0.76536   1
  -6   0  17 -0.2854 0.55600  -2
 -12   0  17 -0.2854 0.55600   1
  -8   0  17 -0.1220 0.60407  -2
 -10   0  17 -0.1220 0.60407   1
 -10   0  17 -0.0654 0.51733  -2
  -8   0  17 -0.0654 0.51733   1
 -12   0  17 -2.0494 1.17006  -2
  -6   0  17 -2.0494 1.17006   1
 -14   0  17 0.19483 0.64876  -2
  -4   0  17 0.19483 0.64876   1
 -16   0  17 -1.4802 1.33791  -2
  -2   0  17 -1.4802 1.33791   1
 -18   0  17 0.37896 0.83422  -2
   0   0  17 0.37896 0.83422   1
 -22   0  17 0.45496 0.90294  -2
   4   0  17 0.45496 0.90294   1
 -24   0  17 -0.9962 0.78683  -2
   6   0  17 -0.9962 0.78683   1
 -26   0  17 -0.5040 0.79097  -2
   8   0  17 -0.5040 0.79097   1
 -28   0  17 0.26087 1.15408  -2
  10   0  17 0.26087 1.15408   1
   9   1  17 22.2469 1.63795  -2
 -27   1  17 22.2469 1.63795   1
   7   1  17 52.4670 2.22328  -2
 -25   1  17 52.4670 2.22328   1
   5   1  17 135.730 2.86834  -2
 -23   1  17 135.730 2.86834   1
 -23   1  17 105.910 4.29163   1
   3   1  17 148.502 3.04076  -2
 -21   1  17 148.502 3.04076   1
 -21   1  17 136.425 4.94837   1
   1   1  17 714.633 7.68814  -2
 -19   1  17 714.633 7.68814   1
  -1   1  17 215.290 2.88496  -2
 -17   1  17 215.290 2.88496   1
  -3   1  17 940.094 10.3488  -2
 -15   1  17 940.094 10.3488   1
  -5   1  17 18.4829 0.74637  -2
 -13   1  17 18.4829 0.74637   1
  -7   1  17 702.730 9.17729  -2
 -11   1  17 702.730 9.17729   1
  -9   1  17 5.97927 0.51381  -2
  -9   1  17 5.97927 0.51381   1
 -11   1  17 732.779 9.47514  -2
  -7   1  17 732.779 9.47514   1
 -13   1  17 7.81736 0.55404  -2
  -5   1  17 7.81736 0.55404   1
 -15   1  17 1147.34 17.4898  -2
  -3   1  17 1147.34 17.4898   1
 -17   1  17 90.3208 2.40201  -2
  -1   1  17 90.3208 2.40201   1
 -19   1  17 1011.43 29.7463  -2
   1   1  17 1011.43 29.7463   1
 -21   1  17 78.8626 2.61867  -2
   3   1  17 78.8626 2.61867   1
 -23   1  17 391.398 12.2607  -2
   5   1  17 391.398 12.2607   1
 -25   1  17 9.53580 1.09045  -2
   7   1  17 9.53580 1.09045   1
 -27   1  17 57.4782 2.91826  -2
   9   1  17 57.4782 2.91826   1
 -28   2  17 2.67215 1.30959   1
   8   2  17 13.9805 1.47407  -2
 -26   2  17 13.9805 1.47407   1
   6   2  17 14.2554 1.43237  -2
 -24   2  17 14.2554 1.43237   1
 -22   2  17 0.86671 0.96423   1
   4   2  17 -0.4179 0.72403  -2
 -22   2  17 -0.4179 0.72403   1
   2   2  17 17.8774 0.88582  -2
 -20   2  17 17.8774 0.88582   1
   0   2  17 14.0080 0.72214  -2
 -18   2  17 14.0080 0.72214   1
  -2   2  17 4.37819 0.59618  -2
 -16   2  17 4.37819 0.59618   1
  -4   2  17 0.43855 0.57113  -2
 -14   2  17 0.43855 0.57113   1
  -6   2  17 22.5285 0.86967  -2
 -12   2  17 22.5285 0.86967   1
  -8   2  17 2.24793 0.52441  -2
 -10   2  17 2.24793 0.52441   1
 -10   2  17 6.00292 0.61981  -2
  -8   2  17 6.00292 0.61981   1
 -12   2  17 49.0079 1.35170  -2
  -6   2  17 49.0079 1.35170   1
 -14   2  17 0.51350 0.63695  -2
  -4   2  17 0.51350 0.63695   1
 -16   2  17 2.15124 0.94004  -2
  -2   2  17 2.15124 0.94004   1
 -18   2  17 10.9946 1.07622  -2
   0   2  17 10.9946 1.07622   1
 -20   2  17 4.34694 1.03086  -2
   2   2  17 4.34694 1.03086   1
 -22   2  17 -0.2801 0.95694  -2
   4   2  17 -0.2801 0.95694   1
 -24   2  17 27.4997 1.73388  -2
   6   2  17 27.4997 1.73388   1
 -26   2  17 6.90493 1.23693  -2
   8   2  17 6.90493 1.23693   1
   9   3  17 137.732 5.75269  -2
 -27   3  17 137.732 5.75269   1
   7   3  17 198.132 5.17081  -2
 -25   3  17 198.132 5.17081   1
   5   3  17 149.192 3.52916  -2
 -23   3  17 149.192 3.52916   1
   3   3  17 73.3576 1.92737  -2
 -21   3  17 73.3576 1.92737   1
 -21   3  17 68.3991 3.14514   1
   1   3  17 231.205 3.55064  -2
 -19   3  17 231.205 3.55064   1
  -1   3  17 14.2825 0.71539  -2
 -17   3  17 14.2825 0.71539   1
  -3   3  17 624.680 7.58511  -2
 -15   3  17 624.680 7.58511   1
  -5   3  17 48.4446 1.21653  -2
 -13   3  17 48.4446 1.21653   1
  -7   3  17 947.798 13.0594  -2
 -11   3  17 947.798 13.0594   1
  -9   3  17 28.3363 1.23022  -2
  -9   3  17 28.3363 1.23022   1
 -11   3  17 1114.84 19.5427  -2
  -7   3  17 1114.84 19.5427   1
 -13   3  17 25.5662 1.13415  -2
  -5   3  17 25.5662 1.13415   1
 -15   3  17 750.024 13.3280  -2
  -3   3  17 750.024 13.3280   1
 -17   3  17 8.01302 1.04295  -2
  -1   3  17 8.01302 1.04295   1
 -19   3  17 476.035 9.20783  -2
   1   3  17 476.035 9.20783   1
 -21   3  17 23.7766 1.65542  -2
   3   3  17 23.7766 1.65542   1
 -23   3  17 322.477 8.05256  -2
   5   3  17 322.477 8.05256   1
 -25   3  17 98.6901 3.45451  -2
   7   3  17 98.6901 3.45451   1
 -27   3  17 318.941 10.8990  -2
   9   3  17 318.941 10.8990   1
   8   4  17 10.4005 2.15305  -2
 -26   4  17 10.4005 2.15305   1
   6   4  17 10.9766 1.37158  -2
 -24   4  17 10.9766 1.37158   1
   4   4  17 2.28283 0.87652  -2
 -22   4  17 2.28283 0.87652   1
   2   4  17 19.9698 1.11851  -2
 -20   4  17 19.9698 1.11851   1
 -20   4  17 15.6708 1.49129   1
   0   4  17 15.4408 0.85395  -2
 -18   4  17 15.4408 0.85395   1
  -2   4  17 26.0713 0.88566  -2
 -16   4  17 26.0713 0.88566   1
  -4   4  17 11.1024 0.76935  -2
 -14   4  17 11.1024 0.76935   1
  -6   4  17 8.83549 0.69632  -2
 -12   4  17 8.83549 0.69632   1
  -8   4  17 33.2285 1.06822  -2
 -10   4  17 33.2285 1.06822   1
 -10   4  17 25.2390 1.46368  -2
  -8   4  17 25.2390 1.46368   1
 -12   4  17 3.41010 0.91866  -2
  -6   4  17 3.41010 0.91866   1
 -14   4  17 4.07677 0.84613  -2
  -4   4  17 4.07677 0.84613   1
 -16   4  17 61.5371 1.62339  -2
  -2   4  17 61.5371 1.62339   1
 -18   4  17 8.18776 1.13087  -2
   0   4  17 8.18776 1.13087   1
 -20   4  17 88.6326 2.74343  -2
   2   4  17 88.6326 2.74343   1
 -22   4  17 5.36868 1.43370  -2
   4   4  17 5.36868 1.43370   1
 -24   4  17 1.61312 1.38455  -2
   6   4  17 1.61312 1.38455   1
 -26   4  17 31.6810 2.86449  -2
   8   4  17 31.6810 2.86449   1
   7   5  17 305.347 10.7671  -2
 -25   5  17 305.347 10.7671   1
   5   5  17 226.237 5.81005  -2
 -23   5  17 226.237 5.81005   1
   3   5  17 38.6048 1.94775  -2
 -21   5  17 38.6048 1.94775   1
   1   5  17 108.336 2.46127  -2
 -19   5  17 108.336 2.46127   1
 -19   5  17 94.0903 3.86518   1
  -1   5  17 6.04298 0.83767  -2
 -17   5  17 6.04298 0.83767   1
  -3   5  17 276.496 4.11194  -2
 -15   5  17 276.496 4.11194   1
  -5   5  17 18.8425 0.91906  -2
 -13   5  17 18.8425 0.91906   1
  -7   5  17 1039.31 15.8892  -2
 -11   5  17 1039.31 15.8892   1
  -9   5  17 111.516 2.74017  -2
  -9   5  17 111.516 2.74017   1
 -11   5  17 863.826 18.5276  -2
  -7   5  17 863.826 18.5276   1
 -13   5  17 6.03082 1.03406  -2
  -5   5  17 6.03082 1.03406   1
 -15   5  17 507.275 9.55319  -2
  -3   5  17 507.275 9.55319   1
 -17   5  17 23.5013 1.22830  -2
  -1   5  17 23.5013 1.22830   1
 -19   5  17 274.937 7.21717  -2
   1   5  17 274.937 7.21717   1
 -21   5  17 14.5881 1.66260  -2
   3   5  17 14.5881 1.66260   1
 -23   5  17 359.706 9.16449  -2
   5   5  17 359.706 9.16449   1
 -25   5  17 86.4086 4.45213  -2
   7   5  17 86.4086 4.45213   1
   6   6  17 3.19074 1.94025  -2
 -24   6  17 3.19074 1.94025   1
   4   6  17 5.55549 1.30606  -2
 -22   6  17 5.55549 1.30606   1
   2   6  17 17.6658 1.52038  -2
 -20   6  17 17.6658 1.52038   1
   0   6  17 5.04577 1.00336  -2
 -18   6  17 5.04577 1.00336   1
 -18   6  17 3.95181 1.08445   1
  -2   6  17 33.8456 1.31959  -2
 -16   6  17 33.8456 1.31959   1
  -4   6  17 74.0572 1.95374  -2
 -14   6  17 74.0572 1.95374   1
  -6   6  17 11.2787 1.04261  -2
 -12   6  17 11.2787 1.04261   1
  -8   6  17 4.51600 0.90639  -2
 -10   6  17 4.51600 0.90639   1
 -10   6  17 4.54308 0.89971  -2
  -8   6  17 4.54308 0.89971   1
 -12   6  17 38.9440 1.53489  -2
  -6   6  17 38.9440 1.53489   1
 -14   6  17 22.0297 1.45776  -2
  -4   6  17 22.0297 1.45776   1
 -16   6  17 86.0771 2.88426  -2
  -2   6  17 86.0771 2.88426   1
 -18   6  17 18.9818 1.40706  -2
   0   6  17 18.9818 1.40706   1
 -20   6  17 45.0778 1.66920  -2
   2   6  17 45.0778 1.66920   1
 -22   6  17 18.2175 1.17792  -2
   4   6  17 18.2175 1.17792   1
 -24   6  17 6.86133 2.35622  -2
   6   6  17 6.86133 2.35622   1
   3   7  17 103.151 3.33691  -2
 -21   7  17 103.151 3.33691   1
   1   7  17 235.086 5.08692  -2
 -19   7  17 235.086 5.08692   1
  -1   7  17 26.1725 1.41924  -2
 -17   7  17 26.1725 1.41924   1
  -3   7  17 278.190 5.81062  -2
 -15   7  17 278.190 5.81062   1
  -5   7  17 6.03065 0.98056  -2
 -13   7  17 6.03065 0.98056   1
  -7   7  17 318.130 6.39559  -2
 -11   7  17 318.130 6.39559   1
  -9   7  17 0.67218 0.87417  -2
  -9   7  17 0.67218 0.87417   1
 -11   7  17 517.551 9.63809  -2
  -7   7  17 517.551 9.63809   1
 -13   7  17 3.69806 0.95946  -2
  -5   7  17 3.69806 0.95946   1
 -15   7  17 358.966 8.63963  -2
  -3   7  17 358.966 8.63963   1
 -17   7  17 6.06137 1.20717  -2
  -1   7  17 6.06137 1.20717   1
 -19   7  17 357.475 8.50075  -2
   1   7  17 357.475 8.50075   1
 -21   7  17 24.0215 1.37317  -2
   3   7  17 24.0215 1.37317   1
   2   8  17 3.81214 1.26871  -2
 -20   8  17 3.81214 1.26871   1
   0   8  17 20.7480 1.39046  -2
 -18   8  17 20.7480 1.39046   1
  -2   8  17 5.96314 1.01560  -2
 -16   8  17 5.96314 1.01560   1
  -4   8  17 2.51268 1.07610  -2
 -14   8  17 2.51268 1.07610   1
  -6   8  17 26.7429 1.70146  -2
 -12   8  17 26.7429 1.70146   1
  -8   8  17 120.344 3.68891  -2
 -10   8  17 120.344 3.68891   1
 -10   8  17 44.3708 1.79871  -2
  -8   8  17 44.3708 1.79871   1
 -12   8  17 104.926 2.90441  -2
  -6   8  17 104.926 2.90441   1
 -14   8  17 5.52707 1.04149  -2
  -4   8  17 5.52707 1.04149   1
 -16   8  17 21.0281 1.37309  -2
  -2   8  17 21.0281 1.37309   1
 -18   8  17 68.2474 2.73878  -2
   0   8  17 68.2474 2.73878   1
 -20   8  17 5.47677 1.30492  -2
   2   8  17 5.47677 1.30492   1
  -1   9  17 95.1086 3.20222  -2
 -17   9  17 95.1086 3.20222   1
  -3   9  17 229.282 5.01657  -2
 -15   9  17 229.282 5.01657   1
  -5   9  17 1.53770 1.64118  -2
 -13   9  17 1.53770 1.64118   1
  -7   9  17 126.704 3.94324  -2
 -11   9  17 126.704 3.94324   1
  -9   9  17 19.7244 1.56152  -2
  -9   9  17 19.7244 1.56152   1
 -11   9  17 150.435 4.41521  -2
  -7   9  17 150.435 4.41521   1
 -13   9  17 1.86584 1.14253  -2
  -5   9  17 1.86584 1.14253   1
 -15   9  17 402.797 7.99904  -2
  -3   9  17 402.797 7.99904   1
 -17   9  17 18.4881 2.51464  -2
  -1   9  17 18.4881 2.51464   1
 -28   0  18 408.471 13.1862   1
 -26   0  18 113.528 4.84542   1
 -24   0  18 179.925 6.75941   1
 -22   0  18 1.66423 0.82427   1
 -20   0  18 93.1459 2.29131   1
 -18   0  18 0.48361 0.52803   1
 -16   0  18 42.8497 1.41540   1
 -14   0  18 97.7276 2.29323   1
 -12   0  18 268.968 5.67862   1
 -10   0  18 59.7665 2.35802   1
  -8   0  18 72.8642 2.59870   1
  -6   0  18 157.819 4.37473   1
  -4   0  18 77.1829 3.50510   1
  -2   0  18 8.49243 1.41021   1
   0   0  18 -0.4655 0.87965   1
 -27   1  18 1.43075 0.80990   1
 -25   1  18 1.04031 0.82643   1
 -23   1  18 22.5090 0.95573   1
 -21   1  18 15.6031 0.88530   1
 -19   1  18 1.48824 0.41266   1
 -17   1  18 12.6327 0.67892   1
 -15   1  18 10.3223 0.63205   1
 -13   1  18 0.66235 0.44151   1
 -11   1  18 4.63969 0.69583   1
  -9   1  18 0.31132 0.46013   1
  -7   1  18 13.0312 0.92920   1
  -5   1  18 1.11501 0.48836   1
  -3   1  18 1.10166 0.50950   1
  -1   1  18 13.1984 1.79939   1
   1   1  18 1.43728 1.07096   1
   3   1  18 2.91965 1.32602   1
   5   1  18 6.58534 1.69121   1
   7   1  18 1.02459 0.85670   1
 -26   2  18 10.8967 1.30523   1
 -24   2  18 279.566 5.55320   1
 -22   2  18 38.1762 1.19134   1
 -20   2  18 99.4596 2.32332   1
 -18   2  18 18.7139 0.74664   1
 -16   2  18 142.205 2.26569   1
 -14   2  18 13.0725 0.76245   1
 -12   2  18 50.5201 1.58453   1
 -10   2  18 137.815 2.92169   1
  -8   2  18 160.952 3.21399   1
  -6   2  18 11.4986 1.17394   1
  -4   2  18 15.5766 1.19207   1
  -2   2  18 35.0368 2.59780   1
   0   2  18 19.9806 2.10911   1
   2   2  18 3.64531 1.39370   1
   4   2  18 35.7310 2.06369   1
   6   2  18 12.3920 1.23666   1
   8   2  18 4.93274 1.23615   1
 -27   3  18 20.5734 2.14198   1
 -25   3  18 18.3454 1.37314   1
 -23   3  18 25.6634 1.07322   1
 -21   3  18 6.55564 0.72549   1
 -19   3  18 29.8424 1.18358   1
 -17   3  18 2.56285 0.47765   1
 -15   3  18 1.00274 0.46049   1
 -13   3  18 5.91457 0.62520   1
 -11   3  18 20.2376 1.05035   1
  -9   3  18 4.94526 0.71729   1
  -7   3  18 7.44611 1.06274   1
  -5   3  18 28.3991 1.49134   1
  -3   3  18 22.9219 2.36454   1
  -1   3  18 4.83024 1.12556   1
   1   3  18 15.2286 1.39955   1
   3   3  18 0.18298 0.97855   1
   5   3  18 8.39404 1.47580   1
   7   3  18 3.67534 1.23515   1
 -26   4  18 17.9827 2.47355   1
 -24   4  18 45.8101 1.59983   1
 -22   4  18 31.0180 1.28817   1
 -20   4  18 351.639 6.08694   1
 -18   4  18 79.6092 2.00093   1
 -16   4  18 100.286 1.82413   1
 -14   4  18 32.0981 1.16214   1
 -12   4  18 58.5833 1.52620   1
 -10   4  18 2.23348 0.57088   1
  -8   4  18 12.0381 1.38399   1
  -6   4  18 42.5301 1.94099   1
  -4   4  18 48.0574 1.99871   1
  -2   4  18 9.87488 1.49218   1
   0   4  18 76.2535 2.55119   1
   2   4  18 62.8138 2.83702   1
   4   4  18 14.4845 1.73533   1
   6   4  18 31.4149 2.22591   1
 -25   5  18 4.22295 1.59028   1
 -23   5  18 41.2948 1.89811   1
 -21   5  18 3.90790 0.85368   1
 -19   5  18 19.9386 1.07079   1
 -17   5  18 14.9435 0.92660   1
 -15   5  18 35.3856 1.24123   1
 -13   5  18 9.43130 0.91746   1
 -11   5  18 29.2617 1.40246   1
  -9   5  18 23.7885 1.27495   1
  -7   5  18 54.2441 2.33766   1
  -5   5  18 10.7738 1.13160   1
  -3   5  18 10.2028 1.05224   1
  -1   5  18 0.08759 0.92184   1
   1   5  18 2.24732 1.11738   1
   3   5  18 17.9682 2.00678   1
   5   5  18 1.51464 0.96277   1
 -22   6  18 4.94165 1.08412   1
 -20   6  18 48.5660 1.81649   1
 -18   6  18 54.8562 1.89387   1
 -16   6  18 239.720 4.43690   1
 -14   6  18 28.9840 1.16584   1
 -12   6  18 30.4540 1.48110   1
 -10   6  18 5.80393 0.91529   1
  -8   6  18 9.23466 1.05405   1
  -6   6  18 2.19721 0.91469   1
  -4   6  18 33.6270 1.87886   1
  -2   6  18 52.7055 1.92823   1
   0   6  18 26.6695 2.09850   1
   2   6  18 2.18248 1.11660   1
   4   6  18 11.8905 1.53232   1
 -21   7  18 5.65584 1.08480   1
 -19   7  18 59.6293 2.03048   1
 -17   7  18 6.50844 0.92060   1
 -15   7  18 52.9160 2.29106   1
 -13   7  18 3.07250 0.79147   1
 -11   7  18 71.3903 2.32996   1
  -9   7  18 21.2840 1.33813   1
  -7   7  18 1.94201 0.74697   1
  -5   7  18 3.13713 0.82158   1
  -3   7  18 0.60458 0.86984   1
  -1   7  18 25.9707 1.50832   1
   1   7  18 6.29349 1.42727   1
 -18   8  18 19.0594 1.27238   1
 -16   8  18 19.8971 1.34793   1
 -14   8  18 29.3772 1.78139   1
 -12   8  18 108.236 3.53495   1
 -10   8  18 17.5622 1.44035   1
  -8   8  18 41.9756 1.82038   1
  -6   8  18 8.92249 1.15375   1
  -4   8  18 2.50399 0.82233   1
  -2   8  18 9.96379 1.20193   1
 -15   9  18 131.650 5.37390   1
 -13   9  18 14.1165 1.46484   1
 -11   9  18 3.14815 1.00779   1
  -9   9  18 35.9961 1.97416   1
  -7   9  18 0.81791 0.82980   1
  -5   9  18 35.5072 1.76363   1
   6   0  19 0.35912 1.71833  -2
 -26   0  19 0.35912 1.71833   1
   4   0  19 -0.1353 1.69342  -2
 -24   0  19 -0.1353 1.69342   1
   2   0  19 0.40179 1.13774  -2
 -22   0  19 0.40179 1.13774   1
   0   0  19 -0.6854 1.07044  -2
 -20   0  19 -0.6854 1.07044   1
  -2   0  19 0.13805 0.88078  -2
 -18   0  19 0.13805 0.88078   1
  -4   0  19 1.37061 0.69104  -2
 -16   0  19 1.37061 0.69104   1
  -6   0  19 0.00577 0.71947  -2
 -14   0  19 0.00577 0.71947   1
  -8   0  19 -0.3642 0.69476  -2
 -12   0  19 -0.3642 0.69476   1
 -10   0  19 -0.5806 0.68098  -2
 -10   0  19 -0.5806 0.68098   1
 -12   0  19 -0.9824 0.62427  -2
  -8   0  19 -0.9824 0.62427   1
 -14   0  19 -0.0200 0.69464  -2
  -6   0  19 -0.0200 0.69464   1
 -16   0  19 -0.2207 1.02003  -2
  -4   0  19 -0.2207 1.02003   1
 -18   0  19 0.16200 1.14053  -2
  -2   0  19 0.16200 1.14053   1
 -20   0  19 0.28890 1.17959  -2
   0   0  19 0.28890 1.17959   1
   7   1  19 7.79582 1.41869  -2
 -27   1  19 7.79582 1.41869   1
   5   1  19 59.2989 3.50315  -2
 -25   1  19 59.2989 3.50315   1
   3   1  19 19.5882 1.34195  -2
 -23   1  19 19.5882 1.34195   1
   1   1  19 38.5611 1.44493  -2
 -21   1  19 38.5611 1.44493   1
  -1   1  19 38.0785 1.39568  -2
 -19   1  19 38.0785 1.39568   1
  -3   1  19 71.6200 1.71289  -2
 -17   1  19 71.6200 1.71289   1
  -5   1  19 119.135 2.16376  -2
 -15   1  19 119.135 2.16376   1
  -7   1  19 93.1252 2.24576  -2
 -13   1  19 93.1252 2.24576   1
  -9   1  19 229.825 4.20533  -2
 -11   1  19 229.825 4.20533   1
 -11   1  19 86.6720 1.99668  -2
  -9   1  19 86.6720 1.99668   1
 -13   1  19 307.388 5.24996  -2
  -7   1  19 307.388 5.24996   1
 -15   1  19 75.8984 2.36322  -2
  -5   1  19 75.8984 2.36322   1
 -17   1  19 294.596 6.75422  -2
  -3   1  19 294.596 6.75422   1
 -19   1  19 99.2826 4.16559  -2
  -1   1  19 99.2826 4.16559   1
 -21   1  19 144.829 5.43859  -2
   1   1  19 144.829 5.43859   1
 -23   1  19 72.1166 3.42409  -2
   3   1  19 72.1166 3.42409   1
 -25   1  19 191.335 6.69780  -2
   5   1  19 191.335 6.69780   1
 -27   1  19 3.16003 1.24815  -2
   7   1  19 3.16003 1.24815   1
   6   2  19 0.98607 1.17461  -2
 -26   2  19 0.98607 1.17461   1
   4   2  19 13.3010 1.43519  -2
 -24   2  19 13.3010 1.43519   1
   2   2  19 12.1495 1.14644  -2
 -22   2  19 12.1495 1.14644   1
   0   2  19 15.7756 1.04040  -2
 -20   2  19 15.7756 1.04040   1
  -2   2  19 8.46189 0.88062  -2
 -18   2  19 8.46189 0.88062   1
  -4   2  19 21.9903 0.91862  -2
 -16   2  19 21.9903 0.91862   1
  -6   2  19 61.3049 1.41587  -2
 -14   2  19 61.3049 1.41587   1
  -8   2  19 20.4521 0.99408  -2
 -12   2  19 20.4521 0.99408   1
 -10   2  19 21.1737 0.96195  -2
 -10   2  19 21.1737 0.96195   1
 -12   2  19 15.1875 0.95095  -2
  -8   2  19 15.1875 0.95095   1
 -14   2  19 39.5487 1.65570  -2
  -6   2  19 39.5487 1.65570   1
 -16   2  19 24.5066 1.33587  -2
  -4   2  19 24.5066 1.33587   1
 -18   2  19 2.57647 1.11166  -2
  -2   2  19 2.57647 1.11166   1
 -20   2  19 12.4732 1.78683  -2
   0   2  19 12.4732 1.78683   1
 -22   2  19 37.9669 2.65270  -2
   2   2  19 37.9669 2.65270   1
 -24   2  19 38.9188 2.70319  -2
   4   2  19 38.9188 2.70319   1
 -26   2  19 1.15839 1.44160  -2
   6   2  19 1.15839 1.44160   1
   5   3  19 25.1179 1.75318  -2
 -25   3  19 25.1179 1.75318   1
   3   3  19 30.4214 1.84172  -2
 -23   3  19 30.4214 1.84172   1
   1   3  19 118.942 2.70547  -2
 -21   3  19 118.942 2.70547   1
  -1   3  19 73.7351 1.96050  -2
 -19   3  19 73.7351 1.96050   1
  -3   3  19 66.3093 2.03251  -2
 -17   3  19 66.3093 2.03251   1
  -5   3  19 50.3998 1.41139  -2
 -15   3  19 50.3998 1.41139   1
  -7   3  19 100.345 2.28073  -2
 -13   3  19 100.345 2.28073   1
  -9   3  19 158.933 3.20930  -2
 -11   3  19 158.933 3.20930   1
 -11   3  19 75.4579 2.53789  -2
  -9   3  19 75.4579 2.53789   1
 -13   3  19 279.070 6.67416  -2
  -7   3  19 279.070 6.67416   1
 -15   3  19 56.5459 2.03365  -2
  -5   3  19 56.5459 2.03365   1
 -17   3  19 201.830 4.27670  -2
  -3   3  19 201.830 4.27670   1
 -19   3  19 65.5376 2.71210  -2
  -1   3  19 65.5376 2.71210   1
 -21   3  19 345.818 11.6337  -2
   1   3  19 345.818 11.6337   1
 -23   3  19 22.9049 2.42967  -2
   3   3  19 22.9049 2.42967   1
 -25   3  19 106.722 4.80033  -2
   5   3  19 106.722 4.80033   1
   4   4  19 0.87732 1.23904  -2
 -24   4  19 0.87732 1.23904   1
   2   4  19 21.1913 1.62885  -2
 -22   4  19 21.1913 1.62885   1
   0   4  19 11.1195 0.99951  -2
 -20   4  19 11.1195 0.99951   1
  -2   4  19 26.0646 1.18463  -2
 -18   4  19 26.0646 1.18463   1
  -4   4  19 0.72920 0.86797  -2
 -16   4  19 0.72920 0.86797   1
  -6   4  19 40.8899 1.41617  -2
 -14   4  19 40.8899 1.41617   1
  -8   4  19 1.40282 0.64014  -2
 -12   4  19 1.40282 0.64014   1
 -10   4  19 5.47493 0.95817  -2
 -10   4  19 5.47493 0.95817   1
 -12   4  19 -0.2988 0.82633  -2
  -8   4  19 -0.2988 0.82633   1
 -14   4  19 20.3196 1.28452  -2
  -6   4  19 20.3196 1.28452   1
 -16   4  19 2.29768 0.88581  -2
  -4   4  19 2.29768 0.88581   1
 -18   4  19 10.2934 1.00443  -2
  -2   4  19 10.2934 1.00443   1
 -20   4  19 17.8209 2.43502  -2
   0   4  19 17.8209 2.43502   1
 -22   4  19 24.7571 2.67169  -2
   2   4  19 24.7571 2.67169   1
 -24   4  19 1.73800 1.77698  -2
   4   4  19 1.73800 1.77698   1
   3   5  19 8.42314 1.42038  -2
 -23   5  19 8.42314 1.42038   1
   1   5  19 44.2114 1.85326  -2
 -21   5  19 44.2114 1.85326   1
  -1   5  19 59.9269 2.06634  -2
 -19   5  19 59.9269 2.06634   1
  -3   5  19 94.5018 2.64187  -2
 -17   5  19 94.5018 2.64187   1
  -5   5  19 147.680 3.58863  -2
 -15   5  19 147.680 3.58863   1
  -7   5  19 46.9894 1.74297  -2
 -13   5  19 46.9894 1.74297   1
  -9   5  19 107.607 2.76032  -2
 -11   5  19 107.607 2.76032   1
 -11   5  19 81.1526 2.82157  -2
  -9   5  19 81.1526 2.82157   1
 -13   5  19 81.4390 2.77875  -2
  -7   5  19 81.4390 2.77875   1
 -15   5  19 86.8503 2.83908  -2
  -5   5  19 86.8503 2.83908   1
 -17   5  19 317.485 7.50445  -2
  -3   5  19 317.485 7.50445   1
 -19   5  19 22.8049 1.28423  -2
  -1   5  19 22.8049 1.28423   1
 -21   5  19 194.492 7.87202  -2
   1   5  19 194.492 7.87202   1
 -23   5  19 16.9605 1.86001  -2
   3   5  19 16.9605 1.86001   1
   2   6  19 45.7283 2.22565  -2
 -22   6  19 45.7283 2.22565   1
   0   6  19 3.85746 1.04839  -2
 -20   6  19 3.85746 1.04839   1
  -2   6  19 87.9128 2.55895  -2
 -18   6  19 87.9128 2.55895   1
  -4   6  19 14.2101 1.14454  -2
 -16   6  19 14.2101 1.14454   1
  -6   6  19 16.8626 1.25312  -2
 -14   6  19 16.8626 1.25312   1
  -8   6  19 29.0910 1.46622  -2
 -12   6  19 29.0910 1.46622   1
 -10   6  19 15.5263 1.15054  -2
 -10   6  19 15.5263 1.15054   1
 -12   6  19 8.64328 0.95355  -2
  -8   6  19 8.64328 0.95355   1
 -14   6  19 44.0319 2.03031  -2
  -6   6  19 44.0319 2.03031   1
 -16   6  19 49.8161 2.15234  -2
  -4   6  19 49.8161 2.15234   1
 -18   6  19 80.2228 2.72937  -2
  -2   6  19 80.2228 2.72937   1
 -20   6  19 2.94623 0.80436  -2
   0   6  19 2.94623 0.80436   1
 -22   6  19 17.5072 1.91371  -2
   2   6  19 17.5072 1.91371   1
  -1   7  19 16.6677 1.32451  -2
 -19   7  19 16.6677 1.32451   1
  -3   7  19 19.9468 1.33000  -2
 -17   7  19 19.9468 1.33000   1
  -5   7  19 156.928 4.57174  -2
 -15   7  19 156.928 4.57174   1
  -7   7  19 30.6362 1.78123  -2
 -13   7  19 30.6362 1.78123   1
  -9   7  19 102.827 2.85983  -2
 -11   7  19 102.827 2.85983   1
 -11   7  19 78.5450 2.37413  -2
  -9   7  19 78.5450 2.37413   1
 -13   7  19 103.613 2.78317  -2
  -7   7  19 103.613 2.78317   1
 -15   7  19 68.5876 2.62897  -2
  -5   7  19 68.5876 2.62897   1
 -17   7  19 85.7428 3.05424  -2
  -3   7  19 85.7428 3.05424   1
 -19   7  19 21.0186 1.34879  -2
  -1   7  19 21.0186 1.34879   1
  -4   8  19 13.1123 1.50173  -2
 -16   8  19 13.1123 1.50173   1
  -6   8  19 61.2888 2.56387  -2
 -14   8  19 61.2888 2.56387   1
  -8   8  19 3.49552 1.12574  -2
 -12   8  19 3.49552 1.12574   1
 -10   8  19 59.7788 2.46579  -2
 -10   8  19 59.7788 2.46579   1
 -12   8  19 8.62272 1.07851  -2
  -8   8  19 8.62272 1.07851   1
 -14   8  19 70.1890 2.28520  -2
  -6   8  19 70.1890 2.28520   1
 -16   8  19 2.50138 0.94591  -2
  -4   8  19 2.50138 0.94591   1
 -26   0  20 124.577 5.33826   1
 -24   0  20 326.367 7.89191   1
 -22   0  20 78.6475 3.88577   1
 -20   0  20 223.621 6.05418   1
 -18   0  20 106.303 2.90373   1
 -16   0  20 138.701 3.01976   1
 -14   0  20 172.413 4.17766   1
 -12   0  20 73.8150 2.88757   1
 -10   0  20 15.4615 1.56175   1
  -8   0  20 8.75620 1.25480   1
  -6   0  20 32.0489 2.43979   1
  -4   0  20 16.4326 1.91230   1
  -2   0  20 7.92884 1.54025   1
   0   0  20 34.7389 2.43435   1
 -25   1  20 8.15444 1.02810   1
 -23   1  20 5.96597 0.93798   1
 -21   1  20 28.0331 1.42739   1
 -19   1  20 28.5901 1.25493   1
 -17   1  20 10.1827 0.85534   1
 -15   1  20 89.5907 2.12868   1
 -13   1  20 12.8859 0.99390   1
 -11   1  20 1.03722 0.56157   1
  -9   1  20 1.47710 0.59390   1
  -7   1  20 20.4938 1.24858   1
  -5   1  20 89.5052 2.96071   1
  -3   1  20 4.93978 1.00721   1
  -1   1  20 40.5270 2.78694   1
   1   1  20 18.1743 2.07724   1
   3   1  20 0.11472 1.07408   1
   5   1  20 1.73300 0.90900   1
 -26   2  20 106.221 3.38586   1
 -24   2  20 85.9083 2.95171   1
 -22   2  20 153.568 2.89178   1
 -20   2  20 227.424 4.35788   1
 -18   2  20 126.187 2.79533   1
 -16   2  20 192.760 3.86012   1
 -14   2  20 30.0910 1.23409   1
 -12   2  20 79.8593 2.16621   1
 -10   2  20 98.7628 2.42456   1
  -8   2  20 0.73774 0.81880   1
  -6   2  20 7.54533 1.16392   1
  -4   2  20 13.4440 1.33745   1
  -2   2  20 5.83556 1.61266   1
   0   2  20 34.6364 2.76174   1
   2   2  20 26.8912 2.59381   1
   4   2  20 119.183 5.15214   1
 -25   3  20 7.49156 1.00227   1
 -23   3  20 39.0018 1.92304   1
 -21   3  20 19.5286 0.97030   1
 -19   3  20 3.21853 0.73025   1
 -17   3  20 0.71720 0.70143   1
 -15   3  20 6.04496 0.84466   1
 -13   3  20 24.8638 1.17951   1
 -11   3  20 24.8298 1.23765   1
  -9   3  20 49.6453 2.28960   1
  -7   3  20 53.9751 2.31915   1
  -5   3  20 22.6253 1.56825   1
  -3   3  20 7.86524 1.48392   1
  -1   3  20 8.20834 1.91641   1
   1   3  20 23.0918 2.75643   1
   3   3  20 41.8705 3.19889   1
 -24   4  20 162.057 4.57711   1
 -22   4  20 172.752 4.07789   1
 -20   4  20 86.9871 1.98196   1
 -18   4  20 81.2071 2.15802   1
 -16   4  20 198.053 4.57015   1
 -14   4  20 81.3061 2.16726   1
 -12   4  20 47.7325 1.81182   1
 -10   4  20 23.6831 1.74922   1
  -8   4  20 16.4729 1.52299   1
  -6   4  20 11.2588 1.43588   1
  -4   4  20 5.16995 1.02757   1
  -2   4  20 0.17325 1.43675   1
   0   4  20 79.2224 4.64813   1
   2   4  20 5.12804 1.93682   1
 -23   5  20 14.3564 1.52506   1
 -21   5  20 1.76482 0.80437   1
 -19   5  20 1.48182 0.62501   1
 -17   5  20 4.59018 1.04948   1
 -15   5  20 2.82934 0.80801   1
 -13   5  20 92.9243 2.71975   1
 -11   5  20 18.6390 1.25940   1
  -9   5  20 0.94105 0.88489   1
  -7   5  20 24.2755 1.80055   1
  -5   5  20 4.39836 1.03877   1
  -3   5  20 0.02224 0.76849   1
  -1   5  20 6.55715 2.27605   1
   1   5  20 24.4066 3.11191   1
 -20   6  20 210.277 4.72682   1
 -18   6  20 144.431 3.56426   1
 -16   6  20 10.4531 1.41955   1
 -14   6  20 134.353 3.53160   1
 -12   6  20 58.2093 2.11964   1
 -10   6  20 8.84164 1.15254   1
  -8   6  20 41.9599 2.29475   1
  -6   6  20 7.14836 1.25816   1
  -4   6  20 -0.1069 0.85355   1
  -2   6  20 5.90530 1.12025   1
   0   6  20 74.8736 4.95057   1
 -19   7  20 3.93403 0.88360   1
 -17   7  20 29.6189 1.83294   1
 -15   7  20 14.3677 1.60463   1
 -13   7  20 28.7708 1.78007   1
 -11   7  20 3.27144 0.90685   1
  -9   7  20 31.9358 1.63185   1
  -7   7  20 9.05711 1.16289   1
  -5   7  20 7.66838 1.37742   1
  -3   7  20 3.38376 1.05842   1
 -14   8  20 51.3815 2.39134   1
 -12   8  20 16.6637 1.72843   1
 -10   8  20 25.0299 1.57034   1
  -8   8  20 16.1432 1.50997   1
 -26   0  21 0.71690 1.18052   1
   2   0  21 1.39781 1.71964  -2
 -24   0  21 1.39781 1.71964   1
   0   0  21 -2.9851 1.62566  -2
 -22   0  21 -2.9851 1.62566   1
  -2   0  21 -1.9880 1.11922  -2
 -20   0  21 -1.9880 1.11922   1
  -4   0  21 3.00976 1.12645  -2
 -18   0  21 3.00976 1.12645   1
  -6   0  21 -2.1331 1.31200  -2
 -16   0  21 -2.1331 1.31200   1
  -8   0  21 -0.7468 1.21722  -2
 -14   0  21 -0.7468 1.21722   1
 -10   0  21 -0.4761 0.87116  -2
 -12   0  21 -0.4761 0.87116   1
 -12   0  21 0.97658 0.81177  -2
 -10   0  21 0.97658 0.81177   1
 -14   0  21 -0.2686 0.86609  -2
  -8   0  21 -0.2686 0.86609   1
 -16   0  21 -2.1600 1.15246  -2
  -6   0  21 -2.1600 1.15246   1
 -18   0  21 -1.4959 1.33221  -2
  -4   0  21 -1.4959 1.33221   1
 -20   0  21 0.54709 1.32978  -2
  -2   0  21 0.54709 1.32978   1
 -22   0  21 -0.0285 1.24326  -2
   0   0  21 -0.0285 1.24326   1
   3   1  21 144.909 4.36864  -2
 -25   1  21 144.909 4.36864   1
   1   1  21 23.7557 1.76069  -2
 -23   1  21 23.7557 1.76069   1
  -1   1  21 274.380 5.05944  -2
 -21   1  21 274.380 5.05944   1
  -3   1  21 1.91379 0.80687  -2
 -19   1  21 1.91379 0.80687   1
  -5   1  21 397.309 7.73627  -2
 -17   1  21 397.309 7.73627   1
  -7   1  21 2.85352 1.04910  -2
 -15   1  21 2.85352 1.04910   1
  -9   1  21 561.940 10.5268  -2
 -13   1  21 561.940 10.5268   1
 -11   1  21 3.91774 0.65851  -2
 -11   1  21 3.91774 0.65851   1
 -13   1  21 565.849 10.4556  -2
  -9   1  21 565.849 10.4556   1
 -15   1  21 1.23181 0.88705  -2
  -7   1  21 1.23181 0.88705   1
 -17   1  21 403.693 9.07914  -2
  -5   1  21 403.693 9.07914   1
 -19   1  21 1.03499 0.90804  -2
  -3   1  21 1.03499 0.90804   1
 -21   1  21 424.257 13.5444  -2
  -1   1  21 424.257 13.5444   1
 -23   1  21 26.9584 2.18186  -2
   1   1  21 26.9584 2.18186   1
 -25   1  21 317.127 10.4292  -2
   3   1  21 317.127 10.4292   1
   2   2  21 43.4440 2.23379  -2
 -24   2  21 43.4440 2.23379   1
   0   2  21 76.8128 2.45548  -2
 -22   2  21 76.8128 2.45548   1
  -2   2  21 12.5878 1.06658  -2
 -20   2  21 12.5878 1.06658   1
  -4   2  21 1.93951 0.91067  -2
 -18   2  21 1.93951 0.91067   1
  -6   2  21 87.7004 2.53430  -2
 -16   2  21 87.7004 2.53430   1
  -8   2  21 104.338 2.85587  -2
 -14   2  21 104.338 2.85587   1
 -10   2  21 52.3700 1.81548  -2
 -12   2  21 52.3700 1.81548   1
 -12   2  21 28.5092 1.57124  -2
 -10   2  21 28.5092 1.57124   1
 -14   2  21 72.8094 2.49708  -2
  -8   2  21 72.8094 2.49708   1
 -16   2  21 78.0581 2.59037  -2
  -6   2  21 78.0581 2.59037   1
 -18   2  21 0.43025 0.91204  -2
  -4   2  21 0.43025 0.91204   1
 -20   2  21 11.2546 1.05372  -2
  -2   2  21 11.2546 1.05372   1
 -22   2  21 114.024 4.93088  -2
   0   2  21 114.024 4.93088   1
 -24   2  21 57.0215 3.32077  -2
   2   2  21 57.0215 3.32077   1
   1   3  21 6.92771 1.41786  -2
 -23   3  21 6.92771 1.41786   1
  -1   3  21 195.529 4.46574  -2
 -21   3  21 195.529 4.46574   1
  -3   3  21 13.4500 1.05624  -2
 -19   3  21 13.4500 1.05624   1
  -5   3  21 481.226 9.17861  -2
 -17   3  21 481.226 9.17861   1
  -7   3  21 9.03206 1.03701  -2
 -15   3  21 9.03206 1.03701   1
  -9   3  21 465.378 8.97220  -2
 -13   3  21 465.378 8.97220   1
 -11   3  21 4.12484 0.90323  -2
 -11   3  21 4.12484 0.90323   1
 -13   3  21 357.981 8.40261  -2
  -9   3  21 357.981 8.40261   1
 -15   3  21 4.29081 1.00888  -2
  -7   3  21 4.29081 1.00888   1
 -17   3  21 482.135 10.7481  -2
  -5   3  21 482.135 10.7481   1
 -19   3  21 6.73689 1.84101  -2
  -3   3  21 6.73689 1.84101   1
 -21   3  21 374.955 12.6207  -2
  -1   3  21 374.955 12.6207   1
 -23   3  21 23.3123 2.48994  -2
   1   3  21 23.3123 2.48994   1
   0   4  21 6.31452 1.15207  -2
 -22   4  21 6.31452 1.15207   1
  -2   4  21 1.90615 0.97028  -2
 -20   4  21 1.90615 0.97028   1
  -4   4  21 2.22399 0.94585  -2
 -18   4  21 2.22399 0.94585   1
  -6   4  21 13.6723 1.18147  -2
 -16   4  21 13.6723 1.18147   1
  -8   4  21 9.18454 0.98583  -2
 -14   4  21 9.18454 0.98583   1
 -10   4  21 5.44830 1.08822  -2
 -12   4  21 5.44830 1.08822   1
 -12   4  21 3.75747 0.95228  -2
 -10   4  21 3.75747 0.95228   1
 -14   4  21 25.6862 1.52505  -2
  -8   4  21 25.6862 1.52505   1
 -16   4  21 7.06666 1.10142  -2
  -6   4  21 7.06666 1.10142   1
 -18   4  21 4.59008 1.00438  -2
  -4   4  21 4.59008 1.00438   1
 -20   4  21 1.12067 0.84590  -2
  -2   4  21 1.12067 0.84590   1
 -22   4  21 13.0886 2.42026  -2
   0   4  21 13.0886 2.42026   1
  -1   5  21 215.690 4.87023  -2
 -21   5  21 215.690 4.87023   1
  -3   5  21 1.71694 0.94920  -2
 -19   5  21 1.71694 0.94920   1
  -5   5  21 273.797 6.97359  -2
 -17   5  21 273.797 6.97359   1
  -7   5  21 10.1000 1.10785  -2
 -15   5  21 10.1000 1.10785   1
  -9   5  21 281.521 5.80621  -2
 -13   5  21 281.521 5.80621   1
 -11   5  21 2.44318 0.82911  -2
 -11   5  21 2.44318 0.82911   1
 -13   5  21 438.258 10.2327  -2
  -9   5  21 438.258 10.2327   1
 -15   5  21 7.54150 1.20545  -2
  -7   5  21 7.54150 1.20545   1
 -17   5  21 354.991 8.40372  -2
  -5   5  21 354.991 8.40372   1
 -19   5  21 3.10126 0.97459  -2
  -3   5  21 3.10126 0.97459   1
 -21   5  21 247.337 9.50508  -2
  -1   5  21 247.337 9.50508   1
  -2   6  21 45.9276 2.29179  -2
 -20   6  21 45.9276 2.29179   1
 -20   6  21 39.8555 3.56665   1
  -4   6  21 17.5358 1.56860  -2
 -18   6  21 17.5358 1.56860   1
  -6   6  21 16.3220 1.51999  -2
 -16   6  21 16.3220 1.51999   1
  -8   6  21 45.9810 1.85072  -2
 -14   6  21 45.9810 1.85072   1
 -10   6  21 6.18611 0.94829  -2
 -12   6  21 6.18611 0.94829   1
 -12   6  21 1.58667 0.74745  -2
 -10   6  21 1.58667 0.74745   1
 -14   6  21 77.2176 2.86295  -2
  -8   6  21 77.2176 2.86295   1
 -16   6  21 42.2212 2.05468  -2
  -6   6  21 42.2212 2.05468   1
 -18   6  21 62.5661 2.47572  -2
  -4   6  21 62.5661 2.47572   1
 -17   7  21 114.602 5.02570   1
  -7   7  21 22.9620 1.68380  -2
 -15   7  21 22.9620 1.68380   1
  -9   7  21 241.662 6.28550  -2
 -13   7  21 241.662 6.28550   1
 -11   7  21 0.29289 0.83346  -2
 -11   7  21 0.29289 0.83346   1
 -13   7  21 277.029 5.82368  -2
  -9   7  21 277.029 5.82368   1
 -15   7  21 9.88834 1.34192  -2
  -7   7  21 9.88834 1.34192   1
 -24   0  22 31.0910 2.50814   1
 -22   0  22 100.536 3.65167   1
 -20   0  22 95.7487 3.45901   1
 -18   0  22 262.345 6.88073   1
 -16   0  22 59.8845 4.03442   1
 -14   0  22 36.2387 3.14654   1
 -12   0  22 60.9834 3.89291   1
 -10   0  22 86.8994 3.30854   1
  -8   0  22 13.5022 2.18535   1
  -6   0  22 64.8870 3.71717   1
  -4   0  22 130.865 5.55621   1
  -2   0  22 98.7432 4.49002   1
   0   0  22 9.53066 1.76829   1
 -25   1  22 11.2675 2.19784   1
 -23   1  22 16.4560 1.69941   1
 -21   1  22 43.9883 1.64304   1
 -19   1  22 7.93087 0.92595   1
 -17   1  22 26.4224 1.50255   1
 -15   1  22 56.4147 2.78006   1
 -13   1  22 9.81862 1.56815   1
 -11   1  22 4.37697 0.92214   1
  -9   1  22 33.0994 1.98304   1
  -7   1  22 56.8924 2.47637   1
  -5   1  22 13.8967 1.53040   1
  -3   1  22 5.86960 1.71161   1
  -1   1  22 31.9318 2.66296   1
   1   1  22 17.9141 2.23159   1
 -24   2  22 39.9090 1.66438   1
 -22   2  22 245.528 5.38474   1
 -20   2  22 56.2562 1.82498   1
 -18   2  22 56.6458 2.16359   1
 -16   2  22 52.1966 2.00665   1
 -14   2  22 112.441 4.03352   1
 -12   2  22 27.0334 1.67201   1
 -10   2  22 55.8534 2.57998   1
  -8   2  22 143.938 4.39482   1
  -6   2  22 117.313 3.72792   1
  -4   2  22 12.5090 1.39806   1
  -2   2  22 38.4228 3.11288   1
   0   2  22 27.9945 2.65670   1
 -23   3  22 37.3452 1.49392   1
 -21   3  22 33.0224 1.58837   1
 -19   3  22 0.15243 0.62862   1
 -17   3  22 0.35480 0.68520   1
 -15   3  22 17.2781 1.33472   1
 -13   3  22 11.7058 1.62885   1
 -11   3  22 2.26711 1.09955   1
  -9   3  22 37.8979 2.15330   1
  -7   3  22 50.6890 2.41252   1
  -5   3  22 13.5174 1.49371   1
  -3   3  22 5.03770 1.85110   1
  -1   3  22 10.3230 2.12334   1
 -22   4  22 44.0771 1.86724   1
 -20   4  22 16.7999 1.24655   1
 -18   4  22 98.1142 2.97953   1
 -16   4  22 26.4265 1.52099   1
 -14   4  22 69.9407 2.35910   1
 -12   4  22 124.962 4.29836   1
 -10   4  22 123.245 4.16040   1
  -8   4  22 19.8318 1.88891   1
  -6   4  22 25.3553 1.83415   1
  -4   4  22 42.1030 3.58271   1
  -2   4  22 26.6772 3.00753   1
 -19   5  22 5.62624 1.18582   1
 -17   5  22 49.0012 2.05216   1
 -15   5  22 28.6437 1.60355   1
 -13   5  22 44.4173 1.89778   1
 -11   5  22 3.26722 1.15900   1
  -9   5  22 18.8235 1.93706   1
  -7   5  22 4.86870 1.24381   1
  -5   5  22 -0.1386 0.85708   1
  -3   5  22 50.8246 4.12408   1
 -18   6  22 69.7369 3.72685   1
 -16   6  22 103.337 3.57452   1
 -14   6  22 174.769 4.35579   1
 -12   6  22 30.3441 1.65972   1
 -10   6  22 22.6091 1.96792   1
  -8   6  22 11.9892 1.60714   1
  -6   6  22 10.0618 1.51427   1
  -2   0  23 -0.6666 1.28541  -2
 -22   0  23 -0.6666 1.28541   1
  -4   0  23 1.41827 1.26786  -2
 -20   0  23 1.41827 1.26786   1
  -6   0  23 0.92891 1.78953  -2
 -18   0  23 0.92891 1.78953   1
 -10   0  23 -0.3257 1.35961  -2
 -14   0  23 -0.3257 1.35961   1
 -12   0  23 -1.8460 1.14121  -2
 -12   0  23 -1.8460 1.14121   1
 -14   0  23 -0.2389 1.17440  -2
 -10   0  23 -0.2389 1.17440   1
 -16   0  23 -0.1220 1.41382  -2
  -8   0  23 -0.1220 1.41382   1
 -18   0  23 -1.8234 1.38144  -2
  -6   0  23 -1.8234 1.38144   1
 -20   0  23 -0.4238 1.35871  -2
  -4   0  23 -0.4238 1.35871   1
 -22   0  23 -0.3894 1.29776  -2
  -2   0  23 -0.3894 1.29776   1
  -1   1  23 32.8202 2.10850  -2
 -23   1  23 32.8202 2.10850   1
  -3   1  23 45.9706 1.71710  -2
 -21   1  23 45.9706 1.71710   1
  -5   1  23 46.5025 1.91839  -2
 -19   1  23 46.5025 1.91839   1
  -7   1  23 50.3851 2.49489  -2
 -17   1  23 50.3851 2.49489   1
  -9   1  23 83.0111 3.10787  -2
 -15   1  23 83.0111 3.10787   1
 -11   1  23 52.2638 2.26578  -2
 -13   1  23 52.2638 2.26578   1
 -13   1  23 68.1806 2.54388  -2
 -11   1  23 68.1806 2.54388   1
 -15   1  23 108.650 3.36532  -2
  -9   1  23 108.650 3.36532   1
 -17   1  23 41.3894 1.91534  -2
  -7   1  23 41.3894 1.91534   1
 -19   1  23 142.121 3.94526  -2
  -5   1  23 142.121 3.94526   1
 -21   1  23 19.7848 1.33526  -2
  -3   1  23 19.7848 1.33526   1
 -23   1  23 151.687 4.05667  -2
  -1   1  23 151.687 4.05667   1
  -2   2  23 31.9340 1.75088  -2
 -22   2  23 31.9340 1.75088   1
  -4   2  23 0.59161 0.87539  -2
 -20   2  23 0.59161 0.87539   1
  -6   2  23 16.7044 1.33689  -2
 -18   2  23 16.7044 1.33689   1
  -8   2  23 88.5240 3.31614  -2
 -16   2  23 88.5240 3.31614   1
 -10   2  23 33.2458 1.88167  -2
 -14   2  23 33.2458 1.88167   1
 -12   2  23 0.88880 0.81869  -2
 -12   2  23 0.88880 0.81869   1
 -14   2  23 25.8358 1.63319  -2
 -10   2  23 25.8358 1.63319   1
 -16   2  23 50.0156 2.13605  -2
  -8   2  23 50.0156 2.13605   1
 -18   2  23 15.8901 1.34535  -2
  -6   2  23 15.8901 1.34535   1
 -20   2  23 1.07315 0.99501  -2
  -4   2  23 1.07315 0.99501   1
 -22   2  23 40.2803 1.76783  -2
  -2   2  23 40.2803 1.76783   1
  -3   3  23 16.3236 1.39465  -2
 -21   3  23 16.3236 1.39465   1
  -5   3  23 53.2973 2.08805  -2
 -19   3  23 53.2973 2.08805   1
  -7   3  23 31.4515 1.61448  -2
 -17   3  23 31.4515 1.61448   1
  -9   3  23 80.9382 3.12529  -2
 -15   3  23 80.9382 3.12529   1
 -11   3  23 76.8993 2.88899  -2
 -13   3  23 76.8993 2.88899   1
 -13   3  23 39.0818 1.94010  -2
 -11   3  23 39.0818 1.94010   1
 -15   3  23 124.040 3.75753  -2
  -9   3  23 124.040 3.75753   1
 -17   3  23 24.9495 1.60252  -2
  -7   3  23 24.9495 1.60252   1
 -19   3  23 129.868 3.75358  -2
  -5   3  23 129.868 3.75358   1
 -21   3  23 40.3698 1.81253  -2
  -3   3  23 40.3698 1.81253   1
  -4   4  23 21.5265 1.80058  -2
 -20   4  23 21.5265 1.80058   1
  -6   4  23 1.85269 1.01051  -2
 -18   4  23 1.85269 1.01051   1
  -8   4  23 4.97430 1.03518  -2
 -16   4  23 4.97430 1.03518   1
 -10   4  23 0.40743 0.95344  -2
 -14   4  23 0.40743 0.95344   1
 -12   4  23 26.5769 1.71162  -2
 -12   4  23 26.5769 1.71162   1
 -14   4  23 3.01889 1.09625  -2
 -10   4  23 3.01889 1.09625   1
 -16   4  23 5.86885 1.23496  -2
  -8   4  23 5.86885 1.23496   1
 -18   4  23 1.33429 1.09808  -2
  -6   4  23 1.33429 1.09808   1
 -20   4  23 6.47171 1.07654  -2
  -4   4  23 6.47171 1.07654   1
  -7   5  23 63.2650 2.29438  -2
 -17   5  23 63.2650 2.29438   1
  -9   5  23 24.2680 1.46961  -2
 -15   5  23 24.2680 1.46961   1
 -11   5  23 100.353 3.53312  -2
 -13   5  23 100.353 3.53312   1
 -13   5  23 46.7834 2.23114  -2
 -11   5  23 46.7834 2.23114   1
 -15   5  23 78.8269 2.97057  -2
  -9   5  23 78.8269 2.97057   1
 -17   5  23 65.6641 2.63664  -2
  -7   5  23 65.6641 2.63664   1
 -22   0  24 62.8344 3.59035   1
 -20   0  24 72.0480 3.01660   1
 -18   0  24 69.7746 4.77898   1
 -16   0  24 1.63019 1.57850   1
 -14   0  24 74.6925 4.68613   1
 -12   0  24 9.36941 2.17887   1
 -10   0  24 17.6161 2.68874   1
  -8   0  24 28.4303 2.81393   1
  -6   0  24 19.4727 2.58148   1
  -4   0  24 11.8605 2.11448   1
 -21   1  24 2.63594 0.77228   1
 -19   1  24 0.13445 0.74445   1
 -17   1  24 -0.6203 0.98633   1
 -15   1  24 20.0390 2.17093   1
 -13   1  24 13.2005 1.77544   1
 -11   1  24 25.5124 1.97474   1
  -9   1  24 26.6504 2.06839   1
  -7   1  24 0.45307 0.96710   1
  -5   1  24 1.31549 0.96410   1
 -20   2  24 34.3643 1.81805   1
 -18   2  24 81.9546 2.73112   1
 -16   2  24 6.49928 1.44386   1
 -14   2  24 51.1996 2.72874   1
 -12   2  24 9.56839 1.56127   1
 -10   2  24 3.56354 1.21541   1
  -8   2  24 6.40412 1.27770   1
  -6   2  24 20.3236 1.73992   1
 -19   3  24 0.93201 0.79078   1
 -17   3  24 26.4388 1.60101   1
 -15   3  24 0.52492 1.07924   1
 -13   3  24 1.33762 1.05583   1
 -11   3  24 0.07991 1.02659   1
  -9   3  24 0.43290 0.99003   1
  -7   3  24 28.4751 1.93339   1
 -16   4  24 17.2628 1.58613   1
 -14   4  24 15.4375 1.92485   1
 -12   4  24 8.85971 1.56868   1
 -10   4  24 -0.3777 0.97170   1
  -8   4  24 13.6367 1.72594   1
  -8   0  25 0.73030 2.02904  -2
 -18   0  25 0.73030 2.02904   1
 -10   0  25 0.30856 1.80598  -2
 -16   0  25 0.30856 1.80598   1
 -12   0  25 -2.6593 1.34275  -2
 -14   0  25 -2.6593 1.34275   1
 -14   0  25 0.81975 1.40140  -2
 -12   0  25 0.81975 1.40140   1
 -16   0  25 -2.9453 1.66465  -2
 -10   0  25 -2.9453 1.66465   1
 -18   0  25 -0.6374 1.70177  -2
  -8   0  25 -0.6374 1.70177   1
  -9   1  25 2.68052 1.43459  -2
 -17   1  25 2.68052 1.43459   1
 -11   1  25 305.941 7.96438  -2
 -15   1  25 305.941 7.96438   1
 -13   1  25 0.54158 1.04380  -2
 -13   1  25 0.54158 1.04380   1
 -15   1  25 367.083 8.97189  -2
 -11   1  25 367.083 8.97189   1
 -17   1  25 1.32260 1.15959  -2
  -9   1  25 1.32260 1.15959   1
 -10   2  25 1.04706 1.33025  -2
 -16   2  25 1.04706 1.33025   1
 -12   2  25 0.30816 1.04557  -2
 -14   2  25 0.30816 1.04557   1
 -14   2  25 0.57293 1.09774  -2
 -12   2  25 0.57293 1.09774   1
 -16   2  25 1.15820 1.85962  -2
 -10   2  25 1.15820 1.85962   1
 -13   3  25 6.29948 1.24895  -2
 -13   3  25 6.29948 1.24895   1
   0   0   0    0.00    0.00   0
;
_shelx_hkl_checksum              92869
#END Tags that were not found in dictionaries
loop_
_space_group_symop_operation_xyz
'x, y, z'
'-x, y, -z+1/2'
'x+1/2, y+1/2, z'
'-x+1/2, y+1/2, -z+1/2'
'-x, -y, -z'
'x, -y, z-1/2'
'-x+1/2, -y+1/2, -z'
'x+1/2, -y+1/2, z-1/2'
loop_
_atom_site_label
_atom_site_type_symbol
_atom_site_fract_x
_atom_site_fract_y
_atom_site_fract_z
_atom_site_U_iso_or_equiv
_atom_site_adp_type
_atom_site_occupancy
_atom_site_site_symmetry_order
_atom_site_calc_flag
_atom_site_refinement_flags_posn
_atom_site_refinement_flags_adp
_atom_site_refinement_flags_occupancy
Cs1 Cs 0.0000 0.23059(9) 0.2500 0.01159(14) Uani 1 2 d S T P
Cs2 Cs 0.00479(4) 0.24855(8) 0.48611(4) 0.01739(13) Uani 1 1 d . . .
Cs3 Cs 0.23512(3) 0.23914(7) 0.10847(4) 0.01307(11) Uani 1 1 d . . .
Cs4 Cs 0.24079(4) 0.25356(7) 0.36035(4) 0.01461(12) Uani 1 1 d . . .
Fe1 Fe 0.43942(8) 0.11625(15) 0.15933(9) 0.0073(2) Uani 1 1 d . . .
Fe2 Fe 0.44072(8) 0.34798(15) 0.27923(9) 0.0072(2) Uani 1 1 d . . .
S1 S 0.42441(13) 0.0784(2) 0.29058(15) 0.0085(3) Uani 1 1 d . . .
S2 S 0.42174(13) 0.3847(3) 0.13044(15) 0.0091(3) Uani 1 1 d . . .
S3 S 0.35769(14) 0.0344(3) 0.54461(16) 0.0114(4) Uani 1 1 d . . .
S4 S 0.13427(13) 0.0013(3) 0.18309(16) 0.0110(4) Uani 1 1 d . . .
loop_
_atom_site_aniso_label
_atom_site_aniso_U_11
_atom_site_aniso_U_22
_atom_site_aniso_U_33
_atom_site_aniso_U_23
_atom_site_aniso_U_13
_atom_site_aniso_U_12
Cs1 0.0164(3) 0.0053(3) 0.0150(4) 0.000 0.0089(3) 0.000
Cs2 0.0146(3) 0.0251(3) 0.0128(3) -0.0012(2) 0.0067(2) -0.0073(2)
Cs3 0.0085(2) 0.0149(2) 0.0159(3) 0.0047(2) 0.00580(19) -0.00010(19)
Cs4 0.0171(3) 0.0122(2) 0.0124(2) 0.00078(18) 0.0052(2) 0.0008(2)
Fe1 0.0071(5) 0.0056(5) 0.0091(5) -0.0005(4) 0.0035(4) -0.0003(4)
Fe2 0.0070(5) 0.0053(5) 0.0096(5) -0.0004(4) 0.0042(4) 0.0001(4)
S1 0.0079(8) 0.0065(8) 0.0121(9) 0.0000(7) 0.0055(7) -0.0004(7)
S2 0.0091(8) 0.0063(8) 0.0104(9) 0.0008(7) 0.0035(7) 0.0009(7)
S3 0.0105(9) 0.0087(9) 0.0124(10) 0.0027(7) 0.0032(8) 0.0021(7)
S4 0.0099(9) 0.0097(9) 0.0145(10) -0.0001(7) 0.0066(8) -0.0036(7)
loop_
_atom_type_symbol
_atom_type_description
_atom_type_scat_dispersion_real
_atom_type_scat_dispersion_imag
_atom_type_scat_source
Cs Cs -0.3680 2.1192 'International Tables Vol C Tables 4.2.6.8 and 6.1.1.4'
Fe Fe 0.3463 0.8444 'International Tables Vol C Tables 4.2.6.8 and 6.1.1.4'
S S 0.1246 0.1234 'International Tables Vol C Tables 4.2.6.8 and 6.1.1.4'
loop_
_geom_angle_atom_site_label_1
_geom_angle_atom_site_label_2
_geom_angle_atom_site_label_3
_geom_angle
_geom_angle_site_symmetry_1
_geom_angle_site_symmetry_3
S2 Cs1 S2 64.04(7) 3_445 4_545
S2 Cs1 S1 135.35(5) 3_445 4
S2 Cs1 S1 136.73(5) 4_545 4
S2 Cs1 S1 136.73(5) 3_445 3_455
S2 Cs1 S1 135.35(5) 4_545 3_455
S1 Cs1 S1 63.81(7) 4 3_455
S2 Cs1 Fe2 39.12(4) 3_445 3_445
S2 Cs1 Fe2 38.78(4) 4_545 3_445
S1 Cs1 Fe2 171.55(4) 4 3_445
S1 Cs1 Fe2 124.63(4) 3_455 3_445
S2 Cs1 Fe2 38.78(4) 3_445 4_545
S2 Cs1 Fe2 39.12(4) 4_545 4_545
S1 Cs1 Fe2 124.63(4) 4 4_545
S1 Cs1 Fe2 171.55(4) 3_455 4_545
Fe2 Cs1 Fe2 46.95(4) 3_445 4_545
S2 Cs1 Fe1 171.11(4) 3_445 4
S2 Cs1 Fe1 124.84(4) 4_545 4
S1 Cs1 Fe1 38.95(4) 4 4
S1 Cs1 Fe1 38.42(4) 3_455 4
Fe2 Cs1 Fe1 147.62(3) 3_445 4
Fe2 Cs1 Fe1 147.39(3) 4_545 4
S2 Cs1 Fe1 124.84(4) 3_445 3_455
S2 Cs1 Fe1 171.11(4) 4_545 3_455
S1 Cs1 Fe1 38.42(4) 4 3_455
S1 Cs1 Fe1 38.95(4) 3_455 3_455
Fe2 Cs1 Fe1 147.39(3) 3_445 3_455
Fe2 Cs1 Fe1 147.62(3) 4_545 3_455
Fe1 Cs1 Fe1 46.29(4) 4 3_455
S2 Cs1 S4 64.21(5) 3_445 2
S2 Cs1 S4 63.55(5) 4_545 2
S1 Cs1 S4 153.18(5) 4 2
S1 Cs1 S4 89.39(5) 3_455 2
Fe2 Cs1 S4 35.24(4) 3_445 2
Fe2 Cs1 S4 82.19(4) 4_545 2
Fe1 Cs1 S4 118.62(4) 4 2
Fe1 Cs1 S4 118.42(4) 3_455 2
S2 Cs1 S4 63.55(5) 3_445 .
S2 Cs1 S4 64.21(5) 4_545 .
S1 Cs1 S4 89.38(5) 4 .
S1 Cs1 S4 153.18(5) 3_455 .
Fe2 Cs1 S4 82.19(4) 3_445 .
Fe2 Cs1 S4 35.24(4) 4_545 .
Fe1 Cs1 S4 118.42(4) 4 .
Fe1 Cs1 S4 118.62(4) 3_455 .
S4 Cs1 S4 117.43(7) 2 .
S2 Cs1 S3 153.89(5) 3_445 7_556
S2 Cs1 S3 89.94(5) 4_545 7_556
S1 Cs1 S3 62.90(5) 4 7_556
S1 Cs1 S3 63.74(5) 3_455 7_556
Fe2 Cs1 S3 119.81(4) 3_445 7_556
Fe2 Cs1 S3 118.24(4) 4_545 7_556
Fe1 Cs1 S3 34.94(4) 4 7_556
Fe1 Cs1 S3 81.20(4) 3_455 7_556
S4 Cs1 S3 107.37(5) 2 7_556
S4 Cs1 S3 104.53(5) . 7_556
S2 Cs1 S3 89.94(5) 3_445 8_455
S2 Cs1 S3 153.89(5) 4_545 8_455
S1 Cs1 S3 63.74(5) 4 8_455
S1 Cs1 S3 62.90(5) 3_455 8_455
Fe2 Cs1 S3 118.24(4) 3_445 8_455
Fe2 Cs1 S3 119.81(4) 4_545 8_455
Fe1 Cs1 S3 81.20(4) 4 8_455
Fe1 Cs1 S3 34.94(4) 3_455 8_455
S4 Cs1 S3 104.53(5) 2 8_455
S4 Cs1 S3 107.37(5) . 8_455
S3 Cs1 S3 116.14(7) 7_556 8_455
S2 Cs1 Cs2 114.49(4) 3_445 .
S2 Cs1 Cs2 69.63(4) 4_545 .
S1 Cs1 Cs2 110.15(4) 4 .
S1 Cs1 Cs2 65.73(4) 3_455 .
Fe2 Cs1 Cs2 75.95(2) 3_445 .
Fe2 Cs1 Cs2 108.35(3) 4_545 .
Fe1 Cs1 Cs2 71.67(2) 4 .
Fe1 Cs1 Cs2 104.02(3) 3_455 .
S4 Cs1 Cs2 54.59(4) 2 .
S4 Cs1 Cs2 128.33(4) . .
S3 Cs1 Cs2 52.81(4) 7_556 .
S3 Cs1 Cs2 124.26(4) 8_455 .
S2 Cs1 Cs2 69.63(4) 3_445 2
S2 Cs1 Cs2 114.49(4) 4_545 2
S1 Cs1 Cs2 65.73(4) 4 2
S1 Cs1 Cs2 110.15(4) 3_455 2
Fe2 Cs1 Cs2 108.35(3) 3_445 2
Fe2 Cs1 Cs2 75.95(2) 4_545 2
Fe1 Cs1 Cs2 104.02(3) 4 2
Fe1 Cs1 Cs2 71.67(2) 3_455 2
S4 Cs1 Cs2 128.33(4) 2 2
S4 Cs1 Cs2 54.59(4) . 2
S3 Cs1 Cs2 124.26(4) 7_556 2
S3 Cs1 Cs2 52.81(4) 8_455 2
Cs2 Cs1 Cs2 175.50(3) . 2
S2 Cs1 Cs4 72.17(4) 3_445 2
S2 Cs1 Cs4 112.85(4) 4_545 2
S1 Cs1 Cs4 110.30(4) 4 2
S1 Cs1 Cs4 64.58(4) 3_455 2
Fe2 Cs1 Cs4 75.31(2) 3_445 2
Fe2 Cs1 Cs4 110.03(3) 4_545 2
Fe1 Cs1 Cs4 102.56(3) 4 2
Fe1 Cs1 Cs4 72.14(2) 3_455 2
S4 Cs1 Cs4 52.20(4) 2 2
S4 Cs1 Cs4 131.55(4) . 2
S3 Cs1 Cs4 123.91(4) 7_556 2
S3 Cs1 Cs4 52.47(4) 8_455 2
Cs2 Cs1 Cs4 86.898(13) . 2
Cs2 Cs1 Cs4 92.885(13) 2 2
S2 Cs1 Cs4 112.85(4) 3_445 .
S2 Cs1 Cs4 72.17(4) 4_545 .
S1 Cs1 Cs4 64.58(4) 4 .
S1 Cs1 Cs4 110.30(4) 3_455 .
Fe2 Cs1 Cs4 110.03(3) 3_445 .
Fe2 Cs1 Cs4 75.31(2) 4_545 .
Fe1 Cs1 Cs4 72.14(2) 4 .
Fe1 Cs1 Cs4 102.56(3) 3_455 .
S4 Cs1 Cs4 131.55(4) 2 .
S4 Cs1 Cs4 52.20(4) . .
S3 Cs1 Cs4 52.47(4) 7_556 .
S3 Cs1 Cs4 123.91(4) 8_455 .
Cs2 Cs1 Cs4 92.883(13) . .
Cs2 Cs1 Cs4 86.898(13) 2 .
Cs4 Cs1 Cs4 174.44(3) 2 .
S2 Cs1 Fe1 17.00(4) 3_445 3_445
S2 Cs1 Fe1 47.04(4) 4_545 3_445
S1 Cs1 Fe1 144.89(4) 4 3_445
S1 Cs1 Fe1 145.27(4) 3_455 3_445
Fe2 Cs1 Fe1 27.55(2) 3_445 3_445
Fe2 Cs1 Fe1 27.72(2) 4_545 3_445
Fe1 Cs1 Fe1 171.877(15) 4 3_445
Fe1 Cs1 Fe1 141.84(3) 3_455 3_445
S4 Cs1 Fe1 59.83(4) 2 3_445
S4 Cs1 Fe1 59.96(4) . 3_445
S3 Cs1 Fe1 136.94(4) 7_556 3_445
S3 Cs1 Fe1 106.92(4) 8_455 3_445
Cs2 Cs1 Fe1 102.79(2) . 3_445
Cs2 Cs1 Fe1 81.63(2) 2 3_445
Cs4 Cs1 Fe1 82.765(18) 2 3_445
Cs4 Cs1 Fe1 102.69(2) . 3_445
S2 Cs1 Fe1 47.04(4) 3_445 4_545
S2 Cs1 Fe1 17.00(4) 4_545 4_545
S1 Cs1 Fe1 145.27(4) 4 4_545
S1 Cs1 Fe1 144.89(4) 3_455 4_545
Fe2 Cs1 Fe1 27.72(2) 3_445 4_545
Fe2 Cs1 Fe1 27.55(2) 4_545 4_545
Fe1 Cs1 Fe1 141.84(3) 4 4_545
Fe1 Cs1 Fe1 171.877(15) 3_455 4_545
S4 Cs1 Fe1 59.96(4) 2 4_545
S4 Cs1 Fe1 59.83(4) . 4_545
S3 Cs1 Fe1 106.92(4) 7_556 4_545
S3 Cs1 Fe1 136.94(4) 8_455 4_545
Cs2 Cs1 Fe1 81.63(2) . 4_545
Cs2 Cs1 Fe1 102.79(2) 2 4_545
Cs4 Cs1 Fe1 102.69(2) 2 4_545
Cs4 Cs1 Fe1 82.764(18) . 4_545
Fe1 Cs1 Fe1 30.04(3) 3_445 4_545
S2 Cs1 Fe2 144.84(4) 3_445 4
S2 Cs1 Fe2 145.08(4) 4_545 4
S1 Cs1 Fe2 16.85(4) 4 4
S1 Cs1 Fe2 46.96(4) 3_455 4
Fe2 Cs1 Fe2 171.590(15) 3_445 4
Fe2 Cs1 Fe2 141.46(3) 4_545 4
Fe1 Cs1 Fe2 27.30(2) 4 4
Fe1 Cs1 Fe2 27.47(2) 3_455 4
S4 Cs1 Fe2 136.35(4) 2 4
S4 Cs1 Fe2 106.22(4) . 4
S3 Cs1 Fe2 58.77(4) 7_556 4
S3 Cs1 Fe2 59.81(4) 8_455 4
Cs2 Cs1 Fe2 98.28(2) . 4
Cs2 Cs1 Fe2 77.30(2) 2 4
Cs4 Cs1 Fe2 98.49(2) 2 4
Cs4 Cs1 Fe2 76.037(18) . 4
Fe1 Cs1 Fe2 158.926(18) 3_445 4
Fe1 Cs1 Fe2 158.778(19) 4_545 4
S2 Cs1 Fe2 145.08(4) 3_445 3_455
S2 Cs1 Fe2 144.84(4) 4_545 3_455
S1 Cs1 Fe2 46.96(4) 4 3_455
S1 Cs1 Fe2 16.85(4) 3_455 3_455
Fe2 Cs1 Fe2 141.46(3) 3_445 3_455
Fe2 Cs1 Fe2 171.590(15) 4_545 3_455
Fe1 Cs1 Fe2 27.47(2) 4 3_455
Fe1 Cs1 Fe2 27.30(2) 3_455 3_455
S4 Cs1 Fe2 106.22(4) 2 3_455
S4 Cs1 Fe2 136.35(4) . 3_455
S3 Cs1 Fe2 59.81(4) 7_556 3_455
S3 Cs1 Fe2 58.77(4) 8_455 3_455
Cs2 Cs1 Fe2 77.30(2) . 3_455
Cs2 Cs1 Fe2 98.28(2) 2 3_455
Cs4 Cs1 Fe2 76.036(18) 2 3_455
Cs4 Cs1 Fe2 98.49(2) . 3_455
Fe1 Cs1 Fe2 158.778(19) 3_445 3_455
Fe1 Cs1 Fe2 158.926(18) 4_545 3_455
Fe2 Cs1 Fe2 30.13(3) 4 3_455
S2 Cs1 Cs3 92.39(4) 3_445 2
S2 Cs1 Cs3 88.80(4) 4_545 2
S1 Cs1 Cs3 121.18(4) 4 2
S1 Cs1 Cs3 57.41(3) 3_455 2
Fe2 Cs1 Cs3 67.26(2) 3_445 2
Fe2 Cs1 Cs3 114.15(2) 4_545 2
Fe1 Cs1 Cs3 88.38(2) 4 2
Fe1 Cs1 Cs3 90.33(2) 3_455 2
S4 Cs1 Cs3 32.09(3) 2 2
S4 Cs1 Cs3 149.31(4) . 2
S3 Cs1 Cs3 88.90(4) 7_556 2
S3 Cs1 Cs3 90.35(4) 8_455 2
Cs2 Cs1 Cs3 42.652(11) . 2
Cs2 Cs1 Cs3 137.267(11) 2 2
Cs4 Cs1 Cs3 44.385(11) 2 2
Cs4 Cs1 Cs3 135.517(11) . 2
Fe1 Cs1 Cs3 91.324(16) 3_445 2
Fe1 Cs1 Cs3 90.036(16) 4_545 2
Fe2 Cs1 Cs3 104.339(17) 4 2
Fe2 Cs1 Cs3 74.253(15) 3_455 2
S2 Cs1 Cs3 88.80(4) 3_445 .
S2 Cs1 Cs3 92.39(4) 4_545 .
S1 Cs1 Cs3 57.41(3) 4 .
S1 Cs1 Cs3 121.18(4) 3_455 .
Fe2 Cs1 Cs3 114.15(2) 3_445 .
Fe2 Cs1 Cs3 67.26(2) 4_545 .
Fe1 Cs1 Cs3 90.33(2) 4 .
Fe1 Cs1 Cs3 88.38(2) 3_455 .
S4 Cs1 Cs3 149.31(4) 2 .
S4 Cs1 Cs3 32.09(3) . .
S3 Cs1 Cs3 90.35(4) 7_556 .
S3 Cs1 Cs3 88.90(4) 8_455 .
Cs2 Cs1 Cs3 137.266(11) . .
Cs2 Cs1 Cs3 42.651(11) 2 .
Cs4 Cs1 Cs3 135.517(11) 2 .
Cs4 Cs1 Cs3 44.386(11) . .
Fe1 Cs1 Cs3 90.036(16) 3_445 .
Fe1 Cs1 Cs3 91.324(16) 4_545 .
Fe2 Cs1 Cs3 74.253(15) 4 .
Fe2 Cs1 Cs3 104.339(17) 3_455 .
Cs3 Cs1 Cs3 178.592(19) 2 .
S2 Cs1 Cs4 123.30(4) 3_445 7_556
S2 Cs1 Cs4 59.27(4) 4_545 7_556
S1 Cs1 Cs4 89.43(4) 4 7_556
S1 Cs1 Cs4 88.39(4) 3_455 7_556
Fe2 Cs1 Cs4 91.26(2) 3_445 7_556
Fe2 Cs1 Cs4 91.10(2) 4_545 7_556
Fe1 Cs1 Cs4 65.57(2) 4 7_556
Fe1 Cs1 Cs4 111.86(2) 3_455 7_556
S4 Cs1 Cs4 90.72(4) 2 7_556
S4 Cs1 Cs4 90.61(4) . 7_556
S3 Cs1 Cs4 30.70(3) 7_556 7_556
S3 Cs1 Cs4 146.74(4) 8_455 7_556
Cs2 Cs1 Cs4 44.669(11) . 7_556
Cs2 Cs1 Cs4 135.187(11) 2 7_556
Cs4 Cs1 Cs4 131.526(13) 2 7_556
Cs4 Cs1 Cs4 48.307(13) . 7_556
Fe1 Cs1 Cs4 106.303(18) 3_445 7_556
Fe1 Cs1 Cs4 76.262(16) 4_545 7_556
Fe2 Cs1 Cs4 88.709(16) 4 7_556
Fe2 Cs1 Cs4 88.814(16) 3_455 7_556
Cs3 Cs1 Cs4 87.307(9) 2 7_556
Cs3 Cs1 Cs4 92.662(9) . 7_556
S2 Cs1 Cs4 59.27(4) 3_445 8_455
S2 Cs1 Cs4 123.30(4) 4_545 8_455
S1 Cs1 Cs4 88.39(4) 4 8_455
S1 Cs1 Cs4 89.43(4) 3_455 8_455
Fe2 Cs1 Cs4 91.10(2) 3_445 8_455
Fe2 Cs1 Cs4 91.26(2) 4_545 8_455
Fe1 Cs1 Cs4 111.86(2) 4 8_455
Fe1 Cs1 Cs4 65.57(2) 3_455 8_455
S4 Cs1 Cs4 90.61(4) 2 8_455
S4 Cs1 Cs4 90.72(4) . 8_455
S3 Cs1 Cs4 146.74(4) 7_556 8_455
S3 Cs1 Cs4 30.70(3) 8_455 8_455
Cs2 Cs1 Cs4 135.188(11) . 8_455
Cs2 Cs1 Cs4 44.670(11) 2 8_455
Cs4 Cs1 Cs4 48.307(13) 2 8_455
Cs4 Cs1 Cs4 131.527(13) . 8_455
Fe1 Cs1 Cs4 76.262(16) 3_445 8_455
Fe1 Cs1 Cs4 106.303(18) 4_545 8_455
Fe2 Cs1 Cs4 88.814(16) 4 8_455
Fe2 Cs1 Cs4 88.709(16) 3_455 8_455
Cs3 Cs1 Cs4 92.662(9) 2 8_455
Cs3 Cs1 Cs4 87.307(9) . 8_455
Cs4 Cs1 Cs4 177.435(19) 7_556 8_455
S2 Cs1 Cs2 32.43(4) 3_445 6
S2 Cs1 Cs2 72.34(4) 4_545 6
S1 Cs1 Cs2 106.61(4) 4 6
S1 Cs1 Cs2 149.66(4) 3_455 6
Fe2 Cs1 Cs2 65.96(2) 3_445 6
Fe2 Cs1 Cs2 33.48(2) 4_545 6
Fe1 Cs1 Cs2 145.01(2) 4 6
Fe1 Cs1 Cs2 115.16(2) 3_455 6
S4 Cs1 Cs2 96.17(4) 2 6
S4 Cs1 Cs2 35.88(4) . 6
S3 Cs1 Cs2 140.37(4) 7_556 6
S3 Cs1 Cs2 86.88(4) 8_455 6
Cs2 Cs1 Cs2 139.615(18) . 6
Cs2 Cs1 Cs2 44.881(17) 2 6
Cs4 Cs1 Cs2 95.712(13) 2 6
Cs4 Cs1 Cs2 88.058(12) . 6
Fe1 Cs1 Cs2 38.416(15) 3_445 6
Fe1 Cs1 Cs2 58.423(16) 4_545 6
Fe2 Cs1 Cs2 120.947(15) 4 6
Fe2 Cs1 Cs2 142.435(16) 3_455 6
Cs3 Cs1 Cs2 124.658(13) 2 6
Cs3 Cs1 Cs2 56.493(9) . 6
Cs4 Cs1 Cs2 121.212(12) 7_556 6
Cs4 Cs1 Cs2 60.797(9) 8_455 6
S2 Cs1 Cs2 72.34(4) 3_445 5_556
S2 Cs1 Cs2 32.43(4) 4_545 5_556
S1 Cs1 Cs2 149.66(4) 4 5_556
S1 Cs1 Cs2 106.61(4) 3_455 5_556
Fe2 Cs1 Cs2 33.48(2) 3_445 5_556
Fe2 Cs1 Cs2 65.96(2) 4_545 5_556
Fe1 Cs1 Cs2 115.16(2) 4 5_556
Fe1 Cs1 Cs2 145.01(2) 3_455 5_556
S4 Cs1 Cs2 35.88(4) 2 5_556
S4 Cs1 Cs2 96.17(4) . 5_556
S3 Cs1 Cs2 86.88(4) 7_556 5_556
S3 Cs1 Cs2 140.37(4) 8_455 5_556
Cs2 Cs1 Cs2 44.881(17) . 5_556
Cs2 Cs1 Cs2 139.615(18) 2 5_556
Cs4 Cs1 Cs2 88.058(13) 2 5_556
Cs4 Cs1 Cs2 95.712(13) . 5_556
Fe1 Cs1 Cs2 58.423(16) 3_445 5_556
Fe1 Cs1 Cs2 38.416(15) 4_545 5_556
Fe2 Cs1 Cs2 142.435(16) 4 5_556
Fe2 Cs1 Cs2 120.947(15) 3_455 5_556
Cs3 Cs1 Cs2 56.493(9) 2 5_556
Cs3 Cs1 Cs2 124.658(12) . 5_556
Cs4 Cs1 Cs2 60.797(9) 7_556 5_556
Cs4 Cs1 Cs2 121.212(12) 8_455 5_556
Cs2 Cs1 Cs2 94.827(17) 6 5_556
S2 Cs1 Cs3 31.05(4) 3_445 3_445
S2 Cs1 Cs3 71.98(4) 4_545 3_445
S1 Cs1 Cs3 147.71(4) 4 3_445
S1 Cs1 Cs3 108.79(4) 3_455 3_445
Fe2 Cs1 Cs3 33.67(2) 3_445 3_445
Fe2 Cs1 Cs3 64.59(2) 4_545 3_445
Fe1 Cs1 Cs3 146.96(2) 4 3_445
Fe1 Cs1 Cs3 115.23(2) 3_455 3_445
S4 Cs1 Cs3 37.97(4) 2 3_445
S4 Cs1 Cs3 94.26(4) . 3_445
S3 Cs1 Cs3 145.14(4) 7_556 3_445
S3 Cs1 Cs3 84.65(4) 8_455 3_445
Cs2 Cs1 Cs3 92.524(13) . 3_445
Cs2 Cs1 Cs3 90.571(14) 2 3_445
Cs4 Cs1 Cs3 46.386(12) 2 3_445
Cs4 Cs1 Cs3 139.156(19) . 3_445
Fe1 Cs1 Cs3 36.872(15) 3_445 3_445
Fe1 Cs1 Cs3 58.113(16) 4_545 3_445
Fe2 Cs1 Cs3 142.700(16) 4 3_445
Fe2 Cs1 Cs3 122.174(15) 3_455 3_445
Cs3 Cs1 Cs3 61.922(8) 2 3_445
Cs3 Cs1 Cs3 119.182(14) . 3_445
Cs4 Cs1 Cs3 122.534(12) 7_556 3_445
Cs4 Cs1 Cs3 59.535(8) 8_455 3_445
Cs2 Cs1 Cs3 62.788(11) 6 3_445
Cs2 Cs1 Cs3 61.749(10) 5_556 3_445
S2 Cs1 Cs3 71.98(4) 3_445 4_545
S2 Cs1 Cs3 31.05(4) 4_545 4_545
S1 Cs1 Cs3 108.79(4) 4 4_545
S1 Cs1 Cs3 147.71(4) 3_455 4_545
Fe2 Cs1 Cs3 64.59(2) 3_445 4_545
Fe2 Cs1 Cs3 33.67(2) 4_545 4_545
Fe1 Cs1 Cs3 115.23(2) 4 4_545
Fe1 Cs1 Cs3 146.96(2) 3_455 4_545
S4 Cs1 Cs3 94.26(4) 2 4_545
S4 Cs1 Cs3 37.97(4) . 4_545
S3 Cs1 Cs3 84.65(4) 7_556 4_545
S3 Cs1 Cs3 145.14(4) 8_455 4_545
Cs2 Cs1 Cs3 90.570(14) . 4_545
Cs2 Cs1 Cs3 92.523(13) 2 4_545
Cs4 Cs1 Cs3 139.156(19) 2 4_545
Cs4 Cs1 Cs3 46.386(12) . 4_545
Fe1 Cs1 Cs3 58.113(16) 3_445 4_545
Fe1 Cs1 Cs3 36.872(15) 4_545 4_545
Fe2 Cs1 Cs3 122.174(15) 4 4_545
Fe2 Cs1 Cs3 142.700(16) 3_455 4_545
Cs3 Cs1 Cs3 119.182(14) 2 4_545
Cs3 Cs1 Cs3 61.922(8) . 4_545
Cs4 Cs1 Cs3 59.535(9) 7_556 4_545
Cs4 Cs1 Cs3 122.534(12) 8_455 4_545
Cs2 Cs1 Cs3 61.749(10) 6 4_545
Cs2 Cs1 Cs3 62.788(11) 5_556 4_545
Cs3 Cs1 Cs3 93.118(16) 3_445 4_545
S2 Cs1 Cs3 149.62(4) 3_445 4
S2 Cs1 Cs3 108.92(4) 4_545 4
S1 Cs1 Cs3 31.62(4) 4 4
S1 Cs1 Cs3 70.32(4) 3_455 4
Fe2 Cs1 Cs3 147.17(2) 3_445 4
Fe2 Cs1 Cs3 116.34(2) 4_545 4
Fe1 Cs1 Cs3 32.19(2) 4 4
Fe1 Cs1 Cs3 63.84(2) 3_455 4
S4 Cs1 Cs3 141.97(4) 2 4
S4 Cs1 Cs3 86.51(3) . 4
S3 Cs1 Cs3 34.96(4) 7_556 4
S3 Cs1 Cs3 94.54(4) 8_455 4
Cs2 Cs1 Cs3 87.464(13) . 4
Cs2 Cs1 Cs3 89.385(15) 2 4
Cs4 Cs1 Cs3 132.640(19) 2 4
Cs4 Cs1 Cs3 41.817(12) . 4
Fe1 Cs1 Cs3 144.061(16) 3_445 4
Fe1 Cs1 Cs3 122.844(15) 4_545 4
Fe2 Cs1 Cs3 36.369(15) 4 4
Fe2 Cs1 Cs3 56.871(16) 3_455 4
Cs3 Cs1 Cs3 117.562(13) 2 4
Cs3 Cs1 Cs3 61.320(9) . 4
Cs4 Cs1 Cs3 58.025(9) 7_556 4
Cs4 Cs1 Cs3 119.882(13) 8_455 4
Cs2 Cs1 Cs3 117.758(8) 6 4
Cs2 Cs1 Cs3 118.785(9) 5_556 4
Cs3 Cs1 Cs3 179.021(13) 3_445 4
Cs3 Cs1 Cs3 87.861(8) 4_545 4
S2 Cs1 Cs3 108.92(4) 3_445 3_455
S2 Cs1 Cs3 149.62(4) 4_545 3_455
S1 Cs1 Cs3 70.32(4) 4 3_455
S1 Cs1 Cs3 31.62(4) 3_455 3_455
Fe2 Cs1 Cs3 116.34(2) 3_445 3_455
Fe2 Cs1 Cs3 147.17(2) 4_545 3_455
Fe1 Cs1 Cs3 63.84(2) 4 3_455
Fe1 Cs1 Cs3 32.19(2) 3_455 3_455
S4 Cs1 Cs3 86.51(3) 2 3_455
S4 Cs1 Cs3 141.97(4) . 3_455
S3 Cs1 Cs3 94.54(4) 7_556 3_455
S3 Cs1 Cs3 34.96(4) 8_455 3_455
Cs2 Cs1 Cs3 89.386(15) . 3_455
Cs2 Cs1 Cs3 87.465(13) 2 3_455
Cs4 Cs1 Cs3 41.816(11) 2 3_455
Cs4 Cs1 Cs3 132.640(19) . 3_455
Fe1 Cs1 Cs3 122.844(15) 3_445 3_455
Fe1 Cs1 Cs3 144.061(16) 4_545 3_455
Fe2 Cs1 Cs3 56.871(16) 4 3_455
Fe2 Cs1 Cs3 36.369(15) 3_455 3_455
Cs3 Cs1 Cs3 61.321(9) 2 3_455
Cs3 Cs1 Cs3 117.562(13) . 3_455
Cs4 Cs1 Cs3 119.882(13) 7_556 3_455
Cs4 Cs1 Cs3 58.025(9) 8_455 3_455
Cs2 Cs1 Cs3 118.785(9) 6 3_455
Cs2 Cs1 Cs3 117.758(8) 5_556 3_455
Cs3 Cs1 Cs3 87.861(8) 3_445 3_455
Cs3 Cs1 Cs3 179.021(13) 4_545 3_455
Cs3 Cs1 Cs3 91.160(15) 4 3_455
S2 Cs1 Cs2 149.20(4) 3_445 5_566
S2 Cs1 Cs2 109.85(4) 4_545 5_566
S1 Cs1 Cs2 71.17(4) 4 5_566
S1 Cs1 Cs2 28.68(4) 3_455 5_566
Fe2 Cs1 Cs2 116.31(2) 3_445 5_566
Fe2 Cs1 Cs2 148.57(2) 4_545 5_566
Fe1 Cs1 Cs2 32.94(2) 4 5_566
Fe1 Cs1 Cs2 62.58(2) 3_455 5_566
S4 Cs1 Cs2 85.76(4) 2 5_566
S4 Cs1 Cs2 143.89(4) . 5_566
S3 Cs1 Cs2 39.65(4) 7_556 5_566
S3 Cs1 Cs2 91.28(4) 8_455 5_566
Cs2 Cs1 Cs2 42.769(17) . 5_566
Cs2 Cs1 Cs2 132.734(18) 2 5_566
Cs4 Cs1 Cs2 84.354(13) 2 5_566
Cs4 Cs1 Cs2 91.708(13) . 5_566
Fe1 Cs1 Cs2 143.852(16) 3_445 5_566
Fe1 Cs1 Cs2 123.904(15) 4_545 5_566
Fe2 Cs1 Cs2 56.718(16) 4 5_566
Fe2 Cs1 Cs2 35.287(15) 3_455 5_566
Cs3 Cs1 Cs2 56.832(9) 2 5_566
Cs3 Cs1 Cs2 121.987(13) . 5_566
Cs4 Cs1 Cs2 60.055(9) 7_556 5_566
Cs4 Cs1 Cs2 117.874(12) 8_455 5_566
Cs2 Cs1 Cs2 177.612(14) 6 5_566
Cs2 Cs1 Cs2 87.561(8) 5_556 5_566
Cs3 Cs1 Cs2 118.573(8) 3_445 5_566
Cs3 Cs1 Cs2 119.585(9) 4_545 5_566
Cs3 Cs1 Cs2 60.849(10) 4 5_566
Cs3 Cs1 Cs2 59.849(11) 3_455 5_566
S2 Cs1 Cs2 109.85(4) 3_445 6_565
S2 Cs1 Cs2 149.20(4) 4_545 6_565
S1 Cs1 Cs2 28.68(4) 4 6_565
S1 Cs1 Cs2 71.17(4) 3_455 6_565
Fe2 Cs1 Cs2 148.57(2) 3_445 6_565
Fe2 Cs1 Cs2 116.31(2) 4_545 6_565
Fe1 Cs1 Cs2 62.58(2) 4 6_565
Fe1 Cs1 Cs2 32.94(2) 3_455 6_565
S4 Cs1 Cs2 143.89(4) 2 6_565
S4 Cs1 Cs2 85.76(4) . 6_565
S3 Cs1 Cs2 91.28(4) 7_556 6_565
S3 Cs1 Cs2 39.65(4) 8_455 6_565
Cs2 Cs1 Cs2 132.734(18) . 6_565
Cs2 Cs1 Cs2 42.769(17) 2 6_565
Cs4 Cs1 Cs2 91.709(13) 2 6_565
Cs4 Cs1 Cs2 84.355(13) . 6_565
Fe1 Cs1 Cs2 123.904(15) 3_445 6_565
Fe1 Cs1 Cs2 143.852(16) 4_545 6_565
Fe2 Cs1 Cs2 35.287(15) 4 6_565
Fe2 Cs1 Cs2 56.718(16) 3_455 6_565
Cs3 Cs1 Cs2 121.987(13) 2 6_565
Cs3 Cs1 Cs2 56.832(9) . 6_565
Cs4 Cs1 Cs2 117.874(12) 7_556 6_565
Cs4 Cs1 Cs2 60.055(9) 8_455 6_565
Cs2 Cs1 Cs2 87.561(8) 6 6_565
Cs2 Cs1 Cs2 177.612(14) 5_556 6_565
Cs3 Cs1 Cs2 119.585(9) 3_445 6_565
Cs3 Cs1 Cs2 118.573(8) 4_545 6_565
Cs3 Cs1 Cs2 59.849(11) 4 6_565
Cs3 Cs1 Cs2 60.849(10) 3_455 6_565
Cs2 Cs1 Cs2 90.050(16) 5_566 6_565
S2 Cs1 Cs3 22.07(4) 3_445 5
S2 Cs1 Cs3 86.11(4) 4_545 5
S1 Cs1 Cs3 119.07(4) 4 5
S1 Cs1 Cs3 120.66(4) 3_455 5
Fe2 Cs1 Cs3 57.62(2) 3_445 5
Fe2 Cs1 Cs3 57.30(2) 4_545 5
Fe1 Cs1 Cs3 149.05(2) 4 5
Fe1 Cs1 Cs3 102.76(2) 3_455 5
S4 Cs1 Cs3 72.68(4) 2 5
S4 Cs1 Cs3 71.86(4) . 5
S3 Cs1 Cs3 175.54(4) 7_556 5
S3 Cs1 Cs3 67.88(4) 8_455 5
Cs2 Cs1 Cs3 127.205(15) . 5
Cs2 Cs1 Cs3 56.040(13) 2 5
Cs4 Cs1 Cs3 59.804(11) 2 5
Cs4 Cs1 Cs3 124.045(13) . 5
Fe1 Cs1 Cs3 39.076(15) 3_445 5
Fe1 Cs1 Cs3 69.114(16) 4_545 5
Fe2 Cs1 Cs3 124.386(15) 4 5
Fe2 Cs1 Cs3 124.600(15) 3_455 5
Cs3 Cs1 Cs3 93.087(9) 2 5
Cs3 Cs1 Cs3 87.740(9) . 5
Cs4 Cs1 Cs3 145.372(14) 7_556 5
Cs4 Cs1 Cs3 37.193(8) 8_455 5
Cs2 Cs1 Cs3 35.988(8) 6 5
Cs2 Cs1 Cs3 90.884(12) 5_556 5
Cs3 Cs1 Cs3 34.712(10) 3_445 5
Cs3 Cs1 Cs3 90.890(9) 4_545 5
Cs3 Cs1 Cs3 145.326(10) 4 5
Cs3 Cs1 Cs3 89.915(8) 3_455 5
Cs2 Cs1 Cs3 144.158(8) 5_566 5
Cs2 Cs1 Cs3 91.052(8) 6_565 5
S2 Cs1 Cs3 86.11(4) 3_445 6_556
S2 Cs1 Cs3 22.07(4) 4_545 6_556
S1 Cs1 Cs3 120.66(4) 4 6_556
S1 Cs1 Cs3 119.07(4) 3_455 6_556
Fe2 Cs1 Cs3 57.30(2) 3_445 6_556
Fe2 Cs1 Cs3 57.62(2) 4_545 6_556
Fe1 Cs1 Cs3 102.76(2) 4 6_556
Fe1 Cs1 Cs3 149.05(2) 3_455 6_556
S4 Cs1 Cs3 71.86(4) 2 6_556
S4 Cs1 Cs3 72.68(4) . 6_556
S3 Cs1 Cs3 67.88(4) 7_556 6_556
S3 Cs1 Cs3 175.54(4) 8_455 6_556
Cs2 Cs1 Cs3 56.040(13) . 6_556
Cs2 Cs1 Cs3 127.204(15) 2 6_556
Cs4 Cs1 Cs3 124.045(13) 2 6_556
Cs4 Cs1 Cs3 59.804(11) . 6_556
Fe1 Cs1 Cs3 69.114(16) 3_445 6_556
Fe1 Cs1 Cs3 39.076(15) 4_545 6_556
Fe2 Cs1 Cs3 124.600(15) 4 6_556
Fe2 Cs1 Cs3 124.386(15) 3_455 6_556
Cs3 Cs1 Cs3 87.740(9) 2 6_556
Cs3 Cs1 Cs3 93.087(9) . 6_556
Cs4 Cs1 Cs3 37.193(8) 7_556 6_556
Cs4 Cs1 Cs3 145.372(14) 8_455 6_556
Cs2 Cs1 Cs3 90.884(12) 6 6_556
Cs2 Cs1 Cs3 35.988(8) 5_556 6_556
Cs3 Cs1 Cs3 90.890(9) 3_445 6_556
Cs3 Cs1 Cs3 34.712(10) 4_545 6_556
Cs3 Cs1 Cs3 89.915(8) 4 6_556
Cs3 Cs1 Cs3 145.326(10) 3_455 6_556
Cs2 Cs1 Cs3 91.052(8) 5_566 6_556
Cs2 Cs1 Cs3 144.158(8) 6_565 6_556
Cs3 Cs1 Cs3 108.189(14) 5 6_556
S2 Cs1 Cs3 161.28(4) 3_445 6_566
S2 Cs1 Cs3 97.24(4) 4_545 6_566
S1 Cs1 Cs3 58.28(4) 4 6_566
S1 Cs1 Cs3 56.72(4) 3_455 6_566
Fe2 Cs1 Cs3 125.32(2) 3_445 6_566
Fe2 Cs1 Cs3 125.64(2) 4_545 6_566
Fe1 Cs1 Cs3 27.60(2) 4 6_566
Fe1 Cs1 Cs3 73.88(2) 3_455 6_566
S4 Cs1 Cs3 108.79(4) 2 6_566
S4 Cs1 Cs3 109.58(3) . 6_566
S3 Cs1 Cs3 7.59(4) 7_556 6_566
S3 Cs1 Cs3 108.77(4) 8_455 6_566
Cs2 Cs1 Cs3 54.490(12) . 6_566
Cs2 Cs1 Cs3 122.083(16) 2 6_566
Cs4 Cs1 Cs3 118.508(14) 2 6_566
Cs4 Cs1 Cs3 57.406(11) . 6_566
Fe1 Cs1 Cs3 144.278(16) 3_445 6_566
Fe1 Cs1 Cs3 114.241(15) 4_545 6_566
Fe2 Cs1 Cs3 52.438(15) 4 6_566
Fe2 Cs1 Cs3 52.225(15) 3_455 6_566
Cs3 Cs1 Cs3 86.998(9) 2 6_566
Cs3 Cs1 Cs3 92.110(9) . 6_566
Cs4 Cs1 Cs3 37.981(8) 7_556 6_566
Cs4 Cs1 Cs3 139.454(14) 8_455 6_566
Cs2 Cs1 Cs3 145.321(8) 6 6_566
Cs2 Cs1 Cs3 91.956(8) 5_556 6_566
Cs3 Cs1 Cs3 146.664(10) 3_445 6_566
Cs3 Cs1 Cs3 91.995(8) 4_545 6_566
Cs3 Cs1 Cs3 33.205(10) 4 6_566
Cs3 Cs1 Cs3 87.183(9) 3_455 6_566
Cs2 Cs1 Cs3 34.314(8) 5_566 6_566
Cs2 Cs1 Cs3 86.066(11) 6_565 6_566
Cs3 Cs1 Cs3 176.646(12) 5 6_566
Cs3 Cs1 Cs3 75.165(6) 6_556 6_566
S2 Cs1 Cs3 97.24(4) 3_445 5_565
S2 Cs1 Cs3 161.28(4) 4_545 5_565
S1 Cs1 Cs3 56.72(4) 4 5_565
S1 Cs1 Cs3 58.28(4) 3_455 5_565
Fe2 Cs1 Cs3 125.64(2) 3_445 5_565
Fe2 Cs1 Cs3 125.32(2) 4_545 5_565
Fe1 Cs1 Cs3 73.88(2) 4 5_565
Fe1 Cs1 Cs3 27.60(2) 3_455 5_565
S4 Cs1 Cs3 109.58(4) 2 5_565
S4 Cs1 Cs3 108.79(4) . 5_565
S3 Cs1 Cs3 108.77(4) 7_556 5_565
S3 Cs1 Cs3 7.59(4) 8_455 5_565
Cs2 Cs1 Cs3 122.084(16) . 5_565
Cs2 Cs1 Cs3 54.490(12) 2 5_565
Cs4 Cs1 Cs3 57.407(11) 2 5_565
Cs4 Cs1 Cs3 118.509(14) . 5_565
Fe1 Cs1 Cs3 114.241(15) 3_445 5_565
Fe1 Cs1 Cs3 144.278(16) 4_545 5_565
Fe2 Cs1 Cs3 52.225(15) 4 5_565
Fe2 Cs1 Cs3 52.438(15) 3_455 5_565
Cs3 Cs1 Cs3 92.110(9) 2 5_565
Cs3 Cs1 Cs3 86.998(9) . 5_565
Cs4 Cs1 Cs3 139.454(14) 7_556 5_565
Cs4 Cs1 Cs3 37.981(8) 8_455 5_565
Cs2 Cs1 Cs3 91.956(8) 6 5_565
Cs2 Cs1 Cs3 145.321(8) 5_556 5_565
Cs3 Cs1 Cs3 91.995(8) 3_445 5_565
Cs3 Cs1 Cs3 146.664(10) 4_545 5_565
Cs3 Cs1 Cs3 87.183(9) 4 5_565
Cs3 Cs1 Cs3 33.205(10) 3_455 5_565
Cs2 Cs1 Cs3 86.066(11) 5_566 5_565
Cs2 Cs1 Cs3 34.314(8) 6_565 5_565
Cs3 Cs1 Cs3 75.165(7) 5 5_565
Cs3 Cs1 Cs3 176.646(12) 6_556 5_565
Cs3 Cs1 Cs3 101.481(14) 6_566 5_565
S2 Cs1 Cs4 60.83(4) 3_445 3_445
S2 Cs1 Cs4 62.27(4) 4_545 3_445
S1 Cs1 Cs4 155.99(4) 4 3_445
S1 Cs1 Cs4 92.31(3) 3_455 3_445
Fe2 Cs1 Cs4 32.37(2) 3_445 3_445
Fe2 Cs1 Cs4 79.28(2) 4_545 3_445
Fe1 Cs1 Cs4 122.00(2) 4 3_445
Fe1 Cs1 Cs4 120.22(2) 3_455 3_445
S4 Cs1 Cs4 3.39(3) 2 3_445
S4 Cs1 Cs4 114.51(4) . 3_445
S3 Cs1 Cs4 110.23(4) 7_556 3_445
S3 Cs1 Cs4 104.39(4) 8_455 3_445
Cs2 Cs1 Cs4 57.542(12) . 3_445
Cs2 Cs1 Cs4 125.507(15) 2 3_445
Cs4 Cs1 Cs4 52.404(11) 2 3_445
Cs4 Cs1 Cs4 131.650(16) . 3_445
Fe1 Cs1 Cs4 56.537(15) 3_445 3_445
Fe1 Cs1 Cs4 57.736(15) 4_545 3_445
Fe2 Cs1 Cs4 139.232(16) 4 3_445
Fe2 Cs1 Cs4 109.125(14) 3_455 3_445
Cs3 Cs1 Cs4 35.178(8) 2 3_445
Cs3 Cs1 Cs4 146.219(15) . 3_445
Cs4 Cs1 Cs4 92.503(9) 7_556 3_445
Cs4 Cs1 Cs4 88.938(9) 8_455 3_445
Cs2 Cs1 Cs4 92.780(12) 6 3_445
Cs2 Cs1 Cs4 36.017(8) 5_556 3_445
Cs3 Cs1 Cs4 34.984(8) 3_445 3_445
Cs3 Cs1 Cs4 92.678(12) 4_545 3_445
Cs3 Cs1 Cs4 145.001(8) 4 3_445
Cs3 Cs1 Cs4 88.124(8) 3_455 3_445
Cs2 Cs1 Cs4 89.152(8) 5_566 3_445
Cs2 Cs1 Cs4 143.994(8) 6_565 3_445
Cs3 Cs1 Cs4 69.673(9) 5 3_445
Cs3 Cs1 Cs4 71.847(9) 6_556 3_445
Cs3 Cs1 Cs4 111.879(7) 6_566 3_445
Cs3 Cs1 Cs4 109.780(7) 5_565 3_445
S2 Cs1 Cs4 62.27(4) 3_445 4_545
S2 Cs1 Cs4 60.83(4) 4_545 4_545
S1 Cs1 Cs4 92.31(3) 4 4_545
S1 Cs1 Cs4 155.99(4) 3_455 4_545
Fe2 Cs1 Cs4 79.28(2) 3_445 4_545
Fe2 Cs1 Cs4 32.37(2) 4_545 4_545
Fe1 Cs1 Cs4 120.22(2) 4 4_545
Fe1 Cs1 Cs4 122.00(2) 3_455 4_545
S4 Cs1 Cs4 114.51(4) 2 4_545
S4 Cs1 Cs4 3.39(3) . 4_545
S3 Cs1 Cs4 104.39(4) 7_556 4_545
S3 Cs1 Cs4 110.23(4) 8_455 4_545
Cs2 Cs1 Cs4 125.507(15) . 4_545
Cs2 Cs1 Cs4 57.541(12) 2 4_545
Cs4 Cs1 Cs4 131.651(16) 2 4_545
Cs4 Cs1 Cs4 52.404(11) . 4_545
Fe1 Cs1 Cs4 57.736(15) 3_445 4_545
Fe1 Cs1 Cs4 56.537(15) 4_545 4_545
Fe2 Cs1 Cs4 109.125(14) 4 4_545
Fe2 Cs1 Cs4 139.232(16) 3_455 4_545
Cs3 Cs1 Cs4 146.219(15) 2 4_545
Cs3 Cs1 Cs4 35.178(8) . 4_545
Cs4 Cs1 Cs4 88.938(9) 7_556 4_545
Cs4 Cs1 Cs4 92.503(9) 8_455 4_545
Cs2 Cs1 Cs4 36.017(8) 6 4_545
Cs2 Cs1 Cs4 92.780(12) 5_556 4_545
Cs3 Cs1 Cs4 92.678(12) 3_445 4_545
Cs3 Cs1 Cs4 34.984(8) 4_545 4_545
Cs3 Cs1 Cs4 88.124(8) 4 4_545
Cs3 Cs1 Cs4 145.001(8) 3_455 4_545
Cs2 Cs1 Cs4 143.994(8) 5_566 4_545
Cs2 Cs1 Cs4 89.152(8) 6_565 4_545
Cs3 Cs1 Cs4 71.847(9) 5 4_545
Cs3 Cs1 Cs4 69.673(9) 6_556 4_545
Cs3 Cs1 Cs4 109.780(7) 6_566 4_545
Cs3 Cs1 Cs4 111.879(7) 5_565 4_545
Cs4 Cs1 Cs4 111.639(14) 3_445 4_545
S2 Cs1 Fe2 60.28(4) 3_445 8_455
S2 Cs1 Fe2 110.04(4) 4_545 8_455
S1 Cs1 Fe2 75.18(4) 4 8_455
S1 Cs1 Fe2 114.14(4) 3_455 8_455
Fe2 Cs1 Fe2 99.28(2) 3_445 8_455
Fe2 Cs1 Fe2 70.93(3) 4_545 8_455
Fe1 Cs1 Fe2 112.95(2) 4 8_455
Fe1 Cs1 Fe2 77.06(2) 3_455 8_455
S4 Cs1 Fe2 118.58(4) 2 8_455
S4 Cs1 Fe2 55.11(4) . 8_455
S3 Cs1 Fe2 134.06(4) 7_556 8_455
S3 Cs1 Fe2 53.14(4) 8_455 8_455
Cs2 Cs1 Fe2 172.866(15) . 8_455
Cs2 Cs1 Fe2 9.880(15) 2 8_455
Cs4 Cs1 Fe2 86.748(13) 2 8_455
Cs4 Cs1 Fe2 93.755(13) . 8_455
Fe1 Cs1 Fe2 73.168(17) 3_445 8_455
Fe1 Cs1 Fe2 96.618(18) 4_545 8_455
Fe2 Cs1 Fe2 85.868(18) 4 8_455
Fe2 Cs1 Fe2 104.260(17) 3_455 8_455
Cs3 Cs1 Fe2 130.717(12) 2 8_455
Cs3 Cs1 Fe2 49.450(12) . 8_455
Cs4 Cs1 Fe2 141.711(12) 7_556 8_455
Cs4 Cs1 Fe2 38.661(11) 8_455 8_455
Cs2 Cs1 Fe2 38.203(12) 6 8_455
Cs2 Cs1 Fe2 131.583(16) 5_556 8_455
Cs3 Cs1 Fe2 80.734(12) 3_445 8_455
Cs3 Cs1 Fe2 92.116(12) 4_545 8_455
Cs3 Cs1 Fe2 99.237(12) 4 8_455
Cs3 Cs1 Fe2 88.040(12) 3_455 8_455
Cs2 Cs1 Fe2 139.478(15) 5_566 8_455
Cs2 Cs1 Fe2 50.758(12) 6_565 8_455
Cs3 Cs1 Fe2 46.165(11) 5 8_455
Cs3 Cs1 Fe2 125.927(13) 6_556 8_455
Cs3 Cs1 Fe2 131.957(13) 6_566 8_455
Cs3 Cs1 Fe2 56.333(11) 5_565 8_455
Cs4 Cs1 Fe2 115.699(12) 3_445 8_455
Cs4 Cs1 Fe2 57.654(11) 4_545 8_455
S2 Cs1 Fe2 110.04(4) 3_445 7_556
S2 Cs1 Fe2 60.28(4) 4_545 7_556
S1 Cs1 Fe2 114.14(4) 4 7_556
S1 Cs1 Fe2 75.18(4) 3_455 7_556
Fe2 Cs1 Fe2 70.93(3) 3_445 7_556
Fe2 Cs1 Fe2 99.28(2) 4_545 7_556
Fe1 Cs1 Fe2 77.06(2) 4 7_556
Fe1 Cs1 Fe2 112.95(2) 3_455 7_556
S4 Cs1 Fe2 55.11(4) 2 7_556
S4 Cs1 Fe2 118.58(4) . 7_556
S3 Cs1 Fe2 53.14(4) 7_556 7_556
S3 Cs1 Fe2 134.06(4) 8_455 7_556
Cs2 Cs1 Fe2 9.879(15) . 7_556
Cs2 Cs1 Fe2 172.865(15) 2 7_556
Cs4 Cs1 Fe2 93.755(13) 2 7_556
Cs4 Cs1 Fe2 86.747(13) . 7_556
Fe1 Cs1 Fe2 96.618(18) 3_445 7_556
Fe1 Cs1 Fe2 73.169(17) 4_545 7_556
Fe2 Cs1 Fe2 104.260(17) 4 7_556
Fe2 Cs1 Fe2 85.868(18) 3_455 7_556
Cs3 Cs1 Fe2 49.450(12) 2 7_556
Cs3 Cs1 Fe2 130.717(11) . 7_556
Cs4 Cs1 Fe2 38.661(11) 7_556 7_556
Cs4 Cs1 Fe2 141.711(12) 8_455 7_556
Cs2 Cs1 Fe2 131.583(16) 6 7_556
Cs2 Cs1 Fe2 38.203(12) 5_556 7_556
Cs3 Cs1 Fe2 92.116(12) 3_445 7_556
Cs3 Cs1 Fe2 80.734(12) 4_545 7_556
Cs3 Cs1 Fe2 88.040(12) 4 7_556
Cs3 Cs1 Fe2 99.237(12) 3_455 7_556
Cs2 Cs1 Fe2 50.758(12) 5_566 7_556
Cs2 Cs1 Fe2 139.478(15) 6_565 7_556
Cs3 Cs1 Fe2 125.927(13) 5 7_556
Cs3 Cs1 Fe2 46.165(11) 6_556 7_556
Cs3 Cs1 Fe2 56.333(11) 6_566 7_556
Cs3 Cs1 Fe2 131.957(13) 5_565 7_556
Cs4 Cs1 Fe2 57.654(11) 3_445 7_556
Cs4 Cs1 Fe2 115.699(12) 4_545 7_556
Fe2 Cs1 Fe2 169.65(2) 8_455 7_556
S2 Cs1 Cs4 121.13(4) 3_445 4
S2 Cs1 Cs4 119.71(4) 4_545 4
S1 Cs1 Cs4 21.53(3) 4 4
S1 Cs1 Cs4 85.20(4) 3_455 4
Fe2 Cs1 Cs4 150.12(2) 3_445 4
Fe2 Cs1 Cs4 103.21(2) 4_545 4
Fe1 Cs1 Cs4 55.80(2) 4 4
Fe1 Cs1 Cs4 57.57(2) 3_455 4
S4 Cs1 Cs4 174.34(4) 2 4
S4 Cs1 Cs4 67.98(3) . 4
S3 Cs1 Cs4 68.71(4) 7_556 4
S3 Cs1 Cs4 74.42(4) 8_455 4
Cs2 Cs1 Cs4 121.219(15) . 4
Cs2 Cs1 Cs4 55.584(13) 2 4
Cs4 Cs1 Cs4 126.086(16) 2 4
Cs4 Cs1 Cs4 49.690(11) . 4
Fe1 Cs1 Cs4 125.823(15) 3_445 4
Fe1 Cs1 Cs4 124.628(15) 4_545 4
Fe2 Cs1 Cs4 38.281(14) 4 4
Fe2 Cs1 Cs4 68.387(16) 3_455 4
Cs3 Cs1 Cs4 142.360(14) 2 4
Cs3 Cs1 Cs4 36.241(8) . 4
Cs4 Cs1 Cs4 87.505(9) 7_556 4
Cs4 Cs1 Cs4 90.962(9) 8_455 4
Cs2 Cs1 Cs4 89.340(8) 6 4
Cs2 Cs1 Cs4 145.059(8) 5_556 4
Cs3 Cs1 Cs4 146.147(8) 3_445 4
Cs3 Cs1 Cs4 89.471(8) 4_545 4
Cs3 Cs1 Cs4 33.802(8) 4 4
Cs3 Cs1 Cs4 89.715(11) 3_455 4
Cs2 Cs1 Cs4 88.698(11) 5_566 4
Cs2 Cs1 Cs4 34.772(8) 6_565 4
Cs3 Cs1 Cs4 111.566(7) 5 4
Cs3 Cs1 Cs4 109.442(7) 6_556 4
Cs3 Cs1 Cs4 66.764(8) 6_566 4
Cs3 Cs1 Cs4 68.819(8) 5_565 4
Cs4 Cs1 Cs4 177.513(12) 3_445 4
Cs4 Cs1 Cs4 70.848(6) 4_545 4
Fe2 Cs1 Cs4 65.435(11) 8_455 4
Fe2 Cs1 Cs4 121.567(12) 7_556 4
S2 Cs1 Cs4 119.71(4) 3_445 3_455
S2 Cs1 Cs4 121.13(4) 4_545 3_455
S1 Cs1 Cs4 85.20(4) 4 3_455
S1 Cs1 Cs4 21.53(3) 3_455 3_455
Fe2 Cs1 Cs4 103.21(2) 3_445 3_455
Fe2 Cs1 Cs4 150.12(2) 4_545 3_455
Fe1 Cs1 Cs4 57.57(2) 4 3_455
Fe1 Cs1 Cs4 55.80(2) 3_455 3_455
S4 Cs1 Cs4 67.98(3) 2 3_455
S4 Cs1 Cs4 174.34(4) . 3_455
S3 Cs1 Cs4 74.42(4) 7_556 3_455
S3 Cs1 Cs4 68.71(4) 8_455 3_455
Cs2 Cs1 Cs4 55.584(13) . 3_455
Cs2 Cs1 Cs4 121.219(15) 2 3_455
Cs4 Cs1 Cs4 49.690(11) 2 3_455
Cs4 Cs1 Cs4 126.086(16) . 3_455
Fe1 Cs1 Cs4 124.628(15) 3_445 3_455
Fe1 Cs1 Cs4 125.823(15) 4_545 3_455
Fe2 Cs1 Cs4 68.387(16) 4 3_455
Fe2 Cs1 Cs4 38.281(14) 3_455 3_455
Cs3 Cs1 Cs4 36.241(8) 2 3_455
Cs3 Cs1 Cs4 142.360(14) . 3_455
Cs4 Cs1 Cs4 90.962(9) 7_556 3_455
Cs4 Cs1 Cs4 87.505(9) 8_455 3_455
Cs2 Cs1 Cs4 145.059(8) 6 3_455
Cs2 Cs1 Cs4 89.340(8) 5_556 3_455
Cs3 Cs1 Cs4 89.471(8) 3_445 3_455
Cs3 Cs1 Cs4 146.147(8) 4_545 3_455
Cs3 Cs1 Cs4 89.715(11) 4 3_455
Cs3 Cs1 Cs4 33.802(8) 3_455 3_455
Cs2 Cs1 Cs4 34.772(8) 5_566 3_455
Cs2 Cs1 Cs4 88.698(11) 6_565 3_455
Cs3 Cs1 Cs4 109.442(8) 5 3_455
Cs3 Cs1 Cs4 111.566(7) 6_556 3_455
Cs3 Cs1 Cs4 68.819(8) 6_566 3_455
Cs3 Cs1 Cs4 66.764(8) 5_565 3_455
Cs4 Cs1 Cs4 70.848(6) 3_445 3_455
Cs4 Cs1 Cs4 177.513(12) 4_545 3_455
Fe2 Cs1 Cs4 121.567(12) 8_455 3_455
Fe2 Cs1 Cs4 65.435(11) 7_556 3_455
Cs4 Cs1 Cs4 106.665(13) 4 3_455
S3 Cs2 S4 122.62(6) 7_556 2
S3 Cs2 S2 150.11(6) 7_556 8_456
S4 Cs2 S2 87.21(5) 2 8_456
S3 Cs2 S1 89.61(5) 7_556 7_556
S4 Cs2 S1 147.66(5) 2 7_556
S2 Cs2 S1 60.74(5) 8_456 7_556
S3 Cs2 Fe2 115.53(5) 7_556 7_556
S4 Cs2 Fe2 117.09(5) 2 7_556
S2 Cs2 Fe2 37.53(4) 8_456 7_556
S1 Cs2 Fe2 37.51(4) 7_556 7_556
S3 Cs2 S4 102.16(5) 7_556 6_556
S4 Cs2 S4 107.53(5) 2 6_556
S2 Cs2 S4 62.81(5) 8_456 6_556
S1 Cs2 S4 63.38(5) 7_556 6_556
Fe2 Cs2 S4 35.19(4) 7_556 6_556
S3 Cs2 Fe1 119.28(5) 7_556 8_456
S4 Cs2 Fe1 113.78(4) 2 8_456
S2 Cs2 Fe1 36.42(4) 8_456 8_456
S1 Cs2 Fe1 36.33(4) 7_556 8_456
Fe2 Cs2 Fe1 44.24(3) 7_556 8_456
S4 Cs2 Fe1 79.43(4) 6_556 8_456
S3 Cs2 Cs1 61.92(4) 7_556 .
S4 Cs2 Cs1 60.74(4) 2 .
S2 Cs2 Cs1 147.95(4) 8_456 .
S1 Cs2 Cs1 151.08(4) 7_556 .
Fe2 Cs2 Cs1 159.54(3) 7_556 .
S4 Cs2 Cs1 124.38(4) 6_556 .
Fe1 Cs2 Cs1 156.12(3) 8_456 .
S3 Cs2 S1 61.68(5) 7_556 3_455
S4 Cs2 S1 84.96(5) 2 3_455
S2 Cs2 S1 129.90(5) 8_456 3_455
S1 Cs2 S1 111.41(4) 7_556 3_455
Fe2 Cs2 S1 146.85(4) 7_556 3_455
S4 Cs2 S1 163.65(5) 6_556 3_455
Fe1 Cs2 S1 105.61(4) 8_456 3_455
Cs1 Cs2 S1 52.27(3) . 3_455
S3 Cs2 Cs3 138.13(4) 7_556 2
S4 Cs2 Cs3 52.78(4) 2 2
S2 Cs2 Cs3 59.75(4) 8_456 2
S1 Cs2 Cs3 102.42(4) 7_556 2
Fe2 Cs2 Cs3 96.62(3) 7_556 2
S4 Cs2 Cs3 119.18(4) 6_556 2
Fe1 Cs2 Cs3 66.37(2) 8_456 2
Cs1 Cs2 Cs3 96.569(16) . 2
S1 Cs2 Cs3 76.67(3) 3_455 2
S3 Cs2 S3 111.01(4) 7_556 3_455
S4 Cs2 S3 102.10(5) 2 3_455
S2 Cs2 S3 58.64(5) 8_456 3_455
S1 Cs2 S3 58.98(5) 7_556 3_455
Fe2 Cs2 S3 76.29(4) 7_556 3_455
S4 Cs2 S3 111.47(5) 6_556 3_455
Fe1 Cs2 S3 32.05(4) 8_456 3_455
Cs1 Cs2 S3 124.09(4) . 3_455
S1 Cs2 S3 74.91(5) 3_455 3_455
Cs3 Cs2 S3 49.44(3) 2 3_455
S3 Cs2 S2 83.76(5) 7_556 4_545
S4 Cs2 S2 58.28(5) 2 4_545
S2 Cs2 S2 114.47(4) 8_456 4_545
S1 Cs2 S2 136.70(5) 7_556 4_545
Fe2 Cs2 S2 109.87(4) 7_556 4_545
S4 Cs2 S2 76.31(5) 6_556 4_545
Fe1 Cs2 S2 149.68(4) 8_456 4_545
Cs1 Cs2 S2 50.48(3) . 4_545
S1 Cs2 S2 102.75(4) 3_455 4_545
Cs3 Cs2 S2 110.88(3) 2 4_545
S3 Cs2 S2 160.32(5) 3_455 4_545
S3 Cs2 Cs4 50.86(4) 7_556 7_556
S4 Cs2 Cs4 133.53(4) 2 7_556
S2 Cs2 Cs4 108.58(4) 8_456 7_556
S1 Cs2 Cs4 67.37(4) 7_556 7_556
Fe2 Cs2 Cs4 71.47(2) 7_556 7_556
S4 Cs2 Cs4 51.34(4) 6_556 7_556
Fe1 Cs2 Cs4 102.79(3) 8_456 7_556
Cs1 Cs2 Cs4 95.284(15) . 7_556
S1 Cs2 Cs4 112.40(3) 3_455 7_556
Cs3 Cs2 Cs4 168.00(2) 2 7_556
S3 Cs2 Cs4 123.66(4) 3_455 7_556
S2 Cs2 Cs4 75.61(3) 4_545 7_556
S3 Cs2 Cs2 128.77(5) 7_556 5_556
S4 Cs2 Cs2 55.89(4) 2 5_556
S2 Cs2 Cs2 64.10(4) 8_456 5_556
S1 Cs2 Cs2 107.80(4) 7_556 5_556
Fe2 Cs2 Cs2 70.42(3) 7_556 5_556
S4 Cs2 Cs2 51.64(4) 6_556 5_556
Fe1 Cs2 Cs2 99.92(3) 8_456 5_556
Cs1 Cs2 Cs2 95.07(2) . 5_556
S1 Cs2 Cs2 139.55(4) 3_455 5_556
Cs3 Cs2 Cs2 85.75(2) 2 5_556
S3 Cs2 Cs2 119.35(4) 3_455 5_556
S2 Cs2 Cs2 50.37(3) 4_545 5_556
Cs4 Cs2 Cs2 91.37(2) 7_556 5_556
S3 Cs2 Cs2 63.43(4) 7_556 5_566
S4 Cs2 Cs2 128.83(4) 2 5_566
S2 Cs2 Cs2 100.78(4) 8_456 5_566
S1 Cs2 Cs2 60.06(4) 7_556 5_566
Fe2 Cs2 Cs2 96.53(3) 7_556 5_566
S4 Cs2 Cs2 121.15(4) 6_556 5_566
Fe1 Cs2 Cs2 64.83(2) 8_456 5_566
Cs1 Cs2 Cs2 99.48(2) . 5_566
S1 Cs2 Cs2 51.35(3) 3_455 5_566
Cs3 Cs2 Cs2 88.04(2) 2 5_566
S3 Cs2 Cs2 47.58(3) 3_455 5_566
S2 Cs2 Cs2 144.69(4) 4_545 5_566
Cs4 Cs2 Cs2 91.83(2) 7_556 5_566
Cs2 Cs2 Cs2 164.74(3) 5_556 5_566
S3 Cs2 Fe1 29.92(4) 7_556 4
S4 Cs2 Fe1 105.53(4) 2 4
S2 Cs2 Fe1 152.19(4) 8_456 4
S1 Cs2 Fe1 102.04(4) 7_556 4
Fe2 Cs2 Fe1 137.35(3) 7_556 4
S4 Cs2 Fe1 132.06(4) 6_556 4
Fe1 Cs2 Fe1 116.77(3) 8_456 4
Cs1 Cs2 Fe1 50.73(2) . 4
S1 Cs2 Fe1 31.76(4) 3_455 4
Cs3 Cs2 Fe1 108.36(2) 2 4
S3 Cs2 Fe1 94.12(4) 3_455 4
S2 Cs2 Fe1 93.10(4) 4_545 4
Cs4 Cs2 Fe1 80.73(2) 7_556 4
Cs2 Cs2 Fe1 143.31(3) 5_556 4
Cs2 Cs2 Fe1 51.94(2) 5_566 4
S3 Cs2 Fe2 103.94(4) 7_556 3_445
S4 Cs2 Fe2 28.01(4) 2 3_445
S2 Cs2 Fe2 102.84(4) 8_456 3_445
S1 Cs2 Fe2 155.98(4) 7_556 3_445
Fe2 Cs2 Fe2 118.75(3) 7_556 3_445
S4 Cs2 Fe2 94.04(4) 6_556 3_445
Fe1 Cs2 Fe2 136.74(3) 8_456 3_445
Cs1 Cs2 Fe2 48.65(2) . 3_445
S1 Cs2 Fe2 92.54(4) 3_455 3_445
Cs3 Cs2 Fe2 80.77(2) 2 3_445
S3 Cs2 Fe2 130.09(4) 3_455 3_445
S2 Cs2 Fe2 30.35(3) 4_545 3_445
Cs4 Cs2 Fe2 105.91(2) 7_556 3_445
Cs2 Cs2 Fe2 48.33(2) 5_556 3_445
Cs2 Cs2 Fe2 143.86(3) 5_566 3_445
Fe1 Cs2 Fe2 99.38(3) 4 3_445
S3 Cs2 Cs4 99.58(4) 7_556 2
S4 Cs2 Cs4 37.82(4) 2 2
S2 Cs2 Cs4 106.71(4) 8_456 2
S1 Cs2 Cs4 143.60(4) 7_556 2
Fe2 Cs2 Cs4 144.17(3) 7_556 2
S4 Cs2 Cs4 145.29(4) 6_556 2
Fe1 Cs2 Cs4 112.49(3) 8_456 2
Cs1 Cs2 Cs4 47.602(10) . 2
S1 Cs2 Cs4 47.64(3) 3_455 2
Cs3 Cs2 Cs4 49.108(13) 2 2
S3 Cs2 Cs4 85.00(3) 3_455 2
S2 Cs2 Cs4 79.56(3) 4_545 2
Cs4 Cs2 Cs4 142.833(19) 7_556 2
Cs2 Cs2 Cs4 93.68(2) 5_556 2
Cs2 Cs2 Cs4 92.76(2) 5_566 2
Fe1 Cs2 Cs4 73.42(2) 4 2
Fe2 Cs2 Cs4 54.334(19) 3_445 2
S3 Cs2 Fe1 105.42(4) 7_556 7_556
S4 Cs2 Fe1 131.96(4) 2 7_556
S2 Cs2 Fe1 44.78(4) 8_456 7_556
S1 Cs2 Fe1 16.11(4) 7_556 7_556
Fe2 Cs2 Fe1 25.40(2) 7_556 7_556
S4 Cs2 Fe1 57.70(4) 6_556 7_556
Fe1 Cs2 Fe1 26.93(3) 8_456 7_556
Cs1 Cs2 Fe1 167.18(2) . 7_556
S1 Cs2 Fe1 121.51(4) 3_455 7_556
Cs3 Cs2 Fe1 92.152(19) 2 7_556
S3 Cs2 Fe1 56.44(4) 3_455 7_556
S2 Cs2 Fe1 134.00(4) 4_545 7_556
Cs4 Cs2 Fe1 76.474(18) 7_556 7_556
Cs2 Cs2 Fe1 94.93(2) 5_556 7_556
Cs2 Cs2 Fe1 71.37(2) 5_566 7_556
Fe1 Cs2 Fe1 117.421(19) 4 7_556
Fe2 Cs2 Fe1 142.76(2) 3_445 7_556
Cs4 Cs2 Fe1 139.418(19) 2 7_556
S3 Cs2 Fe2 134.30(4) 7_556 8_456
S4 Cs2 Fe2 103.03(4) 2 8_456
S2 Cs2 Fe2 15.82(4) 8_456 8_456
S1 Cs2 Fe2 45.01(4) 7_556 8_456
Fe2 Cs2 Fe2 25.90(3) 7_556 8_456
S4 Cs2 Fe2 57.86(4) 6_556 8_456
Fe1 Cs2 Fe2 26.76(2) 8_456 8_456
Cs1 Cs2 Fe2 163.77(2) . 8_456
S1 Cs2 Fe2 130.80(4) 3_455 8_456
Cs3 Cs2 Fe2 71.148(18) 2 8_456
S3 Cs2 Fe2 55.89(3) 3_455 8_456
S2 Cs2 Fe2 122.95(4) 4_545 8_456
Cs4 Cs2 Fe2 96.863(19) 7_556 8_456
Cs2 Cs2 Fe2 73.94(2) 5_556 8_456
Cs2 Cs2 Fe2 90.86(2) 5_566 8_456
Fe1 Cs2 Fe2 142.34(3) 4 8_456
Fe2 Cs2 Fe2 117.117(19) 3_445 8_456
Cs4 Cs2 Fe2 119.909(18) 2 8_456
Fe1 Cs2 Fe2 28.986(18) 7_556 8_456
S3 Cs2 Cs3 86.61(4) 7_556 6_556
S4 Cs2 Cs3 90.49(4) 2 6_556
S2 Cs2 Cs3 91.72(4) 8_456 6_556
S1 Cs2 Cs3 94.42(4) 7_556 6_556
Fe2 Cs2 Cs3 70.41(2) 7_556 6_556
S4 Cs2 Cs3 35.25(3) 6_556 6_556
Fe1 Cs2 Cs3 114.60(2) 8_456 6_556
Cs1 Cs2 Cs3 89.142(16) . 6_556
S1 Cs2 Cs3 137.66(3) 3_455 6_556
Cs3 Cs2 Cs3 131.163(16) 2 6_556
S3 Cs2 Cs3 146.55(3) 3_455 6_556
S2 Cs2 Cs3 42.61(3) 4_545 6_556
Cs4 Cs2 Cs3 47.119(12) 7_556 6_556
Cs2 Cs2 Cs3 45.410(16) 5_556 6_556
Cs2 Cs2 Cs3 138.82(2) 5_566 6_556
Fe1 Cs2 Cs3 112.36(2) 4 6_556
Fe2 Cs2 Cs3 67.21(2) 3_445 6_556
Cs4 Cs2 Cs3 121.063(15) 2 6_556
Fe1 Cs2 Cs3 92.179(17) 7_556 6_556
Fe2 Cs2 Cs3 91.256(17) 8_456 6_556
S3 Cs2 Cs4 33.60(4) 7_556 .
S4 Cs2 Cs4 97.35(4) 2 .
S2 Cs2 Cs4 153.84(4) 8_456 .
S1 Cs2 Cs4 113.28(4) 7_556 .
Fe2 Cs2 Cs4 121.08(3) 7_556 .
S4 Cs2 Cs4 91.40(4) 6_556 .
Fe1 Cs2 Cs4 148.88(3) 8_456 .
Cs1 Cs2 Cs4 44.505(9) . .
S1 Cs2 Cs4 76.25(3) 3_455 .
Cs3 Cs2 Cs4 141.052(18) 2 .
S3 Cs2 Cs4 143.37(4) 3_455 .
S2 Cs2 Cs4 50.15(3) 4_545 .
Cs4 Cs2 Cs4 50.867(14) 7_556 .
Cs2 Cs2 Cs4 97.26(2) 5_556 .
Cs2 Cs2 Cs4 96.330(18) 5_566 .
Fe1 Cs2 Cs4 50.506(18) 4 .
Fe2 Cs2 Cs4 73.038(19) 3_445 .
Cs4 Cs2 Cs4 91.966(13) 2 .
Fe1 Cs2 Cs4 125.964(18) 7_556 .
Fe2 Cs2 Cs4 146.980(19) 8_456 .
Cs3 Cs2 Cs4 62.612(11) 6_556 .
S3 Cs2 Cs3 31.79(4) 7_556 6_566
S4 Cs2 Cs3 152.42(4) 2 6_566
S2 Cs2 Cs3 119.28(4) 8_456 6_566
S1 Cs2 Cs3 58.64(3) 7_556 6_566
Fe2 Cs2 Cs3 90.26(2) 7_556 6_566
S4 Cs2 Cs3 92.61(4) 6_556 6_566
Fe1 Cs2 Cs3 87.85(2) 8_456 6_566
Cs1 Cs2 Cs3 92.461(15) . 6_566
S1 Cs2 Cs3 72.31(3) 3_455 6_566
Cs3 Cs2 Cs3 132.038(17) 2 6_566
S3 Cs2 Cs3 87.17(4) 3_455 6_566
S2 Cs2 Cs3 111.02(3) 4_545 6_566
Cs4 Cs2 Cs3 48.998(12) 7_556 6_566
Cs2 Cs2 Cs3 140.21(2) 5_556 6_566
Cs2 Cs2 Cs3 43.995(14) 5_566 6_566
Fe1 Cs2 Cs3 47.385(19) 4 6_566
Fe2 Cs2 Cs3 135.36(2) 3_445 6_566
Cs4 Cs2 Cs3 119.387(15) 2 6_566
Fe1 Cs2 Cs3 74.722(16) 7_556 6_566
Fe2 Cs2 Cs3 103.637(17) 8_456 6_566
Cs3 Cs2 Cs3 95.849(12) 6_556 6_566
Cs4 Cs2 Cs3 62.705(10) . 6_566
S3 Cs2 Fe1 54.44(4) 7_556 3_455
S4 Cs2 Fe1 79.79(4) 2 3_455
S2 Cs2 Fe1 144.47(4) 8_456 3_455
S1 Cs2 Fe1 123.33(4) 7_556 3_455
Fe2 Cs2 Fe1 160.82(3) 7_556 3_455
S4 Cs2 Fe1 152.73(4) 6_556 3_455
Fe1 Cs2 Fe1 122.53(2) 8_456 3_455
Cs1 Cs2 Fe1 36.054(17) . 3_455
S1 Cs2 Fe1 16.97(3) 3_455 3_455
Cs3 Cs2 Fe1 86.511(19) 2 3_455
S3 Cs2 Fe1 91.83(4) 3_455 3_455
S2 Cs2 Fe1 86.37(3) 4_545 3_455
Cs4 Cs2 Fe1 104.263(18) 7_556 3_455
Cs2 Cs2 Fe1 128.76(2) 5_556 3_455
Cs2 Cs2 Fe1 64.577(19) 5_566 3_455
Fe1 Cs2 Fe1 26.97(3) 4 3_455
Fe2 Cs2 Fe1 80.43(2) 3_445 3_455
Cs4 Cs2 Fe1 46.482(15) 2 3_455
Fe1 Cs2 Fe1 135.947(16) 7_556 3_455
Fe2 Cs2 Fe1 147.65(2) 8_456 3_455
Cs3 Cs2 Fe1 121.069(17) 6_556 3_455
Cs4 Cs2 Fe1 61.392(15) . 3_455
Cs3 Cs2 Fe1 73.935(16) 6_566 3_455
S3 Cs2 Fe2 54.00(4) 7_556 3_455
S4 Cs2 Fe2 100.17(4) 2 3_455
S2 Cs2 Fe2 128.32(4) 8_456 3_455
S1 Cs2 Fe2 97.05(4) 7_556 3_455
Fe2 Cs2 Fe2 133.90(2) 7_556 3_455
S4 Cs2 Fe2 150.98(4) 6_556 3_455
Fe1 Cs2 Fe2 97.42(3) 8_456 3_455
Cs1 Cs2 Fe2 63.070(19) . 3_455
S1 Cs2 Fe2 15.34(3) 3_455 3_455
Cs3 Cs2 Fe2 84.538(19) 2 3_455
S3 Cs2 Fe2 69.85(4) 3_455 3_455
S2 Cs2 Fe2 112.59(3) 4_545 3_455
Cs4 Cs2 Fe2 102.551(18) 7_556 3_455
Cs2 Cs2 Fe2 154.75(3) 5_556 3_455
Cs2 Cs2 Fe2 37.369(17) 5_566 3_455
Fe1 Cs2 Fe2 26.31(2) 4 3_455
Fe2 Cs2 Fe2 106.97(3) 3_445 3_455
Cs4 Cs2 Fe2 62.585(16) 2 3_455
Fe1 Cs2 Fe2 108.67(2) 7_556 3_455
Fe2 Cs2 Fe2 124.09(2) 8_456 3_455
Cs3 Cs2 Fe2 138.655(17) 6_556 3_455
Cs4 Cs2 Fe2 76.385(15) . 3_455
Cs3 Cs2 Fe2 58.370(15) 6_566 3_455
Fe1 Cs2 Fe2 27.336(17) 3_455 3_455
S3 Cs2 Cs1 138.39(4) 7_556 5_556
S4 Cs2 Cs1 85.32(4) 2 5_556
S2 Cs2 Cs1 31.02(4) 8_456 5_556
S1 Cs2 Cs1 69.58(4) 7_556 5_556
Fe2 Cs2 Cs1 32.58(2) 7_556 5_556
S4 Cs2 Cs1 36.45(4) 6_556 5_556
Fe1 Cs2 Cs1 62.05(2) 8_456 5_556
Cs1 Cs2 Cs1 135.120(17) . 5_556
S1 Cs2 Cs1 159.12(3) 3_455 5_556
Cs3 Cs2 Cs1 82.740(13) 2 5_556
S3 Cs2 Cs1 89.15(3) 3_455 5_556
S2 Cs2 Cs1 87.66(3) 4_545 5_556
Cs4 Cs2 Cs1 87.561(13) 7_556 5_556
Cs2 Cs2 Cs1 40.051(13) 5_556 5_556
Cs2 Cs2 Cs1 125.24(2) 5_566 5_556
Fe1 Cs2 Cs1 167.67(2) 4 5_556
Fe2 Cs2 Cs1 87.47(2) 3_445 5_556
Cs4 Cs2 Cs1 118.756(13) 2 5_556
Fe1 Cs2 Cs1 55.316(15) 7_556 5_556
Fe2 Cs2 Cs1 35.295(14) 8_456 5_556
Cs3 Cs2 Cs1 60.815(10) 6_556 5_556
Cs4 Cs2 Cs1 123.381(14) . 5_556
Cs3 Cs2 Cs1 121.105(12) 6_566 5_556
Fe1 Cs2 Cs1 164.960(18) 3_455 5_556
Fe2 Cs2 Cs1 158.948(18) 3_455 5_556
S3 Cs2 Fe2 78.09(4) 7_556 4_545
S4 Cs2 Fe2 52.70(4) 2 4_545
S2 Cs2 Fe2 125.82(4) 8_456 4_545
S1 Cs2 Fe2 150.83(4) 7_556 4_545
Fe2 Cs2 Fe2 126.80(2) 7_556 4_545
S4 Cs2 Fe2 93.19(4) 6_556 4_545
Fe1 Cs2 Fe2 162.10(3) 8_456 4_545
Cs1 Cs2 Fe2 33.920(17) . 4_545
S1 Cs2 Fe2 86.03(3) 3_455 4_545
Cs3 Cs2 Fe2 104.355(19) 2 4_545
S3 Cs2 Fe2 150.19(4) 3_455 4_545
S2 Cs2 Fe2 16.99(3) 4_545 4_545
Cs4 Cs2 Fe2 84.598(18) 7_556 4_545
Cs2 Cs2 Fe2 63.262(19) 5_556 4_545
Cs2 Cs2 Fe2 131.92(2) 5_566 4_545
Fe1 Cs2 Fe2 80.28(2) 4 4_545
Fe2 Cs2 Fe2 26.67(3) 3_445 4_545
Cs4 Cs2 Fe2 65.292(16) 2 4_545
Fe1 Cs2 Fe2 150.89(2) 7_556 4_545
Fe2 Cs2 Fe2 137.203(16) 8_456 4_545
Cs3 Cs2 Fe2 58.890(15) 6_556 4_545
Cs4 Cs2 Fe2 46.376(14) . 4_545
Cs3 Cs2 Fe2 108.914(16) 6_566 4_545
Fe1 Cs2 Fe2 69.972(18) 3_455 4_545
Fe2 Cs2 Fe2 96.808(11) 3_455 4_545
Cs1 Cs2 Fe2 102.552(17) 5_556 4_545
S3 Cs2 Cs4 151.48(4) 7_556 3_445
S4 Cs2 Cs4 29.19(4) 2 3_445
S2 Cs2 Cs4 58.13(4) 8_456 3_445
S1 Cs2 Cs4 118.84(4) 7_556 3_445
Fe2 Cs2 Cs4 89.25(2) 7_556 3_445
S4 Cs2 Cs4 90.07(4) 6_556 3_445
Fe1 Cs2 Cs4 88.06(2) 8_456 3_445
Cs1 Cs2 Cs4 89.865(15) . 3_445
S1 Cs2 Cs4 105.48(3) 3_455 3_445
Cs3 Cs2 Cs4 42.765(12) 2 3_445
S3 Cs2 Cs4 87.51(3) 3_455 3_445
S2 Cs2 Cs4 74.15(3) 4_545 3_445
Cs4 Cs2 Cs4 135.582(16) 7_556 3_445
Cs2 Cs2 Cs4 44.213(14) 5_556 3_445
Cs2 Cs2 Cs4 130.78(2) 5_566 3_445
Fe1 Cs2 Cs4 132.36(2) 4 3_445
Fe2 Cs2 Cs4 48.953(18) 3_445 3_445
Cs4 Cs2 Cs4 59.279(10) 2 3_445
Fe1 Cs2 Cs4 102.901(17) 7_556 3_445
Fe2 Cs2 Cs4 73.918(16) 8_456 3_445
Cs3 Cs2 Cs4 89.036(13) 6_556 3_445
Cs4 Cs2 Cs4 121.915(16) . 3_445
Cs3 Cs2 Cs4 174.618(15) 6_566 3_445
Fe1 Cs2 Cs4 105.453(17) 3_455 3_445
Fe2 Cs2 Cs4 118.790(17) 3_455 3_445
Cs1 Cs2 Cs4 59.587(9) 5_556 3_445
Fe2 Cs2 Cs4 75.564(16) 4_545 3_445
S3 Cs2 Cs4 97.03(4) 7_556 3_455
S4 Cs2 Cs4 87.93(4) 2 3_455
S2 Cs2 Cs4 84.90(4) 8_456 3_455
S1 Cs2 Cs4 85.17(4) 7_556 3_455
Fe2 Cs2 Cs4 107.42(2) 7_556 3_455
S4 Cs2 Cs4 142.60(4) 6_556 3_455
Fe1 Cs2 Cs4 63.18(2) 8_456 3_455
Cs1 Cs2 Cs4 92.977(16) . 3_455
S1 Cs2 Cs4 45.48(3) 3_455 3_455
Cs3 Cs2 Cs4 45.599(13) 2 3_455
S3 Cs2 Cs4 31.13(3) 3_455 3_455
S2 Cs2 Cs4 138.08(3) 4_545 3_455
Cs4 Cs2 Cs4 135.497(16) 7_556 3_455
Cs2 Cs2 Cs4 131.31(2) 5_556 3_455
Cs2 Cs2 Cs4 43.667(15) 5_566 3_455
Fe1 Cs2 Cs4 71.27(2) 4 3_455
Fe2 Cs2 Cs4 112.14(2) 3_445 3_455
Cs4 Cs2 Cs4 58.884(10) 2 3_455
Fe1 Cs2 Cs4 86.418(17) 7_556 3_455
Fe2 Cs2 Cs4 85.872(17) 8_456 3_455
Cs3 Cs2 Cs4 176.329(14) 6_556 3_455
Cs4 Cs2 Cs4 120.885(15) . 3_455
Cs3 Cs2 Cs4 87.060(13) 6_566 3_455
Fe1 Cs2 Cs4 61.884(15) 3_455 3_455
Fe2 Cs2 Cs4 44.971(14) 3_455 3_455
Cs1 Cs2 Cs4 115.724(12) 5_556 3_455
Fe2 Cs2 Cs4 122.246(17) 4_545 3_455
Cs4 Cs2 Cs4 87.973(12) 3_445 3_455
S3 Cs2 Fe1 97.53(4) 7_556 4_545
S4 Cs2 Fe1 50.60(4) 2 4_545
S2 Cs2 Fe1 101.17(4) 8_456 4_545
S1 Cs2 Fe1 134.94(4) 7_556 4_545
Fe2 Cs2 Fe1 102.10(3) 7_556 4_545
S4 Cs2 Fe1 71.63(4) 6_556 4_545
Fe1 Cs2 Fe1 137.21(2) 8_456 4_545
Cs1 Cs2 Fe1 59.900(19) . 4_545
S1 Cs2 Fe1 111.05(3) 3_455 4_545
Cs3 Cs2 Fe1 101.273(19) 2 4_545
S3 Cs2 Fe1 149.25(4) 3_455 4_545
S2 Cs2 Fe1 13.88(3) 4_545 4_545
Cs4 Cs2 Fe1 83.125(18) 7_556 4_545
Cs2 Cs2 Fe1 37.295(17) 5_556 4_545
Cs2 Cs2 Fe1 157.96(2) 5_566 4_545
Fe1 Cs2 Fe1 106.02(3) 4 4_545
Fe2 Cs2 Fe1 24.98(2) 3_445 4_545
Cs4 Cs2 Fe1 78.988(16) 2 4_545
Fe1 Cs2 Fe1 127.42(2) 7_556 4_545
Fe2 Cs2 Fe1 111.01(2) 8_456 4_545
Cs3 Cs2 Fe1 42.256(14) 6_556 4_545
Cs4 Cs2 Fe1 63.930(15) . 4_545
Cs3 Cs2 Fe1 123.570(17) 6_566 4_545
Fe1 Cs2 Fe1 95.796(11) 3_455 4_545
Fe2 Cs2 Fe1 122.970(19) 3_455 4_545
Cs1 Cs2 Fe1 76.138(15) 5_556 4_545
Fe2 Cs2 Fe1 26.417(17) 4_545 4_545
Cs4 Cs2 Fe1 61.742(15) 3_445 4_545
Cs4 Cs2 Fe1 137.116(17) 3_455 4_545
S3 Cs2 Cs3 83.37(4) 7_556 7_556
S4 Cs2 Cs3 142.64(4) 2 7_556
S2 Cs2 Cs3 69.57(4) 8_456 7_556
S1 Cs2 Cs3 32.28(3) 7_556 7_556
Fe2 Cs2 Cs3 32.36(2) 7_556 7_556
S4 Cs2 Cs3 35.99(4) 6_556 7_556
Fe1 Cs2 Cs3 62.85(2) 8_456 7_556
Cs1 Cs2 Cs3 136.908(15) . 7_556
S1 Cs2 Cs3 132.40(3) 3_455 7_556
Cs3 Cs2 Cs3 126.480(18) 2 7_556
S3 Cs2 Cs3 90.58(3) 3_455 7_556
S2 Cs2 Cs3 104.44(3) 4_545 7_556
Cs4 Cs2 Cs3 41.627(11) 7_556 7_556
Cs2 Cs2 Cs3 87.193(19) 5_556 7_556
Cs2 Cs2 Cs3 85.317(18) 5_566 7_556
Fe1 Cs2 Cs3 108.45(2) 4 7_556
Fe2 Cs2 Cs3 128.62(2) 3_445 7_556
Cs4 Cs2 Cs3 175.336(15) 2 7_556
Fe1 Cs2 Cs3 35.920(15) 7_556 7_556
Fe2 Cs2 Cs3 55.964(15) 8_456 7_556
Cs3 Cs2 Cs3 62.513(10) 6_556 7_556
Cs4 Cs2 Cs3 92.467(12) . 7_556
Cs3 Cs2 Cs3 61.713(9) 6_566 7_556
Fe1 Cs2 Cs3 135.395(18) 3_455 7_556
Fe2 Cs2 Cs3 117.183(17) 3_455 7_556
Cs1 Cs2 Cs3 59.574(9) 5_556 7_556
Fe2 Cs2 Cs3 119.048(18) 4_545 7_556
Cs4 Cs2 Cs3 119.150(13) 3_445 7_556
Cs4 Cs2 Cs3 117.330(14) 3_455 7_556
Fe1 Cs2 Cs3 104.297(17) 4_545 7_556
S3 Cs2 Cs1 89.09(4) 7_556 5_566
S4 Cs2 Cs1 137.31(4) 2 5_566
S2 Cs2 Cs1 66.59(4) 8_456 5_566
S1 Cs2 Cs1 27.51(3) 7_556 5_566
Fe2 Cs2 Cs1 59.79(2) 7_556 5_566
S4 Cs2 Cs1 90.33(4) 6_556 5_566
Fe1 Cs2 Cs1 30.64(2) 8_456 5_566
Cs1 Cs2 Cs1 137.231(17) . 5_566
S1 Cs2 Cs1 87.12(3) 3_455 5_566
Cs3 Cs2 Cs1 84.576(14) 2 5_566
S3 Cs2 Cs1 35.68(3) 3_455 5_566
S2 Cs2 Cs1 163.08(3) 4_545 5_566
Cs4 Cs2 Cs1 87.986(13) 7_556 5_566
Cs2 Cs2 Cs1 127.54(2) 5_556 5_566
Cs2 Cs2 Cs1 37.749(13) 5_566 5_566
Fe1 Cs2 Cs1 88.19(2) 4 5_566
Fe2 Cs2 Cs1 165.01(2) 3_445 5_566
Cs4 Cs2 Cs1 116.847(14) 2 5_566
Fe1 Cs2 Cs1 34.397(14) 7_556 5_566
Fe2 Cs2 Cs1 54.158(15) 8_456 5_566
Cs3 Cs2 Cs1 121.836(12) 6_556 5_566
Cs4 Cs2 Cs1 121.237(13) . 5_566
Cs3 Cs2 Cs1 58.539(9) 6_566 5_566
Fe1 Cs2 Cs1 101.902(17) 3_455 5_566
Fe2 Cs2 Cs1 74.572(15) 3_455 5_566
Cs1 Cs2 Cs1 87.560(8) 5_556 5_566
Fe2 Cs2 Cs1 167.154(17) 4_545 5_566
Cs4 Cs2 Cs1 116.814(12) 3_445 5_566
Cs4 Cs2 Cs1 57.978(9) 3_455 5_566
Fe1 Cs2 Cs1 161.695(17) 4_545 5_566
Cs3 Cs2 Cs1 59.372(9) 7_556 5_566
S3 Cs2 Cs3 145.55(4) 7_556 8_456
S4 Cs2 Cs3 81.73(4) 2 8_456
S2 Cs2 Cs3 28.71(4) 8_456 8_456
S1 Cs2 Cs3 68.11(3) 7_556 8_456
Fe2 Cs2 Cs3 61.42(2) 7_556 8_456
S4 Cs2 Cs3 91.20(4) 6_556 8_456
Fe1 Cs2 Cs3 32.16(2) 8_456 8_456
Cs1 Cs2 Cs3 133.355(14) . 8_456
S1 Cs2 Cs3 101.22(3) 3_455 8_456
Cs3 Cs2 Cs3 36.789(15) 2 8_456
S3 Cs2 Cs3 35.11(3) 3_455 8_456
S2 Cs2 Cs3 130.52(3) 4_545 8_456
Cs4 Cs2 Cs3 131.348(16) 7_556 8_456
Cs2 Cs2 Cs3 84.258(17) 5_556 8_456
Cs2 Cs2 Cs3 82.435(18) 5_566 8_456
Fe1 Cs2 Cs3 127.35(2) 4 8_456
Fe2 Cs2 Cs3 106.63(2) 3_445 8_456
Cs4 Cs2 Cs3 85.810(12) 2 8_456
Fe1 Cs2 Cs3 55.840(15) 7_556 8_456
Fe2 Cs2 Cs3 35.520(15) 8_456 8_456
Cs3 Cs2 Cs3 119.759(15) 6_556 8_456
Cs4 Cs2 Cs3 177.393(15) . 8_456
Cs3 Cs2 Cs3 117.306(15) 6_566 8_456
Fe1 Cs2 Cs3 116.012(17) 3_455 8_456
Fe2 Cs2 Cs3 101.349(17) 3_455 8_456
Cs1 Cs2 Cs3 59.045(9) 5_556 8_456
Fe2 Cs2 Cs3 133.287(17) 4_545 8_456
Cs4 Cs2 Cs3 57.936(9) 3_445 8_456
Cs4 Cs2 Cs3 56.721(10) 3_455 8_456
Fe1 Cs2 Cs3 116.855(16) 4_545 8_456
Cs3 Cs2 Cs3 89.723(11) 7_556 8_456
Cs1 Cs2 Cs3 58.886(9) 5_566 8_456
S3 Cs2 Cs4 66.48(4) 7_556 6_566
S4 Cs2 Cs4 170.31(4) 2 6_566
S2 Cs2 Cs4 83.87(4) 8_456 6_566
S1 Cs2 Cs4 23.14(3) 7_556 6_566
Fe2 Cs2 Cs4 56.49(2) 7_556 6_566
S4 Cs2 Cs4 71.59(4) 6_556 6_566
Fe1 Cs2 Cs4 56.55(2) 8_456 6_566
Cs1 Cs2 Cs4 128.065(16) . 6_566
S1 Cs2 Cs4 97.88(3) 3_455 6_566
Cs3 Cs2 Cs4 118.736(16) 2 6_566
S3 Cs2 Cs4 69.96(3) 3_455 6_566
S2 Cs2 Cs4 129.36(3) 4_545 6_566
Cs4 Cs2 Cs4 53.767(12) 7_556 6_566
Cs2 Cs2 Cs4 122.44(2) 5_556 6_566
Cs2 Cs2 Cs4 49.924(15) 5_566 6_566
Fe1 Cs2 Cs4 81.05(2) 4 6_566
Fe2 Cs2 Cs4 159.52(2) 3_445 6_566
Cs4 Cs2 Cs4 142.680(14) 2 6_566
Fe1 Cs2 Cs4 39.130(14) 7_556 6_566
Fe2 Cs2 Cs4 68.108(16) 8_456 6_566
Cs3 Cs2 Cs4 93.531(11) 6_556 6_566
Cs4 Cs2 Cs4 92.329(12) . 6_566
Cs3 Cs2 Cs4 35.652(8) 6_566 6_566
Fe1 Cs2 Cs4 105.482(17) 3_455 6_566
Fe2 Cs2 Cs4 82.551(16) 3_455 6_566
Cs1 Cs2 Cs4 88.950(10) 5_556 6_566
Fe2 Cs2 Cs4 136.528(17) 4_545 6_566
Cs4 Cs2 Cs4 141.979(14) 3_445 6_566
Cs4 Cs2 Cs4 87.525(9) 3_455 6_566
Fe1 Cs2 Cs4 135.149(17) 4_545 6_566
Cs3 Cs2 Cs4 35.601(8) 7_556 6_566
Cs1 Cs2 Cs4 34.320(6) 5_566 6_566
Cs3 Cs2 Cs4 88.628(11) 8_456 6_566
S3 Cs2 Fe2 34.88(4) 7_556 4
S4 Cs2 Fe2 101.67(4) 2 4
S2 Cs2 Fe2 150.49(4) 8_456 4
S1 Cs2 Fe2 104.72(4) 7_556 4
Fe2 Cs2 Fe2 140.96(3) 7_556 4
S4 Cs2 Fe2 137.04(4) 6_556 4
Fe1 Cs2 Fe2 116.43(3) 8_456 4
Cs1 Cs2 Fe2 49.026(17) . 4
S1 Cs2 Fe2 26.85(3) 3_455 4
Cs3 Cs2 Fe2 103.507(18) 2 4
S3 Cs2 Fe2 91.88(4) 3_455 4
S2 Cs2 Fe2 93.79(3) 4_545 4
Cs4 Cs2 Fe2 85.718(16) 7_556 4
Cs2 Cs2 Fe2 143.30(2) 5_556 4
Cs2 Cs2 Fe2 51.881(17) 5_566 4
Fe1 Cs2 Fe2 5.03(2) 4 4
Fe2 Cs2 Fe2 97.484(12) 3_445 4
Cs4 Cs2 Fe2 68.701(14) 2 4
Fe1 Cs2 Fe2 119.66(2) 7_556 4
Fe2 Cs2 Fe2 142.745(15) 8_456 4
Cs3 Cs2 Fe2 116.006(15) 6_556 4
Cs4 Cs2 Fe2 53.631(13) . 4
Cs3 Cs2 Fe2 51.607(13) 6_566 4
Fe1 Cs2 Fe2 22.392(16) 3_455 4
Fe2 Cs2 Fe2 22.76(2) 3_455 4
Cs1 Cs2 Fe2 172.539(15) 5_556 4
Fe2 Cs2 Fe2 80.044(16) 4_545 4
Cs4 Cs2 Fe2 127.835(16) 3_445 4
Cs4 Cs2 Fe2 67.585(14) 3_455 4
Fe1 Cs2 Fe2 106.207(18) 4_545 4
Cs3 Cs2 Fe2 113.015(15) 7_556 4
Cs1 Cs2 Fe2 88.969(14) 5_566 4
Cs3 Cs2 Fe2 124.104(16) 8_456 4
Cs4 Cs2 Fe2 84.468(14) 6_566 4
S3 Cs2 Cs4 104.33(4) 7_556 6_556
S4 Cs2 Cs4 105.53(4) 2 6_556
S2 Cs2 Cs4 61.25(4) 8_456 6_556
S1 Cs2 Cs4 64.41(4) 7_556 6_556
Fe2 Cs2 Cs4 34.94(2) 7_556 6_556
S4 Cs2 Cs4 2.30(4) 6_556 6_556
Fe1 Cs2 Cs4 79.10(2) 8_456 6_556
Cs1 Cs2 Cs4 124.602(18) . 6_556
S1 Cs2 Cs4 165.90(3) 3_455 6_556
Cs3 Cs2 Cs4 117.108(16) 2 6_556
S3 Cs2 Cs4 111.09(3) 3_455 6_556
S2 Cs2 Cs4 75.93(3) 4_545 6_556
Cs4 Cs2 Cs4 53.535(12) 7_556 6_556
Cs2 Cs2 Cs4 49.658(15) 5_556 6_556
Cs2 Cs2 Cs4 122.72(2) 5_566 6_556
Fe1 Cs2 Cs4 134.25(2) 4 6_556
Fe2 Cs2 Cs4 92.73(2) 3_445 6_556
Cs4 Cs2 Cs4 143.341(13) 2 6_556
Fe1 Cs2 Cs4 58.083(15) 7_556 6_556
Fe2 Cs2 Cs4 56.883(15) 8_456 6_556
Cs3 Cs2 Cs4 35.501(9) 6_556 6_556
Cs4 Cs2 Cs4 92.830(12) . 6_556
Cs3 Cs2 Cs4 94.873(11) 6_566 6_556
Fe1 Cs2 Cs4 154.221(17) 3_455 6_556
Fe2 Cs2 Cs4 153.224(17) 3_455 6_556
Cs1 Cs2 Cs4 34.370(6) 5_556 6_556
Fe2 Cs2 Cs4 92.870(16) 4_545 6_556
Cs4 Cs2 Cs4 87.785(9) 3_445 6_556
Cs4 Cs2 Cs4 142.148(14) 3_455 6_556
Fe1 Cs2 Cs4 70.728(15) 4_545 6_556
Cs3 Cs2 Cs4 37.764(9) 7_556 6_556
Cs1 Cs2 Cs4 91.125(10) 5_566 6_556
Cs3 Cs2 Cs4 89.767(11) 8_456 6_556
Cs4 Cs2 Cs4 73.352(9) 6_566 6_556
Fe2 Cs2 Cs4 139.210(15) 4 6_556
S3 Cs2 Cs3 4.92(4) 7_556 4
S4 Cs2 Cs3 120.33(4) 2 4
S2 Cs2 Cs3 152.31(4) 8_456 4
S1 Cs2 Cs3 91.58(4) 7_556 4
Fe2 Cs2 Cs3 119.35(2) 7_556 4
S4 Cs2 Cs3 107.07(4) 6_556 4
Fe1 Cs2 Cs3 119.30(2) 8_456 4
Cs1 Cs2 Cs3 59.637(12) . 4
S1 Cs2 Cs3 56.76(3) 3_455 4
Cs3 Cs2 Cs3 133.234(19) 2 4
S3 Cs2 Cs3 108.30(3) 3_455 4
S2 Cs2 Cs3 85.39(3) 4_545 4
Cs4 Cs2 Cs3 55.752(12) 7_556 4
Cs2 Cs2 Cs3 132.06(2) 5_556 4
Cs2 Cs2 Cs3 60.851(15) 5_566 4
Fe1 Cs2 Cs3 25.010(18) 4 4
Fe2 Cs2 Cs3 103.583(19) 3_445 4
Cs4 Cs2 Cs3 95.357(12) 2 4
Fe1 Cs2 Cs3 107.581(17) 7_556 4
Fe2 Cs2 Cs3 136.566(18) 8_456 4
Cs3 Cs2 Cs3 90.952(12) 6_556 4
Cs4 Cs2 Cs3 35.548(9) . 4
Cs3 Cs2 Cs3 33.069(11) 6_566 4
Fe1 Cs2 Cs3 49.813(14) 3_455 4
Fe2 Cs2 Cs3 49.259(14) 3_455 4
Cs1 Cs2 Cs3 143.239(12) 5_556 4
Fe2 Cs2 Cs3 78.393(14) 4_545 4
Cs4 Cs2 Cs3 149.495(13) 3_445 4
Cs4 Cs2 Cs3 92.705(12) 3_455 4
Fe1 Cs2 Cs3 99.264(15) 4_545 4
Cs3 Cs2 Cs3 87.422(11) 7_556 4
Cs1 Cs2 Cs3 88.764(10) 5_566 4
Cs3 Cs2 Cs3 143.287(12) 8_456 4
Cs4 Cs2 Cs3 68.460(9) 6_566 4
Fe2 Cs2 Cs3 29.974(12) 4 4
Cs4 Cs2 Cs3 109.240(12) 6_556 4
S3 Cs2 Cs3 69.60(4) 7_556 4_545
S4 Cs2 Cs3 78.18(4) 2 4_545
S2 Cs2 Cs3 120.37(4) 8_456 4_545
S1 Cs2 Cs3 120.27(4) 7_556 4_545
Fe2 Cs2 Cs3 102.64(2) 7_556 4_545
S4 Cs2 Cs3 67.45(4) 6_556 4_545
Fe1 Cs2 Cs3 146.88(2) 8_456 4_545
Cs1 Cs2 Cs3 56.978(13) . 4_545
S1 Cs2 Cs3 106.17(3) 3_455 4_545
Cs3 Cs2 Cs3 130.752(18) 2 4_545
S3 Cs2 Cs3 178.91(3) 3_455 4_545
S2 Cs2 Cs3 19.90(3) 4_545 4_545
Cs4 Cs2 Cs3 55.917(12) 7_556 4_545
Cs2 Cs2 Cs3 59.904(16) 5_556 4_545
Cs2 Cs2 Cs3 133.02(2) 5_566 4_545
Fe1 Cs2 Cs3 86.812(19) 4 4_545
Fe2 Cs2 Cs3 50.203(18) 3_445 4_545
Cs4 Cs2 Cs3 95.816(12) 2 4_545
Fe1 Cs2 Cs3 122.602(18) 7_556 4_545
Fe2 Cs2 Cs3 123.021(18) 8_456 4_545
Cs3 Cs2 Cs3 32.359(11) 6_556 4_545
Cs4 Cs2 Cs3 37.409(9) . 4_545
Cs3 Cs2 Cs3 93.054(11) 6_566 4_545
Fe1 Cs2 Cs3 89.258(15) 3_455 4_545
Fe2 Cs2 Cs3 111.168(15) 3_455 4_545
Cs1 Cs2 Cs3 89.817(11) 5_556 4_545
Fe2 Cs2 Cs3 30.575(13) 4_545 4_545
Cs4 Cs2 Cs3 92.283(12) 3_445 4_545
Cs4 Cs2 Cs3 149.947(13) 3_455 4_545
Fe1 Cs2 Cs3 30.577(13) 4_545 4_545
Cs3 Cs2 Cs3 88.590(11) 7_556 4_545
Cs1 Cs2 Cs3 143.892(12) 5_566 4_545
Cs3 Cs2 Cs3 144.161(12) 8_456 4_545
Cs4 Cs2 Cs3 109.661(11) 6_566 4_545
Fe2 Cs2 Cs3 89.097(13) 4 4_545
Cs4 Cs2 Cs3 67.827(10) 6_556 4_545
Cs3 Cs2 Cs3 72.373(8) 4 4_545
S3 Cs2 Cs3 80.39(4) 7_556 3_455
S4 Cs2 Cs3 72.13(4) 2 3_455
S2 Cs2 Cs3 114.16(4) 8_456 3_455
S1 Cs2 Cs3 115.22(4) 7_556 3_455
Fe2 Cs2 Cs3 142.13(3) 7_556 3_455
S4 Cs2 Cs3 176.96(4) 6_556 3_455
Fe1 Cs2 Cs3 97.90(2) 8_456 3_455
Cs1 Cs2 Cs3 58.250(13) . 3_455
S1 Cs2 Cs3 18.73(3) 3_455 3_455
Cs3 Cs2 Cs3 58.105(13) 2 3_455
S3 Cs2 Cs3 65.85(3) 3_455 3_455
S2 Cs2 Cs3 105.75(3) 4_545 3_455
Cs4 Cs2 Cs3 131.128(15) 7_556 3_455
Cs2 Cs2 Cs3 127.93(2) 5_556 3_455
Cs2 Cs2 Cs3 58.397(16) 5_566 3_455
Fe1 Cs2 Cs3 50.467(19) 4 3_455
Fe2 Cs2 Cs3 86.911(19) 3_445 3_455
Cs4 Cs2 Cs3 34.596(9) 2 3_455
Fe1 Cs2 Cs3 120.156(18) 7_556 3_455
Fe2 Cs2 Cs3 119.160(17) 8_456 3_455
Cs3 Cs2 Cs3 147.284(15) 6_556 3_455
Cs4 Cs2 Cs3 91.644(11) . 3_455
Cs3 Cs2 Cs3 88.728(9) 6_566 3_455
Fe1 Cs2 Cs3 30.309(14) 3_455 3_455
Fe2 Cs2 Cs3 30.424(14) 3_455 3_455
Cs1 Cs2 Cs3 140.839(11) 5_556 3_455
Fe2 Cs2 Cs3 88.955(15) 4_545 3_455
Cs4 Cs2 Cs3 88.371(11) 3_445 3_455
Cs4 Cs2 Cs3 34.728(8) 3_455 3_455
Fe1 Cs2 Cs3 109.838(16) 4_545 3_455
Cs3 Cs2 Cs3 143.715(12) 7_556 3_455
Cs1 Cs2 Cs3 88.043(11) 5_566 3_455
Cs3 Cs2 Cs3 85.753(10) 8_456 3_455
Cs4 Cs2 Cs3 108.213(12) 6_566 3_455
Fe2 Cs2 Cs3 45.521(12) 4 3_455
Cs4 Cs2 Cs3 175.198(11) 6_556 3_455
Cs3 Cs2 Cs3 75.477(11) 4 3_455
Cs3 Cs2 Cs3 115.222(9) 4_545 3_455
S3 Cs2 Fe1 99.28(4) 7_556 3_445
S4 Cs2 Fe1 33.10(4) 2 3_445
S2 Cs2 Fe1 106.77(4) 8_456 3_445
S1 Cs2 Fe1 155.87(4) 7_556 3_445
Fe2 Cs2 Fe1 119.71(3) 7_556 3_445
S4 Cs2 Fe1 92.71(4) 6_556 3_445
Fe1 Cs2 Fe1 141.45(3) 8_456 3_445
Cs1 Cs2 Fe1 46.036(17) . 3_445
S1 Cs2 Fe1 92.48(3) 3_455 3_445
Cs3 Cs2 Fe1 85.881(16) 2 3_445
S3 Cs2 Fe1 135.08(4) 3_455 3_445
S2 Cs2 Fe1 25.52(3) 4_545 3_445
Cs4 Cs2 Fe1 101.114(17) 7_556 3_445
Cs2 Cs2 Fe1 49.629(17) 5_556 3_445
Cs2 Cs2 Fe1 143.69(2) 5_566 3_445
Fe1 Cs2 Fe1 96.580(13) 4 3_445
Fe2 Cs2 Fe1 5.273(19) 3_445 3_445
Cs4 Cs2 Fe1 57.086(14) 2 3_445
Fe1 Cs2 Fe1 144.556(14) 7_556 3_445
Fe2 Cs2 Fe1 120.524(19) 8_456 3_445
Cs3 Cs2 Fe1 64.044(14) 6_556 3_445
Cs4 Cs2 Fe1 67.942(13) . 3_445
Cs3 Cs2 Fe1 130.448(15) 6_566 3_445
Fe1 Cs2 Fe1 79.328(16) 3_455 3_445
Fe2 Cs2 Fe1 106.354(18) 3_455 3_445
Cs1 Cs2 Fe1 89.404(14) 5_556 3_445
Fe2 Cs2 Fe1 21.574(15) 4_545 3_445
Cs4 Cs2 Fe1 53.990(13) 3_445 3_445
Cs4 Cs2 Fe1 115.592(15) 3_455 3_445
Fe1 Cs2 Fe1 21.92(2) 4_545 3_445
Cs3 Cs2 Fe1 126.212(16) 7_556 3_445
Cs1 Cs2 Fe1 170.279(14) 5_566 3_445
Cs3 Cs2 Fe1 111.785(14) 8_456 3_445
Cs4 Cs2 Fe1 154.875(15) 6_566 3_445
Fe2 Cs2 Fe1 95.063(16) 4 3_445
Cs4 Cs2 Fe1 91.575(14) 6_556 3_445
Cs3 Cs2 Fe1 99.148(13) 4 3_445
Cs3 Cs2 Fe1 45.261(12) 4_545 3_445
Cs3 Cs2 Fe1 88.489(13) 3_455 3_445
S3 Cs2 Cs3 117.41(4) 7_556 3_445
S4 Cs2 Cs3 5.33(4) 2 3_445
S2 Cs2 Cs3 92.37(4) 8_456 3_445
S1 Cs2 Cs3 152.94(4) 7_556 3_445
Fe2 Cs2 Cs3 121.23(2) 7_556 3_445
S4 Cs2 Cs3 108.84(4) 6_556 3_445
Fe1 Cs2 Cs3 119.00(2) 8_456 3_445
Cs1 Cs2 Cs3 55.602(12) . 3_445
S1 Cs2 Cs3 82.66(3) 3_455 3_445
Cs3 Cs2 Cs3 57.003(12) 2 3_445
S3 Cs2 Cs3 106.00(3) 3_455 3_445
S2 Cs2 Cs3 54.54(3) 4_545 3_445
Cs4 Cs2 Cs3 130.131(16) 7_556 3_445
Cs2 Cs2 Cs3 57.430(16) 5_556 3_445
Cs2 Cs2 Cs3 128.91(2) 5_566 3_445
Fe1 Cs2 Cs3 101.41(2) 4 3_445
Fe2 Cs2 Cs3 24.217(17) 3_445 3_445
Cs4 Cs2 Cs3 36.513(9) 2 3_445
Fe1 Cs2 Cs3 137.146(17) 7_556 3_445
Fe2 Cs2 Cs3 108.174(17) 8_456 3_445
Cs3 Cs2 Cs3 88.998(10) 6_556 3_445
Cs4 Cs2 Cs3 92.115(12) . 3_445
Cs3 Cs2 Cs3 147.699(14) 6_566 3_445
Fe1 Cs2 Cs3 76.241(15) 3_455 3_445
Fe2 Cs2 Cs3 97.977(16) 3_455 3_445
Cs1 Cs2 Cs3 89.060(10) 5_556 3_445
Fe2 Cs2 Cs3 47.897(14) 4_545 3_445
Cs4 Cs2 Cs3 34.264(8) 3_445 3_445
Cs4 Cs2 Cs3 89.727(11) 3_455 3_445
Fe1 Cs2 Cs3 47.973(14) 4_545 3_445
Cs3 Cs2 Cs3 144.624(12) 7_556 3_445
Cs1 Cs2 Cs3 141.540(11) 5_566 3_445
Cs3 Cs2 Cs3 86.909(10) 8_456 3_445
Cs4 Cs2 Cs3 175.522(12) 6_566 3_445
Fe2 Cs2 Cs3 97.750(14) 4 3_445
Cs4 Cs2 Cs3 106.965(11) 6_556 3_445
Cs3 Cs2 Cs3 115.232(9) 4 3_445
Cs3 Cs2 Cs3 74.343(11) 4_545 3_445
Cs3 Cs2 Cs3 71.106(8) 3_455 3_445
Fe1 Cs2 Cs3 29.083(11) 3_445 3_445
S4 Cs3 S3 122.19(6) . 4
S4 Cs3 S2 149.59(6) . .
S3 Cs3 S2 87.58(5) 4 .
S4 Cs3 Fe1 116.92(5) . .
S3 Cs3 Fe1 119.63(5) 4 .
S2 Cs3 Fe1 37.25(4) . .
S4 Cs3 Fe2 115.81(5) . .
S3 Cs3 Fe2 112.06(5) 4 .
S2 Cs3 Fe2 37.64(4) . .
Fe1 Cs3 Fe2 44.52(3) . .
S4 Cs3 S1 88.36(5) . .
S3 Cs3 S1 147.51(5) 4 .
S2 Cs3 S1 61.25(5) . .
Fe1 Cs3 S1 37.15(4) . .
Fe2 Cs3 S1 36.80(4) . .
S4 Cs3 S3 105.02(5) . 6
S3 Cs3 S3 114.29(4) 4 6
S2 Cs3 S3 62.54(5) . 6
Fe1 Cs3 S3 34.54(4) . 6
Fe2 Cs3 S3 79.03(4) . 6
S1 Cs3 S3 61.18(5) . 6
S4 Cs3 S2 85.57(5) . 7
S3 Cs3 S2 63.35(5) 4 7
S2 Cs3 S2 116.44(4) . 7
Fe1 Cs3 S2 112.11(4) . 7
Fe2 Cs3 S2 152.88(4) . 7
S1 Cs3 S2 136.84(5) . 7
S3 Cs3 S2 79.33(5) 6 7
S4 Cs3 S4 104.24(3) . 4
S3 Cs3 S4 97.63(5) 4 4
S2 Cs3 S4 61.88(5) . 4
Fe1 Cs3 S4 78.48(4) . 4
Fe2 Cs3 S4 33.96(4) . 4
S1 Cs3 S4 60.99(5) . 4
S3 Cs3 S4 112.98(5) 6 4
S2 Cs3 S4 160.83(5) 7 4
S4 Cs3 Cs3 135.68(5) . 7
S3 Cs3 Cs3 61.45(4) 4 7
S2 Cs3 Cs3 61.23(4) . 7
Fe1 Cs3 Cs3 68.80(3) . 7
Fe2 Cs3 Cs3 98.34(3) . 7
S1 Cs3 Cs3 105.84(4) . 7
S3 Cs3 Cs3 52.84(4) 6 7
S2 Cs3 Cs3 55.21(4) 7 7
S4 Cs3 Cs3 119.49(4) 4 7
S4 Cs3 Cs2 55.59(4) . 2
S3 Cs3 Cs2 66.78(4) 4 2
S2 Cs3 Cs2 154.28(4) . 2
Fe1 Cs3 Cs2 162.79(3) . 2
Fe2 Cs3 Cs2 151.19(3) . 2
S1 Cs3 Cs2 143.41(4) . 2
S3 Cs3 Cs2 128.80(4) 6 2
S2 Cs3 Cs2 54.59(3) 7 2
S4 Cs3 Cs2 117.60(4) 4 2
Cs3 Cs3 Cs2 105.02(2) 7 2
S4 Cs3 Cs4 53.09(4) . .
S3 Cs3 Cs4 119.57(4) 4 .
S2 Cs3 Cs4 109.15(4) . .
Fe1 Cs3 Cs4 104.32(3) . .
Fe2 Cs3 Cs4 72.21(2) . .
S1 Cs3 Cs4 67.95(4) . .
S3 Cs3 Cs4 125.12(4) 6 .
S2 Cs3 Cs4 134.41(4) 7 .
S4 Cs3 Cs4 51.28(4) 4 .
Cs3 Cs3 Cs4 170.33(3) 7 .
Cs2 Cs3 Cs4 83.483(16) 2 .
S4 Cs3 Cs4 53.75(4) . 4_545
S3 Cs3 Cs4 144.12(4) 4 4_545
S2 Cs3 Cs4 106.59(4) . 4_545
Fe1 Cs3 Cs4 69.44(2) . 4_545
Fe2 Cs3 Cs4 97.98(2) . 4_545
S1 Cs3 Cs4 61.54(4) . 4_545
S3 Cs3 Cs4 51.43(4) 6 4_545
S2 Cs3 Cs4 80.93(4) 7 4_545
S4 Cs3 Cs4 118.19(4) 4 4_545
Cs3 Cs3 Cs4 96.17(2) 7 4_545
Cs2 Cs3 Cs4 96.043(18) 2 4_545
Cs4 Cs3 Cs4 87.345(15) . 4_545
S4 Cs3 Fe1 105.20(5) . 7
S3 Cs3 Fe1 30.77(4) 4 7
S2 Cs3 Fe1 104.21(4) . 7
Fe1 Cs3 Fe1 121.97(2) . 7
Fe2 Cs3 Fe1 138.08(3) . 7
S1 Cs3 Fe1 158.84(4) . 7
S3 Cs3 Fe1 99.07(4) 6 7
S2 Cs3 Fe1 32.62(4) 7 7
S4 Cs3 Fe1 128.27(4) 4 7
Cs3 Cs3 Fe1 53.17(2) 7 7
Cs2 Cs3 Fe1 54.24(2) 2 7
Cs4 Cs3 Fe1 133.20(2) . 7
Cs4 Cs3 Fe1 113.54(2) 4_545 7
S4 Cs3 Cs4 126.50(4) . 4
S3 Cs3 Cs4 49.18(4) 4 4
S2 Cs3 Cs4 66.59(4) . 4
Fe1 Cs3 Cs4 102.44(2) . 4
Fe2 Cs3 Cs4 69.34(2) . 4
S1 Cs3 Cs4 105.32(4) . 4
S3 Cs3 Cs4 127.14(4) 6 4
S2 Cs3 Cs4 112.51(4) 7 4
S4 Cs3 Cs4 48.45(4) 4 4
Cs3 Cs3 Cs4 90.59(2) 7 4
Cs2 Cs3 Cs4 93.507(17) 2 4
Cs4 Cs3 Cs4 84.209(16) . 4
Cs4 Cs3 Cs4 166.45(2) 4_545 4
Fe1 Cs3 Cs4 79.89(2) 7 4
S4 Cs3 S1 72.01(5) . 4
S3 Cs3 S1 69.34(5) 4 4
S2 Cs3 S1 118.93(4) . 4
Fe1 Cs3 S1 144.69(4) . 4
Fe2 Cs3 S1 100.22(3) . 4
S1 Cs3 S1 116.16(3) . 4
S3 Cs3 S1 176.34(5) 6 4
S2 Cs3 S1 102.36(4) 7 4
S4 Cs3 S1 66.27(4) 4 4
Cs3 Cs3 S1 130.79(3) 7 4
Cs2 Cs3 S1 51.49(3) 2 4
Cs4 Cs3 S1 51.44(3) . 4
Cs4 Cs3 S1 125.41(3) 4_545 4
Fe1 Cs3 S1 83.90(3) 7 4
Cs4 Cs3 S1 55.36(3) 4 4
S4 Cs3 Fe2 133.89(4) . 2_655
S3 Cs3 Fe2 103.07(4) 4 2_655
S2 Cs3 Fe2 15.71(4) . 2_655
Fe1 Cs3 Fe2 26.55(2) . 2_655
Fe2 Cs3 Fe2 26.94(3) . 2_655
S1 Cs3 Fe2 45.54(4) . 2_655
S3 Cs3 Fe2 58.32(4) 6 2_655
S2 Cs3 Fe2 125.94(4) 7 2_655
S4 Cs3 Fe2 57.82(3) 4 2_655
Cs3 Cs3 Fe2 72.04(2) 7 2_655
Cs2 Cs3 Fe2 168.97(2) 2 2_655
Cs4 Cs3 Fe2 98.737(19) . 2_655
Cs4 Cs3 Fe2 94.851(18) 4_545 2_655
Fe1 Cs3 Fe2 119.18(2) 7 2_655
Cs4 Cs3 Fe2 76.053(17) 4 2_655
S1 Cs3 Fe2 122.07(3) 4 2_655
S4 Cs3 Fe2 1.89(4) . 4_545
S3 Cs3 Fe2 120.57(4) 4 4_545
S2 Cs3 Fe2 151.38(4) . 4_545
Fe1 Cs3 Fe2 118.27(3) . 4_545
Fe2 Cs3 Fe2 117.69(2) . 4_545
S1 Cs3 Fe2 90.14(4) . 4_545
S3 Cs3 Fe2 105.36(4) 6 4_545
S2 Cs3 Fe2 83.83(4) 7 4_545
S4 Cs3 Fe2 105.68(4) 4 4_545
Cs3 Cs3 Fe2 134.43(3) 7 4_545
Cs2 Cs3 Fe2 53.894(17) 2 4_545
Cs4 Cs3 Fe2 54.463(17) . 4_545
Cs4 Cs3 Fe2 54.262(16) 4_545 4_545
Fe1 Cs3 Fe2 103.31(2) 7 4_545
Cs4 Cs3 Fe2 126.53(2) 4 4_545
S1 Cs3 Fe2 71.74(3) 4 4_545
Fe2 Cs3 Fe2 135.68(3) 2_655 4_545
S4 Cs3 Fe1 104.93(4) . 2_655
S3 Cs3 Fe1 131.54(4) 4 2_655
S2 Cs3 Fe1 44.67(4) . 2_655
Fe1 Cs3 Fe1 25.94(3) . 2_655
Fe2 Cs3 Fe1 26.02(2) . 2_655
S1 Cs3 Fe1 16.58(3) . 2_655
S3 Cs3 Fe1 57.38(4) 6 2_655
S2 Cs3 Fe1 136.71(4) 7 2_655
S4 Cs3 Fe1 57.33(3) 4 2_655
Cs3 Cs3 Fe1 93.46(2) 7 2_655
Cs2 Cs3 Fe1 159.62(2) 2 2_655
Cs4 Cs3 Fe1 78.919(18) . 2_655
Cs4 Cs3 Fe1 73.076(17) 4_545 2_655
Fe1 Cs3 Fe1 145.78(3) 7 2_655
Cs4 Cs3 Fe1 94.862(18) 4 2_655
S1 Cs3 Fe1 120.89(3) 4 2_655
Fe2 Cs3 Fe1 28.965(18) 2_655 2_655
Fe2 Cs3 Fe1 106.71(2) 4_545 2_655
S4 Cs3 Cs2 39.15(4) . 6
S3 Cs3 Cs2 103.42(4) 4 6
S2 Cs3 Cs2 147.42(4) . 6
Fe1 Cs3 Cs2 114.76(2) . 6
Fe2 Cs3 Cs2 144.48(2) . 6
S1 Cs3 Cs2 107.95(4) . 6
S3 Cs3 Cs2 85.12(4) 6 6
S2 Cs3 Cs2 48.25(3) 7 6
S4 Cs3 Cs2 143.37(4) 4 6
Cs3 Cs3 Cs2 96.95(2) 7 6
Cs2 Cs3 Cs2 48.837(16) 2 6
Cs4 Cs3 Cs2 92.127(14) . 6
Cs4 Cs3 Cs2 48.467(12) 4_545 6
Fe1 Cs3 Cs2 75.55(2) 7 6
Cs4 Cs3 Cs2 142.284(16) 4 6
S1 Cs3 Cs2 93.59(3) 4 6
Fe2 Cs3 Cs2 141.313(18) 2_655 6
Fe2 Cs3 Cs2 37.690(15) 4_545 6
Fe1 Cs3 Cs2 121.315(18) 2_655 6
S4 Cs3 Fe2 79.29(4) . 8_455
S3 Cs3 Fe2 56.94(4) 4 8_455
S2 Cs3 Fe2 127.38(4) . 8_455
Fe1 Cs3 Fe2 128.50(3) . 8_455
Fe2 Cs3 Fe2 164.77(3) . 8_455
S1 Cs3 Fe2 150.05(4) . 8_455
S3 Cs3 Fe2 95.64(4) 6 8_455
S2 Cs3 Fe2 16.44(3) 7 8_455
S4 Cs3 Fe2 148.53(4) 4 8_455
Cs3 Cs3 Fe2 67.53(2) 7 8_455
Cs2 Cs3 Fe2 39.026(16) 2 8_455
Cs4 Cs3 Fe2 121.630(19) . 8_455
Cs4 Cs3 Fe2 89.493(18) 4_545 8_455
Fe1 Cs3 Fe2 28.10(2) 7 8_455
Cs4 Cs3 Fe2 103.956(18) 4 8_455
S1 Cs3 Fe2 85.96(3) 4 8_455
Fe2 Cs3 Fe2 139.575(14) 2_655 8_455
Fe2 Cs3 Fe2 77.42(2) 4_545 8_455
Fe1 Cs3 Fe2 153.00(2) 2_655 8_455
Cs2 Cs3 Fe2 47.483(15) 6 8_455
S4 Cs3 Fe2 101.92(4) . 7
S3 Cs3 Fe2 55.55(4) 4 7
S2 Cs3 Fe2 100.45(4) . 7
Fe1 Cs3 Fe2 102.24(3) . 7
Fe2 Cs3 Fe2 137.768(19) . 7
S1 Cs3 Fe2 134.37(4) . 7
S3 Cs3 Fe2 73.25(4) 6 7
S2 Cs3 Fe2 16.48(3) 7 7
S4 Cs3 Fe2 150.09(4) 4 7
Cs3 Cs3 Fe2 39.428(18) 7 7
Cs2 Cs3 Fe2 67.267(17) 2 7
Cs4 Cs3 Fe2 149.97(2) . 7
Cs4 Cs3 Fe2 89.076(19) 4_545 7
Fe1 Cs3 Fe2 27.77(2) 7 7
Cs4 Cs3 Fe2 103.501(18) 4 7
S1 Cs3 Fe2 109.26(3) 4 7
Fe2 Cs3 Fe2 111.27(2) 2_655 7
Fe2 Cs3 Fe2 100.21(2) 4_545 7
Fe1 Cs3 Fe2 128.16(2) 2_655 7
Cs2 Cs3 Fe2 63.880(15) 6 7
Fe2 Cs3 Fe2 28.48(2) 8_455 7
S4 Cs3 Cs2 96.90(4) . 6_565
S3 Cs3 Cs2 31.74(4) 4 6_565
S2 Cs3 Cs2 108.31(4) . 6_565
Fe1 Cs3 Cs2 145.36(2) . 6_565
Fe2 Cs3 Cs2 115.15(2) . 6_565
S1 Cs3 Cs2 147.32(4) . 6_565
S3 Cs3 Cs2 145.27(4) 6 6_565
S2 Cs3 Cs2 75.83(3) 7 6_565
S4 Cs3 Cs2 86.53(3) 4 6_565
Cs3 Cs3 Cs2 92.781(19) 7 6_565
Cs2 Cs3 Cs2 47.961(17) 2 6_565
Cs4 Cs3 Cs2 89.586(15) . 6_565
Cs4 Cs3 Cs2 143.962(16) 4_545 6_565
Fe1 Cs3 Cs2 48.530(19) 7 6_565
Cs4 Cs3 Cs2 46.747(12) 4 6_565
S1 Cs3 Cs2 38.24(3) 4 6_565
Fe2 Cs3 Cs2 121.083(18) 2_655 6_565
Fe2 Cs3 Cs2 95.733(17) 4_545 6_565
Fe1 Cs3 Cs2 141.143(18) 2_655 6_565
Cs2 Cs3 Cs2 95.847(12) 6 6_565
Fe2 Cs3 Cs2 62.067(15) 8_455 6_565
Fe2 Cs3 Cs2 76.122(15) 7 6_565
S4 Cs3 Cs1 36.10(4) . .
S3 Cs3 Cs1 95.05(4) 4 .
S2 Cs3 Cs1 147.89(4) . .
Fe1 Cs3 Cs1 143.39(2) . .
Fe2 Cs3 Cs1 114.18(2) . .
S1 Cs3 Cs1 106.59(3) . .
S3 Cs3 Cs1 141.10(4) 6 .
S2 Cs3 Cs1 92.94(3) 7 .
S4 Cs3 Cs1 86.08(3) 4 .
Cs3 Cs3 Cs1 145.79(2) 7 .
Cs2 Cs3 Cs1 40.779(10) 2 .
Cs4 Cs3 Cs1 42.835(10) . .
Cs4 Cs3 Cs1 89.804(15) 4_545 .
Fe1 Cs3 Cs1 93.631(19) 7 .
Cs4 Cs3 Cs1 91.175(15) 4 .
S1 Cs3 Cs1 36.01(3) 4 .
Fe2 Cs3 Cs1 141.102(18) 2_655 .
Fe2 Cs3 Cs1 35.746(15) 4_545 .
Fe1 Cs3 Cs1 120.399(17) 2_655 .
Cs2 Cs3 Cs1 62.692(10) 6 .
Fe2 Cs3 Cs1 78.914(15) 8_455 .
Fe2 Cs3 Cs1 107.392(15) 7 .
Cs2 Cs3 Cs1 64.628(11) 6_565 .
S4 Cs3 Cs4 91.71(4) . 6
S3 Cs3 Cs4 99.84(4) 4 6
S2 Cs3 Cs4 88.73(4) . 6
Fe1 Cs3 Cs4 66.48(2) . 6
Fe2 Cs3 Cs4 111.00(2) . 6
S1 Cs3 Cs4 89.06(4) . 6
S3 Cs3 Cs4 31.99(4) 6 6
S2 Cs3 Cs4 48.58(3) 7 6
S4 Cs3 Cs4 144.96(3) 4 6
Cs3 Cs3 Cs4 48.080(16) 7 6
Cs2 Cs3 Cs4 97.216(16) 2 6
Cs4 Cs3 Cs4 136.561(14) . 6
Cs4 Cs3 Cs4 49.277(14) 4_545 6
Fe1 Cs3 Cs4 74.62(2) 7 6
Cs4 Cs3 Cs4 138.672(13) 4 6
S1 Cs3 Cs4 148.70(3) 4 6
Fe2 Cs3 Cs4 88.610(16) 2_655 6
Fe2 Cs3 Cs4 91.106(17) 4_545 6
Fe1 Cs3 Cs4 88.668(16) 2_655 6
Cs2 Cs3 Cs4 59.419(11) 6 6
Fe2 Cs3 Cs4 64.415(16) 8_455 6
Fe2 Cs3 Cs4 46.856(15) 7 6
Cs2 Cs3 Cs4 122.815(13) 6_565 6
Cs1 Cs3 Cs4 122.066(13) . 6
S4 Cs3 Cs4 151.06(4) . 6_565
S3 Cs3 Cs4 29.30(4) 4 6_565
S2 Cs3 Cs4 59.27(4) . 6_565
Fe1 Cs3 Cs4 90.46(2) . 6_565
Fe2 Cs3 Cs4 89.90(2) . 6_565
S1 Cs3 Cs4 120.50(4) . 6_565
S3 Cs3 Cs4 92.22(4) 6 6_565
S2 Cs3 Cs4 74.81(3) 7 6_565
S4 Cs3 Cs4 89.61(4) 4 6_565
Cs3 Cs3 Cs4 43.519(15) 7 6_565
Cs2 Cs3 Cs4 95.491(15) 2 6_565
Cs4 Cs3 Cs4 132.340(15) . 6_565
Cs4 Cs3 Cs4 139.691(14) 4_545 6_565
Fe1 Cs3 Cs4 48.194(19) 7 6_565
Cs4 Cs3 Cs4 48.194(13) 4 6_565
S1 Cs3 Cs4 91.36(3) 4 6_565
Fe2 Cs3 Cs4 74.979(16) 2_655 6_565
Fe2 Cs3 Cs4 149.317(18) 4_545 6_565
Fe1 Cs3 Cs4 103.938(16) 2_655 6_565
Cs2 Cs3 Cs4 122.544(14) 6 6_565
Fe2 Cs3 Cs4 75.964(16) 8_455 6_565
Fe2 Cs3 Cs4 60.565(15) 7 6_565
Cs2 Cs3 Cs4 58.096(11) 6_565 6_565
Cs1 Cs3 Cs4 122.717(13) . 6_565
Cs4 Cs3 Cs4 90.983(12) 6 6_565
S4 Cs3 Cs1 140.33(4) . 3
S3 Cs3 Cs1 79.88(4) 4 3
S2 Cs3 Cs1 29.94(4) . 3
Fe1 Cs3 Cs1 61.66(2) . 3
Fe2 Cs3 Cs1 32.18(2) . 3
S1 Cs3 Cs1 68.52(3) . 3
S3 Cs3 Cs1 91.85(4) 6 3
S2 Cs3 Cs1 133.37(4) 7 3
S4 Cs3 Cs1 36.53(3) 4 3
Cs3 Cs3 Cs1 82.965(17) 7 3
Cs2 Cs3 Cs1 134.854(17) 2 3
Cs4 Cs3 Cs1 87.761(14) . 3
Cs4 Cs3 Cs1 127.757(15) 4_545 3
Fe1 Cs3 Cs1 107.23(2) 7 3
Cs4 Cs3 Cs1 41.461(11) 4 3
S1 Cs3 Cs1 89.30(3) 4 3
Fe2 Cs3 Cs1 35.119(14) 2_655 3
Fe2 Cs3 Cs1 141.900(17) 4_545 3
Fe1 Cs3 Cs1 54.961(15) 2_655 3
Cs2 Cs3 Cs1 176.216(14) 6 3
Fe2 Cs3 Cs1 135.324(17) 8_455 3
Fe2 Cs3 Cs1 117.394(16) 7 3
Cs2 Cs3 Cs1 87.934(13) 6_565 3
Cs1 Cs3 Cs1 119.182(14) . 3
Cs4 Cs3 Cs1 118.474(11) 6 3
Cs4 Cs3 Cs1 59.749(9) 6_565 3
S4 Cs3 Cs3 89.86(4) . 4
S3 Cs3 Cs3 83.92(4) 4 4
S2 Cs3 Cs3 87.16(4) . 4
Fe1 Cs3 Cs3 107.97(3) . 4
Fe2 Cs3 Cs3 63.46(2) . 4
S1 Cs3 Cs3 85.51(4) . 4
S3 Cs3 Cs3 142.40(4) 6 4
S2 Cs3 Cs3 137.04(4) 7 4
S4 Cs3 Cs3 29.50(3) 4 4
Cs3 Cs3 Cs3 132.144(18) 7 4
Cs2 Cs3 Cs3 88.180(16) 2 4
Cs4 Cs3 Cs3 42.090(15) . 4
Cs4 Cs3 Cs3 128.542(18) 4_545 4
Fe1 Cs3 Cs3 110.22(2) 7 4
Cs4 Cs3 Cs3 42.120(8) 4 4
S1 Cs3 Cs3 36.77(3) 4 4
Fe2 Cs3 Cs3 86.365(17) 2_655 4
Fe2 Cs3 Cs3 90.629(19) 4_545 4
Fe1 Cs3 Cs3 85.644(18) 2_655 4
Cs2 Cs3 Cs3 124.067(15) 6 4
Fe2 Cs3 Cs3 121.264(18) 8_455 4
Fe2 Cs3 Cs3 137.957(17) 7 4
Cs2 Cs3 Cs3 62.360(9) 6_565 4
Cs1 Cs3 Cs3 61.438(12) . 4
Cs4 Cs3 Cs3 174.311(17) 6 4
Cs4 Cs3 Cs3 90.289(8) 6_565 4
Cs1 Cs3 Cs3 57.751(8) 3 4
S4 Cs3 Cs3 34.36(4) . 4_545
S3 Cs3 Cs3 155.03(4) 4 4_545
S2 Cs3 Cs3 115.23(4) . 4_545
Fe1 Cs3 Cs3 85.30(2) . 4_545
Fe2 Cs3 Cs3 84.17(2) . 4_545
S1 Cs3 Cs3 54.00(3) . 4_545
S3 Cs3 Cs3 86.64(4) 6 4_545
S2 Cs3 Cs3 110.64(3) 7 4_545
S4 Cs3 Cs3 85.49(4) 4 4_545
Cs3 Cs3 Cs3 137.40(2) 7 4_545
Cs2 Cs3 Cs3 89.746(16) 2 4_545
Cs4 Cs3 Cs3 45.467(14) . 4_545
Cs4 Cs3 Cs3 41.879(8) 4_545 4_545
Fe1 Cs3 Cs3 137.74(2) 7 4_545
Cs4 Cs3 Cs3 128.829(17) 4 4_545
S1 Cs3 Cs3 89.72(3) 4 4_545
Fe2 Cs3 Cs3 99.530(18) 2_655 4_545
Fe2 Cs3 Cs3 36.153(15) 4_545 4_545
Fe1 Cs3 Cs3 70.571(17) 2_655 4_545
Cs2 Cs3 Cs3 63.182(9) 6 4_545
Fe2 Cs3 Cs3 109.934(17) 8_455 4_545
Fe2 Cs3 Cs3 124.417(17) 7 4_545
Cs2 Cs3 Cs3 124.750(15) 6_565 4_545
Cs1 Cs3 Cs3 60.327(11) . 4_545
Cs4 Cs3 Cs3 91.120(9) 6 4_545
Cs4 Cs3 Cs3 174.069(17) 6_565 4_545
Cs1 Cs3 Cs3 114.444(14) 3 4_545
Cs3 Cs3 Cs3 87.088(16) 4 4_545
S4 Cs3 Cs1 86.27(4) . 3_545
S3 Cs3 Cs1 146.99(4) 4 3_545
S2 Cs3 Cs1 67.85(4) . 3_545
Fe1 Cs3 Cs1 31.02(2) . 3_545
Fe2 Cs3 Cs1 60.81(2) . 3_545
S1 Cs3 Cs1 29.63(3) . 3_545
S3 Cs3 Cs1 35.08(4) 6 3_545
S2 Cs3 Cs1 107.25(3) 7 3_545
S4 Cs3 Cs1 90.02(3) 4 3_545
Cs3 Cs3 Cs1 86.820(18) 7 3_545
Cs2 Cs3 Cs1 136.143(17) 2 3_545
Cs4 Cs3 Cs1 90.131(13) . 3_545
Cs4 Cs3 Cs1 40.199(11) 4_545 3_545
Fe1 Cs3 Cs1 133.26(2) 7 3_545
Cs4 Cs3 Cs1 129.055(15) 4 3_545
S1 Cs3 Cs1 141.56(3) 4 3_545
Fe2 Cs3 Cs1 54.838(15) 2_655 3_545
Fe2 Cs3 Cs1 87.511(16) 4_545 3_545
Fe1 Cs3 Cs1 34.799(14) 2_655 3_545
Cs2 Cs3 Cs1 88.357(12) 6 3_545
Fe2 Cs3 Cs1 121.442(17) 8_455 3_545
Fe2 Cs3 Cs1 105.983(16) 7 3_545
Cs2 Cs3 Cs1 175.793(14) 6_565 3_545
Cs1 Cs3 Cs1 117.561(13) . 3_545
Cs4 Cs3 Cs1 59.638(9) 6 3_545
Cs4 Cs3 Cs1 119.534(11) 6_565 3_545
Cs1 Cs3 Cs1 87.861(8) 3 3_545
Cs3 Cs3 Cs1 115.041(15) 4 3_545
Cs3 Cs3 Cs1 57.241(7) 4_545 3_545
S4 Cs3 Cs2 84.57(4) . 7_556
S3 Cs3 Cs2 131.69(4) 4 7_556
S2 Cs3 Cs2 69.23(4) . 7_556
Fe1 Cs3 Cs2 63.06(2) . 7_556
Fe2 Cs3 Cs2 31.79(2) . 7_556
S1 Cs3 Cs2 31.54(3) . 7_556
S3 Cs3 Cs2 92.29(4) 6 7_556
S2 Cs3 Cs2 164.95(4) 7 7_556
S4 Cs3 Cs2 34.12(3) 4 7_556
Cs3 Cs3 Cs2 128.32(2) 7 7_556
Cs2 Cs3 Cs2 126.434(18) 2 7_556
Cs4 Cs3 Cs2 42.953(12) . 7_556
Cs4 Cs3 Cs2 84.073(14) 4_545 7_556
Fe1 Cs3 Cs2 162.39(2) 7 7_556
Cs4 Cs3 Cs2 82.525(14) 4 7_556
S1 Cs3 Cs2 85.34(3) 4 7_556
Fe2 Cs3 Cs2 56.540(15) 2_655 7_556
Fe2 Cs3 Cs2 86.417(16) 4_545 7_556
Fe1 Cs3 Cs2 37.123(15) 2_655 7_556
Cs2 Cs3 Cs2 119.097(14) 6 7_556
Fe2 Cs3 Cs2 163.386(17) 8_455 7_556
Fe2 Cs3 Cs2 165.200(18) 7 7_556
Cs2 Cs3 Cs2 116.653(15) 6_565 7_556
Cs1 Cs3 Cs2 85.745(10) . 7_556
Cs4 Cs3 Cs2 120.416(13) 6 7_556
Cs4 Cs3 Cs2 118.357(13) 6_565 7_556
Cs1 Cs3 Cs2 58.676(9) 3 7_556
Cs3 Cs3 Cs2 54.305(12) 4 7_556
Cs3 Cs3 Cs2 55.927(12) 4_545 7_556
Cs1 Cs3 Cs2 60.779(9) 3_545 7_556
S4 Cs3 Cs2 143.65(4) . 8
S3 Cs3 Cs2 87.48(4) 4 8
S2 Cs3 Cs2 28.93(4) . 8
Fe1 Cs3 Cs2 33.31(2) . 8
Fe2 Cs3 Cs2 61.90(2) . 8
S1 Cs3 Cs2 69.83(3) . 8
S3 Cs3 Cs2 39.13(4) 6 8
S2 Cs3 Cs2 90.98(3) 7 8
S4 Cs3 Cs2 90.50(3) 4 8
Cs3 Cs3 Cs2 38.192(14) 7 8
Cs2 Cs3 Cs2 143.210(14) 2 8
Cs4 Cs3 Cs2 133.150(16) . 8
Cs4 Cs3 Cs2 89.958(15) 4_545 8
Fe1 Cs3 Cs2 90.14(2) 7 8
Cs4 Cs3 Cs2 88.123(13) 4 8
S1 Cs3 Cs2 143.48(3) 4 8
Fe2 Cs3 Cs2 34.963(15) 2_655 8
Fe2 Cs3 Cs2 144.220(18) 4_545 8
Fe1 Cs3 Cs2 55.758(15) 2_655 8
Cs2 Cs3 Cs2 119.760(15) 6 8
Fe2 Cs3 Cs2 105.091(17) 8_455 8
Fe2 Cs3 Cs2 76.611(16) 7 8
Cs2 Cs3 Cs2 117.308(14) 6_565 8
Cs1 Cs3 Cs2 175.985(12) . 8
Cs4 Cs3 Cs2 60.352(11) 6 8
Cs4 Cs3 Cs2 59.277(10) 6_565 8
Cs1 Cs3 Cs2 58.166(8) 3 8
Cs3 Cs3 Cs2 115.874(13) 4 8
Cs3 Cs3 Cs2 117.339(13) 4_545 8
Cs1 Cs3 Cs2 60.265(9) 3_545 8
Cs2 Cs3 Cs2 90.244(11) 7_556 8
S4 Cs3 Cs1 73.96(4) . 5
S3 Cs3 Cs1 83.25(4) 4 5
S2 Cs3 Cs1 119.80(4) . 5
Fe1 Cs3 Cs1 102.48(2) . 5
Fe2 Cs3 Cs1 146.98(2) . 5
S1 Cs3 Cs1 118.90(4) . 5
S3 Cs3 Cs1 67.95(4) 6 5
S2 Cs3 Cs1 19.92(3) 7 5
S4 Cs3 Cs1 178.18(4) 4 5
Cs3 Cs3 Cs1 62.324(17) 7 5
Cs2 Cs3 Cs1 61.271(12) 2 5
Cs4 Cs3 Cs1 126.904(14) . 5
Cs4 Cs3 Cs1 61.008(12) 4_545 5
Fe1 Cs3 Cs1 52.541(19) 7 5
Cs4 Cs3 Cs1 132.425(15) 4 5
S1 Cs3 Cs1 112.69(3) 4 5
Fe2 Cs3 Cs1 123.571(16) 2_655 5
Fe2 Cs3 Cs1 72.508(15) 4_545 5
Fe1 Cs3 Cs1 123.155(17) 2_655 5
Cs2 Cs3 Cs1 34.819(8) 6 5
Fe2 Cs3 Cs1 31.375(14) 8_455 5
Fe2 Cs3 Cs1 31.379(14) 7 5
Cs2 Cs3 Cs1 93.440(11) 6_565 5
Cs1 Cs3 Cs1 92.260(9) . 5
Cs4 Cs3 Cs1 36.027(8) 6 5
Cs4 Cs3 Cs1 91.919(11) 6_565 5
Cs1 Cs3 Cs1 145.289(10) 3 5
Cs3 Cs3 Cs1 149.443(15) 4 5
Cs3 Cs3 Cs1 93.044(9) 4_545 5
Cs1 Cs3 Cs1 90.085(8) 3_545 5
Cs2 Cs3 Cs1 145.049(13) 7_556 5
Cs2 Cs3 Cs1 91.130(10) 8 5
S4 Cs3 Fe1 66.60(4) . 3_455
S3 Cs3 Fe1 65.42(4) 4 3_455
S2 Cs3 Fe1 130.23(4) . 3_455
Fe1 Cs3 Fe1 158.73(3) . 3_455
Fe2 Cs3 Fe1 114.30(3) . 3_455
S1 Cs3 Fe1 127.16(4) . 3_455
S3 Cs3 Fe1 166.16(4) 6 3_455
S2 Cs3 Fe1 88.81(4) 7 3_455
S4 Cs3 Fe1 80.36(3) 4 3_455
Cs3 Cs3 Fe1 124.89(2) 7 3_455
Cs2 Cs3 Fe1 37.483(15) 2 3_455
Cs4 Cs3 Fe1 59.712(15) . 3_455
Cs4 Cs3 Fe1 119.938(17) 4_545 3_455
Fe1 Cs3 Fe1 73.76(2) 7 3_455
Cs4 Cs3 Fe1 64.121(15) 4 3_455
S1 Cs3 Fe1 14.08(3) 4 3_455
Fe2 Cs3 Fe1 135.48(2) 2_655 3_455
Fe2 Cs3 Fe1 65.884(18) 4_545 3_455
Fe1 Cs3 Fe1 134.152(16) 2_655 3_455
Cs2 Cs3 Fe1 81.635(14) 6 3_455
Fe2 Cs3 Fe1 72.377(17) 8_455 3_455
Fe2 Cs3 Fe1 97.149(19) 7 3_455
Cs2 Cs3 Fe1 33.877(13) 6_565 3_455
Cs1 Cs3 Fe1 31.512(13) . 3_455
Cs4 Cs3 Fe1 134.633(16) 6 3_455
Cs4 Cs3 Fe1 91.522(14) 6_565 3_455
Cs1 Cs3 Fe1 101.539(15) 3 3_455
Cs3 Cs3 Fe1 50.855(14) 4 3_455
Cs3 Cs3 Fe1 90.945(16) 4_545 3_455
Cs1 Cs3 Fe1 147.547(15) 3_545 3_455
Cs2 Cs3 Fe1 97.639(15) 7_556 3_455
Cs2 Cs3 Fe1 149.621(16) 8 3_455
Cs1 Cs3 Fe1 98.611(13) 5 3_455
S4 Cs3 Fe2 85.68(4) . 4
S3 Cs3 Fe2 60.29(4) 4 4
S2 Cs3 Fe2 106.76(4) . 4
Fe1 Cs3 Fe2 137.52(3) . 4
Fe2 Cs3 Fe2 93.94(3) . 4
S1 Cs3 Fe2 117.40(4) . 4
S3 Cs3 Fe2 168.95(4) 6 4
S2 Cs3 Fe2 104.68(4) 7 4
S4 Cs3 Fe2 60.57(3) 4 4
Cs3 Cs3 Fe2 120.84(2) 7 4
Cs2 Cs3 Fe2 59.642(16) 2 4
Cs4 Cs3 Fe2 59.274(15) . 4
Cs4 Cs3 Fe2 138.879(18) 4_545 4
Fe1 Cs3 Fe2 80.40(2) 7 4
Cs4 Cs3 Fe2 41.827(14) 4 4
S1 Cs3 Fe2 13.68(3) 4 4
Fe2 Cs3 Fe2 112.20(2) 2_655 4
Fe2 Cs3 Fe2 85.412(18) 4_545 4
Fe1 Cs3 Fe2 117.742(19) 2_655 4
Cs2 Cs3 Fe2 105.294(15) 6 4
Fe2 Cs3 Fe2 88.991(18) 8_455 4
Fe2 Cs3 Fe2 107.71(2) 7 4
Cs2 Cs3 Fe2 31.975(13) 6_565 4
Cs1 Cs3 Fe2 49.682(14) . 4
Cs4 Cs3 Fe2 153.256(16) 6 4
Cs4 Cs3 Fe2 79.152(14) 6_565 4
Cs1 Cs3 Fe2 77.885(14) 3 4
Cs3 Cs3 Fe2 32.365(12) 4 4
Cs3 Cs3 Fe2 101.230(16) 4_545 4
Cs1 Cs3 Fe2 146.286(15) 3_545 4
Cs2 Cs3 Fe2 85.878(15) 7_556 4
Cs2 Cs3 Fe2 129.897(15) 8 4
Cs1 Cs3 Fe2 118.777(14) 5 4
Fe1 Cs3 Fe2 23.660(15) 3_455 4
S4 Cs3 Fe1 64.94(4) . 4
S3 Cs3 Fe1 82.19(4) 4 4
S2 Cs3 Fe1 118.94(4) . 4
Fe1 Cs3 Fe1 136.21(2) . 4
Fe2 Cs3 Fe1 93.27(2) . 4
S1 Cs3 Fe1 104.07(4) . 4
S3 Cs3 Fe1 163.41(4) 6 4
S2 Cs3 Fe1 111.64(4) 7 4
S4 Cs3 Fe1 60.27(3) 4 4
Cs3 Cs3 Fe1 143.59(2) 7 4
Cs2 Cs3 Fe1 57.931(16) 2 4
Cs4 Cs3 Fe1 38.358(15) . 4
Cs4 Cs3 Fe1 116.279(17) 4_545 4
Fe1 Cs3 Fe1 96.46(2) 7 4
Cs4 Cs3 Fe1 61.578(15) 4 4
S1 Cs3 Fe1 13.09(3) 4 4
Fe2 Cs3 Fe1 118.03(2) 2_655 4
Fe2 Cs3 Fe1 65.061(18) 4_545 4
Fe1 Cs3 Fe1 110.79(2) 2_655 4
Cs2 Cs3 Fe1 93.132(14) 6 4
Fe2 Cs3 Fe1 95.281(19) 8_455 4
Fe2 Cs3 Fe1 120.668(18) 7 4
Cs2 Cs3 Fe1 51.312(13) 6_565 4
Cs1 Cs3 Fe1 30.996(13) . 4
Cs4 Cs3 Fe1 152.332(15) 6 4
Cs4 Cs3 Fe1 102.533(15) 6_565 4
Cs1 Cs3 Fe1 89.128(14) 3 4
Cs3 Cs3 Fe1 32.052(13) 4 4
Cs3 Cs3 Fe1 77.903(15) 4_545 4
Cs1 Cs3 Fe1 128.486(14) 3_545 4
Cs2 Cs3 Fe1 74.119(14) 7_556 4
Cs2 Cs3 Fe1 147.025(16) 8 4
Cs1 Cs3 Fe1 118.381(13) 5 4
Fe1 Cs3 Fe1 23.52(2) 3_455 4
Fe2 Cs3 Fe1 23.392(15) 4 4
S4 Cs3 Fe1 101.08(4) . 8_455
S3 Cs3 Fe1 37.34(4) 4 8_455
S2 Cs3 Fe1 107.46(4) . 8_455
Fe1 Cs3 Fe1 121.11(3) . 8_455
Fe2 Cs3 Fe1 142.94(3) . 8_455
S1 Cs3 Fe1 156.47(4) . 8_455
S3 Cs3 Fe1 95.41(4) 6 8_455
S2 Cs3 Fe1 26.06(3) 7 8_455
S4 Cs3 Fe1 134.81(4) 4 8_455
Cs3 Cs3 Fe1 52.824(18) 7 8_455
Cs2 Cs3 Fe1 52.833(15) 2 8_455
Cs4 Cs3 Fe1 134.561(18) . 8_455
Cs4 Cs3 Fe1 106.988(17) 4_545 8_455
Fe1 Cs3 Fe1 6.572(10) 7 8_455
Cs4 Cs3 Fe1 86.451(15) 4 8_455
S1 Cs3 Fe1 87.34(3) 4 8_455
Fe2 Cs3 Fe1 121.798(19) 2_655 8_455
Fe2 Cs3 Fe1 99.192(19) 4_545 8_455
Fe1 Cs3 Fe1 146.281(12) 2_655 8_455
Cs2 Cs3 Fe1 69.659(14) 6 8_455
Fe2 Cs3 Fe1 22.516(16) 8_455 8_455
Fe2 Cs3 Fe1 22.672(16) 7 8_455
Cs2 Cs3 Fe1 53.515(13) 6_565 8_455
Cs1 Cs3 Fe1 93.211(13) . 8_455
Cs4 Cs3 Fe1 69.329(14) 6 8_455
Cs4 Cs3 Fe1 53.449(13) 6_565 8_455
Cs1 Cs3 Fe1 112.966(14) 3 8_455
Cs3 Cs3 Fe1 115.709(14) 4 8_455
Cs3 Cs3 Fe1 132.446(16) 4_545 8_455
Cs1 Cs3 Fe1 128.655(15) 3_545 8_455
Cs2 Cs3 Fe1 168.900(16) 7_556 8_455
Cs2 Cs3 Fe1 90.691(14) 8 8_455
Cs1 Cs3 Fe1 45.983(12) 5 8_455
Fe1 Cs3 Fe1 76.238(14) 3_455 8_455
Fe2 Cs3 Fe1 85.039(16) 4 8_455
Fe1 Cs3 Fe1 99.454(16) 4 8_455
S4 Cs3 Cs1 116.66(4) . 5_565
S3 Cs3 Cs1 8.40(4) 4 5_565
S2 Cs3 Cs1 93.61(4) . 5_565
Fe1 Cs3 Cs1 123.01(2) . 5_565
Fe2 Cs3 Cs1 120.16(2) . 5_565
S1 Cs3 Cs1 154.61(3) . 5_565
S3 Cs3 Cs1 112.23(4) 6 5_565
S2 Cs3 Cs1 55.24(3) 7 5_565
S4 Cs3 Cs1 105.65(4) 4 5_565
Cs3 Cs3 Cs1 59.975(15) 7 5_565
Cs2 Cs3 Cs1 61.109(12) 2 5_565
Cs4 Cs3 Cs1 122.595(15) . 5_565
Cs4 Cs3 Cs1 136.162(15) 4_545 5_565
Fe1 Cs3 Cs1 22.626(18) 7 5_565
Cs4 Cs3 Cs1 57.270(11) 4 5_565
S1 Cs3 Cs1 71.28(3) 4 5_565
Fe2 Cs3 Cs1 109.286(16) 2_655 5_565
Fe2 Cs3 Cs1 114.934(16) 4_545 5_565
Fe1 Cs3 Cs1 138.171(16) 2_655 5_565
Cs2 Cs3 Cs1 95.233(11) 6 5_565
Fe2 Cs3 Cs1 48.553(14) 8_455 5_565
Fe2 Cs3 Cs1 48.515(14) 7 5_565
Cs2 Cs3 Cs1 33.050(7) 6_565 5_565
Cs1 Cs3 Cs1 93.002(9) . 5_565
Cs4 Cs3 Cs1 94.122(11) 6 5_565
Cs4 Cs3 Cs1 34.394(7) 6_565 5_565
Cs1 Cs3 Cs1 88.005(8) 3 5_565
Cs3 Cs3 Cs1 90.057(8) 4 5_565
Cs3 Cs3 Cs1 150.802(14) 4_545 5_565
Cs1 Cs3 Cs1 146.796(10) 3_545 5_565
Cs2 Cs3 Cs1 139.765(13) 7_556 5_565
Cs2 Cs3 Cs1 89.945(9) 8 5_565
Cs1 Cs3 Cs1 75.165(6) 5 5_565
Fe1 Cs3 Cs1 65.294(12) 3_455 5_565
Fe2 Cs3 Cs1 63.888(12) 4 5_565
Fe1 Cs3 Cs1 84.362(13) 4 5_565
Fe1 Cs3 Cs1 29.183(12) 8_455 5_565
S4 Cs3 Cs2 107.06(4) . 4_545
S3 Cs3 Cs2 115.41(4) 4 4_545
S2 Cs3 Cs2 58.81(4) . 4_545
Fe1 Cs3 Cs2 30.09(2) . 4_545
Fe2 Cs3 Cs2 74.59(2) . 4_545
S1 Cs3 Cs2 57.73(3) . 4_545
S3 Cs3 Cs2 4.45(4) 6 4_545
S2 Cs3 Cs2 83.51(3) 7 4_545
S4 Cs3 Cs2 108.55(3) 4 4_545
Cs3 Cs3 Cs2 54.150(16) 7 4_545
Cs2 Cs3 Cs2 133.233(19) 2 4_545
Cs4 Cs3 Cs2 122.983(15) . 4_545
Cs4 Cs3 Cs2 53.311(12) 4_545 4_545
Fe1 Cs3 Cs2 102.12(2) 7 4_545
Cs4 Cs3 Cs2 124.174(14) 4 4_545
S1 Cs3 Cs2 173.87(3) 4 4_545
Fe2 Cs3 Cs2 54.028(15) 2_655 4_545
Fe2 Cs3 Cs2 107.537(17) 4_545 4_545
Fe1 Cs3 Cs2 53.202(15) 2_655 4_545
Cs2 Cs3 Cs2 89.049(12) 6 4_545
Fe2 Cs3 Cs2 99.868(16) 8_455 4_545
Fe2 Cs3 Cs2 76.861(15) 7 4_545
Cs2 Cs3 Cs2 146.932(11) 6_565 4_545
Cs1 Cs3 Cs2 143.083(13) . 4_545
Cs4 Cs3 Cs2 36.414(9) 6 4_545
Cs4 Cs3 Cs2 91.877(11) 6_565 4_545
Cs1 Cs3 Cs2 87.842(10) 3 4_545
Cs3 Cs3 Cs2 137.991(16) 4 4_545
Cs3 Cs3 Cs2 86.534(9) 4_545 4_545
Cs1 Cs3 Cs2 32.900(6) 3_545 4_545
Cs2 Cs3 Cs2 88.549(12) 7_556 4_545
Cs2 Cs3 Cs2 36.713(12) 8 4_545
Cs1 Cs3 Cs2 72.396(9) 5 4_545
Fe1 Cs3 Cs2 170.487(16) 3_455 4_545
Fe2 Cs3 Cs2 165.566(15) 4 4_545
Fe1 Cs3 Cs2 161.245(15) 4 4_545
Fe1 Cs3 Cs2 98.768(14) 8_455 4_545
Cs1 Cs3 Cs2 114.007(10) 5_565 4_545
S4 Cs3 Cs2 172.00(4) . 4
S3 Cs3 Cs2 63.99(4) 4 4
S2 Cs3 Cs2 23.60(4) . 4
Fe1 Cs3 Cs2 58.57(2) . 4
Fe2 Cs3 Cs2 56.20(2) . 4
S1 Cs3 Cs2 84.66(3) . 4
S3 Cs3 Cs2 74.96(4) 6 4
S2 Cs3 Cs2 102.21(3) 7 4
S4 Cs3 Cs2 68.89(3) 4 4
Cs3 Cs3 Cs2 50.695(15) 7 4
Cs2 Cs3 Cs2 130.752(18) 2 4
Cs4 Cs3 Cs2 120.171(16) . 4
Cs4 Cs3 Cs2 125.087(15) 4_545 4
Fe1 Cs3 Cs2 82.610(19) 7 4
Cs4 Cs3 Cs2 52.334(11) 4 4
S1 Cs3 Cs2 107.67(3) 4 4
Fe2 Cs3 Cs2 39.223(14) 2_655 4
Fe2 Cs3 Cs2 173.851(18) 4_545 4
Fe1 Cs3 Cs2 68.122(15) 2_655 4
Cs2 Cs3 Cs2 147.642(12) 6 4
Fe2 Cs3 Cs2 108.708(16) 8_455 4
Fe2 Cs3 Cs2 85.798(15) 7 4
Cs2 Cs3 Cs2 86.947(11) 6_565 4
Cs1 Cs3 Cs2 143.466(14) . 4
Cs4 Cs3 Cs2 92.084(11) 6 4
Cs4 Cs3 Cs2 35.875(8) 6_565 4
Cs1 Cs3 Cs2 32.452(6) 3 4
Cs3 Cs3 Cs2 85.706(9) 4 4
Cs3 Cs3 Cs2 138.466(15) 4_545 4
Cs1 Cs3 Cs2 89.567(10) 3_545 4
Cs2 Cs3 Cs2 87.434(11) 7_556 4
Cs2 Cs3 Cs2 35.839(12) 8 4
Cs1 Cs3 Cs2 112.925(10) 5 4
Fe1 Cs3 Cs2 114.950(14) 3_455 4
Fe2 Cs3 Cs2 94.059(14) 4 4
Fe1 Cs3 Cs2 113.037(14) 4 4
Fe1 Cs3 Cs2 86.856(13) 8_455 4
Cs1 Cs3 Cs2 70.070(8) 5_565 4
Cs2 Cs3 Cs2 72.373(8) 4_545 4
S4 Cs3 Cs2 68.03(4) . 3_545
S3 Cs3 Cs2 166.62(4) 4 3_545
S2 Cs3 Cs2 81.62(4) . 3_545
Fe1 Cs3 Cs2 53.57(2) . 3_545
Fe2 Cs3 Cs2 54.66(2) . 3_545
S1 Cs3 Cs2 20.43(3) . 3_545
S3 Cs3 Cs2 67.41(4) 6 3_545
S2 Cs3 Cs2 128.85(3) 7 3_545
S4 Cs3 Cs2 70.32(4) 4 3_545
Cs3 Cs3 Cs2 118.71(2) 7 3_545
Cs2 Cs3 Cs2 123.444(15) 2 3_545
Cs4 Cs3 Cs2 57.767(12) . 3_545
Cs4 Cs3 Cs2 48.005(11) 4_545 3_545
Fe1 Cs3 Cs2 161.23(2) 7 3_545
Cs4 Cs3 Cs2 118.474(14) 4 3_545
S1 Cs3 Cs2 109.20(3) 4 3_545
Fe2 Cs3 Cs2 65.914(15) 2_655 3_545
Fe2 Cs3 Cs2 69.784(15) 4_545 3_545
Fe1 Cs3 Cs2 36.964(14) 2_655 3_545
Cs2 Cs3 Cs2 89.911(8) 6 3_545
Fe2 Cs3 Cs2 136.375(17) 8_455 3_545
Fe2 Cs3 Cs2 134.232(17) 7 3_545
Cs2 Cs3 Cs2 147.091(14) 6_565 3_545
Cs1 Cs3 Cs2 90.015(10) . 3_545
Cs4 Cs3 Cs2 87.848(11) 6 3_545
Cs4 Cs3 Cs2 140.892(12) 6_565 3_545
Cs1 Cs3 Cs2 86.829(10) 3 3_545
Cs3 Cs3 Cs2 87.668(14) 4 3_545
Cs3 Cs3 Cs2 33.714(9) 4_545 3_545
Cs1 Cs3 Cs2 32.365(6) 3_545 3_545
Cs2 Cs3 Cs2 36.285(12) 7_556 3_545
Cs2 Cs3 Cs2 86.849(10) 8 3_545
Cs1 Cs3 Cs2 108.963(11) 5 3_545
Fe1 Cs3 Cs2 116.380(14) 3_455 3_545
Fe2 Cs3 Cs2 115.435(15) 4 3_545
Fe1 Cs3 Cs2 96.121(14) 4 3_545
Fe1 Cs3 Cs2 154.814(15) 8_455 3_545
Cs1 Cs3 Cs2 174.803(10) 5_565 3_545
Cs2 Cs3 Cs2 65.236(11) 4_545 3_545
Cs2 Cs3 Cs2 105.082(8) 4 3_545
S4 Cs3 Cs2 108.71(4) . 3
S3 Cs3 Cs2 96.39(4) 4 3
S2 Cs3 Cs2 57.11(4) . 3
Fe1 Cs3 Cs2 75.00(2) . 3
Fe2 Cs3 Cs2 30.61(2) . 3
S1 Cs3 Cs2 60.14(3) . 3
S3 Cs3 Cs2 109.54(4) 6 3
S2 Cs3 Cs2 159.64(3) 7 3
S4 Cs3 Cs2 4.82(3) 4 3
Cs3 Cs3 Cs2 114.814(19) 7 3
Cs2 Cs3 Cs2 121.416(17) 2 3
Cs4 Cs3 Cs2 55.888(12) . 3
Cs4 Cs3 Cs2 119.108(14) 4_545 3
Fe1 Cs3 Cs2 127.16(2) 7 3
Cs4 Cs3 Cs2 47.371(11) 4 3
S1 Cs3 Cs2 69.94(3) 4 3
Fe2 Cs3 Cs2 53.489(15) 2_655 3
Fe2 Cs3 Cs2 110.195(17) 4_545 3
Fe1 Cs3 Cs2 54.997(15) 2_655 3
Cs2 Cs3 Cs2 147.851(14) 6 3
Fe2 Cs3 Cs2 149.774(17) 8_455 3
Fe2 Cs3 Cs2 146.883(16) 7 3
Cs2 Cs3 Cs2 87.808(9) 6_565 3
Cs1 Cs3 Cs2 90.828(11) . 3
Cs4 Cs3 Cs2 141.362(12) 6 3
Cs4 Cs3 Cs2 86.339(11) 6_565 3
Cs1 Cs3 Cs2 31.875(6) 3 3
Cs3 Cs3 Cs2 33.250(9) 4 3
Cs3 Cs3 Cs2 88.556(13) 4_545 3
Cs1 Cs3 Cs2 88.559(10) 3_545 3
Cs2 Cs3 Cs2 35.376(12) 7_556 3
Cs2 Cs3 Cs2 85.787(10) 8 3
Cs1 Cs3 Cs2 176.911(10) 5 3
Fe1 Cs3 Cs2 83.996(14) 3_455 3
Fe2 Cs3 Cs2 63.403(13) 4 3
Fe1 Cs3 Cs2 64.544(13) 4 3
Fe1 Cs3 Cs2 133.732(14) 8_455 3
Cs1 Cs3 Cs2 104.595(11) 5_565 3
Cs2 Cs3 Cs2 105.088(8) 4_545 3
Cs2 Cs3 Cs2 64.297(10) 4 3
Cs2 Cs3 Cs2 71.106(8) 3_545 3
S3 Cs4 S4 107.78(6) . .
S3 Cs4 S3 97.75(5) . 7_556
S4 Cs4 S3 119.69(6) . 7_556
S3 Cs4 S4 107.77(6) . 4
S4 Cs4 S4 112.37(3) . 4
S3 Cs4 S4 109.90(6) 7_556 4
S3 Cs4 Cs1 120.28(4) . .
S4 Cs4 Cs1 59.81(4) . .
S3 Cs4 Cs1 60.07(4) 7_556 .
S4 Cs4 Cs1 131.56(4) 4 .
S3 Cs4 S1 158.03(5) . 4
S4 Cs4 S1 85.58(5) . 4
S3 Cs4 S1 60.29(5) 7_556 4
S4 Cs4 S1 81.77(5) 4 4
Cs1 Cs4 S1 51.19(3) . 4
S3 Cs4 Cs3 126.76(4) . .
S4 Cs4 Cs3 52.07(4) . .
S3 Cs4 Cs3 135.50(4) 7_556 .
S4 Cs4 Cs3 60.46(4) 4 .
Cs1 Cs4 Cs3 92.779(15) . .
S1 Cs4 Cs3 75.21(3) 4 .
S3 Cs4 Cs3 116.62(4) . 4
S4 Cs4 Cs3 135.50(4) . 4
S3 Cs4 Cs3 58.40(4) 7_556 4
S4 Cs4 Cs3 51.68(4) 4 4
Cs1 Cs4 Cs3 97.985(18) . 4
S1 Cs4 Cs3 53.55(3) 4 4
Cs3 Cs4 Cs3 96.030(18) . 4
S3 Cs4 Cs2 51.61(4) . 7_556
S4 Cs4 Cs2 123.72(4) . 7_556
S3 Cs4 Cs2 115.12(4) 7_556 7_556
S4 Cs4 Cs2 56.20(4) 4 7_556
Cs1 Cs4 Cs2 171.176(18) . 7_556
S1 Cs4 Cs2 134.53(4) 4 7_556
Cs3 Cs4 Cs2 95.418(17) . 7_556
Cs3 Cs4 Cs2 84.415(16) 4 7_556
S3 Cs4 S1 78.04(5) . .
S4 Cs4 S1 77.16(5) . .
S3 Cs4 S1 162.93(5) 7_556 .
S4 Cs4 S1 57.07(5) 4 .
Cs1 Cs4 S1 136.29(3) . .
S1 Cs4 S1 122.77(3) 4 .
Cs3 Cs4 S1 51.18(3) . .
Cs3 Cs4 S1 108.40(3) 4 .
Cs2 Cs4 S1 49.46(3) 7_556 .
S3 Cs4 Cs3 50.00(4) . 4_545
S4 Cs4 Cs3 57.79(4) . 4_545
S3 Cs4 Cs3 120.80(4) 7_556 4_545
S4 Cs4 Cs3 125.69(4) 4 4_545
Cs1 Cs4 Cs3 92.153(18) . 4_545
S1 Cs4 Cs3 139.44(4) 4 4_545
Cs3 Cs4 Cs3 92.413(16) . 4_545
Cs3 Cs4 Cs3 166.45(2) 4 4_545
Cs2 Cs4 Cs3 84.255(16) 7_556 4_545
S1 Cs4 Cs3 69.15(3) . 4_545
S3 Cs4 S2 75.30(5) . 4_545
S4 Cs4 S2 56.80(5) . 4_545
S3 Cs4 S2 79.92(5) 7_556 4_545
S4 Cs4 S2 168.78(5) 4 4_545
Cs1 Cs4 S2 48.08(3) . 4_545
S1 Cs4 S2 99.25(4) 4 4_545
Cs3 Cs4 S2 108.85(3) . 4_545
Cs3 Cs4 S2 137.22(3) 4 4_545
Cs2 Cs4 S2 125.44(3) 7_556 4_545
S1 Cs4 S2 114.33(4) . 4_545
Cs3 Cs4 S2 47.83(3) 4_545 4_545
S3 Cs4 Fe1 126.57(5) . 4
S4 Cs4 Fe1 104.39(4) . 4
S3 Cs4 Fe1 28.82(4) 7_556 4
S4 Cs4 Fe1 97.59(4) 4 4
Cs1 Cs4 Fe1 49.17(2) . 4
S1 Cs4 Fe1 31.47(3) 4 4
Cs3 Cs4 Fe1 106.68(2) . 4
Cs3 Cs4 Fe1 50.317(19) 4 4
Cs2 Cs4 Fe1 130.55(2) 7_556 4
S1 Cs4 Fe1 151.31(4) . 4
Cs3 Cs4 Fe1 136.41(2) 4_545 4
S2 Cs4 Fe1 88.65(3) 4_545 4
S3 Cs4 Cs4 49.66(4) . 7_556
S4 Cs4 Cs4 127.61(4) . 7_556
S3 Cs4 Cs4 48.09(4) 7_556 7_556
S4 Cs4 Cs4 119.41(4) 4 7_556
Cs1 Cs4 Cs4 89.703(18) . 7_556
S1 Cs4 Cs4 108.37(4) 4 7_556
Cs3 Cs4 Cs4 176.41(3) . 7_556
Cs3 Cs4 Cs4 86.184(19) 4 7_556
Cs2 Cs4 Cs4 81.964(18) 7_556 7_556
S1 Cs4 Cs4 125.43(4) . 7_556
Cs3 Cs4 Cs4 84.900(18) 4_545 7_556
S2 Cs4 Cs4 71.02(3) 4_545 7_556
Fe1 Cs4 Cs4 76.91(2) 4 7_556
S3 Cs4 Fe2 94.93(4) . .
S4 Cs4 Fe2 94.97(4) . .
S3 Cs4 Fe2 136.72(4) 7_556 .
S4 Cs4 Fe2 27.33(4) 4 .
Cs1 Cs4 Fe2 140.69(2) . .
S1 Cs4 Fe2 101.33(4) 4 .
Cs3 Cs4 Fe2 49.391(19) . .
Cs3 Cs4 Fe2 78.93(2) 4 .
Cs2 Cs4 Fe2 48.072(19) 7_556 .
S1 Cs4 Fe2 29.80(3) . .
Cs3 Cs4 Fe2 98.82(2) 4_545 .
S2 Cs4 Fe2 143.35(4) 4_545 .
Fe1 Cs4 Fe2 123.50(3) 4 .
Cs4 Cs4 Fe2 128.65(3) 7_556 .
S3 Cs4 Fe2 93.37(5) . 4_545
S4 Cs4 Fe2 26.94(4) . 4_545
S3 Cs4 Fe2 100.83(4) 7_556 4_545
S4 Cs4 Fe2 139.31(4) 4 4_545
Cs1 Cs4 Fe2 47.65(2) . 4_545
S1 Cs4 Fe2 91.38(4) 4 4_545
Cs3 Cs4 Fe2 78.97(2) . 4_545
Cs3 Cs4 Fe2 144.25(2) 4 4_545
Cs2 Cs4 Fe2 131.12(2) 7_556 4_545
S1 Cs4 Fe2 95.95(3) . 4_545
Cs3 Cs4 Fe2 48.097(18) 4_545 4_545
S2 Cs4 Fe2 29.89(3) 4_545 4_545
Fe1 Cs4 Fe2 96.80(3) 4 4_545
Cs4 Cs4 Fe2 100.87(2) 7_556 4_545
Fe2 Cs4 Fe2 119.55(2) . 4_545
S3 Cs4 Cs2 145.73(4) . 2
S4 Cs4 Cs2 38.80(4) . 2
S3 Cs4 Cs2 96.63(4) 7_556 2
S4 Cs4 Cs2 96.18(4) 4 2
Cs1 Cs4 Cs2 45.501(9) . 2
S1 Cs4 Cs2 47.29(3) 4 2
Cs3 Cs4 Cs2 47.409(12) . 2
Cs3 Cs4 Cs2 97.399(16) 4 2
Cs2 Cs4 Cs2 142.824(19) 7_556 2
S1 Cs4 Cs2 95.87(3) . 2
Cs3 Cs4 Cs2 96.116(15) 4_545 2
S2 Cs4 Cs2 76.85(3) 4_545 2
Fe1 Cs4 Cs2 71.86(2) 4 2
Cs4 Cs4 Cs2 135.19(2) 7_556 2
Fe2 Cs4 Cs2 95.60(2) . 2
Fe2 Cs4 Cs2 53.331(19) 4_545 2
S3 Cs4 Fe1 1.84(4) . 6_556
S4 Cs4 Fe1 106.95(4) . 6_556
S3 Cs4 Fe1 99.57(4) 7_556 6_556
S4 Cs4 Fe1 106.80(4) 4 6_556
Cs1 Cs4 Fe1 121.40(2) . 6_556
S1 Cs4 Fe1 159.85(4) 4 6_556
Cs3 Cs4 Fe1 124.93(2) . 6_556
Cs3 Cs4 Fe1 117.35(2) 4 6_556
Cs2 Cs4 Fe1 50.602(17) 7_556 6_556
S1 Cs4 Fe1 76.22(3) . 6_556
Cs3 Cs4 Fe1 49.205(16) 4_545 6_556
S2 Cs4 Fe1 75.95(3) 4_545 6_556
Fe1 Cs4 Fe1 128.389(18) 4 6_556
Cs4 Cs4 Fe1 51.479(18) 7_556 6_556
Fe2 Cs4 Fe1 93.40(2) . 6_556
Fe2 Cs4 Fe1 93.25(2) 4_545 6_556
Cs2 Cs4 Fe1 145.18(2) 2 6_556
S3 Cs4 Cs4 87.84(4) . 4_545
S4 Cs4 Cs4 34.22(4) . 4_545
S3 Cs4 Cs4 152.42(4) 7_556 4_545
S4 Cs4 Cs4 93.78(4) 4 4_545
Cs1 Cs4 Cs4 93.782(17) . 4_545
S1 Cs4 Cs4 111.70(4) 4 4_545
Cs3 Cs4 Cs4 46.450(15) . 4_545
Cs3 Cs4 Cs4 141.269(19) 4 4_545
Cs2 Cs4 Cs4 89.515(18) 7_556 4_545
S1 Cs4 Cs4 44.61(3) . 4_545
Cs3 Cs4 Cs4 45.964(8) 4_545 4_545
S2 Cs4 Cs4 75.41(3) 4_545 4_545
Fe1 Cs4 Cs4 137.24(3) 4 4_545
Cs4 Cs4 Cs4 130.804(18) 7_556 4_545
Fe2 Cs4 Cs4 68.90(2) . 4_545
Fe2 Cs4 Cs4 51.727(17) 4_545 4_545
Cs2 Cs4 Cs4 65.992(14) 2 4_545
Fe1 Cs4 Cs4 86.335(16) 6_556 4_545
S3 Cs4 Cs4 141.36(5) . 4
S4 Cs4 Cs4 95.74(4) . 4
S3 Cs4 Cs4 96.48(4) 7_556 4
S4 Cs4 Cs4 33.68(4) 4 4
Cs1 Cs4 Cs4 97.926(18) . 4
S1 Cs4 Cs4 49.85(3) 4 4
Cs3 Cs4 Cs4 49.826(15) . 4
Cs3 Cs4 Cs4 46.204(9) 4 4
Cs2 Cs4 Cs4 89.874(18) 7_556 4
S1 Cs4 Cs4 77.91(3) . 4
Cs3 Cs4 Cs4 141.101(18) 4_545 4
S2 Cs4 Cs4 142.78(3) 4_545 4
Fe1 Cs4 Cs4 73.421(18) 4 4
Cs4 Cs4 Cs4 132.334(18) 7_556 4
Fe2 Cs4 Cs4 51.901(19) . 4
Fe2 Cs4 Cs4 118.84(2) 4_545 4
Cs2 Cs4 Cs4 66.718(14) 2 4
Fe1 Cs4 Cs4 140.46(2) 6_556 4
Cs4 Cs4 Cs4 95.731(18) 4_545 4
S3 Cs4 Cs2 87.30(4) . .
S4 Cs4 Cs2 93.84(4) . .
S3 Cs4 Cs2 33.10(4) 7_556 .
S4 Cs4 Cs2 142.82(4) 4 .
Cs1 Cs4 Cs2 42.612(9) . .
S1 Cs4 Cs2 74.19(3) 4 .
Cs3 Cs4 Cs2 135.389(17) . .
Cs3 Cs4 Cs2 91.143(15) 4 .
Cs2 Cs4 Cs2 129.135(14) 7_556 .
S1 Cs4 Cs2 159.31(3) . .
Cs3 Cs4 Cs2 90.258(15) 4_545 .
S2 Cs4 Cs2 46.82(3) 4_545 .
Fe1 Cs4 Cs2 48.782(19) 4 .
Cs4 Cs4 Cs2 47.171(14) 7_556 .
Fe2 Cs4 Cs2 169.78(2) . .
Fe2 Cs4 Cs2 70.166(19) 4_545 .
Cs2 Cs4 Cs2 88.028(13) 2 .
Fe1 Cs4 Cs2 88.981(17) 6_556 .
Cs4 Cs4 Cs2 121.210(15) 4_545 .
Cs4 Cs4 Cs2 121.950(15) 4 .
S3 Cs4 Cs3 36.23(4) . 6_556
S4 Cs4 Cs3 87.83(4) . 6_556
S3 Cs4 Cs3 82.01(4) 7_556 6_556
S4 Cs4 Cs3 143.99(4) 4 6_556
Cs1 Cs4 Cs3 84.169(14) . 6_556
S1 Cs4 Cs3 131.08(3) 4 6_556
Cs3 Cs4 Cs3 133.174(15) . 6_556
Cs3 Cs4 Cs3 130.724(14) 4 6_556
Cs2 Cs4 Cs3 87.836(14) 7_556 6_556
S1 Cs4 Cs3 102.61(3) . 6_556
Cs3 Cs4 Cs3 41.329(13) 4_545 6_556
S2 Cs4 Cs3 40.27(3) 4_545 6_556
Fe1 Cs4 Cs3 106.07(2) 4 6_556
Cs4 Cs4 Cs3 44.540(13) 7_556 6_556
Fe2 Cs4 Cs3 127.54(2) . 6_556
Fe2 Cs4 Cs3 64.707(18) 4_545 6_556
Cs2 Cs4 Cs3 116.636(15) 2 6_556
Fe1 Cs4 Cs3 37.254(15) 6_556 6_556
Cs4 Cs4 Cs3 87.017(9) 4_545 6_556
Cs4 Cs4 Cs3 176.410(17) 4 6_556
Cs2 Cs4 Cs3 57.970(11) . 6_556
S3 Cs4 Fe1 147.61(4) . 3_455
S4 Cs4 Fe1 79.64(4) . 3_455
S3 Cs4 Fe1 53.73(4) 7_556 3_455
S4 Cs4 Fe1 97.54(4) 4 3_455
Cs1 Cs4 Fe1 35.937(17) . 3_455
S1 Cs4 Fe1 15.77(3) 4 3_455
Cs3 Cs4 Fe1 83.194(18) . 3_455
Cs3 Cs4 Fe1 64.784(16) 4 3_455
Cs2 Cs4 Fe1 148.73(2) 7_556 3_455
S1 Cs4 Fe1 133.83(3) . 3_455
Cs3 Cs4 Fe1 126.989(19) 4_545 3_455
S2 Cs4 Fe1 83.81(3) 4_545 3_455
Fe1 Cs4 Fe1 26.93(3) 4 3_455
Cs4 Cs4 Fe1 100.32(2) 7_556 3_455
Fe2 Cs4 Fe1 116.19(2) . 3_455
Fe2 Cs4 Fe1 79.47(2) 4_545 3_455
Cs2 Cs4 Fe1 44.962(15) 2 3_455
Fe1 Cs4 Fe1 149.35(3) 6_556 3_455
Cs4 Cs4 Fe1 110.75(2) 4_545 3_455
Cs4 Cs4 Fe1 65.356(16) 4 3_455
Cs2 Cs4 Fe1 60.483(16) . 3_455
Cs3 Cs4 Fe1 115.822(17) 6_556 3_455
S3 Cs4 Fe2 146.83(4) . 4
S4 Cs4 Fe2 101.43(4) . 4
S3 Cs4 Fe2 53.11(4) 7_556 4
S4 Cs4 Fe2 74.07(4) 4 4
Cs1 Cs4 Fe2 62.770(18) . 4
S1 Cs4 Fe2 15.96(3) 4 4
Cs3 Cs4 Fe2 83.841(18) . 4
Cs3 Cs4 Fe2 38.047(16) 4 4
Cs2 Cs4 Fe2 121.37(2) 7_556 4
S1 Cs4 Fe2 124.52(3) . 4
Cs3 Cs4 Fe2 154.30(2) 4_545 4
S2 Cs4 Fe2 109.54(3) 4_545 4
Fe1 Cs4 Fe2 26.81(2) 4 4
Cs4 Cs4 Fe2 99.61(2) 7_556 4
Fe2 Cs4 Fe2 97.90(3) . 4
Fe2 Cs4 Fe2 106.39(3) 4_545 4
Cs2 Cs4 Fe2 62.868(16) 2 4
Fe1 Cs4 Fe2 148.35(2) 6_556 4
Cs4 Cs4 Fe2 125.32(2) 4_545 4
Cs4 Cs4 Fe2 46.739(13) 4 4
Cs2 Cs4 Fe2 75.236(16) . 4
Cs3 Cs4 Fe2 132.872(17) 6_556 4
Fe1 Cs4 Fe2 27.355(17) 3_455 4
S3 Cs4 Cs3 89.25(4) . 6_566
S4 Cs4 Cs3 147.95(4) . 6_566
S3 Cs4 Cs3 28.92(4) 7_556 6_566
S4 Cs4 Cs3 86.55(4) 4 6_566
Cs1 Cs4 Cs3 88.199(14) . 6_566
S1 Cs4 Cs3 71.27(3) 4 6_566
Cs3 Cs4 Cs3 135.727(15) . 6_566
Cs3 Cs4 Cs3 40.309(14) 4 6_566
Cs2 Cs4 Cs3 88.210(15) 7_556 6_566
S1 Cs4 Cs3 134.01(3) . 6_566
Cs3 Cs4 Cs3 131.807(13) 4_545 6_566
S2 Cs4 Cs3 104.40(3) 4_545 6_566
Fe1 Cs4 Cs3 45.531(18) 4 6_566
Cs4 Cs4 Cs3 46.908(14) 7_556 6_566
Fe2 Cs4 Cs3 110.79(2) . 6_566
Fe2 Cs4 Cs3 129.11(2) 4_545 6_566
Cs2 Cs4 Cs3 116.923(14) 2 6_566
Fe1 Cs4 Cs3 90.741(17) 6_556 6_566
Cs4 Cs4 Cs3 177.027(18) 4_545 6_566
Cs4 Cs4 Cs3 86.181(9) 4 6_566
Cs2 Cs4 Cs3 59.200(11) . 6_566
Cs3 Cs4 Cs3 90.983(12) 6_556 6_566
Fe1 Cs4 Cs3 72.119(15) 3_455 6_566
Fe2 Cs4 Cs3 57.606(15) 4 6_566
S3 Cs4 Cs1 34.85(4) . 7_556
S4 Cs4 Cs1 142.39(4) . 7_556
S3 Cs4 Cs1 80.50(4) 7_556 7_556
S4 Cs4 Cs1 85.58(4) 4 7_556
Cs1 Cs4 Cs1 131.694(13) . 7_556
S1 Cs4 Cs1 130.90(3) 4 7_556
Cs3 Cs4 Cs1 135.465(16) . 7_556
Cs3 Cs4 Cs1 81.799(14) 4 7_556
Cs2 Cs4 Cs1 40.049(10) 7_556 7_556
S1 Cs4 Cs1 87.09(3) . 7_556
Cs3 Cs4 Cs1 84.749(14) 4_545 7_556
S2 Cs4 Cs1 101.78(3) 4_545 7_556
Fe1 Cs4 Cs1 105.56(2) 4 7_556
Cs4 Cs4 Cs1 41.991(12) 7_556 7_556
Fe2 Cs4 Cs1 87.061(19) . 7_556
Fe2 Cs4 Cs1 126.27(2) 4_545 7_556
Cs2 Cs4 Cs1 177.028(14) 2 7_556
Fe1 Cs4 Cs1 35.549(16) 6_556 7_556
Cs4 Cs4 Cs1 116.349(15) 4_545 7_556
Cs4 Cs4 Cs1 114.244(15) 4 7_556
Cs2 Cs4 Cs1 89.125(11) . 7_556
Cs3 Cs4 Cs1 62.338(10) 6_556 7_556
Fe1 Cs4 Cs1 132.490(17) 3_455 7_556
Fe2 Cs4 Cs1 115.515(17) 4 7_556
Cs3 Cs4 Cs1 60.717(11) 6_566 7_556
S3 Cs4 Cs2 89.36(4) . 3
S4 Cs4 Cs2 141.43(4) . 3
S3 Cs4 Cs2 90.59(4) 7_556 3
S4 Cs4 Cs2 29.44(4) 4 3
Cs1 Cs4 Cs2 139.069(19) . 3
S1 Cs4 Cs2 90.52(3) 4 3
Cs3 Cs4 Cs2 89.848(14) . 3
Cs3 Cs4 Cs2 41.191(12) 4 3
Cs2 Cs4 Cs2 44.419(16) 7_556 3
S1 Cs4 Cs2 72.94(3) . 3
Cs3 Cs4 Cs2 128.556(16) 4_545 3
S2 Cs4 Cs2 160.54(3) 4_545 3
Fe1 Cs4 Cs2 91.11(2) 4 3
Cs4 Cs4 Cs2 89.974(18) 7_556 3
Fe2 Cs4 Cs2 48.276(18) . 3
Fe2 Cs4 Cs2 167.77(2) 4_545 3
Cs2 Cs4 Cs2 121.444(15) 2 3
Fe1 Cs4 Cs2 89.090(17) 6_556 3
Cs4 Cs4 Cs2 116.566(17) 4_545 3
Cs4 Cs4 Cs2 54.728(10) 4 3
Cs2 Cs4 Cs2 121.914(16) . 3
Cs3 Cs4 Cs2 121.914(14) 6_556 3
Fe1 Cs4 Cs2 104.315(17) 3_455 3
Fe2 Cs4 Cs2 76.971(16) 4 3
Cs3 Cs4 Cs2 62.787(10) 6_566 3
Cs1 Cs4 Cs2 59.616(10) 7_556 3
S3 Cs4 Cs2 39.26(4) . 3_545
S4 Cs4 Cs2 84.86(4) . 3_545
S3 Cs4 Cs2 136.98(4) 7_556 3_545
S4 Cs4 Cs2 88.54(4) 4 3_545
Cs1 Cs4 Cs2 132.937(18) . 3_545
S1 Cs4 Cs2 162.66(3) 4 3_545
Cs3 Cs4 Cs2 87.505(14) . 3_545
Cs3 Cs4 Cs2 128.817(16) 4 3_545
Cs2 Cs4 Cs2 44.503(15) 7_556 3_545
S1 Cs4 Cs2 40.64(3) . 3_545
Cs3 Cs4 Cs2 40.893(11) 4_545 3_545
S2 Cs4 Cs2 87.53(3) 4_545 3_545
Fe1 Cs4 Cs2 165.79(2) 4 3_545
Cs4 Cs4 Cs2 88.907(17) 7_556 3_545
Fe2 Cs4 Cs2 65.196(18) . 3_545
Fe2 Cs4 Cs2 86.619(19) 4_545 3_545
Cs2 Cs4 Cs2 120.387(15) 2 3_545
Fe1 Cs4 Cs2 37.437(15) 6_556 3_545
Cs4 Cs4 Cs2 54.397(10) 4_545 3_545
Cs4 Cs4 Cs2 116.949(17) 4 3_545
Cs2 Cs4 Cs2 120.884(15) . 3_545
Cs3 Cs4 Cs2 62.926(10) 6_556 3_545
Fe1 Cs4 Cs2 164.504(18) 3_455 3_545
Fe2 Cs4 Cs2 162.607(18) 4 3_545
Cs3 Cs4 Cs2 122.679(13) 6_566 3_545
Cs1 Cs4 Cs2 61.967(10) 7_556 3_545
Cs2 Cs4 Cs2 87.974(12) 3 3_545
S3 Cs4 Fe1 94.78(4) . .
S4 Cs4 Fe1 71.14(4) . .
S3 Cs4 Fe1 159.42(4) 7_556 .
S4 Cs4 Fe1 50.35(4) 4 .
Cs1 Cs4 Fe1 125.679(18) . .
S1 Cs4 Fe1 106.20(3) 4 .
Cs3 Cs4 Fe1 35.251(15) . .
Cs3 Cs4 Fe1 101.315(18) 4 .
Cs2 Cs4 Fe1 61.655(17) 7_556 .
S1 Cs4 Fe1 16.75(3) . .
Cs3 Cs4 Fe1 79.696(16) 4_545 .
S2 Cs4 Fe1 119.21(3) 4_545 .
Fe1 Cs4 Fe1 136.04(2) 4 .
Cs4 Cs4 Fe1 141.52(2) 7_556 .
Fe2 Cs4 Fe1 25.03(2) . .
Fe2 Cs4 Fe1 94.63(2) 4_545 .
Cs2 Cs4 Fe1 81.753(16) 2 .
Fe1 Cs4 Fe1 92.968(18) 6_556 .
Cs4 Cs4 Fe1 43.995(15) 4_545 .
Cs4 Cs4 Fe1 63.918(17) 4 .
Cs2 Cs4 Fe1 164.766(18) . .
Cs3 Cs4 Fe1 117.170(16) 6_556 .
Fe1 Cs4 Fe1 117.13(2) 3_455 .
Fe2 Cs4 Fe1 109.479(19) 4 .
Cs3 Cs4 Fe1 135.803(17) 6_566 .
Cs1 Cs4 Fe1 101.206(15) 7_556 .
Cs2 Cs4 Fe1 73.250(15) 3 .
Cs2 Cs4 Fe1 56.897(14) 3_545 .
S3 Cs4 Fe2 91.81(4) . 3_445
S4 Cs4 Fe2 50.18(4) . 3_445
S3 Cs4 Fe2 76.05(4) 7_556 3_445
S4 Cs4 Fe2 158.08(4) 4 3_445
Cs1 Cs4 Fe2 32.445(17) . 3_445
S1 Cs4 Fe2 83.45(3) 4 3_445
Cs3 Cs4 Fe2 100.070(18) . 3_445
Cs3 Cs4 Fe2 127.833(19) 4 3_445
Cs2 Cs4 Fe2 141.75(2) 7_556 3_445
S1 Cs4 Fe2 120.32(3) . 3_445
Cs3 Cs4 Fe2 60.476(16) 4_545 3_445
S2 Cs4 Fe2 16.55(3) 4_545 3_445
Fe1 Cs4 Fe2 77.52(2) 4 3_445
Cs4 Cs4 Fe2 80.69(2) 7_556 3_445
Fe2 Cs4 Fe2 144.70(3) . 3_445
Fe2 Cs4 Fe2 25.28(2) 4_545 3_445
Cs2 Cs4 Fe2 61.926(16) 2 3_445
Fe1 Cs4 Fe2 92.48(2) 6_556 3_445
Cs4 Cs4 Fe2 76.798(15) 4_545 3_445
Cs4 Cs4 Fe2 126.52(2) 4 3_445
Cs2 Cs4 Fe2 44.894(14) . 3_445
Cs3 Cs4 Fe2 56.352(14) 6_556 3_445
Fe1 Cs4 Fe2 68.379(18) 3_455 3_445
Fe2 Cs4 Fe2 95.060(11) 4 3_445
Cs3 Cs4 Fe2 103.897(16) 6_566 3_445
Cs1 Cs4 Fe2 116.343(16) 7_556 3_445
Cs2 Cs4 Fe2 166.626(17) 3 3_445
Cs2 Cs4 Fe2 101.304(16) 3_545 3_445
Fe1 Cs4 Fe2 119.889(19) . 3_445
S3 Cs4 Fe1 73.22(4) . 2_655
S4 Cs4 Fe1 91.64(4) . 2_655
S3 Cs4 Fe1 148.53(4) 7_556 2_655
S4 Cs4 Fe1 48.97(4) 4 2_655
Cs1 Cs4 Fe1 150.432(19) . 2_655
S1 Cs4 Fe1 124.95(3) 4 2_655
Cs3 Cs4 Fe1 60.892(16) . 2_655
Cs3 Cs4 Fe1 98.000(18) 4 2_655
Cs2 Cs4 Fe1 36.078(15) 7_556 2_655
S1 Cs4 Fe1 14.48(3) . 2_655
Cs3 Cs4 Fe1 76.915(16) 4_545 2_655
S2 Cs4 Fe1 124.35(3) 4_545 2_655
Fe1 Cs4 Fe1 146.56(3) 4 2_655
Cs4 Cs4 Fe1 116.05(2) 7_556 2_655
Fe2 Cs4 Fe1 24.10(2) . 2_655
Fe2 Cs4 Fe1 109.62(2) 4_545 2_655
Cs2 Cs4 Fe1 107.671(16) 2 2_655
Fe1 Cs4 Fe1 71.53(2) 6_556 2_655
Cs4 Cs4 Fe1 58.838(16) 4_545 2_655
Cs4 Cs4 Fe1 75.959(17) 4 2_655
Cs2 Cs4 Fe1 160.504(18) . 2_655
Cs3 Cs4 Fe1 103.636(15) 6_556 2_655
Fe1 Cs4 Fe1 139.000(17) 3_455 2_655
Fe2 Cs4 Fe1 121.887(19) 4 2_655
Cs3 Cs4 Fe1 119.648(16) 6_566 2_655
Cs1 Cs4 Fe1 75.290(14) 7_556 2_655
Cs2 Cs4 Fe1 59.854(15) 3 2_655
Cs2 Cs4 Fe1 41.101(13) 3_545 2_655
Fe1 Cs4 Fe1 25.92(2) . 2_655
Fe2 Cs4 Fe1 133.053(19) 3_445 2_655
S3 Cs4 Fe1 71.36(4) . 4_545
S4 Cs4 Fe1 48.39(4) . 4_545
S3 Cs4 Fe1 94.57(4) 7_556 4_545
S4 Cs4 Fe1 155.23(4) 4 4_545
Cs1 Cs4 Fe1 58.055(18) . 4_545
S1 Cs4 Fe1 108.34(3) 4 4_545
Cs3 Cs4 Fe1 99.429(18) . 4_545
Cs3 Cs4 Fe1 151.860(19) 4 4_545
Cs2 Cs4 Fe1 117.102(19) 7_556 4_545
S1 Cs4 Fe1 99.60(3) . 4_545
Cs3 Cs4 Fe1 34.714(14) 4_545 4_545
S2 Cs4 Fe1 14.75(3) 4_545 4_545
Fe1 Cs4 Fe1 102.41(2) 4 4_545
Cs4 Cs4 Fe1 79.70(2) 7_556 4_545
Fe2 Cs4 Fe1 128.66(2) . 4_545
Fe2 Cs4 Fe1 23.80(2) 4_545 4_545
Cs2 Cs4 Fe1 76.622(16) 2 4_545
Fe1 Cs4 Fe1 71.55(2) 6_556 4_545
Cs4 Cs4 Fe1 61.557(13) 4_545 4_545
Cs4 Cs4 Fe1 142.64(2) 4 4_545
Cs2 Cs4 Fe1 61.478(15) . 4_545
Cs3 Cs4 Fe1 40.914(14) 6_556 4_545
Fe1 Cs4 Fe1 93.824(11) 3_455 4_545
Fe2 Cs4 Fe1 120.82(2) 4 4_545
Cs3 Cs4 Fe1 117.960(16) 6_566 4_545
Cs1 Cs4 Fe1 102.736(16) 7_556 4_545
Cs2 Cs4 Fe1 160.525(17) 3 4_545
Cs2 Cs4 Fe1 75.465(15) 3_545 4_545
Fe1 Cs4 Fe1 104.90(2) . 4_545
Fe2 Cs4 Fe1 25.847(16) 3_445 4_545
Fe1 Cs4 Fe1 110.05(2) 2_655 4_545
S3 Cs4 Fe2 63.15(4) . 6_566
S4 Cs4 Fe2 167.66(4) . 6_566
S3 Cs4 Fe2 56.63(4) 7_556 6_566
S4 Cs4 Fe2 79.26(4) 4 6_566
Cs1 Cs4 Fe2 116.144(16) . 6_566
S1 Cs4 Fe2 100.68(3) 4 6_566
Cs3 Cs4 Fe2 139.715(18) . 6_566
Cs3 Cs4 Fe2 54.738(15) 4 6_566
Cs2 Cs4 Fe2 58.495(15) 7_556 6_566
S1 Cs4 Fe2 107.55(3) . 6_566
Cs3 Cs4 Fe2 112.546(17) 4_545 6_566
S2 Cs4 Fe2 111.34(3) 4_545 6_566
Fe1 Cs4 Fe2 77.14(2) 4 6_566
Cs4 Cs4 Fe2 40.330(16) 7_556 6_566
Fe2 Cs4 Fe2 94.21(2) . 6_566
Fe2 Cs4 Fe2 141.203(15) 4_545 6_566
Cs2 Cs4 Fe2 147.799(17) 2 6_566
Fe1 Cs4 Fe2 64.233(18) 6_556 6_566
Cs4 Cs4 Fe2 145.601(19) 4_545 6_566
Cs4 Cs4 Fe2 96.417(14) 4 6_566
Cs2 Cs4 Fe2 77.870(14) . 6_566
Cs3 Cs4 Fe2 80.027(14) 6_556 6_566
Fe1 Cs4 Fe2 103.578(18) 3_455 6_566
Fe2 Cs4 Fe2 85.441(19) 4 6_566
Cs3 Cs4 Fe2 31.614(12) 6_566 6_566
Cs1 Cs4 Fe2 30.226(13) 7_556 6_566
Cs2 Cs4 Fe2 49.883(13) 3 6_566
Cs2 Cs4 Fe2 91.530(14) 3_545 6_566
Fe1 Cs4 Fe2 116.503(18) . 6_566
Fe2 Cs4 Fe2 119.52(2) 3_445 6_566
Fe1 Cs4 Fe2 93.381(18) 2_655 6_566
Fe1 Cs4 Fe2 119.269(18) 4_545 6_566
S3 Cs4 Fe2 63.88(4) . 5_666
S4 Cs4 Fe2 162.35(4) . 5_666
S3 Cs4 Fe2 77.68(4) 7_556 5_666
S4 Cs4 Fe2 59.73(4) 4 5_666
Cs1 Cs4 Fe2 137.722(18) . 5_666
S1 Cs4 Fe2 107.54(3) 4 5_666
Cs3 Cs4 Fe2 118.816(18) . 5_666
Cs3 Cs4 Fe2 54.368(15) 4 5_666
Cs2 Cs4 Fe2 38.678(15) 7_556 5_666
S1 Cs4 Fe2 85.69(3) . 5_666
Cs3 Cs4 Fe2 112.169(17) 4_545 5_666
S2 Cs4 Fe2 129.56(3) 4_545 5_666
Fe1 Cs4 Fe2 92.63(2) 4 5_666
Cs4 Cs4 Fe2 60.349(17) 7_556 5_666
Fe2 Cs4 Fe2 71.29(2) . 5_666
Fe2 Cs4 Fe2 156.43(2) 4_545 5_666
Cs2 Cs4 Fe2 150.057(17) 2 5_666
Fe1 Cs4 Fe2 64.213(18) 6_556 5_666
Cs4 Cs4 Fe2 128.137(19) 4_545 5_666
Cs4 Cs4 Fe2 84.552(15) 4 5_666
Cs2 Cs4 Fe2 100.992(15) . 5_666
Cs3 Cs4 Fe2 91.935(14) 6_556 5_666
Fe1 Cs4 Fe2 116.019(19) 3_455 5_666
Fe2 Cs4 Fe2 91.643(10) 4 5_666
Cs3 Cs4 Fe2 49.694(13) 6_566 5_666
Cs1 Cs4 Fe2 30.184(13) 7_556 5_666
Cs2 Cs4 Fe2 31.011(12) 3 5_666
Cs2 Cs4 Fe2 79.352(14) 3_545 5_666
Fe1 Cs4 Fe2 93.439(18) . 5_666
Fe2 Cs4 Fe2 141.036(12) 3_445 5_666
Fe1 Cs4 Fe2 71.257(16) 2_655 5_666
Fe1 Cs4 Fe2 132.736(18) 4_545 5_666
Fe2 Cs4 Fe2 23.12(2) 6_566 5_666
S3 Cs4 Fe1 82.79(4) . 6_566
S4 Cs4 Fe1 168.98(4) . 6_566
S3 Cs4 Fe1 60.28(4) 7_556 6_566
S4 Cs4 Fe1 60.02(4) 4 6_566
Cs1 Cs4 Fe1 118.018(18) . 6_566
S1 Cs4 Fe1 85.35(3) 4 6_566
Cs3 Cs4 Fe1 119.195(18) . 6_566
Cs3 Cs4 Fe1 33.832(14) 4 6_566
Cs2 Cs4 Fe1 60.255(16) 7_556 6_566
S1 Cs4 Fe1 102.66(3) . 6_566
Cs3 Cs4 Fe1 132.721(17) 4_545 6_566
S2 Cs4 Fe1 131.14(3) 4_545 6_566
Fe1 Cs4 Fe1 70.36(2) 4 6_566
Cs4 Cs4 Fe1 61.600(17) 7_556 6_566
Fe2 Cs4 Fe1 80.70(2) . 6_566
Fe2 Cs4 Fe1 159.71(2) 4_545 6_566
Cs2 Cs4 Fe1 131.125(17) 2 6_566
Fe1 Cs4 Fe1 83.525(18) 6_556 6_566
Cs4 Cs4 Fe1 147.26(2) 4_545 6_566
Cs4 Cs4 Fe1 73.583(13) 4 6_566
Cs2 Cs4 Fe1 89.707(15) . 6_566
Cs3 Cs4 Fe1 102.866(15) 6_556 6_566
Fe1 Cs4 Fe1 93.109(11) 3_455 6_566
Fe2 Cs4 Fe1 69.393(18) 4 6_566
Cs3 Cs4 Fe1 31.424(12) 6_566 6_566
Cs1 Cs4 Fe1 47.976(14) 7_556 6_566
Cs2 Cs4 Fe1 32.521(12) 3 6_566
Cs2 Cs4 Fe1 102.255(15) 3_545 6_566
Fe1 Cs4 Fe1 105.524(19) . 6_566
Fe2 Cs4 Fe1 134.569(18) 3_445 6_566
Fe1 Cs4 Fe1 88.428(17) 2_655 6_566
Fe1 Cs4 Fe1 141.299(12) 4_545 6_566
Fe2 Cs4 Fe1 22.843(14) 6_566 6_566
Fe2 Cs4 Fe1 22.911(15) 5_666 6_566
S3 Cs4 Cs2 176.94(4) . 6_565
S4 Cs4 Cs2 75.26(4) . 6_565
S3 Cs4 Cs2 80.78(4) 7_556 6_565
S4 Cs4 Cs2 70.39(4) 4 6_565
Cs1 Cs4 Cs2 61.326(12) . 6_565
S1 Cs4 Cs2 20.62(3) 4 6_565
Cs3 Cs4 Cs2 54.761(12) . 6_565
Cs3 Cs4 Cs2 60.326(13) 4 6_565
Cs2 Cs4 Cs2 126.591(16) 7_556 6_565
S1 Cs4 Cs2 102.59(3) . 6_565
Cs3 Cs4 Cs2 133.048(15) 4_545 6_565
S2 Cs4 Cs2 106.98(3) 4_545 6_565
Fe1 Cs4 Cs2 52.021(18) 4 6_565
Cs4 Cs4 Cs2 128.81(2) 7_556 6_565
Fe2 Cs4 Cs2 84.413(19) . 6_565
Fe2 Cs4 Cs2 89.552(19) 4_545 6_565
Cs2 Cs4 Cs2 37.320(14) 2 6_565
Fe1 Cs4 Cs2 177.052(18) 6_556 6_565
Cs4 Cs4 Cs2 94.695(15) 4_545 6_565
Cs4 Cs4 Cs2 36.717(11) 4 6_565
Cs2 Cs4 Cs2 92.836(12) . 6_565
Cs3 Cs4 Cs2 145.495(13) 6_556 6_565
Fe1 Cs4 Cs2 32.356(13) 3_455 6_565
Fe2 Cs4 Cs2 30.710(14) 4 6_565
Cs3 Cs4 Cs2 88.200(11) 6_566 6_565
Cs1 Cs4 Cs2 142.095(14) 7_556 6_565
Cs2 Cs4 Cs2 87.979(9) 3 6_565
Cs2 Cs4 Cs2 142.042(14) 3_545 6_565
Fe1 Cs4 Cs2 85.886(15) . 6_565
Fe2 Cs4 Cs2 90.442(15) 3_445 6_565
Fe1 Cs4 Cs2 106.654(15) 2_655 6_565
Fe1 Cs4 Cs2 111.372(16) 4_545 6_565
Fe2 Cs4 Cs2 113.894(14) 6_566 6_565
Fe2 Cs4 Cs2 113.117(15) 5_666 6_565
Fe1 Cs4 Cs2 94.157(14) 6_566 6_565
S3 Cs4 Cs2 109.70(4) . 6
S4 Cs4 Cs2 2.49(4) . 6
S3 Cs4 Cs2 117.54(4) 7_556 6
S4 Cs4 Cs2 112.81(4) 4 6
Cs1 Cs4 Cs2 57.572(11) . 6
S1 Cs4 Cs2 83.27(3) 4 6
Cs3 Cs4 Cs2 52.371(12) . 6
Cs3 Cs4 Cs2 133.661(15) 4 6
Cs2 Cs4 Cs2 126.105(16) 7_556 6
S1 Cs4 Cs2 79.23(3) . 6
Cs3 Cs4 Cs2 59.711(12) 4_545 6
S2 Cs4 Cs2 56.52(3) 4_545 6
Fe1 Cs4 Cs2 101.91(2) 4 6
Cs4 Cs4 Cs2 127.50(2) 7_556 6
Fe2 Cs4 Cs2 96.299(19) . 6
Fe2 Cs4 Cs2 26.635(17) 4_545 6
Cs2 Cs4 Cs2 36.659(13) 2 6
Fe1 Cs4 Cs2 108.911(17) 6_556 6
Cs4 Cs4 Cs2 36.590(10) 4_545 6
Cs4 Cs4 Cs2 94.896(14) 4 6
Cs2 Cs4 Cs2 92.320(12) . 6
Cs3 Cs4 Cs2 88.688(11) 6_556 6
Fe1 Cs4 Cs2 77.174(15) 3_455 6
Fe2 Cs4 Cs2 99.143(16) 4 6
Cs3 Cs4 Cs2 145.627(13) 6_566 6
Cs1 Cs4 Cs2 144.426(13) 7_556 6
Cs2 Cs4 Cs2 142.083(14) 3 6
Cs2 Cs4 Cs2 87.331(8) 3_545 6
Fe1 Cs4 Cs2 72.753(14) . 6
Fe2 Cs4 Cs2 49.112(13) 3_445 6
Fe1 Cs4 Cs2 93.709(15) 2_655 6
Fe1 Cs4 Cs2 48.782(14) 4_545 6
Fe2 Cs4 Cs2 167.827(15) 6_566 6
Fe2 Cs4 Cs2 164.669(15) 5_666 6
Fe1 Cs4 Cs2 167.424(15) 6_566 6
Cs2 Cs4 Cs2 73.351(9) 6_565 6
S3 Cs4 Cs1 108.01(4) . 3
S4 Cs4 Cs1 109.03(4) . 3
S3 Cs4 Cs1 113.34(4) 7_556 3
S4 Cs4 Cs1 3.66(4) 4 3
Cs1 Cs4 Cs1 131.650(16) . 3
S1 Cs4 Cs1 82.80(3) 4 3
Cs3 Cs4 Cs1 57.255(11) . 3
Cs3 Cs4 Cs1 55.017(11) 4 3
Cs2 Cs4 Cs1 56.421(11) 7_556 3
S1 Cs4 Cs1 54.00(3) . 3
Cs3 Cs4 Cs1 122.908(14) 4_545 3
S2 Cs4 Cs1 165.17(3) 4_545 3
Fe1 Cs4 Cs1 100.094(19) 4 3
Cs4 Cs4 Cs1 122.475(19) 7_556 3
Fe2 Cs4 Cs1 24.204(17) . 3
Fe2 Cs4 Cs1 135.935(19) 4_545 3
Cs2 Cs4 Cs1 94.394(11) 2 3
Fe1 Cs4 Cs1 106.936(16) 6_556 3
Cs4 Cs4 Cs1 90.136(14) 4_545 3
Cs4 Cs4 Cs1 33.814(10) 4 3
Cs2 Cs4 Cs1 146.125(14) . 3
Cs3 Cs4 Cs1 144.180(12) 6_556 3
Fe1 Cs4 Cs1 98.545(15) 3_455 3
Fe2 Cs4 Cs1 75.942(15) 4 3
Cs3 Cs4 Cs1 90.201(11) 6_566 3
Cs1 Cs4 Cs1 87.496(9) 7_556 3
Cs2 Cs4 Cs1 32.594(7) 3 3
Cs2 Cs4 Cs1 86.686(11) 3_545 3
Fe1 Cs4 Cs1 46.795(13) . 3
Fe2 Cs4 Cs1 155.947(16) 3_445 3
Fe1 Cs4 Cs1 46.547(13) 2_655 3
Fe1 Cs4 Cs1 151.624(16) 4_545 3
Fe2 Cs4 Cs1 82.474(12) 6_566 3
Fe2 Cs4 Cs1 62.481(12) 5_666 3
Fe1 Cs4 Cs1 63.550(12) 6_566 3
Cs2 Cs4 Cs1 70.325(9) 6_565 3
Cs2 Cs4 Cs1 109.538(10) 6 3
S3 Cs4 Fe2 132.58(4) . 3_455
S4 Cs4 Fe2 100.65(4) . 3_455
S3 Cs4 Fe2 34.84(4) 7_556 3_455
S4 Cs4 Fe2 94.87(4) 4 3_455
Cs1 Cs4 Fe2 48.071(16) . 3_455
S1 Cs4 Fe2 25.47(3) 4 3_455
Cs3 Cs4 Fe2 100.666(17) . 3_455
Cs3 Cs4 Fe2 50.156(14) 4 3_455
Cs2 Cs4 Fe2 132.834(18) 7_556 3_455
S1 Cs4 Fe2 146.35(3) . 3_455
Cs3 Cs4 Fe2 138.182(17) 4_545 3_455
S2 Cs4 Fe2 90.44(3) 4_545 3_455
Fe1 Cs4 Fe2 6.01(2) 4 3_455
Cs4 Cs4 Fe2 82.922(19) 7_556 3_455
Fe2 Cs4 Fe2 119.83(2) . 3_455
Fe2 Cs4 Fe2 95.560(12) 4_545 3_455
Cs2 Cs4 Fe2 66.719(14) 2 3_455
Fe1 Cs4 Fe2 134.400(19) 6_556 3_455
Cs4 Cs4 Fe2 132.547(19) 4_545 3_455
Cs4 Cs4 Fe2 68.836(13) 4 3_455
Cs2 Cs4 Fe2 53.124(13) . 3_455
Cs3 Cs4 Fe2 110.904(14) 6_556 3_455
Fe1 Cs4 Fe2 21.808(16) 3_455 3_455
Fe2 Cs4 Fe2 22.12(2) 4 3_455
Cs3 Cs4 Fe2 50.312(13) 6_566 3_455
Cs1 Cs4 Fe2 110.795(15) 7_556 3_455
Cs2 Cs4 Fe2 91.334(15) 3 3_455
Cs2 Cs4 Fe2 171.800(15) 3_545 3_455
Fe1 Cs4 Fe2 130.554(18) . 3_455
Fe2 Cs4 Fe2 78.101(15) 3_445 3_455
Fe1 Cs4 Fe2 143.585(18) 2_655 3_455
Fe1 Cs4 Fe2 103.584(18) 4_545 3_455
Fe2 Cs4 Fe2 81.809(11) 6_566 3_455
Fe2 Cs4 Fe2 95.915(16) 5_666 3_455
Fe1 Cs4 Fe2 73.244(16) 6_566 3_455
Cs2 Cs4 Fe2 46.038(12) 6_565 3_455
Cs2 Cs4 Fe2 98.168(14) 6 3_455
Cs1 Cs4 Fe2 97.113(13) 3 3_455
S3 Cs4 Fe1 92.43(4) . 3_445
S4 Cs4 Fe1 30.68(4) . 3_445
S3 Cs4 Fe1 97.17(4) 7_556 3_445
S4 Cs4 Fe1 143.03(4) 4 3_445
Cs1 Cs4 Fe1 45.338(16) . 3_445
S1 Cs4 Fe1 90.84(3) 4 3_445
Cs3 Cs4 Fe1 82.608(16) . 3_445
Cs3 Cs4 Fe1 142.856(18) 4 3_445
Cs2 Cs4 Fe1 132.726(18) 7_556 3_445
S1 Cs4 Fe1 99.52(3) . 3_445
Cs3 Cs4 Fe1 48.882(14) 4_545 3_445
S2 Cs4 Fe1 26.33(3) 4_545 3_445
Fe1 Cs4 Fe1 94.310(13) 4 3_445
Cs4 Cs4 Fe1 97.34(2) 7_556 3_445
Fe2 Cs4 Fe1 123.48(2) . 3_445
Fe2 Cs4 Fe1 3.952(19) 4_545 3_445
Cs2 Cs4 Fe1 54.922(14) 2 3_445
Fe1 Cs4 Fe1 92.435(11) 6_556 3_445
Cs4 Cs4 Fe1 55.473(13) 4_545 3_445
Cs4 Cs4 Fe1 121.105(18) 4 3_445
Cs2 Cs4 Fe1 66.270(13) . 3_445
Cs3 Cs4 Fe1 62.401(13) 6_556 3_445
Fe1 Cs4 Fe1 78.257(16) 3_455 3_445
Fe2 Cs4 Fe1 105.444(19) 4 3_445
Cs3 Cs4 Fe1 125.294(15) 6_566 3_445
Cs1 Cs4 Fe1 124.451(15) 7_556 3_445
Cs2 Cs4 Fe1 171.722(15) 3 3_445
Cs2 Cs4 Fe1 88.298(14) 3_545 3_445
Fe1 Cs4 Fe1 98.538(18) . 3_445
Fe2 Cs4 Fe1 21.408(15) 3_445 3_445
Fe1 Cs4 Fe1 113.02(2) 2_655 3_445
Fe1 Cs4 Fe1 21.72(2) 4_545 3_445
Fe2 Cs4 Fe1 137.646(17) 6_566 3_445
Fe2 Cs4 Fe1 154.335(17) 5_666 3_445
Fe1 Cs4 Fe1 155.76(2) 6_566 3_445
Cs2 Cs4 Fe1 90.422(14) 6_565 3_445
Cs2 Cs4 Fe1 30.236(11) 6 3_445
Cs1 Cs4 Fe1 139.706(13) 3 3_445
Fe2 Cs4 Fe1 93.400(16) 3_455 3_445
S3 Cs4 Fe2 93.66(4) . 2_655
S4 Cs4 Fe2 91.86(4) . 2_655
S3 Cs4 Fe2 140.62(4) 7_556 2_655
S4 Cs4 Fe2 31.16(4) 4 2_655
Cs1 Cs4 Fe2 140.085(16) . 2_655
S1 Cs4 Fe2 103.47(3) 4 2_655
Cs3 Cs4 Fe2 47.813(14) . 2_655
Cs3 Cs4 Fe2 82.799(15) 4 2_655
Cs2 Cs4 Fe2 48.530(14) 7_556 2_655
S1 Cs4 Fe2 26.07(3) . 2_655
Cs3 Cs4 Fe2 95.180(16) 4_545 2_655
S2 Cs4 Fe2 139.45(3) 4_545 2_655
Fe1 Cs4 Fe2 126.78(2) 4 2_655
Cs4 Cs4 Fe2 129.98(2) 7_556 2_655
Fe2 Cs4 Fe2 3.900(10) . 2_655
Fe2 Cs4 Fe2 116.01(2) 4_545 2_655
Cs2 Cs4 Fe2 94.656(15) 2 2_655
Fe1 Cs4 Fe2 92.071(19) 6_556 2_655
Cs4 Cs4 Fe2 65.132(15) 4_545 2_655
Cs4 Cs4 Fe2 54.492(15) 4 2_655
Cs2 Cs4 Fe2 173.638(16) . 2_655
Cs3 Cs4 Fe2 125.181(15) 6_556 2_655
Fe1 Cs4 Fe2 117.974(18) 3_455 2_655
Fe2 Cs4 Fe2 100.853(19) 4 2_655
Cs3 Cs4 Fe2 114.498(14) 6_566 2_655
Cs1 Cs4 Fe2 88.090(13) 7_556 2_655
Cs2 Cs4 Fe2 51.857(13) 3 2_655
Cs2 Cs4 Fe2 62.464(13) 3_545 2_655
Fe1 Cs4 Fe2 21.393(16) . 2_655
Fe2 Cs4 Fe2 141.250(18) 3_445 2_655
Fe1 Cs4 Fe2 21.548(15) 2_655 2_655
Fe1 Cs4 Fe2 124.760(17) 4_545 2_655
Fe2 Cs4 Fe2 96.945(15) 6_566 2_655
Fe2 Cs4 Fe2 73.898(14) 5_666 2_655
Fe1 Cs4 Fe2 84.180(16) 6_566 2_655
Cs2 Cs4 Fe2 85.869(13) 6_565 2_655
Cs2 Cs4 Fe2 93.273(13) 6 2_655
Cs1 Cs4 Fe2 27.978(11) 3 2_655
Fe2 Cs4 Fe2 122.895(19) 3_455 2_655
Fe1 Cs4 Fe2 119.927(16) 3_445 2_655
S3 Cs4 Cs1 70.69(4) . 3_545
S4 Cs4 Cs1 66.58(4) . 3_545
S3 Cs4 Cs1 168.40(4) 7_556 3_545
S4 Cs4 Cs1 73.96(4) 4 3_545
Cs1 Cs4 Cs1 126.086(17) . 3_545
S1 Cs4 Cs1 131.26(3) 4 3_545
Cs3 Cs4 Cs1 56.066(11) . 3_545
Cs3 Cs4 Cs1 125.279(15) 4 3_545
Cs2 Cs4 Cs1 57.242(12) 7_556 3_545
S1 Cs4 Cs1 16.91(3) . 3_545
Cs3 Cs4 Cs1 52.584(11) 4_545 3_545
S2 Cs4 Cs1 97.49(3) 4_545 3_545
Fe1 Cs4 Cs1 162.73(2) 4 3_545
Cs4 Cs4 Cs1 120.346(19) 7_556 3_545
Fe2 Cs4 Cs1 46.654(17) . 3_545
Fe2 Cs4 Cs1 81.281(18) 4_545 3_545
Cs2 Cs4 Cs1 93.747(10) 2 3_545
Fe1 Cs4 Cs1 68.870(15) 6_556 3_545
Cs4 Cs4 Cs1 32.384(9) 4_545 3_545
Cs4 Cs4 Cs1 92.362(14) 4 3_545
Cs2 Cs4 Cs1 142.800(13) . 3_545
Cs3 Cs4 Cs1 88.724(10) 6_556 3_545
Fe1 Cs4 Cs1 137.545(16) 3_455 3_545
Fe2 Cs4 Cs1 137.494(16) 4 3_545
Cs3 Cs4 Cs1 145.441(12) 6_566 3_545
Cs1 Cs4 Cs1 89.038(9) 7_556 3_545
Cs2 Cs4 Cs1 88.397(11) 3 3_545
Cs2 Cs4 Cs1 31.439(7) 3_545 3_545
Fe1 Cs4 Cs1 28.459(13) . 3_545
Fe2 Cs4 Cs1 104.560(15) 3_445 3_545
Fe1 Cs4 Cs1 28.544(13) 2_655 3_545
Fe1 Cs4 Cs1 82.788(14) 4_545 3_545
Fe2 Cs4 Cs1 114.976(13) 6_566 3_545
Fe2 Cs4 Cs1 95.771(13) 5_666 3_545
Fe1 Cs4 Cs1 115.678(14) 6_566 3_545
Cs2 Cs4 Cs1 110.716(10) 6_565 3_545
Cs2 Cs4 Cs1 68.923(8) 6 3_545
Cs1 Cs4 Cs1 70.848(6) 3 3_545
Fe2 Cs4 Cs1 156.727(14) 3_455 3_545
Fe1 Cs4 Cs1 84.572(12) 3_445 3_545
Fe2 Cs4 Cs1 42.873(12) 2_655 3_545
S3 Fe1 S1 115.81(10) 6 2_655
S3 Fe1 S2 114.56(10) 6 .
S1 Fe1 S2 103.75(9) 2_655 .
S3 Fe1 S1 112.52(9) 6 .
S1 Fe1 S1 104.01(8) 2_655 .
S2 Fe1 S1 104.97(9) . .
S3 Fe1 Fe2 142.43(9) 6 .
S1 Fe1 Fe2 101.73(7) 2_655 .
S2 Fe1 Fe2 53.68(6) . .
S1 Fe1 Fe2 53.03(6) . .
S3 Fe1 Fe1 144.54(7) 6 2_655
S1 Fe1 Fe1 53.64(7) 2_655 2_655
S2 Fe1 Fe1 100.84(6) . 2_655
S1 Fe1 Fe1 52.63(7) . 2_655
Fe2 Fe1 Fe1 60.14(4) . 2_655
S3 Fe1 Fe2 146.82(9) 6 2_655
S1 Fe1 Fe2 53.10(6) 2_655 2_655
S2 Fe1 Fe2 53.03(7) . 2_655
S1 Fe1 Fe2 100.66(7) . 2_655
Fe2 Fe1 Fe2 60.59(6) . 2_655
Fe1 Fe1 Fe2 59.79(4) 2_655 2_655
S3 Fe1 Cs1 77.76(7) 6 3_545
S1 Fe1 Cs1 68.87(6) 2_655 3_545
S2 Fe1 Cs1 167.68(7) . 3_545
S1 Fe1 Cs1 68.63(6) . 3_545
Fe2 Fe1 Cs1 116.90(5) . 3_545
Fe1 Fe1 Cs1 66.86(2) 2_655 3_545
Fe2 Fe1 Cs1 116.62(5) 2_655 3_545
S3 Fe1 Cs3 74.68(7) 6 .
S1 Fe1 Cs3 169.41(7) 2_655 .
S2 Fe1 Cs3 68.96(6) . .
S1 Fe1 Cs3 71.60(6) . .
Fe2 Fe1 Cs3 67.84(4) . .
Fe1 Fe1 Cs3 118.94(6) 2_655 .
Fe2 Fe1 Cs3 117.48(5) 2_655 .
Cs1 Fe1 Cs3 116.79(3) 3_545 .
S3 Fe1 Cs2 82.17(7) 6 8
S1 Fe1 Cs2 67.48(6) 2_655 8
S2 Fe1 Cs2 67.21(6) . 8
S1 Fe1 Cs2 165.31(7) . 8
Fe2 Fe1 Cs2 115.46(5) . 8
Fe1 Fe1 Cs2 115.15(6) 2_655 8
Fe2 Fe1 Cs2 64.65(4) 2_655 8
Cs1 Fe1 Cs2 116.42(3) 3_545 8
Cs3 Fe1 Cs2 114.53(4) . 8
S3 Fe1 S2 177.21(8) 6 2_655
S1 Fe1 S2 66.48(7) 2_655 2_655
S2 Fe1 S2 65.69(9) . 2_655
S1 Fe1 S2 64.97(7) . 2_655
Fe2 Fe1 S2 35.25(4) . 2_655
Fe1 Fe1 S2 35.16(4) 2_655 2_655
Fe2 Fe1 S2 35.70(4) 2_655 2_655
Cs1 Fe1 S2 102.02(5) 3_545 2_655
Cs3 Fe1 S2 103.08(4) . 2_655
Cs2 Fe1 S2 100.35(4) 8 2_655
S3 Fe1 Cs3 52.13(7) 6 7
S1 Fe1 Cs3 126.38(7) 2_655 7
S2 Fe1 Cs3 62.51(6) . 7
S1 Fe1 Cs3 129.42(7) . 7
Fe2 Fe1 Cs3 106.53(4) . 7
Fe1 Fe1 Cs3 163.329(19) 2_655 7
Fe2 Fe1 Cs3 105.77(4) 2_655 7
Cs1 Fe1 Cs3 129.77(4) 3_545 7
Cs3 Fe1 Cs3 58.03(2) . 7
Cs2 Fe1 Cs3 59.38(2) 8 7
S2 Fe1 Cs3 128.20(5) 2_655 7
S3 Fe1 Cs2 50.22(7) 6 4_545
S1 Fe1 Cs2 65.60(6) 2_655 4_545
S2 Fe1 Cs2 129.51(7) . 4_545
S1 Fe1 Cs2 125.51(7) . 4_545
Fe2 Fe1 Cs2 167.10(5) . 4_545
Fe1 Fe1 Cs2 108.01(4) 2_655 4_545
Fe2 Fe1 Cs2 110.00(4) 2_655 4_545
Cs1 Fe1 Cs2 57.60(2) 3_545 4_545
Cs3 Fe1 Cs2 124.90(4) . 4_545
Cs2 Fe1 Cs2 63.23(3) 8 4_545
S2 Fe1 Cs2 132.00(5) 2_655 4_545
Cs3 Fe1 Cs2 84.09(3) 7 4_545
S3 Fe1 Cs4 48.84(7) 6 4_545
S1 Fe1 Cs4 127.14(7) 2_655 4_545
S2 Fe1 Cs4 129.03(7) . 4_545
S1 Fe1 Cs4 63.70(6) . 4_545
Fe2 Fe1 Cs4 106.83(4) . 4_545
Fe1 Fe1 Cs4 106.62(4) 2_655 4_545
Fe2 Fe1 Cs4 164.34(5) 2_655 4_545
Cs1 Fe1 Cs4 58.69(2) 3_545 4_545
Cs3 Fe1 Cs4 60.24(2) . 4_545
Cs2 Fe1 Cs4 130.98(4) 8 4_545
S2 Fe1 Cs4 128.67(4) 2_655 4_545
Cs3 Fe1 Cs4 86.28(3) 7 4_545
Cs2 Fe1 Cs4 80.71(2) 4_545 4_545
S3 Fe1 S3 129.08(10) 6 5_656
S1 Fe1 S3 51.44(7) 2_655 5_656
S2 Fe1 S3 116.36(7) . 5_656
S1 Fe1 S3 52.67(7) . 5_656
Fe2 Fe1 S3 73.67(5) . 5_656
Fe1 Fe1 S3 15.58(3) 2_655 5_656
Fe2 Fe1 S3 72.18(5) 2_655 5_656
Cs1 Fe1 S3 51.32(3) 3_545 5_656
Cs3 Fe1 S3 123.90(4) . 5_656
Cs2 Fe1 S3 118.30(4) 8 5_656
S2 Fe1 S3 50.72(5) 2_655 5_656
Cs3 Fe1 S3 177.59(4) 7 5_656
Cs2 Fe1 S3 95.42(4) 4_545 5_656
Cs4 Fe1 S3 95.97(4) 4_545 5_656
S3 Fe1 S4 127.16(8) 6 4
S1 Fe1 S4 117.02(7) 2_655 4
S2 Fe1 S4 52.51(7) . 4
S1 Fe1 S4 52.65(6) . 4
Fe2 Fe1 S4 15.30(4) . 4
Fe1 Fe1 S4 73.16(5) 2_655 4
Fe2 Fe1 S4 73.23(5) 2_655 4
Cs1 Fe1 S4 120.98(4) 3_545 4
Cs3 Fe1 S4 52.54(3) . 4
Cs2 Fe1 S4 119.22(4) 8 4
S2 Fe1 S4 50.55(4) 2_655 4
Cs3 Fe1 S4 95.40(4) 7 4
Cs2 Fe1 S4 176.76(4) 4_545 4
Cs4 Fe1 S4 96.07(4) 4_545 4
S3 Fe1 S4 85.23(4) 5_656 4
S3 Fe1 S4 131.52(8) 6 3
S1 Fe1 S4 52.35(6) 2_655 3
S2 Fe1 S4 51.46(7) . 3
S1 Fe1 S4 115.96(7) . 3
Fe2 Fe1 S4 73.14(5) . 3
Fe1 Fe1 S4 72.84(5) 2_655 3
Fe2 Fe1 S4 15.30(4) 2_655 3
Cs1 Fe1 S4 120.77(4) 3_545 3
Cs3 Fe1 S4 120.20(4) . 3
Cs2 Fe1 S4 49.36(3) 8 3
S2 Fe1 S4 50.99(4) 2_655 3
Cs3 Fe1 S4 94.31(4) 7 3
Cs2 Fe1 S4 99.20(4) 4_545 3
Cs4 Fe1 S4 179.40(5) 4_545 3
S3 Fe1 S4 83.44(4) 5_656 3
S4 Fe1 S4 84.02(6) 4 3
S3 Fe1 Cs1 140.35(8) 6 3
S1 Fe1 Cs1 88.87(6) 2_655 3
S2 Fe1 Cs1 25.87(6) . 3
S1 Fe1 Cs1 88.56(6) . 3
Fe2 Fe1 Cs1 35.93(3) . 3
Fe1 Fe1 Cs1 74.979(14) 2_655 3
Fe2 Fe1 Cs1 36.03(3) 2_655 3
Cs1 Fe1 Cs1 141.84(3) 3_545 3
Cs3 Fe1 Cs1 81.47(2) . 3
Cs2 Fe1 Cs1 79.53(2) 8 3
S2 Fe1 Cs1 39.82(3) 2_655 3
Cs3 Fe1 Cs1 88.38(2) 7 3
Cs2 Fe1 Cs1 140.42(3) 4_545 3
Cs4 Fe1 Cs1 137.57(3) 4_545 3
S3 Fe1 Cs1 90.52(3) 5_656 3
S4 Fe1 Cs1 42.66(3) 4 3
S4 Fe1 Cs1 42.64(3) 3 3
S3 Fe1 Cs4 2.80(6) 6 6
S1 Fe1 Cs4 114.15(7) 2_655 6
S2 Fe1 Cs4 113.42(7) . 6
S1 Fe1 Cs4 115.30(6) . 6
Fe2 Fe1 Cs4 144.11(5) . 6
Fe1 Fe1 Cs4 145.734(15) 2_655 6
Fe2 Fe1 Cs4 144.04(5) 2_655 6
Cs1 Fe1 Cs4 78.88(2) 3_545 6
Cs3 Fe1 Cs4 76.27(2) . 6
Cs2 Fe1 Cs4 79.39(2) 8 6
S2 Fe1 Cs4 179.08(5) 2_655 6
Cs3 Fe1 Cs4 50.908(17) 7 6
Cs2 Fe1 Cs4 48.670(17) 4_545 6
Cs4 Fe1 Cs4 51.612(18) 4_545 6
S3 Fe1 Cs4 130.18(4) 5_656 6
S4 Fe1 Cs4 128.81(4) 4 6
S4 Fe1 Cs4 128.73(4) 3 6
Cs1 Fe1 Cs4 139.29(3) 3 6
S3 Fe1 Cs2 137.51(7) 6 7_556
S1 Fe1 Cs2 91.16(6) 2_655 7_556
S2 Fe1 Cs2 87.37(6) . 7_556
S1 Fe1 Cs2 25.27(6) . 7_556
Fe2 Fe1 Cs2 33.89(3) . 7_556
Fe1 Fe1 Cs2 37.92(4) 2_655 7_556
Fe2 Fe1 Cs2 75.57(4) 2_655 7_556
Cs1 Fe1 Cs2 83.03(2) 3_545 7_556
Cs3 Fe1 Cs2 81.02(2) . 7_556
Cs2 Fe1 Cs2 140.14(3) 8 7_556
S2 Fe1 Cs2 39.89(3) 2_655 7_556
Cs3 Fe1 Cs2 135.04(3) 7 7_556
Cs2 Fe1 Cs2 138.93(3) 4_545 7_556
Cs4 Fe1 Cs2 88.85(2) 4_545 7_556
S3 Fe1 Cs2 46.06(3) 5_656 7_556
S4 Fe1 Cs2 40.81(3) 4 7_556
S4 Fe1 Cs2 90.83(3) 3 7_556
Cs1 Fe1 Cs2 66.260(16) 3 7_556
Cs4 Fe1 Cs2 140.31(3) 6 7_556
S3 Fe1 Cs3 142.79(7) 6 2_655
S1 Fe1 Cs3 27.01(6) 2_655 2_655
S2 Fe1 Cs3 87.94(6) . 2_655
S1 Fe1 Cs3 87.43(6) . 2_655
Fe2 Fe1 Cs3 74.72(4) . 2_655
Fe1 Fe1 Cs3 35.12(4) 2_655 2_655
Fe2 Fe1 Cs3 35.27(3) 2_655 2_655
Cs1 Fe1 Cs3 81.36(2) 3_545 2_655
Cs3 Fe1 Cs3 142.53(3) . 2_655
Cs2 Fe1 Cs3 80.03(2) 8 2_655
S2 Fe1 Cs3 39.47(3) 2_655 2_655
Cs3 Fe1 Cs3 136.07(3) 7 2_655
Cs2 Fe1 Cs3 92.57(2) 4_545 2_655
Cs4 Fe1 Cs3 136.50(3) 4_545 2_655
S3 Fe1 Cs3 41.55(3) 5_656 2_655
S4 Fe1 Cs3 90.02(3) 4 2_655
S4 Fe1 Cs3 42.90(3) 3 2_655
Cs1 Fe1 Cs3 66.926(16) 3 2_655
Cs4 Fe1 Cs3 141.16(3) 6 2_655
Cs2 Fe1 Cs3 68.401(17) 7_556 2_655
S3 Fe1 Cs2 104.41(7) 6 3_545
S1 Fe1 Cs2 82.94(6) 2_655 3_545
S2 Fe1 Cs2 131.38(7) . 3_545
S1 Fe1 Cs2 29.90(6) . 3_545
Fe2 Fe1 Cs2 77.71(4) . 3_545
Fe1 Fe1 Cs2 45.02(3) 2_655 3_545
Fe2 Fe1 Cs2 104.64(4) 2_655 3_545
Cs1 Fe1 Cs2 39.930(16) 3_545 3_545
Cs3 Fe1 Cs2 96.12(3) . 3_545
Cs2 Fe1 Cs2 149.21(3) 8 3_545
S2 Fe1 Cs2 74.04(4) 2_655 3_545
Cs3 Fe1 Cs2 146.92(3) 7 3_545
Cs2 Fe1 Cs2 97.52(3) 4_545 3_545
Cs4 Fe1 Cs2 61.655(18) 4_545 3_545
S3 Fe1 Cs2 35.47(3) 5_656 3_545
S4 Fe1 Cs2 81.16(3) 4 3_545
S4 Fe1 Cs2 117.79(4) 3 3_545
Cs1 Fe1 Cs2 109.30(2) 3 3_545
Cs4 Fe1 Cs2 106.64(2) 6 3_545
Cs2 Fe1 Cs2 44.053(16) 7_556 3_545
Cs3 Fe1 Cs2 76.985(18) 2_655 3_545
S3 Fe1 Cs4 106.33(7) 6 3_545
S1 Fe1 Cs4 28.22(6) 2_655 3_545
S2 Fe1 Cs4 129.34(7) . 3_545
S1 Fe1 Cs4 84.60(6) . 3_545
Fe2 Fe1 Cs4 106.18(4) . 3_545
Fe1 Fe1 Cs4 46.45(3) 2_655 3_545
Fe2 Fe1 Cs4 76.37(4) 2_655 3_545
Cs1 Fe1 Cs4 41.504(15) 3_545 3_545
Cs3 Fe1 Cs4 154.00(3) . 3_545
Cs2 Fe1 Cs4 91.09(3) 8 3_545
S2 Fe1 Cs4 74.92(4) 2_655 3_545
Cs3 Fe1 Cs4 143.10(3) 7 3_545
Cs2 Fe1 Cs4 61.621(18) 4_545 3_545
Cs4 Fe1 Cs4 100.18(3) 4_545 3_545
S3 Fe1 Cs4 35.65(3) 5_656 3_545
S4 Fe1 Cs4 119.61(4) 4 3_545
S4 Fe1 Cs4 79.28(3) 3 3_545
Cs1 Fe1 Cs4 108.88(2) 3 3_545
Cs4 Fe1 Cs4 105.95(2) 6 3_545
Cs2 Fe1 Cs4 81.702(19) 7_556 3_545
Cs3 Fe1 Cs4 42.140(13) 2_655 3_545
Cs2 Fe1 Cs4 58.127(15) 3_545 3_545
S3 Fe1 Cs2 110.07(7) 6 4
S1 Fe1 Cs2 84.17(6) 2_655 4
S2 Fe1 Cs2 25.80(6) . 4
S1 Fe1 Cs2 126.78(6) . 4
Fe2 Fe1 Cs2 73.75(4) . 4
Fe1 Fe1 Cs2 102.63(3) 2_655 4
Fe2 Fe1 Cs2 43.63(3) 2_655 4
Cs1 Fe1 Cs2 152.28(3) 3_545 4
Cs3 Fe1 Cs2 90.86(3) . 4
Cs2 Fe1 Cs2 42.79(2) 8 4
S2 Fe1 Cs2 71.42(4) 2_655 4
Cs3 Fe1 Cs2 62.197(18) 7 4
Cs2 Fe1 Cs2 106.02(3) 4_545 4
Cs4 Fe1 Cs2 146.20(3) 4_545 4
S3 Fe1 Cs2 115.79(4) 5_656 4
S4 Fe1 Cs2 76.47(3) 4 4
S4 Fe1 Cs2 34.39(3) 3 4
Cs1 Fe1 Cs2 38.472(10) 3 4
Cs4 Fe1 Cs2 107.89(2) 6 4
Cs2 Fe1 Cs2 104.54(2) 7_556 4
Cs3 Fe1 Cs2 77.030(18) 2_655 4
Cs2 Fe1 Cs2 145.45(2) 3_545 4
Cs4 Fe1 Cs2 112.26(2) 3_545 4
S3 Fe1 Cs4 102.81(7) 6 .
S1 Fe1 Cs4 132.85(7) 2_655 .
S2 Fe1 Cs4 82.07(6) . .
S1 Fe1 Cs4 32.60(6) . .
Fe2 Fe1 Cs4 44.51(3) . .
Fe1 Fe1 Cs4 79.23(5) 2_655 .
Fe2 Fe1 Cs4 105.01(4) 2_655 .
Cs1 Fe1 Cs4 95.74(2) 3_545 .
Cs3 Fe1 Cs4 40.425(17) . .
Cs2 Fe1 Cs4 147.68(3) 8 .
S2 Fe1 Cs4 74.43(4) 2_655 .
Cs3 Fe1 Cs4 98.20(2) 7 .
Cs2 Fe1 Cs4 142.86(3) 4_545 .
Cs4 Fe1 Cs4 62.582(16) 4_545 .
S3 Fe1 Cs4 83.62(3) 5_656 .
S4 Fe1 Cs4 34.02(3) 4 .
S4 Fe1 Cs4 117.44(4) 3 .
Cs1 Fe1 Cs4 76.667(16) 3 .
Cs4 Fe1 Cs4 105.32(2) 6 .
Cs2 Fe1 Cs4 41.870(12) 7_556 .
Cs3 Fe1 Cs4 109.68(2) 2_655 .
Cs2 Fe1 Cs4 61.218(15) 3_545 .
Cs4 Fe1 Cs4 117.14(2) 3_545 .
Cs2 Fe1 Cs4 107.72(2) 4 .
S3 Fe1 Cs4 111.05(7) 6 2_655
S1 Fe1 Cs4 28.27(6) 2_655 2_655
S2 Fe1 Cs4 81.68(6) . 2_655
S1 Fe1 Cs4 127.47(7) . 2_655
Fe2 Fe1 Cs4 102.59(4) . 2_655
Fe1 Fe1 Cs4 74.85(5) 2_655 2_655
Fe2 Fe1 Cs4 42.38(3) 2_655 2_655
Cs1 Fe1 Cs4 93.88(2) 3_545 2_655
Cs3 Fe1 Cs4 149.12(3) . 2_655
Cs2 Fe1 Cs4 41.130(17) 8 2_655
S2 Fe1 Cs4 71.73(4) 2_655 2_655
Cs3 Fe1 Cs4 100.37(2) 7 2_655
Cs2 Fe1 Cs4 67.625(19) 4_545 2_655
Cs4 Fe1 Cs4 146.56(3) 4_545 2_655
S3 Fe1 Cs4 77.28(3) 5_656 2_655
S4 Fe1 Cs4 115.60(4) 4 2_655
S4 Fe1 Cs4 33.17(3) 3 2_655
Cs1 Fe1 Cs4 75.716(16) 3 2_655
Cs4 Fe1 Cs4 108.47(2) 6 2_655
Cs2 Fe1 Cs4 107.73(2) 7_556 2_655
Cs3 Fe1 Cs4 40.189(12) 2_655 2_655
Cs2 Fe1 Cs4 110.83(2) 3_545 2_655
Cs4 Fe1 Cs4 55.806(13) 3_545 2_655
Cs2 Fe1 Cs4 58.404(14) 4 2_655
Cs4 Fe1 Cs4 146.05(2) . 2_655
S3 Fe1 Cs4 108.13(7) 6 4
S1 Fe1 Cs4 127.94(6) 2_655 4
S2 Fe1 Cs4 29.08(6) . 4
S1 Fe1 Cs4 82.51(6) . 4
Fe2 Fe1 Cs4 42.07(3) . 4
Fe1 Fe1 Cs4 101.71(3) 2_655 4
Fe2 Fe1 Cs4 74.85(4) 2_655 4
Cs1 Fe1 Cs4 150.21(3) 3_545 4
Cs3 Fe1 Cs4 42.844(17) . 4
Cs2 Fe1 Cs4 93.38(3) 8 4
S2 Fe1 Cs4 70.66(4) 2_655 4
Cs3 Fe1 Cs4 64.465(19) 7 4
Cs2 Fe1 Cs4 147.89(3) 4_545 4
Cs4 Fe1 Cs4 102.41(2) 4_545 4
S3 Fe1 Cs4 115.73(4) 5_656 4
S4 Fe1 Cs4 32.39(3) 4 4
S4 Fe1 Cs4 77.98(3) 3 4
Cs1 Fe1 Cs4 39.180(10) 3 4
Cs4 Fe1 Cs4 108.46(2) 6 4
Cs2 Fe1 Cs4 73.134(17) 7_556 4
Cs3 Fe1 Cs4 105.31(2) 2_655 4
Cs2 Fe1 Cs4 112.23(2) 3_545 4
Cs4 Fe1 Cs4 145.55(2) 3_545 4
Cs2 Fe1 Cs4 54.592(13) 4 4
Cs4 Fe1 Cs4 54.526(13) . 4
Cs4 Fe1 Cs4 110.05(2) 2_655 4
S3 Fe1 Cs3 84.28(7) 6 3_545
S1 Fe1 Cs3 31.57(6) 2_655 3_545
S2 Fe1 Cs3 118.85(7) . 3_545
S1 Fe1 Cs3 120.80(6) . 3_545
Fe2 Fe1 Cs3 133.28(4) . 3_545
Fe1 Fe1 Cs3 80.33(4) 2_655 3_545
Fe2 Fe1 Cs3 79.01(4) 2_655 3_545
Cs1 Fe1 Cs3 60.112(18) 3_545 3_545
Cs3 Fe1 Cs3 158.73(3) . 3_545
Cs2 Fe1 Cs3 58.271(19) 8 3_545
S2 Fe1 Cs3 98.04(4) 2_655 3_545
Cs3 Fe1 Cs3 106.24(2) 7 3_545
Cs2 Fe1 Cs3 34.154(14) 4_545 3_545
Cs4 Fe1 Cs3 107.65(2) 4_545 3_545
S3 Fe1 Cs3 72.29(3) 5_656 3_545
S4 Fe1 Cs3 148.56(4) 4 3_545
S4 Fe1 Cs3 72.06(3) 3 3_545
Cs1 Fe1 Cs3 114.24(2) 3 3_545
Cs4 Fe1 Cs3 82.583(18) 6 3_545
Cs2 Fe1 Cs3 117.77(2) 7_556 3_545
Cs3 Fe1 Cs3 58.574(14) 2_655 3_545
Cs2 Fe1 Cs3 92.029(19) 3_545 3_545
Cs4 Fe1 Cs3 37.094(11) 3_545 3_545
Cs2 Fe1 Cs3 93.513(18) 4 3_545
Cs4 Fe1 Cs3 153.21(2) . 3_545
Cs4 Fe1 Cs3 38.964(11) 2_655 3_545
Cs4 Fe1 Cs3 147.93(2) 4 3_545
S3 Fe1 Fe2 66.66(7) 6 1_545
S1 Fe1 Fe2 84.87(6) 2_655 1_545
S2 Fe1 Fe2 168.71(7) . 1_545
S1 Fe1 Fe2 65.38(6) . 1_545
Fe2 Fe1 Fe2 117.93(4) . 1_545
Fe1 Fe1 Fe2 78.237(18) 2_655 1_545
Fe2 Fe1 Fe2 132.35(4) 2_655 1_545
Cs1 Fe1 Fe2 16.260(15) 3_545 1_545
Cs3 Fe1 Fe2 101.45(3) . 1_545
Cs2 Fe1 Fe2 123.53(3) 8 1_545
S2 Fe1 Fe2 112.51(4) 2_655 1_545
Cs3 Fe1 Fe2 118.23(3) 7 1_545
Cs2 Fe1 Fe2 60.57(2) 4_545 1_545
Cs4 Fe1 Fe2 42.470(17) 4_545 1_545
S3 Fe1 Fe2 63.34(3) 5_656 1_545
S4 Fe1 Fe2 117.16(4) 4 1_545
S4 Fe1 Fe2 136.99(4) 3 1_545
Cs1 Fe1 Fe2 150.62(3) 3 1_545
Cs4 Fe1 Fe2 68.315(18) 6 1_545
Cs2 Fe1 Fe2 85.16(2) 7_556 1_545
Cs3 Fe1 Fe2 97.13(2) 2_655 1_545
Cs2 Fe1 Fe2 41.453(15) 3_545 1_545
Cs4 Fe1 Fe2 57.756(17) 3_545 1_545
Cs2 Fe1 Fe2 165.49(2) 4 1_545
Cs4 Fe1 Fe2 86.725(19) . 1_545
Cs4 Fe1 Fe2 108.67(2) 2_655 1_545
Cs4 Fe1 Fe2 139.77(2) 4 1_545
Cs3 Fe1 Fe2 72.253(17) 3_545 1_545
S3 Fe1 Fe2 67.88(7) 6 2_645
S1 Fe1 Fe2 65.22(6) 2_655 2_645
S2 Fe1 Fe2 167.28(7) . 2_645
S1 Fe1 Fe2 84.59(6) . 2_645
Fe2 Fe1 Fe2 132.50(4) . 2_645
Fe1 Fe1 Fe2 78.076(18) 2_655 2_645
Fe2 Fe1 Fe2 117.62(4) 2_655 2_645
Cs1 Fe1 Fe2 16.145(15) 3_545 2_645
Cs3 Fe1 Fe2 122.84(3) . 2_645
Cs2 Fe1 Fe2 101.56(3) 8 2_645
S2 Fe1 Fe2 112.54(4) 2_655 2_645
Cs3 Fe1 Fe2 117.90(3) 7 2_645
Cs2 Fe1 Fe2 41.451(17) 4_545 2_645
Cs4 Fe1 Fe2 62.60(2) 4_545 2_645
S3 Fe1 Fe2 62.67(3) 5_656 2_645
S4 Fe1 Fe2 137.09(4) 4 2_645
S4 Fe1 Fe2 116.96(4) 3 2_645
Cs1 Fe1 Fe2 150.47(3) 3 2_645
Cs4 Fe1 Fe2 68.381(19) 6 2_645
Cs2 Fe1 Fe2 98.80(2) 7_556 2_645
Cs3 Fe1 Fe2 84.06(2) 2_655 2_645
Cs2 Fe1 Fe2 56.070(17) 3_545 2_645
Cs4 Fe1 Fe2 41.924(15) 3_545 2_645
Cs2 Fe1 Fe2 141.70(2) 4 2_645
Cs4 Fe1 Fe2 109.95(2) . 2_645
Cs4 Fe1 Fe2 85.832(19) 2_655 2_645
Cs4 Fe1 Fe2 163.63(2) 4 2_645
Cs3 Fe1 Fe2 48.432(14) 3_545 2_645
Fe2 Fe1 Fe2 23.88(2) 1_545 2_645
S3 Fe1 Cs3 83.80(7) 6 4_545
S1 Fe1 Cs3 118.09(7) 2_655 4_545
S2 Fe1 Cs3 120.69(7) . 4_545
S1 Fe1 Cs3 28.75(6) . 4_545
Fe2 Fe1 Cs3 77.05(4) . 4_545
Fe1 Fe1 Cs3 76.15(4) 2_655 4_545
Fe2 Fe1 Cs3 129.38(4) 2_655 4_545
Cs1 Fe1 Cs3 58.675(18) 3_545 4_545
Cs3 Fe1 Cs3 62.65(2) . 4_545
Cs2 Fe1 Cs3 165.89(3) 8 4_545
S2 Fe1 Cs3 93.71(4) 2_655 4_545
Cs3 Fe1 Cs3 112.18(3) 7 4_545
Cs2 Fe1 Cs3 106.15(2) 4_545 4_545
Cs4 Fe1 Cs3 34.964(13) 4_545 4_545
S3 Fe1 Cs3 70.22(3) 5_656 4_545
S4 Fe1 Cs3 71.07(3) 4 4_545
S4 Fe1 Cs3 144.69(4) 3 4_545
Cs1 Fe1 Cs3 112.65(2) 3 4_545
Cs4 Fe1 Cs3 86.576(18) 6 4_545
Cs2 Fe1 Cs3 53.965(13) 7_556 4_545
Cs3 Fe1 Cs3 110.79(2) 2_655 4_545
Cs2 Fe1 Cs3 35.558(11) 3_545 4_545
Cs4 Fe1 Cs3 91.441(18) 3_545 4_545
Cs2 Fe1 Cs3 146.43(2) 4 4_545
Cs4 Fe1 Cs3 38.725(10) . 4_545
Cs4 Fe1 Cs3 146.27(2) 2_655 4_545
Cs4 Fe1 Cs3 92.365(17) 4 4_545
Cs3 Fe1 Cs3 118.78(2) 3_545 4_545
Fe2 Fe1 Cs3 48.049(14) 1_545 4_545
Fe2 Fe1 Cs3 71.590(17) 2_645 4_545
S3 Fe1 Fe1 61.59(7) 6 5_655
S1 Fe1 Fe1 62.08(6) 2_655 5_655
S2 Fe1 Fe1 100.82(7) . 5_655
S1 Fe1 Fe1 153.17(7) . 5_655
Fe2 Fe1 Fe1 147.79(5) . 5_655
Fe1 Fe1 Fe1 115.21(6) 2_655 5_655
Fe2 Fe1 Fe1 88.91(4) 2_655 5_655
Cs1 Fe1 Fe1 84.64(3) 3_545 5_655
Cs3 Fe1 Fe1 125.84(4) . 5_655
Cs2 Fe1 Fe1 34.066(16) 8 5_655
S2 Fe1 Fe1 121.19(5) 2_655 5_655
Cs3 Fe1 Fe1 69.96(2) 7 5_655
Cs2 Fe1 Fe1 29.164(14) 4_545 5_655
Cs4 Fe1 Fe1 104.87(3) 4_545 5_655
S3 Fe1 Fe1 108.54(4) 5_656 5_655
S4 Fe1 Fe1 153.23(4) 4 5_655
S4 Fe1 Fe1 75.22(4) 3 5_655
Cs1 Fe1 Fe1 112.60(3) 3 5_655
Cs4 Fe1 Fe1 59.011(19) 6 5_655
Cs2 Fe1 Fe1 153.12(3) 7_556 5_655
Cs3 Fe1 Fe1 86.19(2) 2_655 5_655
Cs2 Fe1 Fe1 123.43(3) 3_545 5_655
Cs4 Fe1 Fe1 73.28(2) 3_545 5_655
Cs2 Fe1 Fe1 76.85(2) 4 5_655
Cs4 Fe1 Fe1 164.03(3) . 5_655
Cs4 Fe1 Fe1 49.463(17) 2_655 5_655
Cs4 Fe1 Fe1 124.30(3) 4 5_655
Cs3 Fe1 Fe1 36.271(15) 3_545 5_655
Fe2 Fe1 Fe1 89.61(3) 1_545 5_655
Fe2 Fe1 Fe1 68.84(2) 2_645 5_655
Cs3 Fe1 Fe1 134.73(3) 4_545 5_655
S3 Fe1 Fe1 58.88(7) 6 7
S1 Fe1 Fe1 152.06(7) 2_655 7
S2 Fe1 Fe1 61.76(6) . 7
S1 Fe1 Fe1 102.93(7) . 7
Fe2 Fe1 Fe1 88.61(4) . 7
Fe1 Fe1 Fe1 147.59(6) 2_655 7
Fe2 Fe1 Fe1 114.24(5) 2_655 7
Cs1 Fe1 Fe1 129.14(4) 3_545 7
Cs3 Fe1 Fe1 31.430(14) . 7
Cs2 Fe1 Fe1 84.61(3) 8 7
S2 Fe1 Fe1 119.97(5) 2_655 7
Cs3 Fe1 Fe1 26.597(12) 7 7
Cs2 Fe1 Fe1 103.81(3) 4_545 7
Cs4 Fe1 Fe1 72.43(2) 4_545 7
S3 Fe1 Fe1 155.31(4) 5_656 7
S4 Fe1 Fe1 74.74(4) 4 7
S4 Fe1 Fe1 108.16(4) 3 7
Cs1 Fe1 Fe1 84.51(2) 3 7
Cs4 Fe1 Fe1 59.144(19) 6 7
Cs2 Fe1 Fe1 110.65(3) 7_556 7
Cs3 Fe1 Fe1 149.50(3) 2_655 7
Cs2 Fe1 Fe1 124.84(3) 3_545 7
Cs4 Fe1 Fe1 165.00(3) 3_545 7
Cs2 Fe1 Fe1 73.81(2) 4 7
Cs4 Fe1 Fe1 71.70(2) . 7
Cs4 Fe1 Fe1 124.30(3) 2_655 7
Cs4 Fe1 Fe1 49.312(17) 4 7
Cs3 Fe1 Fe1 131.58(3) 3_545 7
Fe2 Fe1 Fe1 113.30(3) 1_545 7
Fe2 Fe1 Fe1 125.02(3) 2_645 7
Cs3 Fe1 Fe1 89.40(2) 4_545 7
Fe1 Fe1 Fe1 95.65(3) 5_655 7
S3 Fe1 Cs3 154.52(7) 6 8_556
S1 Fe1 Cs3 56.59(6) 2_655 8_556
S2 Fe1 Cs3 90.77(6) . 8_556
S1 Fe1 Cs3 54.38(6) . 8_556
Fe2 Fe1 Cs3 51.75(4) . 8_556
Fe1 Fe1 Cs3 10.098(12) 2_655 8_556
Fe2 Fe1 Cs3 52.22(3) 2_655 8_556
Cs1 Fe1 Cs3 76.94(2) 3_545 8_556
Cs3 Fe1 Cs3 114.68(3) . 8_556
Cs2 Fe1 Cs3 112.03(3) 8 8_556
S2 Fe1 Cs3 25.08(3) 2_655 8_556
Cs3 Fe1 Cs3 153.28(3) 7 8_556
Cs2 Fe1 Cs3 115.89(3) 4_545 8_556
Cs4 Fe1 Cs3 113.23(2) 4_545 8_556
S3 Fe1 Cs3 25.68(3) 5_656 8_556
S4 Fe1 Cs3 65.65(3) 4 8_556
S4 Fe1 Cs3 66.27(3) 3 8_556
Cs1 Fe1 Cs3 64.903(14) 3 8_556
Cs4 Fe1 Cs3 155.81(2) 6 8_556
Cs2 Fe1 Cs3 35.013(11) 7_556 8_556
Cs3 Fe1 Cs3 33.720(12) 2_655 8_556
Cs2 Fe1 Cs3 52.550(13) 3_545 8_556
Cs4 Fe1 Cs3 54.432(13) 3_545 8_556
Cs2 Fe1 Cs3 93.905(18) 4 8_556
Cs4 Fe1 Cs3 76.832(16) . 8_556
Cs4 Fe1 Cs3 73.792(15) 2_655 8_556
Cs4 Fe1 Cs3 92.550(17) 4 8_556
Cs3 Fe1 Cs3 85.794(16) 3_545 8_556
Fe2 Fe1 Cs3 87.960(19) 1_545 8_556
Fe2 Fe1 Cs3 88.065(19) 2_645 8_556
Cs3 Fe1 Cs3 80.545(16) 4_545 8_556
Fe1 Fe1 Cs3 118.60(3) 5_655 8_556
Fe1 Fe1 Cs3 140.30(3) 7 8_556
S3 Fe1 Cs4 84.66(7) 6 6_565
S1 Fe1 Cs4 119.32(6) 2_655 6_565
S2 Fe1 Cs4 29.90(6) . 6_565
S1 Fe1 Cs4 120.13(6) . 6_565
Fe2 Fe1 Cs4 78.02(4) . 6_565
Fe1 Fe1 Cs4 130.740(12) 2_655 6_565
Fe2 Fe1 Cs4 78.16(4) 2_655 6_565
Cs1 Fe1 Cs4 162.40(3) 3_545 6_565
Cs3 Fe1 Cs4 58.12(2) . 6_565
Cs2 Fe1 Cs4 59.42(2) 8 6_565
S2 Fe1 Cs4 95.58(4) 2_655 6_565
Cs3 Fe1 Cs4 32.631(14) 7 6_565
Cs2 Fe1 Cs4 109.76(2) 4_545 6_565
Cs4 Fe1 Cs4 109.64(2) 4_545 6_565
S3 Fe1 Cs4 146.26(4) 5_656 6_565
S4 Fe1 Cs4 70.91(3) 4 6_565
S4 Fe1 Cs4 70.95(3) 3 6_565
Cs1 Fe1 Cs4 55.761(13) 3 6_565
Cs4 Fe1 Cs4 83.525(18) 6 6_565
Cs2 Fe1 Cs4 111.17(2) 7_556 6_565
Cs3 Fe1 Cs4 113.02(2) 2_655 6_565
Cs2 Fe1 Cs4 149.95(2) 3_545 6_565
Cs4 Fe1 Cs4 147.37(2) 3_545 6_565
Cs2 Fe1 Cs4 36.622(11) 4 6_565
Cs4 Fe1 Cs4 88.960(17) . 6_565
Cs4 Fe1 Cs4 91.572(17) 2_655 6_565
Cs4 Fe1 Cs4 38.701(12) 4 6_565
Cs3 Fe1 Cs4 117.601(19) 3_545 6_565
Fe2 Fe1 Cs4 149.17(2) 1_545 6_565
Fe2 Fe1 Cs4 149.19(2) 2_645 6_565
Cs3 Fe1 Cs4 120.635(19) 4_545 6_565
Fe1 Fe1 Cs4 86.24(2) 5_655 6_565
Fe1 Fe1 Cs4 37.210(15) 7 6_565
Cs3 Fe1 Cs4 120.662(19) 8_556 6_565
S3 Fe1 Cs2 150.59(7) 6 3
S1 Fe1 Cs2 93.57(6) 2_655 3
S2 Fe1 Cs2 52.47(6) . 3
S1 Fe1 Cs2 57.53(6) . 3
Fe2 Fe1 Cs2 8.66(3) . 3
Fe1 Fe1 Cs2 55.45(2) 2_655 3
Fe2 Fe1 Cs2 52.25(3) 2_655 3
Cs1 Fe1 Cs2 116.86(3) 3_545 3
Cs3 Fe1 Cs2 75.92(2) . 3
Cs2 Fe1 Cs2 109.79(3) 8 3
S2 Fe1 Cs2 27.26(3) 2_655 3
Cs3 Fe1 Cs2 109.88(2) 7 3
Cs2 Fe1 Cs2 159.17(3) 4_545 3
Cs4 Fe1 Cs2 114.63(2) 4_545 3
S3 Fe1 Cs2 69.96(3) 5_656 3
S4 Fe1 Cs2 23.57(3) 4 3
S4 Fe1 Cs2 65.30(3) 3 3
Cs1 Fe1 Cs2 31.171(9) 3 3
Cs4 Fe1 Cs2 152.03(2) 6 3
Cs2 Fe1 Cs2 35.443(14) 7_556 3
Cs3 Fe1 Cs2 66.617(15) 2_655 3
Cs2 Fe1 Cs2 79.327(16) 3_545 3
Cs4 Fe1 Cs2 100.353(19) 3_545 3
Cs2 Fe1 Cs2 69.641(16) 4 3
Cs4 Fe1 Cs2 52.760(12) . 3
Cs4 Fe1 Cs2 94.031(17) 2_655 3
Cs4 Fe1 Cs2 46.293(12) 4 3
Cs3 Fe1 Cs2 125.03(2) 3_545 3
Fe2 Fe1 Cs2 120.60(2) 1_545 3
Fe2 Fe1 Cs2 131.44(2) 2_645 3
Cs3 Fe1 Cs2 83.374(15) 4_545 3
Fe1 Fe1 Cs2 140.46(3) 5_655 3
Fe1 Fe1 Cs2 94.63(2) 7 3
Cs3 Fe1 Cs2 46.297(11) 8_556 3
Cs4 Fe1 Cs2 79.355(15) 6_565 3
S3 Fe1 Cs4 152.62(7) 6 3
S1 Fe1 Cs4 56.94(6) 2_655 3
S2 Fe1 Cs4 51.77(6) . 3
S1 Fe1 Cs4 94.68(6) . 3
Fe2 Fe1 Cs4 54.19(3) . 3
Fe1 Fe1 Cs4 56.57(2) 2_655 3
Fe2 Fe1 Cs4 6.55(3) 2_655 3
Cs1 Fe1 Cs4 117.08(3) 3_545 3
Cs3 Fe1 Cs4 113.19(3) . 3
Cs2 Fe1 Cs4 70.67(2) 8 3
S2 Fe1 Cs4 29.77(3) 2_655 3
Cs3 Fe1 Cs4 108.13(2) 7 3
Cs2 Fe1 Cs4 116.07(2) 4_545 3
Cs4 Fe1 Cs4 158.31(3) 4_545 3
S3 Fe1 Cs4 69.96(3) 5_656 3
S4 Fe1 Cs4 67.13(3) 4 3
S4 Fe1 Cs4 21.40(3) 3 3
Cs1 Fe1 Cs4 31.974(9) 3 3
Cs4 Fe1 Cs4 149.89(2) 6 3
Cs2 Fe1 Cs4 69.480(15) 7_556 3
Cs3 Fe1 Cs4 36.257(11) 2_655 3
Cs2 Fe1 Cs4 100.801(19) 3_545 3
Cs4 Fe1 Cs4 78.257(16) 3_545 3
Cs2 Fe1 Cs4 46.090(11) 4 3
Cs4 Fe1 Cs4 98.538(18) . 3
Cs4 Fe1 Cs4 48.567(11) 2_655 3
Cs4 Fe1 Cs4 71.151(16) 4 3
Cs3 Fe1 Cs4 84.328(16) 3_545 3
Fe2 Fe1 Cs4 132.08(2) 1_545 3
Fe2 Fe1 Cs4 120.08(2) 2_645 3
Cs3 Fe1 Cs4 123.425(19) 4_545 3
Fe1 Fe1 Cs4 95.45(2) 5_655 3
Fe1 Fe1 Cs4 113.52(3) 7 3
Cs3 Fe1 Cs4 48.270(11) 8_556 3
Cs4 Fe1 Cs4 78.748(13) 6_565 3
Cs2 Fe1 Cs4 45.789(10) 3 3
S3 Fe1 Fe2 38.66(7) 6 7
S1 Fe1 Fe2 138.67(7) 2_655 7
S2 Fe1 Fe2 77.22(6) . 7
S1 Fe1 Fe2 115.77(6) . 7
Fe2 Fe1 Fe2 110.61(4) . 7
Fe1 Fe1 Fe2 167.69(6) 2_655 7
Fe2 Fe1 Fe2 124.63(4) 2_655 7
Cs1 Fe1 Fe2 114.93(3) 3_545 7
Cs3 Fe1 Fe2 48.88(2) . 7
Cs2 Fe1 Fe2 75.58(2) 8 7
S2 Fe1 Fe2 140.69(4) 2_655 7
Cs3 Fe1 Fe2 19.304(15) 7 7
Cs2 Fe1 Fe2 81.85(2) 4_545 7
Cs4 Fe1 Fe2 66.98(2) 4_545 7
S3 Fe1 Fe2 162.94(4) 5_656 7
S4 Fe1 Fe2 96.60(3) 4 7
S4 Fe1 Fe2 113.61(4) 3 7
Cs1 Fe1 Fe2 102.35(2) 3 7
Cs4 Fe1 Fe2 38.398(14) 6 7
Cs2 Fe1 Fe2 129.88(2) 7_556 7
Cs3 Fe1 Fe2 154.88(2) 2_655 7
Cs2 Fe1 Fe2 127.93(2) 3_545 7
Cs4 Fe1 Fe2 143.13(2) 3_545 7
Cs2 Fe1 Fe2 81.010(18) 4 7
Cs4 Fe1 Fe2 88.462(19) . 7
Cs4 Fe1 Fe2 116.49(2) 2_655 7
Cs4 Fe1 Fe2 70.592(17) 4 7
Cs3 Fe1 Fe2 111.38(2) 3_545 7
Fe2 Fe1 Fe2 101.24(2) 1_545 7
Fe2 Fe1 Fe2 106.51(2) 2_645 7
Cs3 Fe1 Fe2 94.257(18) 4_545 7
Fe1 Fe1 Fe2 77.01(2) 5_655 7
Fe1 Fe1 Fe2 21.995(15) 7 7
Cs3 Fe1 Fe2 162.25(2) 8_556 7
Cs4 Fe1 Fe2 48.094(14) 6_565 7
Cs2 Fe1 Fe2 116.48(2) 3 7
Cs4 Fe1 Fe2 126.36(2) 3 7
S3 Fe1 Fe2 40.63(7) 6 6
S1 Fe1 Fe2 77.78(6) 2_655 6
S2 Fe1 Fe2 113.66(7) . 6
S1 Fe1 Fe2 139.80(6) . 6
Fe2 Fe1 Fe2 167.10(4) . 6
Fe1 Fe1 Fe2 125.94(5) 2_655 6
Fe2 Fe1 Fe2 110.98(4) 2_655 6
Cs1 Fe1 Fe2 75.19(2) 3_545 6
Cs3 Fe1 Fe2 111.93(3) . 6
Cs2 Fe1 Fe2 52.21(2) 8 6
S2 Fe1 Fe2 142.08(4) 2_655 6
Cs3 Fe1 Fe2 65.03(2) 7 6
Cs2 Fe1 Fe2 19.260(15) 4_545 6
Cs4 Fe1 Fe2 82.98(2) 4_545 6
S3 Fe1 Fe2 114.33(4) 5_656 6
S4 Fe1 Fe2 160.43(4) 4 6
S4 Fe1 Fe2 97.14(3) 3 6
Cs1 Fe1 Fe2 131.52(2) 3 6
Cs4 Fe1 Fe2 38.274(14) 6 6
Cs2 Fe1 Fe2 157.92(3) 7_556 6
Cs3 Fe1 Fe2 104.18(2) 2_655 6
Cs2 Fe1 Fe2 114.80(2) 3_545 6
Cs4 Fe1 Fe2 79.622(18) 3_545 6
Cs2 Fe1 Fe2 93.419(19) 4 6
Cs4 Fe1 Fe2 143.18(2) . 6
Cs4 Fe1 Fe2 70.773(17) 2_655 6
Cs4 Fe1 Fe2 128.65(2) 4 6
Cs3 Fe1 Fe2 47.057(14) 3_545 6
Fe2 Fe1 Fe2 74.957(14) 1_545 6
Fe2 Fe1 Fe2 59.25(2) 2_645 6
Cs3 Fe1 Fe2 114.76(2) 4_545 6
Fe1 Fe1 Fe2 22.074(16) 5_655 6
Fe1 Fe1 Fe2 86.42(2) 7 6
Cs3 Fe1 Fe2 132.63(2) 8_556 6
Cs4 Fe1 Fe2 90.911(18) 6_565 6
Cs2 Fe1 Fe2 161.86(2) 3 6
Cs4 Fe1 Fe2 117.53(2) 3 6
Fe2 Fe1 Fe2 64.939(18) 7 6
S4 Fe2 S2 113.78(10) 4 2_655
S4 Fe2 S1 115.40(10) 4 .
S2 Fe2 S1 103.23(9) 2_655 .
S4 Fe2 S2 114.63(10) 4 .
S2 Fe2 S2 103.62(9) 2_655 .
S1 Fe2 S2 104.79(9) . .
S4 Fe2 Fe1 145.29(9) 4 .
S2 Fe2 Fe1 100.92(7) 2_655 .
S1 Fe2 Fe1 53.68(6) . .
S2 Fe2 Fe1 52.85(6) . .
S4 Fe2 Fe1 145.20(9) 4 2_655
S2 Fe2 Fe1 52.84(6) 2_655 2_655
S1 Fe2 Fe1 52.74(6) . 2_655
S2 Fe2 Fe1 100.14(7) . 2_655
Fe1 Fe2 Fe1 60.07(6) . 2_655
S4 Fe2 Fe2 144.01(7) 4 2_655
S2 Fe2 Fe2 53.18(7) 2_655 2_655
S1 Fe2 Fe2 100.58(6) . 2_655
S2 Fe2 Fe2 52.55(7) . 2_655
Fe1 Fe2 Fe2 59.88(4) . 2_655
Fe1 Fe2 Fe2 59.53(4) 2_655 2_655
S4 Fe2 Cs1 77.48(7) 4 3
S2 Fe2 Cs1 68.80(6) 2_655 3
S1 Fe2 Cs1 167.07(7) . 3
S2 Fe2 Cs1 68.64(6) . 3
Fe1 Fe2 Cs1 116.53(5) . 3
Fe1 Fe2 Cs1 116.25(5) 2_655 3
Fe2 Fe2 Cs1 66.53(2) 2_655 3
S4 Fe2 Cs2 74.11(7) 4 7_556
S2 Fe2 Cs2 70.65(6) 2_655 7_556
S1 Fe2 Cs2 70.89(6) . 7_556
S2 Fe2 Cs2 171.20(7) . 7_556
Fe1 Fe2 Cs2 120.71(5) . 7_556
Fe1 Fe2 Cs2 71.10(4) 2_655 7_556
Fe2 Fe2 Cs2 119.92(6) 2_655 7_556
Cs1 Fe2 Cs2 113.94(4) 3 7_556
S4 Fe2 Cs3 77.65(7) 4 .
S2 Fe2 Cs3 168.46(7) 2_655 .
S1 Fe2 Cs3 71.65(6) . .
S2 Fe2 Cs3 68.68(6) . .
Fe1 Fe2 Cs3 67.64(4) . .
Fe1 Fe2 Cs3 118.71(5) 2_655 .
Fe2 Fe2 Cs3 116.76(6) 2_655 .
Cs1 Fe2 Cs3 114.15(4) 3 .
Cs2 Fe2 Cs3 115.85(4) 7_556 .
S4 Fe2 S1 179.11(9) 4 2_655
S2 Fe2 S1 66.11(7) 2_655 2_655
S1 Fe2 S1 65.43(8) . 2_655
S2 Fe2 S1 64.65(7) . 2_655
Fe1 Fe2 S1 34.82(4) . 2_655
Fe1 Fe2 S1 35.50(4) 2_655 2_655
Fe2 Fe2 S1 35.17(4) 2_655 2_655
Cs1 Fe2 S1 101.69(4) 3 2_655
Cs2 Fe2 S1 106.60(5) 7_556 2_655
Cs3 Fe2 S1 102.44(4) . 2_655
S4 Fe2 Cs2 47.92(7) 4 3
S2 Fe2 Cs2 66.06(6) 2_655 3
S1 Fe2 Cs2 131.91(7) . 3
S2 Fe2 Cs2 123.26(7) . 3
Fe1 Fe2 Cs2 166.06(5) . 3
Fe1 Fe2 Cs2 111.38(5) 2_655 3
Fe2 Fe2 Cs2 106.61(4) 2_655 3
Cs1 Fe2 Cs2 55.403(19) 3 3
Cs2 Fe2 Cs2 61.25(3) 7_556 3
Cs3 Fe2 Cs2 125.17(3) . 3
S1 Fe2 Cs2 131.87(5) 2_655 3
S4 Fe2 Cs4 46.05(7) 4 .
S2 Fe2 Cs4 130.35(7) 2_655 .
S1 Fe2 Cs4 69.50(6) . .
S2 Fe2 Cs4 125.95(7) . .
Fe1 Fe2 Cs4 110.46(4) . .
Fe1 Fe2 Cs4 113.52(4) 2_655 .
Fe2 Fe2 Cs4 169.70(2) 2_655 .
Cs1 Fe2 Cs4 123.43(3) 3 .
Cs2 Fe2 Cs4 60.45(2) 7_556 .
Cs3 Fe2 Cs4 58.40(2) . .
S1 Fe2 Cs4 134.75(4) 2_655 .
Cs2 Fe2 Cs4 82.77(2) 3 .
S4 Fe2 Cs4 44.49(6) 4 4
S2 Fe2 Cs4 124.05(7) 2_655 4
S1 Fe2 Cs4 132.56(7) . 4
S2 Fe2 Cs4 70.23(6) . 4
Fe1 Fe2 Cs4 114.14(5) . 4
Fe1 Fe2 Cs4 169.50(5) 2_655 4
Fe2 Fe2 Cs4 110.17(4) 2_655 4
Cs1 Fe2 Cs4 57.04(2) 3 4
Cs2 Fe2 Cs4 118.43(3) 7_556 4
Cs3 Fe2 Cs4 62.56(2) . 4
S1 Fe2 Cs4 134.76(5) 2_655 4
Cs2 Fe2 Cs4 72.34(2) 3 4
Cs4 Fe2 Cs4 76.37(2) . 4
S4 Fe2 S3 128.79(8) 4 6
S2 Fe2 S3 117.43(7) 2_655 6
S1 Fe2 S3 52.27(7) . 6
S2 Fe2 S3 52.86(6) . 6
Fe1 Fe2 S3 16.52(4) . 6
Fe1 Fe2 S3 73.58(5) 2_655 6
Fe2 Fe2 S3 74.11(5) 2_655 6
Cs1 Fe2 S3 121.29(4) 3 6
Cs2 Fe2 S3 123.14(4) 7_556 6
Cs3 Fe2 S3 51.17(3) . 6
S1 Fe2 S3 51.33(4) 2_655 6
Cs2 Fe2 S3 174.74(4) 3 6
Cs4 Fe2 S3 96.95(4) . 6
Cs4 Fe2 S3 102.47(4) 4 6
S4 Fe2 S4 128.25(10) 4 3
S2 Fe2 S4 52.28(7) 2_655 3
S1 Fe2 S4 116.34(7) . 3
S2 Fe2 S4 51.49(7) . 3
Fe1 Fe2 S4 73.00(5) . 3
Fe1 Fe2 S4 72.76(5) 2_655 3
Fe2 Fe2 S4 15.76(3) 2_655 3
Cs1 Fe2 S4 50.77(3) 3 3
Cs2 Fe2 S4 122.87(4) 7_556 3
Cs3 Fe2 S4 119.99(4) . 3
S1 Fe2 S4 50.92(4) 2_655 3
Cs2 Fe2 S4 94.26(4) 3 3
Cs4 Fe2 S4 173.67(4) . 3
Cs4 Fe2 S4 97.42(4) 4 3
S3 Fe2 S4 85.49(4) 6 3
S4 Fe2 S3 130.62(8) 4 5_656
S2 Fe2 S3 51.33(6) 2_655 5_656
S1 Fe2 S3 51.92(7) . 5_656
S2 Fe2 S3 114.71(7) . 5_656
Fe1 Fe2 S3 72.46(5) . 5_656
Fe1 Fe2 S3 14.58(4) 2_655 5_656
Fe2 Fe2 S3 71.52(5) 2_655 5_656
Cs1 Fe2 S3 119.56(4) 3 5_656
Cs2 Fe2 S3 56.53(3) 7_556 5_656
Cs3 Fe2 S3 122.96(4) . 5_656
S1 Fe2 S3 50.08(4) 2_655 5_656
Cs2 Fe2 S3 100.94(4) 3 5_656
Cs4 Fe2 S3 102.95(4) . 5_656
Cs4 Fe2 S3 173.28(4) 4 5_656
S3 Fe2 S3 84.25(6) 6 5_656
S4 Fe2 S3 83.08(4) 3 5_656
S4 Fe2 Cs1 141.05(7) 4 3_545
S2 Fe2 Cs1 88.50(6) 2_655 3_545
S1 Fe2 Cs1 25.66(5) . 3_545
S2 Fe2 Cs1 88.30(6) . 3_545
Fe1 Fe2 Cs1 35.81(3) . 3_545
Fe1 Fe2 Cs1 35.91(3) 2_655 3_545
Fe2 Fe2 Cs1 74.938(13) 2_655 3_545
Cs1 Fe2 Cs1 141.47(3) 3 3_545
Cs2 Fe2 Cs1 84.92(3) 7_556 3_545
Cs3 Fe2 Cs1 82.82(2) . 3_545
S1 Fe2 Cs1 39.78(3) 2_655 3_545
Cs2 Fe2 Cs1 142.36(3) 3 3_545
Cs4 Fe2 Cs1 95.06(2) . 3_545
Cs4 Fe2 Cs1 143.80(3) 4 3_545
S3 Fe2 Cs1 42.89(3) 6 3_545
S4 Fe2 Cs1 90.70(3) 3 3_545
S3 Fe2 Cs1 42.72(3) 5_656 3_545
S4 Fe2 Cs3 138.39(8) 4 2_655
S2 Fe2 Cs3 24.61(6) 2_655 2_655
S1 Fe2 Cs3 88.58(6) . 2_655
S2 Fe2 Cs3 88.67(6) . 2_655
Fe1 Fe2 Cs3 76.31(4) . 2_655
Fe1 Fe2 Cs3 35.98(3) 2_655 2_655
Fe2 Fe2 Cs3 36.31(4) 2_655 2_655
Cs1 Fe2 Cs3 80.30(2) 3 2_655
Cs2 Fe2 Cs3 83.62(3) 7_556 2_655
Cs3 Fe2 Cs3 143.92(3) . 2_655
S1 Fe2 Cs3 41.50(3) 2_655 2_655
Cs2 Fe2 Cs3 90.58(2) 3 2_655
Cs4 Fe2 Cs3 142.09(3) . 2_655
Cs4 Fe2 Cs3 136.67(3) 4 2_655
S3 Fe2 Cs3 92.82(4) 6 2_655
S4 Fe2 Cs3 43.16(3) 3 2_655
S3 Fe2 Cs3 41.75(3) 5_656 2_655
Cs1 Fe2 Cs3 68.291(16) 3_545 2_655
S4 Fe2 Cs3 2.88(6) 4 4
S2 Fe2 Cs3 111.07(7) 2_655 4
S1 Fe2 Cs3 115.82(6) . 4
S2 Fe2 Cs3 116.79(6) . 4
Fe1 Fe2 Cs3 148.01(5) . 4
Fe1 Fe2 Cs3 142.91(5) 2_655 4
Fe2 Fe2 Cs3 143.391(15) 2_655 4
Cs1 Fe2 Cs3 76.99(2) 3 4
Cs2 Fe2 Cs3 71.90(2) 7_556 4
Cs3 Fe2 Cs3 80.39(2) . 4
S1 Fe2 Cs3 177.17(5) 2_655 4
Cs2 Fe2 Cs3 45.331(15) 3 4
Cs4 Fe2 Cs3 46.805(15) . 4
Cs4 Fe2 Cs3 46.565(15) 4 4
S3 Fe2 Cs3 131.49(4) 6 4
S4 Fe2 Cs3 127.68(4) 3 4
S3 Fe2 Cs3 128.34(4) 5_656 4
Cs1 Fe2 Cs3 141.46(3) 3_545 4
Cs3 Fe2 Cs3 135.68(3) 2_655 4
S4 Fe2 Cs2 139.23(7) 4 8
S2 Fe2 Cs2 87.25(6) 2_655 8
S1 Fe2 Cs2 90.97(6) . 8
S2 Fe2 Cs2 24.75(6) . 8
Fe1 Fe2 Cs2 37.79(3) . 8
Fe1 Fe2 Cs2 75.45(4) 2_655 8
Fe2 Fe2 Cs2 34.18(4) 2_655 8
Cs1 Fe2 Cs2 78.74(2) 3 8
Cs2 Fe2 Cs2 146.45(3) 7_556 8
Cs3 Fe2 Cs2 82.58(2) . 8
S1 Fe2 Cs2 40.02(3) 2_655 8
Cs2 Fe2 Cs2 132.33(3) 3 8
Cs4 Fe2 Cs2 139.88(3) . 8
Cs4 Fe2 Cs2 94.75(2) 4 8
S3 Fe2 Cs2 46.14(3) 6 8
S4 Fe2 Cs2 40.77(3) 3 8
S3 Fe2 Cs2 90.00(3) 5_656 8
Cs1 Fe2 Cs2 69.124(16) 3_545 8
Cs3 Fe2 Cs2 67.497(17) 2_655 8
Cs3 Fe2 Cs2 141.24(3) 4 8
S4 Fe2 Cs3 105.43(7) 4 8_556
S2 Fe2 Cs3 27.68(6) 2_655 8_556
S1 Fe2 Cs3 84.32(7) . 8_556
S2 Fe2 Cs3 128.66(7) . 8_556
Fe1 Fe2 Cs3 105.74(4) . 8_556
Fe1 Fe2 Cs3 46.14(3) 2_655 8_556
Fe2 Fe2 Cs3 76.15(5) 2_655 8_556
Cs1 Fe2 Cs3 91.33(3) 3 8_556
Cs2 Fe2 Cs3 44.353(19) 7_556 8_556
Cs3 Fe2 Cs3 154.17(3) . 8_556
S1 Fe2 Cs3 74.88(4) 2_655 8_556
Cs2 Fe2 Cs3 65.309(19) 3 8_556
Cs4 Fe2 Cs3 104.80(2) . 8_556
Cs4 Fe2 Cs3 136.95(3) 4 8_556
S3 Fe2 Cs3 119.71(4) 6 8_556
S4 Fe2 Cs3 78.83(3) 3 8_556
S3 Fe2 Cs3 36.51(3) 5_656 8_556
Cs1 Fe2 Cs3 79.223(18) 3_545 8_556
Cs3 Fe2 Cs3 40.426(14) 2_655 8_556
Cs3 Fe2 Cs3 102.58(2) 4 8_556
Cs2 Fe2 Cs3 107.76(2) 8 8_556
S4 Fe2 Cs3 106.47(7) 4 7
S2 Fe2 Cs3 128.52(7) 2_655 7
S1 Fe2 Cs3 86.31(7) . 7
S2 Fe2 Cs3 27.50(6) . 7
Fe1 Fe2 Cs3 45.71(3) . 7
Fe1 Fe2 Cs3 105.11(4) 2_655 7
Fe2 Fe2 Cs3 75.37(5) 2_655 7
Cs1 Fe2 Cs3 91.00(3) 3 7
Cs2 Fe2 Cs3 154.07(3) 7_556 7
Cs3 Fe2 Cs3 42.232(19) . 7
S1 Fe2 Cs3 73.15(4) 2_655 7
Cs2 Fe2 Cs3 138.42(3) 3 7
Cs4 Fe2 Cs3 100.61(2) . 7
Cs4 Fe2 Cs3 68.438(19) 4 7
S3 Fe2 Cs3 36.41(3) 6 7
S4 Fe2 Cs3 77.89(3) 3 7
S3 Fe2 Cs3 118.12(4) 5_656 7
Cs1 Fe2 Cs3 79.048(18) 3_545 7
Cs3 Fe2 Cs3 108.66(2) 2_655 7
Cs3 Fe2 Cs3 109.28(2) 4 7
Cs2 Fe2 Cs3 41.584(13) 8 7
Cs3 Fe2 Cs3 147.75(2) 8_556 7
S4 Fe2 Cs4 106.50(7) 4 4_545
S2 Fe2 Cs4 129.07(7) 2_655 4_545
S1 Fe2 Cs4 28.43(6) . 4_545
S2 Fe2 Cs4 85.75(6) . 4_545
Fe1 Fe2 Cs4 46.36(3) . 4_545
Fe1 Fe2 Cs4 76.28(4) 2_655 4_545
Fe2 Fe2 Cs4 105.65(3) 2_655 4_545
Cs1 Fe2 Cs4 152.72(3) 3 4_545
Cs2 Fe2 Cs4 92.79(3) 7_556 4_545
Cs3 Fe2 Cs4 43.969(17) . 4_545
S1 Fe2 Cs4 74.07(4) 2_655 4_545
Cs2 Fe2 Cs4 145.85(3) 3 4_545
Cs4 Fe2 Cs4 64.355(18) . 4_545
Cs4 Fe2 Cs4 106.39(3) 4 4_545
S3 Fe2 Cs4 35.63(3) 6 4_545
S4 Fe2 Cs4 119.36(4) 3 4_545
S3 Fe2 Cs4 78.99(3) 5_656 4_545
Cs1 Fe2 Cs4 41.193(11) 3_545 4_545
Cs3 Fe2 Cs4 109.33(2) 2_655 4_545
Cs3 Fe2 Cs4 108.26(2) 4 4_545
Cs2 Fe2 Cs4 81.658(19) 8 4_545
Cs3 Fe2 Cs4 112.74(2) 8_556 4_545
Cs3 Fe2 Cs4 61.829(15) 7 4_545
S4 Fe2 Cs2 108.88(7) 4 3_545
S2 Fe2 Cs2 83.05(6) 2_655 3_545
S1 Fe2 Cs2 27.09(6) . 3_545
S2 Fe2 Cs2 127.79(6) . 3_545
Fe1 Fe2 Cs2 74.95(4) . 3_545
Fe1 Fe2 Cs2 43.69(3) 2_655 3_545
Fe2 Fe2 Cs2 102.72(3) 2_655 3_545
Cs1 Fe2 Cs2 150.89(3) 3 3_545
Cs2 Fe2 Cs2 46.09(2) 7_556 3_545
Cs3 Fe2 Cs2 94.91(3) . 3_545
S1 Fe2 Cs2 72.01(4) 2_655 3_545
Cs2 Fe2 Cs2 106.96(3) 3 3_545
Cs4 Fe2 Cs2 69.832(19) . 3_545
Cs4 Fe2 Cs2 145.90(3) 4 3_545
S3 Fe2 Cs2 77.76(3) 6 3_545
S4 Fe2 Cs2 116.45(4) 3 3_545
S3 Fe2 Cs2 34.99(3) 5_656 3_545
Cs1 Fe2 Cs2 39.630(11) 3_545 3_545
Cs3 Fe2 Cs2 76.714(18) 2_655 3_545
Cs3 Fe2 Cs2 107.90(2) 4 3_545
Cs2 Fe2 Cs2 108.04(2) 8 3_545
Cs3 Fe2 Cs2 59.564(15) 8_556 3_545
Cs3 Fe2 Cs2 113.10(2) 7 3_545
Cs4 Fe2 Cs2 54.547(14) 4_545 3_545
S4 Fe2 Cs2 102.98(7) 4 4
S2 Fe2 Cs2 82.89(6) 2_655 4
S1 Fe2 Cs2 133.50(7) . 4
S2 Fe2 Cs2 31.60(6) . 4
Fe1 Fe2 Cs2 79.83(4) . 4
Fe1 Fe2 Cs2 106.18(4) 2_655 4
Fe2 Fe2 Cs2 46.72(3) 2_655 4
Cs1 Fe2 Cs2 37.728(15) 3 4
Cs2 Fe2 Cs2 148.66(3) 7_556 4
Cs3 Fe2 Cs2 93.22(3) . 4
S1 Fe2 Cs2 76.13(4) 2_655 4
Cs2 Fe2 Cs2 93.12(2) 3 4
Cs4 Fe2 Cs2 138.78(3) . 4
Cs4 Fe2 Cs2 63.460(18) 4 4
S3 Fe2 Cs2 83.61(3) 6 4
S4 Fe2 Cs2 35.52(3) 3 4
S3 Fe2 Cs2 118.04(4) 5_656 4
Cs1 Fe2 Cs2 111.53(2) 3_545 4
Cs3 Fe2 Cs2 78.615(18) 2_655 4
Cs3 Fe2 Cs2 103.85(2) 4 4
Cs2 Fe2 Cs2 42.797(16) 8 4
Cs3 Fe2 Cs2 110.56(2) 8_556 4
Cs3 Fe2 Cs2 57.232(15) 7 4
Cs4 Fe2 Cs2 117.36(2) 4_545 4
Cs2 Fe2 Cs2 148.11(2) 3_545 4
S4 Fe2 Cs4 104.40(7) 4 3
S2 Fe2 Cs4 32.86(6) 2_655 3
S1 Fe2 Cs4 132.03(7) . 3
S2 Fe2 Cs4 80.12(6) . 3
Fe1 Fe2 Cs4 104.40(4) . 3
Fe1 Fe2 Cs4 79.30(4) 2_655 3
Fe2 Fe2 Cs4 44.56(3) 2_655 3
Cs1 Fe2 Cs4 37.522(15) 3 3
Cs2 Fe2 Cs4 97.00(3) 7_556 3
Cs3 Fe2 Cs4 145.84(3) . 3
S1 Fe2 Cs4 75.01(4) 2_655 3
Cs2 Fe2 Cs4 62.069(17) 3 3
Cs4 Fe2 Cs4 144.70(3) . 3
Cs4 Fe2 Cs4 94.55(2) 4 3
S3 Fe2 Cs4 118.35(4) 6 3
S4 Fe2 Cs4 33.29(3) 3 3
S3 Fe2 Cs4 82.16(3) 5_656 3
Cs1 Fe2 Cs4 110.55(2) 3_545 3
Cs3 Fe2 Cs4 43.472(13) 2_655 3
Cs3 Fe2 Cs4 102.67(2) 4 3
Cs2 Fe2 Cs4 74.005(17) 8 3
Cs3 Fe2 Cs4 59.233(15) 8_556 3
Cs3 Fe2 Cs4 107.63(2) 7 3
Cs4 Fe2 Cs4 149.07(2) 4_545 3
Cs2 Fe2 Cs4 115.64(2) 3_545 3
Cs2 Fe2 Cs4 52.783(13) 4 3
S4 Fe2 Fe1 66.72(7) 4 1_565
S2 Fe2 Fe1 84.87(6) 2_655 1_565
S1 Fe2 Fe1 168.99(7) . 1_565
S2 Fe2 Fe1 65.61(6) . 1_565
Fe1 Fe2 Fe1 117.93(4) . 1_565
Fe1 Fe2 Fe1 132.10(4) 2_655 1_565
Fe2 Fe2 Fe1 78.141(18) 2_655 1_565
Cs1 Fe2 Fe1 16.351(15) 3 1_565
Cs2 Fe2 Fe1 119.37(3) 7_556 1_565
Cs3 Fe2 Fe1 99.00(3) . 1_565
S1 Fe2 Fe1 112.40(4) 2_655 1_565
Cs2 Fe2 Fe1 58.120(19) 3 1_565
Cs4 Fe2 Fe1 111.04(3) . 1_565
Cs4 Fe2 Fe1 40.730(17) 4 1_565
S3 Fe2 Fe1 117.43(4) 6 1_565
S4 Fe2 Fe1 62.74(3) 3 1_565
S3 Fe2 Fe1 135.88(4) 5_656 1_565
Cs1 Fe2 Fe1 150.53(2) 3_545 1_565
Cs3 Fe2 Fe1 96.32(2) 2_655 1_565
Cs3 Fe2 Fe1 66.890(18) 4 1_565
Cs2 Fe2 Fe1 81.88(2) 8 1_565
Cs3 Fe2 Fe1 105.78(2) 8_556 1_565
Cs3 Fe2 Fe1 82.79(2) 7 1_565
Cs4 Fe2 Fe1 141.11(3) 4_545 1_565
Cs2 Fe2 Fe1 163.92(3) 3_545 1_565
Cs2 Fe2 Fe1 39.149(14) 4 1_565
Cs4 Fe2 Fe1 53.866(16) 3 1_565
S4 Fe2 Fe1 66.78(7) 4 2_665
S2 Fe2 Fe1 65.48(6) 2_655 2_665
S1 Fe2 Fe1 167.10(7) . 2_665
S2 Fe2 Fe1 84.65(6) . 2_665
Fe1 Fe2 Fe1 132.25(4) . 2_665
Fe1 Fe2 Fe1 117.62(4) 2_655 2_665
Fe2 Fe2 Fe1 77.982(18) 2_655 2_665
Cs1 Fe2 Fe1 16.235(15) 3 2_665
Cs2 Fe2 Fe1 98.52(3) 7_556 2_665
Cs3 Fe2 Fe1 120.61(3) . 2_665
S1 Fe2 Fe1 112.49(4) 2_655 2_665
Cs2 Fe2 Fe1 39.168(16) 3 2_665
Cs4 Fe2 Fe1 112.31(3) . 2_665
Cs4 Fe2 Fe1 58.608(19) 4 2_665
S3 Fe2 Fe1 137.45(4) 6 2_665
S4 Fe2 Fe1 62.63(3) 3 2_665
S3 Fe2 Fe1 116.32(4) 5_656 2_665
Cs1 Fe2 Fe1 150.38(2) 3_545 2_665
Cs3 Fe2 Fe1 82.79(2) 2_655 2_665
Cs3 Fe2 Fe1 65.683(18) 4 2_665
Cs2 Fe2 Fe1 94.53(2) 8 2_665
Cs3 Fe2 Fe1 82.89(2) 8_556 2_665
Cs3 Fe2 Fe1 105.51(2) 7 2_665
Cs4 Fe2 Fe1 164.35(3) 4_545 2_665
Cs2 Fe2 Fe1 140.32(3) 3_545 2_665
Cs2 Fe2 Fe1 53.959(16) 4 2_665
Cs4 Fe2 Fe1 39.882(14) 3 2_665
Fe1 Fe2 Fe1 23.69(2) 1_565 2_665
S4 Fe2 Cs3 85.02(7) 4 4_545
S2 Fe2 Cs3 117.35(7) 2_655 4_545
S1 Fe2 Cs3 30.41(6) . 4_545
S2 Fe2 Cs3 122.18(7) . 4_545
Fe1 Fe2 Cs3 79.56(4) . 4_545
Fe1 Fe2 Cs3 77.33(4) 2_655 4_545
Fe2 Fe2 Cs3 130.919(12) 2_655 4_545
Cs1 Fe2 Cs3 162.34(3) 3 4_545
Cs2 Fe2 Cs3 57.77(2) 7_556 4_545
Cs3 Fe2 Cs3 63.46(2) . 4_545
S1 Fe2 Cs3 95.82(4) 2_655 4_545
Cs2 Fe2 Cs3 110.31(2) 3 4_545
Cs4 Fe2 Cs3 39.348(13) . 4_545
Cs4 Fe2 Cs3 111.07(2) 4 4_545
S3 Fe2 Cs3 72.05(3) 6 4_545
S4 Fe2 Cs3 146.65(4) 3 4_545
S3 Fe2 Cs3 70.68(3) 5_656 4_545
Cs1 Fe2 Cs3 56.064(13) 3_545 4_545
Cs3 Fe2 Cs3 112.20(2) 2_655 4_545
Cs3 Fe2 Cs3 85.412(17) 4 4_545
Cs2 Fe2 Cs3 117.06(2) 8 4_545
Cs3 Fe2 Cs3 91.008(18) 8_556 4_545
Cs3 Fe2 Cs3 96.308(19) 7 4_545
Cs4 Fe2 Cs3 36.883(11) 4_545 4_545
Cs2 Fe2 Cs3 35.820(11) 3_545 4_545
Cs2 Fe2 Cs3 153.49(2) 4 4_545
Cs4 Fe2 Cs3 150.11(2) 3 4_545
Fe1 Fe2 Cs3 149.92(2) 1_565 4_545
Fe1 Fe2 Cs3 148.09(2) 2_665 4_545
S4 Fe2 Cs4 83.12(7) 4 6_565
S2 Fe2 Cs4 119.43(7) 2_655 6_565
S1 Fe2 Cs4 121.54(7) . 6_565
S2 Fe2 Cs4 31.51(6) . 6_565
Fe1 Fe2 Cs4 79.14(4) . 6_565
Fe1 Fe2 Cs4 131.64(4) 2_655 6_565
Fe2 Fe2 Cs4 78.61(5) 2_655 6_565
Cs1 Fe2 Cs4 58.679(18) 3 6_565
Cs2 Fe2 Cs4 157.21(3) 7_556 6_565
Cs3 Fe2 Cs4 58.49(2) . 6_565
S1 Fe2 Cs4 96.16(4) 2_655 6_565
Cs2 Fe2 Cs4 102.46(2) 3 6_565
Cs4 Fe2 Cs4 103.90(2) . 6_565
Cs4 Fe2 Cs4 38.798(15) 4 6_565
S3 Fe2 Cs4 72.47(3) 6 6_565
S4 Fe2 Cs4 71.21(3) 3 6_565
S3 Fe2 Cs4 146.19(4) 5_656 6_565
Cs1 Fe2 Cs4 114.40(2) 3_545 6_565
Cs3 Fe2 Cs4 113.97(2) 2_655 6_565
Cs3 Fe2 Cs4 85.310(18) 4 6_565
Cs2 Fe2 Cs4 56.199(14) 8 6_565
Cs3 Fe2 Cs4 146.81(2) 8_556 6_565
Cs3 Fe2 Cs4 36.187(11) 7 6_565
Cs4 Fe2 Cs4 94.559(19) 4_545 6_565
Cs2 Fe2 Cs4 148.63(2) 3_545 6_565
Cs2 Fe2 Cs4 36.910(11) 4 6_565
Cs4 Fe2 Cs4 87.625(16) 3 6_565
Fe1 Fe2 Cs4 47.453(15) 1_565 6_565
Fe1 Fe2 Cs4 70.985(17) 2_665 6_565
Cs3 Fe2 Cs4 121.95(2) 4_545 6_565
S4 Fe2 Cs4 83.06(7) 4 5_666
S2 Fe2 Cs4 30.73(6) 2_655 5_666
S1 Fe2 Cs4 119.70(7) . 5_666
S2 Fe2 Cs4 118.70(7) . 5_666
Fe1 Fe2 Cs4 131.63(4) . 5_666
Fe1 Fe2 Cs4 78.93(4) 2_655 5_666
Fe2 Fe2 Cs4 78.27(5) 2_655 5_666
Cs1 Fe2 Cs4 58.559(18) 3 5_666
Cs2 Fe2 Cs4 59.73(2) 7_556 5_666
Cs3 Fe2 Cs4 160.58(3) . 5_666
S1 Fe2 Cs4 96.81(4) 2_655 5_666
Cs2 Fe2 Cs4 35.409(14) 3 5_666
Cs4 Fe2 Cs4 108.71(2) . 5_666
Cs4 Fe2 Cs4 101.70(2) 4 5_666
S3 Fe2 Cs4 148.15(4) 6 5_666
S4 Fe2 Cs4 71.05(3) 3 5_666
S3 Fe2 Cs4 72.07(3) 5_656 5_666
Cs1 Fe2 Cs4 114.27(2) 3_545 5_666
Cs3 Fe2 Cs4 55.328(14) 2_655 5_666
Cs3 Fe2 Cs4 80.361(17) 4 5_666
Cs2 Fe2 Cs4 111.40(2) 8 5_666
Cs3 Fe2 Cs4 36.139(11) 8_556 5_666
Cs3 Fe2 Cs4 145.96(2) 7 5_666
Cs4 Fe2 Cs4 147.90(2) 4_545 5_666
Cs2 Fe2 Cs4 93.364(18) 3_545 5_666
Cs2 Fe2 Cs4 88.942(18) 4 5_666
Cs4 Fe2 Cs4 38.965(12) 3 5_666
Fe1 Fe2 Cs4 70.956(17) 1_565 5_666
Fe1 Fe2 Cs4 47.406(15) 2_665 5_666
Cs3 Fe2 Cs4 117.297(19) 4_545 5_666
Cs4 Fe2 Cs4 117.23(2) 6_565 5_666
S4 Fe2 Fe2 54.99(7) 4 5_666
S2 Fe2 Fe2 64.39(6) 2_655 5_666
S1 Fe2 Fe2 105.31(7) . 5_666
S2 Fe2 Fe2 149.47(7) . 5_666
Fe1 Fe2 Fe2 152.80(5) . 5_666
Fe1 Fe2 Fe2 94.00(4) 2_655 5_666
Fe2 Fe2 Fe2 116.14(6) 2_655 5_666
Cs1 Fe2 Fe2 80.85(3) 3 5_666
Cs2 Fe2 Fe2 34.537(17) 7_556 5_666
Cs3 Fe2 Fe2 126.59(4) . 5_666
S1 Fe2 Fe2 125.32(5) 2_655 5_666
Cs2 Fe2 Fe2 26.712(13) 3 5_666
Cs4 Fe2 Fe2 70.48(2) . 5_666
Cs4 Fe2 Fe2 92.74(3) 4 5_666
S3 Fe2 Fe2 157.56(5) 6 5_666
S4 Fe2 Fe2 109.04(4) 3 5_666
S3 Fe2 Fe2 80.79(4) 5_656 5_666
Cs1 Fe2 Fe2 117.82(3) 3_545 5_666
Cs3 Fe2 Fe2 87.10(2) 2_655 5_666
Cs3 Fe2 Fe2 52.130(17) 4 5_666
Cs2 Fe2 Fe2 149.63(3) 8 5_666
Cs3 Fe2 Fe2 50.450(17) 8_556 5_666
Cs3 Fe2 Fe2 160.89(3) 7 5_666
Cs4 Fe2 Fe2 124.07(3) 4_545 5_666
Cs2 Fe2 Fe2 80.39(2) 3_545 5_666
Cs2 Fe2 Fe2 118.24(3) 4 5_666
Cs4 Fe2 Fe2 76.09(2) 3 5_666
Fe1 Fe2 Fe2 84.83(2) 1_565 5_666
Fe1 Fe2 Fe2 64.82(2) 2_665 5_666
Cs3 Fe2 Fe2 87.19(2) 4_545 5_666
Cs4 Fe2 Fe2 127.75(3) 6_565 5_666
Cs4 Fe2 Fe2 38.235(15) 5_666 5_666
S4 Fe2 Cs2 153.05(7) 4 4_545
S2 Fe2 Cs2 93.17(6) 2_655 4_545
S1 Fe2 Cs2 53.83(6) . 4_545
S2 Fe2 Cs2 55.78(6) . 4_545
Fe1 Fe2 Cs2 7.88(3) . 4_545
Fe1 Fe2 Cs2 52.97(3) 2_655 4_545
Fe2 Fe2 Cs2 54.52(2) 2_655 4_545
Cs1 Fe2 Cs2 115.15(3) 3 4_545
Cs2 Fe2 Cs2 116.97(3) 7_556 4_545
Cs3 Fe2 Cs2 75.43(2) . 4_545
S1 Fe2 Cs2 27.11(3) 2_655 4_545
Cs2 Fe2 Cs2 158.90(3) 3 4_545
Cs4 Fe2 Cs2 115.47(2) . 4_545
Cs4 Fe2 Cs2 120.54(2) 4 4_545
S3 Fe2 Cs2 24.27(3) 6 4_545
S4 Fe2 Cs2 68.59(3) 3 4_545
S3 Fe2 Cs2 65.91(3) 5_656 4_545
Cs1 Fe2 Cs2 32.694(9) 3_545 4_545
Cs3 Fe2 Cs2 68.565(15) 2_655 4_545
Cs3 Fe2 Cs2 155.71(2) 4 4_545
Cs2 Fe2 Cs2 37.254(15) 8 4_545
Cs3 Fe2 Cs2 98.228(19) 8_556 4_545
Cs3 Fe2 Cs2 52.271(13) 7 4_545
Cs4 Fe2 Cs2 51.134(13) 4_545 4_545
Cs2 Fe2 Cs2 72.322(18) 3_545 4_545
Cs2 Fe2 Cs2 80.044(16) 4 4_545
Cs4 Fe2 Cs2 98.656(18) 3 4_545
Fe1 Fe2 Cs2 119.03(2) 1_565 4_545
Fe1 Fe2 Cs2 130.02(2) 2_665 4_545
Cs3 Fe2 Cs2 81.802(15) 4_545 4_545
Cs4 Fe2 Cs2 84.088(16) 6_565 4_545
Cs4 Fe2 Cs2 123.892(19) 5_666 4_545
Fe2 Fe2 Cs2 146.70(3) 5_666 4_545
S4 Fe2 Cs4 154.84(7) 4 3_545
S2 Fe2 Cs4 55.66(6) 2_655 3_545
S1 Fe2 Cs4 54.48(6) . 3_545
S2 Fe2 Cs4 90.52(6) . 3_545
Fe1 Fe2 Cs4 52.02(4) . 3_545
Fe1 Fe2 Cs4 9.65(3) 2_655 3_545
Fe2 Fe2 Cs4 52.24(2) 2_655 3_545
Cs1 Fe2 Cs4 113.43(3) 3 3_545
Cs2 Fe2 Cs4 80.74(2) 7_556 3_545
Cs3 Fe2 Cs4 114.60(3) . 3_545
S1 Fe2 Cs4 25.87(3) 2_655 3_545
Cs2 Fe2 Cs4 118.15(2) 3 3_545
Cs4 Fe2 Cs4 119.83(2) . 3_545
Cs4 Fe2 Cs4 160.42(3) 4 3_545
S3 Fe2 Cs4 66.55(3) 6 3_545
S4 Fe2 Cs4 66.49(3) 3 3_545
S3 Fe2 Cs4 24.22(3) 5_656 3_545
Cs1 Fe2 Cs4 33.440(9) 3_545 3_545
Cs3 Fe2 Cs4 34.994(11) 2_655 3_545
Cs3 Fe2 Cs4 152.55(2) 4 3_545
Cs2 Fe2 Cs4 65.853(15) 8 3_545
Cs3 Fe2 Cs4 53.724(13) 8_556 3_545
Cs3 Fe2 Cs4 96.241(18) 7 3_545
Cs4 Fe2 Cs4 74.630(18) 4_545 3_545
Cs2 Fe2 Cs4 50.493(13) 3_545 3_545
Cs2 Fe2 Cs4 98.306(18) 4 3_545
Cs4 Fe2 Cs4 78.102(15) 3 3_545
Fe1 Fe2 Cs4 128.24(2) 1_565 3_545
Fe1 Fe2 Cs4 117.75(2) 2_665 3_545
Cs3 Fe2 Cs4 81.811(15) 4_545 3_545
Cs4 Fe2 Cs4 122.024(19) 6_565 3_545
Cs4 Fe2 Cs4 84.086(16) 5_666 3_545
Fe2 Fe2 Cs4 102.86(3) 5_666 3_545
Cs2 Fe2 Cs4 44.581(10) 4_545 3_545
S4 Fe2 Cs1 63.55(7) 4 7_556
S2 Fe2 Cs1 76.08(6) 2_655 7_556
S1 Fe2 Cs1 77.64(6) . 7_556
S2 Fe2 Cs1 177.53(7) . 7_556
Fe1 Fe2 Cs1 129.61(4) . 7_556
Fe1 Fe2 Cs1 81.66(4) 2_655 7_556
Fe2 Fe2 Cs1 127.77(6) 2_655 7_556
Cs1 Fe2 Cs1 109.07(3) 3 7_556
Cs2 Fe2 Cs1 10.581(16) 7_556 7_556
Cs3 Fe2 Cs1 112.00(3) . 7_556
S1 Fe2 Cs1 117.15(4) 2_655 7_556
Cs2 Fe2 Cs1 54.329(16) 3 7_556
Cs4 Fe2 Cs1 54.278(15) . 7_556
Cs4 Fe2 Cs1 107.84(2) 4 7_556
S3 Fe2 Cs1 129.50(4) 6 7_556
S4 Fe2 Cs1 127.98(4) 3 7_556
S3 Fe2 Cs1 67.08(3) 5_656 7_556
Cs1 Fe2 Cs1 94.131(18) 3_545 7_556
Cs3 Fe2 Cs1 91.856(18) 2_655 7_556
Cs3 Fe2 Cs1 61.326(14) 4 7_556
Cs2 Fe2 Cs1 156.85(2) 8 7_556
Cs3 Fe2 Cs1 51.635(12) 8_556 7_556
Cs3 Fe2 Cs1 153.66(2) 7 7_556
Cs4 Fe2 Cs1 96.341(18) 4_545 7_556
Cs2 Fe2 Cs1 54.670(13) 3_545 7_556
Cs2 Fe2 Cs1 146.29(2) 4 7_556
Cs4 Fe2 Cs1 98.616(18) 3 7_556
Fe1 Fe2 Cs1 111.93(2) 1_565 7_556
Fe1 Fe2 Cs1 93.022(19) 2_665 7_556
Cs3 Fe2 Cs1 59.779(12) 4_545 7_556
Cs4 Fe2 Cs1 146.63(2) 6_565 7_556
Cs4 Fe2 Cs1 59.864(12) 5_666 7_556
Fe2 Fe2 Cs1 28.226(14) 5_666 7_556
Cs2 Fe2 Cs1 126.62(2) 4_545 7_556
Cs4 Fe2 Cs1 91.294(16) 3_545 7_556
S4 Fe2 Cs4 150.17(7) 4 2_655
S2 Fe2 Cs4 52.94(6) 2_655 2_655
S1 Fe2 Cs4 94.34(6) . 2_655
S2 Fe2 Cs4 55.35(6) . 2_655
Fe1 Fe2 Cs4 55.86(3) . 2_655
Fe1 Fe2 Cs4 53.60(3) 2_655 2_655
Fe2 Fe2 Cs4 6.401(15) 2_655 2_655
Cs1 Fe2 Cs4 72.74(2) 3 2_655
Cs2 Fe2 Cs4 116.63(3) 7_556 2_655
Cs3 Fe2 Cs4 116.34(3) . 2_655
S1 Fe2 Cs4 29.03(3) 2_655 2_655
Cs2 Fe2 Cs4 110.35(2) 3 2_655
Cs4 Fe2 Cs4 163.78(3) . 2_655
Cs4 Fe2 Cs4 116.02(2) 4 2_655
S3 Fe2 Cs4 70.88(3) 6 2_655
S4 Fe2 Cs4 22.03(3) 3 2_655
S3 Fe2 Cs4 66.03(3) 5_656 2_655
Cs1 Fe2 Cs4 68.740(14) 3_545 2_655
Cs3 Fe2 Cs4 33.450(11) 2_655 2_655
Cs3 Fe2 Cs4 149.37(2) 4 2_655
Cs2 Fe2 Cs4 34.607(11) 8 2_655
Cs3 Fe2 Cs4 73.847(16) 8_556 2_655
Cs3 Fe2 Cs4 76.191(16) 7 2_655
Cs4 Fe2 Cs4 100.854(19) 4_545 2_655
Cs2 Fe2 Cs4 96.518(18) 3_545 2_655
Cs2 Fe2 Cs4 52.580(12) 4 2_655
Cs4 Fe2 Cs4 48.710(11) 3 2_655
Fe1 Fe2 Cs4 84.538(18) 1_565 2_655
Fe1 Fe2 Cs4 83.731(17) 2_665 2_655
Cs3 Fe2 Cs4 124.625(19) 4_545 2_655
Cs4 Fe2 Cs4 83.056(15) 6_565 2_655
Cs4 Fe2 Cs4 80.008(15) 5_666 2_655
Fe2 Fe2 Cs4 117.05(3) 5_666 2_655
Cs2 Fe2 Cs4 49.951(11) 4_545 2_655
Cs4 Fe2 Cs4 46.031(10) 3_545 2_655
Cs1 Fe2 Cs4 125.274(18) 7_556 2_655
S4 Fe2 Fe1 78.74(7) 4 7
S2 Fe2 Fe1 153.37(7) 2_655 7
S1 Fe2 Fe1 90.94(7) . 7
S2 Fe2 Fe1 50.39(6) . 7
Fe1 Fe2 Fe1 69.39(4) . 7
Fe1 Fe2 Fe1 128.72(4) 2_655 7
Fe2 Fe2 Fe1 102.48(6) 2_655 7
Cs1 Fe2 Fe1 92.79(3) 3 7
Cs2 Fe2 Fe1 135.87(3) 7_556 7
Cs3 Fe2 Fe1 22.613(17) . 7
S1 Fe2 Fe1 100.99(4) 2_655 7
Cs2 Fe2 Fe1 119.88(3) 3 7
Cs4 Fe2 Fe1 75.62(2) . 7
Cs4 Fe2 Fe1 48.353(17) 4 7
S3 Fe2 Fe1 55.14(3) 6 7
S4 Fe2 Fe1 101.26(4) 3 7
S3 Fe2 Fe1 138.20(4) 5_656 7
Cs1 Fe2 Fe1 95.48(2) 3_545 7
Cs3 Fe2 Fe1 137.33(2) 2_655 7
Cs3 Fe2 Fe1 81.615(19) 4 7
Cs2 Fe2 Fe1 69.852(18) 8 7
Cs3 Fe2 Fe1 174.70(2) 8_556 7
Cs3 Fe2 Fe1 28.876(13) 7 7
Cs4 Fe2 Fe1 62.513(16) 4_545 7
Cs2 Fe2 Fe1 116.24(2) 3_545 7
Cs2 Fe2 Fe1 71.138(18) 4 7
Cs4 Fe2 Fe1 123.35(2) 3 7
Fe1 Fe2 Fe1 78.76(2) 1_565 7
Fe1 Fe2 Fe1 101.90(2) 2_665 7
Cs3 Fe2 Fe1 86.073(18) 4_545 7
Cs4 Fe2 Fe1 35.882(13) 6_565 7
Cs4 Fe2 Fe1 148.94(2) 5_666 7
Fe2 Fe2 Fe1 133.64(3) 5_666 7
Cs2 Fe2 Fe1 76.992(17) 4_545 7
Cs4 Fe2 Fe1 121.36(2) 3_545 7
Cs1 Fe2 Fe1 129.60(2) 7_556 7
Cs4 Fe2 Fe1 104.231(19) 2_655 7
S4 Fe2 Fe1 79.39(7) 4 6_556
S2 Fe2 Fe1 88.24(6) 2_655 6_556
S1 Fe2 Fe1 50.11(6) . 6_556
S2 Fe2 Fe1 154.60(7) . 6_556
Fe1 Fe2 Fe1 103.25(3) . 6_556
Fe1 Fe2 Fe1 69.02(4) 2_655 6_556
Fe2 Fe2 Fe1 127.51(5) 2_655 6_556
Cs1 Fe2 Fe1 136.69(3) 3 6_556
Cs2 Fe2 Fe1 23.387(18) 7_556 6_556
Cs3 Fe2 Fe1 95.74(3) . 6_556
S1 Fe2 Fe1 101.47(4) 2_655 6_556
Cs2 Fe2 Fe1 82.03(2) 3 6_556
Cs4 Fe2 Fe1 48.329(17) . 6_556
Cs4 Fe2 Fe1 121.48(3) 4 6_556
S3 Fe2 Fe1 101.74(4) 6 6_556
S4 Fe2 Fe1 136.94(4) 3 6_556
S3 Fe2 Fe1 56.10(3) 5_656 6_556
Cs1 Fe2 Fe1 69.362(17) 3_545 6_556
Cs3 Fe2 Fe1 93.84(2) 2_655 6_556
Cs3 Fe2 Fe1 78.108(18) 4 6_556
Cs2 Fe2 Fe1 138.33(2) 8 6_556
Cs3 Fe2 Fe1 60.565(17) 8_556 6_556
Cs3 Fe2 Fe1 130.74(2) 7 6_556
Cs4 Fe2 Fe1 69.551(17) 4_545 6_556
Cs2 Fe2 Fe1 30.360(13) 3_545 6_556
Cs2 Fe2 Fe1 171.03(3) 4 6_556
Cs4 Fe2 Fe1 118.30(2) 3 6_556
Fe1 Fe2 Fe1 138.81(2) 1_565 6_556
Fe1 Fe2 Fe1 120.75(2) 2_665 6_556
Cs3 Fe2 Fe1 34.567(13) 4_545 6_556
Cs4 Fe2 Fe1 151.60(2) 6_565 6_556
Cs4 Fe2 Fe1 82.734(18) 5_666 6_556
Fe2 Fe2 Fe1 55.925(19) 5_666 6_556
Cs2 Fe2 Fe1 101.840(19) 4_545 6_556
Cs4 Fe2 Fe1 77.593(17) 3_545 6_556
Cs1 Fe2 Fe1 27.754(12) 7_556 6_556
Cs4 Fe2 Fe1 122.13(2) 2_655 6_556
Fe1 Fe2 Fe1 117.82(2) 7 6_556
Fe1 S1 Fe2 74.16(8) 2_655 .
Fe1 S1 Fe1 73.73(8) 2_655 .
Fe2 S1 Fe1 73.29(7) . .
Fe1 S1 Cs1 72.71(6) 2_655 3_545
Fe2 S1 Cs1 137.50(8) . 3_545
Fe1 S1 Cs1 72.42(6) . 3_545
Fe1 S1 Cs2 76.19(7) 2_655 7_556
Fe2 S1 Cs2 71.60(6) . 7_556
Fe1 S1 Cs2 138.62(9) . 7_556
Cs1 S1 Cs2 123.81(6) 3_545 7_556
Fe1 S1 Cs3 136.41(9) 2_655 .
Fe2 S1 Cs3 71.55(6) . .
Fe1 S1 Cs3 71.25(6) . .
Cs1 S1 Cs3 118.75(6) 3_545 .
Cs2 S1 Cs3 116.18(6) 7_556 .
Fe1 S1 Fe2 43.45(5) 2_655 2_655
Fe2 S1 Fe2 44.26(5) . 2_655
Fe1 S1 Fe2 43.85(5) . 2_655
Cs1 S1 Fe2 93.26(5) 3_545 2_655
Cs2 S1 Fe2 94.97(5) 7_556 2_655
Cs3 S1 Fe2 92.96(5) . 2_655
Fe1 S1 Cs2 82.64(7) 2_655 3_545
Fe2 S1 Cs2 137.57(9) . 3_545
Fe1 S1 Cs2 133.13(8) . 3_545
Cs1 S1 Cs2 62.00(4) 3_545 3_545
Cs2 S1 Cs2 68.59(4) 7_556 3_545
Cs3 S1 Cs2 140.84(6) . 3_545
Fe2 S1 Cs2 126.05(6) 2_655 3_545
Fe1 S1 Cs4 136.00(8) 2_655 4_545
Fe2 S1 Cs4 135.61(9) . 4_545
Fe1 S1 Cs4 84.83(7) . 4_545
Cs1 S1 Cs4 64.24(4) 3_545 4_545
Cs2 S1 Cs4 136.24(6) 7_556 4_545
Cs3 S1 Cs4 64.91(4) . 4_545
Fe2 S1 Cs4 128.67(6) 2_655 4_545
Cs2 S1 Cs4 85.07(4) 3_545 4_545
Fe1 S1 Cs4 137.24(8) 2_655 .
Fe2 S1 Cs4 80.71(6) . .
Fe1 S1 Cs4 130.64(8) . .
Cs1 S1 Cs4 141.56(6) 3_545 .
Cs2 S1 Cs4 63.17(3) 7_556 .
Cs3 S1 Cs4 60.87(3) . .
Fe2 S1 Cs4 124.90(6) 2_655 .
Cs2 S1 Cs4 93.89(4) 3_545 .
Cs4 S1 Cs4 85.54(4) 4_545 .
Fe1 S1 Cs3 134.35(8) 2_655 4_545
Fe2 S1 Cs3 135.91(8) . 4_545
Fe1 S1 Cs3 138.16(8) . 4_545
Cs1 S1 Cs3 86.58(4) 3_545 4_545
Cs2 S1 Cs3 83.12(4) 7_556 4_545
Cs3 S1 Cs3 89.23(4) . 4_545
Fe2 S1 Cs3 177.57(6) 2_655 4_545
Cs2 S1 Cs3 51.84(3) 3_545 4_545
Cs4 S1 Cs3 53.34(3) 4_545 4_545
Cs4 S1 Cs3 55.50(3) . 4_545
Fe1 S2 Fe2 74.13(8) . 2_655
Fe1 S2 Fe2 73.46(8) . .
Fe2 S2 Fe2 74.27(8) 2_655 .
Fe1 S2 Cs1 137.13(9) . 3
Fe2 S2 Cs1 72.43(6) 2_655 3
Fe2 S2 Cs1 72.24(6) . 3
Fe1 S2 Cs3 73.78(6) . .
Fe2 S2 Cs3 139.68(9) 2_655 .
Fe2 S2 Cs3 73.68(6) . .
Cs1 S2 Cs3 119.01(6) 3 .
Fe1 S2 Cs2 76.36(6) . 8
Fe2 S2 Cs2 71.81(6) 2_655 8
Fe2 S2 Cs2 139.43(9) . 8
Cs1 S2 Cs2 116.55(6) 3 8
Cs3 S2 Cs2 122.36(6) . 8
Fe1 S2 Cs3 84.87(7) . 7
Fe2 S2 Cs3 135.89(9) 2_655 7
Fe2 S2 Cs3 136.02(9) . 7
Cs1 S2 Cs3 138.00(6) 3 7
Cs3 S2 Cs3 63.56(4) . 7
Cs2 S2 Cs3 65.66(4) 8 7
Fe1 S2 Fe1 43.99(6) . 2_655
Fe2 S2 Fe1 43.83(5) 2_655 2_655
Fe2 S2 Fe1 44.16(5) . 2_655
Cs1 S2 Fe1 93.14(5) 3 2_655
Cs3 S2 Fe1 95.86(5) . 2_655
Cs2 S2 Fe1 95.33(5) 8 2_655
Cs3 S2 Fe1 128.85(6) 7 2_655
Fe1 S2 Cs2 140.32(9) . 4
Fe2 S2 Cs2 83.60(7) 2_655 4
Fe2 S2 Cs2 131.41(8) . 4
Cs1 S2 Cs2 59.88(3) 3 4
Cs3 S2 Cs2 136.50(6) . 4
Cs2 S2 Cs2 65.53(4) 8 4
Cs3 S2 Cs2 89.14(5) 7 4
Fe1 S2 Cs2 127.22(6) 2_655 4
Fe1 S2 Cs4 136.17(8) . 4
Fe2 S2 Cs4 130.59(8) 2_655 4
Fe2 S2 Cs4 79.88(6) . 4
Cs1 S2 Cs4 59.75(3) 3 4
Cs3 S2 Cs4 65.58(4) . 4
Cs2 S2 Cs4 140.08(6) 8 4
Cs3 S2 Cs4 91.16(5) 7 4
Fe1 S2 Cs4 123.90(6) 2_655 4
Cs2 S2 Cs4 83.02(4) 4 4
Fe1 S3 Cs4 175.36(11) 6_556 .
Fe1 S3 Cs2 99.86(8) 6_556 7_556
Cs4 S3 Cs2 77.53(5) . 7_556
Fe1 S3 Cs3 97.11(8) 6_556 4_545
Cs4 S3 Cs3 80.82(5) . 4_545
Cs2 S3 Cs3 116.47(7) 7_556 4_545
Fe1 S3 Cs4 102.34(9) 6_556 7_556
Cs4 S3 Cs4 82.25(5) . 7_556
Cs2 S3 Cs4 113.30(7) 7_556 7_556
Cs3 S3 Cs4 121.79(7) 4_545 7_556
Fe1 S3 Cs3 70.78(7) 6_556 6_556
Cs4 S3 Cs3 111.78(6) . 6_556
Cs2 S3 Cs3 170.64(7) 7_556 6_556
Cs3 S3 Cs3 65.71(4) 4_545 6_556
Cs4 S3 Cs3 70.17(4) 7_556 6_556
Fe1 S3 Cs1 67.30(7) 6_556 7_556
Cs4 S3 Cs1 114.46(6) . 7_556
Cs2 S3 Cs1 65.27(4) 7_556 7_556
Cs3 S3 Cs1 164.01(7) 4_545 7_556
Cs4 S3 Cs1 67.47(4) 7_556 7_556
Cs3 S3 Cs1 109.96(6) 6_556 7_556
Fe1 S3 Cs2 65.78(6) 6_556 3_545
Cs4 S3 Cs2 109.61(6) . 3_545
Cs2 S3 Cs2 69.00(4) 7_556 3_545
Cs3 S3 Cs2 63.78(4) 4_545 3_545
Cs4 S3 Cs2 167.99(7) 7_556 3_545
Cs3 S3 Cs2 105.76(5) 6_556 3_545
Cs1 S3 Cs2 104.67(5) 7_556 3_545
Fe1 S3 Fe2 21.05(5) 6_556 6_556
Cs4 S3 Fe2 161.48(7) . 6_556
Cs2 S3 Fe2 120.86(6) 7_556 6_556
Cs3 S3 Fe2 88.04(5) 4_545 6_556
Cs4 S3 Fe2 91.26(5) 7_556 6_556
Cs3 S3 Fe2 49.80(3) 6_556 6_556
Cs1 S3 Fe2 78.34(4) 7_556 6_556
Cs2 S3 Fe2 77.97(4) 3_545 6_556
Fe1 S3 Fe1 19.88(5) 6_556 5_656
Cs4 S3 Fe1 161.77(7) . 5_656
Cs2 S3 Fe1 90.10(5) 7_556 5_656
Cs3 S3 Fe1 116.99(6) 4_545 5_656
Cs4 S3 Fe1 90.61(5) 7_556 5_656
Cs3 S3 Fe1 81.06(4) 6_556 5_656
Cs1 S3 Fe1 47.47(3) 7_556 5_656
Cs2 S3 Fe1 77.50(4) 3_545 5_656
Fe2 S3 Fe1 34.24(3) 6_556 5_656
Fe1 S3 Fe2 18.60(5) 6_556 5_656
Cs4 S3 Fe2 156.79(7) . 5_656
Cs2 S3 Fe2 91.01(5) 7_556 5_656
Cs3 S3 Fe2 86.55(5) 4_545 5_656
Cs4 S3 Fe2 120.94(6) 7_556 5_656
Cs3 S3 Fe2 79.93(4) 6_556 5_656
Cs1 S3 Fe2 77.48(4) 7_556 5_656
Cs2 S3 Fe2 47.18(3) 3_545 5_656
Fe2 S3 Fe2 34.37(3) 6_556 5_656
Fe1 S3 Fe2 33.87(3) 5_656 5_656
Fe2 S4 Cs3 175.23(11) 4_545 .
Fe2 S4 Cs4 108.57(9) 4_545 .
Cs3 S4 Cs4 74.85(5) . .
Fe2 S4 Cs4 106.62(9) 4_545 4_545
Cs3 S4 Cs4 74.58(5) . 4_545
Cs4 S4 Cs4 112.10(6) . 4_545
Fe2 S4 Cs2 104.07(8) 4_545 2
Cs3 S4 Cs2 71.63(5) . 2
Cs4 S4 Cs2 103.38(6) . 2
Cs4 S4 Cs2 121.37(7) 4_545 2
Fe2 S4 Cs2 70.70(7) 4_545 6
Cs3 S4 Cs2 105.61(6) . 6
Cs4 S4 Cs2 175.21(8) . 6
Cs4 S4 Cs2 72.47(5) 4_545 6
Cs2 S4 Cs2 72.47(5) 2 6
Fe2 S4 Cs1 67.27(6) 4_545 .
Cs3 S4 Cs1 111.81(6) . .
Cs4 S4 Cs1 67.99(4) . .
Cs4 S4 Cs1 172.95(7) 4_545 .
Cs2 S4 Cs1 64.67(4) 2 .
Cs2 S4 Cs1 107.67(6) 6 .
Fe2 S4 Cs3 68.38(7) 4_545 4_545
Cs3 S4 Cs3 116.14(6) . 4_545
Cs4 S4 Cs3 73.77(5) . 4_545
Cs4 S4 Cs3 68.26(4) 4_545 4_545
Cs2 S4 Cs3 169.85(7) 2 4_545
Cs2 S4 Cs3 109.89(6) 6 4_545
Cs1 S4 Cs3 105.50(5) . 4_545
Fe2 S4 Fe1 19.41(5) 4_545 4_545
Cs3 S4 Fe1 165.03(7) . 4_545
Cs4 S4 Fe1 99.22(5) . 4_545
Cs4 S4 Fe1 95.63(5) 4_545 4_545
Cs2 S4 Fe1 123.33(6) 2 4_545
Cs2 S4 Fe1 81.48(4) 6 4_545
Cs1 S4 Fe1 77.51(4) . 4_545
Cs3 S4 Fe1 48.97(3) 4_545 4_545
Fe2 S4 Fe1 19.49(5) 4_545 3_445
Cs3 S4 Fe1 156.59(7) . 3_445
Cs4 S4 Fe1 127.92(6) . 3_445
Cs4 S4 Fe1 97.85(5) 4_545 3_445
Cs2 S4 Fe1 95.00(5) 2 3_445
Cs2 S4 Fe1 51.21(3) 6 3_445
Cs1 S4 Fe1 77.40(4) . 3_445
Cs3 S4 Fe1 79.77(4) 4_545 3_445
Fe1 S4 Fe1 34.00(3) 4_545 3_445
Fe2 S4 Fe2 20.23(4) 4_545 3_445
Cs3 S4 Fe2 158.41(7) . 3_445
Cs4 S4 Fe2 96.53(5) . 3_445
Cs4 S4 Fe2 126.81(6) 4_545 3_445
Cs2 S4 Fe2 91.77(5) 2 3_445
Cs2 S4 Fe2 81.37(4) 6 3_445
Cs1 S4 Fe2 47.04(3) . 3_445
Cs3 S4 Fe2 79.02(4) 4_545 3_445
Fe1 S4 Fe2 34.02(3) 4_545 3_445
Fe1 S4 Fe2 33.86(3) 3_445 3_445
loop_
_geom_bond_atom_site_label_1
_geom_bond_atom_site_label_2
_geom_bond_distance
_geom_bond_site_symmetry_2
Cs1 S2 3.479(2) 3_445
Cs1 S2 3.479(2) 4_545
Cs1 S1 3.495(2) 4
Cs1 S1 3.495(2) 3_455
Cs1 Fe2 3.5578(15) 3_445
Cs1 Fe2 3.5578(14) 4_545
Cs1 Fe1 3.5773(15) 4
Cs1 Fe1 3.5773(15) 3_455
Cs1 S4 3.766(2) 2
Cs1 S4 3.766(2) .
Cs1 S3 3.790(2) 7_556
Cs1 S3 3.790(2) 8_455
Cs1 Cs2 3.9012(6) .
Cs1 Cs2 3.9013(6) 2
Cs1 Cs4 4.0391(7) 2
Cs1 Cs4 4.0391(7) .
Cs1 Fe1 5.4252(15) 3_445
Cs1 Fe1 5.4252(15) 4_545
Cs1 Fe2 5.4531(15) 4
Cs1 Fe2 5.4531(15) 3_455
Cs1 Cs3 5.9338(6) 2
Cs1 Cs3 5.9338(6) .
Cs1 Cs4 6.0374(6) 7_556
Cs1 Cs4 6.0374(6) 8_455
Cs1 Cs2 6.0392(8) 6
Cs1 Cs2 6.0392(8) 5_556
Cs1 Cs3 6.0960(8) 3_445
Cs1 Cs3 6.0960(8) 4_545
Cs1 Cs3 6.1972(8) 4
Cs1 Cs3 6.1972(8) 3_455
Cs1 Cs2 6.2854(9) 5_566
Cs1 Cs2 6.2854(9) 6_565
Cs1 Cs3 6.8318(8) 5
Cs1 Cs3 6.8318(8) 6_556
Cs1 Cs3 7.1467(8) 6_566
Cs1 Cs3 7.1467(8) 5_565
Cs1 Cs4 7.2422(8) 3_445
Cs1 Cs4 7.2422(8) 4_545
Cs1 Fe2 7.4266(13) 8_455
Cs1 Fe2 7.4266(13) 7_556
Cs1 Cs4 7.4694(8) 4
Cs1 Cs4 7.4694(8) 3_455
Cs2 S3 3.422(2) 7_556
Cs2 S4 3.518(2) 2
Cs2 S2 3.620(2) 8_456
Cs2 S1 3.630(2) 7_556
Cs2 Fe2 3.6452(14) 7_556
Cs2 S4 3.715(2) 6_556
Cs2 Fe1 3.8162(14) 8_456
Cs2 S1 4.028(2) 3_455
Cs2 Cs3 4.0470(9) 2
Cs2 S3 4.146(2) 3_455
Cs2 S2 4.228(2) 4_545
Cs2 Cs4 4.2624(9) 7_556
Cs2 Cs2 4.2782(14) 5_556
Cs2 Cs2 4.3272(14) 5_566
Cs2 Fe1 4.3864(14) 4
Cs2 Fe2 4.5974(14) 3_445
Cs2 Cs4 5.4615(9) 2
Cs2 Fe1 5.6207(14) 7_556
Cs2 Fe2 5.6237(14) 8_456
Cs2 Cs3 5.6671(9) 6_556
Cs2 Cs4 5.7549(9) .
Cs2 Cs3 5.8229(9) 6_566
Cs2 Fe1 5.8972(14) 3_455
Cs2 Fe2 5.9668(15) 3_455
Cs2 Cs1 6.0392(8) 5_556
Cs2 Fe2 6.0513(14) 4_545
Cs2 Cs4 6.1109(9) 3_445
Cs2 Cs4 6.1702(10) 3_455
Cs2 Fe1 6.2039(15) 4_545
Cs2 Cs3 6.2275(9) 7_556
Cs2 Cs1 6.2855(9) 5_566
Cs2 Cs3 6.3218(8) 8_456
Cs2 Cs4 7.1292(9) 6_566
Cs2 Fe2 7.1473(14) 4
Cs2 Cs4 7.1507(9) 6_556
Cs2 Cs3 7.1754(9) 4
Cs2 Cs3 7.2701(9) 4_545
Cs2 Cs3 7.2874(9) 3_455
Cs2 Fe1 7.3502(14) 3_445
Cs2 Cs3 7.3807(9) 3_445
Cs3 S4 3.396(2) .
Cs3 S3 3.427(2) 4
Cs3 S2 3.595(2) .
Cs3 Fe1 3.6987(14) .
Cs3 Fe2 3.7039(14) .
Cs3 S1 3.706(2) .
Cs3 S3 3.778(2) 6
Cs3 S2 3.837(2) 7
Cs3 S4 3.892(2) 4
Cs3 Cs3 3.9198(12) 7
Cs3 Cs2 4.0469(9) 2
Cs3 Cs4 4.1555(9) .
Cs3 Cs4 4.1724(9) 4_545
Cs3 Fe1 4.3081(14) 7
Cs3 Cs4 4.4167(9) 4
Cs3 S1 5.008(2) 4
Cs3 Fe2 5.5860(14) 2_655
Cs3 Fe2 5.6168(14) 4_545
Cs3 Fe1 5.6261(14) 2_655
Cs3 Cs2 5.6671(9) 6
Cs3 Fe2 5.7504(14) 8_455
Cs3 Fe2 5.7703(14) 7
Cs3 Cs2 5.8230(9) 6_565
Cs3 Cs4 5.9355(9) 6
Cs3 Cs4 6.0242(8) 6_565
Cs3 Cs1 6.0960(8) 3
Cs3 Cs3 6.1903(9) 4
Cs3 Cs3 6.1903(9) 4_545
Cs3 Cs1 6.1972(8) 3_545
Cs3 Cs2 6.2275(9) 7_556
Cs3 Cs2 6.3217(8) 8
Cs3 Cs1 6.8317(8) 5
Cs3 Fe1 6.8413(14) 3_455
Cs3 Fe2 6.8836(14) 4
Cs3 Fe1 6.9463(14) 4
Cs3 Fe1 7.0483(14) 8_455
Cs3 Cs1 7.1468(8) 5_565
Cs3 Cs2 7.1754(9) 4_545
Cs3 Cs2 7.2702(9) 4
Cs3 Cs2 7.2874(9) 3_545
Cs3 Cs2 7.3808(9) 3
Cs4 S3 3.386(2) .
Cs4 S4 3.442(2) .
Cs4 S3 3.468(2) 7_556
Cs4 S4 3.490(2) 4
Cs4 S1 4.051(2) 4
Cs4 Cs3 4.1725(9) 4
Cs4 Cs2 4.2625(9) 7_556
Cs4 S1 4.409(2) .
Cs4 Cs3 4.4167(9) 4_545
Cs4 S2 4.451(2) 4_545
Cs4 Fe1 4.5000(14) 4
Cs4 Cs4 4.5083(12) 7_556
Cs4 Fe2 4.6457(14) .
Cs4 Fe2 4.6566(14) 4_545
Cs4 Cs2 5.4616(9) 2
Cs4 Fe1 5.6022(14) 6_556
Cs4 Cs4 5.7508(8) 4_545
Cs4 Cs4 5.7508(8) 4
Cs4 Cs3 5.9354(9) 6_556
Cs4 Fe1 5.9494(14) 3_455
Cs4 Fe2 5.9516(14) 4
Cs4 Cs3 6.0242(8) 6_566
Cs4 Cs1 6.0374(6) 7_556
Cs4 Cs2 6.1108(9) 3
Cs4 Cs2 6.1702(10) 3_545
Cs4 Fe1 6.2092(14) .
Cs4 Fe2 6.2304(14) 3_445
Cs4 Fe1 6.3194(14) 2_655
Cs4 Fe1 6.3425(14) 4_545
Cs4 Fe2 7.0660(14) 6_566
Cs4 Fe2 7.0747(14) 5_666
Cs4 Fe1 7.0941(14) 6_566
Cs4 Cs2 7.1292(9) 6_565
Cs4 Cs2 7.1507(9) 6
Cs4 Cs1 7.2422(8) 3
Cs4 Fe2 7.2495(14) 3_455
Cs4 Fe1 7.4413(14) 3_445
Cs4 Fe2 7.4514(14) 2_655
Cs4 Cs1 7.4694(8) 3_545
Fe1 S3 2.221(3) 6
Fe1 S1 2.328(3) 2_655
Fe1 S2 2.332(2) .
Fe1 S1 2.359(2) .
Fe1 Fe2 2.8042(18) .
Fe1 Fe1 2.812(3) 2_655
Fe1 Fe2 2.8141(18) 2_655
Fe1 Cs1 3.5773(15) 3_545
Fe1 Cs2 3.8161(14) 8
Fe1 S2 3.976(3) 2_655
Fe1 Cs3 4.3081(14) 7
Fe1 Cs2 4.3865(14) 4_545
Fe1 Cs4 4.5000(14) 4_545
Fe1 S3 4.797(3) 5_656
Fe1 S4 4.804(2) 4
Fe1 S4 4.813(2) 3
Fe1 Cs1 5.4252(15) 3
Fe1 Cs4 5.6022(14) 6
Fe1 Cs2 5.6206(14) 7_556
Fe1 Cs3 5.6262(14) 2_655
Fe1 Cs2 5.8972(14) 3_545
Fe1 Cs4 5.9494(14) 3_545
Fe1 Cs2 6.2040(15) 4
Fe1 Cs4 6.3194(14) 2_655
Fe1 Cs4 6.3425(14) 4
Fe1 Cs3 6.8413(14) 3_545
Fe1 Fe2 6.8481(18) 1_545
Fe1 Fe2 6.8521(18) 2_645
Fe1 Cs3 6.9462(14) 4_545
Fe1 Fe1 6.992(3) 5_655
Fe1 Fe1 7.008(3) 7
Fe1 Cs3 7.0483(15) 8_556
Fe1 Cs4 7.0941(14) 6_565
Fe1 Cs2 7.3502(14) 3
Fe1 Cs4 7.4413(14) 3
Fe1 Fe2 7.4851(18) 7
Fe1 Fe2 7.4866(18) 6
Fe2 S4 2.226(2) 4
Fe2 S2 2.337(3) 2_655
Fe2 S1 2.339(2) .
Fe2 S2 2.357(3) .
Fe2 Fe1 2.8140(18) 2_655
Fe2 Fe2 2.834(2) 2_655
Fe2 Cs1 3.5578(14) 3
Fe2 Cs2 3.6452(14) 7_556
Fe2 S1 3.992(2) 2_655
Fe2 Cs2 4.5975(14) 3
Fe2 Cs4 4.6566(14) 4
Fe2 S3 4.761(3) 6
Fe2 S4 4.816(2) 3
Fe2 S3 4.828(3) 5_656
Fe2 Cs1 5.4532(15) 3_545
Fe2 Cs3 5.5860(14) 2_655
Fe2 Cs3 5.6168(14) 4
Fe2 Cs2 5.6236(14) 8
Fe2 Cs3 5.7503(14) 8_556
Fe2 Cs3 5.7703(14) 7
Fe2 Cs4 5.9516(14) 4_545
Fe2 Cs2 5.9668(15) 3_545
Fe2 Cs2 6.0513(14) 4
Fe2 Cs4 6.2303(14) 3
Fe2 Fe1 6.8481(18) 1_565
Fe2 Fe1 6.8521(18) 2_665
Fe2 Cs3 6.8836(14) 4_545
Fe2 Cs4 7.0660(14) 6_565
Fe2 Cs4 7.0747(14) 5_666
Fe2 Fe2 7.110(3) 5_666
Fe2 Cs2 7.1473(14) 4_545
Fe2 Cs4 7.2494(14) 3_545
Fe2 Cs1 7.4267(13) 7_556
Fe2 Cs4 7.4513(14) 2_655
Fe2 Fe1 7.4851(18) 7
Fe2 Fe1 7.4867(18) 6_556
S1 Fe1 2.328(3) 2_655
S1 Cs1 3.495(2) 3_545
S1 Cs2 3.630(2) 7_556
S1 Fe2 3.992(2) 2_655
S1 Cs2 4.028(2) 3_545
S1 Cs4 4.051(2) 4_545
S1 Cs3 5.008(2) 4_545
S2 Fe2 2.337(3) 2_655
S2 Cs1 3.479(2) 3
S2 Cs2 3.620(2) 8
S2 Cs3 3.837(2) 7
S2 Fe1 3.976(3) 2_655
S2 Cs2 4.228(2) 4
S2 Cs4 4.451(2) 4
S3 Fe1 2.221(3) 6_556
S3 Cs2 3.422(2) 7_556
S3 Cs3 3.427(2) 4_545
S3 Cs4 3.468(2) 7_556
S3 Cs3 3.778(2) 6_556
S3 Cs1 3.790(2) 7_556
S3 Cs2 4.146(2) 3_545
S3 Fe2 4.761(3) 6_556
S3 Fe1 4.797(3) 5_656
S3 Fe2 4.828(3) 5_656
S4 Fe2 2.226(2) 4_545
S4 Cs4 3.490(2) 4_545
S4 Cs2 3.518(2) 2
S4 Cs2 3.715(2) 6
S4 Cs3 3.892(2) 4_545
S4 Fe1 4.804(2) 4_545
S4 Fe1 4.813(2) 3_445
S4 Fe2 4.816(2) 3_445
