#------------------------------------------------------------------------------
#$Date: 2016-02-16 22:30:59 +0200 (Tue, 16 Feb 2016) $
#$Revision: 176467 $
#$URL: svn://www.crystallography.net/cod/cif/4/34/18/4341895.cif $
#------------------------------------------------------------------------------
#
# This file is available in the Crystallography Open Database (COD),
# http://www.crystallography.net/
#
# All data on this site have been placed in the public domain by the
# contributors.
#
data_4341895
loop_
_publ_author_name
'Smetana, Volodymyr'
'Steinberg, Simon'
'Card, Nathan'
'Mudring, Anja-Verena'
'Miller, Gordon J.'
_publ_section_title
;
 Crystal Structure and Bonding in BaAu5Ga2 and AeAu4+xGa3-x (Ae = Ba and
 Eu): Hexagonal Diamond-Type Au Frameworks and Remarkable Cation/Anion
 Partitioning in the Ae-Au-Ga Systems.
;
_journal_issue                   3
_journal_name_full               'Inorganic chemistry'
_journal_page_first              1010
_journal_page_last               1018
_journal_paper_doi               10.1021/ic502402y
_journal_volume                  54
_journal_year                    2015
_chemical_formula_sum            'Au4.44 Eu1.1 Ga2.18'
_chemical_formula_weight         1195.07
_chemical_name_systematic
;
 ?
;
_space_group_crystal_system      hexagonal
_space_group_IT_number           189
_space_group_name_Hall           'P -6 -2'
_space_group_name_H-M_alt        'P -6 2 m'
_symmetry_space_group_name_Hall  'P -6 -2'
_symmetry_space_group_name_H-M   'P -6 2 m'
_audit_creation_method           SHELXL-2014
_cell_angle_alpha                90
_cell_angle_beta                 90
_cell_angle_gamma                120
_cell_formula_units_Z            3
_cell_length_a                   8.5277(11)
_cell_length_b                   8.5277(11)
_cell_length_c                   7.2451(12)
_cell_measurement_reflns_used    720
_cell_measurement_temperature    296(2)
_cell_measurement_theta_max      29.373
_cell_measurement_theta_min      4.781
_cell_volume                     456.29(11)
_computing_cell_refinement       'Bruker SAINT'
_computing_data_collection       'Bruker APEX2'
_computing_data_reduction        'Bruker SAINT'
_computing_molecular_graphics    'Bruker SHELXTL'
_computing_publication_material  'Bruker SHELXTL'
_computing_structure_refinement  'SHELXL-2014 (Sheldrick, 2014)'
_computing_structure_solution    'SHELXS-97 (Sheldrick 2008)'
_diffrn_ambient_temperature      296(2)
_diffrn_measured_fraction_theta_full 1.000
_diffrn_measured_fraction_theta_max 1.000
_diffrn_measurement_device_type  'Bruker APEX-II CCD'
_diffrn_measurement_method       '\f and \w scans'
_diffrn_radiation_type           MoK\a
_diffrn_radiation_wavelength     0.71073
_diffrn_reflns_av_R_equivalents  0.1048
_diffrn_reflns_av_unetI/netI     0.0462
_diffrn_reflns_Laue_measured_fraction_full 1.000
_diffrn_reflns_Laue_measured_fraction_max 1.000
_diffrn_reflns_limit_h_max       7
_diffrn_reflns_limit_h_min       -13
_diffrn_reflns_limit_k_max       13
_diffrn_reflns_limit_k_min       -12
_diffrn_reflns_limit_l_max       11
_diffrn_reflns_limit_l_min       -11
_diffrn_reflns_number            8322
_diffrn_reflns_point_group_measured_fraction_full 1.000
_diffrn_reflns_point_group_measured_fraction_max 1.000
_diffrn_reflns_theta_full        25.242
_diffrn_reflns_theta_max         34.563
_diffrn_reflns_theta_min         2.758
_exptl_absorpt_coefficient_mu    127.277
_exptl_absorpt_correction_T_max  0.7468
_exptl_absorpt_correction_T_min  0.3803
_exptl_absorpt_correction_type   empirical
_exptl_absorpt_process_details
;
SADABAS, R. H. Blessing, Acta Crystallogr. A 1995, 51, 33.
;
_exptl_crystal_colour            silver
_exptl_crystal_density_diffrn    13.047
_exptl_crystal_description       polyhedral
_exptl_crystal_F_000             1465
_exptl_crystal_size_max          0.1
_exptl_crystal_size_mid          0.1
_exptl_crystal_size_min          0.1
_refine_diff_density_max         4.229
_refine_diff_density_min         -4.843
_refine_diff_density_rms         0.598
_refine_ls_abs_structure_details
;
 Flack x determined using 237 quotients [(I+)-(I-)]/[(I+)+(I-)]
 (Parsons, Flack and Wagner, Acta Cryst. B69 (2013) 249-259).
;
_refine_ls_abs_structure_Flack   0.06(3)
_refine_ls_extinction_coef       0.00120(13)
_refine_ls_extinction_expression Fc^*^=kFc[1+0.001xFc^2^\l^3^/sin(2\q)]^-1/4^
_refine_ls_extinction_method     SHELXL
_refine_ls_goodness_of_fit_ref   1.031
_refine_ls_hydrogen_treatment    undef
_refine_ls_matrix_type           full
_refine_ls_number_parameters     32
_refine_ls_number_reflns         760
_refine_ls_number_restraints     0
_refine_ls_restrained_S_all      1.031
_refine_ls_R_factor_all          0.0468
_refine_ls_R_factor_gt           0.0331
_refine_ls_shift/su_max          0.000
_refine_ls_shift/su_mean         0.000
_refine_ls_structure_factor_coef Fsqd
_refine_ls_weighting_details
'w=1/[\s^2^(Fo^2^)+(0.0186P)^2^+15.4048P] where P=(Fo^2^+2Fc^2^)/3'
_refine_ls_weighting_scheme      calc
_refine_ls_wR_factor_gt          0.0619
_refine_ls_wR_factor_ref         0.0678
_reflns_Friedel_coverage         0.731
_reflns_Friedel_fraction_full    1.000
_reflns_Friedel_fraction_max     1.000
_reflns_number_gt                629
_reflns_number_total             760
_reflns_threshold_expression     'I > 2\s(I)'
_cod_data_source_file            ic502402y_si_002.cif
_cod_data_source_block           crystal-1
_cod_depositor_comments
'Adding full bibliography for 4341895--4341903.cif.'
_cod_original_cell_volume        456.29(14)
_cod_original_formula_sum        'Au4.44 Eu1.10 Ga2.18'
_cod_database_code               4341895
#BEGIN Tags that were not found in dictionaries:
_shelx_space_group_comment
;
The symmetry employed for this shelxl refinement is uniquely defined
by the following loop, which should always be used as a source of
symmetry information in preference to the above space-group names.
They are only intended as comments.
;
_shelxl_version_number           2014-1
_shelx_res_file
;
TITL ST30M_0m in P-62m
CELL 0.71073   8.52770   8.52770   7.24510  90.0000  90.0000 120.0000
ZERR    3.00   0.00110   0.00110   0.00120   0.0000   0.0000   0.0000
LATT -1
SYMM -Y, X-Y, Z
SYMM -X+Y, -X, Z
SYMM X, Y, -Z
SYMM -Y, X-Y, -Z
SYMM -X+Y, -X, -Z
SYMM Y, X, -Z
SYMM X-Y, -Y, -Z
SYMM -X, -X+Y, -Z
SYMM Y, X, Z
SYMM X-Y, -Y, Z
SYMM -X, -X+Y, Z
SFAC GA EU AU
UNIT 6.55  3.31  13.33
TEMP 23.000
ACTA
L.S. 25
BOND
FMAP 2
PLAN 3
EXYZ GA3 AU3
EADP GA3 AU3 EU3
EXYZ GA4 AU4
EADP GA4 AU4 EU4
WGHT    0.018600   15.404796
EXTI    0.001202
FVAR       0.04771   0.82008   0.84923   0.15834   0.86360
MOLE   1
EU1   2    0.000000    0.000000    0.000000    10.08333    0.01180    0.01180 =
         0.01584    0.00000    0.00000    0.00590
EU2   2    0.333333    0.666667    0.500000    10.16667    0.00982    0.00982 =
         0.02838    0.00000    0.00000    0.00491
AU1   3    0.699853    0.000000    0.301135    10.50000    0.01658    0.01978 =
         0.01132    0.00000   -0.00137    0.00989
AU2   3    0.369160    0.000000    0.208401    10.50000    0.01681    0.02044 =
         0.01539    0.00000    0.00278    0.01022
PART 1
GA3   1    0.296189    0.475618    0.000000    20.42000    0.02966    0.02152 =
         0.01456    0.00000    0.00000    0.00989
GA4   1    0.200859    0.000000    0.500000    30.22840    0.02127    0.01011 =
         0.01459    0.00000    0.00000    0.00505
PART 2
AU3   3    0.296189    0.475618    0.000000   -20.42000    0.02966    0.02152 =
         0.01456    0.00000    0.00000    0.00989
AU4   3    0.200859    0.000000    0.500000   -30.22840    0.02127    0.01011 =
         0.01459    0.00000    0.00000    0.00505
PART 3
EU3   2    0.333333    0.666667    0.000000    40.16667    0.02966    0.02152 =
         0.01456    0.00000    0.00000    0.00989
EU4   1    0.000000    0.000000    0.500000    40.04167    0.02127    0.01011 =
         0.01459    0.00000    0.00000    0.00505
PART 0

MOLE   2
HKLF 4

REM  ST30M_0m in P-62m
REM R1 =  0.0331 for     629 Fo > 4sig(Fo)  and  0.0468 for all     760 data
REM     32 parameters refined using      0 restraints

END

WGHT      0.0186     15.3937

REM Highest difference peak  4.229,  deepest hole -4.843,  1-sigma level  0.598
Q1    1  -0.0842  0.0000  0.0000  10.25000  0.05    4.23
Q2    1   0.3362  0.4281  0.0000  10.50000  0.05    2.94
Q3    1   0.0000  0.0764  0.3350  10.50000  0.05    2.08
;
_shelx_res_checksum              59405
_shelx_hkl_file
;
   0  -1   0    0.32    0.32
  -1   1   0    0.25    0.34
   1   0   0    1.08    0.78
   1  -1   0   -0.12    0.27
   0   1   0    0.34    0.37
  -1   0   0   -0.24    0.63
   1   1   0   91.72    5.38
   1  -2   0   88.45    3.45
  -2   1   0   97.37    5.34
  -1  -1   0   87.94    5.10
  -1   2   0   87.15    3.44
  -1   2   0   91.95    3.49
   2  -1   0   88.46    5.16
  -2   2   0    2.06    1.09
   0  -2   0    1.47    1.01
   2   0   0   -0.29    1.72
  -2   0   0   -1.53    1.45
   2  -2   0    1.66    0.93
   0   2   0    4.75    1.37
   2  -3   0   41.01    2.10
   1   2   0   28.79    3.64
  -3   1   0   45.14    4.18
  -2   3   0   42.94    2.22
  -1  -2   0   44.76    3.62
   3  -1   0   36.79    4.24
   1  -3   0   46.08    2.44
  -3   2   0   42.94    3.85
   2   1   0   46.14    5.16
  -1   3   0   45.60    2.36
   3  -2   0   49.37    3.77
  -1   3   0   48.95    2.65
  -2  -1   0   50.39    4.56
   0  -3   0  926.78   32.69
  -3   3   0  933.07   32.91
   3   0   0  930.65   35.53
   3  -3   0  920.00   32.39
  -3   0   0 1000.00   35.20
   0   3   0  853.37   33.29
   1   3   0  159.54    9.77
  -4   1   0  196.28   10.25
   3  -4   0  180.27    7.14
  -1  -3   0  181.92    8.84
  -3   4   0  189.92    7.52
   4  -1   0  176.22   10.42
  -4   2   0  108.32    6.98
   2   2   0  106.68    7.80
   2  -4   0  106.34    4.31
  -2  -2   0  112.24    7.01
  -2   4   0  109.97    4.25
   4  -2   0  102.47    6.91
  -2   4   0  101.31    4.32
   3   1   0  188.60   11.02
   1  -4   0  182.10    7.25
  -4   3   0  174.85    9.06
   4  -3   0  174.12    8.61
  -3  -1   0  160.51    9.89
  -1   4   0  176.35    7.12
  -1   4   0  172.38    7.85
  -4   4   0   39.57    2.65
   0  -4   0   48.89    3.56
   4   0   0   46.07    5.90
   4  -4   0   45.34    3.21
  -4   0   0   47.55    5.92
   0   4   0   40.40    4.60
   0   4   0   38.80    3.15
   1   4   0    5.58    2.09
   1   4   0   12.17    3.49
  -5   1   0   10.64    2.84
  -5   1   0   11.10    3.64
  -5   1   0    4.73    2.19
  -1  -4   0    3.92    2.45
  -4   5   0    5.77    2.35
  -1  -4   0    2.11    1.63
   5  -1   0    3.76    3.07
  -4   5   0    3.10    0.87
   3  -5   0   65.84    2.86
   2   3   0   53.88    6.69
   2   3   0   52.05    5.11
  -5   2   0   64.67    4.38
  -5   2   0   64.83    5.22
  -5   2   0   75.88    6.21
  -3   5   0   61.93    2.88
  -2  -3   0   70.47    5.62
  -2  -3   0   68.49    5.80
   5  -2   0   54.19    6.36
   3   2   0   53.49    7.16
  -5   3   0   69.42    4.49
  -5   3   0   62.05    5.41
  -5   3   0   59.28    4.84
  -3  -2   0   74.63    5.70
   5  -3   0   61.52    5.44
  -2   5   0   71.96    3.69
  -3  -2   0   55.98    6.29
   4   1   0    6.71    3.35
   1  -5   0    7.97    1.59
  -5   4   0    7.25    2.43
  -5   4   0    5.46    2.13
  -5   4   0   10.20    1.99
  -4  -1   0    2.98    2.41
  -1   5   0   -0.58    1.18
   5  -4   0    1.85    1.62
  -4  -1   0    1.02    2.15
  -1   5   0    2.85    1.64
  -4  -1   0    5.94    3.14
   0  -5   0   31.56    4.75
  -5   5   0   29.60    2.91
  -5   5   0   35.42    4.40
   0  -5   0   31.90    3.55
   5   0   0   40.16    6.67
  -5   5   0   20.50    3.90
  -5   0   0   33.48    5.58
   0   5   0   32.53    3.71
  -5   0   0   29.52    4.47
  -5   0   0   30.34    4.82
   5  -5   0   27.60    3.22
   1   5   0  207.93   10.58
  -6   1   0  231.26   10.52
   5  -6   0  217.79    9.00
  -6   1   0  217.99   11.64
  -6   1   0  221.46   10.26
  -6   1   0  232.26   10.98
   6  -1   0  212.95   13.77
  -5   6   0  205.01   10.02
  -5   6   0  210.89   12.07
  -5   6   0  220.61    8.21
  -1  -5   0  222.45   11.58
  -6   2   0  179.58    8.81
   2   4   0  175.79    9.81
  -6   2   0  169.77    9.49
  -6   2   0  183.09    8.76
  -6   2   0  188.98   10.10
   4  -6   0  184.96    6.87
  -2  -4   0  175.74   10.28
  -4   6   0  184.37   10.67
   6  -2   0  189.70   11.90
  -4   6   0  183.66    6.19
  -6   3   0  413.27   16.52
   3   3   0  363.77   16.27
  -6   3   0  376.88   16.93
  -6   3   0  396.24   14.83
  -6   3   0  398.16   14.54
   6  -3   0  410.82   18.65
  -3  -3   0  407.02   17.14
  -3   6   0  374.96   17.22
   4   2   0  181.38   10.25
  -6   4   0  183.71   10.51
  -6   4   0  183.70    9.72
  -6   4   0  172.56    8.55
  -2   6   0  187.36    7.20
  -4  -2   0  186.06    9.56
   6  -4   0  175.52   10.39
  -4  -2   0  203.22   10.79
  -2   6   0  185.33    8.27
  -6   5   0  192.45   10.55
   5   1   0  233.60   11.49
   1  -6   0  207.43   10.77
  -6   5   0  230.23   12.22
  -6   5   0  209.73    9.38
  -1   6   0  200.91    9.06
  -5  -1   0  220.28   11.29
  -5  -1   0  226.09   12.01
   0  -6   0  371.78   16.68
  -6   6   0  391.83   18.26
  -6   6   0  408.18   16.41
  -6   6   0  386.35   14.14
  -6   0   0  397.37   17.48
   0   6   0  375.20   15.25
  -6   0   0  381.49   17.33
  -7   1   0  141.03    8.97
   1   6   0  137.80    8.49
  -7   1   0  151.80    9.77
  -1  -6   0  130.98    9.36
  -6   7   0  147.46    6.65
  -6   7   0  144.97    8.19
  -6   7   0  141.90    9.83
  -7   2   0    3.02    2.38
  -7   2   0    1.41    1.98
  -7   2   0   -1.48    2.51
  -7   2   0    0.68    1.93
   2   5   0   -2.54    2.33
  -5   7   0    2.47    2.94
  -5   7   0    0.39    0.88
  -5   7   0    2.03    1.06
   7  -2   0    3.37    3.52
  -2  -5   0   -0.76    3.05
  -7   3   0   10.29    3.09
  -7   3   0    5.32    2.34
   3   4   0    6.68    3.37
  -7   3   0    7.54    2.80
  -7   3   0    7.38    2.31
  -4   7   0    9.30    1.29
  -4   7   0   10.96    3.65
  -3  -4   0    4.80    3.72
   7  -3   0    8.43    4.03
  -7   4   0    5.53    2.11
  -7   4   0   11.10    3.35
  -7   4   0    9.80    3.23
   4   3   0    4.47    3.28
  -3   7   0    5.17    1.11
  -3   7   0   -0.16    1.07
  -4  -3   0    5.45    2.96
  -4  -3   0    4.11    3.56
  -7   5   0    2.90    2.36
   2  -7   0   -2.43    2.34
  -7   5   0   -0.31    2.23
   5   2   0   -2.41    2.44
  -7   5   0    2.85    2.05
  -5  -2   0    5.25    3.11
  -5  -2   0    3.55    3.57
  -2   7   0    3.60    1.54
  -7   6   0  141.97    9.78
   1  -7   0  120.17    8.81
  -7   6   0  140.13    8.75
  -7   6   0  136.72    7.61
  -6  -1   0  132.66    9.70
  -6  -1   0  154.87    9.73
  -1   7   0  141.04    7.13
  -7   7   0   33.29    3.88
  -7   7   0   35.75    5.82
   0  -7   0   22.55    4.84
  -7   7   0   35.78    5.07
  -7   0   0   25.45    5.05
  -7   0   0   30.30    5.43
   0   7   0   31.08    4.16
  -8   1   0   -1.55    2.22
  -8   1   0    0.12    2.75
   1   7   0   -0.06    1.93
  -7   8   0   -0.56    1.38
  -1  -7   0    3.93    3.65
  -7   8   0    3.02    2.56
  -7   8   0   -1.00    1.81
   2   6   0   66.33    6.76
  -8   2   0   61.49    6.25
  -8   2   0   81.78    8.33
  -6   8   0   68.83    4.00
  -6   8   0   76.46    8.35
  -2  -6   0   61.16    7.89
  -8   3   0   46.56    6.27
  -8   3   0   45.43    5.28
  -8   3   0   42.32    4.60
   3   5   0   39.29    5.70
  -8   3   0   33.79    4.83
  -5   8   0   44.22    6.31
  -5   8   0   45.08    2.59
  -3  -5   0   44.98    6.43
  -8   4   0    7.14    3.01
  -8   4   0    8.00    2.94
  -8   4   0    6.53    2.30
   4   4   0    3.54    2.95
  -8   4   0    6.67    2.07
  -4   8   0    6.66    3.10
  -4  -4   0    4.35    3.34
  -4   8   0    5.29    1.16
  -8   5   0   50.41    6.07
  -8   5   0   52.68    6.70
  -8   5   0   45.67    4.90
   5   3   0   41.66    5.74
  -3   8   0   44.93    2.75
  -5  -3   0   49.85    7.20
  -5  -3   0   55.49    6.43
  -8   6   0   85.47    8.68
  -8   6   0   71.05    5.74
  -8   6   0   87.94    6.97
  -6  -2   0   70.73    7.84
  -2   8   0   67.44    4.27
  -6  -2   0   70.01    9.04
  -8   7   0   -0.47    1.81
   1  -8   0    1.37    3.01
  -8   7   0    0.33    2.30
  -8   7   0    1.22    2.62
  -7  -1   0   -1.98    2.69
  -7  -1   0    4.68    3.18
  -1   8   0    1.73    1.64
  -8   8   0   18.16    4.22
  -8   8   0   24.00    5.30
   0  -8   0   16.66    4.69
  -8   8   0   27.41    4.04
   0   8   0   19.82    3.56
  -8   0   0   21.57    5.33
  -8   0   0   23.38    5.60
  -9   1   0   57.51    7.44
  -9   1   0   47.13    7.31
   1   8   0   57.35    6.31
  -8   9   0   48.77    7.17
  -1  -8   0   42.81    7.40
  -8   9   0   62.14    5.64
  -9   2   0   94.43    9.82
   2   7   0   92.70    7.51
  -9   2   0   94.78    7.26
  -2  -7   0   76.52    9.05
  -7   9   0   84.86    9.55
  -7   9   0   89.93    5.28
   3   6   0   51.36    6.36
  -9   3   0   74.15    7.60
  -9   3   0   58.05    6.11
  -9   3   0   54.03    5.81
  -9   3   0   36.76    6.05
  -6   9   0   67.33    3.71
  -6   9   0   61.23    7.76
  -3  -6   0   55.72    7.82
  -9   4   0  122.55    9.07
  -9   4   0  123.28    8.17
  -9   4   0  122.89    8.99
   4   5   0  131.41    9.28
  -5   9   0  113.97    5.21
  -4  -5   0  126.90   10.20
  -5   9   0  144.77    9.97
  -9   5   0  135.37    9.57
  -9   5   0  118.46    7.81
  -9   5   0  116.07    8.84
   5   4   0  132.76    9.58
  -4   9   0  123.64    5.44
  -5  -4   0  130.09   10.56
  -9   6   0   61.84    7.22
  -9   6   0   69.37    8.25
  -9   6   0   55.35    5.80
  -3   9   0   57.44    3.46
  -6  -3   0   78.95    9.78
  -9   7   0   86.01    9.08
  -9   7   0   89.12    7.65
  -9   7   0   97.39    6.96
  -7  -2   0   98.49   11.39
  -7  -2   0   97.52   10.29
  -2   9   0   96.49    5.17
  -9   8   0   56.24    7.49
  -9   8   0   67.84    7.75
  -9   8   0   41.74    5.39
  -1   9   0   51.71    4.79
  -8  -1   0   59.45    8.18
  -8  -1   0   58.88    8.55
  -9   9   0   16.74    3.62
   0  -9   0   16.80    5.17
  -9   9   0   20.40    4.64
  -9   9   0   13.70    4.66
  -9   0   0   23.73    5.50
  -9   0   0   16.45    5.41
   0   9   0   21.35    3.66
 -10   1   0   46.76    7.52
 -10   1   0   35.34    6.93
   1   9   0   39.20    5.35
  -9  10   0   29.78    6.27
  -1  -9   0   33.75    7.07
  -9  10   0   38.66    5.06
   2   8   0    8.69    3.32
 -10   2   0   11.20    4.45
 -10   2   0   13.55    3.94
  -8  10   0   12.17    4.49
  -8  10   0    8.12    2.34
  -2  -8   0    4.60    4.06
 -10   3   0   27.48    4.60
   3   7   0   38.64    5.89
 -10   3   0   24.65    5.41
  -3  -7   0   28.56    6.40
  -7  10   0   29.89    5.71
  -7  10   0   33.25    3.52
 -10   4   0   30.59    5.34
 -10   4   0   29.63    4.68
 -10   4   0   33.14    5.99
   4   6   0   33.62    5.67
  -6  10   0   29.86    3.03
  -6  10   0   47.95    7.12
  -4  -6   0   31.83    6.96
 -10   5   0   26.79    5.10
   5   5   0   24.80    5.14
 -10   5   0   26.55    5.30
 -10   5   0   24.37    4.23
  -5  10   0   25.95    2.63
  -5  -5   0   24.43    6.11
 -10   6   0   27.23    4.63
 -10   6   0   38.93    6.36
 -10   6   0   30.94    5.69
  -4  10   0   35.69    3.30
  -6  -4   0   27.27    6.35
 -10   7   0   24.22    5.07
 -10   7   0   31.85    4.85
 -10   7   0   29.13    5.94
  -3  10   0   30.49    3.16
  -7  -3   0   34.88    7.60
 -10   8   0    8.12    3.62
 -10   8   0    9.16    2.91
 -10   8   0   11.49    4.06
  -2  10   0   10.00    2.14
  -8  -2   0    7.47    3.99
  -8  -2   0    7.32    4.46
 -10   9   0   31.59    5.98
 -10   9   0   38.72    7.11
 -10   9   0   37.40    5.35
  -1  10   0   36.38    4.27
  -9  -1   0   28.91    6.82
  -9  -1   0   32.83    6.61
 -10  10   0   53.19    6.30
 -10  10   0   68.45    9.47
 -10   0   0   49.82    8.20
   0  10   0   67.84    6.27
 -10   0   0   51.20    8.26
   1  10   0   15.04    3.80
 -11   1   0   15.88    5.68
 -11   1   0   23.01    5.95
 -10  11   0   18.17    3.89
 -10  11   0   15.88    5.65
 -11   2   0   15.86    5.39
 -11   2   0   17.82    4.81
   2   9   0   17.99    4.34
  -9  11   0   17.14    3.59
  -9  11   0   22.59    6.19
  -2  -9   0   11.77    5.62
   3   8   0   17.05    4.50
 -11   3   0   10.14    4.12
  -8  11   0   12.65    4.78
  -3  -8   0    6.52    4.79
  -8  11   0   13.88    2.79
   4   7   0   30.69    5.71
 -11   4   0   25.91    6.23
  -7  11   0   25.14    3.12
  -7  11   0   22.03    5.66
  -4  -7   0   12.33    5.50
 -11   5   0   21.21    4.35
   5   6   0   28.13    5.89
 -11   5   0   20.87    5.19
 -11   5   0   27.33    5.58
  -5  -6   0   21.80    6.75
  -6  11   0   25.97    2.98
 -11   6   0   24.01    5.55
 -11   6   0   38.95    5.68
 -11   6   0   22.38    5.26
  -6  -5   0   23.51    6.58
  -5  11   0   27.60    3.02
 -11   7   0   25.45    5.43
 -11   7   0   29.12    6.25
 -11   7   0   33.61    5.30
  -4  11   0   31.28    3.51
  -7  -4   0   14.84    5.94
 -11   8   0   10.33    4.51
 -11   8   0   14.94    4.94
 -11   8   0   17.65    4.06
  -8  -3   0   14.43    6.00
  -3  11   0   20.04    2.93
 -11   9   0   18.41    5.52
 -11   9   0   25.20    5.79
 -11   9   0   19.42    4.20
  -2  11   0   15.64    2.93
  -9  -2   0   10.01    5.32
 -11  10   0   28.85    6.98
 -11  10   0   16.97    4.87
 -11  10   0   17.07    3.99
  -1  11   0   19.62    3.51
 -10  -1   0   13.90    5.76
 -10  -1   0   13.64    5.49
 -11  11   0   36.96    7.65
 -11  11   0   33.52    4.96
 -11   0   0   34.20    7.54
   0  11   0   23.80    4.10
 -11   0   0   30.84    6.98
   1  11   0   19.31    4.47
 -12   1   0   16.94    5.94
 -12   1   0   15.13    5.12
 -11  12   0   13.78    5.73
 -11  12   0   21.86    4.25
 -12   2   0   23.24    6.65
   2  10   0   15.20    4.05
 -12   2   0   20.34    5.37
 -10  12   0   32.69    6.85
 -10  12   0   19.31    4.18
  -2 -10   0   10.11    5.77
 -12   3   0    6.01    4.40
   3   9   0    2.65    3.13
  -9  12   0   16.05    5.61
  -3  -9   0    2.66    4.53
  -9  12   0    8.41    2.59
   4   8   0   48.77    7.01
 -12   4   0   36.37    7.42
  -4  -8   0   58.25    9.66
  -8  12   0   43.24    4.48
 -12   5   0   46.85    7.53
   5   7   0   54.23    7.41
  -5  -7   0   45.20    9.37
  -7  12   0   53.07    4.22
 -12   6   0   19.96    5.12
 -12   6   0   26.40    5.16
 -12   6   0   39.32    7.48
  -6  12   0   32.50    3.46
  -6  -6   0   18.23    6.31
 -12   7   0   56.43    8.91
 -12   7   0   57.36    7.29
 -12   7   0   43.85    7.02
  -7  -5   0   46.21    9.77
  -5  12   0   52.63    4.11
 -12   8   0   50.30    7.56
 -12   8   0   55.41    7.28
 -12   8   0   59.82    9.05
  -8  -4   0   44.95    9.44
  -4  12   0   55.82    4.99
 -12   9   0    6.19    3.77
 -12   9   0    7.92    3.63
 -12   9   0    6.55    4.32
  -9  -3   0    6.65    4.94
  -3  12   0    8.97    2.40
 -12  10   0   24.53    6.59
 -12  10   0   15.36    4.92
 -12  10   0   14.69    4.18
 -10  -2   0   31.84    8.12
  -2  12   0   23.68    3.73
 -12  11   0   12.58    5.79
 -12  11   0   17.13    4.11
 -11  -1   0   24.40    7.13
  -1  12   0   26.93    4.39
   3  10   0   10.44    4.12
 -13   3   0    9.29    5.25
 -10  13   0   15.31    3.72
 -10  13   0   16.25    5.37
  -3 -10   0   23.54    7.84
   4   9   0    3.06    3.39
 -13   4   0   11.07    5.26
  -4  -9   0    1.31    4.95
  -9  13   0    3.35    2.29
   5   8   0   21.29    5.36
 -13   5   0   18.90    5.73
  -5  -8   0   24.27    7.77
  -8  13   0   17.52    3.21
 -13   6   0    9.91    4.56
  -6  -7   0    4.01    5.14
  -7  13   0    5.67    2.17
 -13   7   0    7.21    3.99
 -13   7   0    8.97    4.80
 -13   7   0   12.99    4.64
  -7  -6   0    3.06    5.15
  -6  13   0   10.47    2.40
 -13   8   0   22.49    6.64
 -13   8   0   16.38    5.27
 -13   8   0   32.40    6.00
  -8  -5   0   18.77    6.94
  -5  13   0   20.88    3.26
 -13   9   0    2.26    2.73
 -13   9   0    5.04    4.01
 -13   9   0   14.62    5.72
  -4  13   0    2.62    2.04
  -9  -4   0    1.41    4.38
 -13  10   0   16.60    5.09
 -13  10   0   10.24    5.25
 -13  10   0   11.13    4.00
 -10  -3   0    2.54    5.22
  -3  13   0   12.59    3.11
   0   0  -1    0.43    0.48
   0   0   1    0.90    0.47
   1  -1  -1    0.53    0.66
  -1   0  -1    0.30    0.89
   0   1  -1    1.48    0.63
   0  -1   1    0.81    0.56
  -1   1   1    1.83    0.81
   1   0   1    1.64    0.99
   1   0   1    3.52    1.10
   1   0  -1    0.94    0.81
  -1   1  -1    1.10    0.67
   0  -1  -1    1.22    0.82
   0  -1  -1    2.26    0.92
  -1   1  -1    1.30    0.61
   0   1   1    2.17    0.90
   1  -1   1    0.93    0.59
  -1   0   1    2.22    0.93
   1  -1   1    0.55    0.57
   0   1   1    1.54    0.81
   2  -1  -1   18.84    2.31
  -1   2  -1   24.34    1.36
  -1  -1  -1   19.92    2.60
   1  -2   1   25.54    1.43
   1   1   1   23.13    2.67
  -2   1   1   25.34    2.73
   1  -2   1   27.16    1.45
   1   1   1   20.31    2.52
  -2  -1  -1   94.46    6.07
   3  -2  -1   84.94    4.98
  -3   2   1   87.00    5.12
   2   1   1   78.01    5.55
   1  -3   1   86.29    3.56
  -2   0  -1   45.59    4.11
   2  -2  -1   49.82    3.19
   0   2  -1   48.78    2.77
  -2   2   1   47.31    3.08
   0  -2   1   51.57    3.15
   2   0   1   36.65    3.57
   1   1  -1   23.41    2.55
  -2   1  -1   20.48    2.58
   1  -2  -1   27.00    2.28
  -1  -1   1   27.78    2.77
   2  -1   1   17.14    2.18
  -1   2   1   24.48    2.20
  -1   2   1   26.84    2.24
   0  -2  -1   45.78    3.22
   2   0  -1   46.48    3.81
  -2   2  -1   46.53    2.88
   0  -2  -1   47.68    3.40
  -2   0   1   49.28    3.90
   2  -2   1   46.15    2.85
   2  -2   1   48.21    2.80
   0   2   1   51.57    3.38
   0   2   1   48.45    3.26
   3  -1  -1   80.48    5.48
  -1  -2  -1  105.50    5.73
   2  -3   1   86.58    3.33
   1   2   1  100.71    5.69
   1   2   1   90.34    5.21
  -3   1   1   90.49    5.71
   4  -2  -1  189.62    9.79
  -2  -2  -1  210.81   10.28
  -4   2   1  187.26    9.93
   2   2   1  181.67   10.16
  -3  -2  -1   76.09    6.82
   5  -3  -1   60.24    5.41
  -3  -2  -1   72.00    6.62
  -5   3   1   65.83    4.77
   3   2   1   74.11    7.70
  -5   3   1   63.30    5.45
  -5   3   1   75.94    5.33
   4  -3  -1    1.34    1.36
  -3  -1  -1    4.26    2.20
  -1   4  -1    3.92    0.85
  -4   3   1    2.23    1.67
   3   1   1    1.34    1.94
   1  -4   1    2.64    0.82
   3  -3  -1   15.81    2.13
   0   3  -1   19.03    2.15
  -3   0  -1   19.73    3.38
   3   0   1   21.70    3.33
  -3   3   1   23.55    2.82
   0  -3   1   20.07    2.34
   1   2  -1   80.37    4.98
   2  -3  -1   78.80    4.28
  -3   1  -1   96.40    6.26
  -2   3   1   86.44    4.36
  -1  -2   1   95.92    5.68
   3  -1   1   84.30    5.44
   1  -3  -1   81.39    4.29
  -3   2  -1   80.47    5.33
   2   1  -1   78.18    5.46
  -1   3   1   85.54    4.38
   3  -2   1   85.43    5.07
  -1   3   1   89.07    4.39
  -2  -1   1   85.42    5.78
  -3   3  -1   22.70    2.49
   3   0  -1   24.05    3.72
   0  -3  -1   23.67    2.86
   3  -3   1   22.29    2.62
  -3   0   1   25.86    3.87
   0   3   1   19.56    2.67
   0   3   1   20.13    2.48
   4  -1  -1    6.29    2.69
  -3   4  -1    3.78    0.72
  -1  -3  -1    4.18    1.77
   1   3   1    1.77    1.60
  -4   1   1   -0.85    1.76
   3  -4   1    1.62    0.58
   1   3   1    1.82    1.43
   3  -4   1    2.29    0.60
   5  -2  -1   77.00    6.60
  -2  -3  -1   72.63    5.70
  -2  -3  -1   62.23    5.68
   2   3   1   68.53    5.35
  -5   2   1   70.38    5.02
  -5   2   1   62.89    5.29
   2   3   1   76.21    6.41
  -5   2   1   70.45    6.51
  -3   6  -1    9.49    3.00
  -3   6  -1    6.16    2.18
  -3   6  -1    9.86    2.42
  -3  -3  -1   10.86    3.68
   6  -3  -1    8.74    3.52
  -6   3   1   12.04    3.28
  -6   3   1    7.20    2.73
   3   3   1    3.26    2.60
  -6   3   1   10.01    2.67
  -3   7  -1   -0.11    1.67
  -3   7  -1    1.25    1.85
  -3   7  -1   -0.48    1.09
  -4  -3  -1    0.49    3.35
  -7   4   1    0.30    1.99
  -7   4   1   -3.11    1.68
  -7   4   1    0.55    2.16
   4   3   1    5.02    2.96
  -4  -2  -1   12.70    3.33
  -4  -2  -1   22.56    4.96
   6  -4  -1   17.01    3.66
  -2   6  -1   19.48    2.92
   4   2   1   12.04    3.25
  -6   4   1   13.63    3.02
  -6   4   1   15.73    3.25
  -6   4   1   14.24    3.54
  -1   5  -1   19.54    1.39
  -4  -1  -1   29.04    5.57
   5  -4  -1   19.27    3.09
  -1   5  -1   24.03    2.06
  -4  -1  -1   21.29    4.18
  -1   5  -1   18.20    2.74
   1  -5   1   22.20    3.56
  -5   4   1   20.84    2.93
   1  -5   1   22.18    2.04
   4   1   1   19.46    4.27
  -5   4   1   22.93    3.43
  -5   4   1   26.43    4.32
  -4   0  -1    0.04    1.60
   0   4  -1   -0.41    0.93
   0   4  -1    1.23    0.76
  -4   0  -1    0.39    2.14
   4  -4  -1    1.07    1.14
   0  -4   1   -0.39    0.91
  -4   4   1   -0.72    1.46
   4   0   1   -1.12    1.87
  -4   4   1    2.00    1.06
   3  -4  -1    0.97    0.98
  -4   1  -1    3.38    2.49
   1   3  -1    2.83    1.74
  -3   4   1    2.74    1.15
  -1  -3   1    2.45    1.66
   4  -1   1    2.02    2.14
  -4   2  -1  169.84   10.00
   2  -4  -1  188.02    7.80
   2   2  -1  189.30   10.17
   4  -2   1  173.51    9.77
  -2   4   1  189.85    7.95
  -2   4   1  196.28    8.05
  -2  -2   1  197.61   10.26
   1  -4  -1    2.34    1.26
   3   1  -1    2.06    2.28
   1  -4  -1    2.89    1.22
  -4   3  -1    1.74    1.65
  -1   4   1    2.92    1.27
   4  -3   1    2.76    1.68
  -3  -1   1    3.49    2.45
  -1   4   1    4.83    1.35
  -4   4  -1    0.06    1.42
  -4   4  -1   -0.18    0.77
   4   0  -1    0.96    2.24
   0  -4  -1   -1.37    1.07
   0   4   1    0.79    1.43
  -4   0   1    2.80    2.49
   0   4   1    0.17    1.23
   4  -4   1    0.31    0.98
  -4   0   1   -1.19    1.73
  -4   5  -1   19.69    1.25
  -4   5  -1   18.38    2.93
  -1  -4  -1   22.87    3.51
  -1  -4  -1   23.56    3.93
   5  -1  -1   20.64    4.72
  -4   5  -1   19.23    3.86
   4  -5   1   22.89    1.70
   1   4   1   31.78    4.70
   1   4   1   15.88    2.93
  -5   1   1   18.50    3.56
  -5   1   1   22.58    4.48
  -5   1   1   20.57    3.69
   4  -5   1   20.04    1.57
  -4   6  -1   15.47    3.02
   6  -2  -1   24.22    5.07
  -4   6  -1   11.66    3.33
  -2  -4  -1   14.24    3.88
  -6   2   1   14.50    3.61
  -6   2   1   13.53    2.86
  -6   2   1   15.32    3.45
   2   4   1   14.00    3.33
  -6   2   1   17.46    3.16
  -4   7  -1    0.61    2.78
  -4   7  -1   -0.57    1.75
  -4   7  -1   -0.60    0.65
   7  -3  -1    3.35    3.31
  -3  -4  -1    0.24    3.20
  -7   3   1   -1.92    1.60
   3   4   1    0.14    2.45
  -7   3   1   -3.64    1.77
  -7   3   1    0.62    0.78
  -7   3   1    2.90    2.73
  -4  -4  -1   21.49    5.46
  -4   8  -1   24.74    4.80
  -8   4   1   26.32    4.63
  -8   4   1   28.84    4.28
  -8   4   1   27.00    4.89
   4   4   1   25.35    4.41
  -5  -4  -1   -0.90    3.34
  -9   5   1    7.96    3.66
   5   4   1    3.26    2.87
  -9   5   1    3.46    2.66
  -9   5   1    1.97    2.35
  -3   8  -1   53.42    2.71
  -3   8  -1   57.69    5.47
  -5  -3  -1   57.44    7.89
  -8   5   1   51.32    5.99
  -8   5   1   65.43    6.73
   3  -8   1   70.79    7.04
   5   3   1   61.74    6.98
  -8   5   1   51.99    6.91
  -2   7  -1    2.94    0.99
  -2   7  -1    6.99    2.35
  -5  -2  -1   -0.74    3.41
  -5  -2  -1    4.89    2.98
  -7   5   1    3.55    2.32
   5   2   1    1.41    2.55
   2  -7   1    3.53    2.75
  -7   5   1    3.44    2.36
  -7   5   1    1.35    2.66
  -1   6  -1    6.14    2.27
  -5  -1  -1    1.71    2.52
  -5  -1  -1    3.68    3.20
  -1   6  -1    3.49    1.20
  -6   5   1   -0.51    1.54
   1  -6   1   -0.39    2.38
  -6   5   1    3.03    2.48
   1  -6   1    2.00    1.19
  -6   5   1    0.74    1.80
   0   5  -1   10.59    2.30
   0   5  -1    7.18    1.52
  -5   0  -1   10.80    3.99
  -5   0  -1   10.89    3.25
  -5   0  -1    5.15    2.79
   5  -5  -1    5.90    1.95
  -5   5   1    7.95    2.45
   0  -5   1    5.56    1.82
   5   0   1    9.35    3.70
  -5   5   1    7.75    3.07
   0  -5   1   10.07    3.12
  -5   5   1    8.07    1.98
  -5   1  -1   27.44    3.98
   1   4  -1   22.19    2.51
  -5   1  -1   21.40    3.89
   4  -5  -1   22.19    2.59
  -5   1  -1   12.39    4.15
   1   4  -1   20.61    3.55
  -5   1  -1   30.07    3.92
   5  -1   1   20.07    4.45
  -4   5   1    9.55    2.97
  -4   5   1   19.24    2.20
  -1  -4   1   18.59    3.26
  -1  -4   1   20.87    4.03
  -5   2  -1   67.78    4.52
  -5   2  -1   64.56    4.47
  -5   2  -1   64.18    6.22
  -5   2  -1   62.56    5.25
   2   3  -1   66.84    4.37
   3  -5  -1   70.32    3.81
   2   3  -1   71.66    6.34
  -3   5   1   73.35    3.42
   5  -2   1   55.79    6.36
  -2  -3   1   67.89    6.05
  -3   5   1   68.30    6.81
  -2  -3   1   69.27    5.63
  -3   5   1   69.29    3.95
  -5   3  -1   72.92    4.31
  -5   3  -1   59.42    5.28
   3   2  -1   65.28    4.73
  -5   3  -1   64.39    6.23
   3   2  -1   55.89    6.82
   2  -5  -1   75.99    4.07
  -2   5   1   65.04    4.05
  -3  -2   1   64.69    6.88
   5  -3   1   71.79    5.90
  -2   5   1   57.83    3.36
  -3  -2   1   68.51    6.38
   1  -5  -1   19.09    2.72
  -5   4  -1   24.65    4.06
  -5   4  -1   30.25    4.29
   4   1  -1   27.88    5.42
  -5   4  -1   19.25    2.53
  -4  -1   1   20.43    4.24
  -1   5   1   16.84    2.28
   5  -4   1   15.79    3.02
  -4  -1   1   25.91    4.01
  -4  -1   1   30.10    4.61
  -1   5   1   21.15    2.96
  -5   5  -1    5.98    2.38
   0  -5  -1    7.26    2.71
  -5   5  -1    4.73    2.60
   5   0  -1   11.86    4.27
  -5   5  -1    7.45    1.73
  -5   0   1   11.81    3.80
   5  -5   1    9.27    2.03
  -5   0   1   10.57    3.13
   0   5   1    3.75    1.83
  -5   0   1    4.92    2.88
  -5   6  -1    6.37    2.31
  -1  -5  -1    3.31    3.03
   6  -1  -1    5.77    3.69
  -5   6  -1    3.93    1.65
  -5   6  -1    6.77    3.02
  -5   6  -1    3.94    1.13
   1   5   1    4.61    2.50
  -6   1   1    4.34    2.21
  -6   1   1    9.25    2.69
  -6   1   1    8.51    2.98
   5  -6   1    2.41    0.90
  -6   1   1    1.23    2.78
  -5   7  -1    2.87    0.78
  -5   7  -1    4.57    3.05
  -2  -5  -1    3.45    3.28
  -5   7  -1    7.20    2.40
   7  -2  -1    3.54    3.78
  -7   2   1    1.21    2.27
  -7   2   1    0.29    2.93
  -7   2   1   -0.37    2.01
  -7   2   1    5.15    2.35
   2   5   1    2.63    2.56
  -5   8  -1   61.19    7.73
  -5   8  -1   62.95    5.19
  -3  -5  -1   57.92    7.65
   3   5   1   52.85    6.30
  -8   3   1   47.23    6.19
  -8   3   1   58.14    6.04
  -8   3   1   66.53    7.02
  -5   9  -1    6.67    3.66
  -4  -5  -1    1.54    3.57
   4   5   1    1.68    2.77
  -9   4   1    2.13    2.63
  -9   4   1   -1.05    2.13
  -9   4   1    1.45    2.17
  -5  10  -1    6.54    1.22
  -5  -5  -1   -3.06    3.20
 -10   5   1    3.33    2.80
 -10   5   1    1.98    2.71
   5   5   1    4.49    3.11
 -10   5   1    1.86    2.94
  -5  11  -1    7.70    1.59
  -6  -5  -1   11.30    5.48
 -11   6   1   12.41    4.49
 -11   6   1    3.69    3.50
 -11   6   1   14.20    4.04
  -4  10  -1    1.05    0.89
  -6  -4  -1    0.08    3.77
 -10   6   1    1.16    2.79
 -10   6   1    1.87    2.52
 -10   6   1    0.27    2.27
  -6  -3  -1    4.42    4.03
  -3   9  -1    7.03    1.70
  -9   6   1    2.47    2.64
  -9   6   1    5.13    3.30
  -9   6   1    5.75    2.89
  -2   8  -1   43.12    3.72
  -6  -2  -1   27.58    5.00
  -6  -2  -1   37.58    6.72
  -8   6   1   32.45    4.79
   2  -8   1   43.23    6.11
  -8   6   1   46.93    5.84
  -8   6   1   46.29    6.62
  -6  -1  -1    0.80    2.74
  -1   7  -1    4.62    1.57
  -6  -1  -1   -1.14    2.47
  -7   6   1    0.79    1.66
  -7   6   1    0.02    1.82
   1  -7   1    4.49    2.96
  -7   6   1   -3.26    2.04
  -6   0  -1    3.61    2.83
  -6   0  -1    0.39    2.64
   0   6  -1   -0.10    1.45
  -6   6   1    0.37    2.49
  -6   6   1    1.97    1.87
   0  -6   1    0.85    3.00
  -6   6   1   -0.23    1.98
  -6   1  -1    1.95    2.78
  -6   1  -1    4.71    2.28
  -6   1  -1    3.81    2.59
  -6   1  -1    3.16    2.08
   1   5  -1    5.27    1.95
  -5   6   1   -0.17    0.80
  -1  -5   1    1.17    2.09
  -1  -5   1    4.00    3.02
  -5   6   1    4.09    1.63
   6  -1   1    0.42    3.11
  -5   6   1    4.73    2.38
  -6   2  -1   16.46    3.81
  -6   2  -1   18.68    3.12
   2   4  -1   18.09    2.99
  -6   2  -1   16.58    3.17
  -6   2  -1   13.62    3.26
   4  -6  -1   15.44    1.96
  -4   6   1   16.13    1.92
   6  -2   1   18.97    4.80
  -2  -4   1   18.50    4.05
  -2  -4   1   20.68    3.43
  -4   6   1   12.49    3.30
  -6   3  -1    7.19    2.23
   3  -6  -1    8.74    1.64
  -6   3  -1    9.57    2.99
  -6   3  -1    9.11    3.12
  -6   3  -1   11.31    2.53
   3   3  -1    7.98    2.58
  -3  -3   1   11.38    3.69
  -3  -3   1    9.05    2.86
   6  -3   1   10.14    3.25
  -3   6   1    5.50    2.62
  -3   6   1    6.97    1.55
  -3   6   1    8.80    1.78
  -6   4  -1   15.60    2.85
  -6   4  -1   25.88    4.56
  -6   4  -1   16.45    2.70
  -6   4  -1   15.04    3.58
   4   2  -1   24.61    4.04
  -4  -2   1   22.02    4.46
  -2   6   1   12.86    2.04
  -4  -2   1   19.35    3.77
   6  -4   1   13.20    3.35
  -6   5  -1    1.15    1.27
  -6   5  -1    4.27    2.78
  -6   5  -1   -0.09    2.41
  -6   5  -1    1.78    1.53
   5   1  -1    5.49    2.99
   1  -6  -1    1.17    2.38
  -5  -1   1    5.54    3.36
  -5  -1   1    0.03    2.81
  -1   6   1    5.54    1.66
  -6   6  -1    2.78    1.95
  -6   6  -1    0.71    1.40
   0  -6  -1   -0.88    2.63
  -6   6  -1    6.47    3.05
  -6   6  -1    0.34    2.47
  -6   0   1   -1.00    2.65
   0   6   1   -1.85    1.48
  -6   0   1    1.48    2.67
  -6   7  -1    3.88    2.27
  -6   7  -1    4.01    1.40
  -1  -6  -1    4.14    3.19
  -6   7  -1    2.36    2.69
  -7   1   1    2.48    2.98
  -7   1   1    2.47    2.62
   1   6   1    0.67    1.96
  -2  -6  -1   52.81    7.28
  -6   8  -1   38.83    2.72
  -6   8  -1   48.30    5.62
  -6   8  -1   48.50    6.92
   2   6   1   46.92    5.55
  -8   2   1   24.78    5.15
  -8   2   1   43.35    5.40
  -3  -6  -1    2.49    3.45
  -6   9  -1    4.27    3.49
  -6   9  -1    3.47    1.16
  -9   3   1    5.66    2.97
  -9   3   1    5.10    3.16
   3   6   1   -1.57    2.13
  -4  -6  -1    4.17    3.73
  -6  10  -1    1.28    3.34
  -6  10  -1    3.20    1.01
 -10   4   1   -0.61    2.43
 -10   4   1    2.35    2.61
   4   6   1    0.09    2.55
  -5  -6  -1   -3.15    3.93
  -6  11  -1    8.34    1.55
 -11   5   1    5.17    3.27
 -11   5   1    4.29    3.64
   5   6   1   -0.85    3.22
  -6  12  -1    1.82    1.27
  -6  -6  -1    2.61    4.87
 -12   6   1    2.48    3.16
 -12   6   1   -0.13    3.41
  -7  -6  -1    3.93    4.95
 -13   7   1    1.67    4.07
 -13   7   1    3.30    3.77
  -7  -5  -1    0.65    4.33
  -5  12  -1    2.71    1.45
 -12   7   1    6.77    3.97
 -12   7   1    2.52    2.96
 -12   7   1    4.15    4.12
  -7  -4  -1   -1.94    3.89
  -4  11  -1    1.43    1.20
 -11   7   1   -0.65    2.43
 -11   7   1    1.47    2.85
 -11   7   1   -0.95    3.07
  -7  -3  -1    6.69    4.68
  -3  10  -1    3.40    1.51
 -10   7   1    6.06    3.99
 -10   7   1   -0.62    2.11
 -10   7   1   -1.56    2.27
  -7  -2  -1    8.68    4.22
  -2   9  -1   10.05    2.51
  -9   7   1   16.53    3.89
   2  -9   1   10.15    4.04
  -9   7   1   13.55    3.89
  -9   7   1    9.73    4.38
  -7  -1  -1   -3.34    2.27
  -1   8  -1    1.89    1.92
  -7  -1  -1    0.03    2.97
  -8   7   1    1.45    2.21
  -8   7   1   -0.55    2.71
   1  -8   1    0.33    2.70
  -8   7   1   -0.61    1.97
  -7   0  -1   -2.01    2.10
  -7   0  -1    0.77    2.25
   0   7  -1    0.12    1.69
  -7   7   1   -1.42    2.19
   0  -7   1    0.52    2.73
  -7   7   1   -0.25    1.90
  -7   7   1    1.30    1.73
   1   6  -1    3.12    2.03
  -7   1  -1    2.18    2.68
  -7   1  -1    0.65    2.20
  -6   7   1    3.85    2.56
  -1  -6   1    2.97    3.01
  -6   7   1    0.80    1.48
  -6   7   1    4.92    1.89
  -7   2  -1    5.74    2.27
  -7   2  -1    2.91    2.11
  -7   2  -1    2.38    2.72
  -7   2  -1    1.98    2.14
   2   5  -1   -0.91    2.09
  -2  -5   1    2.89    3.33
   7  -2   1    4.92    3.72
  -5   7   1    1.28    2.49
  -5   7   1    1.89    1.31
  -7   3  -1   -0.73    1.58
  -7   3  -1   -0.68    2.03
  -7   3  -1    0.60    1.64
   3   4  -1   -0.63    2.44
  -7   3  -1    1.21    2.80
  -3  -4   1    1.83    2.49
  -3  -4   1    0.20    3.20
  -4   7   1   -0.27    1.88
  -4   7   1    1.12    1.16
  -7   4  -1   -0.73    1.50
  -7   4  -1   -1.22    2.69
  -7   4  -1    0.35    1.84
  -7   4  -1    0.92    2.42
   4   3  -1   -1.80    2.46
  -4  -3   1   -0.32    2.38
  -4  -3   1    3.64    3.46
  -3   7   1   -0.05    1.13
  -3   7   1   -0.11    1.19
  -7   5  -1    5.44    3.07
  -7   5  -1    2.62    1.76
   5   2  -1   -0.25    2.97
  -7   5  -1    0.84    1.61
  -7   5  -1    2.96    2.83
  -5  -2   1    4.40    3.24
  -2   7   1    2.48    1.32
  -5  -2   1    3.75    3.08
  -7   6  -1   -1.89    1.90
  -7   6  -1    4.11    2.73
  -7   6  -1    4.20    1.74
  -6  -1   1    0.03    2.53
  -1   7   1    1.07    1.44
  -6  -1   1    4.74    3.42
   0  -7  -1    3.68    3.26
  -7   7  -1    1.08    2.06
  -7   7  -1   -0.47    1.36
  -7   7  -1   -2.25    2.18
  -7   0   1   -1.50    2.78
  -7   0   1    1.57    2.65
   0   7   1   -0.66    1.45
  -1  -7  -1   -0.50    2.87
  -7   8  -1   -1.78    1.16
  -7   8  -1   -0.30    2.05
  -7   8  -1   -2.41    2.04
  -8   1   1   -0.56    3.00
   1   7   1    1.57    2.15
  -8   1   1    1.27    2.63
  -7   9  -1    9.37    2.01
  -2  -7  -1    8.21    4.24
  -7   9  -1   19.07    4.81
  -7   9  -1    7.55    3.02
  -9   2   1    9.28    4.20
   2   7   1   16.08    3.72
  -9   2   1   16.88    3.97
  -7  10  -1    3.77    3.46
  -7  10  -1    5.11    1.54
  -3  -7  -1    8.17    4.78
 -10   3   1    4.85    3.44
   3   7   1    3.95    2.92
  -4  -7  -1   -3.98    3.84
  -7  11  -1   -0.85    1.18
   4   7   1   -2.16    2.76
 -11   4   1    4.21    3.72
  -7  12  -1    3.08    1.52
  -5  -7  -1    2.95    4.89
 -12   5   1    0.74    3.16
   5   7   1    1.83    3.32
  -6  -7  -1    0.02    4.70
 -13   6   1   -2.29    3.14
  -5  13  -1   -0.74    1.36
  -8  -5  -1   -2.28    4.15
 -13   8   1   -2.30    2.98
 -13   8   1    1.11    3.19
 -13   8   1    2.75    4.19
  -8  -4  -1   11.57    5.55
  -4  12  -1   12.37    2.34
 -12   8   1    6.37    3.32
 -12   8   1    7.27    4.51
 -12   8   1    3.42    3.43
  -3  11  -1   13.10    2.26
  -8  -3  -1   15.10    6.29
 -11   8   1   19.03    4.37
 -11   8   1   11.72    4.13
 -11   8   1    7.97    3.73
  -2  10  -1   -0.80    1.30
  -8  -2  -1   -0.65    3.92
 -10   8   1   -3.73    1.97
 -10   8   1   -1.48    3.10
 -10   8   1    0.39    2.60
  -8  -1  -1   27.48    6.14
  -1   9  -1   26.74    4.02
  -8  -1  -1   28.74    5.59
  -9   8   1   26.41    5.08
  -9   8   1   23.01    5.27
  -9   8   1   25.22    4.50
   1  -9   1   11.83    4.46
  -8   0  -1   19.86    5.01
  -8   0  -1   24.12    5.07
   0   8  -1   17.34    3.65
  -8   8   1   10.94    4.43
  -8   8   1   15.11    3.80
   0  -8   1   10.11    4.04
  -8   8   1   14.81    3.27
   1   7  -1    0.72    2.32
  -8   1  -1   -1.65    2.05
  -8   1  -1   -0.95    2.56
  -7   8   1    1.18    1.65
  -7   8   1    4.68    3.46
  -1  -7   1    1.01    3.02
   2   6  -1   44.82    5.44
  -8   2  -1   48.28    5.66
  -8   2  -1   34.41    4.84
  -8   2  -1   51.53    5.88
  -8   2  -1   36.14    5.91
  -2  -6   1   33.11    5.90
  -6   8   1   36.14    6.16
  -6   8   1   39.77    3.78
  -8   3  -1   54.19    5.58
  -8   3  -1   63.76    6.21
   3   5  -1   61.69    6.85
  -8   3  -1   54.19    6.23
  -8   3  -1   50.86    6.50
  -5   8   1   58.81    7.01
  -3  -5   1   50.99    7.47
  -5   8   1   56.36    3.53
   4   4  -1   25.58    5.00
  -8   4  -1   23.48    3.61
  -8   4  -1   22.43    4.44
  -8   4  -1   27.58    5.19
  -8   4  -1   29.50    4.16
  -4   8   1   28.31    5.15
  -4  -4   1   23.62    4.32
  -4  -4   1   20.10    4.95
  -4   8   1   20.96    2.52
  -8   5  -1   55.88    5.28
  -8   5  -1   53.98    5.42
  -8   5  -1   57.16    6.77
  -8   5  -1   49.46    6.29
   5   3  -1   51.43    7.03
  -5  -3   1   44.47    6.44
  -5  -3   1   58.07    6.63
  -3   8   1   53.07    3.76
  -8   6  -1   41.15    4.46
  -8   6  -1   37.42    5.96
  -8   6  -1   44.74    6.33
  -6  -2   1   41.99    6.21
  -6  -2   1   46.12    7.05
  -2   8   1   41.53    3.77
  -8   7  -1   -0.22    2.31
  -8   7  -1   -0.77    1.38
  -8   7  -1    1.36    2.52
  -7  -1   1   -0.98    2.89
  -1   8   1    1.00    1.40
  -7  -1   1    3.50    3.52
  -8   8  -1   19.44    3.27
  -8   8  -1   14.45    4.61
  -8   8  -1   19.12    4.55
  -8   0   1   11.91    4.45
  -8   0   1   14.86    5.05
   0   8   1   13.36    2.78
  -8   9  -1   24.06    5.54
  -8   9  -1   25.07    3.55
  -8   9  -1   30.41    5.33
  -1  -8  -1   21.25    5.40
  -9   1   1   33.70    6.10
   1   8   1   27.32    4.22
  -9   1   1   19.24    5.21
  -8  10  -1    1.19    1.82
  -2  -8  -1    2.28    4.13
  -8  10  -1   -0.10    3.27
 -10   2   1    1.36    2.75
 -10   2   1   -1.59    2.92
   2   8   1    0.97    2.45
  -8  11  -1   18.15    3.07
  -8  11  -1    9.06    4.82
  -3  -8  -1   12.96    5.46
 -11   3   1    9.57    4.52
   3   8   1   16.30    4.11
  -4  -8  -1    4.59    5.42
  -8  12  -1    5.30    2.05
   4   8   1    6.41    3.70
 -12   4   1    6.96    4.14
  -5  -8  -1   -6.23    3.72
   5   8   1    3.66    3.53
 -13   5   1    3.00    3.78
  -4  13  -1    6.38    2.22
  -9  -4  -1   -0.78    4.17
 -13   9   1   -1.86    2.50
 -13   9   1    2.10    3.25
 -13   9   1    0.56    3.73
  -9  -3  -1    0.87    4.13
  -3  12  -1    0.05    1.40
 -12   9   1    3.06    3.05
 -12   9   1   -0.92    2.47
 -12   9   1    2.25    3.94
  -2  11  -1    8.92    2.39
  -9  -2  -1   11.94    5.81
 -11   9   1    7.68    4.00
 -11   9   1   14.55    3.98
 -11   9   1   10.92    4.87
  -1  10  -1   -1.09    1.75
  -9  -1  -1    3.81    4.12
 -10   9   1   -0.80    2.28
 -10   9   1   -2.45    2.40
 -10   9   1    2.82    3.52
  -9   0  -1    7.08    3.72
  -9   0  -1   -0.60    3.06
   0   9  -1    5.33    2.87
  -9   9   1    4.33    3.37
   0  -9   1    5.37    4.12
  -9   9   1    7.52    2.88
   1   8  -1   14.63    4.04
  -9   1  -1   20.69    4.88
  -9   1  -1   19.30    4.61
  -1  -8   1   19.95    5.30
  -8   9   1   19.12    5.16
  -8   9   1   24.87    3.73
   2   7  -1   10.13    3.70
  -9   2  -1   18.57    4.06
  -9   2  -1   13.85    4.09
  -7   9   1   11.43    2.68
  -7   9   1   21.46    5.27
  -2  -7   1    9.70    4.42
   3   6  -1    3.41    3.17
  -9   3  -1    7.52    2.86
  -9   3  -1    2.78    2.47
  -9   3  -1    0.51    2.76
  -9   3  -1    3.51    2.18
  -6   9   1    4.57    2.91
  -3  -6   1    3.51    3.57
  -6   9   1    7.26    1.83
  -9   4  -1   -1.47    2.35
  -9   4  -1    2.45    1.93
   4   5  -1    4.39    3.38
  -9   4  -1    0.52    1.91
  -9   4  -1   -0.21    2.18
  -5   9   1   -0.02    1.02
  -4  -5   1    2.71    3.36
  -5   9   1   11.97    3.88
  -9   5  -1    2.52    2.71
   5   4  -1    4.82    3.93
  -9   5  -1    1.01    2.02
  -9   5  -1    0.19    2.28
  -5  -4   1    1.91    3.31
  -4   9   1    5.13    1.68
  -9   6  -1    8.41    2.49
  -9   6  -1    0.70    2.62
  -9   6  -1   12.84    4.03
  -6  -3   1    4.89    3.85
  -3   9   1    3.60    1.63
  -6  -3   1    5.37    3.22
  -9   7  -1   11.40    2.87
  -9   7  -1   11.64    4.16
  -9   7  -1   17.49    4.82
  -7  -2   1   18.83    5.17
  -7  -2   1    8.80    4.21
  -2   9   1   11.78    2.39
  -9   8  -1   19.49    4.80
  -9   8  -1   19.41    5.08
  -9   8  -1   28.11    4.02
  -1   9   1   31.34    3.71
  -8  -1   1   30.85    6.63
  -8  -1   1   30.36    6.17
  -9   9  -1    4.47    2.32
  -9   9  -1    3.01    3.21
  -9   9  -1    8.35    3.71
   0   9   1    2.37    1.89
  -9   0   1    4.62    3.87
  -9   0   1   12.79    4.72
  -9  10  -1    2.28    2.20
  -9  10  -1    2.55    3.48
  -9  10  -1    1.62    3.48
 -10   1   1    1.26    3.84
   1   9   1    0.86    2.33
 -10   1   1    0.22    3.27
  -9  11  -1   16.54    3.24
  -9  11  -1    9.79    4.80
 -11   2   1   12.96    5.15
   2   9   1   12.41    3.75
  -9  12  -1   -0.12    3.53
  -3  -9  -1    0.63    4.61
  -9  12  -1    0.59    1.90
 -12   3   1    2.30    3.91
   3   9   1   -1.85    2.50
  -4  -9  -1    1.82    5.07
  -9  13  -1    3.49    2.20
   4   9   1    2.78    3.33
 -13   4   1    6.91    4.63
  -2  12  -1    2.63    1.87
 -10  -2  -1    6.17    5.02
 -12  10   1    2.30    2.86
 -12  10   1    3.71    4.48
 -10  -1  -1    1.06    3.96
  -1  11  -1    1.21    1.96
 -11  10   1    3.52    3.72
 -11  10   1   -0.56    2.46
 -10   0  -1    2.02    3.59
 -10   0  -1   -3.55    2.85
   0  10  -1    0.66    2.29
 -10  10   1    0.05    3.52
   0 -10   1   -2.19    3.95
 -10  10   1    0.00    2.52
   1   9  -1    0.04    2.39
 -10   1  -1    1.87    3.17
 -10   1  -1   -3.85    2.98
  -9  10   1    1.40    2.10
  -9  10   1    3.02    3.20
  -1  -9   1   -4.39    3.46
 -10   2  -1   -1.47    2.08
 -10   2  -1    4.97    3.45
   2   8  -1   -0.07    2.58
  -8  10   1    0.59    2.94
  -8  10   1   -3.84    1.24
  -2  -8   1   -0.96    3.73
 -10   3  -1    2.52    3.05
 -10   3  -1    2.09    2.13
   3   7  -1    3.07    3.12
  -7  10   1    2.90    2.85
  -3  -7   1    1.90    4.07
  -7  10   1    4.61    2.08
 -10   4  -1   -1.62    2.46
 -10   4  -1    3.28    2.00
 -10   4  -1    2.40    2.42
 -10   4  -1   -1.58    2.17
   4   6  -1    2.97    3.62
  -6  10   1    2.93    2.68
  -6  10   1    2.84    1.67
  -4  -6   1    1.37    3.52
 -10   5  -1    2.45    2.32
 -10   5  -1    0.51    2.59
   5   5  -1    7.36    4.25
 -10   5  -1    3.85    3.01
  -5  -5   1    3.35    3.94
  -5  10   1    7.02    1.82
 -10   6  -1   -1.54    2.53
 -10   6  -1    0.86    2.76
 -10   6  -1   -0.21    2.14
  -4  10   1    1.49    1.43
  -6  -4   1    0.14    3.31
 -10   7  -1    4.35    3.48
 -10   7  -1    3.09    2.26
 -10   7  -1    3.66    3.34
  -7  -3   1    1.27    3.16
  -3  10   1    4.73    1.89
  -7  -3   1    4.47    3.58
 -10   8  -1    0.43    3.27
 -10   8  -1    1.26    1.96
 -10   8  -1   -1.87    3.00
  -8  -2   1    0.73    3.58
  -2  10   1    0.70    1.63
  -8  -2   1   -1.92    3.17
 -10   9  -1    2.21    2.23
 -10   9  -1    0.00    3.24
 -10   9  -1    0.00    3.01
  -9  -1   1   -0.94    3.52
  -9  -1   1    6.00    4.56
  -1  10   1   -1.01    1.61
 -10  10  -1    2.63    1.95
 -10  10  -1   -0.18    3.20
 -10  10  -1   -3.52    2.62
 -10   0   1    0.56    4.04
 -10   0   1   -0.56    3.56
   0  10   1    0.29    2.00
 -10  11  -1    4.05    2.31
 -10  11  -1    6.97    4.44
 -11   1   1   -4.17    3.20
   1  10   1    2.12    2.48
 -11   1   1   -3.16    2.87
 -10  12  -1    4.34    2.20
 -10  12  -1    1.98    3.85
 -12   2   1    7.78    4.67
   2  10   1    4.03    3.10
 -11  -1  -1    2.51    4.00
  -1  12  -1    2.04    2.10
 -12  11   1    0.02    2.16
 -12  11   1    0.45    3.50
   0  11  -1    6.51    2.80
 -11   0  -1    1.00    3.48
 -11   0  -1    7.41    4.78
 -11  11   1    7.09    3.47
 -11  11   1   10.57    4.79
   1  10  -1   -0.82    2.32
 -11   1  -1    0.76    3.21
 -11   1  -1    8.22    4.73
 -10  11   1    0.85    2.53
 -10  11   1   -3.29    2.81
  -1 -10   1   -0.70    4.17
 -11   2  -1   12.91    4.93
   2   9  -1    0.26    2.87
 -11   2  -1   10.07    3.99
  -9  11   1    9.87    3.06
  -2  -9   1    3.37    4.47
  -9  11   1   11.10    4.32
   3   8  -1   18.72    4.82
 -11   3  -1   11.61    3.80
 -11   3  -1    9.49    4.33
  -8  11   1   18.35    5.41
  -3  -8   1   18.11    6.27
  -8  11   1   14.12    3.13
 -11   4  -1    2.08    3.49
 -11   4  -1    3.35    2.41
   4   7  -1   -1.43    3.03
  -4  -7   1   -4.01    3.28
  -7  11   1    0.97    3.04
  -7  11   1    4.45    2.21
   5   6  -1    2.24    3.52
 -11   5  -1   11.12    4.30
 -11   5  -1    6.37    3.24
 -11   5  -1    4.04    3.50
  -5  -6   1    3.90    4.40
  -6  11   1    9.34    2.37
 -11   6  -1    9.31    3.11
 -11   6  -1    6.77    3.95
 -11   6  -1    8.40    4.14
  -5  11   1    5.71    2.03
  -6  -5   1    7.83    5.09
 -11   7  -1   -0.09    2.45
 -11   7  -1   -2.08    2.87
 -11   7  -1    0.18    2.70
  -7  -4   1    1.69    3.81
  -4  11   1    0.96    1.58
 -11   8  -1   17.52    3.94
 -11   8  -1    6.39    4.04
 -11   8  -1    9.64    4.34
  -8  -3   1   12.06    5.29
  -3  11   1   14.45    3.10
 -11   9  -1   10.69    3.32
 -11   9  -1   20.66    5.72
 -11   9  -1   11.31    4.26
  -9  -2   1    6.83    5.16
  -9  -2   1   11.73    5.07
  -2  11   1    9.06    2.67
 -11  10  -1    3.59    3.99
 -11  10  -1   -0.20    2.29
 -11  10  -1   -3.22    2.59
 -10  -1   1   -0.39    3.93
 -10  -1   1    2.28    4.23
  -1  11   1    1.83    2.15
 -11  11  -1    5.22    2.62
 -11  11  -1   13.14    5.62
   0  11   1   10.45    3.30
 -11   0   1    8.66    4.94
 -11   0   1    2.25    4.13
 -11  12  -1    0.44    4.04
 -11  12  -1    6.84    2.56
 -12   1   1    2.17    4.31
   1  11   1    0.84    2.63
 -12   1  -1    1.46    3.44
 -12   1  -1    3.63    4.45
   1  11  -1   -1.70    2.26
 -11  12   1    3.83    2.96
 -11  12   1   -0.97    3.62
 -12   2  -1    1.15    3.06
 -12   2  -1    4.43    4.36
   2  10  -1    2.27    2.84
 -10  12   1   -1.01    2.18
  -2 -10   1   -2.61    3.95
 -10  12   1    5.27    3.87
 -12   3  -1    3.06    2.86
   3   9  -1    1.85    3.29
 -12   3  -1    1.44    3.50
  -9  12   1    2.24    2.18
  -3  -9   1   -4.05    4.28
  -9  12   1    2.38    3.29
   4   8  -1    8.88    4.17
 -12   4  -1    4.17    3.74
  -4  -8   1   14.02    5.95
  -8  12   1    9.39    2.73
   5   7  -1    8.22    4.48
 -12   5  -1    4.75    3.68
  -7  12   1    4.09    2.18
  -5  -7   1    2.70    4.34
 -12   6  -1    5.39    3.86
 -12   6  -1    3.37    3.05
 -12   6  -1   -0.18    3.35
  -6  12   1    1.32    1.67
  -6  -6   1    1.25    4.14
 -12   7  -1    3.23    3.00
 -12   7  -1    1.75    3.74
 -12   7  -1    0.35    2.97
  -7  -5   1    8.62    5.18
  -5  12   1    1.12    1.73
 -12   8  -1    4.02    3.49
 -12   8  -1    3.99    4.23
 -12   8  -1   13.74    3.91
  -8  -4   1    2.28    4.51
  -4  12   1   12.19    2.96
 -12   9  -1   -0.62    3.20
 -12   9  -1   -1.19    2.18
 -12   9  -1    7.60    4.41
  -9  -3   1    1.03    4.59
  -3  12   1    1.60    1.98
 -12  10  -1   -0.31    3.98
 -12  10  -1    2.20    2.56
 -12  10  -1    1.30    2.85
  -2  12   1    0.86    1.94
 -10  -2   1    4.07    4.41
 -12  11  -1    5.00    2.62
 -12  11  -1    1.84    3.45
 -12  11  -1    2.25    3.89
  -1  12   1    5.81    2.74
 -11  -1   1    3.20    3.92
 -11  -1   1   -0.51    3.96
 -13   4  -1    8.50    4.99
   4   9  -1    4.64    3.43
  -4  -9   1    2.23    5.17
  -9  13   1    2.15    2.42
 -13   5  -1    1.45    3.88
   5   8  -1   -5.04    2.68
  -8  13   1    4.05    2.21
  -5  -8   1   -0.20    4.59
 -13   6  -1    1.83    3.61
  -7  13   1   -0.49    2.00
  -6  -7   1   -3.00    4.14
 -13   7  -1   -0.75    2.49
 -13   7  -1    2.22    3.68
 -13   7  -1    1.87    3.70
  -7  -6   1   -3.12    4.24
  -6  13   1    3.34    2.04
 -13   8  -1    6.72    4.40
 -13   8  -1    4.10    3.86
 -13   8  -1    3.90    3.09
  -5  13   1    3.37    1.97
  -8  -5   1    0.92    4.27
 -13   9  -1    1.51    3.94
 -13   9  -1   -2.24    2.45
 -13   9  -1    5.76    4.15
  -9  -4   1   -7.09    3.39
  -4  13   1    2.28    2.20
   0   0  -2  115.68    5.80
   0   0   2  121.88    5.93
   1  -1  -2   -0.70    1.04
  -1   0  -2    0.62    1.06
   0   1  -2    0.43    0.92
  -1   0  -2    0.35    1.20
  -1   1   2   -0.94    1.07
   1   0   2    0.37    1.10
   1   0   2   -0.26    0.98
   0  -1   2   -0.54    0.92
  -1   1  -2    0.26    0.92
   0  -1  -2   -0.02    1.18
   1   0  -2   -0.29    1.02
   0   1   2   -0.87    1.14
  -1   0   2    0.26    1.16
   1  -1   2    0.14    0.94
   1  -1   2   -0.48    0.85
   0   1   2    0.14    1.13
  -1  -1  -2  466.86   18.11
   2  -1  -2  458.64   17.99
  -1  -1  -2  458.85   18.09
  -1   2  -2  471.22   16.81
   1   1   2  462.10   18.17
   1   1   2  474.64   18.14
   1  -2   2  455.20   16.91
   1  -2   2  459.80   16.92
  -2   1   2  470.82   18.03
  -1   3  -2  159.62    6.50
  -2  -1  -2  159.40    8.60
   3  -2  -2  160.95    8.08
   2   1   2  156.67    8.54
  -3   2   2  178.77    8.35
   1  -3   2  155.25    6.59
   2   1   2  153.50    8.42
   2  -2  -2   12.91    2.25
  -2   0  -2   13.89    2.57
   0   2  -2   10.60    1.68
  -2   2   2   10.77    2.05
   2   0   2   15.55    2.73
   0  -2   2   12.12    1.78
   2   0   2   12.67    2.51
  -2   1  -2  455.97   17.85
   1  -2  -2  447.59   17.64
  -2   1  -2  484.63   17.89
   1   1  -2  456.80   17.68
  -1   2   2  467.03   17.85
  -1  -1   2  478.52   17.77
   2  -1   2  471.70   17.82
   2  -1   2  450.60   17.86
  -2   2  -2   13.02    1.86
   0  -2  -2   12.88    2.26
   2   0  -2   14.17    2.58
   0  -2  -2    8.06    1.84
  -2   2  -2   11.64    1.73
   2  -2   2   12.71    1.72
   0   2   2    9.48    1.92
  -2   0   2   15.45    2.63
   2  -2   2   12.67    1.89
   0   2   2   10.65    1.93
   3  -1  -2  153.81    8.23
  -2   3  -2  158.18    6.54
  -1  -2  -2  154.98    8.27
   2  -3   2  164.74    6.72
   2  -3   2  158.12    6.43
   1   2   2  165.64    8.25
   1   2   2  156.77    8.32
  -3   1   2  164.90    8.49
   4  -2  -2  176.23    9.47
  -2  -2  -2  191.53   10.03
   2   2   2  177.03    9.78
  -4   2   2  193.05    9.76
   2  -4   2  174.18    6.78
   2  -4   2  175.68    6.82
   2   2   2  184.81    9.53
  -3  -2  -2   41.62    5.85
  -2   5  -2   45.19    4.56
   5  -3  -2   38.73    4.83
  -3  -2  -2   41.78    5.41
  -2   5  -2   47.94    3.96
  -5   3   2   53.04    5.24
   3   2   2   43.77    5.43
  -5   3   2   38.14    4.61
  -5   3   2   36.97    4.32
   3   2   2   42.20    5.57
  -3  -1  -2   15.22    3.72
  -1   4  -2   16.05    2.54
  -3  -1  -2   16.71    3.32
   4  -3  -2   16.26    2.92
  -1   4  -2   21.47    1.75
  -4   3   2   23.63    3.38
   3   1   2   16.97    3.44
   3   1   2   14.70    3.14
  -4   3   2   13.34    2.32
   1  -4   2   20.11    2.33
  -4   3   2   21.65    3.50
  -3   0  -2  344.94   16.08
   0   3  -2  358.89   13.80
   3  -3  -2  353.01   14.71
   3   0   2  366.94   15.78
  -3   3   2  350.94   14.55
   0  -3   2  348.08   14.08
   3   0   2  364.01   15.82
  -3   1  -2  160.17    8.68
   1   2  -2  159.39    7.52
   2  -3  -2  155.94    7.51
   3  -1   2  144.23    8.07
   3  -1   2  154.91    8.37
  -1  -2   2  161.50    7.73
  -2   3   2  150.72    7.53
   1  -3  -2  161.72    7.59
  -3   2  -2  156.30    7.89
   2   1  -2  159.64    8.11
  -1   3   2  157.15    7.65
  -2  -1   2  169.62    8.34
  -1   3   2  153.50    7.63
   3  -2   2  157.01    7.79
   3  -2   2  152.10    7.72
   3   0  -2  327.64   14.71
  -3   3  -2  336.01   12.99
   0  -3  -2  327.38   14.02
   0  -3  -2  328.32   14.16
   0   3   2  335.92   14.18
   3  -3   2  336.03   12.83
   0   3   2  328.18   13.99
  -3   0   2  346.38   14.91
   3  -3   2  340.70   13.15
  -1  -3  -2   18.46    3.38
   4  -1  -2   20.66    3.74
  -3   4  -2   21.69    3.29
   3  -4   2   18.39    1.91
  -4   1   2   24.61    3.47
  -4   1   2   20.82    3.81
   1   3   2   20.49    3.59
   1   3   2   20.62    3.10
   1   3   2   14.97    2.53
   3  -4   2   17.85    1.55
  -3   5  -2   45.02    4.67
  -2  -3  -2   42.65    5.60
   5  -2  -2   52.68    6.24
  -3   5  -2   52.79    4.75
  -3   5  -2   41.21    4.71
  -5   2   2   56.02    5.53
   2   3   2   46.06    5.91
  -5   2   2   34.46    5.23
   2   3   2   34.57    4.33
  -5   2   2   38.87    4.66
  -5   2   2   42.72    4.86
  -3   6  -2   64.76    5.40
   6  -3  -2   75.83    7.97
  -3   6  -2   68.68    6.02
  -3  -3  -2   63.44    7.13
  -3   6  -2   68.96    4.96
  -6   3   2   81.53    7.06
  -6   3   2   66.31    6.94
  -6   3   2   82.94    6.26
   3   3   2   77.47    6.08
  -4  -3  -2   61.50    7.60
  -3   7  -2   80.87    5.85
  -3   7  -2   81.21    5.80
  -7   4   2   77.64    7.28
   4   3   2   88.36    6.87
  -7   4   2   80.88    8.50
  -7   4   2   86.93    6.67
  -4  -2  -2  135.29    9.19
  -2   6  -2  126.17    7.14
  -2   6  -2  127.27    6.98
   6  -4  -2  139.06    9.00
  -2   6  -2  137.38    7.42
   4   2   2  110.82    7.60
  -6   4   2  134.59    7.67
  -6   4   2  120.99    7.46
  -6   4   2  116.89    8.43
  -1   5  -2  265.16    9.99
  -4  -1  -2  253.19   12.39
   5  -4  -2  265.45   12.53
  -4  -1  -2  274.32   14.95
  -1   5  -2  242.94   10.92
  -1   5  -2  257.04    8.32
  -1   5  -2  240.83   10.69
  -5   4   2  248.33   11.06
   4   1   2  272.06   14.42
   1  -5   2  266.67   10.39
  -5   4   2  247.19   10.88
  -5   4   2  258.65   12.56
   0   4  -2    2.38    1.15
   0   4  -2    0.26    1.27
   0   4  -2    1.75    0.88
  -4   0  -2    2.50    2.12
  -4   0  -2   -0.79    2.11
   4  -4  -2    1.81    1.56
   4   0   2    1.26    2.15
  -4   4   2    0.88    1.54
   0  -4   2    1.16    1.49
  -4   4   2    0.06    1.18
  -4   1  -2   19.65    4.04
   1   3  -2   17.51    1.95
   3  -4  -2   18.88    2.72
  -4   1  -2   18.34    3.08
   1   3  -2   17.67    2.77
   1   3  -2   19.20    2.57
  -1  -3   2   17.03    3.13
  -1  -3   2   19.26    3.35
   4  -1   2   15.34    3.43
  -3   4   2   20.15    2.35
  -3   4   2   19.75    2.96
   2   2  -2  167.12    8.92
   2  -4  -2  168.45    8.03
   2   2  -2  170.11    6.92
  -4   2  -2  167.92    7.31
  -4   2  -2  187.30   10.19
  -2   4   2  176.44    7.03
   4  -2   2  167.36    9.09
  -2   4   2  179.43    8.42
  -2  -2   2  166.88    9.43
  -4   3  -2   20.05    3.33
   1  -4  -2   15.08    2.51
   3   1  -2   17.32    3.37
  -4   3  -2   19.63    2.34
  -4   3  -2   17.82    3.22
  -3  -1   2   15.24    3.35
   4  -3   2   15.70    2.74
  -3  -1   2   18.93    3.07
  -1   4   2   15.59    2.50
  -1   4   2   19.79    2.53
   4  -3   2   17.32    2.74
   0  -4  -2   -0.74    1.42
   4   0  -2    3.54    2.23
  -4   4  -2    2.48    1.03
  -4   4  -2    1.42    1.34
  -4   4  -2    0.39    1.78
  -4   4  -2    0.29    1.37
   4  -4   2    0.30    1.08
   0   4   2    1.06    1.51
  -4   0   2    3.82    2.27
   0   4   2    1.22    1.40
  -4   0   2    1.35    2.14
   4  -4   2    0.10    0.97
  -1  -4  -2  250.96   12.08
  -4   5  -2  258.46    8.51
  -4   5  -2  266.65   13.23
   5  -1  -2  253.13   13.86
  -4   5  -2  247.64   11.28
  -4   5  -2  260.06   10.96
  -5   1   2  254.32   14.13
   1   4   2  250.47   11.07
  -5   1   2  259.89   11.96
   4  -5   2  258.04   10.04
   4  -5   2  262.37    9.48
  -4   6  -2  133.43    7.73
   6  -2  -2  146.00   10.51
  -4   6  -2  133.10    7.31
  -2  -4  -2  131.72    9.06
  -4   6  -2  139.78    9.40
  -6   2   2  132.32    8.44
   2   4   2  138.20    8.09
  -6   2   2  133.60    8.06
  -6   2   2  143.23    7.45
  -6   2   2  134.72    8.60
  -4   7  -2   86.05    8.46
  -4   7  -2   69.89    5.30
  -4   7  -2   76.00    5.83
  -3  -4  -2   86.63    9.13
  -7   3   2   72.97    7.62
  -7   3   2   80.96    6.51
  -7   3   2   80.51    6.80
   3   4   2   92.45    6.92
  -4   8  -2   65.25    7.42
  -4   8  -2   61.37    5.94
  -4  -4  -2   50.60    7.68
  -4   8  -2   55.33    5.83
  -8   4   2   56.19    6.51
   4   4   2   72.66    7.42
  -8   4   2   41.18    6.17
  -8   4   2   53.80    6.69
  -4   9  -2   82.16    6.41
  -5  -4  -2   92.24   10.22
  -9   5   2   89.42    8.31
  -9   5   2   89.17    9.86
  -9   5   2   89.74    7.33
  -5  -3  -2   28.15    5.92
  -3   8  -2   21.19    3.74
  -8   5   2   15.45    3.65
  -8   5   2   13.48    3.32
  -8   5   2   13.73    4.04
  -2   7  -2   80.04    5.78
  -2   7  -2   76.88    3.19
  -5  -2  -2   80.85    8.88
  -2   7  -2   75.00    5.64
  -7   5   2   77.65    5.93
  -7   5   2   67.78    7.63
   2  -7   2   83.81    6.90
  -7   5   2   73.41    6.83
  -1   6  -2   67.48    5.15
  -1   6  -2   63.45    3.18
  -5  -1  -2   66.26    7.19
  -1   6  -2   63.56    5.16
  -5  -1  -2   65.05    6.89
   1  -6   2   67.54    6.65
   1  -6   2   74.41    7.54
  -6   5   2   60.75    4.99
   1  -6   2   66.11    3.94
  -6   5   2   64.86    7.32
  -6   5   2   64.08    5.97
  -5   0  -2    6.08    3.15
   0   5  -2    9.10    2.49
  -5   0  -2   13.90    5.03
   0   5  -2   12.04    1.73
  -5   0  -2   15.32    3.79
   5  -5  -2   10.45    2.73
   0   5  -2   11.21    2.52
  -5   5   2   10.89    2.56
   0  -5   2   10.61    2.86
  -5   5   2    7.12    2.80
   0  -5   2   16.83    3.97
   5   0   2    9.86    3.54
  -5   5   2    7.98    2.15
   4  -5  -2  261.38   11.26
  -5   1  -2  238.34   12.31
   1   4  -2  251.54   10.29
  -5   1  -2  247.09   11.25
   1   4  -2  250.46    9.22
  -5   1  -2  246.06   11.43
  -1  -4   2  246.99   11.16
  -1  -4   2  256.31   12.12
   5  -1   2  246.02   13.30
  -4   5   2  258.98    9.93
  -4   5   2  233.04   11.74
   3  -5  -2   39.34    3.39
  -5   2  -2   35.36    4.19
  -5   2  -2   45.73    5.67
   2   3  -2   40.93    3.28
  -5   2  -2   37.60    4.43
  -5   2  -2   36.26    3.81
   5  -2   2   39.20    5.13
  -3   5   2   41.92    3.03
  -3   5   2   39.32    3.59
  -3   5   2   35.96    4.03
  -2  -3   2   42.64    4.56
  -2  -3   2   35.39    4.56
  -5   3  -2   31.89    4.42
  -5   3  -2   37.30    3.76
  -5   3  -2   39.42    4.13
   2  -5  -2   35.83    3.41
   3   2  -2   43.85    4.09
  -5   3  -2   48.18    5.79
  -2   5   2   44.25    3.31
   5  -3   2   39.08    4.85
  -3  -2   2   41.42    4.89
  -2   5   2   40.54    3.69
  -3  -2   2   43.53    4.79
   4   1  -2  257.71   10.69
  -5   4  -2  266.07   12.14
   1  -5  -2  258.00   11.57
   4   1  -2  243.71   14.81
  -5   4  -2  226.48   12.62
  -5   4  -2  248.43   10.78
  -5   4  -2  240.78    9.74
  -4  -1   2  278.48   12.18
  -1   5   2  242.54   10.21
  -4  -1   2  256.53   11.44
   5  -4   2  253.73   12.39
   5  -4   2  236.79   11.86
  -5   5  -2   15.77    3.41
  -5   5  -2    7.39    3.18
  -5   5  -2   13.67    2.00
  -5   5  -2    7.66    2.32
   5   0  -2    9.89    3.85
  -5   0   2   11.52    3.47
   5  -5   2   11.61    1.97
  -5   0   2   13.12    3.39
   5  -5   2   12.01    2.36
   0   5   2   11.29    2.60
  -1  -5  -2   64.02    7.07
   6  -1  -2   68.88    8.79
  -5   6  -2   63.53    3.44
  -5   6  -2   51.27    6.85
  -5   6  -2   66.32    5.14
  -5   6  -2   59.62    5.96
  -6   1   2   75.51    6.84
   1   5   2   76.20    6.49
  -6   1   2   71.62    7.42
   5  -6   2   66.77    3.05
  -6   1   2   70.48    6.62
   5  -6   2   67.18    3.42
  -5   7  -2   72.43    8.34
  -5   7  -2   82.86    6.24
  -2  -5  -2   79.68    8.40
  -5   7  -2   80.30    5.66
   2   5   2   84.08    6.59
  -7   2   2   69.18    7.23
  -7   2   2   76.86    8.15
  -5   8  -2   13.77    4.30
  -5   8  -2   14.55    3.11
  -3  -5  -2   29.67    5.95
  -5   8  -2   19.71    3.78
  -8   3   2   16.30    3.71
  -8   3   2   12.34    3.87
   3   5   2   20.69    4.06
  -8   3   2    8.30    3.56
  -4  -5  -2   87.40   10.33
  -5   9  -2  111.58    9.25
   4   5   2  100.20    8.07
  -9   4   2  100.51    8.98
  -9   4   2   90.32    9.73
  -9   4   2  100.92    8.39
  -5  -5  -2   22.60    5.97
 -10   5   2   21.65    4.72
 -10   5   2   19.15    5.06
 -10   5   2   16.92    4.27
  -6  -5  -2    9.14    5.25
 -11   6   2    0.97    3.03
 -11   6   2    6.04    4.14
 -11   6   2    4.76    3.15
  -6  -4  -2   25.75    6.39
 -10   6   2   22.10    4.72
 -10   6   2   24.13    4.98
 -10   6   2   26.24    5.98
  -6  -3  -2    6.24    3.96
  -3   9  -2    4.40    1.15
  -3   9  -2    6.07    2.73
   3  -9   2   14.96    4.19
  -9   6   2    5.86    2.76
  -9   6   2   11.55    4.28
  -9   6   2   14.33    4.19
  -2   8  -2   42.08    5.36
  -2   8  -2   37.66    2.54
  -6  -2  -2   38.98    6.78
   2  -8   2   36.88    5.98
  -8   6   2   23.88    5.44
  -8   6   2   33.50    5.09
  -8   6   2   45.15    5.58
  -1   7  -2   38.70    2.75
  -1   7  -2   34.97    4.56
  -6  -1  -2   39.31    6.37
  -6  -1  -2   40.23    5.80
  -7   6   2   43.40    5.07
   1  -7   2   34.69    5.06
  -7   6   2   45.74    5.16
  -7   6   2   28.98    5.31
   1  -7   2   42.06    6.13
   0   6  -2    1.05    2.13
  -6   0  -2   -1.78    2.67
   0   6  -2    1.85    1.26
  -6   0  -2    2.96    2.57
  -6   6   2    3.43    2.67
   0  -6   2    0.73    2.36
  -6   6   2    0.59    1.64
   0  -6   2   -1.26    2.67
  -6   6   2   -2.55    1.41
  -6   1  -2   62.96    5.48
  -6   1  -2   76.19    6.84
   1   5  -2   60.87    4.19
  -6   1  -2   64.35    7.34
  -6   1  -2   53.71    5.46
  -5   6   2   61.76    6.97
  -1  -5   2   65.33    7.20
  -1  -5   2   65.28    6.16
  -5   6   2   64.14    4.66
   6  -1   2   63.86    7.99
  -6   2  -2  139.46    7.69
  -6   2  -2  126.67    7.43
   2   4  -2  128.27    6.65
  -6   2  -2  129.41    9.13
  -6   2  -2  119.68    8.04
  -2  -4   2  132.74    7.51
  -4   6   2  129.63    6.17
   6  -2   2  125.03    9.76
  -2  -4   2  137.41    8.78
  -4   6   2  130.90    8.33
   3   3  -2   80.77    5.36
  -6   3  -2   64.95    5.18
  -6   3  -2   65.85    5.08
  -6   3  -2   79.82    7.97
  -6   3  -2   75.93    6.53
   6  -3   2   72.46    7.77
  -3   6   2   75.96    5.82
  -3  -3   2   85.65    7.92
  -3  -3   2   63.83    5.52
  -3   6   2   73.53    4.53
  -6   4  -2  131.76    7.59
  -6   4  -2  145.12    7.16
  -6   4  -2  138.38    9.51
  -6   4  -2  130.01    9.11
   4   2  -2  131.37    7.76
  -2   6   2  145.06    7.00
  -4  -2   2  139.09    8.94
  -4  -2   2  143.62    8.26
  -6   5  -2   60.76    4.30
  -6   5  -2   68.89    7.32
  -6   5  -2   70.81    7.92
   5   1  -2   59.01    5.88
  -6   5  -2   62.68    4.99
  -5  -1   2   59.53    6.26
  -5  -1   2   69.66    7.01
  -1   6   2   61.23    4.72
   0  -6  -2   -3.56    2.48
  -6   6  -2    1.37    2.40
  -6   6  -2   -0.49    1.07
  -6   6  -2    1.63    2.05
  -6   6  -2    1.20    2.72
  -6   0   2   -0.45    2.37
  -6   0   2    5.86    3.32
   0   6   2    2.54    1.95
  -6   7  -2   45.15    7.03
  -6   7  -2   39.92    4.66
  -6   7  -2   44.55    3.06
  -1  -6  -2   39.76    5.97
  -6   7  -2   40.03    5.30
  -7   1   2   47.94    6.65
   1   6   2   42.31    5.05
  -7   1   2   36.24    5.31
  -6   8  -2   39.02    2.84
  -2  -6  -2   34.10    6.17
  -6   8  -2   53.60    6.06
  -6   8  -2   45.97    7.25
   2   6   2   46.88    5.70
  -8   2   2   42.98    6.74
  -3  -6  -2   -4.79    2.62
  -6   9  -2    1.52    2.45
  -6   9  -2    5.13    3.49
  -9   3   2    9.93    4.20
  -9   3   2    2.99    2.92
   3   6   2    5.01    2.87
  -4  -6  -2   20.80    6.28
  -6  10  -2   19.55    5.58
 -10   4   2   19.18    4.78
 -10   4   2   17.43    4.58
   4   6   2   20.70    4.78
  -5  -6  -2    5.47    4.86
 -11   5   2   -1.73    2.68
 -11   5   2    1.43    3.31
  -6  -6  -2   16.20    6.17
 -12   6   2   26.47    6.24
 -12   6   2   26.51    5.71
  -7  -6  -2   -0.20    4.36
 -13   7   2   14.22    5.38
 -13   7   2    5.07    4.19
  -7  -5  -2   26.18    7.40
 -12   7   2   21.78    5.98
 -12   7   2   15.39    4.80
 -12   7   2   30.83    6.34
  -4  11  -2   12.31    1.95
  -7  -4  -2   13.78    5.74
 -11   7   2   18.44    4.30
 -11   7   2   11.68    4.22
 -11   7   2   15.03    5.31
  -7  -3  -2   16.67    5.73
  -3  10  -2   33.43    3.37
 -10   7   2   27.42    5.18
 -10   7   2   15.80    5.22
 -10   7   2   20.03    4.76
  -7  -2  -2   69.64    9.15
  -2   9  -2   81.70    4.74
  -9   7   2   90.16   10.56
   2  -9   2   92.58    9.84
  -9   7   2   75.89    8.22
  -9   7   2   79.01    6.65
  -1   8  -2   26.88    3.05
  -7  -1  -2   28.52    5.18
  -7  -1  -2   25.52    5.81
   1  -8   2   33.81    6.03
  -8   7   2   26.96    4.62
  -8   7   2   31.09    5.93
  -8   7   2   32.57    4.86
  -7   0  -2   22.16    4.78
   0   7  -2   22.30    2.90
  -7   0  -2   29.34    5.36
  -7   7   2   21.03    5.10
   0  -7   2   16.95    4.83
  -7   7   2   27.48    4.08
  -7   1  -2   50.96    6.88
  -7   1  -2   36.21    5.02
   1   6  -2   39.14    3.90
  -1  -6   2   42.31    6.57
  -1  -6   2   43.37    5.30
  -6   7   2   38.28    6.05
  -6   7   2   34.56    4.12
  -7   2  -2   93.81    9.16
  -7   2  -2   84.14    6.69
  -7   2  -2   84.23    6.07
  -7   2  -2   81.47    7.29
   2   5  -2   77.63    5.42
  -2  -5   2   65.55    7.42
  -2  -5   2   71.28    6.03
  -5   7   2   74.15    4.92
  -5   7   2   67.03    7.54
  -7   3  -2   81.07    6.07
  -7   3  -2   79.81    5.96
  -7   3  -2   95.30    9.36
  -7   3  -2   80.70    7.94
   3   4  -2   84.77    6.19
  -3  -4   2   81.16    6.34
  -4   7   2   84.24    4.88
  -4   7   2   79.57    6.85
  -3  -4   2   95.01    9.22
  -7   4  -2   90.87    7.72
  -7   4  -2   86.93    5.86
  -7   4  -2   83.42    5.96
  -7   4  -2   76.42    8.29
   4   3  -2   82.42    6.59
  -4  -3   2   83.72    8.60
  -3   7   2   82.12    5.11
  -4  -3   2   78.94    6.46
  -3   7   2   98.63    6.98
   5   2  -2   84.49    6.79
  -7   5  -2   89.85    6.17
  -7   5  -2   79.35    8.61
  -7   5  -2   85.21    8.53
  -7   5  -2   88.31    5.61
  -5  -2   2   83.13    8.56
  -5  -2   2   67.07    6.99
  -2   7   2   82.67    5.40
  -7   6  -2   44.85    4.21
  -7   6  -2   33.35    4.84
  -7   6  -2   26.06    5.19
  -7   6  -2   45.71    6.31
  -6  -1   2   41.38    5.98
  -6  -1   2   40.38    6.09
  -1   7   2   36.56    4.09
  -7   7  -2   25.35    4.08
  -7   7  -2   19.33    2.80
  -7   7  -2   21.39    5.09
  -7   7  -2   23.71    4.56
   0   7   2   27.70    3.80
  -7   0   2   22.77    4.87
  -7   0   2   15.71    4.37
  -1  -7  -2   22.62    5.24
  -7   8  -2   35.53    6.68
  -7   8  -2   35.62    5.70
  -7   8  -2   31.16    3.14
   1   7   2   28.46    4.37
  -8   1   2   30.65    5.56
  -8   1   2   30.39    6.27
  -2  -7  -2   79.13    9.78
  -7   9  -2   75.66    9.77
  -7   9  -2   83.78    4.55
  -7   9  -2   74.53    7.98
  -9   2   2   64.35    8.55
   2   7   2   89.47    7.13
  -7  10  -2   31.69    3.01
  -3  -7  -2   21.40    6.11
  -7  10  -2   33.44    6.99
 -10   3   2   27.75    5.88
   3   7   2   32.09    5.47
  -7  11  -2   14.44    2.09
  -4  -7  -2   13.50    5.75
 -11   4   2    5.51    3.79
   4   7   2   14.07    4.28
  -5  -7  -2   12.86    6.37
 -12   5   2   24.56    5.78
  -6  -7  -2    0.98    4.15
 -13   6   2    5.21    4.03
  -8  -5  -2    1.43    4.35
 -13   8   2   -1.76    3.47
 -13   8   2    1.43    2.99
 -13   8   2    4.07    3.58
  -4  12  -2   16.01    2.17
  -8  -4  -2   15.41    6.06
 -12   8   2   12.04    4.07
 -12   8   2    6.78    4.63
 -12   8   2   11.45    4.24
  -3  11  -2   35.17    3.77
  -8  -3  -2   28.94    7.23
 -11   8   2   27.92    5.39
 -11   8   2   31.43    6.82
 -11   8   2   29.79    5.88
  -8  -2  -2    5.60    4.09
  -2  10  -2    8.36    2.84
 -10   8   2    8.36    3.68
 -10   8   2    6.75    4.63
 -10   8   2    5.32    3.09
   2 -10   2    3.45    4.00
  -1   9  -2   70.17    6.09
  -8  -1  -2   62.66    8.30
   1  -9   2   55.99    7.95
  -9   8   2   59.28    6.81
  -9   8   2   54.67    8.08
  -9   8   2   57.51    6.87
   0   8  -2   38.45    4.36
  -8   0  -2   57.15    7.43
  -8   0  -2   46.80    6.67
  -8   8   2   44.19    7.38
  -8   8   2   38.98    5.01
   0  -8   2   38.26    6.73
   1   7  -2   37.07    4.36
  -8   1  -2   33.96    5.31
  -8   1  -2   32.98    6.20
  -1  -7   2   32.46    6.44
  -7   8   2   29.36    5.90
  -7   8   2   25.10    3.95
  -8   2  -2   29.28    4.65
  -8   2  -2   26.48    4.47
  -8   2  -2   38.43    6.39
  -8   2  -2   35.88    5.09
   2   6  -2   32.37    4.29
  -6   8   2   35.86    4.11
  -2  -6   2   47.00    7.08
  -6   8   2   47.48    6.75
  -8   3  -2   20.37    4.30
  -8   3  -2   15.88    3.36
   3   5  -2   15.69    3.48
  -8   3  -2   13.87    3.29
  -8   3  -2   10.97    4.10
  -5   8   2   10.16    3.47
  -3  -5   2   15.25    4.42
  -5   8   2   13.88    2.48
  -3  -5   2   14.48    3.52
  -8   4  -2   46.43    5.08
   4   4  -2   36.77    5.22
   4   4  -2   52.95    6.46
  -8   4  -2   55.26    5.71
  -8   4  -2   54.12    6.82
  -8   4  -2   41.15    6.35
  -4   8   2   51.72    4.04
  -4  -4   2   51.25    6.89
  -4  -4   2   43.59    5.53
  -4   8   2   58.33    6.77
  -8   5  -2   15.60    3.07
   5   3  -2   20.26    4.53
  -8   5  -2   23.64    4.10
  -8   5  -2   19.45    4.63
  -8   5  -2   19.06    4.57
  -5  -3   2   20.14    4.36
  -5  -3   2   11.25    4.16
  -3   8   2   21.88    2.98
  -8   6  -2   35.67    5.96
  -8   6  -2   37.05    4.27
  -8   6  -2   40.75    5.13
  -8   6  -2   25.12    5.17
  -6  -2   2   40.88    6.49
  -2   8   2   43.19    4.47
  -6  -2   2   42.16    6.25
  -8   7  -2   29.12    5.80
  -8   7  -2   36.37    4.04
  -8   7  -2   30.23    5.72
  -7  -1   2   36.09    6.45
  -7  -1   2   28.33    5.83
  -1   8   2   29.31    3.88
  -8   8  -2   46.87    4.44
  -8   8  -2   36.10    6.50
  -8   8  -2   48.77    6.81
  -8   0   2   36.87    6.43
   0   8   2   47.46    5.20
  -8   0   2   37.95    6.89
  -8   9  -2   75.14    9.46
  -8   9  -2   90.17    9.43
  -8   9  -2   74.51    4.80
  -9   1   2   64.60    9.31
   1   8   2   74.45    7.14
  -9   1   2   63.29    8.09
  -8  10  -2    8.10    3.86
  -8  10  -2   11.22    4.80
  -8  10  -2   10.08    2.25
 -10   2   2    4.23    3.87
   2   8   2   10.72    3.55
  -3  -8  -2   18.01    6.84
  -8  11  -2   37.58    7.58
  -8  11  -2   33.89    3.31
   3   8   2   35.41    6.29
 -11   3   2   19.57    5.70
  -4  -8  -2   12.55    6.12
 -12   4   2   17.81    5.66
   4   8   2   16.53    5.04
  -5  -8  -2    0.64    4.72
 -13   5   2    4.34    3.90
  -4  13  -2    7.36    2.02
  -9  -4  -2    3.73    4.93
 -13   9   2    6.50    3.67
 -13   9   2    0.46    3.14
 -13   9   2    6.49    4.53
  -9  -3  -2   39.49    8.65
  -3  12  -2   39.11    3.94
 -12   9   2   34.17    7.95
 -12   9   2   33.03    5.96
 -12   9   2   32.43    5.85
  -9  -2  -2   18.47    6.73
  -2  11  -2   11.81    3.02
 -11   9   2   13.84    4.36
 -11   9   2    9.74    5.33
  -1  10  -2   23.89    4.38
  -9  -1  -2   41.24    7.67
   1 -10   2   20.78    6.00
 -10   9   2   24.03    4.87
 -10   9   2   18.28    5.95
  -9   0  -2   11.16    4.46
  -9   0  -2    6.94    3.76
   0   9  -2   10.54    3.29
  -9   9   2    7.78    3.17
   0  -9   2    6.59    4.44
  -9   9   2    0.80    3.72
   1   8  -2   65.54    6.75
  -9   1  -2   57.15    7.23
  -9   1  -2   56.18    7.97
  -1  -8   2   54.65    8.24
  -8   9   2   79.79    7.18
  -8   9   2   58.58    8.50
  -9   2  -2  102.50   10.54
  -9   2  -2   84.01    6.89
   2   7  -2   73.52    7.14
  -7   9   2   75.82    8.81
  -7   9   2   76.86    5.78
  -2  -7   2   50.59    7.79
  -9   3  -2    2.21    2.63
  -9   3  -2    6.40    2.58
  -9   3  -2    7.23    3.74
  -9   3  -2    2.77    2.67
   3   6  -2    5.18    2.98
  -6   9   2    6.90    2.00
  -3  -6   2    1.03    3.48
  -6   9   2    2.95    3.02
  -9   4  -2   91.30    6.52
  -9   4  -2   78.59    8.57
   4   5  -2   99.58    9.22
  -9   4  -2   81.21    7.53
  -9   4  -2   64.79    8.46
  -4  -5   2   84.68    9.86
  -4  -5   2   73.42    7.54
  -5   9   2   89.06    9.03
  -5   9   2   80.01    5.14
   5   4  -2   86.14    8.96
  -9   5  -2   88.82    9.15
  -9   5  -2   98.50    6.82
  -9   5  -2   86.10    6.53
  -9   5  -2   70.00    8.32
  -5  -4   2   71.52    8.88
  -4   9   2   75.65    5.39
  -5  -4   2   88.87    7.47
  -9   6  -2    6.96    2.47
  -9   6  -2   11.86    2.84
  -9   6  -2    5.91    3.13
  -9   6  -2    6.12    3.68
  -6  -3   2    3.56    3.40
  -6  -3   2    5.33    3.43
  -3   9   2    6.53    2.26
  -9   7  -2   89.76    9.36
  -9   7  -2   83.04    6.07
  -9   7  -2  100.02   10.57
  -2   9   2   74.86    5.59
  -7  -2   2   76.34    9.31
  -7  -2   2   86.18    9.41
  -9   8  -2   67.87    9.23
  -9   8  -2   71.05    5.52
  -9   8  -2   73.07    8.86
  -8  -1   2   74.79    9.53
  -1   9   2   71.46    5.68
  -8  -1   2   69.44    9.42
  -9   9  -2    4.60    3.84
  -9   9  -2    5.21    3.76
  -9   9  -2   11.08    2.75
   0   9   2   14.04    3.24
  -9   0   2    2.96    3.78
  -9   0   2    9.43    4.62
  -9  10  -2   29.29    6.76
  -9  10  -2   25.59    3.55
  -9  10  -2   31.32    6.11
 -10   1   2   22.49    6.25
 -10   1   2   23.53    5.85
   1   9   2   20.93    4.15
  -9  11  -2   17.66    5.67
  -9  11  -2    8.65    2.30
   2   9   2   21.33    4.62
 -11   2   2   13.89    5.32
  -9  12  -2   32.40    3.49
  -9  12  -2   32.38    7.14
   3   9   2   29.63    5.99
 -12   3   2   25.15    6.76
   4   9   2   -3.35    3.02
 -13   4   2    5.49    4.27
  -2  12  -2   25.63    3.81
 -10  -2  -2   11.07    5.22
 -12  10   2   11.58    4.13
 -12  10   2   19.30    6.35
  -1  11  -2   11.41    3.37
 -10  -1  -2    9.39    4.73
 -11  10   2    2.00    3.07
 -11  10   2    8.33    4.91
 -10   0  -2    5.88    4.13
   0  10  -2    7.50    3.60
 -10  10   2    6.86    3.27
   0 -10   2   16.04    5.63
 -10  10   2    7.76    4.25
 -10   1  -2   30.49    6.53
 -10   1  -2   22.09    5.40
   1   9  -2   15.80    4.90
  -1  -9   2   20.25    6.13
  -9  10   2   16.70    3.74
  -9  10   2   18.21    5.99
   2   8  -2    5.19    3.57
 -10   2  -2    6.12    3.80
 -10   2  -2   10.98    3.76
  -8  10   2    4.92    2.56
  -8  10   2   14.76    4.97
  -2  -8   2    2.87    3.75
 -10   3  -2   25.23    4.87
   3   7  -2   29.54    5.55
 -10   3  -2   34.80    6.71
  -7  10   2   38.86    6.63
  -3  -7   2   20.86    5.90
  -7  10   2   31.28    4.47
   4   6  -2   16.06    4.78
 -10   4  -2   18.57    4.42
 -10   4  -2   22.80    4.05
 -10   4  -2   27.72    4.85
 -10   4  -2   36.00    6.79
  -6  10   2   26.92    5.64
  -4  -6   2   22.40    6.17
  -6  10   2   22.07    3.50
 -10   5  -2   13.20    4.65
 -10   5  -2   13.92    4.32
   5   5  -2   30.04    6.56
 -10   5  -2   28.47    4.76
 -10   5  -2   24.31    4.18
  -5  10   2   21.74    3.18
  -5  -5   2   17.45    4.98
 -10   6  -2   23.08    4.15
 -10   6  -2   21.00    5.27
   6   4  -2   24.22    6.50
 -10   6  -2   15.11    4.68
  -4  10   2   22.24    3.66
  -6  -4   2   17.87    5.47
  -6  -4   2   21.18    5.09
 -10   7  -2   22.41    5.31
 -10   7  -2   26.38    6.18
 -10   7  -2   22.93    4.03
  -7  -3   2   23.27    5.75
  -3  10   2   26.24    3.75
  -7  -3   2   25.70    5.78
 -10   8  -2    1.76    3.29
 -10   8  -2    9.75    2.92
 -10   8  -2   -0.74    3.17
  -8  -2   2   11.04    4.99
  -8  -2   2    8.92    4.69
  -2  10   2    7.79    2.52
 -10   9  -2   28.04    6.74
 -10   9  -2   19.04    3.53
 -10   9  -2   28.00    6.01
  -9  -1   2   26.71    6.39
  -9  -1   2   17.50    5.77
  -1  10   2   27.88    4.24
 -10  10  -2   12.64    5.15
 -10  10  -2    8.92    5.01
 -10  10  -2    9.12    2.79
   0  10   2   14.96    3.76
 -10   0   2    7.26    4.52
 -10   0   2    9.40    5.34
 -10  11  -2    3.63    4.06
 -10  11  -2    7.80    2.58
 -10  11  -2   12.19    4.80
 -11   1   2    8.46    4.88
   1  10   2   11.06    3.68
 -10  12  -2   33.13    7.49
 -10  12  -2   14.26    2.95
   2  10   2   18.77    4.86
 -12   2   2   17.79    5.48
 -11  -1  -2   13.28    5.80
  -1  12  -2    3.25    2.54
 -12  11   2   -0.46    3.56
 -12  11   2    1.72    3.26
   0  11  -2   12.41    3.90
 -11   0  -2    5.26    4.07
 -11  11   2   10.43    3.92
   0 -11   2    4.00    4.89
 -11  11   2    5.64    4.40
 -11   1  -2   -0.16    3.04
 -11   1  -2    5.79    4.30
   1  10  -2   10.36    3.67
 -10  11   2    7.85    3.32
  -1 -10   2    7.98    5.37
 -10  11   2   10.96    5.01
 -11   2  -2   15.19    5.15
 -11   2  -2   13.80    4.49
   2   9  -2    3.09    3.63
  -9  11   2   11.88    3.34
  -2  -9   2    6.84    5.41
  -9  11   2    7.66    3.97
   3   8  -2   33.25    6.51
 -11   3  -2   25.82    6.05
 -11   3  -2   28.66    5.60
  -8  11   2   32.39    6.63
  -3  -8   2   26.18    7.28
  -8  11   2   28.40    4.75
 -11   4  -2   10.43    3.26
 -11   4  -2    4.32    3.77
   4   7  -2   17.74    5.61
  -7  11   2    9.89    4.28
  -7  11   2   14.28    3.32
  -4  -7   2   11.31    5.44
 -11   5  -2    3.32    2.74
   5   6  -2    6.94    4.54
 -11   5  -2    7.74    4.23
 -11   5  -2   -1.55    2.82
 -11   5  -2   11.24    3.50
  -5  -6   2   -2.31    3.30
  -6  11   2    2.63    2.03
 -11   6  -2    9.25    4.23
 -11   6  -2   -0.51    3.22
 -11   6  -2    4.99    2.81
   6   5  -2    6.78    5.06
  -5  11   2    4.50    2.14
  -6  -5   2    9.00    4.50
 -11   7  -2    6.81    4.09
 -11   7  -2    5.47    4.02
 -11   7  -2   13.48    3.59
  -7  -4   2   10.40    4.71
  -4  11   2   11.04    3.03
 -11   8  -2   29.39    6.15
 -11   8  -2   43.98    7.85
 -11   8  -2   40.58    5.40
  -3  11   2   33.17    4.58
  -8  -3   2   30.89    6.95
  -8  -3   2   22.01    5.80
 -11   9  -2   11.70    4.99
 -11   9  -2   14.00    5.18
 -11   9  -2   12.72    3.40
  -9  -2   2   17.71    6.11
  -9  -2   2    7.07    4.89
  -2  11   2   14.92    3.48
 -11  10  -2   15.12    5.37
 -11  10  -2   11.57    5.05
 -11  10  -2    7.83    2.76
 -10  -1   2   12.51    5.51
 -10  -1   2   13.82    5.64
  -1  11   2    7.52    2.97
 -11  11  -2   12.72    5.39
 -11  11  -2   13.90    3.29
 -11  11  -2   11.61    5.08
 -11   0   2   22.33    6.66
   0  11   2   11.19    3.30
 -11   0   2   13.64    6.02
 -11  12  -2    7.87    4.85
 -11  12  -2    7.49    2.62
   1  11   2    6.90    3.30
 -12   1   2   13.32    5.38
 -12   1  -2    6.84    4.16
   1  11  -2   11.20    3.92
  -1 -11   2    0.92    4.86
 -11  12   2    7.65    3.81
 -11  12   2   13.99    5.42
 -12   2  -2   14.92    5.27
 -12   2  -2   21.60    5.64
   2  10  -2   14.62    4.67
  -2 -10   2    2.81    5.01
 -10  12   2   16.38    5.33
 -10  12   2   16.45    4.18
   3   9  -2   39.20    6.63
 -12   3  -2   25.05    5.51
  -9  12   2   45.94    8.02
  -9  12   2   35.66    5.46
  -3  -9   2   22.27    6.84
   4   8  -2   10.04    4.52
 -12   4  -2   19.48    6.17
 -12   4  -2    6.07    3.25
  -4  -8   2    6.07    5.03
  -8  12   2   15.40    3.80
 -12   5  -2   21.28    6.16
   5   7  -2   27.78    6.38
  -5  -7   2   15.99    6.02
  -7  12   2   22.84    4.17
 -12   6  -2   23.55    6.07
 -12   6  -2   23.15    4.76
 -12   6  -2   28.29    6.37
   6   6  -2   34.58    7.33
  -6  -6   2   15.37    5.90
  -6  12   2   22.02    4.07
 -12   7  -2   33.83    6.98
 -12   7  -2   18.94    5.40
 -12   7  -2   30.10    5.36
  -7  -5   2   15.97    5.67
  -5  12   2   17.93    3.51
 -12   8  -2   13.29    3.76
 -12   8  -2   14.82    4.89
 -12   8  -2   23.92    6.28
  -8  -4   2   16.35    5.86
  -4  12   2   11.82    3.16
 -12   9  -2   35.64    5.57
 -12   9  -2   31.34    6.68
 -12   9  -2   37.58    7.98
  -9  -3   2   33.55    7.93
  -3  12   2   29.61    4.54
 -12  10  -2   17.29    3.96
 -12  10  -2   13.74    5.24
 -12  10  -2   23.03    5.64
 -10  -2   2   19.49    6.96
 -10  -2   2    8.37    5.03
  -2  12   2   10.01    3.12
 -12  11  -2    8.73    4.80
 -12  11  -2   14.50    5.52
 -12  11  -2   11.43    3.28
 -11  -1   2    2.26    4.06
  -1  12   2    2.19    2.46
 -11  -1   2    1.28    4.83
   4   9  -2    4.21    4.11
 -13   4  -2    0.26    3.91
  -4  -9   2    1.02    4.87
  -9  13   2   -0.14    2.62
 -13   5  -2    2.72    4.23
   5   8  -2    0.25    3.88
  -5  -8   2   -2.65    3.92
  -8  13   2    6.24    3.05
 -13   6  -2   -3.62    3.42
   6   7  -2    1.13    4.25
  -7  13   2    6.52    3.03
  -6  -7   2    6.47    5.29
 -13   7  -2   12.94    4.50
 -13   7  -2    2.81    3.90
 -13   7  -2    9.23    4.67
  -6  13   2    3.91    2.65
  -7  -6   2    5.57    4.68
 -13   8  -2    1.89    3.50
 -13   8  -2    3.39    3.03
 -13   8  -2    2.23    4.24
  -8  -5   2    0.83    4.38
  -5  13   2    2.23    2.26
 -13   9  -2    2.79    2.88
 -13   9  -2   -1.46    3.37
 -13   9  -2    1.77    3.94
  -9  -4   2   -1.26    4.27
  -4  13   2    2.45    2.54
   0   0  -3   32.02    3.49
   0   0   3   23.84    3.17
   0   0   3   21.04    3.00
   1  -1  -3   11.49    2.31
  -1   0  -3   12.59    2.29
   0   1  -3   12.27    2.17
  -1   0  -3    8.49    1.84
   0  -1   3   10.34    2.10
   1   0   3    9.99    2.05
  -1   1   3    9.57    2.22
   1   0   3    8.14    1.91
   0  -1  -3   11.76    2.43
   1   0  -3   12.90    2.26
  -1   1  -3   12.40    2.10
  -1   0   3   10.71    2.19
   1  -1   3   13.27    2.30
   0   1   3    8.86    2.15
   0   1   3   13.66    2.62
   1  -1   3   11.45    2.13
   2  -1  -3  527.70   21.66
  -1  -1  -3  549.69   21.70
  -1   2  -3  559.83   20.49
  -1  -1  -3  555.61   21.64
   1   1   3  571.64   21.83
   1   1   3  538.80   21.74
   1  -2   3  566.29   20.79
  -2   1   3  521.29   21.63
   1  -2   3  546.13   20.69
  -1   3  -3   39.55    3.90
  -1   3  -3   36.21    3.82
   3  -2  -3   36.70    4.38
  -2  -1  -3   40.69    4.98
  -1   3  -3   38.19    2.30
  -1   3  -3   35.31    2.92
   2   1   3   44.66    4.95
   1  -3   3   39.17    3.04
  -3   2   3   37.47    4.42
  -3   2   3   46.29    3.83
   2   1   3   38.19    4.70
   2  -2  -3    3.55    1.69
  -2   0  -3    4.13    1.97
  -2   0  -3    2.89    2.01
   0   2  -3    3.55    1.44
   0  -2   3    6.10    1.67
   2   0   3    6.04    2.31
  -2   2   3    4.56    1.78
   2   0   3    7.80    2.35
  -2   1  -3  546.11   21.28
  -2   1  -3  546.64   21.24
   1  -2  -3  529.29   21.36
   1   1  -3  555.59   21.34
  -1  -1   3  566.77   21.38
  -1   2   3  548.30   21.64
   2  -1   3  543.60   21.36
  -1   2   3  560.74   21.76
   2  -1   3  539.47   21.24
   0  -2  -3    6.23    1.89
   2   0  -3    7.44    2.17
  -2   2  -3    3.90    1.55
   2  -2   3    3.08    1.43
  -2   0   3    8.06    2.33
   0   2   3    5.20    2.05
   0   2   3    3.76    1.74
   2  -2   3    4.17    1.45
  -2   3  -3   43.26    4.32
  -2   3  -3   40.99    3.09
  -1  -2  -3   45.02    5.02
  -1  -2  -3   38.96    4.63
   3  -1  -3   31.99    4.07
  -2   3  -3   39.10    2.48
  -2   3  -3   35.78    3.87
   1   2   3   37.50    4.34
   1   2   3   51.03    5.29
   2  -3   3   43.12    3.33
   2  -3   3   43.85    3.15
  -3   1   3   42.94    4.89
  -2   4  -3  104.55    4.22
   4  -2  -3   91.57    6.80
  -2   4  -3  102.16    5.07
  -2  -2  -3   92.12    6.50
  -2  -2  -3   96.58    7.21
  -2   4  -3   94.19    5.99
  -2   4  -3   94.11    5.81
   2  -4   3  111.29    5.38
  -4   2   3  102.99    5.92
  -4   2   3  108.62    6.15
   2   2   3   99.38    7.23
  -4   2   3  120.24    7.80
   2   2   3  107.47    7.17
   2  -4   3  104.38    5.02
   5  -3  -3   26.75    4.53
  -3  -2  -3   16.77    3.98
  -2   5  -3   18.40    1.60
  -2   5  -3   20.20    3.35
  -2   5  -3   23.36    2.18
  -2   5  -3   17.94    3.17
   2  -5   3   13.79    1.90
   2  -5   3   13.92    1.97
  -5   3   3   10.46    2.63
  -5   3   3   11.68    2.89
   3   2   3   19.54    4.26
  -5   3   3   14.06    2.99
  -1   4  -3   78.22    3.54
  -1   4  -3   75.67    4.35
  -1   4  -3   69.50    5.07
  -3  -1  -3   82.47    6.94
   4  -3  -3   85.37    6.26
  -3  -1  -3   83.21    5.89
  -1   4  -3   80.58    5.37
  -4   3   3   77.78    5.43
   1  -4   3   80.57    4.76
   3   1   3   82.02    6.69
  -4   3   3   70.60    5.14
   3   1   3   86.24    6.71
   0   3  -3   -0.33    0.74
   0   3  -3   -0.38    1.31
  -3   0  -3    0.72    1.84
   0   3  -3    0.33    1.07
   3  -3  -3    1.40    1.77
   0   3  -3    3.70    1.95
  -3   0  -3    1.19    1.63
   0  -3   3   -1.00    1.50
  -3   3   3   -0.24    1.11
  -3   3   3    2.64    1.83
   0  -3   3    0.75    1.16
   3   0   3    1.32    1.88
   3   0   3    0.30    1.82
  -3   3   3    2.66    1.45
   1   2  -3   42.96    3.53
   1   2  -3   37.08    2.65
   1   2  -3   47.85    3.91
  -3   1  -3   51.05    4.67
  -3   1  -3   42.97    4.36
   2  -3  -3   47.22    4.25
  -1  -2   3   42.59    4.56
   3  -1   3   27.73    3.88
  -2   3   3   33.13    3.97
  -1  -2   3   32.35    3.85
   3  -1   3   36.69    4.27
  -3   2  -3   34.48    2.69
  -3   2  -3   41.42    3.84
  -3   2  -3   38.83    3.93
   1  -3  -3   38.37    4.19
   2   1  -3   35.97    4.07
  -2  -1   3   32.29    4.22
   3  -2   3   36.31    3.85
  -1   3   3   42.94    4.77
   3  -2   3   42.41    4.57
  -2  -1   3   47.39    4.56
  -1   3   3   45.89    4.74
  -3   3  -3    0.44    1.31
  -3   3  -3    1.25    1.50
   3   0  -3    0.71    1.71
  -3   3  -3   -0.87    0.68
  -3   3  -3    0.16    1.40
   0  -3  -3    0.89    1.71
   0  -3  -3    2.81    1.81
   0   3   3    2.51    1.81
   0   3   3    0.94    1.29
  -3   0   3    2.30    1.98
   0   3   3    0.33    1.47
   3  -3   3   -0.03    0.96
   3  -3   3    2.02    1.39
  -3   0   3   -1.55    1.62
  -3   4  -3   75.51    5.55
   4  -1  -3   80.98    6.49
  -3   4  -3   80.19    5.36
  -1  -3  -3   75.40    6.28
  -3   4  -3   78.34    5.16
  -1  -3  -3   74.06    6.30
  -3   4  -3   75.41    3.60
   3  -4   3   77.77    4.16
  -4   1   3   78.61    5.45
  -4   1   3   71.36    4.80
  -4   1   3   72.88    6.49
   1   3   3   80.07    6.37
   3  -4   3   77.06    4.65
   1   3   3   75.34    5.37
   5  -2  -3   12.09    3.80
  -3   5  -3   15.85    1.58
  -2  -3  -3   16.91    4.19
  -3   5  -3   13.13    3.00
  -3   5  -3   14.51    2.76
  -3   5  -3   21.38    3.71
  -5   2   3   18.20    3.33
   2   3   3   12.36    3.21
  -5   2   3   12.49    3.41
   3  -5   3   15.44    1.86
  -5   2   3   14.05    2.99
   3  -5   3   14.55    1.68
  -3   6  -3    7.11    1.04
  -3  -3  -3    5.01    3.73
  -3   6  -3    9.77    3.03
   6  -3  -3    3.18    2.95
  -3   6  -3    8.62    2.78
  -3   6  -3   11.24    2.95
  -6   3   3   10.08    3.15
  -6   3   3   11.83    3.24
   3   3   3    9.48    3.22
  -6   3   3    8.49    3.11
  -3   7  -3  123.78    8.05
  -3   7  -3  118.72    4.31
  -3   7  -3  114.94    7.33
  -3   7  -3  115.46    7.46
  -4  -3  -3  118.45    9.31
  -7   4   3  122.08    7.95
  -7   4   3  146.11    9.56
  -7   4   3  118.68    8.40
  -4  -2  -3   37.64    5.83
  -2   6  -3   33.02    2.07
  -2   6  -3   30.26    4.07
  -2   6  -3   30.67    4.32
  -6   4   3   26.73    4.64
   2  -6   3   30.80    2.08
  -6   4   3   38.29    5.09
  -6   4   3   28.42    4.11
  -4  -1  -3  162.32    9.33
  -1   5  -3  158.74    8.26
  -1   5  -3  158.65    8.57
   5  -4  -3  164.64    9.68
  -1   5  -3  158.67    6.01
  -4  -1  -3  174.54   11.95
   4   1   3  178.20   11.12
  -5   4   3  155.73    9.07
   1  -5   3  153.67    8.05
  -5   4   3  146.15    7.85
  -5   4   3  152.75    8.45
   0   4  -3  154.39    6.20
   0   4  -3  151.94    8.01
   0   4  -3  164.44    8.20
  -4   0  -3  159.40    8.64
  -4   0  -3  160.89   10.88
  -4   0  -3  141.82    8.67
   4  -4  -3  152.21    8.94
  -4   4   3  147.23    8.33
   0  -4   3  171.06    8.89
   4   0   3  177.98   10.50
  -4   4   3  158.16    7.86
   0  -4   3  159.89    8.50
  -4   1  -3   66.83    6.38
   3  -4  -3   81.79    5.70
  -4   1  -3   81.91    4.87
  -4   1  -3   73.05    5.46
   1   3  -3   86.77    5.67
   1   3  -3   69.41    4.87
   1   3  -3   78.90    4.07
   1   3  -3   78.80    5.03
  -3   4   3   78.31    5.16
  -1  -3   3   76.89    5.85
   4  -1   3   74.56    6.66
   4  -1   3   75.06    6.37
  -1  -3   3   75.00    5.64
  -3   4   3   74.26    4.78
  -4   2  -3   99.62    5.35
   2   2  -3  106.87    6.90
   2   2  -3  102.52    5.58
   2  -4  -3  115.38    6.66
  -4   2  -3  111.32    6.38
   2   2  -3  107.79    5.04
  -4   2  -3  107.26    6.42
  -4   2  -3  100.35    6.56
  -2  -2   3   96.00    6.78
   4  -2   3   87.99    6.74
   4  -2   3   92.24    6.85
  -2   4   3  100.02    5.57
  -2   4   3   99.80    6.61
  -2   4   3   96.58    5.31
  -2  -2   3   97.69    6.43
  -4   3  -3   69.13    5.39
  -4   3  -3   72.80    5.66
   1  -4  -3   78.97    5.66
   3   1  -3   74.11    4.45
  -4   3  -3   74.57    4.26
  -4   3  -3   78.08    5.19
   3   1  -3   75.11    6.20
  -3  -1   3   86.51    5.81
   4  -3   3   73.31    5.13
  -3  -1   3   84.96    5.74
   4  -3   3   73.96    5.50
  -1   4   3   70.07    4.65
  -3  -1   3   72.73    6.18
  -4   4  -3  150.66    8.32
   4   0  -3  156.15    9.72
   0  -4  -3  148.83    8.89
  -4   4  -3  149.51    6.40
  -4   4  -3  164.23    8.27
  -4   4  -3  146.67    8.87
   4  -4   3  152.77    7.77
  -4   0   3  147.69    9.67
  -4   0   3  170.65    8.36
   4  -4   3  149.75    7.22
   0   4   3  138.96    7.62
  -4   0   3  159.06    8.32
  -4   5  -3  161.79    9.59
  -4   5  -3  162.72    6.26
  -1  -4  -3  150.92    9.52
  -4   5  -3  148.99    8.12
  -4   5  -3  150.98    8.64
   5  -1  -3  161.12   10.64
   1   4   3  150.55    8.66
  -5   1   3  150.83    8.07
  -5   1   3  162.12    8.93
   4  -5   3  151.71    7.17
   4  -5   3  148.96    6.60
  -5   1   3  163.39   10.95
  -4   6  -3   22.68    4.73
  -4   6  -3   36.72    4.51
  -4   6  -3   42.35    5.16
  -2  -4  -3   35.55    6.03
   6  -2  -3   27.82    5.74
  -4   6  -3   34.80    2.30
  -6   2   3   33.94    5.22
  -6   2   3   31.06    5.00
  -6   2   3   37.82    4.92
   2   4   3   31.87    5.07
  -3  -4  -3  119.03    9.31
  -4   7  -3  117.10    7.21
  -4   7  -3  117.15    7.73
  -4   7  -3  108.62    8.53
  -4   7  -3  126.39    4.44
  -7   3   3  118.75    8.39
   3   4   3  140.56    9.09
  -7   3   3  118.17    8.36
  -7   3   3  114.32    8.60
  -4   8  -3    6.16    2.78
  -4   8  -3    7.86    3.26
  -4  -4  -3    5.69    3.94
  -4   8  -3    3.45    2.77
  -8   4   3    4.53    3.10
   4   4   3    5.50    3.24
  -8   4   3    7.38    3.47
  -8   4   3    9.53    3.51
  -4   9  -3   -0.24    2.38
  -5  -4  -3    1.16    3.20
  -4   9  -3   -1.39    2.13
  -9   5   3   -2.41    2.53
  -9   5   3   -1.92    2.38
  -9   5   3   -0.25    2.48
  -3   8  -3   22.85    1.62
  -3   8  -3   26.68    4.51
  -3   8  -3   25.25    4.41
  -5  -3  -3   22.35    5.31
  -8   5   3   17.45    3.97
  -8   5   3   25.24    5.42
  -8   5   3   24.99    5.05
  -5  -2  -3   65.61    7.90
  -2   7  -3   65.03    6.48
  -2   7  -3   60.76    2.98
  -2   7  -3   67.41    6.63
  -7   5   3   45.60    6.28
  -7   5   3   67.23    6.65
  -7   5   3   43.95    5.93
  -5  -1  -3   30.05    5.37
  -1   6  -3   29.06    2.61
  -1   6  -3   36.31    4.67
  -5  -1  -3   37.62    5.90
  -1   6  -3   38.75    5.00
  -6   5   3   47.97    5.49
  -6   5   3   45.75    5.86
  -6   5   3   33.07    4.22
   1  -6   3   33.75    5.21
   0   5  -3   97.64    6.39
   0   5  -3   97.47    6.47
  -5   0  -3   92.20    8.71
  -5   0  -3  108.14    6.51
   0   5  -3   93.90    4.70
  -5   0  -3   99.04    7.21
  -5   5   3  100.15    5.89
  -5   5   3   85.02    6.90
   0  -5   3   96.97    7.02
   5   0   3  104.79    9.02
  -5   5   3  100.55    6.51
   0  -5   3   89.71    7.41
  -5   1  -3  143.37    7.81
  -5   1  -3  156.87    9.63
   4  -5  -3  159.70    8.60
   1   4  -3  148.63    6.53
   1   4  -3  145.76    7.91
  -5   1  -3  142.66    8.45
   1   4  -3  143.84    7.84
   5  -1   3  157.45   10.39
  -4   5   3  147.95    7.55
  -1  -4   3  141.85    8.74
  -1  -4   3  147.51    9.16
  -4   5   3  158.96    8.59
   2   3  -3   13.29    2.26
  -5   2  -3   15.73    3.07
  -5   2  -3   12.63    2.76
   3  -5  -3   12.57    2.77
  -5   2  -3   18.73    3.05
  -5   2  -3   18.62    4.40
   5  -2   3   12.32    3.40
  -2  -3   3   22.41    4.31
  -3   5   3   15.25    2.80
  -3   5   3   15.92    2.47
  -2  -3   3   19.61    3.92
  -5   3  -3   24.62    4.51
  -5   3  -3   13.09    2.47
   3   2  -3   16.40    2.67
   2  -5  -3   15.42    2.80
  -5   3  -3   16.04    3.62
  -5   3  -3   22.94    3.64
  -2   5   3   15.69    2.54
   5  -3   3   19.33    3.65
  -3  -2   3   25.79    4.43
  -2   5   3   13.79    2.69
  -3  -2   3   15.08    3.39
  -5   4  -3  158.56    9.74
  -5   4  -3  153.32    7.35
   4   1  -3  154.35    7.73
  -5   4  -3  153.97    9.02
   1  -5  -3  170.57    9.11
  -5   4  -3  154.67    8.43
  -4  -1   3  162.53    9.06
   5  -4   3  158.23    8.92
  -1   5   3  162.99    7.99
  -4  -1   3  155.49    8.95
  -5   5  -3  109.95    7.29
  -5   5  -3  105.68    8.17
  -5   5  -3   98.40    5.33
  -5   5  -3   99.30    6.64
  -5   0   3  103.18    7.15
  -5   0   3   95.29    7.38
   0   5   3   96.54    6.81
  -5   0   3  100.35    6.10
  -5   6  -3   36.38    3.18
  -5   6  -3   40.11    6.09
  -5   6  -3   40.66    5.46
  -5   6  -3   37.38    4.76
  -1  -5  -3   28.74    5.62
  -6   1   3   31.14    4.44
  -6   1   3   42.65    5.05
   1   5   3   36.52    4.96
  -6   1   3   39.02    5.67
  -5   7  -3   64.31    7.73
  -5   7  -3   60.51    3.38
  -5   7  -3   60.98    6.14
  -2  -5  -3   62.61    8.09
  -5   7  -3   54.22    5.95
  -7   2   3   65.30    7.10
  -7   2   3   63.01    7.28
   2   5   3   84.25    8.02
  -5   8  -3   18.92    4.16
  -5   8  -3   18.64    4.85
  -5   8  -3   23.08    1.95
  -3  -5  -3   12.73    4.45
  -5   8  -3   27.64    4.38
  -8   3   3   18.79    4.39
  -8   3   3   15.55    4.18
   3   5   3   25.05    5.00
  -5   9  -3    4.19    3.53
  -5   9  -3   -0.48    2.16
  -4  -5  -3    0.98    3.13
  -5   9  -3    0.76    2.23
  -9   4   3    5.26    3.06
   4   5   3    1.80    3.07
  -9   4   3    0.50    2.71
  -5  -5  -3   19.10    5.84
 -10   5   3   30.63    6.09
 -10   5   3   18.40    5.36
  -6  -5  -3   24.07    6.71
 -11   6   3   29.64    6.79
 -11   6   3   40.02    7.07
  -6  -4  -3   46.69    8.32
  -4  10  -3   56.56    2.82
  -4  10  -3   57.76    6.99
   4 -10   3   69.59    8.54
 -10   6   3   53.86    8.25
 -10   6   3   52.33    6.89
 -10   6   3   50.43    7.25
  -6  -3  -3    3.17    3.36
  -3   9  -3   -1.06    1.98
  -3   9  -3    0.27    0.81
   3  -9   3   -0.52    2.58
  -9   6   3    1.91    3.11
  -9   6   3    1.59    2.14
  -9   6   3    1.61    3.08
  -2   8  -3   17.24    3.80
  -2   8  -3   12.76    1.73
  -2   8  -3   14.80    3.95
  -6  -2  -3   14.54    4.66
   2  -8   3   18.96    4.52
  -8   6   3    8.86    4.16
   2  -8   3   13.55    3.94
  -8   6   3   17.42    3.58
  -8   6   3   14.41    4.08
  -1   7  -3   70.27    7.00
  -1   7  -3   66.45    3.79
  -1   7  -3   74.89    6.98
  -6  -1  -3   69.88    7.75
   1  -7   3   69.17    7.93
   1  -7   3   57.77    6.69
  -7   6   3   75.73    7.25
  -7   6   3   62.14    7.88
  -7   6   3   68.15    5.40
   0   6  -3    1.43    1.24
  -6   0  -3   -2.51    1.93
  -6   0  -3    0.15    2.80
   0   6  -3    0.81    2.01
   0   6  -3    3.27    2.26
  -6   6   3    2.92    2.59
   0  -6   3    1.16    2.50
   0  -6   3   -2.14    2.47
  -6   6   3    2.43    2.07
  -6   1  -3   35.03    4.56
   1   5  -3   37.71    3.46
   1   5  -3   41.01    4.75
  -6   1  -3   46.12    6.81
  -6   1  -3   34.17    4.90
  -1  -5   3   23.40    4.69
  -5   6   3   26.71    4.51
   6  -1   3   29.82    5.61
  -5   6   3   28.42    3.89
  -1  -5   3   42.87    5.62
  -6   2  -3   29.09    4.67
  -6   2  -3   25.55    4.31
  -6   2  -3   38.65    4.77
   2   4  -3   36.48    3.76
  -6   2  -3   29.67    5.91
  -4   6   3   25.60    3.48
  -2  -4   3   28.83    4.96
  -2  -4   3   38.67    5.31
  -4   6   3   35.58    4.58
  -6   3  -3    8.97    3.73
  -6   3  -3   12.37    3.68
   3   3  -3    8.87    2.53
  -6   3  -3    8.40    2.81
  -6   3  -3    7.53    2.62
  -3   6   3    9.23    2.33
  -3  -3   3    6.55    3.16
  -3   6   3    2.87    1.87
  -3  -3   3    6.51    3.29
  -6   4  -3   34.71    5.44
   4   2  -3   35.47    4.46
  -6   4  -3   36.70    5.81
  -6   4  -3   33.68    4.16
  -6   4  -3   34.98    4.82
  -2   6   3   31.18    3.71
  -2   6   3   29.59    3.76
  -4  -2   3   32.32    5.24
  -4  -2   3   27.95    4.50
  -6   5  -3   32.02    5.08
   5   1  -3   48.51    5.21
  -6   5  -3   33.06    4.77
  -6   5  -3   42.30    4.32
  -6   5  -3   35.68    5.76
  -5  -1   3   32.84    5.09
  -5  -1   3   32.14    5.17
  -1   6   3   33.84    4.37
  -6   6  -3    0.19    1.85
  -6   6  -3    1.27    1.37
  -6   6  -3   -1.58    1.84
  -6   6  -3   -1.79    2.31
  -6   0   3    2.54    2.90
   0   6   3   -1.04    1.66
  -6   0   3    2.45    2.45
  -6   7  -3   61.21    4.06
  -6   7  -3   85.08    8.28
  -6   7  -3   71.40    6.64
  -6   7  -3   68.12    8.52
  -7   1   3   65.84    6.85
   1   6   3   81.67    7.49
  -7   1   3   48.16    6.58
  -6   8  -3   19.59    5.38
  -6   8  -3   16.23    2.18
  -6   8  -3   13.47    3.33
  -2  -6  -3   18.59    5.12
  -6   8  -3   14.65    4.03
  -8   2   3   13.33    4.43
   2   6   3   14.13    4.22
  -6   9  -3    1.30    1.15
  -6   9  -3    1.27    3.24
  -6   9  -3    0.12    2.25
  -6   9  -3    1.33    2.28
  -3  -6  -3   -0.25    3.29
  -9   3   3    1.67    2.83
  -9   3   3   -1.36    2.95
   3   6   3   -1.23    2.37
  -4  -6  -3   45.63    7.95
  -6  10  -3   48.22    5.96
   4   6   3   80.14    9.14
 -10   4   3   49.56    7.85
 -10   4   3   46.08    7.36
  -5  -6  -3   22.81    6.81
 -11   5   3   16.73    4.94
 -11   5   3   20.04    5.61
  -6  -6  -3   -3.64    3.87
 -12   6   3    2.32    3.78
 -12   6   3   -2.26    3.19
  -7  -6  -3   50.00    9.81
 -13   7   3   23.15    6.39
 -13   7   3   35.52    6.94
  -7  -5  -3    0.18    3.79
 -12   7   3   -1.89    2.80
 -12   7   3    8.13    4.82
  -7  -4  -3    0.97    3.80
  -4  11  -3    3.77    1.53
 -11   7   3    9.41    4.51
 -11   7   3    2.83    3.02
 -11   7   3    4.00    4.32
  -3  10  -3   54.16    3.71
  -7  -3  -3   54.88    8.31
 -10   7   3   49.63    8.64
   3 -10   3   55.60    8.17
 -10   7   3   63.30    7.59
 -10   7   3   72.65    8.97
  -7  -2  -3   13.86    4.76
  -2   9  -3   24.97    2.74
  -9   7   3   26.36    4.55
  -9   7   3   18.43    5.66
  -9   7   3   19.26    4.85
   2  -9   3   29.47    5.89
  -7  -1  -3   17.82    4.68
  -1   8  -3   19.09    2.53
   1  -8   3   19.42    5.02
  -8   7   3   13.18    4.40
  -8   7   3   23.32    4.55
  -7   0  -3  100.61    8.25
   0   7  -3  113.91    7.62
   0   7  -3  106.97    5.72
  -7   0  -3  113.00    9.15
  -7   7   3  105.22    9.19
   0  -7   3  100.92   10.46
   0  -7   3  107.93    8.59
  -7   7   3  119.10    8.04
   1   6  -3   71.84    4.72
  -7   1  -3   74.29    8.68
  -7   1  -3   58.64    6.47
  -1  -6   3   56.57    7.25
  -6   7   3   64.34    6.23
  -1  -6   3   63.61    7.10
  -6   7   3   61.70    7.70
  -7   2  -3   59.07    7.64
  -7   2  -3   59.56    6.55
  -7   2  -3   53.44    5.77
   2   5  -3   63.23    4.78
  -7   2  -3   66.62    7.08
  -5   7   3   62.94    7.02
  -2  -5   3   59.79    6.43
  -5   7   3   56.67    5.28
  -2  -5   3   51.98    6.87
  -7   3  -3  119.66    9.62
  -7   3  -3  113.82    8.80
  -7   3  -3  118.43    7.67
   3   4  -3  118.61    7.06
  -7   3  -3  124.75    7.80
  -4   7   3  134.34    8.24
  -3  -4   3  115.76    8.91
  -3  -4   3  106.46    7.69
  -4   7   3  116.88    6.55
  -7   4  -3  117.87    9.04
  -7   4  -3  116.05    7.81
   4   3  -3  127.81    7.55
  -7   4  -3  133.99    9.80
  -7   4  -3  109.83    7.24
  -4  -3   3  108.91    8.45
  -3   7   3  122.08    7.54
  -4  -3   3  115.20    8.04
  -3   7   3  129.12    7.11
  -7   5  -3   60.88    7.36
  -7   5  -3   54.51    7.02
   5   2  -3   58.50    6.27
  -7   5  -3   58.37    5.52
  -7   5  -3   57.95    6.35
  -2   7   3   65.11    5.10
  -5  -2   3   64.69    7.33
  -5  -2   3   63.10    6.91
  -7   6  -3   68.27    5.15
  -7   6  -3   64.13    6.79
  -7   6  -3   77.73    9.00
  -7   6  -3   71.70    7.83
  -6  -1   3   73.12    7.75
  -6  -1   3   64.08    7.44
  -1   7   3   69.32    5.62
  -7   7  -3  116.81    6.40
  -7   7  -3  117.87    8.83
  -7   7  -3  117.66   10.32
  -7   7  -3  127.16    8.26
   0   7   3  119.41    7.84
  -7   0   3  110.21    8.57
  -7   0   3  128.58    9.59
  -7   8  -3   20.47    4.02
  -7   8  -3   25.56    3.11
  -7   8  -3   16.76    5.00
  -7   8  -3   20.77    4.69
  -8   1   3   14.48    4.29
   1   7   3   24.83    4.64
  -7   9  -3   24.86    2.95
  -7   9  -3   17.75    5.98
  -7   9  -3   32.03    5.33
  -9   2   3   20.36    5.38
   2   7   3   29.72    5.30
  -7  10  -3   64.85    9.65
  -3  -7  -3   33.25    7.16
  -7  10  -3   62.53    7.61
  -7  10  -3   53.74    3.59
   3   7   3   65.55    7.92
 -10   3   3   51.02    7.87
  -4  -7  -3    2.44    4.35
 -11   4   3    0.16    3.70
   4   7   3    0.29    3.78
  -5  -7  -3    5.55    4.69
 -12   5   3    4.23    3.81
  -6  -7  -3   26.35    7.44
 -13   6   3   21.19    5.98
  -8  -5  -3   10.62    5.61
 -13   8   3   10.10    5.48
 -13   8   3   10.74    4.58
  -8  -4  -3   -3.58    3.14
  -4  12  -3    2.59    1.64
 -12   8   3    3.53    4.64
 -12   8   3    0.84    2.93
 -12   8   3    7.61    4.08
  -3  11  -3    8.59    2.53
  -8  -3  -3   10.36    5.01
 -11   8   3   13.24    5.87
 -11   8   3    9.23    3.82
 -11   8   3   14.16    4.88
  -2  10  -3    4.47    2.10
  -8  -2  -3   -2.40    2.99
   2 -10   3    3.06    4.46
 -10   8   3    0.01    3.38
 -10   8   3   15.81    4.79
  -8  -1  -3   13.05    4.65
  -1   9  -3   18.12    3.03
  -9   8   3   19.08    4.55
   1  -9   3   10.78    4.79
  -9   8   3   26.50    6.20
  -8   0  -3   26.72    5.49
   0   8  -3   25.17    3.42
  -8   0  -3   25.14    5.66
   0  -8   3   31.77    6.47
  -8   8   3   26.52    4.70
  -8   8   3   29.55    6.18
  -8   1  -3   12.78    3.60
  -8   1  -3   20.98    5.50
   1   7  -3   12.40    2.67
  -7   8   3   16.67    4.65
  -1  -7   3   21.16    5.37
  -1  -7   3   10.38    3.78
  -7   8   3   18.44    3.77
  -8   2  -3   14.94    4.77
  -8   2  -3   10.84    3.37
  -8   2  -3   12.72    3.54
   2   6  -3   15.29    3.07
  -8   2  -3   16.60    3.98
  -6   8   3   14.76    4.28
  -2  -6   3   12.44    3.62
  -6   8   3   11.33    3.04
  -2  -6   3   10.89    4.34
  -8   3  -3   25.77    4.49
  -8   3  -3   25.25    5.88
  -8   3  -3   14.32    3.46
   3   5  -3   17.55    3.49
  -8   3  -3   11.73    3.83
  -3  -5   3   22.82    4.32
  -5   8   3   21.48    4.43
  -3  -5   3   20.18    5.19
  -5   8   3   19.56    3.40
  -8   4  -3    5.50    3.03
  -8   4  -3   10.16    4.34
  -8   4  -3    7.07    2.72
  -8   4  -3    3.53    2.32
   4   4  -3    2.98    2.55
  -4   8   3    9.64    3.16
  -4  -4   3   12.61    3.70
  -4   8   3    8.32    2.37
  -4  -4   3   17.13    4.60
  -8   5  -3   20.81    4.01
   5   3  -3   16.70    3.92
  -8   5  -3    7.25    3.59
  -8   5  -3   15.79    3.60
  -8   5  -3   14.13    4.10
  -3   8   3   20.18    3.45
  -5  -3   3   23.95    4.51
  -5  -3   3   14.33    4.16
  -8   6  -3   10.31    4.38
  -8   6  -3    9.48    3.76
  -8   6  -3   15.70    3.20
  -8   6  -3   14.97    4.05
  -6  -2   3   14.67    4.20
  -2   8   3   14.47    3.17
  -6  -2   3   17.63    4.44
  -8   7  -3   23.20    3.51
  -8   7  -3   23.57    5.32
  -8   7  -3   19.23    4.28
  -8   7  -3   22.47    5.24
  -7  -1   3   13.56    4.03
  -1   8   3   21.01    3.81
  -7  -1   3   16.55    4.67
  -8   8  -3   33.72    5.35
  -8   8  -3   31.60    5.84
  -8   8  -3   42.44    7.50
  -8   8  -3   35.17    4.01
   0   8   3   33.32    5.05
  -8   0   3   27.58    5.85
  -8   0   3   31.59    5.93
  -8   9  -3   23.38    5.13
  -8   9  -3   13.17    4.79
  -8   9  -3   23.96    3.14
   1   8   3   36.02    5.39
  -9   1   3   20.95    6.02
  -8  10  -3    1.59    3.43
  -8  10  -3    4.04    1.82
  -8  10  -3    0.61    4.10
 -10   2   3    2.60    4.32
   2   8   3    3.10    3.30
  -8  11  -3    8.47    5.20
  -8  11  -3    9.07    2.09
 -11   3   3    4.99    4.29
   3   8   3    9.32    4.27
 -12   4   3    2.65    3.96
 -13   5   3    7.01    4.70
  -3  12  -3   -0.07    1.97
  -9  -3  -3    6.26    4.69
 -12   9   3    0.53    2.95
 -12   9   3   -0.65    3.75
  -9  -2  -3   32.05    7.28
  -2  11  -3   21.31    4.10
   2 -11   3   17.94    6.36
 -11   9   3   19.04    6.36
 -11   9   3   16.15    5.17
  -9  -1  -3   10.49    4.61
  -1  10  -3   16.97    3.61
   1 -10   3   23.80    6.32
 -10   9   3    7.34    3.66
 -10   9   3   13.54    5.34
   0   9  -3    2.79    2.27
  -9   0  -3    4.68    3.45
  -9   9   3    2.45    2.85
  -9   9   3    0.77    3.12
   0  -9   3    5.50    4.26
  -9   1  -3   29.18    5.96
  -9   1  -3   19.28    4.70
   1   8  -3   19.65    3.80
  -8   9   3   12.12    4.56
  -8   9   3   15.59    3.88
  -1  -8   3   18.52    5.87
   2   7  -3   26.17    4.21
  -9   2  -3   27.27    6.16
  -9   2  -3   26.14    5.02
  -7   9   3   26.30    5.62
  -2  -7   3   18.77    5.86
  -7   9   3   30.22    4.61
   3   6  -3    1.22    2.34
  -9   3  -3   -1.33    2.36
  -9   3  -3    0.25    2.92
  -9   3  -3   -1.55    1.55
  -9   3  -3   -0.89    2.61
  -6   9   3   -0.58    2.51
  -3  -6   3   -2.36    2.93
  -6   9   3    0.51    1.82
  -3  -6   3    6.07    3.30
  -9   4  -3    1.34    2.19
  -9   4  -3   -0.30    3.26
  -9   4  -3   -0.09    2.75
  -9   4  -3    0.87    2.12
   4   5  -3   -1.60    2.15
  -4  -5   3    1.55    2.73
  -5   9   3    1.40    2.48
  -5   9   3    0.49    1.68
  -4  -5   3    3.65    3.40
  -9   5  -3    2.35    2.26
  -9   5  -3    0.63    2.09
   5   4  -3   -0.38    2.37
  -9   5  -3    0.08    2.55
  -9   5  -3   -3.99    2.68
  -4   9   3   -0.52    1.48
  -5  -4   3   -1.39    2.69
  -5  -4   3    4.77    2.95
  -9   6  -3   -0.86    2.44
  -9   6  -3    1.84    2.04
  -9   6  -3    1.84    2.97
  -9   6  -3    1.02    1.96
  -6  -3   3   -0.09    2.65
  -3   9   3    2.09    1.99
  -6  -3   3    2.03    3.30
  -9   7  -3   25.42    5.92
  -9   7  -3   25.32    6.27
  -9   7  -3   22.76    3.76
  -9   7  -3   26.65    5.09
  -7  -2   3   24.62    5.70
  -2   9   3   23.51    3.79
  -7  -2   3   24.43    5.38
  -9   8  -3   22.51    5.60
  -9   8  -3   22.62    5.42
  -9   8  -3   21.98    3.60
  -8  -1   3   22.80    5.75
  -1   9   3   19.34    3.80
  -8  -1   3   14.90    5.17
  -9   9  -3    1.17    3.34
  -9   9  -3    2.14    2.04
  -9   9  -3    1.76    3.96
  -9   0   3   -0.35    3.30
  -9   0   3    2.70    4.57
   0   9   3    6.07    2.96
  -9  10  -3   21.61    3.38
  -9  10  -3   17.37    5.66
  -9  10  -3   18.79    5.24
   1   9   3   26.89    4.87
 -10   1   3   13.33    5.67
  -9  11  -3   23.30    5.88
  -9  11  -3   20.20    6.26
  -9  11  -3   26.31    3.57
   2   9   3   18.26    4.82
 -11   2   3   20.41    6.26
  -9  12  -3   -9.08    3.37
  -9  12  -3    1.12    1.59
 -12   3   3   -2.66    3.84
   3   9   3    1.02    3.39
  -2  12  -3   10.77    3.32
 -10  -2  -3    8.58    5.24
 -12  10   3   22.36    5.37
 -12  10   3   12.76    5.18
  -1  11  -3   -0.30    2.76
 -10  -1  -3    2.50    3.50
   1 -11   3    5.51    4.95
 -11  10   3   -2.50    2.67
 -11  10   3    1.49    3.87
 -10   0  -3   30.59    6.48
   0  10  -3   25.92    5.03
 -10  10   3   38.15    8.30
   0 -10   3   24.44    6.61
 -10  10   3   30.51    5.89
 -10   1  -3   26.10    6.52
 -10   1  -3   14.82    4.85
   1   9  -3   22.55    4.89
  -1  -9   3   12.31    5.79
  -9  10   3   19.52    4.36
  -9  10   3   24.79    6.60
 -10   2  -3    2.80    2.83
 -10   2  -3    9.33    4.74
   2   8  -3    5.82    3.46
  -8  10   3    6.23    3.48
  -8  10   3    2.22    2.36
  -2  -8   3    2.83    4.56
 -10   3  -3   45.71    7.39
 -10   3  -3   35.58    5.91
   3   7  -3   55.55    7.24
  -7  10   3   55.52    8.06
  -7  10   3   47.07    5.79
  -3  -7   3   42.79    8.10
   4   6  -3   66.49    8.14
 -10   4  -3   59.49    7.94
 -10   4  -3   46.94    6.02
 -10   4  -3   47.25    8.12
 -10   4  -3   53.83    6.92
  -6  10   3   50.46    5.61
  -4  -6   3   41.55    7.76
  -6  10   3   68.26    8.38
 -10   5  -3   17.72    5.38
   5   5  -3   23.10    5.49
 -10   5  -3   23.74    4.54
 -10   5  -3   27.81    5.98
 -10   5  -3   20.19    4.16
  -5  10   3   18.86    3.52
  -5  -5   3   18.49    4.83
  -5  -5   3   19.26    5.45
 -10   6  -3   39.98    7.09
   6   4  -3   76.02    9.62
 -10   6  -3   68.25    7.70
 -10   6  -3   65.19    8.82
 -10   6  -3   63.07    6.68
  -6  -4   3   42.91    6.87
  -4  10   3   53.91    5.73
  -6  -4   3   39.12    7.41
 -10   7  -3   52.08    8.27
 -10   7  -3   60.27    6.63
 -10   7  -3   41.58    7.47
  -7  -3   3   39.69    7.18
  -7  -3   3   37.42    6.75
  -3  10   3   51.38    5.72
 -10   8  -3    4.89    2.58
 -10   8  -3    3.27    3.57
 -10   8  -3    0.69    3.40
  -8  -2   3    3.78    3.71
  -8  -2   3   -2.02    3.33
  -2  10   3    3.14    2.34
 -10   9  -3   27.83    6.45
 -10   9  -3   34.93    7.28
 -10   9  -3   14.21    3.25
  -9  -1   3   10.30    4.97
  -1  10   3   32.89    4.88
  -9  -1   3   16.86    5.94
 -10  10  -3   22.58    6.36
 -10  10  -3   37.47    4.73
 -10  10  -3   27.21    7.10
   0  10   3   32.98    5.14
 -10   0   3   23.23    6.84
 -10  11  -3   -2.53    1.52
 -10  11  -3    1.59    4.24
 -10  11  -3    4.26    3.77
 -11   1   3    3.24    4.24
   1  10   3    1.37    2.67
 -10  12  -3   19.37    6.98
 -10  12  -3   16.22    3.17
 -12   2   3   11.94    5.45
   2  10   3   14.18    4.29
 -11   0  -3    0.84    3.53
   0  11  -3    4.82    3.72
 -11  11   3    1.55    4.10
   0 -11   3   -1.20    4.26
 -11  11   3    6.09    3.84
 -11   1  -3    7.70    3.83
   1  10  -3   -3.18    3.11
  -1 -10   3    1.62    4.51
 -10  11   3   -3.12    2.31
 -10  11   3    3.88    4.15
 -11   2  -3   10.66    3.96
 -11   2  -3   13.27    4.94
   2   9  -3   14.21    4.92
  -9  11   3   15.45    4.31
  -2  -9   3   20.72    6.78
  -9  11   3   18.26    5.95
 -11   3  -3    9.18    4.79
 -11   3  -3   10.82    3.74
   3   8  -3    8.33    4.29
  -8  11   3    1.82    2.64
  -3  -8   3    4.15    4.88
  -8  11   3   12.36    4.57
   4   7  -3   10.32    4.30
 -11   4  -3    5.38    3.04
 -11   4  -3    3.13    4.07
  -4  -7   3    8.66    5.00
  -7  11   3    3.92    3.20
  -7  11   3    3.27    2.76
 -11   5  -3   23.82    6.30
 -11   5  -3   25.76    6.11
   5   6  -3   31.39    6.64
 -11   5  -3   32.35    5.59
 -11   5  -3   30.13    5.57
  -5  -6   3   26.10    6.78
  -6  11   3   21.82    4.17
 -11   6  -3   52.56    8.23
 -11   6  -3   26.44    5.09
   6   5  -3   31.08    7.61
 -11   6  -3   23.29    6.45
 -11   6  -3   22.76    4.49
  -5  11   3   27.87    4.44
  -6  -5   3   22.95    6.33
 -11   7  -3    1.34    3.39
 -11   7  -3    4.68    3.73
 -11   7  -3    9.29    3.36
  -7  -4   3    0.38    3.34
  -7  -4   3   -3.05    3.46
  -4  11   3    4.37    2.45
 -11   8  -3   12.12    4.79
 -11   8  -3    6.14    4.17
 -11   8  -3    7.56    3.16
  -3  11   3   12.23    3.40
  -8  -3   3   12.31    5.05
  -8  -3   3    1.30    3.92
 -11   9  -3   12.65    5.05
 -11   9  -3   13.51    5.21
 -11   9  -3   25.14    4.66
  -9  -2   3   22.49    6.23
  -2  11   3   26.15    4.27
  -9  -2   3   23.37    6.90
 -11  10  -3   -0.83    3.81
 -11  10  -3    1.33    2.20
 -11  10  -3    4.40    4.16
 -10  -1   3   -1.82    3.53
  -1  11   3   -0.74    1.94
 -10  -1   3    1.44    4.27
 -11  11  -3   -3.43    3.45
 -11  11  -3   -0.72    3.53
 -11  11  -3   -1.18    1.96
   0  11   3    4.58    2.68
 -11   0   3   11.23    5.25
 -12   2  -3   17.08    6.02
   2  10  -3    6.58    4.61
 -12   2  -3   13.35    4.94
  -2 -10   3    0.61    4.47
 -10  12   3    9.45    4.61
 -10  12   3   14.03    4.08
   3   9  -3    5.75    4.34
 -12   3  -3   -0.85    2.49
 -12   3  -3    2.48    4.16
  -3  -9   3    0.03    4.44
  -9  12   3    0.93    2.77
  -9  12   3    5.74    3.51
   4   8  -3    0.10    4.07
 -12   4  -3    0.26    4.06
 -12   4  -3   -0.37    2.47
  -8  12   3    1.22    2.68
  -8  12   3    4.10    3.90
  -4  -8   3    1.98    4.63
 -12   5  -3    0.98    2.61
   5   7  -3    0.37    3.97
 -12   5  -3    2.46    4.00
  -5  -7   3    1.67    4.32
  -7  12   3    1.62    2.36
   6   6  -3   -0.66    4.55
 -12   6  -3   -0.44    3.74
 -12   6  -3   -1.98    3.46
 -12   6  -3    1.52    2.80
  -6  12   3   -0.37    2.20
  -6  -6   3   -0.70    3.49
 -12   7  -3    7.08    3.53
 -12   7  -3    3.37    4.52
 -12   7  -3    2.18    3.60
  -7  -5   3   -0.64    3.73
  -5  12   3    3.84    2.57
 -12   8  -3    6.94    4.42
 -12   8  -3    7.32    3.25
 -12   8  -3   -2.39    3.57
  -4  12   3    0.18    2.04
  -8  -4   3    1.58    4.15
 -12   9  -3   -0.30    3.51
 -12   9  -3    5.68    2.94
 -12   9  -3    1.42    4.00
  -3  12   3    5.49    2.82
  -9  -3   3   -4.75    3.45
  -9  -3   3   -2.55    4.03
 -12  10  -3   13.78    3.70
 -12  10  -3    7.46    4.47
 -12  10  -3    7.37    5.18
 -10  -2   3    3.94    4.09
 -10  -2   3    9.83    5.51
  -2  12   3   19.69    4.00
   5   8  -3   12.39    5.68
 -13   5  -3    2.18    4.84
  -8  13   3   13.70    4.37
  -5  -8   3    7.84    5.74
   6   7  -3   18.43    6.42
 -13   6  -3   18.48    6.06
  -7  13   3   26.55    5.29
  -6  -7   3   20.70    7.02
 -13   7  -3   16.29    5.87
 -13   7  -3   23.99    6.42
 -13   7  -3   23.50    5.25
  -6  13   3   22.57    4.59
  -7  -6   3   11.97    6.04
 -13   8  -3    5.42    4.32
 -13   8  -3    5.07    4.60
 -13   8  -3   10.70    4.01
  -5  13   3   14.33    3.90
  -8  -5   3    4.31    4.52
   0   0  -4  704.09   26.63
   0   0   4  694.20   26.92
   0   0   4  672.34   26.96
   0   1  -4    0.61    1.28
   0   1  -4    0.50    1.09
   1  -1  -4    2.77    1.93
  -1   0  -4    1.76    1.54
   0   1  -4   -2.11    1.62
   1   0   4    1.74    1.69
  -1   1   4   -0.38    1.64
   1   0   4    0.92    1.75
   0  -1   4   -0.69    1.41
  -1   1  -4    0.16    1.18
  -1   1  -4    1.10    1.12
   0  -1  -4   -0.59    1.56
   1   0  -4    2.35    1.65
   1  -1   4    0.69    1.33
   0   1   4    2.02    1.70
   1  -1   4   -0.64    1.31
   0   1   4   -0.09    1.57
  -1   0   4   -1.11    1.55
  -1   2  -4    8.76    2.11
  -1   2  -4    6.09    2.06
   2  -1  -4   11.13    2.82
  -1  -1  -4    4.08    2.07
  -1   2  -4    4.49    1.37
  -1   2  -4    8.65    2.20
  -2   1   4    5.40    1.94
   1  -2   4    2.91    1.68
   1  -2   4    2.34    1.47
   1   1   4    1.72    1.80
   1   1   4    3.21    2.27
  -2   1   4    4.31    2.36
  -2  -1  -4   -0.08    1.66
  -1   3  -4   -1.17    0.84
  -1   3  -4   -0.93    1.57
  -1   3  -4    1.26    1.74
  -2  -1  -4    0.87    2.11
  -2  -1  -4   -3.76    2.10
   3  -2  -4   -0.12    2.00
  -3   2   4   -0.25    1.38
  -3   2   4    4.74    2.34
   2   1   4    3.05    2.62
   2   1   4    2.74    2.23
   1  -3   4   -0.06    1.15
  -3   2   4   -1.01    1.58
   1  -3   4    0.17    1.24
   0   2  -4    1.97    1.75
   0   2  -4    1.19    1.73
   0   2  -4    1.46    1.44
  -2   0  -4   -0.31    1.65
  -2   0  -4    0.74    1.67
   2  -2  -4    1.50    1.84
  -2   0  -4    2.49    1.73
   0   2  -4    0.59    1.02
   0  -2   4    0.42    2.19
  -2   2   4    0.23    1.19
   2   0   4   -0.58    1.50
   2   0   4    1.51    1.94
  -2   2   4   -2.47    1.40
   0  -2   4   -0.66    1.18
   1   1  -4    4.11    2.03
   1   1  -4    6.73    2.30
  -2   1  -4    4.68    1.84
   1  -2  -4    4.01    2.20
  -2   1  -4    5.35    1.71
  -2   1  -4    5.24    2.04
   1   1  -4    4.37    1.49
  -1   2   4   13.97    3.31
  -1  -1   4   10.08    2.89
   2  -1   4    7.12    2.22
   2  -1   4    5.25    2.04
  -1  -1   4    9.94    2.58
  -1   2   4    7.21    2.02
  -1   2   4    1.86    1.91
  -2   2  -4    3.15    1.42
   0  -2  -4    0.31    1.72
  -2   2  -4    0.23    1.18
  -2   2  -4   -0.51    1.69
  -2   2  -4    2.84    1.54
   2   0  -4   -1.75    1.36
  -2   0   4    3.77    2.06
  -2   0   4    3.49    2.25
   2  -2   4    0.19    1.31
   0   2   4    1.47    2.05
   2  -2   4    2.01    1.56
  -2   0   4    0.62    1.58
   0   2   4   -2.23    1.46
  -2   3  -4   -0.07    1.54
  -1  -2  -4   -0.09    2.00
  -2   3  -4    0.45    1.08
  -2   3  -4    0.13    1.62
   3  -1  -4   -1.20    1.74
  -1  -2  -4    1.38    2.20
  -3   1   4    2.05    1.58
   2  -3   4   -0.22    1.26
   2  -3   4    0.04    1.20
  -3   1   4    0.67    2.06
   1   2   4    1.38    2.18
  -3   1   4   -3.07    1.72
   1   2   4    1.87    2.13
   4  -2  -4   16.00    3.98
  -2   4  -4    8.66    2.75
  -2   4  -4   20.68    2.23
  -2   4  -4   10.72    2.66
  -2  -2  -4   12.62    3.09
  -4   2   4   16.91    3.13
  -4   2   4   15.10    2.87
   2  -4   4   23.06    3.23
   2   2   4   14.32    3.77
   2   2   4   18.76    4.03
  -4   2   4   15.09    3.99
  -2   5  -4    9.62    2.77
   5  -3  -4    7.66    3.26
  -2   5  -4   12.92    3.18
  -3  -2  -4    6.50    3.09
  -2   5  -4    6.58    1.45
  -5   3   4    7.50    2.55
  -5   3   4    2.98    2.51
  -5   3   4    4.97    2.62
  -1   4  -4   42.95    3.07
  -1   4  -4   44.36    5.02
  -1   4  -4   42.04    4.71
  -3  -1  -4   54.16    6.93
  -3  -1  -4   43.85    5.27
   4  -3  -4   55.63    6.43
   3   1   4   48.27    6.46
  -4   3   4   43.49    4.71
  -4   3   4   51.75    4.70
  -4   3   4   59.91    5.82
  -3   0  -4  146.20    7.22
  -3   0  -4  140.13    7.85
   3  -3  -4  153.03    9.04
   0   3  -4  138.71    6.11
   0   3  -4  140.77    7.82
   0   3  -4  137.39    7.66
  -3   3   4  146.51    7.66
   3   0   4  131.64    8.95
   0  -3   4  143.49    8.53
  -3   3   4  136.82    7.37
  -3   1  -4    0.56    1.38
   1   2  -4   -1.06    1.63
  -3   1  -4    2.79    2.19
   1   2  -4    1.72    1.27
   2  -3  -4   -0.06    1.80
   1   2  -4   -1.62    1.47
  -3   1  -4   -0.11    1.74
  -2   3   4    0.69    1.36
  -2   3   4    0.35    1.70
  -2   3   4   -0.64    1.17
  -1  -2   4    0.12    2.34
   3  -1   4    2.52    2.09
   2   1  -4   -0.07    1.28
   1  -3  -4    2.45    2.09
  -3   2  -4   -0.96    1.59
   2   1  -4    0.70    1.45
  -3   2  -4   -0.33    1.65
  -3   2  -4    1.98    1.36
  -1   3   4   -0.06    1.35
  -1   3   4    2.37    2.18
  -2  -1   4    2.55    1.74
  -1   3   4    1.15    1.43
  -2  -1   4   -1.44    2.41
   3  -2   4    0.71    1.64
   0  -3  -4  141.24    8.85
   3   0  -4  134.32    9.01
  -3   3  -4  141.25    7.88
  -3   3  -4  134.65    6.45
   3   0  -4  145.98    6.72
  -3   3  -4  145.70    8.02
  -3   0   4  144.11    7.27
  -3   0   4  147.72    8.17
   0   3   4  145.73    7.09
   3  -3   4  140.30    8.23
   0   3   4  133.93    7.22
  -3   4  -4   42.54    4.80
  -1  -3  -4   44.25    4.90
  -1  -3  -4   39.16    5.36
  -3   4  -4   43.96    5.05
   4  -1  -4   37.90    5.24
  -3   4  -4   48.61    3.36
  -4   1   4   42.16    4.42
   1   3   4   47.21    4.87
   1   3   4   45.70    3.72
   3  -4   4   45.95    4.73
  -4   1   4   48.71    5.43
  -2  -3  -4    7.51    3.50
  -3   5  -4    7.14    2.52
  -3   5  -4    7.17    3.08
   5  -2  -4    6.84    3.26
  -3   5  -4    7.51    1.60
  -5   2   4    8.04    2.95
  -5   2   4    8.18    2.60
   2   3   4   13.83    3.33
  -3   6  -4   66.87    3.54
  -3  -3  -4   65.00    7.45
  -3   6  -4   69.78    6.67
  -3   6  -4   72.40    5.57
   6  -3  -4   63.30    7.65
  -6   3   4   68.16    7.17
  -6   3   4   55.41    5.94
  -6   3   4   80.03    6.25
  -3   7  -4    3.03    2.12
  -3   7  -4    4.79    1.17
  -4  -3  -4    4.98    3.22
  -3   7  -4    3.62    2.40
  -7   4   4    6.15    2.89
  -7   4   4    1.53    2.34
  -7   4   4    3.31    2.59
  -4  -2  -4   24.16    4.93
  -2   6  -4   24.52    4.30
  -2   6  -4   25.91    2.38
  -2   6  -4   24.96    4.09
  -6   4   4   21.03    3.90
  -6   4   4   21.05    4.11
  -6   4   4   14.23    3.25
   5  -4  -4   15.79    4.08
  -1   5  -4   21.14    3.95
  -1   5  -4   19.41    2.29
  -4  -1  -4   13.75    3.69
  -1   5  -4   16.32    3.60
   1  -5   4   12.71    3.74
  -5   4   4   18.74    3.21
  -5   4   4   16.89    3.64
  -5   4   4   17.93    3.69
  -4   0  -4    8.21    2.58
   0   4  -4    9.20    1.80
   4  -4  -4   13.04    3.66
   0   4  -4    6.94    2.68
  -4   0  -4   11.72    3.23
   0   4  -4    7.11    2.61
  -4   0  -4    5.96    2.63
   4   0   4   10.60    3.30
  -4   4   4    5.27    2.31
  -4   4   4    9.56    2.25
   0  -4   4    8.81    3.21
  -4   4   4    8.92    2.50
  -4   1  -4   52.26    5.70
  -4   1  -4   43.03    4.26
   1   3  -4   37.74    4.37
   3  -4  -4   55.82    5.91
   1   3  -4   53.07    5.47
  -4   1  -4   54.49    5.82
   1   3  -4   47.84    3.59
   4  -1   4   54.58    6.59
  -1  -3   4   42.79    5.40
  -3   4   4   47.04    4.74
  -3   4   4   42.75    4.59
   2   2  -4   18.83    3.00
  -4   2  -4   18.48    3.62
   2   2  -4   19.74    2.68
  -4   2  -4   18.45    2.86
   2  -4  -4   22.55    4.08
  -4   2  -4   15.17    3.23
  -2   4   4   10.93    2.31
  -2  -2   4   15.06    3.39
   4  -2   4   20.11    4.07
  -2  -2   4   16.19    3.75
  -2   4   4   14.85    2.78
   1  -4  -4   41.18    5.01
  -4   3  -4   43.10    5.07
  -4   3  -4   48.38    5.52
   3   1  -4   43.56    4.05
  -4   3  -4   45.54    4.02
  -1   4   4   41.07    4.25
  -3  -1   4   48.90    3.97
   4  -3   4   43.88    5.43
  -1   4   4   44.11    3.75
  -3  -1   4   51.40    5.77
  -3  -1   4   59.06    5.87
  -4   4  -4   10.37    3.13
  -4   4  -4   10.40    3.14
  -4   4  -4    6.34    1.82
   4   0  -4   10.31    2.35
   0  -4  -4    6.31    2.94
   0   4   4    9.41    2.63
  -4   0   4    8.07    3.39
   0   4   4    6.66    1.88
  -4   0   4    8.43    2.38
  -4   0   4    9.72    3.05
  -4   5  -4   15.84    2.28
  -4   5  -4   17.42    3.41
  -1  -4  -4   24.52    4.63
  -4   5  -4   19.59    3.90
  -5   1   4   15.78    4.08
   1   4   4   16.05    2.43
   1   4   4   14.08    3.35
  -5   1   4   18.35    3.22
  -4   6  -4   23.01    3.89
  -4   6  -4   17.04    3.85
  -2  -4  -4   16.60    4.26
  -4   6  -4   26.74    2.63
  -6   2   4   25.26    4.23
   2   4   4   24.53    4.75
  -6   2   4   24.93    4.05
  -3  -4  -4    6.39    3.60
  -4   7  -4    0.89    1.00
  -4   7  -4    0.48    2.16
  -4   7  -4    0.91    1.76
  -7   3   4    5.28    2.68
   3   4   4    0.29    2.66
  -7   3   4    2.91    2.66
  -4   8  -4   -0.10    1.98
  -4  -4  -4    4.32    3.66
  -4   8  -4    1.03    2.19
  -4   8  -4    4.22    1.02
  -8   4   4    3.35    2.86
  -8   4   4    8.54    3.23
  -4   9  -4   13.05    1.54
  -5  -4  -4   14.14    4.74
  -4   9  -4   10.02    3.69
  -4   9  -4   18.72    4.20
  -9   5   4   17.96    5.32
  -9   5   4   19.72    4.58
  -3   8  -4   13.10    3.59
  -3   8  -4   20.52    4.02
  -3   8  -4   13.06    1.69
  -5  -3  -4   15.72    4.58
  -8   5   4   14.07    4.25
  -8   5   4    7.71    3.53
  -8   5   4   14.31    4.19
  -2   7  -4    8.40    3.21
  -5  -2  -4   12.75    4.08
  -2   7  -4   14.98    3.62
  -2   7  -4    6.34    1.49
  -7   5   4   10.05    3.29
  -7   5   4    8.07    3.07
  -7   5   4   14.87    4.02
   2  -7   4    2.93    2.87
  -5  -1  -4   31.88    5.47
  -1   6  -4   33.81    2.99
  -1   6  -4   31.70    4.81
  -1   6  -4   33.84    4.93
  -6   5   4   33.41    4.95
  -6   5   4   28.36    4.10
  -6   5   4   26.52    4.70
   1  -6   4   24.98    4.84
   0   5  -4   11.07    3.14
  -5   0  -4   15.07    4.03
  -5   0  -4   15.59    3.66
   0   5  -4   15.41    3.50
   0   5  -4   13.59    2.20
   5   0   4    9.05    3.54
   0  -5   4   23.52    4.60
  -5   5   4    8.00    2.78
  -5   5   4   18.75    3.70
   1   4  -4   13.03    3.27
  -5   1  -4   20.60    4.48
   1   4  -4   14.53    3.33
  -5   1  -4   25.66    3.90
   1   4  -4   14.67    2.48
  -5   1  -4    8.23    3.20
   5  -1   4   13.90    3.94
  -1  -4   4   12.50    3.72
  -4   5   4   22.85    3.79
  -4   5   4   12.02    2.88
  -1  -4   4   15.78    4.18
   2   3  -4   10.85    2.35
  -5   2  -4   10.75    2.56
  -5   2  -4    5.97    2.90
   2   3  -4   14.19    3.20
  -5   2  -4    1.73    2.74
  -2  -3   4   -0.69    2.19
  -2  -3   4   11.03    3.83
  -3   5   4    6.11    2.30
  -3   5   4   13.29    2.94
   5  -2   4    8.03    3.42
  -5   3  -4    5.52    2.14
   3   2  -4   11.93    2.47
  -5   3  -4    7.38    3.31
  -5   3  -4   -0.50    2.14
  -2   5   4    7.83    2.46
  -3  -2   4    3.58    2.76
  -3  -2   4    8.33    3.53
  -2   5   4    8.53    2.10
  -5   4  -4   21.18    4.07
  -5   4  -4   18.87    3.76
  -5   4  -4   17.34    4.23
  -5   4  -4   16.34    2.78
   4   1  -4   13.00    2.64
  -1   5   4   17.26    3.53
  -4  -1   4   24.92    4.79
  -4  -1   4   16.20    3.94
  -1   5   4   14.70    2.61
  -5   5  -4   11.92    3.05
  -5   5  -4   14.48    2.58
  -5   5  -4   15.04    4.04
  -5   5  -4   20.25    4.20
  -5   0   4   13.43    2.73
   0   5   4   14.38    3.26
  -5   0   4   12.82    3.79
  -5   0   4    8.58    3.15
  -5   6  -4   26.05    5.05
  -5   6  -4   23.44    4.05
  -5   6  -4   36.96    5.46
  -5   6  -4   27.77    3.11
  -6   1   4   30.15    5.08
   1   5   4   32.49    4.95
  -6   1   4   29.07    4.09
  -5   7  -4   12.32    3.43
  -2  -5  -4    9.55    3.92
  -5   7  -4    7.17    1.70
  -5   7  -4    9.35    2.94
  -5   7  -4    6.83    3.57
   2   5   4   11.87    3.84
  -7   2   4    4.06    3.12
  -7   2   4   13.61    3.51
  -5   8  -4   16.95    2.10
  -5   8  -4   10.09    3.58
  -5   8  -4    8.79    4.01
  -3  -5  -4   13.93    4.71
  -5   8  -4   13.89    3.45
  -8   3   4    8.07    3.54
   3   5   4   24.94    5.79
  -8   3   4    6.35    3.46
  -4  -5  -4    4.83    3.80
  -5   9  -4   13.37    1.66
  -5   9  -4   13.48    4.00
  -5   9  -4   10.74    3.45
  -9   4   4    8.56    4.11
  -9   4   4    4.67    3.31
  -5  10  -4   18.81    4.58
  -5  10  -4   23.92    1.97
  -5  10  -4   27.39    5.22
  -5  -5  -4   19.21    5.78
 -10   5   4   44.43    7.29
 -10   5   4   21.32    5.65
  -6  -5  -4    3.72    4.05
 -11   6   4    4.26    3.23
 -11   6   4    6.70    4.02
  -6  -4  -4    6.26    4.14
  -4  10  -4    1.53    2.78
  -4  10  -4    1.91    1.12
 -10   6   4    7.02    3.54
 -10   6   4    9.13    4.71
  -3   9  -4   12.15    3.97
  -6  -3  -4   24.71    5.49
  -3   9  -4    9.48    3.23
  -3   9  -4   13.86    1.80
  -9   6   4    9.83    4.43
  -9   6   4   12.07    4.40
   3  -9   4   15.14    4.63
  -9   6   4   13.81    3.76
  -6  -2  -4    5.44    3.57
  -2   8  -4    4.19    2.97
  -2   8  -4    1.83    2.57
  -2   8  -4    5.56    1.48
  -8   6   4    5.02    2.65
  -8   6   4    2.81    3.08
  -8   6   4    0.04    2.86
   2  -8   4    4.41    3.46
  -1   7  -4   42.53    5.63
  -6  -1  -4   31.91    5.46
  -1   7  -4   31.90    3.12
  -1   7  -4   47.03    6.01
   1  -7   4   25.66    5.18
  -7   6   4   31.21    5.33
  -7   6   4   28.55    5.26
   1  -7   4   37.21    6.45
  -6   0  -4  109.65    8.27
   0   6  -4   97.11    7.09
   0   6  -4  100.10    7.33
  -6   0  -4  101.07    9.92
   0   6  -4  103.17    5.46
  -6   6   4  109.92    8.28
  -6   6   4  101.68    7.62
   0  -6   4   98.60    8.09
   0  -6   4   95.19    9.67
   1   5  -4   41.71    4.04
   1   5  -4   35.71    5.03
   1   5  -4   30.15    4.54
  -6   1  -4   37.37    5.67
  -6   1  -4   34.24    6.04
  -6   1  -4   33.82    4.68
  -5   6   4   32.43    5.04
  -5   6   4   37.68    5.09
  -1  -5   4   34.51    5.74
  -1  -5   4   26.19    5.36
  -6   2  -4   21.28    4.91
   2   4  -4   22.12    3.06
  -6   2  -4   19.11    3.39
  -6   2  -4   23.20    4.19
  -4   6   4   24.72    3.84
  -2  -4   4   17.82    4.20
  -2  -4   4   20.41    4.36
  -4   6   4   17.64    3.35
  -6   3  -4   71.81    8.15
  -6   3  -4   60.18    6.86
   3   3  -4   73.76    5.08
  -6   3  -4   59.52    5.76
  -3  -3   4   65.15    7.35
  -3   6   4   71.53    5.32
  -3   6   4   73.52    5.33
  -3  -3   4   53.51    6.48
  -6   4  -4   15.89    4.42
  -6   4  -4   23.91    4.50
  -6   4  -4   31.57    4.93
   4   2  -4   18.44    3.36
  -6   4  -4   24.21    3.65
  -2   6   4   23.75    3.28
  -4  -2   4   22.93    4.50
  -2   6   4   20.70    3.59
  -4  -2   4   24.39    4.48
  -6   5  -4   37.55    4.19
  -6   5  -4   38.36    5.63
  -6   5  -4   24.15    4.91
   5   1  -4   27.28    3.88
  -6   5  -4   28.75    5.39
  -5  -1   4   39.98    5.47
  -1   6   4   33.12    4.51
  -5  -1   4   37.22    5.63
  -6   6  -4   99.03   10.16
  -6   6  -4  103.94    8.27
  -6   6  -4  108.07    6.35
  -6   6  -4  118.07    7.99
  -6   0   4  106.13    8.33
   0   6   4  103.74    7.41
  -6   0   4  113.04    8.15
  -6   7  -4   35.97    4.01
  -6   7  -4   47.69    6.43
  -6   7  -4   32.20    6.24
  -6   7  -4   37.05    5.12
  -7   1   4   22.73    4.87
   1   6   4   46.50    6.30
  -6   8  -4    0.96    3.42
  -6   8  -4    4.34    2.39
  -6   8  -4    2.63    2.66
  -6   8  -4    8.86    2.09
  -8   2   4    6.70    3.67
   2   6   4   12.25    3.86
  -6   9  -4   11.55    4.63
  -6   9  -4   19.14    3.89
  -3  -6  -4   12.19    4.93
  -6   9  -4   15.31    2.18
  -6   9  -4   22.12    5.09
  -9   3   4   10.68    4.12
   3   6   4   19.73    5.25
  -4  -6  -4    7.73    4.57
  -6  10  -4    7.84    3.43
  -6  10  -4    6.92    3.59
  -6  10  -4    3.13    1.14
 -10   4   4    5.80    3.91
 -10   4   4    4.96    4.47
  -5  -6  -4   -1.81    3.57
 -11   5   4    3.56    4.32
 -11   5   4    2.51    3.53
  -6  -6  -4   13.10    5.32
 -12   6   4    6.30    4.72
 -12   6   4    1.99    3.39
  -7  -5  -4    3.71    3.99
 -12   7   4   12.76    5.82
 -12   7   4    9.24    4.18
  -4  11  -4   10.03    2.01
  -7  -4  -4    4.85    3.95
  -4  11  -4    7.62    3.88
 -11   7   4    7.85    3.99
   4 -11   4   12.86    5.18
 -11   7   4   10.57    5.01
  -7  -3  -4    8.52    4.54
  -3  10  -4    4.42    1.56
  -3  10  -4    5.03    3.15
 -10   7   4    4.35    4.17
   3 -10   4    1.09    3.45
 -10   7   4    3.01    4.33
 -10   7   4    8.68    3.56
  -7  -2  -4    7.22    3.64
  -2   9  -4   14.65    2.32
  -2   9  -4   11.90    4.04
  -2   9  -4    7.86    3.65
  -9   7   4   14.00    4.62
   2  -9   4    6.64    3.88
  -9   7   4   15.02    5.00
   2  -9   4   11.91    4.52
  -1   8  -4    8.99    3.34
  -1   8  -4    4.19    3.09
  -1   8  -4    2.42    1.50
  -7  -1  -4    4.10    3.45
   1  -8   4    2.53    3.40
  -8   7   4    4.89    3.03
  -8   7   4    0.44    2.79
   1  -8   4    0.13    2.86
   0   7  -4    1.84    1.52
   0   7  -4   -0.36    2.62
   0   7  -4    3.82    2.86
  -7   0  -4   -0.04    2.54
   0  -7   4    4.28    3.41
  -7   7   4    0.87    2.68
   0  -7   4    2.98    3.33
  -7   7   4    2.08    2.91
   1   6  -4   35.82    3.90
  -7   1  -4   34.83    5.66
  -7   1  -4   25.60    6.20
   1   6  -4   40.81    5.40
  -1  -6   4   30.71    5.80
  -6   7   4   37.96    5.33
  -6   7   4   43.30    6.29
  -1  -6   4   22.50    5.22
  -7   2  -4    8.44    3.96
  -7   2  -4    5.69    2.76
  -7   2  -4   13.71    3.47
   2   5  -4    7.92    2.32
  -5   7   4    8.22    2.68
  -2  -5   4    3.57    3.01
  -5   7   4    9.47    2.82
  -2  -5   4    7.81    3.79
  -7   3  -4   -1.96    2.93
  -7   3  -4    3.74    2.50
   3   4  -4    3.67    2.18
  -7   3  -4    4.31    2.37
  -4   7   4    1.83    2.05
  -4   7   4   -1.46    1.56
  -3  -4   4    6.15    3.32
  -3  -4   4    2.36    2.87
   4   3  -4    0.40    1.96
  -7   4  -4    2.74    2.36
  -7   4  -4   -0.18    1.88
  -7   4  -4    3.18    3.32
  -7   4  -4    1.45    2.77
  -4  -3   4    1.57    2.67
  -3   7   4    4.72    2.22
  -4  -3   4    1.69    3.03
  -3   7   4    0.04    1.36
  -7   5  -4   11.37    3.49
   5   2  -4   15.99    3.53
  -7   5  -4    6.42    3.52
  -7   5  -4    0.16    2.85
  -7   5  -4    7.69    2.75
  -5  -2   4    6.66    3.49
  -5  -2   4    4.94    3.01
  -2   7   4    7.57    2.81
  -7   6  -4   23.95    5.66
  -7   6  -4   28.43    5.25
  -7   6  -4   33.53    5.43
  -7   6  -4   36.35    4.63
  -1   7   4   31.40    4.61
  -6  -1   4   32.45    5.54
  -6  -1   4   31.73    5.58
  -7   7  -4   -0.34    2.62
  -7   7  -4    2.53    2.13
  -7   7  -4    2.78    3.62
  -7   7  -4    1.42    1.99
  -7   0   4    2.25    3.23
  -7   0   4    0.80    2.59
   0   7   4   -1.38    1.97
  -7   8  -4    6.22    3.30
  -7   8  -4    1.60    2.20
  -7   8  -4    5.44    2.17
  -7   8  -4    2.77    3.54
   1   7   4    6.49    3.14
  -8   1   4    2.77    3.68
  -7   9  -4   28.09    5.68
  -7   9  -4    9.28    5.30
  -7   9  -4   11.68    2.67
  -7   9  -4    9.22    3.29
  -9   2   4   12.55    4.78
   2   7   4   11.57    4.24
  -7  10  -4    4.74    1.62
  -7  10  -4    4.85    4.41
  -7  10  -4    6.49    3.87
   3   7   4    0.25    3.63
 -10   3   4    6.47    4.63
  -7  11  -4    6.64    3.68
  -7  11  -4    9.39    1.57
 -11   4   4   13.74    5.28
 -12   5   4   11.27    4.96
  -8  -4  -4    7.11    4.88
 -12   8   4   10.27    5.89
  -8  -3  -4    0.09    3.31
  -3  11  -4    4.80    2.09
 -11   8   4   -1.34    3.43
   3 -11   4    4.40    4.33
 -11   8   4    2.97    3.95
  -8  -2  -4   18.06    5.52
  -2  10  -4    6.37    2.21
   2 -10   4    4.20    4.46
 -10   8   4   11.53    5.31
 -10   8   4    0.82    3.95
  -8  -1  -4    2.93    3.42
  -1   9  -4    2.73    1.72
  -9   8   4    2.63    3.17
  -9   8   4   -2.75    3.32
   1  -9   4    8.95    4.46
  -8   0  -4   -0.16    2.47
   0   8  -4    5.55    3.61
   0   8  -4    3.91    1.91
   0  -8   4    3.78    3.74
   0  -8   4    3.17    3.81
  -8   8   4    7.46    3.90
  -8   8   4    5.18    3.45
  -8   1  -4    6.82    3.28
  -8   1  -4    3.72    4.08
   1   7  -4    3.74    1.92
  -7   8   4    5.52    3.42
  -1  -7   4    3.82    3.53
  -7   8   4    4.56    2.93
  -1  -7   4   13.22    4.70
   2   6  -4    5.49    2.35
  -8   2  -4    6.43    4.12
  -8   2  -4    6.89    3.33
  -8   2  -4    8.67    3.47
  -6   8   4    5.94    3.30
  -2  -6   4    4.21    3.32
  -6   8   4    8.07    3.05
  -2  -6   4    8.06    4.28
  -8   3  -4    9.67    4.73
   3   5  -4   13.83    3.16
  -8   3  -4   14.86    4.15
  -8   3  -4   16.37    4.14
  -5   8   4   17.01    3.59
  -3  -5   4   15.49    4.28
  -3  -5   4    0.76    3.12
  -5   8   4   16.98    4.05
  -8   4  -4    1.42    2.36
  -8   4  -4    7.03    4.18
  -8   4  -4    0.51    2.15
   4   4  -4    0.79    2.24
  -8   4  -4    6.25    3.50
  -4   8   4    2.89    2.01
  -4   8   4    1.88    2.13
  -4  -4   4   -1.50    2.54
  -4  -4   4    2.71    2.98
   5   3  -4   11.79    3.51
  -8   5  -4   16.73    3.66
  -8   5  -4   12.95    3.63
  -8   5  -4   10.99    4.28
  -8   5  -4    9.08    4.09
  -5  -3   4    1.14    2.88
  -5  -3   4   12.49    4.25
  -3   8   4   13.27    3.11
  -8   6  -4    3.74    3.28
  -8   6  -4    7.27    2.76
  -8   6  -4    4.57    2.73
  -8   6  -4    7.12    3.77
  -6  -2   4    1.99    2.79
  -2   8   4    3.96    2.49
  -6  -2   4    3.97    3.39
  -8   7  -4    4.73    3.52
  -8   7  -4    9.98    4.73
  -8   7  -4    3.11    2.36
  -8   7  -4    3.41    2.91
  -7  -1   4   -0.38    2.58
  -7  -1   4    3.13    3.28
  -1   8   4    1.54    2.27
  -8   8  -4   10.67    4.46
  -8   8  -4    7.10    3.21
  -8   8  -4    0.83    2.23
  -8   8  -4    6.51    4.43
   0   8   4   -0.98    2.16
  -8   0   4    7.78    4.10
  -8   9  -4   -1.01    3.94
  -8   9  -4   -0.32    1.92
  -8   9  -4    3.42    2.75
  -8   9  -4   -2.25    2.71
   1   8   4    0.07    2.74
  -9   1   4    4.09    3.95
  -8  10  -4   15.14    5.16
  -8  10  -4   11.36    2.79
  -8  10  -4    9.49    5.78
 -10   2   4    8.46    4.94
   2   8   4    7.25    3.62
  -8  11  -4    2.54    4.60
  -8  11  -4    8.62    4.57
  -8  11  -4    6.26    1.99
   3   8   4    4.09    4.11
 -11   3   4    4.62    4.44
 -12   4   4    4.72    4.50
  -3  12  -4    1.17    2.45
  -9  -3  -4    4.66    4.17
 -12   9   4   -1.06    3.95
 -12   9   4   -0.81    4.32
  -9  -2  -4   -0.42    3.40
  -2  11  -4    0.50    2.09
 -11   9   4   -4.43    3.05
 -11   9   4    1.73    4.16
   2 -11   4   -1.91    3.76
  -9  -1  -4   12.99    4.95
  -1  10  -4    0.54    2.29
 -10   9   4    7.14    3.80
   1 -10   4    3.84    4.68
 -10   9   4   16.24    5.92
   0   9  -4    5.50    2.38
  -9   0  -4   14.15    4.69
   0  -9   4    5.17    4.79
  -9   9   4   10.72    5.03
  -9   9   4   13.48    4.38
  -9   1  -4    6.68    4.80
  -9   1  -4    4.23    3.15
   1   8  -4    3.93    2.31
  -8   9   4   -0.48    2.68
  -8   9   4    2.11    3.52
  -1  -8   4    4.33    4.01
  -9   2  -4    5.58    3.08
   2   7  -4    9.05    2.97
  -9   2  -4    6.44    4.62
  -7   9   4   17.12    5.09
  -2  -7   4    4.06    3.67
  -2  -7   4    4.34    4.19
  -7   9   4   15.07    4.03
  -9   3  -4    9.52    3.32
   3   6  -4   11.49    3.35
  -9   3  -4   11.43    5.14
  -9   3  -4   10.06    3.91
  -6   9   4   18.17    4.58
  -3  -6   4   13.47    4.71
  -3  -6   4    3.26    3.75
  -6   9   4    9.54    3.19
   4   5  -4   13.85    3.86
  -9   4  -4   14.71    5.27
  -9   4  -4   11.07    3.49
  -9   4  -4   15.00    4.48
  -9   4  -4   15.30    4.22
  -5   9   4   14.64    3.57
  -4  -5   4    9.13    3.98
  -5   9   4   11.89    3.72
  -4  -5   4   10.59    4.32
  -9   5  -4    9.19    3.41
  -9   5  -4    9.03    4.42
   5   4  -4   14.59    4.25
  -9   5  -4    5.36    4.34
  -9   5  -4   16.24    4.19
  -5  -4   4   24.47    5.33
  -5  -4   4   13.88    4.67
  -4   9   4   11.09    3.12
  -9   6  -4    7.90    3.13
  -9   6  -4   11.68    4.79
  -9   6  -4   10.54    3.90
  -9   6  -4   13.02    4.92
  -3   9   4   15.73    3.56
  -6  -3   4   13.83    4.65
  -6  -3   4   11.38    4.52
  -9   7  -4    6.02    2.87
  -9   7  -4    7.92    4.60
  -9   7  -4   14.48    3.99
  -9   7  -4   12.09    4.76
  -7  -2   4   14.04    4.35
  -2   9   4   14.92    3.75
  -7  -2   4   19.94    5.11
  -9   8  -4    7.50    3.59
  -9   8  -4    1.63    2.55
  -9   8  -4    1.59    3.46
  -9   8  -4   -5.67    2.70
  -1   9   4    1.06    2.36
  -8  -1   4    0.32    3.11
  -8  -1   4   -3.25    3.12
  -9   9  -4    3.71    4.93
  -9   9  -4   10.48    3.14
  -9   9  -4    8.27    4.53
   0   9   4    4.58    2.87
  -9   0   4    7.46    4.65
  -9  10  -4    5.62    4.94
  -9  10  -4    9.47    2.88
  -9  10  -4    9.24    4.70
   1   9   4    3.19    3.03
 -10   1   4    0.46    4.22
  -9  11  -4   -3.65    3.58
  -9  11  -4    4.23    2.24
  -9  11  -4   -1.54    3.01
 -11   2   4   -1.77    3.87
   2   9   4   -0.66    2.87
  -9  12  -4    0.15    4.44
  -9  12  -4    4.67    1.99
   3   9   4   -1.18    3.52
 -12   3   4   -2.20    3.42
  -1  11  -4    8.36    3.56
 -10  -1  -4    7.09    4.32
   1 -11   4    6.71    5.02
 -11  10   4    2.37    4.38
 -11  10   4    6.11    4.13
 -10   0  -4    7.90    3.94
   0  10  -4    8.17    3.30
   0 -10   4    9.14    5.45
 -10  10   4   11.50    4.14
 -10  10   4   11.97    5.33
   1   9  -4    8.07    3.16
 -10   1  -4    5.47    3.61
  -9  10   4    8.56    4.58
  -1  -9   4    6.27    4.91
  -9  10   4    8.49    3.95
 -10   2  -4    7.68    4.79
 -10   2  -4    8.48    3.78
   2   8  -4    9.79    3.36
  -8  10   4    5.82    4.02
  -8  10   4    1.92    2.72
  -2  -8   4    6.19    5.14
 -10   3  -4    9.39    5.27
 -10   3  -4    5.61    3.12
   3   7  -4    3.44    3.04
  -7  10   4    5.06    3.70
  -7  10   4   -0.10    2.61
  -3  -7   4    4.43    4.48
 -10   4  -4    2.68    4.09
 -10   4  -4    5.03    3.45
 -10   4  -4    4.07    3.02
   4   6  -4   -1.72    2.54
  -6  10   4    8.93    3.25
  -6  10   4    6.85    3.60
  -4  -6   4    2.80    3.36
  -4  -6   4    8.24    4.71
 -10   5  -4   18.40    5.89
 -10   5  -4   26.89    5.24
   5   5  -4   23.69    5.25
 -10   5  -4   18.42    4.64
 -10   5  -4   31.39    6.78
  -5  -5   4   21.76    6.23
  -5  10   4   21.19    4.30
  -5  -5   4   18.17    5.13
 -10   6  -4    1.08    3.68
 -10   6  -4    1.14    3.78
 -10   6  -4    5.27    2.92
 -10   6  -4    2.82    3.01
  -6  -4   4    7.60    4.20
  -4  10   4    0.54    2.02
  -6  -4   4   -0.89    3.48
 -10   7  -4    2.75    3.61
 -10   7  -4   14.62    3.86
 -10   7  -4    3.99    4.51
 -10   7  -4   -2.74    2.17
  -3  10   4    2.84    2.47
  -7  -3   4    1.17    3.41
  -7  -3   4    6.12    4.23
 -10   8  -4   12.67    3.57
 -10   8  -4    3.23    4.00
 -10   8  -4    3.19    3.67
 -10   8  -4    8.32    4.83
  -8  -2   4   10.18    4.97
  -2  10   4   12.64    3.56
  -8  -2   4    9.30    4.59
 -10   9  -4    5.90    2.82
 -10   9  -4    4.54    4.27
 -10   9  -4   -3.23    3.65
  -9  -1   4   13.29    5.08
  -1  10   4    2.95    2.63
  -9  -1   4    8.09    4.54
 -10  10  -4   19.43    6.04
 -10  10  -4   13.91    3.51
 -10  10  -4   15.60    6.02
   0  10   4   10.73    3.54
 -10   0   4    7.37    4.90
 -10  11  -4   15.23    3.34
 -10  11  -4   11.58    5.97
 -10  11  -4   -2.32    3.91
   1  10   4   11.12    4.02
 -11   1   4    5.37    4.91
 -11   0  -4    1.96    3.77
   0  11  -4   13.04    4.93
 -11  11   4    2.26    4.38
 -11  11   4   16.20    5.19
   0 -11   4   19.03    7.10
 -11   1  -4    4.09    3.64
   1  10  -4   11.41    4.58
  -1 -10   4   10.85    5.58
 -10  11   4    9.25    3.93
 -10  11   4   13.55    5.42
 -11   2  -4   -3.72    3.76
   2   9  -4   -0.67    2.90
 -11   2  -4    2.85    3.30
  -9  11   4    6.13    3.58
  -9  11   4    1.54    2.96
  -2  -9   4    8.49    5.46
 -11   3  -4   -0.88    4.08
   3   8  -4    6.36    4.16
 -11   3  -4    1.15    2.65
  -8  11   4    5.22    3.88
  -8  11   4    3.73    3.07
  -3  -8   4    2.28    4.65
 -11   4  -4    3.55    4.17
 -11   4  -4   12.14    4.07
   4   7  -4    8.30    4.22
  -4  -7   4   13.65    6.02
  -7  11   4    7.09    3.78
  -7  11   4   15.33    4.45
   5   6  -4    1.92    3.89
 -11   5  -4    6.41    4.97
 -11   5  -4    4.84    3.34
 -11   5  -4    6.45    3.64
  -6  11   4    2.19    2.62
  -5  -6   4    0.60    4.03
  -5  -6   4   -0.68    3.53
 -11   6  -4   10.36    3.72
 -11   6  -4   -0.64    3.52
 -11   6  -4   -0.58    3.57
 -11   6  -4    9.39    3.70
   6   5  -4    0.86    4.38
  -6  -5   4    1.49    3.82
  -6  -5   4    3.14    3.79
  -5  11   4   -1.50    2.12
 -11   7  -4    7.27    4.65
 -11   7  -4   10.27    3.97
 -11   7  -4   17.36    5.71
 -11   7  -4   14.99    4.15
  -4  11   4    6.44    2.76
  -7  -4   4   12.87    5.00
  -7  -4   4    4.12    4.20
 -11   8  -4   -1.06    3.85
 -11   8  -4    2.91    4.06
 -11   8  -4    2.26    2.74
  -8  -3   4    3.64    4.28
  -8  -3   4    3.29    4.05
  -3  11   4    4.36    2.77
 -11   9  -4    4.69    5.03
 -11   9  -4   -1.31    2.38
 -11   9  -4   -2.05    3.43
  -2  11   4    2.58    2.74
  -9  -2   4   -1.39    3.90
  -9  -2   4    0.55    3.76
 -11  10  -4   10.84    3.55
 -11  10  -4    9.05    5.19
 -11  10  -4   10.73    5.41
 -10  -1   4   11.91    5.50
  -1  11   4   14.79    3.89
 -11  11  -4    3.48    4.25
 -11  11  -4    0.56    4.69
 -11  11  -4   10.65    3.29
   0  11   4   11.87    3.74
 -11   0   4    8.81    5.78
 -12   3  -4    3.57    4.32
 -12   3  -4    1.77    3.21
   3   9  -4   -1.74    3.89
  -9  12   4    6.35    3.83
  -9  12   4    5.38    3.74
  -3  -9   4    1.83    5.12
   4   8  -4    9.10    4.92
 -12   4  -4    5.91    4.72
 -12   4  -4    6.29    3.65
  -8  12   4    9.52    3.92
  -8  12   4    2.60    3.68
  -4  -8   4    6.72    5.29
   5   7  -4    8.14    4.77
 -12   5  -4    1.08    3.82
 -12   5  -4    7.18    3.71
  -7  12   4   -2.89    2.55
  -5  -7   4   -1.24    3.96
   6   6  -4    1.32    4.65
 -12   6  -4    2.09    3.20
 -12   6  -4    2.65    2.98
 -12   6  -4    1.13    4.10
  -6  12   4    3.34    2.95
  -6  -6   4    2.42    4.17
 -12   7  -4    9.50    4.73
 -12   7  -4    8.34    4.74
 -12   7  -4    8.87    3.52
  -5  12   4    7.51    3.33
  -7  -5   4    6.79    4.86
  -7  -5   4    5.05    4.44
 -12   8  -4   17.19    6.28
 -12   8  -4    0.83    2.71
 -12   8  -4    8.86    4.91
  -4  12   4    7.25    3.04
  -8  -4   4    2.46    4.27
  -8  -4   4    9.76    5.42
 -12   9  -4   -0.63    3.88
 -12   9  -4    5.42    4.59
 -12   9  -4    1.36    2.64
  -3  12   4    3.60    2.78
  -9  -3   4    5.71    4.45
  -9  -3   4    4.40    4.36
   0   0  -5    0.84    1.74
   0   0  -5   -0.96    1.48
   0   0  -5    3.12    2.23
   0   0   5    2.30    2.27
   0   0   5    1.75    2.18
  -1   0  -5    9.47    2.57
   1  -1  -5   12.50    2.73
   0   1  -5    7.89    2.38
   1  -1  -5   11.25    3.32
   0   1  -5    9.88    2.02
  -1   0  -5    9.92    2.41
   0   1  -5   20.38    3.67
  -1   0  -5   12.30    2.83
   1   0   5   10.27    2.98
  -1   1   5    9.91    3.38
   0  -1   5   10.74    2.98
   0  -1   5   16.18    3.74
  -1   1   5   10.61    3.11
  -1   1   5   14.27    3.54
  -1   1  -5   11.64    2.90
  -1   1  -5   16.47    3.25
   0  -1  -5    9.02    2.93
   1   0  -5   16.65    3.23
  -1   1  -5   12.07    2.32
   1   0  -5   10.37    2.52
   1   0  -5    8.46    2.14
   0   1   5   11.68    3.27
   1  -1   5   10.40    2.92
  -1   0   5   14.05    3.63
  -1   2  -5  334.63   12.43
  -1   2  -5  335.43   13.91
  -1   2  -5  340.36   14.10
   2  -1  -5  336.04   17.53
  -1  -1  -5  335.79   13.65
   1   1   5  337.14   16.45
  -2   1   5  329.83   14.20
   1  -2   5  332.57   15.33
  -2   1   5  339.60   13.96
  -1   3  -5   49.36    5.50
   3  -2  -5   49.63    6.39
  -1   3  -5   51.91    3.86
  -1   3  -5   66.86    6.35
  -2  -1  -5   57.60    5.63
  -3   2   5   52.26    5.27
  -3   2   5   61.93    5.58
   2   1   5   44.46    6.31
   2  -2  -5   87.49    7.29
   0   2  -5   67.79    5.79
  -2   0  -5   78.76    5.35
  -2   0  -5   82.82    5.52
   0   2  -5   70.07    5.54
  -2   0  -5   68.07    5.50
   0   2  -5   84.18    4.76
   0  -2   5   79.16    6.73
   2   0   5   71.13    6.74
  -2   2   5   92.22    7.54
  -2   2   5   80.91    5.63
  -2   1  -5  342.66   13.07
   1   1  -5  328.40   12.69
   1   1  -5  350.33   13.63
  -2   1  -5  339.39   13.94
   1   1  -5  336.41   13.92
  -2   1  -5  328.65   14.34
   1  -2  -5  353.24   16.36
  -1   2   5  342.04   16.79
   2  -1   5  308.60   15.80
  -1   2   5  336.57   16.54
  -1   2   5  336.50   14.17
  -1  -1   5  355.27   15.21
   2   0  -5   84.71    5.22
  -2   2  -5   72.64    5.43
   2   0  -5   83.69    5.17
  -2   2  -5   74.96    4.93
  -2   2  -5   73.74    5.90
   0  -2  -5   69.75    6.64
   2  -2   5   76.11    6.31
  -2   0   5   70.14    5.65
   0   2   5   92.62    8.08
  -2   0   5   83.99    6.64
   0   2   5   82.45    7.30
  -1  -2  -5   48.70    6.13
  -2   3  -5   48.98    5.27
  -1  -2  -5   54.29    5.34
  -2   3  -5   51.77    3.91
  -2   3  -5   60.55    5.08
  -3   1   5   55.18    5.76
  -3   1   5   45.76    5.07
  -2  -2  -5  427.98   17.48
  -2   4  -5  441.94   17.52
  -2   4  -5  424.98   14.86
  -2   4  -5  428.93   17.34
  -4   2   5  417.30   17.51
  -4   2   5  415.88   16.88
  -2   5  -5  122.00    5.94
  -3  -2  -5  150.51    9.44
  -2   5  -5  122.63    7.81
  -2   5  -5  131.66    8.19
  -5   3   5  123.25    8.06
  -5   3   5  131.77    7.65
  -1   4  -5   26.39    2.89
  -3  -1  -5   23.44    4.39
  -1   4  -5   25.55    4.29
  -1   4  -5   20.96    3.96
   4  -3  -5   23.83    4.57
  -4   3   5   24.49    3.78
  -4   3   5   28.30    4.22
  -4   3   5   20.83    3.73
   0   3  -5   10.55    2.19
  -3   0  -5   13.77    2.99
  -3   0  -5   11.48    3.09
   0   3  -5   11.41    3.48
   3  -3  -5   18.68    4.29
  -3   0  -5    8.48    3.10
   0   3  -5    9.87    3.08
  -3   3   5    7.43    2.73
  -3   3   5   14.40    3.42
   0  -3   5    6.88    3.32
   3   0   5   12.23    3.73
  -3   1  -5   56.66    5.99
  -3   1  -5   52.49    5.05
   1   2  -5   51.63    4.09
  -3   1  -5   52.74    5.50
   2  -3  -5   49.80    5.96
   1   2  -5   59.90    6.09
   1   2  -5   71.70    6.40
  -2   3   5   56.33    5.46
  -1  -2   5   45.98    5.76
   3  -1   5   42.95    5.77
  -2   3   5   59.28    5.50
  -3   2  -5   47.90    4.48
   2   1  -5   61.64    5.51
   2   1  -5   54.33    4.31
  -3   2  -5   55.17    5.81
  -3   2  -5   49.80    5.95
   1  -3  -5   57.17    6.73
  -1   3   5   59.80    5.52
  -2  -1   5   47.39    6.14
  -2  -1   5   53.11    5.17
  -1   3   5   52.48    5.08
   3  -2   5   61.45    6.86
  -3   3  -5   13.39    3.41
  -3   3  -5    7.66    2.24
   3   0  -5    9.88    2.60
  -3   3  -5   13.04    3.26
   0  -3  -5   11.14    3.53
   3   0  -5   12.87    2.65
  -3   0   5    6.78    2.44
   0   3   5    7.38    2.42
   0   3   5   11.23    2.60
  -3   0   5    2.04    1.28
  -3   0   5   11.14    3.59
  -3   4  -5   32.11    4.88
  -1  -3  -5   27.02    4.98
  -3   4  -5   27.41    3.25
  -1  -3  -5   30.24    4.31
  -3   4  -5   20.01    3.87
  -4   1   5   23.50    3.72
  -4   1   5   25.04    4.58
   1   3   5   28.70    3.79
  -2  -3  -5  139.26    9.02
  -3   5  -5  132.52    8.11
  -3   5  -5  134.12    8.30
  -3   5  -5  133.64    6.28
  -5   2   5  136.48    8.09
  -5   2   5  123.56    8.05
  -3   6  -5    3.30    2.40
  -3   6  -5    5.14    2.35
  -3   6  -5    2.92    1.34
  -3  -3  -5    2.99    2.97
  -6   3   5    1.27    2.26
  -6   3   5    3.11    2.33
  -4  -3  -5   30.54    5.97
  -3   7  -5   40.69    5.41
  -3   7  -5   54.38    6.69
  -3   7  -5   47.21    3.28
  -7   4   5   38.67    5.29
  -7   4   5   48.34    6.38
  -4  -2  -5    0.50    2.49
  -2   6  -5    3.05    2.40
  -2   6  -5    0.49    1.12
  -2   6  -5   -2.30    1.75
  -6   4   5    1.51    2.09
  -6   4   5    2.83    2.72
  -6   4   5   -1.76    1.80
  -1   5  -5  136.88    8.53
  -1   5  -5  124.19    8.36
  -1   5  -5  132.58    6.37
  -4  -1  -5  138.64    9.49
   1  -5   5  137.30    9.82
  -5   4   5  139.65    8.65
  -5   4   5  160.17    9.44
  -5   4   5  135.11    7.54
   0   4  -5   52.30    3.91
   0   4  -5   44.69    5.30
  -4   0  -5   61.93    5.86
   0   4  -5   47.35    5.54
  -4   0  -5   49.86    5.63
  -4   0  -5   48.41    6.24
   0  -4   5   51.39    6.44
  -4   4   5   53.13    5.36
   4   0   5   36.19    5.94
  -4   4   5   51.19    5.56
  -4   1  -5   25.30    4.61
   3  -4  -5   28.97    4.95
  -4   1  -5   19.01    3.36
   1   3  -5   20.90    3.04
   1   3  -5   19.11    3.75
   1   3  -5   29.35    4.72
  -4   1  -5   24.58    4.40
   4  -1   5   19.79    4.55
  -3   4   5   28.92    4.01
  -3   4   5   33.90    4.71
  -1  -3   5   26.05    4.91
   2   2  -5  427.30   15.74
   2  -4  -5  447.80   19.73
  -4   2  -5  401.59   17.82
   2   2  -5  432.73   16.82
  -4   2  -5  429.82   18.08
  -4   2  -5  424.41   16.27
  -2  -2   5  431.84   17.12
  -2   4   5  437.28   17.16
  -2   4   5  414.28   16.85
  -2  -2   5  438.24   18.76
   3   1  -5   28.98    3.55
   1  -4  -5   35.13    5.37
  -4   3  -5   23.64    4.48
  -4   3  -5   26.65    4.70
   3   1  -5   20.26    3.44
  -4   3  -5   27.63    3.72
  -1   4   5   25.13    3.82
  -3  -1   5   27.27    3.91
  -3  -1   5   24.35    4.52
  -3  -1   5   30.49    4.64
  -1   4   5   24.88    3.66
  -4   4  -5   50.89    6.36
   0  -4  -5   52.08    6.55
  -4   4  -5   48.73    6.00
  -4   4  -5   39.08    4.19
   0   4   5   60.14    6.00
   0   4   5   47.54    4.73
  -4   0   5   57.80    6.63
  -4   0   5   50.68    5.20
  -4   5  -5  140.05    9.05
  -4   5  -5  127.12    6.74
  -4   5  -5  143.47    8.66
   1   4   5  151.81    7.67
  -5   1   5  145.13    8.96
  -5   1   5  144.95    8.16
   1   4   5  124.26    8.55
  -4   6  -5    3.54    2.68
  -4   6  -5    2.14    1.48
  -2  -4  -5    1.85    2.90
  -4   6  -5    1.25    1.80
  -6   2   5    0.70    2.61
  -6   2   5    2.09    2.19
  -3  -4  -5   46.08    7.35
  -4   7  -5   52.62    6.11
  -4   7  -5   49.22    3.40
  -4   7  -5   49.11    6.27
  -7   3   5   39.10    5.94
  -7   3   5   41.57    5.78
  -4  -4  -5   52.98    8.13
  -4   8  -5   44.23    3.18
  -4   8  -5   48.45    6.27
  -4   8  -5   56.72    7.10
  -8   4   5   55.39    7.12
  -8   4   5   62.71    7.81
  -4   9  -5   -0.50    2.78
  -4   9  -5    3.72    2.80
  -4   9  -5    3.22    1.23
  -5  -4  -5   -0.04    3.25
  -9   5   5    1.10    3.29
  -9   5   5    3.38    3.49
  -3   8  -5  132.00    9.51
  -3   8  -5  133.57    8.95
  -3   8  -5  141.09    6.12
  -5  -3  -5  136.26   10.75
  -8   5   5  141.03    9.37
  -8   5   5  114.38    9.83
  -5  -2  -5   40.45    6.81
  -2   7  -5   49.59    6.31
  -2   7  -5   45.68    6.08
  -2   7  -5   40.85    3.27
  -7   5   5   43.05    6.00
  -7   5   5   36.13    5.94
  -7   5   5   40.27    5.40
   2  -7   5   32.62    6.36
  -1   6  -5   19.09    4.16
  -5  -1  -5   22.14    5.02
  -1   6  -5   14.68    2.31
  -1   6  -5   12.03    3.11
   1  -6   5   18.16    4.81
  -6   5   5    9.55    3.54
  -6   5   5   14.31    3.59
   0   5  -5   75.72    7.62
   0   5  -5   77.08    4.98
  -5   0  -5   88.09    8.95
   0   5  -5   88.25    6.73
  -5   5   5   84.60    6.73
   0  -5   5   83.51    8.77
  -5   5   5   73.78    7.21
  -5   1  -5  141.62    9.32
  -5   1  -5  142.86    8.20
  -5   1  -5  119.50    8.84
   1   4  -5  144.22    7.14
   1   4  -5  137.72    8.63
  -1  -4   5  142.60    9.89
  -4   5   5  138.71    8.31
  -4   5   5  137.90    8.65
  -5   2  -5  142.99    8.03
  -5   2  -5  136.64    9.21
  -5   2  -5  144.04    9.24
   2   3  -5  142.49    8.12
   2   3  -5  129.46    7.09
  -3   5   5  133.36    7.89
  -3   5   5  139.31    8.33
  -2  -3   5  121.53    9.28
  -2  -3   5  133.39    9.17
  -5   3  -5  130.05    8.76
   3   2  -5  133.35    7.26
  -5   3  -5  131.67    7.52
  -5   3  -5  125.55    8.91
  -2   5   5  136.73    8.01
  -3  -2   5  135.89    9.23
  -2   5   5  131.93    7.54
  -3  -2   5  127.92    8.61
  -5   4  -5  131.09    8.92
  -5   4  -5  135.55    7.45
  -5   4  -5  147.88    9.41
   4   1  -5  130.58    7.39
  -1   5   5  130.10    7.25
  -4  -1   5  143.94    9.04
  -4  -1   5  121.45    8.96
  -1   5   5  124.22    7.98
  -5   5  -5   86.96    8.69
  -5   5  -5   69.55    7.15
  -5   5  -5   77.72    5.47
  -5   0   5   82.09    7.04
   0   5   5   92.71    7.32
   0   5   5   86.78    5.55
  -5   0   5   90.05    6.01
  -5   6  -5   14.37    3.62
  -5   6  -5   21.00    4.53
  -5   6  -5   12.31    2.57
  -6   1   5    9.46    3.78
  -6   1   5   10.08    2.91
   1   5   5   16.19    3.98
  -5   7  -5   46.07    6.55
  -5   7  -5   33.99    5.08
  -5   7  -5   37.25    3.74
  -7   2   5   37.70    5.95
  -7   2   5   33.47    5.04
  -5   8  -5  134.38    9.33
  -5   8  -5  125.38    6.05
  -5   8  -5  123.95    8.37
  -8   3   5  139.73   10.13
  -8   3   5  123.74    9.50
  -4  -5  -5    3.89    4.28
  -5   9  -5    2.86    2.59
  -5   9  -5    2.87    1.34
  -5   9  -5    5.81    3.27
  -9   4   5   -2.37    2.36
  -9   4   5   -3.30    2.57
  -5  10  -5    2.77    2.72
  -5  10  -5    7.65    1.47
  -5  10  -5   11.50    4.56
  -5  -5  -5    2.45    4.03
 -10   5   5    3.43    3.65
 -10   5   5    4.05    3.99
  -6  -5  -5   27.17    6.62
  -5  11  -5   42.81    6.84
  -5  11  -5   41.55    2.80
 -11   6   5   35.97    6.81
 -11   6   5   33.44    7.63
  -4  10  -5   37.89    6.71
  -6  -4  -5   30.10    6.92
  -4  10  -5   33.08    2.96
  -4  10  -5   41.22    6.30
   4 -10   5   17.58    5.53
 -10   6   5   32.87    6.39
 -10   6   5   42.90    8.11
  -3   9  -5    6.64    3.71
  -3   9  -5    4.54    2.87
  -3   9  -5    2.82    1.41
  -6  -3  -5    7.22    4.12
  -9   6   5    1.77    2.88
   3  -9   5    6.61    4.15
  -9   6   5    6.50    3.75
  -2   8  -5  111.19    8.65
  -6  -2  -5  100.02   10.65
  -2   8  -5   91.91    7.62
  -2   8  -5  100.96    5.30
   2  -8   5   78.08    9.23
  -8   6   5  120.24   11.03
  -8   6   5  103.12   10.93
  -6  -1  -5   24.80    5.34
  -1   7  -5   37.97    5.81
  -1   7  -5   30.57    5.19
  -1   7  -5   23.06    3.09
  -7   6   5   30.59    5.80
  -7   6   5   27.92    5.79
   1  -7   5   20.44    4.98
   0   6  -5    3.41    1.75
   0   6  -5    0.83    2.25
  -6   0  -5    2.71    2.75
   0   6  -5   -1.68    2.44
   0  -6   5   -1.54    2.85
   0  -6   5   -2.38    2.50
  -6   6   5    2.24    2.20
  -6   6   5    1.21    2.64
   1   5  -5   16.77    3.93
  -6   1  -5   14.41    3.46
  -6   1  -5   14.70    4.42
   1   5  -5   16.74    2.90
  -6   1  -5   14.61    4.05
   1   5  -5   16.65    3.81
  -5   6   5   16.54    3.72
  -1  -5   5   19.83    5.08
  -5   6   5   13.50    3.67
  -1  -5   5   10.73    3.88
   2   4  -5    0.33    2.11
  -6   2  -5    1.03    2.07
  -6   2  -5    0.81    2.89
   2   4  -5    0.71    1.69
  -6   2  -5    0.09    2.11
  -4   6   5   -0.28    1.94
  -2  -4   5    0.02    2.51
  -4   6   5    0.66    1.69
  -2  -4   5    0.66    3.27
  -6   3  -5    5.32    2.45
  -6   3  -5    1.40    3.00
   3   3  -5    4.16    2.12
  -6   3  -5    1.32    2.16
  -3   6   5    6.08    2.40
  -3   6   5    3.80    2.13
  -3  -3   5    7.25    3.69
  -3  -3   5    7.76    3.36
   4   2  -5    2.87    1.94
  -6   4  -5   -0.75    2.08
  -6   4  -5    4.66    2.44
  -6   4  -5    1.53    3.12
  -4  -2   5   -5.00    2.52
  -2   6   5    1.07    1.98
  -2   6   5    6.00    2.08
  -4  -2   5    1.60    2.47
  -6   5  -5   11.78    4.13
  -6   5  -5   11.04    3.50
  -6   5  -5   11.11    2.89
  -5  -1   5   15.04    3.95
  -5  -1   5   16.98    4.62
  -1   6   5   12.98    2.73
  -1   6   5    8.20    3.25
  -6   6  -5    1.61    2.23
  -6   6  -5   -1.78    2.23
  -6   6  -5    1.65    2.00
  -6   0   5   -0.16    2.43
   0   6   5    8.22    3.14
  -6   7  -5   27.55    4.59
  -6   7  -5   22.66    4.84
  -6   7  -5   23.50    3.47
   1   6   5   37.12    6.08
  -7   1   5   20.73    5.00
  -6   8  -5  103.38    5.89
  -6   8  -5   96.23    7.55
  -6   8  -5  104.75    8.74
   2   6   5  109.07   10.21
  -8   2   5   72.89    8.79
  -6   9  -5    0.42    2.40
  -6   9  -5    2.67    3.45
  -6   9  -5   -0.40    1.19
  -9   3   5   -1.14    3.21
  -6  10  -5   31.17    2.92
  -6  10  -5   29.07    5.31
  -6  10  -5   24.70    5.54
 -10   4   5   26.46    6.94
  -6  11  -5   34.19    2.43
  -6  11  -5   38.31    6.44
  -6  11  -5   38.53    6.16
 -11   5   5   34.02    7.23
 -11   5   5   35.22    7.31
  -6  -6  -5   -1.23    3.68
 -12   6   5   -1.87    3.15
 -12   6   5    0.03    4.10
  -7  -5  -5    6.02    4.43
 -12   7   5    4.24    3.77
 -12   7   5   -6.57    3.17
  -4  11  -5    2.92    3.22
  -4  11  -5   11.34    2.11
  -7  -4  -5   13.14    5.23
   4 -11   5    5.95    4.34
 -11   7   5    4.12    4.42
  -3  10  -5   35.91    6.21
  -7  -3  -5   27.23    6.22
  -3  10  -5   39.02    6.15
  -3  10  -5   31.82    3.32
   3 -10   5   31.25    6.45
 -10   7   5   21.12    6.71
   3 -10   5   34.75    7.13
  -2   9  -5   15.31    4.67
  -2   9  -5    9.20    3.65
  -7  -2  -5    8.93    4.52
  -2   9  -5   10.41    2.20
  -9   7   5   15.77    5.31
   2  -9   5    8.70    4.25
   2  -9   5   14.53    5.04
  -9   7   5   14.01    4.84
  -7  -1  -5   12.38    4.39
  -1   8  -5    5.55    3.30
  -1   8  -5    8.10    3.58
  -1   8  -5    7.26    2.02
   1  -8   5    4.71    3.83
  -8   7   5    2.71    3.42
   1  -8   5    3.83    3.72
  -8   7   5    6.31    3.66
   0   7  -5   58.08    7.12
  -7   0  -5   38.68    6.52
   0   7  -5   44.76    6.46
   0   7  -5   43.71    4.47
  -7   7   5   35.05    5.87
  -7   7   5   52.19    7.02
   0  -7   5   38.82    7.35
   0  -7   5   43.42    7.29
  -7   1  -5   30.62    5.79
   1   6  -5   18.93    4.11
  -7   1  -5   26.48    6.07
   1   6  -5   32.84    5.51
   1   6  -5   29.78    3.88
  -1  -6   5   21.67    5.41
  -1  -6   5   24.99    5.56
  -6   7   5   33.94    5.58
  -6   7   5   33.93    5.53
   2   5  -5   37.94    4.45
  -7   2  -5   46.76    6.84
  -7   2  -5   37.60    6.80
  -7   2  -5   43.04    5.84
  -5   7   5   31.31    4.94
  -2  -5   5   30.40    6.50
  -2  -5   5   40.71    6.57
  -5   7   5   39.11    5.47
  -7   3  -5   45.18    7.42
  -7   3  -5   48.68    6.46
   3   4  -5   44.58    5.02
  -7   3  -5   48.93    6.07
  -3  -4   5   39.14    6.32
  -4   7   5   51.39    6.35
  -4   7   5   54.14    5.93
  -3  -4   5   42.20    7.01
  -7   4  -5   50.44    5.96
  -7   4  -5   51.01    7.94
  -7   4  -5   39.03    5.95
   4   3  -5   40.16    4.98
  -4  -3   5   46.11    6.90
  -3   7   5   48.36    5.61
  -3   7   5   47.46    5.33
  -4  -3   5   50.04    6.90
  -7   5  -5   41.90    6.77
  -7   5  -5   36.03    5.01
  -7   5  -5   33.95    6.26
   5   2  -5   44.20    5.61
  -5  -2   5   36.71    6.01
  -2   7   5   36.94    4.39
  -2   7   5   38.19    5.44
  -5  -2   5   43.44    6.55
  -7   6  -5   23.09    4.75
  -7   6  -5   29.98    5.87
  -7   6  -5   21.63    4.01
  -6  -1   5   22.10    5.06
  -6  -1   5   42.75    6.55
  -1   7   5   23.98    4.65
  -7   7  -5   33.86    4.62
  -7   7  -5   48.31    7.28
  -7   7  -5   53.23    7.12
  -7   0   5   33.63    6.05
   0   7   5   29.08    5.39
  -7   8  -5    5.36    3.70
  -7   8  -5    1.45    2.27
  -7   8  -5    6.56    2.58
   1   7   5   10.21    3.88
  -8   1   5    6.08    3.86
  -7   9  -5   14.47    4.97
  -7   9  -5   13.10    2.69
  -7   9  -5    5.26    3.05
   2   7   5   12.36    4.46
  -9   2   5   19.10    5.76
  -7  10  -5   38.81    6.02
  -7  10  -5   26.18    5.54
  -7  10  -5   36.04    3.60
 -10   3   5   22.37    6.27
  -7  11  -5    6.49    1.58
  -7  11  -5    6.49    4.05
 -11   4   5   15.94    5.74
 -12   5   5    6.91    5.05
  -8  -4  -5   21.96    6.35
  -4  12  -5   12.97    2.68
   4 -12   5   16.74    5.92
 -12   8   5    6.21    5.34
  -8  -3  -5   40.91    8.35
  -3  11  -5   45.58    4.51
   3 -11   5   48.94    8.82
 -11   8   5   40.06    8.42
  -2  10  -5    2.70    1.81
  -8  -2  -5    0.56    3.47
   2 -10   5    2.18    3.71
 -10   8   5   -3.09    3.58
 -10   8   5    8.23    4.64
  -1   9  -5   40.73    7.04
  -8  -1  -5   38.98    7.21
  -1   9  -5   43.99    4.53
   1  -9   5   44.60    7.84
   1  -9   5   27.71    6.90
  -9   8   5   37.99    7.78
  -9   8   5   43.89    7.56
   0   8  -5   80.93    8.47
  -8   0  -5   56.92    8.52
   0   8  -5   68.48    5.32
  -8   8   5   66.93    8.35
  -8   8   5   66.01    9.25
   0  -8   5   84.04   10.41
   0  -8   5   66.98   10.06
   1   7  -5    4.08    2.10
  -8   1  -5    9.95    3.94
  -7   8   5    7.67    3.55
  -1  -7   5    4.53    3.96
  -7   8   5    5.69    3.58
  -1  -7   5    3.41    4.21
  -8   2  -5  102.10   10.41
   2   6  -5  101.55    6.91
  -8   2  -5   96.11   11.16
  -2  -6   5   84.42   10.61
  -6   8   5   93.14    8.20
  -6   8   5   97.20    8.93
  -2  -6   5  105.14   10.56
  -8   3  -5  133.88   10.09
   3   5  -5  136.75    8.49
  -8   3  -5  148.76   12.08
  -5   8   5  133.45    9.17
  -5   8   5  141.21    9.42
  -3  -5   5  137.41   11.24
  -3  -5   5  121.47    9.87
  -8   4  -5   53.48    6.79
  -8   4  -5   37.59    5.88
  -8   4  -5   55.58    8.85
   4   4  -5   49.36    5.90
  -4  -4   5   51.31    7.38
  -4   8   5   52.14    6.58
  -4  -4   5   58.32    8.42
  -4   8   5   61.37    6.57
  -8   5  -5  162.19   10.82
  -8   5  -5  149.19   12.12
   5   3  -5  129.34    9.06
  -8   5  -5  142.55    9.56
  -5  -3   5  127.54   10.13
  -5  -3   5  135.30   10.58
  -3   8   5  152.21    9.47
  -8   6  -5   80.84    9.99
  -8   6  -5   97.32    7.78
  -8   6  -5   83.15    9.14
  -6  -2   5   77.20    8.92
  -2   8   5  104.89    7.98
  -6  -2   5  120.40   11.31
  -8   7  -5    6.00    3.45
  -8   7  -5   12.47    3.64
  -8   7  -5    4.19    3.85
  -7  -1   5   11.47    4.42
  -7  -1   5    4.20    4.09
  -1   8   5    8.62    3.60
  -8   8  -5   75.74    8.52
  -8   8  -5   69.59    9.42
  -8   8  -5   77.15    7.49
   0   8   5   76.52    8.31
  -8   0   5   80.62   10.34
  -8   9  -5   51.24    7.02
  -8   9  -5   47.17    5.48
  -8   9  -5   39.87    7.45
  -9   1   5   30.47    6.95
   1   8   5   38.14    6.24
  -8  10  -5    3.49    2.04
  -8  10  -5    6.90    4.19
  -8  10  -5    1.25    2.65
 -10   2   5    7.60    4.95
   2   8   5    2.86    3.46
  -8  11  -5   39.77    7.05
  -8  11  -5   43.38    4.04
 -11   3   5   41.41    8.91
  -8  12  -5    9.25    4.62
 -12   4   5   19.39    6.48
  -9  -2  -5   26.81    6.63
  -2  11  -5   30.46    4.49
 -11   9   5   39.34    7.95
   2 -11   5   24.42    6.74
 -11   9   5   36.58    8.17
  -9  -1  -5   15.36    5.52
  -1  10  -5   20.82    3.85
 -10   9   5   17.60    5.82
 -10   9   5   27.76    6.86
   1 -10   5   16.25    6.25
  -9   0  -5    8.21    4.36
   0   9  -5    7.42    2.48
  -9   9   5    4.50    4.11
   0  -9   5    7.32    4.92
  -9   9   5   -1.60    2.90
   1   8  -5   39.86    5.07
  -9   1  -5   29.26    6.16
  -1  -8   5   40.75    7.30
  -8   9   5   52.80    8.72
  -1  -8   5   35.40    7.79
  -8   9   5   44.71    7.29
   2   7  -5   16.94    3.81
  -9   2  -5   12.80    5.66
  -9   2  -5   15.19    4.50
  -7   9   5   16.63    4.88
  -2  -7   5   10.99    5.09
  -7   9   5   10.40    3.91
  -2  -7   5    1.77    3.69
  -9   3  -5    5.93    4.67
   3   6  -5    3.67    2.61
  -9   3  -5    5.15    3.31
  -9   3  -5    0.08    2.65
  -3  -6   5    4.53    4.34
  -3  -6   5    3.99    4.06
  -6   9   5    2.66    3.00
  -6   9   5   -0.33    2.83
  -9   4  -5   -1.14    3.81
   4   5  -5    4.14    3.07
  -9   4  -5    0.71    2.41
  -9   4  -5    0.19    3.08
  -5   9   5    0.61    2.38
  -4  -5   5    1.65    3.60
  -4  -5   5    3.03    3.83
  -5   9   5    4.61    3.09
   5   4  -5    6.58    3.49
  -9   5  -5    1.30    2.81
  -9   5  -5    4.48    3.15
  -9   5  -5   -1.00    3.52
  -5  -4   5   -0.95    3.03
  -5  -4   5    8.25    4.18
  -4   9   5    3.43    2.76
  -9   6  -5   -2.10    3.37
  -9   6  -5    0.88    2.78
  -9   6  -5    3.52    3.25
  -3   9   5    4.18    2.87
  -6  -3   5    0.35    3.87
  -6  -3   5   -0.01    3.28
  -9   7  -5    8.16    3.92
  -9   7  -5   15.43    4.41
  -9   7  -5   10.42    5.08
  -7  -2   5   24.39    6.05
  -7  -2   5   16.85    5.41
  -2   9   5    7.09    3.23
  -9   8  -5   32.23    6.86
  -9   8  -5   50.91    7.48
  -9   8  -5   44.65    6.17
  -1   9   5   48.39    6.40
  -8  -1   5   44.76    8.14
  -9   9  -5   -1.84    2.36
  -9   9  -5    2.60    2.84
  -9   9  -5   -3.50    3.13
  -9   0   5   13.40    5.58
   0   9   5    6.82    3.65
  -9  10  -5   24.14    4.36
  -9  10  -5   22.15    6.16
 -10   1   5   27.99    7.18
   1   9   5   29.41    5.54
  -9  11  -5   46.89    5.18
  -9  11  -5   51.44    8.84
   2   9   5   43.35    8.34
 -11   2   5   27.93    7.36
  -1  11  -5    0.61    2.54
 -10  -1  -5    3.86    4.05
 -11  10   5    4.45    4.81
 -11  10   5   -1.33    3.92
   1 -11   5    6.95    5.02
 -10   0  -5    6.06    4.11
   0  10  -5   13.01    3.72
 -10  10   5   13.57    5.00
 -10  10   5    7.11    4.77
   0 -10   5   20.47    7.00
 -10   1  -5   17.21    5.19
   1   9  -5   24.56    4.67
  -1  -9   5   24.53    7.39
  -9  10   5   33.05    7.29
  -9  10   5   26.87    5.82
   2   8  -5    4.11    2.80
 -10   2  -5    6.87    3.97
  -8  10   5    1.34    3.42
  -2  -8   5    2.30    4.50
  -8  10   5   10.68    4.19
 -10   3  -5   38.56    6.96
   3   7  -5   17.37    4.52
 -10   3  -5   18.44    6.10
  -7  10   5   32.10    5.90
  -3  -7   5   29.27    6.59
  -3  -7   5   21.08    6.94
  -7  10   5   32.85    6.79
 -10   4  -5   28.62    5.90
 -10   4  -5   32.13    7.11
 -10   4  -5   18.68    5.36
   4   6  -5   31.27    5.92
  -6  10   5   30.03    5.92
  -4  -6   5   17.42    6.40
  -6  10   5   25.45    5.23
  -4  -6   5   23.67    6.24
   5   5  -5    7.33    4.00
 -10   5  -5    6.68    3.29
 -10   5  -5   11.11    4.30
 -10   5  -5    6.36    5.10
  -5  -5   5    5.64    4.43
  -5  -5   5   14.11    5.33
  -5  10   5    2.31    3.10
 -10   6  -5   14.72    5.86
 -10   6  -5   31.54    6.24
 -10   6  -5   24.29    5.34
  -4  10   5   24.05    4.80
  -6  -4   5   25.98    6.42
  -6  -4   5   21.31    5.72
 -10   7  -5   26.56    5.42
 -10   7  -5   16.30    6.30
 -10   7  -5   29.99    6.27
  -7  -3   5   23.08    5.99
  -3  10   5   22.62    4.69
  -7  -3   5   33.56    7.27
 -10   8  -5   -0.42    3.80
 -10   8  -5    8.21    4.16
 -10   8  -5    1.37    2.92
  -2  10   5    2.50    2.76
  -8  -2   5   -0.62    3.74
  -8  -2   5    5.68    4.40
 -10   9  -5   17.80    4.35
 -10   9  -5   22.86    5.39
 -10   9  -5   21.14    6.46
  -1  10   5   17.22    4.55
  -9  -1   5   24.36    6.80
 -10  10  -5   11.53    3.61
 -10  10  -5   12.33    5.64
 -10   0   5   12.52    5.59
   0  10   5    9.04    4.01
 -10  11  -5    9.28    3.23
 -10  11  -5    2.97    4.38
   1  10   5    3.24    3.50
 -11   1   5    3.62    4.63
 -11   1  -5    0.30    3.10
   1  10  -5    3.77    3.36
 -10  11   5    1.53    4.01
 -10  11   5    2.72    3.89
  -1 -10   5    7.34    5.56
   2   9  -5   45.07    6.56
 -11   2  -5   33.69    6.78
  -9  11   5   35.20    7.05
  -2  -9   5   24.27    7.21
  -9  11   5   39.99    7.82
 -11   3  -5   27.00    6.33
 -11   3  -5   37.16    7.83
   3   8  -5   38.96    6.25
  -8  11   5   29.29    6.21
  -3  -8   5   30.93    8.30
  -8  11   5   37.56    6.91
 -11   4  -5   -6.60    3.54
 -11   4  -5    5.06    3.61
   4   7  -5    5.97    3.77
  -4  -7   5    4.60    4.55
  -7  11   5    4.92    3.47
  -4  -7   5   11.20    5.88
  -7  11   5   11.16    4.45
 -11   5  -5   35.56    7.03
 -11   5  -5   37.44    6.20
 -11   5  -5   34.99    7.83
   5   6  -5   42.82    6.90
  -5  -6   5   26.55    7.56
  -6  11   5   34.56    5.89
  -5  -6   5   31.17    7.06
 -11   6  -5   36.28    8.24
 -11   6  -5   37.51    6.81
 -11   6  -5   46.20    7.02
  -5  11   5   35.59    5.94
  -6  -5   5   20.72    6.35
  -6  -5   5   30.74    7.02
 -11   7  -5   13.03    4.82
 -11   7  -5    9.56    3.86
 -11   7  -5    5.34    5.00
  -4  11   5    1.99    2.76
  -7  -4   5    3.63    4.15
  -7  -4   5    2.09    4.15
 -11   8  -5   30.92    6.22
 -11   8  -5   29.44    7.52
 -11   8  -5   47.60    6.79
  -3  11   5   40.50    6.05
  -8  -3   5   43.18    7.97
  -8  -3   5   36.58    7.66
 -11   9  -5   31.94    8.02
 -11   9  -5   35.60    5.74
  -2  11   5   46.57    6.54
  -9  -2   5   35.06    8.20
 -11  10  -5    7.07    4.66
 -11  10  -5    4.08    3.16
 -10  -1   5   -1.11    4.46
  -1  11   5    0.36    2.75
   4   8  -5    5.51    4.59
 -12   4  -5    8.57    4.99
 -12   4  -5    8.52    4.03
  -8  12   5    3.80    3.74
  -4  -8   5    5.22    5.12
  -8  12   5    9.92    4.09
   5   7  -5    5.72    4.99
 -12   5  -5    4.62    3.30
 -12   5  -5    1.58    4.39
  -5  -7   5    3.90    4.94
  -7  12   5    0.63    3.44
 -12   6  -5   -1.68    3.18
 -12   6  -5   -2.37    3.73
 -12   6  -5   -2.37    2.60
  -6  -6   5   -1.14    4.11
  -6  12   5    2.35    2.97
  -6  -6   5    1.34    3.95
 -12   7  -5    3.90    3.48
 -12   7  -5    6.90    5.37
 -12   7  -5    1.64    3.70
  -7  -5   5   -4.92    2.86
  -7  -5   5    8.16    5.04
  -5  12   5    1.83    3.03
 -12   8  -5    3.01    4.58
 -12   8  -5   10.27    4.18
  -8  -4   5    5.91    4.63
  -8  -4   5   10.75    5.53
  -4  12   5    6.70    3.55
   0   0  -6  262.50   11.87
   0   0  -6  269.53   11.22
   0   0  -6  257.18   11.89
   0   0   6  257.38   14.22
   0   0   6  277.08   12.84
   0   1  -6   -0.13    1.94
  -1   0  -6    0.47    1.95
  -1   0  -6    1.03    2.25
   0   1  -6    0.71    2.35
   0   1  -6   -0.41    1.58
  -1   0  -6   -1.48    1.86
   1  -1  -6    2.99    2.35
   0  -1   6    1.14    1.92
   1   0   6   -1.12    2.22
   0  -1   6   -0.89    2.71
  -1   1   6    2.70    2.33
  -1   1   6    1.42    2.77
   1   0  -6    2.23    2.45
   0  -1  -6    3.14    2.23
   0  -1  -6    0.79    2.06
   1   0  -6    2.52    2.11
   1   0  -6    0.07    1.90
  -1   1  -6    1.34    2.04
  -1   1  -6   -2.58    2.04
  -1   1  -6    0.01    1.82
  -1   0   6    0.46    2.88
  -1   0   6   -2.55    1.75
   0   1   6   -1.81    0.88
   1  -1   6    3.10    2.51
  -1   2  -6   19.47    3.09
  -1   2  -6   20.54    3.98
  -1   2  -6   18.18    3.76
  -1  -1  -6   24.60    3.95
  -2   1   6   24.32    4.18
  -2   1   6   29.89    4.84
  -1   3  -6    2.21    2.51
  -1   3  -6   -0.49    2.00
  -1   3  -6    0.72    1.47
  -2  -1  -6    1.57    2.23
  -3   2   6    2.67    2.19
   1  -3   6    3.28    3.24
  -3   2   6    1.48    2.18
  -2   0  -6    4.22    2.21
   0   2  -6    6.86    2.89
   0   2  -6    6.67    2.77
   0   2  -6    0.86    1.71
  -2   0  -6    5.28    2.64
  -2   0  -6    3.20    2.02
   2   0   6    4.73    2.72
  -2   2   6    0.44    1.94
   0  -2   6    3.96    3.35
   1   1  -6   21.50    4.09
  -2   1  -6   17.94    3.44
  -2   1  -6   25.69    4.40
   1   1  -6   21.68    3.68
  -2   1  -6   24.37    3.64
   1   1  -6   27.47    3.74
  -1  -1   6   13.81    4.12
  -1   2   6   16.98    3.46
  -2   2  -6    5.99    2.67
   2   0  -6    6.27    2.40
  -2   2  -6    2.82    1.89
   2   0  -6    5.25    2.30
  -2   2  -6    8.46    3.01
  -2   0   6    4.29    2.38
  -2   0   6    6.42    3.59
  -2   3  -6   -0.38    2.02
  -1  -2  -6    0.15    1.91
  -2   3  -6    4.20    2.13
  -2   3  -6    5.33    1.82
  -3   1   6    1.10    2.56
  -3   1   6    5.09    2.62
  -2   4  -6    3.08    2.35
  -2   4  -6    0.24    1.38
  -2   4  -6    0.79    2.09
  -2  -2  -6    0.37    2.02
  -4   2   6    0.80    2.02
  -4   2   6    3.23    2.40
  -2   5  -6   -2.99    2.21
  -3  -2  -6    1.55    2.71
  -2   5  -6    5.36    2.59
  -2   5  -6    4.54    1.71
  -5   3   6    4.74    2.48
  -5   3   6    4.35    2.68
  -1   4  -6    5.09    2.83
  -1   4  -6    7.44    2.68
  -1   4  -6    6.77    1.74
  -3  -1  -6    3.88    2.78
  -4   3   6   10.88    2.83
  -4   3   6    9.42    2.91
   1  -4   6    4.71    3.35
  -3   0  -6   28.62    4.08
  -3   0  -6   36.49    4.86
   0   3  -6   39.54    5.14
   0   3  -6   38.90    4.05
  -3   0  -6   36.62    5.21
   0   3  -6   35.83    5.09
   0  -3   6   33.83    5.79
  -3   3   6   28.29    4.10
  -3   1  -6    3.56    2.55
   1   2  -6    2.11    2.71
   1   2  -6    1.07    1.61
   1   2  -6    0.38    1.97
  -3   1  -6    0.62    1.85
  -3   1  -6    4.12    2.57
  -1  -2   6    2.04    2.96
  -2   3   6    4.45    2.48
  -3   2  -6    4.84    2.22
   2   1  -6    0.00    1.73
   2   1  -6    2.17    2.05
  -3   2  -6    4.33    2.43
  -3   2  -6    0.89    2.12
  -2  -1   6    2.51    2.27
  -1   3   6    1.07    1.85
  -2  -1   6   -1.48    2.87
  -3   3  -6   35.98    5.05
  -3   3  -6   42.39    4.50
  -3   3  -6   22.95    4.32
  -3   0   6   42.51    5.98
  -3   0   6   36.37    4.77
   0   3   6   42.47    5.07
  -3   4  -6    7.50    2.19
  -3   4  -6    7.46    3.02
  -3   4  -6    5.21    2.48
   1   3   6   13.02    3.17
  -4   1   6    8.52    2.82
  -4   1   6    5.76    3.05
  -3   5  -6    1.42    2.68
  -3   5  -6    1.68    1.45
  -3   5  -6    0.07    1.91
  -5   2   6    1.83    2.49
  -5   2   6    2.98    2.49
  -3  -3  -6   27.93    5.65
  -3   6  -6   29.99    4.69
  -3   6  -6   29.93    3.38
  -3   6  -6   23.50    4.54
  -6   3   6   26.23    4.69
  -6   3   6   24.77    4.63
  -3   7  -6    9.38    3.57
  -3   7  -6    6.03    2.68
  -4  -3  -6    9.93    4.33
  -3   7  -6    2.92    1.54
  -7   4   6    6.44    3.03
  -7   4   6    4.56    2.89
  -2   6  -6    3.18    2.72
  -2   6  -6    5.79    2.84
  -4  -2  -6    2.41    3.06
  -2   6  -6    3.47    1.55
  -6   4   6    1.19    2.37
   2  -6   6    2.55    3.34
  -6   4   6   -0.94    1.65
  -1   5  -6   12.28    4.04
  -1   5  -6   19.47    4.12
  -1   5  -6   19.58    2.87
  -4  -1  -6   17.53    4.48
  -5   4   6   24.62    4.36
   1  -5   6   16.54    4.90
   0   4  -6   20.51    4.00
   0   4  -6   21.20    3.14
  -4   0  -6   22.44    4.77
   0   4  -6   11.33    3.37
  -4   4   6   10.60    3.06
   0  -4   6   20.47    4.81
  -4   1  -6   12.55    3.68
   1   3  -6    7.99    3.33
  -4   1  -6    5.06    2.86
   1   3  -6    8.01    2.32
  -4   1  -6   11.70    3.07
   1   3  -6    5.15    2.56
  -1  -3   6   14.87    4.54
  -3   4   6    7.44    2.81
  -4   2  -6    1.99    2.51
   2   2  -6    0.40    1.73
  -4   2  -6    1.04    2.32
   2   2  -6    2.60    2.14
  -4   2  -6   -0.11    1.78
  -2  -2   6    2.56    3.27
  -2   4   6    2.19    2.01
  -2  -2   6    1.59    2.24
  -4   3  -6    6.34    3.03
  -4   3  -6    8.55    2.66
  -4   3  -6    8.19    3.43
   3   1  -6    8.58    2.64
   3   1  -6    5.93    2.54
  -3  -1   6    5.48    2.72
  -1   4   6   11.39    2.81
  -3  -1   6    5.79    3.33
  -3  -1   6    9.34    2.92
  -4   4  -6   19.40    3.26
  -4   4  -6   15.59    3.99
  -4   4  -6   22.39    4.50
   0   4   6   14.38    3.29
  -4   0   6   22.76    3.90
  -4   0   6   18.72    4.67
  -4   5  -6   13.76    4.01
  -4   5  -6   17.67    3.04
  -4   5  -6   15.34    3.55
  -5   1   6   22.28    4.70
   1   4   6   28.63    4.14
  -5   1   6   18.96    3.75
  -4   6  -6   -0.41    1.39
  -4   6  -6    1.82    1.99
  -4   6  -6   -0.49    2.19
  -6   2   6   -0.18    2.04
  -6   2   6   -2.55    2.20
  -4   7  -6    6.98    2.00
  -4   7  -6    4.78    3.22
  -4   7  -6    5.04    2.74
  -7   3   6    2.48    2.50
  -7   3   6    5.92    2.95
  -4   8  -6    5.53    1.70
  -4  -4  -6    8.09    4.44
  -4   8  -6    3.41    3.47
  -4   8  -6    5.21    3.22
  -8   4   6    4.04    3.24
  -8   4   6    6.76    3.43
  -4   9  -6    1.79    1.34
  -4   9  -6    4.09    3.02
  -4   9  -6   -2.04    2.71
  -5  -4  -6    1.35    3.72
  -9   5   6   -1.66    2.84
  -9   5   6    1.23    3.08
  -3   8  -6    3.16    2.63
  -5  -3  -6   -0.16    3.44
  -3   8  -6    5.96    3.72
  -3   8  -6    0.42    1.27
  -8   5   6    2.94    3.21
   3  -8   6    4.30    4.16
  -2   7  -6    7.95    2.03
  -5  -2  -6    1.97    3.33
  -2   7  -6    6.67    3.53
  -2   7  -6    4.26    2.78
  -7   5   6   14.17    4.07
   2  -7   6    8.14    4.18
  -1   6  -6   13.89    3.65
  -1   6  -6   11.17    2.33
  -5  -1  -6    7.11    3.72
  -1   6  -6   13.66    4.03
   1  -6   6    4.84    3.69
  -6   5   6   10.80    3.66
   0   5  -6    0.20    1.53
   0   5  -6    0.90    2.31
  -5   0  -6    1.74    2.58
   0   5  -6   -0.18    2.63
   0  -5   6   -0.09    3.17
  -5   5   6    0.40    2.61
  -5   5   6    0.51    2.06
  -5   1  -6   24.35    4.22
   1   4  -6   24.38    3.51
  -5   1  -6   23.78    5.15
   1   4  -6   23.37    4.79
   1   4  -6   19.51    3.91
  -5   1  -6   21.82    4.47
  -1  -4   6   19.47    5.04
  -4   5   6   23.50    4.79
  -4   5   6   21.40    4.02
  -5   2  -6    1.04    1.96
  -5   2  -6    1.08    2.35
   2   3  -6    0.60    2.22
  -5   2  -6    1.71    2.56
   2   3  -6    4.24    2.12
  -3   5   6    2.47    2.46
  -2  -3   6    6.56    3.38
  -2  -3   6    6.22    3.56
  -3   5   6    1.60    2.34
  -5   3  -6    1.36    2.09
   3   2  -6    4.89    2.29
  -5   3  -6    2.52    2.81
  -5   3  -6    0.68    2.51
   3   2  -6    2.90    2.38
  -3  -2   6    4.93    3.46
  -3  -2   6    5.03    2.82
  -2   5   6    1.39    1.87
  -2   5   6    6.91    2.99
  -5   4  -6   21.41    3.72
  -5   4  -6   11.93    3.65
  -5   4  -6   32.26    5.78
  -4  -1   6   16.24    4.53
  -1   5   6   24.84    3.89
  -4  -1   6   16.60    4.05
  -4  -1   6   19.53    3.85
  -1   5   6   19.18    4.09
  -5   5  -6   -0.40    1.57
  -5   5  -6    0.97    2.28
  -5   5  -6   -1.29    2.60
  -5   0   6    1.25    2.06
   0   5   6    2.46    1.84
  -5   0   6    0.55    2.89
  -5   6  -6   10.94    3.26
  -5   6  -6    6.48    3.33
  -5   6  -6    8.52    2.44
  -6   1   6    9.53    3.92
  -6   1   6    7.02    2.71
  -5   7  -6    9.81    2.32
  -5   7  -6   13.39    3.47
  -5   7  -6    4.53    3.18
  -7   2   6    3.77    2.48
  -7   2   6    2.07    2.98
  -5   8  -6    2.71    3.32
  -5   8  -6    2.12    1.50
  -5   8  -6    5.45    2.74
  -8   3   6    2.36    2.85
  -8   3   6    1.35    3.10
  -5   9  -6    5.38    3.86
  -5   9  -6    2.88    1.59
  -5   9  -6    0.81    2.57
  -9   4   6    3.66    3.59
  -9   4   6   -3.22    2.61
  -5  10  -6    4.62    3.29
  -5  10  -6    1.75    3.89
  -5  10  -6    4.71    1.57
 -10   5   6   10.11    4.90
 -10   5   6   13.92    5.67
  -5  11  -6    2.31    4.09
  -5  11  -6    5.58    1.49
  -5  11  -6    3.57    3.44
  -6  -5  -6    6.64    4.38
 -11   6   6    2.25    3.98
   5 -11   6    5.55    4.44
 -11   6   6   15.04    6.04
  -4  10  -6    4.30    3.23
  -4  10  -6    1.63    1.40
  -6  -4  -6    6.07    4.51
  -4  10  -6    1.92    3.76
 -10   6   6    6.60    4.30
   4 -10   6    7.69    4.93
  -3   9  -6   12.60    3.96
  -3   9  -6   11.47    2.28
  -6  -3  -6   14.35    5.76
  -3   9  -6    8.52    4.50
   3  -9   6   12.33    5.10
  -9   6   6    9.15    4.63
  -6  -2  -6   14.00    5.05
  -2   8  -6    7.66    2.00
  -2   8  -6    9.85    3.74
  -2   8  -6    5.70    4.08
  -8   6   6    9.28    4.13
   2  -8   6    2.43    3.81
  -1   7  -6   -2.86    2.02
  -1   7  -6    4.02    3.20
  -6  -1  -6    3.61    3.61
  -1   7  -6    0.92    1.44
   1  -7   6   -1.04    3.76
  -7   6   6    4.51    3.29
   0   6  -6   56.27    6.76
   0   6  -6   48.71    4.81
   0   6  -6   50.49    6.33
  -6   0  -6   42.25    6.91
  -6   6   6   65.88    7.52
   0  -6   6   55.81    7.97
  -6   6   6   57.95    7.15
  -6   1  -6   14.06    4.60
   1   5  -6   13.17    3.66
   1   5  -6   11.04    2.77
   1   5  -6    9.13    3.78
  -5   6   6   10.61    3.39
  -1  -5   6    5.32    4.14
  -5   6   6    5.88    3.06
  -1  -5   6   10.37    4.03
  -6   2  -6   -6.03    2.41
   2   4  -6    0.48    2.34
   2   4  -6    4.19    2.19
  -6   2  -6    0.77    2.38
  -6   2  -6    1.52    2.22
  -2  -4   6   -4.32    2.24
  -2  -4   6    3.53    3.62
  -4   6   6    1.17    2.57
  -4   6   6   -2.38    1.59
  -6   3  -6   20.76    4.87
   3   3  -6   21.43    3.78
  -6   3  -6   29.67    4.72
  -6   3  -6   21.63    5.39
  -3  -3   6   33.98    6.10
  -3   6   6   26.23    4.22
  -3  -3   6   21.33    5.44
  -3   6   6   39.03    5.99
   4   2  -6   -0.29    1.77
  -6   4  -6    0.76    2.49
  -6   4  -6    0.73    2.93
  -6   4  -6    1.96    2.15
  -2   6   6    3.32    2.05
  -2   6   6   -0.26    2.44
  -4  -2   6   -1.42    3.13
  -4  -2   6    4.00    3.20
  -6   5  -6    4.26    3.65
  -6   5  -6   11.38    3.83
  -6   5  -6   10.86    3.05
  -1   6   6   22.61    4.52
  -5  -1   6   13.24    4.91
  -5  -1   6    6.17    3.89
  -1   6   6   10.75    2.83
  -6   6  -6   38.80    4.91
  -6   6  -6   58.03    7.22
  -6   6  -6   41.69    6.49
   0   6   6   49.32    6.89
  -6   0   6   45.93    7.35
  -6   7  -6    0.76    1.88
  -6   7  -6    2.28    3.12
  -6   7  -6    3.89    2.70
  -7   1   6    9.23    4.20
  -6   8  -6    5.18    2.06
  -6   8  -6    5.78    3.52
  -6   8  -6    8.84    3.43
  -8   2   6   14.21    5.12
  -6   9  -6   10.65    2.40
  -6   9  -6    8.04    4.01
  -6   9  -6   12.95    4.09
  -9   3   6    8.00    4.27
  -6  10  -6    5.37    3.41
  -6  10  -6    5.51    4.01
  -6  10  -6    6.32    1.71
 -10   4   6    1.30    3.63
  -6  11  -6   -2.58    2.37
  -6  11  -6    6.76    3.95
  -6  11  -6    5.18    1.50
 -11   5   6   11.88    5.28
  -4  11  -6    6.61    4.27
  -4  11  -6    2.04    3.09
  -7  -4  -6    0.15    3.84
  -4  11  -6    7.20    1.95
   4 -11   6    7.51    4.25
   4 -11   6   -1.09    3.98
 -11   7   6    1.31    4.45
  -7  -3  -6    1.97    4.14
  -3  10  -6    2.21    1.49
  -3  10  -6    1.00    3.78
  -3  10  -6   -1.41    2.50
   3 -10   6   -0.34    2.79
   3 -10   6    1.33    4.27
 -10   7   6    3.73    4.48
  -7  -2  -6    2.24    3.86
  -2   9  -6    4.12    3.93
  -2   9  -6   -0.57    2.50
  -2   9  -6    0.55    1.57
   2  -9   6   -2.89    2.75
  -9   7   6    5.72    4.08
   2  -9   6    0.08    3.87
  -7  -1  -6    6.03    4.18
  -1   8  -6    4.24    3.13
  -1   8  -6    6.49    3.98
  -1   8  -6    1.06    1.57
  -8   7   6    5.94    4.02
   1  -8   6   -0.66    4.16
   1  -8   6    2.56    3.60
  -8   7   6    9.21    4.34
   0   7  -6    3.69    3.53
   0   7  -6    2.48    3.00
  -7   0  -6    1.99    3.37
   0   7  -6    2.44    1.95
  -7   7   6   -0.39    2.45
   0  -7   6    1.29    4.41
  -7   7   6    3.19    3.86
   0  -7   6    2.31    3.69
   1   6  -6    4.92    2.88
   1   6  -6    4.84    2.34
   1   6  -6    5.99    3.53
  -7   1  -6    2.08    3.31
  -1  -6   6    5.14    3.97
  -6   7   6    1.03    3.02
  -6   7   6    4.76    3.24
  -1  -6   6    2.53    3.59
   2   5  -6    8.30    2.99
  -7   2  -6    7.79    3.55
  -7   2  -6    5.49    3.70
  -7   2  -6   10.62    4.58
  -5   7   6    8.09    3.04
  -5   7   6   22.09    4.95
  -2  -5   6   10.57    4.69
  -2  -5   6    6.04    4.06
  -7   3  -6    1.53    2.41
   3   4  -6    4.46    2.56
  -7   3  -6    1.18    3.97
  -7   3  -6    7.91    3.36
  -4   7   6    2.35    2.23
  -3  -4   6    8.23    4.01
  -4   7   6    9.59    3.66
  -3  -4   6    0.92    2.80
  -7   4  -6    6.79    3.29
  -7   4  -6    5.38    3.40
  -7   4  -6   10.56    4.74
   4   3  -6    6.53    2.80
  -3   7   6    4.78    2.35
  -4  -3   6    3.47    3.82
  -3   7   6    9.56    3.57
  -4  -3   6    7.71    4.02
  -7   5  -6    4.90    2.93
  -7   5  -6   16.11    4.91
  -7   5  -6    4.76    3.18
  -2   7   6    2.53    2.78
  -2   7   6   12.28    2.98
  -5  -2   6   12.84    4.60
  -5  -2   6    8.16    4.48
  -7   6  -6    5.83    3.30
  -7   6  -6    4.17    3.98
  -7   6  -6    9.36    3.37
  -1   7   6    0.38    2.62
  -6  -1   6   -0.97    3.09
  -7   7  -6    2.30    2.42
  -7   7  -6    2.18    3.51
  -7   7  -6    6.98    3.52
  -7   0   6    9.80    4.79
   0   7   6    7.18    4.05
  -7   8  -6   -2.69    2.88
  -7   8  -6    4.04    2.81
  -7   8  -6    1.70    2.24
  -8   1   6    4.25    3.86
  -7   9  -6   -1.52    2.28
  -7   9  -6   -1.48    1.61
  -7   9  -6   -1.15    2.92
  -9   2   6    4.23    4.46
  -7  10  -6    2.81    1.70
  -7  10  -6   -1.40    2.33
  -7  10  -6    2.95    3.85
 -10   3   6    0.47    4.27
  -7  11  -6    1.80    3.56
  -7  11  -6   10.90    4.20
  -7  11  -6    9.57    2.02
 -11   4   6    3.81    4.91
  -3  11  -6    0.79    3.27
  -3  11  -6    1.71    1.89
  -8  -3  -6    1.22    3.76
 -11   8   6    4.84    4.72
   3 -11   6    2.30    4.28
  -2  10  -6   -1.11    1.39
  -2  10  -6    1.35    3.24
  -8  -2  -6   -1.59    3.35
  -2  10  -6   -3.48    3.61
 -10   8   6   -4.49    3.60
   2 -10   6   -3.95    4.01
   2 -10   6    2.28    3.74
  -8  -1  -6   -2.02    3.30
  -1   9  -6    3.28    3.96
  -1   9  -6    0.95    1.85
  -9   8   6    2.90    4.02
   1  -9   6    3.44    3.84
   1  -9   6   -3.06    4.18
  -9   8   6    6.29    4.49
   0   8  -6   -1.78    3.25
  -8   0  -6    2.87    3.55
   0   8  -6    2.58    2.06
  -8   8   6    6.50    4.01
   0  -8   6    6.48    4.86
   0  -8   6    6.98    4.56
  -8   8   6   -2.10    3.22
  -8   1  -6    6.57    3.90
   1   7  -6    5.08    2.36
  -7   8   6    6.70    3.92
  -1  -7   6    0.67    3.76
  -1  -7   6    2.90    4.30
  -7   8   6    1.37    3.06
  -8   2  -6   10.54    4.17
  -8   2  -6    1.12    4.54
   2   6  -6    6.42    2.89
  -6   8   6    7.56    3.91
  -6   8   6    6.56    3.59
  -2  -6   6   -0.84    3.07
  -2  -6   6    4.11    4.05
  -8   3  -6    1.58    3.54
   3   5  -6    5.92    2.82
  -8   3  -6    3.03    4.38
  -8   3  -6    0.29    2.55
  -5   8   6   -2.28    2.60
  -3  -5   6    3.90    4.20
  -5   8   6    2.08    2.33
  -3  -5   6    1.84    4.04
  -8   4  -6    3.47    4.48
  -8   4  -6    1.25    3.22
  -8   4  -6    5.28    3.54
   4   4  -6    6.12    3.28
  -4   8   6    3.54    3.19
  -4  -4   6    3.20    4.04
  -4  -4   6    6.36    4.44
  -4   8   6    5.01    2.72
  -8   5  -6   -0.98    2.76
  -8   5  -6    0.06    3.82
   5   3  -6    4.19    3.13
  -8   5  -6    1.27    2.98
  -3   8   6   -0.91    1.79
  -5  -3   6    3.04    4.15
  -5  -3   6    1.48    3.21
  -3   8   6    3.29    3.21
  -8   6  -6   14.98    5.81
  -8   6  -6    2.34    3.14
  -8   6  -6    8.97    3.81
  -2   8   6    2.82    3.07
  -6  -2   6   18.20    5.64
  -6  -2   6    5.22    4.30
  -8   7  -6    2.39    3.03
  -8   7  -6   -1.81    2.33
  -8   7  -6    1.35    3.55
  -1   8   6    2.81    3.10
  -7  -1   6    0.76    3.65
  -8   8  -6    3.17    3.81
  -8   8  -6    5.30    3.36
  -8   8  -6    4.95    3.18
   0   8   6   -0.97    3.05
  -8   0   6   -0.22    3.81
  -8   9  -6    1.21    4.00
  -8   9  -6    2.70    2.92
  -8   9  -6    1.94    2.46
  -9   1   6    0.67    4.28
  -8  10  -6    5.44    3.25
  -8  10  -6    4.22    3.94
  -8  10  -6    2.04    1.98
 -10   2   6    6.67    5.18
  -8  11  -6    0.15    1.55
  -8  11  -6    2.84    3.39
  -8  11  -6    2.23    3.99
 -11   3   6    7.08    5.42
  -9  -1  -6    1.32    3.87
  -1  10  -6   -0.46    2.01
 -10   9   6    5.92    4.92
   1 -10   6   -5.82    3.01
 -10   9   6   -2.32    3.79
  -9   0  -6   11.18    4.59
   0   9  -6    9.02    3.00
   0  -9   6    7.54    5.09
   0  -9   6    8.12    5.66
  -9   9   6   10.58    5.21
  -9   9   6    7.10    4.38
   1   8  -6    3.87    2.71
  -9   1  -6    3.02    3.36
  -1  -8   6    2.49    4.66
  -1  -8   6   -0.83    4.28
  -8   9   6   -0.93    3.28
  -8   9   6    0.31    3.75
  -9   2  -6   -2.73    2.51
   2   7  -6   -1.65    2.12
  -2  -7   6   -1.80    3.91
  -2  -7   6    1.26    4.28
  -7   9   6    1.16    2.85
  -7   9   6   -0.56    3.09
  -9   3  -6    8.63    6.23
  -9   3  -6   18.43    5.39
   3   6  -6    5.41    3.13
  -6   9   6    8.71    4.15
  -6   9   6    9.40    3.72
  -3  -6   6    3.44    4.45
  -3  -6   6   13.61    5.27
   4   5  -6    1.07    2.94
  -9   4  -6    0.96    3.33
  -9   4  -6    0.73    3.58
  -9   4  -6    7.52    5.44
  -5   9   6   -2.12    2.86
  -5   9   6    0.03    2.31
  -4  -5   6   -2.75    3.34
  -4  -5   6    3.86    4.11
  -9   5  -6   -0.31    3.15
  -9   5  -6    3.36    3.64
   5   4  -6    2.04    3.06
  -9   5  -6    2.52    4.38
  -4   9   6    5.49    3.67
  -5  -4   6   -2.42    3.54
  -5  -4   6    3.23    4.01
  -9   6  -6   15.42    4.98
  -9   6  -6   14.67    4.98
  -9   6  -6    1.56    4.76
  -6  -3   6    3.79    4.31
  -6  -3   6   13.42    5.00
  -3   9   6   11.66    4.11
  -9   7  -6   -0.12    3.25
  -9   7  -6    3.65    3.47
  -9   7  -6    0.73    3.66
  -2   9   6   -0.79    2.93
  -7  -2   6    0.48    3.86
  -9   8  -6   -1.92    2.64
  -9   8  -6    1.65    3.29
  -9   8  -6    1.73    4.06
  -1   9   6    1.39    2.85
  -8  -1   6    2.56    4.26
  -9   9  -6   14.78    5.47
  -9   9  -6   10.60    3.75
  -9   9  -6   10.69    4.21
  -9   0   6    6.64    4.57
   0   9   6    7.56    3.93
  -9  10  -6    0.70    2.72
  -9  10  -6   -2.57    4.04
  -9  10  -6    3.78    2.67
 -10   1   6    8.92    5.41
 -10   0  -6   11.08    5.02
   0  10  -6    7.22    3.14
 -10  10   6   15.87    6.29
 -10  10   6    3.52    4.18
   0 -10   6   -0.06    4.46
   1   9  -6   -0.40    2.26
 -10   1  -6    2.18    3.65
  -1  -9   6    9.63    5.54
  -9  10   6    0.50    3.48
  -9  10   6    3.44    4.01
 -10   2  -6    2.91    3.20
   2   8  -6    2.31    2.69
  -8  10   6    2.29    3.75
  -2  -8   6   -0.12    4.12
  -8  10   6    3.09    3.34
  -2  -8   6   -1.65    4.25
   3   7  -6    2.89    2.80
 -10   3  -6   -0.77    2.85
 -10   3  -6    2.29    5.23
  -3  -7   6    4.40    4.68
  -7  10   6   -0.61    3.42
  -3  -7   6   -7.48    3.41
  -7  10   6    5.41    3.78
 -10   4  -6   -3.09    4.50
   4   6  -6    1.08    3.15
 -10   4  -6    6.43    3.52
  -6  10   6    2.94    3.65
  -4  -6   6    2.50    4.35
  -6  10   6    8.54    3.67
  -4  -6   6   -0.50    3.87
 -10   5  -6    9.30    4.36
   5   5  -6   -0.10    3.20
 -10   5  -6   -0.99    4.59
 -10   5  -6    5.00    4.03
  -5  -5   6    0.47    3.84
  -5  -5   6    3.36    4.13
  -5  10   6    2.85    3.19
 -10   6  -6   -1.58    2.87
 -10   6  -6   15.91    4.83
 -10   6  -6    6.29    5.07
  -6  -4   6    5.40    4.58
  -6  -4   6    2.21    4.38
  -4  10   6    5.84    3.93
 -10   7  -6    2.41    3.26
 -10   7  -6   -2.56    3.14
 -10   7  -6    0.45    4.84
  -7  -3   6    0.82    3.98
  -3  10   6   -1.42    2.81
  -7  -3   6    0.04    3.63
 -10   8  -6   -2.42    2.85
 -10   8  -6    1.89    3.15
 -10   8  -6    0.11    4.11
  -2  10   6    3.37    3.00
  -8  -2   6   -0.62    3.87
 -10   9  -6   -0.89    3.79
 -10   9  -6   -1.82    2.97
 -10   9  -6   -1.94    2.67
  -1  10   6    2.09    2.98
  -9  -1   6    9.68    5.61
 -10  10  -6    5.64    3.73
 -10  10  -6    2.64    3.26
 -10  10  -6    3.92    4.74
   0  10   6    2.91    3.34
 -10   0   6   12.84    5.91
   3   8  -6   -0.72    2.87
 -11   3  -6   -0.52    3.02
  -3  -8   6   -1.22    4.38
  -3  -8   6   -2.61    4.61
  -8  11   6    1.28    3.13
  -8  11   6   -0.33    3.62
   4   7  -6    6.51    3.95
 -11   4  -6   10.80    6.24
 -11   4  -6    8.70    3.92
  -4  -7   6    4.33    4.84
  -4  -7   6    1.17    4.75
  -7  11   6   13.44    4.77
  -7  11   6    6.40    4.37
   5   6  -6   -0.41    3.46
 -11   5  -6    3.24    4.34
 -11   5  -6    0.07    2.82
 -11   5  -6   -4.90    4.47
  -6  11   6    6.10    4.29
  -5  -6   6    2.91    4.86
  -5  -6   6    5.52    4.75
 -11   6  -6    3.52    4.82
 -11   6  -6    1.18    3.49
 -11   6  -6    1.23    3.32
  -6  -5   6    3.31    4.40
  -6  -5   6    7.55    4.90
  -5  11   6    2.95    3.68
 -11   7  -6   11.61    5.95
 -11   7  -6   10.10    4.83
 -11   7  -6   14.49    4.93
  -7  -4   6    6.37    5.09
  -7  -4   6    4.29    4.45
  -4  11   6   11.85    4.51
 -11   8  -6    3.48    3.77
 -11   8  -6   -0.49    3.06
 -11   8  -6   -3.08    3.84
  -8  -3   6    4.70    5.06
  -3  11   6    4.34    3.26
  -8  -3   6    2.81    4.56
   0   0  -7    3.38    2.27
   0   0  -7    1.45    2.34
   0   0  -7   -0.03    1.81
   0   0   7   -0.39    2.33
  -1   0  -7    5.20    2.74
   1  -1  -7    6.02    2.64
  -1   0  -7    4.37    2.41
   0   1  -7    5.47    2.61
   0   1  -7    5.33    2.33
   0   1  -7    6.39    2.99
  -1   1   7    6.28    3.08
  -1   1   7    8.45    3.21
   1   0   7    8.13    3.30
   0  -1   7    0.75    2.97
  -1   1  -7    2.21    2.15
   1   0  -7    4.43    2.74
  -1   1  -7    3.76    2.42
  -1   1  -7    3.23    2.75
  -1   0   7    6.40    3.41
   1  -1   7    6.65    3.16
  -1   2  -7  269.17   13.21
  -1   2  -7  275.36   13.27
  -1  -1  -7  261.54   13.20
  -1   2  -7  270.02   11.65
  -2   1   7  255.04   13.02
  -2   1   7  273.63   13.62
  -1   3  -7   14.67    4.17
  -1   3  -7    7.98    2.94
  -1   3  -7   15.00    2.88
  -2  -1  -7    6.02    2.91
  -3   2   7    9.43    3.46
  -3   2   7   13.60    3.64
   1  -3   7   13.84    4.17
   0   2  -7    3.16    2.67
   0   2  -7    6.49    2.58
   0   2  -7    5.74    2.12
  -2   0  -7    9.82    3.26
  -2   2   7    9.84    3.19
   0  -2   7    5.45    3.70
   1   1  -7  274.80   11.90
   1   1  -7  260.13   12.98
  -2   1  -7  280.64   12.19
  -2   1  -7  251.92   13.48
  -2   1  -7  269.91   12.66
   1   1  -7  276.42   12.52
  -1  -1   7  251.26   14.10
  -1   2   7  252.53   13.26
  -2   2  -7    5.96    2.22
  -2   2  -7    4.81    2.52
  -2   2  -7    8.39    3.20
  -2   0   7    6.76    3.38
  -2   0   7    8.25    3.20
   0   2   7    6.08    3.15
  -2   3  -7   13.20    4.05
  -2   3  -7    7.76    2.95
  -2   3  -7    7.83    2.36
  -3   1   7   12.52    3.73
  -3   1   7   11.55    3.57
  -2   4  -7   52.50    4.96
  -2   4  -7   56.30    6.73
  -2   4  -7   52.54    6.77
  -4   2   7   53.99    6.39
  -4   2   7   75.79    7.47
  -2   5  -7   10.67    2.32
  -2   5  -7   10.43    3.22
  -3  -2  -7   15.52    4.47
  -2   5  -7   25.39    5.12
   2  -5   7    4.66    4.10
  -5   3   7    9.81    3.35
  -3  -1  -7   40.37    6.02
  -1   4  -7   46.05    6.03
  -1   4  -7   36.71    4.05
  -1   4  -7   34.35    5.89
   1  -4   7   35.34    6.47
  -4   3   7   33.30    5.11
   0   3  -7    8.41    2.40
   0   3  -7   -2.62    2.31
   0   3  -7    3.91    2.67
  -3   0  -7    3.18    2.98
   0  -3   7   11.01    4.07
  -3   3   7    0.86    2.03
   1   2  -7    8.66    2.53
   1   2  -7   13.73    4.25
  -3   1  -7   13.07    3.32
  -3   1  -7   11.62    2.97
  -3   1  -7    9.85    3.68
   1   2  -7   10.32    3.36
  -1  -2   7    9.09    4.09
  -2   3   7    9.63    3.46
  -3   2  -7    4.79    2.83
   2   1  -7   12.85    3.18
  -3   2  -7    9.89    2.78
  -3   2  -7   13.59    3.79
   2   1  -7   12.12    3.05
  -2  -1   7    6.82    3.33
  -1   3   7    6.05    2.86
  -2  -1   7   15.79    4.84
  -3   3  -7    6.33    2.38
  -3   3  -7    4.91    3.01
  -3   3  -7    6.39    2.98
  -3   0   7    2.01    3.33
  -3   0   7    4.49    2.78
   0   3   7    2.55    2.68
  -3   4  -7   47.13    6.51
  -3   4  -7   43.13    4.89
  -3   4  -7   45.12    6.02
   1   3   7   36.19    5.43
  -4   1   7   32.59    5.24
  -4   1   7   40.11    6.01
  -3   5  -7    4.26    2.55
  -3   5  -7   18.52    3.10
  -3   5  -7   14.77    4.00
  -5   2   7   10.37    3.49
  -5   2   7   16.27    4.28
   2   3   7   12.52    3.47
  -3   6  -7    1.92    2.87
  -3   6  -7    2.49    1.62
  -3   6  -7    1.24    2.20
  -6   3   7   -0.25    2.48
  -6   3   7   -1.05    2.36
  -4  -3  -7   56.48    9.05
  -3   7  -7   66.85    8.17
  -3   7  -7   69.35    4.96
  -3   7  -7   74.42    8.18
  -7   4   7   73.27    8.75
   3  -7   7   71.47   10.35
  -2   6  -7   21.02    4.99
  -2   6  -7   35.07    5.77
  -4  -2  -7   14.07    5.13
  -2   6  -7   26.89    3.64
  -6   4   7   20.39    4.67
   2  -6   7   21.18    5.91
  -1   5  -7   67.33    7.49
  -1   5  -7   85.46    8.53
  -1   5  -7   74.67    5.42
  -4  -1  -7   68.11    8.53
  -5   4   7   90.55    7.36
   1  -5   7   80.63    9.90
   0   4  -7   66.93    7.43
  -4   0  -7   70.92    8.44
   0   4  -7   60.58    7.19
   0   4  -7   74.36    5.36
  -4   4   7   69.98    7.61
   0  -4   7   57.11    7.72
   1   3  -7   38.35    4.64
  -4   1  -7   36.75    6.25
  -4   1  -7   33.16    4.70
   1   3  -7   38.32    5.75
  -4   1  -7   43.23    5.72
   1   3  -7   48.74    6.22
  -3   4   7   48.57    6.19
  -1  -3   7   44.31    7.51
  -4   2  -7   65.22    7.63
  -4   2  -7   66.57    6.68
  -4   2  -7   58.97    7.57
   2   2  -7   72.58    7.14
   2   2  -7   56.93    5.69
  -2  -2   7   59.47    6.90
  -2  -2   7   54.30    7.60
  -2   4   7   65.20    6.83
  -4   3  -7   32.80    4.51
  -4   3  -7   47.67    6.80
  -4   3  -7   42.14    6.26
  -1   4   7   38.31    5.19
  -3  -1   7   38.98    6.18
  -3  -1   7   37.31    5.29
  -4   4  -7   74.31    5.80
  -4   4  -7   72.93    8.16
  -4   4  -7   68.68    7.55
  -4   0   7   63.68    6.88
  -4   0   7   65.35    7.86
  -4   5  -7   83.73    5.92
  -4   5  -7   81.09    8.83
  -4   5  -7   87.14    8.66
   1   4   7   80.09    6.79
  -5   1   7   64.20    7.31
  -5   1   7   86.46    9.00
  -4   6  -7   15.41    2.91
  -4   6  -7   17.70    4.74
  -4   6  -7   20.67    4.39
  -6   2   7   21.75    4.59
  -6   2   7   21.91    5.05
  -4   7  -7   74.20    7.83
  -4   7  -7   68.34    5.13
  -4   7  -7   69.22    8.61
  -7   3   7   68.36    8.26
  -7   3   7   51.96    7.62
  -4   8  -7    4.27    3.05
  -4   8  -7    5.16    3.77
  -4   8  -7    4.65    1.90
  -8   4   7    8.10    4.01
  -8   4   7    7.66    4.28
  -4   9  -7    2.18    2.87
  -4   9  -7    1.41    3.21
  -4   9  -7    0.70    1.45
  -9   5   7    3.28    3.88
   4  -9   7    3.95    4.71
  -5  -3  -7   18.49    6.03
  -3   8  -7   21.85    3.34
  -3   8  -7   14.78    4.12
  -3   8  -7   20.10    5.30
  -8   5   7   13.61    4.87
   3  -8   7   15.61    5.68
  -2   7  -7   39.63    6.58
  -2   7  -7   28.30    5.42
  -2   7  -7   32.80    3.96
  -5  -2  -7   36.02    7.72
   2  -7   7   27.24    7.00
  -7   5   7   25.57    5.63
  -1   6  -7   14.15    2.93
  -5  -1  -7    1.92    3.81
  -1   6  -7   17.90    4.57
  -1   6  -7    8.52    3.17
   1  -6   7   21.60    6.08
  -6   5   7   17.13    4.40
  -5   0  -7   58.23    8.24
   0   5  -7   78.87    8.16
   0   5  -7   72.16    5.59
   0   5  -7   67.45    7.77
  -5   5   7   62.12    7.12
   0  -5   7   61.52    8.34
   1   4  -7   90.85    6.26
   1   4  -7   85.16    8.51
  -5   1  -7   83.11    9.64
   1   4  -7   68.48    7.95
  -1  -4   7   80.71   10.04
  -4   5   7   74.69    7.91
   2   3  -7    8.73    3.17
  -5   2  -7   12.55    4.06
  -5   2  -7    7.64    3.08
  -5   2  -7   10.25    3.96
   2   3  -7   14.75    3.20
  -2  -3   7    4.34    3.21
  -2  -3   7    8.04    4.19
  -3   5   7   16.41    3.72
  -5   3  -7   17.78    3.80
  -5   3  -7    5.29    3.28
   3   2  -7   14.97    3.81
   3   2  -7   10.33    2.90
  -5   3  -7   16.43    4.83
  -3  -2   7   16.73    4.40
  -3  -2   7   13.08    4.68
  -2   5   7   13.02    3.42
  -5   4  -7   83.43    9.33
  -5   4  -7   86.77    6.83
  -5   4  -7   91.37    9.89
  -4  -1   7   82.31    9.62
  -1   5   7   95.74    7.13
  -5   5  -7   53.93    5.76
  -5   5  -7   55.69    7.76
  -5   5  -7   74.95    8.67
  -5   0   7   57.80    6.73
  -5   0   7   71.44    8.77
   0   5   7   68.00    7.07
  -5   6  -7   14.21    3.18
  -5   6  -7   11.34    4.13
  -5   6  -7   10.66    3.57
  -6   1   7   10.56    3.46
  -6   1   7   12.91    4.49
  -5   7  -7   23.12    4.64
  -5   7  -7   57.19    7.71
  -5   7  -7   25.95    3.71
  -7   2   7   20.98    5.48
  -7   2   7   28.98    5.68
  -5   8  -7   21.39    5.58
  -5   8  -7   17.18    4.12
  -5   8  -7   26.81    3.59
  -8   3   7   20.28    5.24
  -8   3   7   18.89    5.57
  -5   9  -7    0.38    1.54
  -5   9  -7    0.67    2.62
  -5   9  -7    0.66    3.62
  -9   4   7   -0.76    3.38
  -9   4   7   -2.39    3.01
  -5  10  -7   10.92    2.24
  -5  10  -7    4.72    4.17
  -5  10  -7    7.62    3.87
 -10   5   7   13.25    5.37
   5 -10   7   11.07    5.31
 -10   5   7   13.11    6.03
  -4  10  -7   36.83    6.57
  -4  10  -7   37.69    3.83
  -4  10  -7   26.56    6.28
 -10   6   7   25.81    7.56
   4 -10   7   36.22    7.97
  -3   9  -7    1.16    1.54
  -3   9  -7    3.78    4.22
  -3   9  -7   -0.18    2.64
  -6  -3  -7    2.85    4.24
   3  -9   7    2.29    4.32
  -9   6   7    5.41    4.53
  -2   8  -7   11.32    2.65
  -2   8  -7    8.47    3.68
  -6  -2  -7   11.31    5.80
  -2   8  -7   12.15    4.75
   2  -8   7    9.49    5.50
  -8   6   7   10.53    4.43
  -6  -1  -7   40.60    8.18
  -1   7  -7   39.03    4.56
  -1   7  -7   33.62    5.65
  -1   7  -7   32.11    5.96
   1  -7   7   59.11    9.50
  -7   6   7   57.61    7.70
   0   6  -7   -1.06    1.86
   0   6  -7   -3.20    1.92
   0   6  -7   -2.84    3.04
  -6   0  -7   -3.07    2.97
   0  -6   7    5.19    4.63
  -6   6   7   -2.93    2.17
   1   5  -7   11.18    3.69
  -6   1  -7   11.04    4.32
   1   5  -7    8.89    3.85
   1   5  -7   17.17    3.43
  -5   6   7   12.97    3.88
  -1  -5   7   14.58    5.14
  -1  -5   7   20.71    6.06
   2   4  -7   22.18    4.82
  -6   2  -7   29.42    6.52
   2   4  -7   24.55    4.18
  -6   2  -7   29.54    5.31
  -6   2  -7   19.09    5.38
  -2  -4   7   28.41    6.28
  -4   6   7   24.24    4.67
  -2  -4   7   18.75    5.05
  -6   3  -7    0.77    2.40
  -6   3  -7    5.09    3.78
   3   3  -7    3.21    2.30
  -6   3  -7   -1.18    2.38
  -3  -3   7   -0.11    3.61
  -3   6   7    5.59    2.81
  -3  -3   7   -0.78    2.49
  -6   4  -7   24.34    4.63
  -6   4  -7   28.21    5.82
  -6   4  -7   25.26    5.92
  -2   6   7   18.28    3.87
  -4  -2   7   17.37    5.02
  -4  -2   7   20.44    5.70
  -6   5  -7    4.83    2.98
  -6   5  -7   18.53    5.34
  -6   5  -7   12.81    4.24
  -1   6   7   16.91    3.73
  -5  -1   7   17.33    5.36
  -6   6  -7   -1.55    1.93
  -6   6  -7   -0.03    2.99
  -6   6  -7   -0.04    2.35
  -6   0   7   -1.50    3.35
  -6   7  -7   48.44    5.43
  -6   7  -7   41.68    6.31
  -6   7  -7   33.49    6.40
  -7   1   7   36.56    7.04
  -6   8  -7    4.10    3.52
  -6   8  -7   15.31    4.18
  -6   8  -7   10.78    2.94
  -8   2   7    3.58    4.13
  -6   9  -7   -0.18    1.42
  -6   9  -7   -2.76    1.99
  -6   9  -7   -4.17    3.13
  -9   3   7    3.25    4.16
  -6  10  -7   55.06    8.30
  -6  10  -7   35.81    6.55
  -6  10  -7   31.01    3.60
 -10   4   7   30.68    7.48
  -3  10  -7   27.49    3.51
  -3  10  -7   15.26    5.52
  -7  -3  -7   22.57    6.71
  -3  10  -7   20.84    5.03
   3 -10   7   29.40    6.29
   3 -10   7   29.52    7.56
 -10   7   7   18.20    6.55
  -2   9  -7    7.10    4.60
  -2   9  -7   15.60    4.49
  -7  -2  -7   12.36    5.66
  -2   9  -7   18.40    3.06
  -9   7   7    4.30    4.67
   2  -9   7   22.22    7.01
   2  -9   7   13.85    4.92
  -7  -1  -7    6.69    4.51
  -1   8  -7    1.77    2.94
  -1   8  -7    4.31    2.18
  -1   8  -7    7.85    4.79
   1  -8   7   -0.73    4.82
  -8   7   7    8.58    4.44
   1  -8   7    7.38    4.43
   0   7  -7   58.82    7.90
   0   7  -7   57.14    7.78
   0   7  -7   57.82    5.71
  -7   0  -7   45.38    8.39
  -7   7   7   65.39    8.70
   0  -7   7   46.47    8.15
   0  -7   7   59.13    9.49
   1   6  -7   49.49    5.66
  -7   1  -7   44.96    8.59
   1   6  -7   31.97    6.06
  -6   7   7   49.92    7.15
  -1  -6   7   29.21    6.52
  -1  -6   7   45.70    8.28
  -7   2  -7   21.73    5.44
   2   5  -7   30.69    4.92
  -2  -5   7   33.87    7.23
  -5   7   7   32.17    5.67
  -2  -5   7   26.55    6.33
   3   4  -7   61.54    6.60
  -7   3  -7   79.90   10.25
  -7   3  -7   81.27    8.52
  -7   3  -7   58.24    9.05
  -3  -4   7   70.50    9.60
  -3  -4   7   48.19    7.96
  -4   7   7   60.94    7.05
  -7   4  -7   61.81    8.56
   4   3  -7   74.26    7.76
  -7   4  -7   69.51    8.13
  -7   4  -7   75.76   10.28
  -4  -3   7   58.92    8.65
  -4  -3   7   73.00    9.45
  -3   7   7   60.38    6.70
  -7   5  -7   38.46    7.61
  -7   5  -7   33.84    6.55
  -7   5  -7   39.10    6.30
  -2   7   7   33.16    5.03
  -5  -2   7   31.66    7.00
  -7   6  -7   37.79    7.59
  -7   6  -7   52.37    8.07
  -7   6  -7   47.67    6.39
  -6  -1   7   58.98    8.88
  -7   7  -7   65.66    8.57
  -7   7  -7   45.75    8.07
  -7   7  -7   57.17    6.64
  -7   0   7   47.37    8.55
  -7   8  -7   11.85    4.87
  -7   8  -7   12.45    4.18
  -7   8  -7   13.89    3.36
  -8   1   7    9.99    5.07
  -7   9  -7   16.49    3.29
  -7   9  -7   16.42    4.68
  -7   9  -7   16.80    5.45
  -9   2   7   16.26    6.03
  -7  10  -7   15.96    5.50
  -7  10  -7   23.14    5.26
  -7  10  -7   28.25    3.69
 -10   3   7    8.37    5.37
  -2  10  -7    1.14    1.90
  -8  -2  -7    2.24    4.18
  -2  10  -7    3.47    4.55
  -2  10  -7    4.37    3.48
   2 -10   7    1.32    3.89
 -10   8   7    8.67    5.08
   2 -10   7    0.90    5.34
  -1   9  -7    8.23    4.82
  -8  -1  -7   10.41    5.03
  -1   9  -7   10.49    2.87
  -1   9  -7    3.44    3.41
   1  -9   7    5.81    4.44
  -9   8   7   10.84    4.83
   1  -9   7    6.63    5.38
   0   8  -7   18.13    3.56
  -8   0  -7   31.13    7.55
   0  -8   7   23.15    7.28
  -8   8   7   34.67    7.15
   0  -8   7   20.58    6.48
   1   7  -7   10.50    3.26
  -8   1  -7    7.53    4.81
  -1  -7   7    9.25    5.36
  -1  -7   7    9.42    4.98
  -7   8   7    6.04    3.66
  -8   2  -7   13.97    5.10
   2   6  -7   10.27    3.40
  -6   8   7    7.31    4.50
  -6   8   7    9.08    3.77
  -2  -6   7    5.35    4.50
  -2  -6   7    4.83    4.40
  -8   3  -7   19.15    6.52
  -8   3  -7   24.22    6.43
   3   5  -7   13.68    4.08
  -8   3  -7   19.62    5.39
  -3  -5   7   23.66    6.95
  -3  -5   7   22.62    6.54
  -5   8   7   22.54    5.81
  -5   8   7   20.44    5.03
   4   4  -7   -0.82    2.69
  -8   4  -7    4.96    3.94
  -8   4  -7    4.85    3.80
  -8   4  -7    1.12    4.46
  -4   8   7    4.96    2.85
  -4  -4   7   -1.01    3.44
  -4   8   7    9.95    4.35
  -4  -4   7    3.19    4.67
  -8   5  -7   14.60    5.14
  -8   5  -7   13.06    6.03
  -8   5  -7    5.67    4.04
  -5  -3   7   27.25    7.00
  -5  -3   7   15.01    5.52
  -3   8   7   15.63    5.21
  -3   8   7   25.54    5.00
  -8   6  -7   13.62    4.85
  -8   6  -7    8.99    4.20
  -8   6  -7   12.71    5.52
  -6  -2   7   12.27    5.29
  -8   7  -7    9.70    3.91
  -8   7  -7   -0.51    2.92
  -8   7  -7    8.09    4.56
  -7  -1   7    3.66    4.51
  -8   8  -7   18.83    6.07
  -8   8  -7   32.44    5.50
  -8   8  -7   23.64    5.32
  -8   0   7   22.86    6.78
  -8   9  -7    5.94    2.71
  -8   9  -7    7.31    3.67
  -8   9  -7    2.65    3.79
  -9   1   7   10.06    5.69
  -8  10  -7    2.15    2.07
  -8  10  -7   -0.64    2.65
  -8  10  -7   -3.65    3.21
 -10   2   7    2.12    4.52
  -9   0  -7   -3.13    3.67
   0   9  -7   -0.46    1.92
   0  -9   7   -4.77    4.31
  -9   9   7    1.06    3.99
   0  -9   7    4.33    4.71
   1   8  -7    5.51    2.86
  -9   1  -7   10.70    5.18
  -1  -8   7    8.90    5.64
  -1  -8   7    5.98    4.82
  -8   9   7    1.83    3.77
  -9   2  -7   18.03    5.55
   2   7  -7   18.53    4.15
  -7   9   7   19.61    5.72
  -7   9   7   21.59    5.96
  -2  -7   7   14.42    6.02
  -2  -7   7    9.36    5.65
  -9   3  -7    2.18    3.38
   3   6  -7    0.83    2.87
  -3  -6   7    5.78    4.77
  -6   9   7   -1.39    3.53
  -6   9   7   -1.16    2.74
  -3  -6   7   -2.89    4.09
  -9   4  -7    1.83    5.08
  -9   4  -7   -1.83    2.91
  -9   4  -7    3.18    3.86
   4   5  -7   -0.52    2.75
  -4  -5   7   -1.79    3.84
  -4  -5   7    0.33    4.02
  -5   9   7   -0.86    3.54
  -5   9   7    1.34    2.57
  -9   5  -7    6.42    4.07
  -9   5  -7   -1.14    3.18
  -9   5  -7    4.20    5.01
  -5  -4   7    2.77    4.15
  -4   9   7    5.93    3.57
  -5  -4   7    0.42    4.40
  -9   6  -7   -2.83    2.90
  -9   6  -7    2.34    4.02
  -9   6  -7   -1.34    4.45
  -6  -3   7    1.05    3.93
  -3   9   7   -3.92    3.23
  -6  -3   7    3.09    4.33
  -9   7  -7   15.77    5.16
  -9   7  -7   22.83    6.74
  -9   7  -7   14.91    4.96
  -7  -2   7   19.76    6.50
  -2   9   7   15.52    5.30
  -9   8  -7    9.19    5.34
  -9   8  -7   15.10    4.98
  -9   8  -7    5.88    3.54
  -8  -1   7    7.17    5.02
  -9   9  -7   -8.03    3.23
  -9   9  -7    1.03    2.70
  -9   9  -7    4.37    3.53
  -9   0   7   -3.44    4.19
 -10   2  -7   -0.09    2.92
   2   8  -7    0.15    2.49
  -2  -8   7    2.62    4.90
  -8  10   7   -0.42    4.09
  -2  -8   7    6.36    5.47
  -8  10   7    3.26    3.76
   3   7  -7   37.58    6.17
 -10   3  -7   22.76    6.12
  -3  -7   7   23.94    7.22
  -3  -7   7   25.65    7.95
  -7  10   7   23.50    5.76
  -7  10   7   26.77    6.79
 -10   4  -7   35.55    7.65
   4   6  -7   37.76    6.71
 -10   4  -7   30.31    9.04
  -6  10   7   32.08    6.44
  -6  10   7   24.58    6.31
  -4  -6   7   39.58    8.24
  -4  -6   7   33.93    8.34
 -10   5  -7   19.92    6.13
 -10   5  -7   13.52    6.61
   5   5  -7   16.82    4.98
 -10   5  -7    8.75    4.72
  -5  -5   7    7.95    5.36
  -5  -5   7   12.34    5.65
  -5  10   7   15.38    5.31
 -10   6  -7   29.12    6.84
 -10   6  -7   22.89    7.20
 -10   6  -7   28.47    6.58
  -6  -4   7   36.37    7.85
  -4  10   7   37.35    7.16
  -6  -4   7   33.65    7.58
 -10   7  -7   29.40    7.03
 -10   7  -7   17.86    7.37
 -10   7  -7   34.98    7.32
  -7  -3   7   27.29    7.49
 -10   8  -7    8.48    4.53
 -10   8  -7   -1.16    3.86
 -10   8  -7    1.87    3.47
  -2  10   7   -0.04    2.97
  -8  -2   7    4.00    4.66
   0   0  -8   22.92    4.27
   0   0   8   22.17    4.87
   0   1  -8   -1.09    2.07
   0   1  -8    0.36    1.82
   0   1  -8   -2.57    2.33
  -1   0  -8    3.63    2.59
   0  -1   8   -1.59    3.15
  -1   1   8   -0.98    2.76
   1   0  -8    0.19    2.51
  -1   1  -8    0.85    1.92
  -1   1  -8   -0.52    2.45
  -1   1  -8    0.49    2.43
  -1   0   8    2.25    3.39
  -1   0   8   -3.68    2.36
   0   1   8   -3.64    2.25
   1  -1   8    3.85    3.12
  -1   2  -8   90.14    7.39
  -1   2  -8   85.53    6.32
  -1   2  -8   90.90    7.75
  -2   1   8   80.43    8.37
   1  -2   8   99.01   10.23
  -1   3  -8   28.33    5.30
  -1   3  -8   32.76    5.42
  -1   3  -8   33.79    4.49
  -3   2   8   24.70    5.11
   1  -3   8   45.16    7.34
   0   2  -8    3.00    3.03
  -2   0  -8    3.57    2.90
   0   2  -8   -0.01    2.14
   0   2  -8    2.48    2.00
   0  -2   8    0.83    3.21
  -2   2   8   -1.68    2.18
   1   1  -8   84.00    8.44
  -2   1  -8   84.43    7.13
  -2   1  -8   89.71    8.82
  -2   1  -8   86.14    6.86
  -1  -1   8   96.13   10.13
   2  -1   8   62.42    7.55
  -1   2   8   98.19    9.39
  -1  -1   8   91.80    7.90
  -2   2  -8    1.58    2.32
  -2   2  -8    0.55    2.76
  -2   2  -8   -1.75    1.88
  -2   0   8   -0.14    2.62
   0   2   8   -3.41    2.08
  -2   0   8   -5.81    2.52
   2  -2   8    0.48    3.21
  -2   3  -8   28.74    5.58
  -2   3  -8   27.72    4.19
  -2   3  -8   30.80    5.45
  -3   1   8   30.08    5.43
   1   2   8   38.65    6.01
   2  -3   8   32.50    6.65
  -3   1   8   24.87    4.87
  -2   4  -8   37.34    4.56
  -2   4  -8   39.14    6.51
  -2   4  -8   37.70    5.66
  -4   2   8   33.96    5.66
   2  -4   8   21.72    5.77
  -2   5  -8    8.92    3.48
  -2   5  -8    7.27    4.18
  -2   5  -8   12.47    2.76
  -5   3   8   11.38    3.77
   2  -5   8   11.02    5.26
  -1   4  -8    4.65    3.64
  -3  -1  -8    7.90    3.66
  -1   4  -8    2.31    2.65
  -1   4  -8    3.62    2.17
  -4   3   8    5.74    3.16
   1  -4   8    0.95    3.49
   0   3  -8   68.72    6.43
   0   3  -8   85.94    8.63
   0   3  -8   82.39    8.59
  -3   0  -8   63.40    8.17
   0  -3   8   79.66    9.45
  -3   3   8   74.66    8.21
   1   2  -8   18.61    4.64
   1   2  -8   48.85    6.31
   1   2  -8   32.96    4.69
  -3   1  -8   22.08    4.96
  -2   3   8   31.06    5.22
  -1  -2   8   23.15    5.91
  -3   2  -8   27.98    5.41
  -3   2  -8   35.01    5.59
  -3   2  -8   28.23    4.66
  -2  -1   8   22.25    5.29
  -2  -1   8   36.27    5.73
  -1   3   8   27.15    5.52
  -3   3  -8   82.70    8.48
  -3   3  -8   84.87    8.90
  -3   3  -8   71.14    6.92
   0   3   8   61.81    7.11
  -3   0   8   67.82    8.04
  -3   0   8   67.72    8.56
  -3   4  -8    6.32    3.39
  -3   4  -8    4.37    3.33
  -3   4  -8    5.03    2.49
  -4   1   8    5.31    3.36
   1   3   8   -0.97    2.74
  -4   1   8    2.19    2.94
  -3   5  -8   15.92    4.97
  -3   5  -8   10.17    2.80
  -3   5  -8   10.27    3.72
  -5   2   8    9.27    3.84
  -5   2   8    6.92    3.96
   2   3   8    7.00    3.85
  -3   6  -8   21.41    3.41
  -3   6  -8   16.28    5.17
  -3   6  -8   23.78    4.69
  -6   3   8   23.55    5.68
   3   3   8   21.56    5.28
   3  -6   8   17.04    5.97
  -3   7  -8   18.82    5.40
  -3   7  -8   23.09    5.25
  -3   7  -8   25.83    3.95
   3  -7   8   30.43    7.72
  -7   4   8   21.00    5.63
  -2   6  -8   23.08    3.75
  -2   6  -8   12.96    4.12
  -2   6  -8   18.47    5.27
   2  -6   8   16.08    5.98
  -6   4   8   22.70    5.41
  -1   5  -8   51.65    7.23
  -4  -1  -8   61.92    9.14
  -1   5  -8   44.92    6.72
  -1   5  -8   55.64    5.69
  -5   4   8   63.73    8.15
   1  -5   8   58.23    9.17
   0   4  -8    0.58    3.12
   0   4  -8   -0.44    2.44
   0   4  -8    2.84    2.16
  -4   0  -8    1.63    3.34
  -4   4   8    0.45    2.60
   0  -4   8    4.25    4.28
   1   3  -8   -1.57    3.25
   1   3  -8    2.08    2.24
  -4   1  -8    0.48    2.67
   1   3  -8    3.54    2.72
  -3   4   8    5.47    3.23
  -1  -3   8    6.38    4.70
  -4   2  -8   44.71    6.56
   2   2  -8   34.25    5.06
  -4   2  -8   51.77    7.87
   2   2  -8   56.66    6.65
  -4   2  -8   39.88    5.25
  -2   4   8   34.29    5.46
  -2  -2   8   40.51    6.31
  -2  -2   8   48.20    7.70
  -4   3  -8    0.09    2.15
  -4   3  -8    9.33    3.76
  -4   3  -8    2.17    2.67
  -3  -1   8   -0.18    2.70
  -1   4   8    4.68    3.09
  -3  -1   8    1.88    3.58
  -4   4  -8    2.87    3.62
  -4   4  -8    2.37    2.20
  -4   4  -8    0.77    2.31
  -4   0   8   -0.68    3.11
   0   4   8    0.02    2.65
  -4   0   8    0.82    2.61
  -4   5  -8   59.49    7.98
  -4   5  -8   56.81    6.02
  -4   5  -8   42.92    6.29
   1   4   8   46.77    6.53
  -5   1   8   53.14    7.26
  -5   1   8   61.08    8.35
  -4   6  -8   17.43    3.43
  -4   6  -8   24.05    4.85
  -4   6  -8   21.61    5.43
  -6   2   8   25.18    5.47
  -6   2   8   31.20    6.17
  -4   7  -8   25.34    3.75
  -4   7  -8   23.14    5.90
  -4   7  -8   16.63    4.26
  -7   3   8   20.58    5.46
  -7   3   8   26.19    5.91
  -4   8  -8   14.13    4.19
  -4   8  -8    6.77    4.54
  -4   8  -8    6.25    2.20
  -8   4   8    3.55    4.09
   4  -8   8    6.07    5.37
  -4   9  -8   24.56    6.56
  -4   9  -8   20.79    3.37
  -4   9  -8   18.04    4.78
   4  -9   8   21.49    6.93
  -9   5   8   23.30    6.21
  -3   8  -8    7.18    2.35
  -3   8  -8    0.22    2.71
  -3   8  -8    6.15    4.41
  -8   5   8   -5.59    2.81
   3  -8   8   -6.36    3.86
  -2   7  -8   19.99    3.59
  -2   7  -8   21.40    4.92
  -5  -2  -8   20.92    6.61
  -2   7  -8   19.63    5.29
  -7   5   8   31.18    6.70
   2  -7   8   22.28    7.16
  -5  -1  -8    9.48    5.40
  -1   6  -8   10.15    3.91
  -1   6  -8   16.57    3.32
  -1   6  -8   18.60    5.11
   1  -6   8   13.58    5.63
  -6   5   8   12.91    4.53
   0   5  -8   -2.16    3.14
   0   5  -8    2.85    2.31
  -5   0  -8    1.00    3.68
   0   5  -8    1.14    2.98
  -5   5   8   -1.33    2.46
   0  -5   8    4.83    4.84
   1   4  -8   58.64    6.33
   1   4  -8   49.35    7.04
   1   4  -8   56.73    7.57
  -5   1  -8   57.02    8.62
  -1  -4   8   64.77    9.38
  -4   5   8   52.98    7.30
  -5   2  -8    5.56    3.85
   2   3  -8    9.44    3.68
  -5   2  -8    6.28    3.43
   2   3  -8    8.90    3.18
  -5   2  -8    3.03    2.70
  -3   5   8   11.50    3.92
  -2  -3   8   10.48    4.10
  -2  -3   8    8.53    4.51
  -5   3  -8    4.80    3.95
  -5   3  -8    9.91    4.29
  -5   3  -8    6.58    3.12
  -2   5   8   10.97    3.62
  -3  -2   8   12.21    5.02
  -5   4  -8   61.16    8.28
  -5   4  -8   42.50    6.74
  -5   4  -8   44.61    5.74
  -4  -1   8   41.67    7.54
  -1   5   8   62.06    7.34
  -5   5  -8    5.01    3.94
  -5   5  -8    0.82    2.52
  -5   5  -8   -1.38    2.05
  -5   0   8    7.00    4.41
  -5   0   8    0.25    2.67
   0   5   8    0.87    2.46
  -5   6  -8   13.68    5.09
  -5   6  -8   19.68    3.78
  -5   6  -8   19.67    4.72
  -6   1   8   15.53    4.54
  -6   1   8   22.16    6.04
  -5   7  -8   20.34    5.72
  -5   7  -8   17.70    3.59
  -5   7  -8   17.59    4.34
  -7   2   8   37.77    6.73
  -7   2   8   23.86    6.25
  -5   8  -8    1.75    2.49
  -5   8  -8    6.93    2.56
  -5   8  -8    3.92    4.14
  -8   3   8    4.17    4.13
  -8   3   8    5.30    3.84
  -5   9  -8   16.85    4.54
  -5   9  -8   26.48    3.66
  -5   9  -8   11.06    5.36
  -9   4   8   17.82    5.77
   5  -9   8   22.03    6.87
  -3   9  -8    0.38    1.61
  -3   9  -8    0.13    3.92
  -3   9  -8   -1.19    2.58
  -9   6   8    0.83    4.26
   3  -9   8    6.69    5.38
  -6  -2  -8   20.16    7.00
  -2   8  -8   15.89    3.07
  -2   8  -8   13.63    4.45
  -2   8  -8    9.17    4.42
   2  -8   8    8.25    5.86
  -8   6   8   15.67    5.18
  -1   7  -8    3.47    2.30
  -6  -1  -8    4.01    4.30
  -1   7  -8    5.05    3.93
  -1   7  -8    4.01    3.23
  -7   6   8    4.91    3.91
   1  -7   8    0.79    4.34
   0   6  -8   -0.91    2.55
  -6   0  -8    1.84    4.51
   0   6  -8   -4.60    3.34
   0   6  -8    3.52    2.61
   0  -6   8    0.85    4.88
  -6   6   8    4.72    3.47
   1   5  -8   20.65    4.24
   1   5  -8   18.75    4.83
  -6   1  -8   12.05    5.85
  -1  -5   8   12.26    4.72
  -1  -5   8   20.30    6.48
  -5   6   8    9.01    3.81
   2   4  -8   24.14    5.10
   2   4  -8   37.76    5.14
  -6   2  -8   22.08    5.96
  -2  -4   8   17.24    5.90
  -4   6   8   23.67    4.99
  -2  -4   8   27.90    6.63
  -6   3  -8   25.30    6.36
  -6   3  -8   25.92    5.46
  -6   3  -8   25.02    6.54
   3   3  -8   22.68    4.45
  -3  -3   8   23.28    6.00
  -3   6   8   23.36    4.98
  -3  -3   8   31.82    6.98
  -6   4  -8   27.63    5.30
  -6   4  -8   21.29    6.11
  -6   4  -8   11.87    5.21
  -4  -2   8   24.57    6.67
  -2   6   8   26.75    5.00
  -6   5  -8   14.77    5.21
  -6   5  -8   18.29    4.24
  -6   5  -8   10.06    4.13
  -5  -1   8   10.88    5.35
  -1   6   8   24.04    4.57
  -6   6  -8   -1.23    2.36
  -6   6  -8    0.47    2.23
  -6   6  -8    5.99    4.09
  -6   0   8    1.66    3.97
  -6   7  -8    4.69    2.68
  -6   7  -8    3.40    2.99
  -6   7  -8   -1.72    3.63
  -7   1   8    6.39    4.64
  -6   8  -8    3.21    2.87
  -6   8  -8    7.67    4.55
  -6   8  -8   12.71    3.13
  -8   2   8    9.19    5.01
  -6   9  -8    4.41    2.02
  -6   9  -8    5.85    3.96
  -6   9  -8   -0.68    2.43
  -9   3   8    1.77    4.11
  -2   9  -8   18.00    3.26
  -2   9  -8   11.63    4.12
  -7  -2  -8   21.44    7.74
  -2   9  -8   15.72    5.59
  -9   7   8   17.30    6.59
   2  -9   8   18.12    5.90
   2  -9   8    6.23    5.86
  -1   8  -8    1.09    4.42
  -7  -1  -8    8.81    5.73
  -1   8  -8    9.78    2.89
  -1   8  -8    8.90    4.18
   1  -8   8   -2.41    5.05
  -8   7   8    9.88    5.06
   1  -8   8    6.86    4.28
  -7   0  -8    3.21    4.91
   0   7  -8   10.96    4.86
   0   7  -8   15.83    3.70
   0   7  -8   14.13    4.44
   0  -7   8    8.08    5.62
  -7   7   8   14.00    5.09
   0  -7   8    7.42    4.61
  -7   1  -8    3.58    4.35
   1   6  -8    5.90    3.70
   1   6  -8    2.91    2.57
  -1  -6   8   -0.72    4.26
  -1  -6   8    2.08    4.06
  -6   7   8    4.20    3.52
   2   5  -8   14.01    3.99
  -7   2  -8   12.68    5.81
  -2  -5   8   16.96    5.71
  -2  -5   8   17.85    5.87
  -5   7   8   26.93    5.81
   3   4  -8   21.05    4.81
  -7   3  -8   16.35    5.87
  -7   3  -8   17.26    4.77
  -7   3  -8   16.31    5.85
  -4   7   8   19.00    4.80
  -3  -4   8   10.28    5.03
  -3  -4   8   23.63    6.68
  -7   4  -8   20.53    6.12
  -7   4  -8   21.52    6.94
  -7   4  -8   30.69    6.07
  -4  -3   8   21.22    6.70
  -4  -3   8   24.89    6.58
  -3   7   8   14.75    4.00
  -7   5  -8   16.77    4.59
  -7   5  -8   22.62    6.16
  -7   5  -8   14.96    6.29
  -2   7   8   19.64    4.31
  -5  -2   8    5.73    4.90
  -7   6  -8    4.95    3.46
  -7   6  -8    0.91    2.97
  -7   6  -8    9.34    4.85
  -6  -1   8    0.93    4.37
  -7   7  -8    6.80    3.79
  -7   7  -8    3.55    4.19
  -7   7  -8   12.33    3.72
  -7   0   8    8.14    5.43
  -7   8  -8    5.39    4.44
  -7   8  -8    8.31    3.58
  -7   8  -8    9.05    3.27
  -8   1   8   14.00    5.69
  -7   9  -8   16.04    5.92
  -7   9  -8   17.77    3.57
  -7   9  -8   18.06    4.95
  -9   2   8   18.84    6.59
   0   8  -8    2.47    2.18
  -8   0  -8    8.78    5.53
   0  -8   8   -3.12    4.72
  -8   8   8    3.55    3.74
   0  -8   8   -0.92    3.40
   1   7  -8   10.93    3.24
  -8   1  -8   11.09    5.86
  -1  -7   8    2.14    5.07
  -7   8   8   10.47    4.62
  -1  -7   8    6.00    5.21
  -8   2  -8   11.63    5.68
   2   6  -8   19.31    4.49
  -6   8   8    7.67    3.92
  -2  -6   8    9.66    5.09
  -2  -6   8    7.37    5.44
  -8   3  -8    9.93    5.57
   3   5  -8    1.24    2.96
  -5   8   8    1.91    2.71
  -3  -5   8    4.20    4.40
  -3  -5   8    7.98    5.48
  -8   4  -8    7.55    5.85
  -8   4  -8   15.07    5.25
  -8   4  -8    4.62    4.28
   4   4  -8    6.53    3.57
  -4  -4   8   15.59    6.20
  -4  -4   8   10.67    5.32
  -4   8   8    5.15    3.31
  -8   5  -8    1.23    5.15
  -8   5  -8    2.63    3.82
  -8   5  -8    4.67    3.97
  -3   8   8    6.35    3.07
  -5  -3   8    2.74    4.53
  -8   6  -8    7.58    5.67
  -8   6  -8   17.83    4.99
  -8   6  -8   10.78    5.14
  -6  -2   8    8.31    4.95
  -8   7  -8    2.40    3.31
  -8   7  -8    3.75    3.44
  -8   7  -8    4.54    4.98
  -7  -1   8    8.16    5.54
  -8   8  -8   -0.18    4.17
  -8   8  -8    4.30    3.55
  -8   8  -8    5.04    3.27
  -8   0   8    4.90    5.17
  -9   2  -8   13.09    5.49
   2   7  -8   12.11    3.74
  -7   9   8   12.56    4.92
  -2  -7   8    8.53    5.92
  -2  -7   8    4.10    5.72
   3   6  -8    2.60    3.00
  -9   3  -8   -1.92    3.85
  -3  -6   8   -3.89    3.95
  -3  -6   8    2.13    4.30
  -6   9   8    0.12    2.52
   4   5  -8   17.68    4.79
  -9   4  -8   27.61    7.10
  -9   4  -8   21.40    7.94
  -4  -5   8   10.33    5.71
  -4  -5   8   18.93    6.18
  -5   9   8   24.83    5.60
  -9   5  -8   16.44    6.86
  -9   5  -8   11.51    5.24
  -9   5  -8   37.68    7.30
  -5  -4   8   13.56    5.64
  -5  -4   8   27.10    7.26
  -9   6  -8    2.23    3.70
  -9   6  -8    1.14    3.70
  -9   6  -8    0.83    5.03
  -6  -3   8   11.72    5.30
  -9   7  -8   13.71    5.13
  -9   7  -8   14.32    5.46
  -9   7  -8   18.17    6.74
  -7  -2   8   10.81    5.93
   0   0   9   24.69    5.39
   0   1  -9   -0.76    2.84
   0  -1   9    5.30    4.28
  -1   1   9   -0.73    3.25
  -1   1  -9    0.72    2.80
   0   1   9    0.14    3.41
  -1   0   9    4.12    3.55
   1  -1   9    0.07    3.12
  -1   2  -9   12.45    4.33
  -1   2  -9   25.53    5.20
  -1   2  -9   19.74    3.90
   1  -2   9   20.12    5.63
  -2   1   9   23.71    5.23
  -1   3  -9    4.69    2.74
  -1   3  -9   10.51    3.78
  -1   3  -9   12.86    4.52
   1  -3   9   14.59    5.67
  -3   2   9   14.34    4.42
   0   2  -9    7.66    2.86
   0   2  -9   14.86    4.69
   0   2  -9    5.91    3.43
   0  -2   9   13.45    5.36
  -2   2   9    4.53    3.50
  -2   1  -9   12.17    4.05
  -1   2   9   23.29    5.45
  -1  -1   9   20.53    5.68
  -1  -1   9   23.50    5.35
  -2   2  -9    4.66    2.96
  -2   2  -9   10.81    4.42
  -2   2  -9    4.66    3.22
  -2   0   9    5.62    3.83
   2  -2   9    2.49    4.11
   0   2   9   11.13    4.76
  -2   0   9    7.18    4.12
  -2   3  -9    8.59    3.68
  -2   3  -9   14.94    4.99
  -2   3  -9    9.37    2.94
  -3   1   9    9.06    4.28
   1   2   9   12.03    4.36
   2  -3   9    7.05    4.83
  -2   4  -9   43.90    7.27
  -2   4  -9   41.62    5.26
  -2   4  -9   55.18    7.50
   2   2   9   48.28    7.54
  -4   2   9   55.24    7.80
   2  -4   9   58.83    9.48
  -2   5  -9   12.43    4.14
  -2   5  -9   16.86    3.63
  -2   5  -9   18.73    5.66
  -5   3   9   24.52    5.83
   2  -5   9   21.34    6.77
  -1   4  -9    0.91    2.23
  -1   4  -9    0.65    3.07
  -1   4  -9    2.63    3.81
   1  -4   9    1.29    4.34
  -4   3   9    5.13    3.37
  -3   0  -9    7.86    4.47
   0   3  -9    2.54    3.38
   0   3  -9    6.39    2.82
   0   3  -9    1.00    3.74
  -3   3   9    4.36    3.37
   0  -3   9   -3.52    3.96
   1   2  -9    8.40    4.37
  -3   1  -9   14.76    4.70
  -1  -2   9    7.05    5.15
  -2   3   9    8.25    4.04
  -1  -2   9    6.26    4.36
  -3   2  -9   10.55    4.36
  -3   2  -9    4.90    3.19
  -3   2  -9   15.18    4.50
  -1   3   9   16.83    4.62
   3  -2   9   14.41    5.18
  -2  -1   9    6.86    4.68
  -2  -1   9    5.37    3.51
  -3   3  -9    0.65    2.85
  -3   3  -9    2.44    2.65
  -3   3  -9    5.50    4.27
  -3   0   9    3.43    3.68
   0   3   9    2.29    3.33
   3  -3   9    2.48    4.33
  -3   0   9    0.70    3.66
  -3   4  -9    1.40    2.91
  -3   4  -9    3.11    4.01
  -3   4  -9    5.74    2.81
  -4   1   9    5.00    3.95
   3  -4   9   -0.97    4.16
   1   3   9   -1.37    3.14
  -4   1   9    1.32    3.37
  -3   5  -9   18.21    5.58
  -3   5  -9   23.36    5.35
  -3   5  -9   15.48    3.37
   3  -5   9   13.06    5.89
   2   3   9   19.49    5.51
  -5   2   9   17.43    5.27
  -3   6  -9    2.22    2.37
  -3   6  -9    5.35    3.28
  -3   6  -9   12.74    5.38
   3   3   9    4.67    3.94
  -6   3   9    7.29    4.05
   3  -6   9    6.01    5.17
  -3   7  -9    6.33    2.60
  -3   7  -9    0.02    3.65
  -3   7  -9    5.84    3.69
  -7   4   9   -0.57    3.70
   3  -7   9    8.50    5.84
  -2   6  -9    0.39    2.14
  -2   6  -9   -1.12    2.71
  -2   6  -9    0.94    3.76
  -6   4   9    1.09    3.39
   2  -6   9    7.99    5.20
  -1   5  -9   10.17    4.53
  -1   5  -9   16.51    3.81
  -1   5  -9    7.35    3.68
   1  -5   9   14.36    6.01
  -5   4   9   10.05    4.36
   0   4  -9    1.09    2.44
   0   4  -9    3.32    3.17
  -4   0  -9    0.96    3.56
   0   4  -9   -0.73    3.52
  -4   4   9    3.38    3.63
   0  -4   9    1.05    4.91
  -4   1  -9    0.52    3.44
   1   3  -9    8.34    3.02
   1   3  -9    7.77    3.65
  -1  -3   9    5.96    5.20
  -1  -3   9    3.27    3.66
  -3   4   9    4.53    3.81
  -4   2  -9   52.40    7.75
  -2   4   9   44.42    6.73
  -2  -2   9   42.30    8.02
  -2  -2   9   49.51    6.92
  -4   3  -9    1.98    3.27
  -4   3  -9    2.51    2.80
  -4   3  -9    3.35    3.90
  -1   4   9    7.78    3.73
  -3  -1   9    8.73    4.97
  -3  -1   9    5.17    3.93
  -4   4  -9    3.43    3.22
  -4   4  -9    3.25    2.92
  -4   4  -9    4.97    4.20
   0   4   9    6.82    3.79
  -4   0   9   -0.78    2.98
  -4   0   9    6.83    4.30
  -4   5  -9   14.79    5.31
  -4   5  -9   11.35    3.99
  -4   5  -9    8.90    3.18
   1   4   9    9.77    4.49
  -5   1   9   11.03    4.74
  -5   1   9    4.28    4.07
  -4   6  -9    2.33    2.78
  -4   6  -9   -0.56    4.04
  -4   6  -9   -0.42    2.07
   4  -6   9    5.37    5.41
  -6   2   9   -1.91    3.17
  -6   2   9    1.12    3.65
  -4   7  -9    8.84    4.61
  -4   7  -9    6.42    2.49
  -4   7  -9    1.56    2.62
   4  -7   9   -3.30    4.13
  -7   3   9    2.60    3.78
  -4   8  -9    3.59    3.28
  -4   8  -9    6.30    2.50
  -4   8  -9    6.13    4.95
  -8   4   9   10.50    5.23
   4  -8   9    6.44    4.99
  -3   8  -9   26.26    5.44
  -3   8  -9   19.69    5.99
  -3   8  -9   24.11    3.86
   3  -8   9   14.13    6.60
  -8   5   9   15.89    5.82
  -2   7  -9    1.19    2.04
  -2   7  -9    6.94    3.35
  -2   7  -9   -2.93    3.20
   2  -7   9    1.73    5.04
  -7   5   9    1.47    3.55
  -1   6  -9    0.80    3.84
  -1   6  -9    2.96    3.17
  -5  -1  -9   -2.09    4.61
  -1   6  -9    2.02    2.46
   1  -6   9    1.92    5.00
  -6   5   9    1.53    3.58
   0   5  -9    9.24    4.06
   0   5  -9    8.96    3.10
   0   5  -9    7.08    4.51
  -5   0  -9    5.58    5.27
   0  -5   9    6.85    5.54
  -5   5   9    7.45    3.97
  -5   1  -9    7.67    5.00
   1   4  -9   10.89    3.44
   1   4  -9    7.31    3.77
  -4   5   9    8.92    3.92
  -1  -4   9   13.04    6.18
  -5   2  -9    5.43    4.48
   2   3  -9    9.76    4.09
   2   3  -9   19.64    4.14
  -3   5   9   27.62    5.54
  -2  -3   9    9.98    5.19
  -2  -3   9   13.05    4.84
  -5   3  -9   17.09    5.58
  -5   3  -9   16.36    5.30
  -5   3  -9   18.17    4.25
  -3  -2   9   15.90    5.98
  -2   5   9   16.11    4.72
  -5   4  -9    6.27    3.79
  -5   4  -9   17.93    4.40
  -5   4  -9    0.83    4.05
  -1   5   9   16.33    4.68
  -4  -1   9   19.70    6.60
  -5   5  -9    7.12    4.09
  -5   5  -9    7.96    3.25
  -5   5  -9    9.73    4.76
  -5   0   9    9.81    5.17
   0   5   9   10.52    4.27
  -5   6  -9    2.42    2.53
  -5   6  -9    0.61    4.25
  -5   6  -9    2.82    3.65
  -6   1   9   -0.14    4.05
  -6   1   9    8.47    4.34
  -5   7  -9   -2.43    2.06
  -5   7  -9    2.95    3.07
  -5   7  -9   -0.46    4.07
  -7   2   9    3.32    4.47
  -7   2   9    7.61    4.41
  -5   8  -9   33.04    4.61
  -5   8  -9   15.75    4.75
  -5   8  -9   24.09    6.63
  -8   3   9   21.28    5.88
   5  -8   9   15.30    6.36
  -2   8  -9   12.92    5.23
  -2   8  -9   12.59    4.61
  -2   8  -9    5.75    2.59
   2  -8   9   15.10    6.96
  -8   6   9   11.57    5.08
  -1   7  -9    6.78    2.97
  -1   7  -9    3.06    4.23
  -1   7  -9    6.26    3.60
  -6  -1  -9   10.11    6.34
   1  -7   9   -4.41    4.71
  -7   6   9    3.09    3.31
   0   6  -9   -0.94    2.31
   0   6  -9   -2.32    2.54
   0   6  -9   -0.44    3.87
  -6   0  -9   -0.53    4.68
  -6   6   9    0.94    3.43
   0  -6   9    4.25    3.75
   0  -6   9    1.38    4.92
  -6   1  -9    0.68    4.47
   1   5  -9    3.35    3.45
   1   5  -9    3.53    3.08
  -1  -5   9   -0.35    3.41
  -5   6   9    3.01    3.22
  -1  -5   9    7.92    5.60
   2   4  -9   -2.26    2.83
   2   4  -9    0.15    2.45
  -6   2  -9   -2.23    3.51
  -2  -4   9    6.34    4.06
  -4   6   9   -3.10    2.55
  -2  -4   9    0.82    4.60
  -6   3  -9    0.56    3.67
  -3   6   9    7.49    3.93
  -3  -3   9   -0.57    4.48
  -6   4  -9   -0.91    2.58
  -6   4  -9   -2.49    2.90
  -6   4  -9   -0.34    4.23
  -4  -2   9    2.12    4.71
  -2   6   9   -0.85    2.75
  -6   5  -9    2.01    3.25
  -6   5  -9   -1.35    2.46
  -6   5  -9    0.45    4.40
  -1   6   9    4.35    3.38
  -5  -1   9    1.74    4.38
  -6   6  -9    2.65    3.21
  -6   6  -9    1.44    2.26
  -6   6  -9    2.34    3.99
  -6   0   9    3.83    4.86
  -6   7  -9    8.02    3.06
  -6   7  -9    1.07    3.27
  -6   7  -9    3.61    4.55
  -7   1   9    6.64    4.91
  -6   8  -9   18.14    6.32
  -6   8  -9   12.97    4.63
  -6   8  -9    8.57    2.84
  -8   2   9   18.93    6.59
  -7   0  -9    2.63    5.65
   0   7  -9    1.82    2.67
   0   7  -9   -0.26    2.84
   0  -7   9    5.26    4.32
   0  -7   9   -7.22    3.82
  -7   7   9   -2.24    2.84
  -7   1  -9    9.91    6.29
   1   6  -9    6.70    4.10
   1   6  -9    8.07    3.09
  -6   7   9   12.86    4.70
  -1  -6   9    5.69    5.55
  -1  -6   9    4.86    4.70
  -7   2  -9    6.30    5.06
   2   5  -9   -1.31    2.37
  -5   7   9    2.46    3.38
  -2  -5   9    2.85    4.83
  -2  -5   9    1.01    3.64
  -7   3  -9   -0.25    4.07
   3   4  -9    1.13    3.12
  -3  -4   9   -1.04    3.84
  -4   7   9   10.31    4.15
  -3  -4   9    1.44    4.13
  -7   4  -9    2.70    4.49
  -7   4  -9    2.24    3.95
  -7   4  -9    4.12    3.69
  -3   7   9    3.79    3.41
  -4  -3   9    9.82    5.65
  -7   5  -9    3.39    3.23
  -7   5  -9   -3.62    2.75
  -7   5  -9    5.71    4.86
  -5  -2   9    1.56    4.64
  -2   7   9   -1.46    2.30
  -7   6  -9    4.86    3.54
  -7   6  -9    4.62    3.81
  -7   6  -9   11.28    5.33
  -6  -1   9    2.20    4.48
  -7   7  -9    5.13    3.58
  -7   7  -9    1.01    2.87
  -7   7  -9   -1.33    4.08
  -7   0   9   -1.56    4.49
   2   6  -9   10.33    3.96
  -8   2  -9   11.65    6.40
  -6   8   9   16.79    5.36
  -2  -6   9    5.78    5.04
  -2  -6   9    5.77    5.40
  -8   3  -9   18.54    6.47
   3   5  -9   18.42    4.81
  -5   8   9   29.22    6.54
  -3  -5   9   20.23    6.78
  -3  -5   9   18.52    6.76
  -8   4  -9    9.17    5.40
  -4   8   9   -2.39    2.92
  -4  -4   9    6.71    5.01
  -8   5  -9   29.38    6.55
  -8   5  -9   24.65    6.78
  -8   5  -9   27.48    7.71
  -5  -3   9   34.07    8.15
  -3   8   9   22.48    5.11
  -8   6  -9    3.31    4.97
  -8   6  -9    7.59    3.90
  -8   6  -9    1.44    3.35
  -6  -2   9    8.61    5.32
   0   0  10  264.97   16.08
  -1   1  10    0.97    3.52
   0  -1  10    0.83    4.12
   1   0  10   -3.64    3.17
  -1   0  10    3.11    3.93
   0   1  10   -0.01    3.83
  -1   2 -10   11.20    4.96
  -2   1  10   11.37    4.74
   1   1  10   18.54    5.59
   1  -2  10   19.55    6.25
  -1   3 -10    7.63    3.36
  -1   3 -10    6.22    4.30
  -1   3 -10    1.87    3.47
   1  -3  10    4.98    5.09
   2   1  10    8.18    4.65
  -3   2  10    2.66    3.64
   0   2 -10    3.04    3.73
   0  -2  10    2.29    4.12
  -2   2  10   -3.44    2.87
   0  -2  10    6.92    5.19
  -1  -1  10   12.84    5.29
  -1  -1  10   21.05    5.81
  -1   2  10   14.07    4.88
  -2   2 -10   -3.42    2.58
  -2   0  10   -0.83    3.50
   0   2  10   -3.65    2.99
  -2   3 -10    7.06    4.53
  -2   3 -10    4.27    2.98
  -2   3 -10    7.35    3.84
   1   2  10    6.11    4.35
   2  -3  10    5.85    5.37
  -3   1  10    8.58    4.12
  -2   4 -10   15.09    5.21
  -2   4 -10   12.55    4.37
  -2   4 -10   15.22    4.07
   2   2  10   13.82    5.17
   2  -4  10    9.34    6.10
  -4   2  10   19.43    5.49
  -2   5 -10   10.17    3.34
  -2   5 -10    8.15    4.06
  -2   5 -10    9.70    4.53
  -5   3  10   10.16    4.90
   2  -5  10   10.61    6.49
   3   2  10    8.43    4.75
  -1   4 -10   18.52    5.58
  -1   4 -10   23.66    4.34
  -1   4 -10   10.71    4.05
  -4   3  10   17.06    5.06
   1  -4  10   17.48    7.48
   0   3 -10  106.89   10.42
   0   3 -10  104.31   11.15
  -3   3  10  111.36   11.03
   0  -3  10   87.64   11.85
   0  -3  10  110.94   11.32
  -1  -2  10    1.30    4.29
  -2   3  10    5.69    3.75
  -1  -2  10   -1.14    3.84
  -3   2 -10    5.84    4.11
  -1   3  10    5.74    3.98
  -2  -1  10    7.66    5.10
  -2  -1  10    3.97    4.22
  -3   3 -10  114.66   11.88
  -3   3 -10  115.66    8.70
  -3   3 -10  123.31   12.04
   3  -3  10   92.68   11.61
   0   3  10  122.74   10.62
  -3   0  10   98.11   10.72
  -3   0  10  127.96   12.64
  -3   4 -10   20.78    5.68
  -3   4 -10   23.21    6.20
  -3   4 -10   17.99    4.11
   1   3  10   19.74    5.42
   3  -4  10   15.54    6.53
  -4   1  10   19.47    5.71
  -3   5 -10    7.40    3.97
  -3   5 -10   11.01    5.18
  -3   5 -10    2.76    2.47
  -5   2  10   11.08    4.86
   3  -5  10   -1.74    4.66
   2   3  10    7.10    4.18
  -3   6 -10   51.99    8.02
  -3   6 -10   64.88    6.93
  -3   6 -10   48.36    8.65
  -6   3  10   52.19    8.62
   3  -6  10   26.48    8.00
   3   3  10   38.96    7.17
  -2   6 -10   34.75    6.82
  -2   6 -10   19.77    4.24
  -2   6 -10   15.27    5.64
   4   2  10   13.42    5.13
  -6   4  10   24.53    6.39
   2  -6  10   14.68    6.97
  -1   5 -10    7.49    4.85
  -1   5 -10   -0.07    2.26
  -1   5 -10    5.36    3.89
   1  -5  10   -0.56    5.01
  -5   4  10    2.61    3.32
   0   4 -10   11.42    4.57
   0   4 -10    8.38    4.59
   0   4 -10    4.10    2.89
   0  -4  10    5.92    5.62
  -4   4  10    9.33    4.25
   0  -4  10    0.47    4.36
  -4   1 -10    7.97    4.81
  -1  -3  10   17.89    5.79
  -1  -3  10   16.10    6.77
  -3   4  10   19.02    5.08
  -4   2 -10   25.18    6.28
  -2  -2  10   18.97    5.64
  -2   4  10   18.77    5.48
  -2  -2  10    8.14    5.66
  -4   3 -10   10.88    5.31
  -4   3 -10   20.73    5.43
  -3  -1  10   15.69    5.80
  -1   4  10   21.32    5.68
   4  -3  10   15.21    5.88
  -3  -1  10   13.24    5.15
  -4   4 -10    3.82    4.37
  -4   4 -10    2.88    3.37
  -4   4 -10    3.69    2.93
  -4   0  10    5.47    4.33
   4  -4  10    6.23    5.42
   0   4  10    7.96    4.09
  -4   0  10   11.11    5.29
  -4   5 -10    3.38    3.56
  -4   5 -10    1.91    4.44
  -4   5 -10    1.38    2.38
  -5   1  10    1.31    3.80
   4  -5  10    4.96    5.78
   1   4  10    3.02    4.02
  -4   6 -10   28.84    4.91
  -4   6 -10   26.47    7.23
  -4   6 -10   21.42    5.57
  -6   2  10   20.49    6.05
   4  -6  10   21.38    7.51
  -1   6 -10   32.32    5.07
  -1   6 -10   37.58    7.56
  -1   6 -10   37.28    7.06
  -6   5  10   33.67    7.27
   1  -6  10   29.70    8.50
   0   5 -10   -2.22    3.38
   0   5 -10    1.20    3.23
   0   5 -10    3.96    2.85
  -5   5  10    3.03    3.88
   0  -5  10   -0.08    5.15
  -5   1 -10   -1.68    4.26
   1   4 -10    0.89    2.68
   1   4 -10    5.96    4.12
  -4   5  10    4.85    3.79
  -1  -4  10    2.09    5.12
  -1  -4  10    2.52    3.77
  -5   2 -10    4.56    4.56
  -3   5  10   11.22    4.57
  -2  -3  10    2.94    4.92
  -5   3 -10    9.00    4.88
  -3  -2  10   -0.18    4.79
  -2   5  10    9.68    4.38
  -5   4 -10    0.03    3.19
  -5   4 -10   -0.33    4.65
  -5   4 -10    0.94    3.12
  -1   5  10    9.00    4.11
  -4  -1  10    3.92    4.83
  -5   5 -10   -3.14    2.46
  -5   5 -10   -0.04    2.73
  -5   5 -10    1.08    4.30
   0   5  10    7.18    4.13
  -5   0  10    4.66    4.78
  -5   6 -10   26.39    4.94
  -5   6 -10   31.40    6.56
  -5   6 -10   40.25    8.46
   5  -6  10   27.07    8.00
  -6   1  10   21.40    6.68
   1   5 -10   31.42    5.70
   1   5 -10   36.66    7.06
  -6   1 -10   51.40   10.72
  -1  -5  10   30.42    7.12
  -1  -5  10   31.18    8.28
  -5   6  10   29.56    6.50
  -6   2 -10   21.44    7.41
  -2  -4  10   29.61    8.02
  -4   6  10   17.40    5.34
  -6   3 -10   52.45    9.11
  -3   6  10   66.39    9.10
  -3  -3  10   60.81   10.27
  -6   4 -10   32.08    5.97
  -6   4 -10   28.98    7.67
  -6   4 -10   21.94    6.27
  -2   6  10   34.34    6.84
  -4  -2  10   13.19    5.77
  -6   5 -10   23.79    6.98
  -6   5 -10   35.20    6.29
  -6   5 -10   20.89    5.77
  -5  -1  10   35.59    8.28
  -1   6  10   28.75    6.06
   0   0  11    6.50    4.85
   0  -1  11   -0.83    4.28
  -1   1  11   -1.39    3.15
   1   0  11    0.58    4.09
  -1   0  11    2.77    3.70
   0   1  11   -4.66    3.41
   1  -1  11   -4.86    3.47
   1  -2  11   -3.51    3.58
  -2   1  11    3.15    4.19
   1   1  11   -0.24    3.80
  -1   3 -11    2.00    4.30
   1  -3  11   -2.68    4.77
   2   1  11    2.55    4.45
  -3   2  11   14.63    5.31
  -2   2  11   -2.67    3.06
   0  -2  11   -7.02    3.80
   2   0  11   -2.08    3.97
   0  -2  11    0.22    4.90
  -1  -1  11   -2.46    3.97
  -1   2  11    6.52    4.25
  -2   0  11   -2.99    3.47
   0   2  11   -2.09    3.41
  -2   3 -11    4.73    4.61
   2  -3  11    0.77    4.72
   1   2  11    8.60    4.80
  -3   1  11    4.48    4.00
  -2   4 -11    7.18    4.45
  -2   4 -11   13.67    5.31
   2  -4  11   10.93    6.89
  -4   2  11   11.91    4.74
   2   2  11   -0.66    3.94
  -1   4 -11   -0.59    3.04
  -1   4 -11    1.12    4.35
   3   1  11   -0.93    4.24
  -4   3  11   -3.51    3.40
   1  -4  11   -0.43    5.24
  -3   3  11    2.52    3.98
   0  -3  11   12.20    6.44
   0  -3  11    3.50    5.37
  -2   3  11   12.98    4.90
  -1  -2  11    1.09    4.37
  -1  -2  11   -0.59    4.91
  -2  -1  11    4.14    4.39
  -1   3  11    5.91    4.78
  -3   3 -11    6.76    4.20
   0   3  11    8.85    4.97
  -3   0  11   11.38    5.01
  -3   4 -11    0.52    3.60
  -3   4 -11   -2.64    4.10
  -4   1  11   -2.01    3.32
   1   3  11   -3.54    3.48
   3  -4  11   -6.54    4.72
  -1  -3  11   -1.97    3.96
  -1  -3  11    2.14    5.33
  -3   4  11   -0.42    3.40
  -2  -2  11    2.42    5.06
  -2   4  11   13.24    5.42
  -2  -2  11    5.99    4.85
  -4   3 -11    1.88    3.62
  -3  -1  11    2.79    3.91
  -1   4  11    3.51    4.04
  -3  -1  11    1.90    4.89
   0   0   0    0.00    0.00
;
_shelx_hkl_checksum              31331
#END Tags that were not found in dictionaries
loop_
_space_group_symop_operation_xyz
'x, y, z'
'-y, x-y, z'
'-x+y, -x, z'
'x, y, -z'
'-y, x-y, -z'
'-x+y, -x, -z'
'y, x, -z'
'x-y, -y, -z'
'-x, -x+y, -z'
'y, x, z'
'x-y, -y, z'
'-x, -x+y, z'
loop_
_atom_site_label
_atom_site_type_symbol
_atom_site_fract_x
_atom_site_fract_y
_atom_site_fract_z
_atom_site_U_iso_or_equiv
_atom_site_adp_type
_atom_site_occupancy
_atom_site_site_symmetry_order
_atom_site_calc_flag
_atom_site_refinement_flags_posn
_atom_site_refinement_flags_adp
_atom_site_refinement_flags_occupancy
_atom_site_disorder_assembly
_atom_site_disorder_group
Eu1 Eu 0.0000 0.0000 0.0000 0.0131(7) Uani 1 12 d S T P . .
Eu2 Eu 0.3333 0.6667 0.5000 0.0160(6) Uani 1 6 d S T P . .
Au1 Au 0.69985(13) 0.0000 0.30114(14) 0.0155(2) Uani 1 2 d S T P B .
Au2 Au 0.36916(14) 0.0000 0.20840(15) 0.0171(2) Uani 1 2 d S T P . .
Ga3_a Ga 0.2962(5) 0.4756(5) 0.0000 0.0232(10) Uani 0.689(9) 2 d S T P A 1
Ga4_a Ga 0.2009(5) 0.0000 0.5000 0.0166(12) Uani 0.776(13) 4 d S T P B 1
Au3_b Au 0.2962(5) 0.4756(5) 0.0000 0.0232(10) Uani 0.151(9) 2 d S T P A 2
Au4_b Au 0.2009(5) 0.0000 0.5000 0.0166(12) Uani 0.138(13) 4 d S T P B 2
Eu3_c Eu 0.3333 0.6667 0.0000 0.0232(10) Uani 0.158(8) 6 d S T P C 3
EU4_c Ga 0.0000 0.0000 0.5000 0.0166(12) Uani 0.079(4) 12 d S T P C 3
loop_
_atom_site_aniso_label
_atom_site_aniso_U_11
_atom_site_aniso_U_22
_atom_site_aniso_U_33
_atom_site_aniso_U_23
_atom_site_aniso_U_13
_atom_site_aniso_U_12
Eu1 0.0118(9) 0.0118(9) 0.0158(18) 0.000 0.000 0.0059(4)
Eu2 0.0098(6) 0.0098(6) 0.0284(16) 0.000 0.000 0.0049(3)
Au1 0.0166(3) 0.0198(5) 0.0113(4) 0.000 -0.0014(3) 0.0099(3)
Au2 0.0168(3) 0.0204(5) 0.0154(5) 0.000 0.0028(3) 0.0102(3)
Ga3_a 0.0297(18) 0.0215(17) 0.0146(15) 0.000 0.000 0.0099(15)
Ga4_a 0.0213(18) 0.0101(18) 0.015(2) 0.000 0.000 0.0051(9)
Au3_b 0.0297(18) 0.0215(17) 0.0146(15) 0.000 0.000 0.0099(15)
Au4_b 0.0213(18) 0.0101(18) 0.015(2) 0.000 0.000 0.0051(9)
Eu3_c 0.0297(18) 0.0215(17) 0.0146(15) 0.000 0.000 0.0099(15)
EU4_c 0.0213(18) 0.0101(18) 0.015(2) 0.000 0.000 0.0051(9)
loop_
_atom_type_symbol
_atom_type_description
_atom_type_scat_dispersion_real
_atom_type_scat_dispersion_imag
_atom_type_scat_source
Ga Ga 0.2307 1.6083 'International Tables Vol C Tables 4.2.6.8 and 6.1.1.4'
Eu Eu -0.1578 3.6682 'International Tables Vol C Tables 4.2.6.8 and 6.1.1.4'
Au Au -2.0133 8.8022 'International Tables Vol C Tables 4.2.6.8 and 6.1.1.4'
loop_
_geom_angle_atom_site_label_1
_geom_angle_atom_site_label_2
_geom_angle_atom_site_label_3
_geom_angle
_geom_angle_site_symmetry_1
_geom_angle_site_symmetry_3
Au1 Eu1 Au1 135.268(14) 3_665 5_545
Au1 Eu1 Au1 135.268(13) 3_665 4_455
Au1 Eu1 Au1 82.46(3) 5_545 4_455
Au1 Eu1 Au1 80.89(4) 3_665 6_665
Au1 Eu1 Au1 82.46(3) 5_545 6_665
Au1 Eu1 Au1 82.46(3) 4_455 6_665
Au1 Eu1 Au1 82.46(3) 3_665 2_545
Au1 Eu1 Au1 80.89(4) 5_545 2_545
Au1 Eu1 Au1 135.268(13) 4_455 2_545
Au1 Eu1 Au1 135.268(13) 6_665 2_545
Au1 Eu1 Au1 82.46(3) 3_665 1_455
Au1 Eu1 Au1 135.268(14) 5_545 1_455
Au1 Eu1 Au1 80.89(4) 4_455 1_455
Au1 Eu1 Au1 135.268(13) 6_665 1_455
Au1 Eu1 Au1 82.46(3) 2_545 1_455
Au1 Eu1 Au2 51.418(10) 3_665 .
Au1 Eu1 Au2 86.41(2) 5_545 .
Au1 Eu1 Au2 165.18(2) 4_455 .
Au1 Eu1 Au2 86.41(2) 6_665 .
Au1 Eu1 Au2 51.418(10) 2_545 .
Au1 Eu1 Au2 113.93(3) 1_455 .
Au1 Eu1 Au2 165.18(2) 3_665 6
Au1 Eu1 Au2 51.418(10) 5_545 6
Au1 Eu1 Au2 51.418(10) 4_455 6
Au1 Eu1 Au2 113.93(3) 6_665 6
Au1 Eu1 Au2 86.41(2) 2_545 6
Au1 Eu1 Au2 86.41(2) 1_455 6
Au2 Eu1 Au2 126.406(9) . 6
Au1 Eu1 Au2 51.418(10) 3_665 2
Au1 Eu1 Au2 165.18(2) 5_545 2
Au1 Eu1 Au2 86.41(2) 4_455 2
Au1 Eu1 Au2 86.41(2) 6_665 2
Au1 Eu1 Au2 113.93(3) 2_545 2
Au1 Eu1 Au2 51.418(10) 1_455 2
Au2 Eu1 Au2 102.68(2) . 2
Au2 Eu1 Au2 126.406(9) 6 2
Au1 Eu1 Au2 113.93(3) 3_665 3
Au1 Eu1 Au2 86.41(2) 5_545 3
Au1 Eu1 Au2 86.41(2) 4_455 3
Au1 Eu1 Au2 165.18(2) 6_665 3
Au1 Eu1 Au2 51.418(10) 2_545 3
Au1 Eu1 Au2 51.418(10) 1_455 3
Au2 Eu1 Au2 102.68(2) . 3
Au2 Eu1 Au2 51.25(4) 6 3
Au2 Eu1 Au2 102.68(2) 2 3
Au1 Eu1 Au2 86.41(2) 3_665 5
Au1 Eu1 Au2 113.93(3) 5_545 5
Au1 Eu1 Au2 51.418(10) 4_455 5
Au1 Eu1 Au2 51.418(11) 6_665 5
Au1 Eu1 Au2 165.18(2) 2_545 5
Au1 Eu1 Au2 86.41(2) 1_455 5
Au2 Eu1 Au2 126.406(9) . 5
Au2 Eu1 Au2 102.68(2) 6 5
Au2 Eu1 Au2 51.25(4) 2 5
Au2 Eu1 Au2 126.406(9) 3 5
Au1 Eu1 Au2 86.41(2) 3_665 4
Au1 Eu1 Au2 51.418(10) 5_545 4
Au1 Eu1 Au2 113.93(3) 4_455 4
Au1 Eu1 Au2 51.418(10) 6_665 4
Au1 Eu1 Au2 86.41(2) 2_545 4
Au1 Eu1 Au2 165.18(2) 1_455 4
Au2 Eu1 Au2 51.25(4) . 4
Au2 Eu1 Au2 102.68(2) 6 4
Au2 Eu1 Au2 126.406(9) 2 4
Au2 Eu1 Au2 126.406(9) 3 4
Au2 Eu1 Au2 102.68(2) 5 4
Au1 Eu2 Au1 51.40(3) 2 5_556
Au1 Eu2 Au1 126.442(9) 2 4_566
Au1 Eu2 Au1 102.59(2) 5_556 4_566
Au1 Eu2 Au1 102.59(2) 2 1_565
Au1 Eu2 Au1 126.442(9) 5_556 1_565
Au1 Eu2 Au1 51.40(3) 4_566 1_565
Au1 Eu2 Au1 102.59(2) 2 3_665
Au1 Eu2 Au1 126.442(9) 5_556 3_665
Au1 Eu2 Au1 126.442(9) 4_566 3_665
Au1 Eu2 Au1 102.59(2) 1_565 3_665
Au1 Eu2 Au1 126.442(9) 2 6_666
Au1 Eu2 Au1 102.59(2) 5_556 6_666
Au1 Eu2 Au1 102.59(2) 4_566 6_666
Au1 Eu2 Au1 126.442(9) 1_565 6_666
Au1 Eu2 Au1 51.40(3) 3_665 6_666
Au1 Eu2 Au2 85.53(3) 2 4_566
Au1 Eu2 Au2 52.26(2) 5_556 4_566
Au1 Eu2 Au2 50.81(3) 4_566 4_566
Au1 Eu2 Au2 84.39(2) 1_565 4_566
Au1 Eu2 Au2 167.66(2) 3_665 4_566
Au1 Eu2 Au2 116.28(3) 6_666 4_566
Au1 Eu2 Au2 50.81(3) 2 2
Au1 Eu2 Au2 84.39(2) 5_556 2
Au1 Eu2 Au2 167.66(2) 4_566 2
Au1 Eu2 Au2 116.28(3) 1_565 2
Au1 Eu2 Au2 52.26(2) 3_665 2
Au1 Eu2 Au2 85.53(3) 6_666 2
Au2 Eu2 Au2 133.601(11) 4_566 2
Au1 Eu2 Au2 52.26(2) 2 1_565
Au1 Eu2 Au2 85.53(3) 5_556 1_565
Au1 Eu2 Au2 84.39(2) 4_566 1_565
Au1 Eu2 Au2 50.81(3) 1_565 1_565
Au1 Eu2 Au2 116.28(3) 3_665 1_565
Au1 Eu2 Au2 167.66(2) 6_666 1_565
Au2 Eu2 Au2 76.03(3) 4_566 1_565
Au2 Eu2 Au2 86.05(2) 2 1_565
Au1 Eu2 Au2 84.39(2) 2 5_556
Au1 Eu2 Au2 50.81(3) 5_556 5_556
Au1 Eu2 Au2 116.28(3) 4_566 5_556
Au1 Eu2 Au2 167.66(2) 1_565 5_556
Au1 Eu2 Au2 85.53(3) 3_665 5_556
Au1 Eu2 Au2 52.26(2) 6_666 5_556
Au2 Eu2 Au2 86.05(2) 4_566 5_556
Au2 Eu2 Au2 76.03(3) 2 5_556
Au2 Eu2 Au2 133.601(11) 1_565 5_556
Au1 Eu2 Au2 167.66(2) 2 6_666
Au1 Eu2 Au2 116.28(3) 5_556 6_666
Au1 Eu2 Au2 52.26(2) 4_566 6_666
Au1 Eu2 Au2 85.53(3) 1_565 6_666
Au1 Eu2 Au2 84.39(2) 3_665 6_666
Au1 Eu2 Au2 50.81(3) 6_666 6_666
Au2 Eu2 Au2 86.05(2) 4_566 6_666
Au2 Eu2 Au2 133.601(11) 2 6_666
Au2 Eu2 Au2 133.601(11) 1_565 6_666
Au2 Eu2 Au2 86.05(2) 5_556 6_666
Au1 Eu2 Au2 116.28(3) 2 3_665
Au1 Eu2 Au2 167.66(2) 5_556 3_665
Au1 Eu2 Au2 85.53(3) 4_566 3_665
Au1 Eu2 Au2 52.26(2) 1_565 3_665
Au1 Eu2 Au2 50.81(3) 3_665 3_665
Au1 Eu2 Au2 84.39(2) 6_666 3_665
Au2 Eu2 Au2 133.601(11) 4_566 3_665
Au2 Eu2 Au2 86.05(2) 2 3_665
Au2 Eu2 Au2 86.05(2) 1_565 3_665
Au2 Eu2 Au2 133.601(11) 5_556 3_665
Au2 Eu2 Au2 76.03(3) 6_666 3_665
Au3_b Au1 Au3_b 59.87(15) 2_655 9_655
Ga3_a Au1 Ga3_a 59.87(15) 2_655 9_655
Au3_b Au1 Au4_b 153.29(10) 2_655 2_655
Au3_b Au1 Au4_b 109.92(10) 9_655 2_655
Ga3_a Au1 Ga4_a 153.29(10) 2_655 2_655
Ga3_a Au1 Ga4_a 109.92(10) 9_655 2_655
Au3_b Au1 Au4_b 109.92(10) 2_655 3_655
Au3_b Au1 Au4_b 153.29(10) 9_655 3_655
Au4_b Au1 Au4_b 67.24(19) 2_655 3_655
Ga3_a Au1 Ga4_a 109.92(10) 2_655 3_655
Ga3_a Au1 Ga4_a 153.29(10) 9_655 3_655
Ga4_a Au1 Ga4_a 67.24(19) 2_655 3_655
Au3_b Au1 Au1 145.25(7) 2_655 4_556
Ga3_a Au1 Au1 145.25(7) 2_655 4_556
Au3_b Au1 Au1 145.25(7) 9_655 4_556
Ga3_a Au1 Au1 145.25(7) 9_655 4_556
Au4_b Au1 Au1 57.47(2) 2_655 4_556
Ga4_a Au1 Au1 57.47(2) 2_655 4_556
Au4_b Au1 Au1 57.47(2) 3_655 4_556
Ga4_a Au1 Au1 57.47(2) 3_655 4_556
Au3_b Au1 Au2 62.72(8) 2_655 .
Ga3_a Au1 Au2 62.72(8) 2_655 .
Au3_b Au1 Au2 62.72(8) 9_655 .
Ga3_a Au1 Au2 62.72(8) 9_655 .
Au4_b Au1 Au2 137.99(10) 2_655 .
Ga4_a Au1 Au2 137.99(10) 2_655 .
Au4_b Au1 Au2 137.99(10) 3_655 .
Ga4_a Au1 Au2 137.99(10) 3_655 .
Au1 Au1 Au2 103.40(3) 4_556 .
Au1 Au1 EU4_c 60.62(2) 4_556 1_655
Au2 Au1 EU4_c 164.03(4) . 1_655
Au3_b Au1 Au2 56.53(8) 2_655 3_655
Ga3_a Au1 Au2 56.53(8) 2_655 3_655
Au3_b Au1 Au2 111.28(8) 9_655 3_655
Ga3_a Au1 Au2 111.28(8) 9_655 3_655
Au4_b Au1 Au2 114.72(11) 2_655 3_655
Ga4_a Au1 Au2 114.72(11) 2_655 3_655
Au4_b Au1 Au2 53.39(7) 3_655 3_655
Ga4_a Au1 Au2 53.39(7) 3_655 3_655
Au1 Au1 Au2 103.05(3) 4_556 3_655
Au2 Au1 Au2 105.65(3) . 3_655
EU4_c Au1 Au2 79.76(3) 1_655 3_655
Ga4_a Au2 Ga3_a 113.04(8) . 3
Au3_b Au2 Au3_b 109.32(10) 3 7
Ga4_a Au2 Ga3_a 113.04(8) . 7
Ga3_a Au2 Ga3_a 109.32(10) 3 7
Au3_b Au2 Au3_b 55.19(14) 3 2_655
Au3_b Au2 Au3_b 100.08(4) 7 2_655
Ga4_a Au2 Ga3_a 146.72(8) . 2_655
Ga3_a Au2 Ga3_a 55.19(14) 3 2_655
Ga3_a Au2 Ga3_a 100.08(4) 7 2_655
Au3_b Au2 Au3_b 100.08(4) 3 9_655
Au3_b Au2 Au3_b 55.19(14) 7 9_655
Au3_b Au2 Au3_b 54.42(14) 2_655 9_655
Ga4_a Au2 Ga3_a 146.72(8) . 9_655
Ga3_a Au2 Ga3_a 100.08(4) 3 9_655
Ga3_a Au2 Ga3_a 55.19(14) 7 9_655
Ga3_a Au2 Ga3_a 54.42(14) 2_655 9_655
Ga4_a Au2 Au1 110.79(10) . .
Au3_b Au2 Au1 105.03(8) 3 .
Ga3_a Au2 Au1 105.03(8) 3 .
Au3_b Au2 Au1 105.03(8) 7 .
Ga3_a Au2 Au1 105.03(8) 7 .
Au3_b Au2 Au1 54.52(6) 2_655 .
Ga3_a Au2 Au1 54.52(6) 2_655 .
Au3_b Au2 Au1 54.52(6) 9_655 .
Ga3_a Au2 Au1 54.52(6) 9_655 .
Ga4_a Au2 Au1 57.35(5) . 2_545
Au3_b Au2 Au1 55.69(7) 3 2_545
Ga3_a Au2 Au1 55.69(7) 3 2_545
Au3_b Au2 Au1 130.66(9) 7 2_545
Ga3_a Au2 Au1 130.66(9) 7 2_545
Au3_b Au2 Au1 103.27(8) 2_655 2_545
Ga3_a Au2 Au1 103.27(8) 2_655 2_545
Au3_b Au2 Au1 155.61(7) 9_655 2_545
Ga3_a Au2 Au1 155.61(7) 9_655 2_545
Au1 Au2 Au1 123.95(3) . 2_545
Ga3_a Ga3_a Ga3_a 60.0 2_665 3_565
Ga3_a Ga3_a Ga3_a 109.44(15) 2_665 7
Ga3_a Ga3_a Ga3_a 169.44(15) 3_565 7
Ga3_a Ga3_a Au1 115.20(12) 2_665 6_665
Ga3_a Ga3_a Au1 122.76(9) 3_565 6_665
Ga3_a Ga3_a Au1 60.06(7) 7 6_665
Ga3_a Ga3_a Au1 115.20(12) 2_665 3_665
Ga3_a Ga3_a Au1 122.76(9) 3_565 3_665
Ga3_a Ga3_a Au1 60.06(7) 7 3_665
Au1 Ga3_a Au1 110.50(14) 6_665 3_665
Ga3_a Ga3_a Au2 115.46(13) 2_665 5
Ga3_a Ga3_a Au2 66.65(16) 3_565 5
Ga3_a Ga3_a Au2 121.50(8) 7 5
Au1 Ga3_a Au2 67.78(6) 6_665 5
Au1 Ga3_a Au2 123.17(14) 3_665 5
Ga3_a Ga3_a Au2 115.46(13) 2_665 2
Ga3_a Ga3_a Au2 66.65(16) 3_565 2
Ga3_a Ga3_a Au2 121.50(8) 7 2
Au1 Ga3_a Au2 123.17(14) 6_665 2
Au1 Ga3_a Au2 67.78(6) 3_665 2
Au2 Ga3_a Au2 68.54(10) 5 2
Ga3_a Ga3_a Au2 58.16(14) 2_665 3_665
Ga3_a Ga3_a Au2 108.50(12) 3_565 3_665
Ga3_a Ga3_a Au2 62.79(7) 7 3_665
Au1 Ga3_a Au2 113.48(13) 6_665 3_665
Au1 Ga3_a Au2 62.76(6) 3_665 3_665
Au2 Ga3_a Au2 173.59(14) 5 3_665
Au2 Ga3_a Au2 114.02(4) 2 3_665
Ga3_a Ga3_a Au2 58.16(14) 2_665 6_665
Ga3_a Ga3_a Au2 108.50(12) 3_565 6_665
Ga3_a Ga3_a Au2 62.79(7) 7 6_665
Au1 Ga3_a Au2 62.76(6) 6_665 6_665
Au1 Ga3_a Au2 113.48(13) 3_665 6_665
Au2 Ga3_a Au2 114.02(4) 5 6_665
Au2 Ga3_a Au2 173.59(14) 2 6_665
Au2 Ga3_a Au2 62.80(9) 3_665 6_665
Ga3_a Ga3_a Eu1 177.5(2) 2_665 .
Ga3_a Ga3_a Eu1 122.5(2) 3_565 .
Ga3_a Ga3_a Eu1 68.07(6) 7 .
Au1 Ga3_a Eu1 63.78(8) 6_665 .
Au1 Ga3_a Eu1 63.78(8) 3_665 .
Au2 Ga3_a Eu1 66.50(8) 5 .
Au2 Ga3_a Eu1 66.50(8) 2 .
Au2 Ga3_a Eu1 119.85(10) 3_665 .
Au2 Ga3_a Eu1 119.85(10) 6_665 .
Au2 Ga4_a Au2 111.62(18) 4_556 .
Au2 Ga4_a Au1 122.39(8) 4_556 2_545
Au2 Ga4_a Au1 69.27(3) . 2_545
Au2 Ga4_a Au1 69.27(3) 4_556 6_666
Au2 Ga4_a Au1 122.39(8) . 6_666
Au1 Ga4_a Au1 161.4(2) 2_545 6_666
Au2 Ga4_a Au1 69.27(3) 4_556 5_546
Au2 Ga4_a Au1 122.39(8) . 5_546
Au1 Ga4_a Au1 65.07(5) 2_545 5_546
Au1 Ga4_a Au1 111.67(7) 6_666 5_546
Au2 Ga4_a Au1 122.39(8) 4_556 3_665
Au2 Ga4_a Au1 69.27(3) . 3_665
Au1 Ga4_a Au1 111.67(7) 2_545 3_665
Au1 Ga4_a Au1 65.07(5) 6_666 3_665
Au1 Ga4_a Au1 161.4(2) 5_546 3_665
Au2 Ga4_a Ga4_a 119.12(7) 4_556 3
Au2 Ga4_a Ga4_a 119.12(7) . 3
Au1 Ga4_a Ga4_a 56.38(9) 2_545 3
Au1 Ga4_a Ga4_a 105.89(10) 6_666 3
Au1 Ga4_a Ga4_a 56.38(9) 5_546 3
Au1 Ga4_a Ga4_a 105.89(10) 3_665 3
Au2 Ga4_a Ga4_a 119.12(8) 4_556 2
Au2 Ga4_a Ga4_a 119.12(8) . 2
Au1 Ga4_a Ga4_a 105.89(10) 2_545 2
Au1 Ga4_a Ga4_a 56.38(9) 6_666 2
Au1 Ga4_a Ga4_a 105.89(10) 5_546 2
Au1 Ga4_a Ga4_a 56.38(9) 3_665 2
Ga4_a Ga4_a Ga4_a 60.0 3 2
Au2 Ga4_a Eu2 66.15(8) 4_556 7_556
Au2 Ga4_a Eu2 66.15(8) . 7_556
Au1 Ga4_a Eu2 133.70(12) 2_545 7_556
Au1 Ga4_a Eu2 62.73(5) 6_666 7_556
Au1 Ga4_a Eu2 133.70(12) 5_546 7_556
Au1 Ga4_a Eu2 62.73(5) 3_665 7_556
Ga4_a Ga4_a Eu2 166.02(5) 3 7_556
Ga4_a Ga4_a Eu2 106.02(5) 2 7_556
Au2 Ga4_a Eu2 66.15(8) 4_556 1_545
Au2 Ga4_a Eu2 66.15(8) . 1_545
Au1 Ga4_a Eu2 62.73(5) 2_545 1_545
Au1 Ga4_a Eu2 133.70(12) 6_666 1_545
Au1 Ga4_a Eu2 62.73(5) 5_546 1_545
Au1 Ga4_a Eu2 133.70(12) 3_665 1_545
Ga4_a Ga4_a Eu2 106.02(5) 3 1_545
Ga4_a Ga4_a Eu2 166.02(5) 2 1_545
Eu2 Ga4_a Eu2 87.96(11) 7_556 1_545
Au2 Eu3_c Au2 128.238(11) 1_565 5
Au2 Eu3_c Au2 58.38(4) 1_565 4_565
Au2 Eu3_c Au2 98.23(2) 5 4_565
Au2 Eu3_c Au2 98.23(2) 1_565 2
Au2 Eu3_c Au2 58.38(4) 5 2
Au2 Eu3_c Au2 128.238(10) 4_565 2
Au2 Eu3_c Au2 98.23(2) 1_565 3_665
Au2 Eu3_c Au2 128.238(10) 5 3_665
Au2 Eu3_c Au2 128.238(10) 4_565 3_665
Au2 Eu3_c Au2 98.23(2) 2 3_665
Au2 Eu3_c Au2 128.238(10) 1_565 6_665
Au2 Eu3_c Au2 98.23(2) 5 6_665
Au2 Eu3_c Au2 98.23(2) 4_565 6_665
Au2 Eu3_c Au2 128.238(10) 2 6_665
Au2 Eu3_c Au2 58.38(4) 3_665 6_665
Au2 Eu3_c Eu2 119.190(19) 1_565 1_554
Au2 Eu3_c Eu2 60.810(19) 5 1_554
Au2 Eu3_c Eu2 60.811(19) 4_565 1_554
Au2 Eu3_c Eu2 119.190(19) 2 1_554
Au2 Eu3_c Eu2 119.189(19) 3_665 1_554
Au2 Eu3_c Eu2 60.809(19) 6_665 1_554
Au2 Eu3_c Eu2 60.810(19) 1_565 .
Au2 Eu3_c Eu2 119.190(19) 5 .
Au2 Eu3_c Eu2 119.190(19) 4_565 .
Au2 Eu3_c Eu2 60.810(19) 2 .
Au2 Eu3_c Eu2 60.810(19) 3_665 .
Au2 Eu3_c Eu2 119.190(19) 6_665 .
Eu2 Eu3_c Eu2 180.0 1_554 .
Au2 Eu3_c Au1 86.81(3) 1_565 5
Au2 Eu3_c Au1 49.47(3) 5 5
Au2 Eu3_c Au1 50.94(2) 4_565 5
Au2 Eu3_c Au1 85.68(2) 2 5
Au2 Eu3_c Au1 173.07(2) 3_665 5
Au2 Eu3_c Au1 114.72(3) 6_665 5
Eu2 Eu3_c Au1 53.921(15) 1_554 5
Eu2 Eu3_c Au1 126.080(15) . 5
Au2 Eu3_c Au1 49.47(3) 1_565 1_565
Au2 Eu3_c Au1 173.07(2) 5 1_565
Au2 Eu3_c Au1 85.68(2) 4_565 1_565
Au2 Eu3_c Au1 114.72(3) 2 1_565
Au2 Eu3_c Au1 50.94(2) 3_665 1_565
Au2 Eu3_c Au1 86.81(3) 6_665 1_565
Eu2 Eu3_c Au1 126.080(15) 1_554 1_565
Eu2 Eu3_c Au1 53.920(15) . 1_565
Au1 Eu3_c Au1 132.331(10) 5 1_565
Au2 Eu3_c Au1 50.94(2) 1_565 2
Au2 Eu3_c Au1 85.68(2) 5 2
Au2 Eu3_c Au1 86.81(3) 4_565 2
Au2 Eu3_c Au1 49.47(3) 2 2
Au2 Eu3_c Au1 114.72(3) 3_665 2
Au2 Eu3_c Au1 173.07(2) 6_665 2
Eu2 Eu3_c Au1 126.081(15) 1_554 2
Eu2 Eu3_c Au1 53.920(15) . 2
Au1 Eu3_c Au1 72.16(3) 5 2
Au1 Eu3_c Au1 88.84(2) 1_565 2
Au2 Eu3_c Au1 85.68(2) 1_565 4_565
Au2 Eu3_c Au1 114.72(3) 5 4_565
Au2 Eu3_c Au1 49.47(3) 4_565 4_565
Au2 Eu3_c Au1 173.07(2) 2 4_565
Au2 Eu3_c Au1 86.81(3) 3_665 4_565
Au2 Eu3_c Au1 50.94(2) 6_665 4_565
Eu2 Eu3_c Au1 53.920(15) 1_554 4_565
Eu2 Eu3_c Au1 126.080(15) . 4_565
Au1 Eu3_c Au1 88.84(2) 5 4_565
Au1 Eu3_c Au1 72.16(3) 1_565 4_565
Au1 Eu3_c Au1 132.331(10) 2 4_565
Au1 EU4_c Au1 128.339(12) 6_666 2_545
Au1 EU4_c Au1 128.339(12) 6_666 1_455
Au1 EU4_c Au1 97.99(3) 2_545 1_455
Au1 EU4_c Au1 58.75(4) 6_666 3_665
Au1 EU4_c Au1 97.99(3) 2_545 3_665
Au1 EU4_c Au1 97.99(3) 1_455 3_665
Au1 EU4_c Au1 97.99(3) 6_666 5_546
Au1 EU4_c Au1 58.75(4) 2_545 5_546
Au1 EU4_c Au1 128.339(12) 1_455 5_546
Au1 EU4_c Au1 128.339(12) 3_665 5_546
Au1 EU4_c Au1 97.99(3) 6_666 4_456
Au1 EU4_c Au1 128.339(12) 2_545 4_456
Au1 EU4_c Au1 58.75(4) 1_455 4_456
Au1 EU4_c Au1 128.339(12) 3_665 4_456
Au1 EU4_c Au1 97.99(3) 5_546 4_456
Au1 EU4_c Eu1 119.38(2) 6_666 .
Au1 EU4_c Eu1 60.62(2) 2_545 .
Au1 EU4_c Eu1 60.62(2) 1_455 .
Au1 EU4_c Eu1 60.62(2) 3_665 .
Au1 EU4_c Eu1 119.38(2) 5_546 .
Au1 EU4_c Eu1 119.38(2) 4_456 .
Au1 EU4_c Eu1 60.62(2) 6_666 1_556
Au1 EU4_c Eu1 119.38(2) 2_545 1_556
Au1 EU4_c Eu1 119.38(2) 1_455 1_556
Au1 EU4_c Eu1 119.38(2) 3_665 1_556
Au1 EU4_c Eu1 60.62(2) 5_546 1_556
Au1 EU4_c Eu1 60.62(2) 4_456 1_556
Eu1 EU4_c Eu1 180.0 . 1_556
loop_
_geom_bond_atom_site_label_1
_geom_bond_atom_site_label_2
_geom_bond_distance
_geom_bond_site_symmetry_2
Eu1 Au1 3.3632(11) 3_665
Eu1 Au1 3.3632(11) 5_545
Eu1 Au1 3.3632(11) 4_455
Eu1 Au1 3.3632(11) 6_665
Eu1 Au1 3.3632(11) 2_545
Eu1 Au1 3.3632(11) 1_455
Eu1 Au2 3.4914(12) .
Eu1 Au2 3.4915(12) 6
Eu1 Au2 3.4915(12) 2
Eu1 Au2 3.4915(12) 3
Eu1 Au2 3.4915(12) 5
Eu1 Au2 3.4915(12) 4
Eu2 Au1 3.3227(8) 2
Eu2 Au1 3.3227(8) 5_556
Eu2 Au1 3.3227(8) 4_566
Eu2 Au1 3.3227(8) 1_565
Eu2 Au1 3.3227(8) 3_665
Eu2 Au1 3.3227(8) 6_666
Eu2 Au2 3.4305(9) 4_566
Eu2 Au2 3.4305(9) 2
Eu2 Au2 3.4305(9) 1_565
Eu2 Au2 3.4305(9) 5_556
Eu2 Au2 3.4305(9) 6_666
Eu2 Au2 3.4305(9) 3_665
Au1 Au3_b 2.655(2) 2_655
Au1 Ga3_a 2.655(2) 2_655
Au1 Au3_b 2.655(2) 9_655
Au1 Ga3_a 2.655(2) 9_655
Au1 Au4_b 2.6790(12) 2_655
Au1 Ga4_a 2.6790(12) 2_655
Au1 Au4_b 2.6790(12) 3_655
Au1 Ga4_a 2.6790(12) 3_655
Au1 Au1 2.882(2) 4_556
Au1 Au2 2.8990(18) .
Au1 EU4_c 2.9372(12) 1_655
Au1 Au2 2.9758(10) 3_655
Au2 Ga4_a 2.554(3) .
Au2 Au3_b 2.682(3) 3
Au2 Ga3_a 2.682(3) 3
Au2 Au3_b 2.682(3) 7
Au2 Ga3_a 2.682(3) 7
Au2 Au3_b 2.898(3) 2_655
Au2 Ga3_a 2.898(3) 2_655
Au2 Au3_b 2.898(3) 9_655
Au2 Ga3_a 2.898(3) 9_655
Au2 Au1 2.9758(10) 2_545
Ga3_a Ga3_a 2.591(6) 2_665
Ga3_a Ga3_a 2.591(6) 3_565
Ga3_a Ga3_a 2.650(8) 7
Ga3_a Au1 2.655(2) 6_665
Ga3_a Au1 2.655(2) 3_665
Ga3_a Au2 2.682(3) 5
Ga3_a Au2 2.682(3) 2
Ga3_a Au2 2.898(3) 3_665
Ga3_a Au2 2.898(3) 6_665
Ga4_a Au2 2.554(3) 4_556
Ga4_a Au1 2.6790(12) 2_545
Ga4_a Au1 2.6790(12) 6_666
Ga4_a Au1 2.6790(12) 5_546
Ga4_a Au1 2.6790(12) 3_665
Ga4_a Ga4_a 2.967(8) 3
Ga4_a Ga4_a 2.967(8) 2
Ga4_a Eu2 3.545(3) 7_556
Ga4_a Eu2 3.545(3) 1_545
Eu3_c Au2 3.0959(7) 1_565
Eu3_c Au2 3.0959(8) 5
Eu3_c Au2 3.0959(7) 4_565
Eu3_c Au2 3.0959(8) 2
Eu3_c Au2 3.0959(8) 3_665
Eu3_c Au2 3.0959(8) 6_665
Eu3_c Eu2 3.6225(6) 1_554
Eu3_c Au1 3.7047(9) 5
Eu3_c Au1 3.7047(9) 1_565
Eu3_c Au1 3.7047(9) 2
Eu3_c Au1 3.7047(9) 4_565
EU4_c Au1 2.9372(12) 6_666
EU4_c Au1 2.9372(12) 2_545
EU4_c Au1 2.9372(12) 1_455
EU4_c Au1 2.9372(12) 3_665
EU4_c Au1 2.9372(12) 5_546
EU4_c Au1 2.9372(12) 4_456
EU4_c Eu1 3.6225(6) 1_556
