#------------------------------------------------------------------------------
#$Date: 2016-03-23 23:55:35 +0200 (Wed, 23 Mar 2016) $
#$Revision: 179518 $
#$URL: svn://www.crystallography.net/cod/cif/4/34/15/4341500.cif $
#------------------------------------------------------------------------------
#
# This file is available in the Crystallography Open Database (COD),
# http://www.crystallography.net/
#
# All data on this site have been placed in the public domain by the
# contributors.
#
data_4341500
loop_
_publ_author_name
'Kandanapitiye, Murthi S.'
'Gao, Min'
'Molter, Joseph'
'Flask, Chris A.'
'Huang, Songping D.'
_publ_section_title
;
 Synthesis, Characterization, and X-ray Attenuation Properties of
 Ultrasmall BiOI Nanoparticles: Toward Renal Clearable Particulate CT
 Contrast Agents.
;
_journal_issue                   19
_journal_name_full               'Inorganic chemistry'
_journal_page_first              10189
_journal_page_last               10194
_journal_paper_doi               10.1021/ic5011709
_journal_volume                  53
_journal_year                    2014
_chemical_formula_moiety         'Bi O I'
_chemical_formula_sum            'Bi I O'
_chemical_formula_weight         351.88
_chemical_name_common            'Bismuth oxide iodide'
_chemical_name_systematic        'Bismuth oxide iodide'
_space_group_IT_number           129
_symmetry_cell_setting           tetragonal
_symmetry_space_group_name_Hall  '-P 4a 2a'
_symmetry_space_group_name_H-M   'P 4/n m m :2'
_audit_creation_date             2011-04-27T23:49
_audit_creation_method           'from EXP file using GSAS2CIF'
_audit_update_record
;
2011-04-27T23:49  Initial CIF as created by GSAS2CIF

2011-04-28 # Formatted by publCIF
;
_cell_angle_alpha                90.0
_cell_angle_beta                 90.0
_cell_angle_gamma                90.0
_cell_formula_units_Z            2
_cell_length_a                   3.99399(4)
_cell_length_b                   3.99399
_cell_length_c                   9.15486(8)
_cell_measurement_temperature    295
_cell_volume                     146.0379(19)
_computing_data_collection       'XRD commander'
_computing_structure_refinement  GSAS
_diffrn_ambient_temperature      295
_diffrn_detector                 PSD
_diffrn_detector_type            LynxEye
_diffrn_measurement_device_type  'D8 Advance powder diffractometer'
_diffrn_radiation_monochromator  'Ni beta-filter'
_diffrn_radiation_polarisn_ratio 0.5
_diffrn_radiation_probe          x-ray
_diffrn_radiation_source         'sealed tube'
_diffrn_source                   'sealed tube'
_diffrn_source_target            Cu
_diffrn_source_type              x-ray
_exptl_absorpt_correction_T_max  0.98355
_exptl_absorpt_correction_T_min  0.43084
_exptl_absorpt_process_details
;   GSAS Absorption/surface roughness correction: function number 3
 Surface roughness abs. correction (Suortti)
Terms =     0.44522E-01    0.83729E-01
Correction is refined.
;
_exptl_crystal_density_diffrn    8.002
_exptl_crystal_F_000             288
_pd_block_id
2011-04-27T23:49|SP31SPIN_FINAL!|Peter_Zavalij|D8_Advance_LynxEye
_pd_calc_method                  'Rietveld Refinement'
_pd_char_colour                  red-orange
_pd_char_particle_morphology     plate-like
_pd_instr_location
' X-ray Crystallographic Center, University of Maryland, College Park, MD'
_pd_meas_2theta_range_inc        0.01578
_pd_meas_2theta_range_max        109.07313
_pd_meas_2theta_range_min        7.0024
_pd_meas_number_of_points        6471
_pd_meas_scan_method             step
_pd_phase_name                   BIOI1941.CIF
_pd_proc_2theta_range_inc        0.01578
_pd_proc_2theta_range_max        109.07313
_pd_proc_2theta_range_min        7.0024
_pd_proc_info_datetime           2011-04-27T23:49:22
_pd_proc_ls_background_function
;   GSAS Background function number 1 with 28 terms.
 Shifted Chebyshev function of 1st kind
      1:    1804.56     2:   -2452.07     3:    2042.20     4:   -1526.98    
      5:    1122.98     6:   -775.802     7:    515.137     8:   -306.069    
      9:    147.092    10:   -37.5103    11:   -30.4191    12:    44.8284    
     13:   -48.5569    14:    32.2179    15:   -16.3776    16:    6.52489    
     17:    14.5944    18:   -21.5767    19:    21.4032    20:   -15.3319    
     21:   -1.01194    22:    18.4111    23:   -21.0108    24:    23.7769    
     25:   -14.6225    26:    23.7457    27:   -17.6959    28:    14.5560    
;
_pd_proc_ls_peak_cutoff          0.00500
_pd_proc_ls_pref_orient_corr
;   March-Dollase
 AXIS  1 Ratio=   0.64143  h= 0  k= 0  l= 1
 Prefered orientation correction range: Min=   0.4097, Max=   5.3361
;
_pd_proc_ls_profile_function
;
 CW Profile function number 3 with  19 terms
 Pseudovoigt profile coefficients as parameterized in
 P. Thompson, D.E. Cox & J.B. Hastings (1987). J. Appl. Cryst.,20,79-83.
 Asymmetry correction of L.W. Finger, D.E. Cox & A. P. Jephcoat (1994).
 J. Appl. Cryst.,27,892-900.
 Peak tails are ignored  where the intensity is below 0.0050 times the peak
   Aniso. broadening axis   0.0   0.0   1.0
;
_pd_proc_ls_prof_R_factor        0.0270
_pd_proc_ls_prof_wR_expected     0.0258
_pd_proc_ls_prof_wR_factor       0.0357
_pd_proc_number_of_points        6471
_pd_spec_mounting                'plastic sample holder'
_pd_spec_mount_mode              reflection
_pd_spec_shape                   disk
_pd_spec_size_axial              12
_pd_spec_size_equat              12
_pd_spec_size_thick              0.2
_refine_ls_goodness_of_fit_all   1.39
_refine_ls_matrix_type           full
_refine_ls_number_constraints    2
_refine_ls_number_parameters     54
_refine_ls_number_restraints     0
_refine_ls_R_Fsqd_factor         0.0158
_refine_ls_R_I_factor            0.0158
_refine_ls_shift/su_max          0.04
_refine_ls_shift/su_mean         0.01
_reflns_d_resolution_high        0.957
_reflns_d_resolution_low         9.155
_reflns_limit_h_max              4
_reflns_limit_h_min              0
_reflns_limit_k_max              3
_reflns_limit_k_min              0
_reflns_limit_l_max              9
_reflns_limit_l_min              0
_reflns_number_total             148
_cod_data_source_file            ic5011709_si_002.cif
_cod_data_source_block           SP31SPIN_FINAL!_publ
_cod_depositor_comments
;
The following automatic conversions were performed:

'_geom_bond_publ_flag' value 'N' changed to 'n' according to
/usr/data/users/saulius/crontab/automatic-downloads/current/ACS/lib/dictionaries/cif_core.dic
dictionary named 'cif_core.dic' version 2.4.2 from 2011-04-26 (16
times).

'_geom_angle_publ_flag' value 'N' changed to 'n' according
to
/usr/data/users/saulius/crontab/automatic-downloads/current/ACS/lib/dictionaries/cif_core.dic
dictionary named 'cif_core.dic' version 2.4.2 from 2011-04-26 (40
times).

Automatic conversion script
Id: cif_fix_values 2827 2014-09-09 07:05:25Z andrius 
;
_cod_original_cell_volume        146.038(3)
_cod_original_sg_symbol_H-M      'P 4/n m m'
_cod_database_code               4341500
loop_
_symmetry_equiv_pos_site_id
_symmetry_equiv_pos_as_xyz
1 +x,+y,+z
2 -y+1/2,+x,+z
3 -x+1/2,-y+1/2,+z
4 +y,-x+1/2,+z
5 -x+1/2,+y,+z
6 -y+1/2,-x+1/2,+z
7 +x,-y+1/2,+z
8 +y,+x,+z
-1 -x,-y,-z
-2 +y+1/2,-x,-z
-3 +x+1/2,+y+1/2,-z
-4 -y,+x+1/2,-z
-5 +x+1/2,-y,-z
-6 +y+1/2,+x+1/2,-z
-7 -x,+y+1/2,-z
-8 -y,-x,-z
loop_
_atom_site_type_symbol
_atom_site_label
_atom_site_fract_x
_atom_site_fract_y
_atom_site_fract_z
_atom_site_occupancy
_atom_site_thermal_displace_type
_atom_site_U_iso_or_equiv
_atom_site_symmetry_multiplicity
Bi Bi1 0.25 0.25 0.13358(3) 1.0 Uiso 0.01169(7) 2
O O1 0.25 0.75 0.0 1.0 Uiso 0.01169(7) 2
I I1 0.25 0.25 0.66586(5) 1.0 Uiso 0.01169(7) 2
loop_
_atom_type_symbol
_atom_type_number_in_cell
_atom_type_scat_dispersion_real
_atom_type_scat_dispersion_imag
_atom_type_scat_Cromer_Mann_a1
_atom_type_scat_Cromer_Mann_a2
_atom_type_scat_Cromer_Mann_a3
_atom_type_scat_Cromer_Mann_a4
_atom_type_scat_Cromer_Mann_b1
_atom_type_scat_Cromer_Mann_b2
_atom_type_scat_Cromer_Mann_b3
_atom_type_scat_Cromer_Mann_b4
_atom_type_scat_Cromer_Mann_c
_atom_type_scat_source
Bi 2.0 0.000 0.000 33.3689 0.70400 12.9510 2.92380 16.5877 8.79370 6.46920
48.0093 13.5782 International_Tables_Vol_C
O 2.0 0.000 0.000 3.04850 13.2771 2.28680 5.70110 1.54630 0.32390 0.86700
32.9089 0.25080 International_Tables_Vol_C
I 2.0 0.000 0.000 20.1472 4.34700 18.9949 0.38140 7.51380 27.7660 2.27350
66.8776 4.07120 International_Tables_Vol_C
loop_
_diffrn_radiation_wavelength
_diffrn_radiation_wavelength_wt
_diffrn_radiation_type
_diffrn_radiation_wavelength_id
1.540600 1.000 K\a~1~ 1
1.544400 0.500 K\a~2~ 2
loop_
_geom_angle_atom_site_label_1
_geom_angle_atom_site_label_2
_geom_angle_atom_site_label_3
_geom_angle
_geom_angle_site_symmetry_1
_geom_angle_site_symmetry_3
_geom_angle_publ_flag
O1 Bi1 O1 117.036(13) 1_545 1_555 n
O1 Bi1 O1 74.174(6) 1_545 2_555 n
O1 Bi1 O1 74.174(6) 1_545 2_655 n
O1 Bi1 I1 77.237(5) 1_545 -1_556 n
O1 Bi1 I1 142.2063(14) 1_545 -1_566 n
O1 Bi1 I1 77.237(5) 1_545 -1_656 n
O1 Bi1 I1 142.2063(14) 1_545 -1_666 n
O1 Bi1 O1 74.174(6) 1_555 2_555 n
O1 Bi1 O1 74.174(6) 1_555 2_655 n
O1 Bi1 I1 142.2063(14) 1_555 -1_556 n
O1 Bi1 I1 77.237(5) 1_555 -1_566 n
O1 Bi1 I1 142.2063(14) 1_555 -1_656 n
O1 Bi1 I1 77.237(5) 1_555 -1_666 n
O1 Bi1 O1 117.036(13) 2_555 2_655 n
O1 Bi1 I1 77.237(5) 2_555 -1_556 n
O1 Bi1 I1 77.237(5) 2_555 -1_566 n
O1 Bi1 I1 142.2063(14) 2_555 -1_656 n
O1 Bi1 I1 142.2063(14) 2_555 -1_666 n
O1 Bi1 I1 142.2063(14) 2_655 -1_556 n
O1 Bi1 I1 142.2063(14) 2_655 -1_566 n
O1 Bi1 I1 77.237(5) 2_655 -1_656 n
O1 Bi1 I1 77.237(5) 2_655 -1_666 n
I1 Bi1 I1 72.716(7) -1_556 -1_566 n
I1 Bi1 I1 72.716(7) -1_556 -1_656 n
I1 Bi1 I1 113.940(15) -1_556 -1_666 n
I1 Bi1 I1 113.940(15) -1_566 -1_656 n
I1 Bi1 I1 72.716(7) -1_566 -1_666 n
I1 Bi1 I1 72.716(7) -1_656 -1_666 n
Bi1 O1 Bi1 117.036(13) 1_555 1_565 n
Bi1 O1 Bi1 105.826(6) 1_555 -1_565 n
Bi1 O1 Bi1 105.826(6) 1_555 -1_665 n
Bi1 O1 Bi1 105.826(6) 1_565 -1_565 n
Bi1 O1 Bi1 105.826(6) 1_565 -1_665 n
Bi1 O1 Bi1 117.036(13) -1_565 -1_665 n
Bi1 I1 Bi1 72.716(7) -1_556 -1_566 n
Bi1 I1 Bi1 72.716(7) -1_556 -1_656 n
Bi1 I1 Bi1 113.940(15) -1_556 -1_666 n
Bi1 I1 Bi1 113.940(15) -1_566 -1_656 n
Bi1 I1 Bi1 72.716(7) -1_566 -1_666 n
Bi1 I1 Bi1 72.716(7) -1_656 -1_666 n
loop_
_geom_bond_atom_site_label_1
_geom_bond_atom_site_label_2
_geom_bond_distance
_geom_bond_site_symmetry_2
_geom_bond_publ_flag
Bi1 O1 2.34167(16) 1_545 n
Bi1 O1 2.34167(16) 1_555 n
Bi1 O1 2.34167(16) 2_555 n
Bi1 O1 2.34167(16) 2_655 n
Bi1 I1 3.36858(29) -1_556 n
Bi1 I1 3.36858(29) -1_566 n
Bi1 I1 3.36858(29) -1_656 n
Bi1 I1 3.36858(29) -1_666 n
O1 Bi1 2.34167(16) 1_555 n
O1 Bi1 2.34167(16) 1_565 n
O1 Bi1 2.34167(16) -1_565 n
O1 Bi1 2.34167(16) -1_665 n
I1 Bi1 3.36858(29) -1_556 n
I1 Bi1 3.36858(29) -1_566 n
I1 Bi1 3.36858(29) -1_656 n
I1 Bi1 3.36858(29) -1_666 n
loop_
_pd_meas_counts_total
_pd_proc_ls_weight
_pd_proc_intensity_bkg_calc
_pd_calc_intensity_total
10818.0 0.0000924 10489.55078 10489.52637
10713.0 0.0000933 10480.39063 10480.36523
10604.0 0.0000943 10470.02539 10469.99902
10602.0 0.0000943 10458.50293 10458.47559
10444.0 0.0000957 10445.87109 10445.84375
10448.0 0.0000957 10432.17578 10432.14844
10366.0 0.0000965 10417.46191 10417.43457
10302.0 0.0000971 10401.77344 10401.74512
10473.0 0.0000955 10385.15234 10385.12402
10474.0 0.0000955 10367.63672 10367.60840
10439.0 0.0000958 10349.27148 10349.24316
10483.0 0.0000954 10330.09082 10330.06250
10151.0 0.0000985 10310.13379 10310.10645
10335.0 0.0000968 10289.43750 10289.40918
10301.0 0.0000971 10268.03613 10268.00879
10059.0 0.0000994 10245.96582 10245.93848
10259.0 0.0000975 10223.25586 10223.23047
10075.0 0.0000993 10199.94434 10199.91895
10191.0 0.0000981 10176.05664 10176.03223
10066.0 0.0000993 10151.62598 10151.60156
10048.0 0.0000995 10126.68359 10126.66016
10036.0 0.0000996 10101.25391 10101.23145
10007.0 0.0000999 10075.36621 10075.34375
10119.0 0.0000988 10049.04688 10049.02539
9996.0 0.0001000 10022.32324 10022.30273
10044.0 0.0000996 9995.21875 9995.19824
9796.0 0.0001021 9967.75684 9967.73730
9930.0 0.0001007 9939.96289 9939.94434
9967.0 0.0001003 9911.85645 9911.83887
9924.0 0.0001008 9883.46289 9883.44629
9709.0 0.0001030 9854.80176 9854.78613
9653.0 0.0001036 9825.89258 9825.87793
9963.0 0.0001004 9796.75586 9796.74219
9641.0 0.0001037 9767.41309 9767.39941
9497.0 0.0001053 9737.87598 9737.86328
9562.0 0.0001046 9708.16895 9708.15723
9503.0 0.0001052 9678.30176 9678.29102
9538.0 0.0001048 9648.29980 9648.29004
9402.0 0.0001064 9618.17383 9618.16406
9525.0 0.0001050 9587.93457 9587.92578
9462.0 0.0001057 9557.60645 9557.59863
9596.0 0.0001042 9527.19629 9527.18945
9432.0 0.0001060 9496.71777 9496.71191
9483.0 0.0001055 9466.19043 9466.18555
9379.0 0.0001066 9435.61914 9435.61426
9411.0 0.0001063 9405.02051 9405.01563
9423.0 0.0001061 9374.39941 9374.39648
9183.0 0.0001089 9343.77832 9343.77539
9307.0 0.0001074 9313.15820 9313.15527
9248.0 0.0001081 9282.54883 9282.54688
9245.0 0.0001082 9251.96875 9251.96680
9150.0 0.0001093 9221.41797 9221.41699
9063.0 0.0001103 9190.90918 9190.90820
9193.0 0.0001088 9160.45020 9160.45020
9214.0 0.0001085 9130.04883 9130.04883
8910.0 0.0001122 9099.71289 9099.71289
9066.0 0.0001103 9069.44629 9069.44727
9135.0 0.0001095 9039.26563 9039.26660
8894.0 0.0001124 9009.16699 9009.16797
9215.0 0.0001085 8979.15918 8979.16113
9205.0 0.0001086 8949.25293 8949.25488
8853.0 0.0001130 8919.44727 8919.44922
8885.0 0.0001125 8889.75098 8889.75195
8769.0 0.0001140 8860.16797 8860.16992
8893.0 0.0001124 8830.70313 8830.70508
8909.0 0.0001122 8801.36230 8801.36426
8883.0 0.0001126 8772.14355 8829.59277
8960.0 0.0001116 8743.05957 8801.60645
8856.0 0.0001129 8714.10742 8802.69629
8732.0 0.0001145 8685.29004 8775.59570
8920.0 0.0001121 8656.61621 8748.68945
8759.0 0.0001142 8628.08398 8721.97559
8521.0 0.0001174 8599.69727 8695.46191
8600.0 0.0001163 8571.45898 8669.15430
8527.0 0.0001173 8543.36816 8643.05371
8711.0 0.0001148 8515.43066 8617.16602
8328.0 0.0001201 8487.64648 8591.49512
8540.0 0.0001171 8460.01953 8566.04883
8517.0 0.0001174 8432.54590 8540.82422
8549.0 0.0001170 8405.22949 8515.83008
8574.0 0.0001166 8378.07617 8491.07520
8402.0 0.0001190 8351.07813 8466.55176
8561.0 0.0001168 8324.24121 8442.27246
8597.0 0.0001163 8297.56641 8418.24121
8462.0 0.0001182 8271.05078 8394.45801
8313.0 0.0001203 8244.69824 8370.93262
8246.0 0.0001213 8218.50488 8347.66309
8313.0 0.0001203 8192.47559 8324.66113
8324.0 0.0001201 8166.60693 8301.92676
8334.0 0.0001200 8140.89697 8279.46387
8329.0 0.0001201 8115.35059 8257.28125
8371.0 0.0001195 8089.96338 8235.38281
8220.0 0.0001217 8064.73535 8213.77246
8186.0 0.0001222 8039.66748 8192.45996
8216.0 0.0001217 8014.75635 8171.44580
8009.0 0.0001249 7990.00537 8150.74268
8081.0 0.0001237 7965.40479 8130.34863
8172.0 0.0001224 7940.96484 8110.28076
8276.0 0.0001208 7916.67725 8090.54199
8080.0 0.0001238 7892.54004 8071.13818
8088.0 0.0001236 7868.55957 8052.08643
8034.0 0.0001245 7844.72412 8033.38525
7989.0 0.0001252 7821.03906 8015.05273
8017.0 0.0001247 7797.50537 7997.10059
7673.0 0.0001303 7774.11182 7979.53320
8092.0 0.0001236 7750.86572 7962.36865
7856.0 0.0001273 7727.76025 7945.61963
8192.0 0.0001221 7704.79688 7929.30127
7858.0 0.0001273 7681.97510 7913.43018
7830.0 0.0001277 7659.28564 7898.02002
7737.0 0.0001292 7636.73682 7883.09521
7942.0 0.0001259 7614.31836 7868.67090
7899.0 0.0001266 7592.03125 7854.77051
7826.0 0.0001278 7569.87891 7841.42285
7844.0 0.0001275 7547.85059 7828.64746
7805.0 0.0001281 7525.94922 7816.47656
7899.0 0.0001266 7504.17090 7804.94043
7861.0 0.0001272 7482.51611 7794.07373
7826.0 0.0001278 7460.98193 7783.91406
7608.0 0.0001314 7439.56396 7774.50098
7845.0 0.0001275 7418.26270 7765.87988
7708.0 0.0001297 7397.07520 7758.10010
7721.0 0.0001295 7376.00049 7751.21680
7720.0 0.0001295 7355.03467 7745.28711
7672.0 0.0001303 7334.17676 7740.38037
7867.0 0.0001271 7313.42480 7736.56543
7619.0 0.0001313 7292.77344 7733.92236
7616.0 0.0001313 7272.22852 7732.54590
7774.0 0.0001286 7251.78076 7732.52734
7737.0 0.0001292 7231.42725 7733.97998
7756.0 0.0001289 7211.17236 7737.02588
7763.0 0.0001288 7191.00879 7741.80078
7859.0 0.0001272 7170.93652 7748.45801
7763.0 0.0001288 7150.95410 7757.16699
7697.0 0.0001299 7131.05762 7768.12158
7850.0 0.0001274 7111.24512 7781.53711
7887.0 0.0001268 7091.51660 7797.66406
7853.0 0.0001273 7071.86865 7816.77344
7979.0 0.0001253 7052.29883 7839.19189
7886.0 0.0001268 7032.80518 7865.29053
7963.0 0.0001256 7013.38672 7895.49268
8086.0 0.0001237 6994.04150 7930.31396
7919.0 0.0001263 6974.76660 7970.35791
8083.0 0.0001237 6955.56104 8016.35742
8128.0 0.0001230 6936.42188 8069.22803
8254.0 0.0001212 6917.34717 8130.09814
8510.0 0.0001175 6898.33545 8200.41602
8485.0 0.0001179 6879.38623 8282.00000
8830.0 0.0001133 6860.49609 8377.21875
8997.0 0.0001111 6841.66309 8489.09668
9177.0 0.0001090 6822.88672 8621.45703
9321.0 0.0001073 6804.16406 8779.18262
9567.0 0.0001045 6785.49414 8968.29785
9783.0 0.0001022 6766.87451 9196.15137
9980.0 0.0001002 6748.30469 9471.57422
10376.0 0.0000964 6729.78125 9804.76465
10917.0 0.0000916 6711.30322 10207.31055
11385.0 0.0000878 6692.87109 10691.71289
11996.0 0.0000834 6674.48193 11271.19922
12533.0 0.0000798 6656.12988 11958.87793
13238.0 0.0000755 6637.82129 12766.72070
14016.0 0.0000713 6619.54883 13704.89453
15418.0 0.0000649 6601.31299 14779.88867
16193.0 0.0000618 6583.11377 15992.89063
17499.0 0.0000571 6564.94727 17337.75000
19086.0 0.0000524 6546.81348 18797.14258
19912.0 0.0000502 6528.70996 20338.97461
21617.0 0.0000463 6510.63672 21910.57617
23048.0 0.0000434 6492.59277 23435.32031
23891.0 0.0000419 6474.57520 24811.24414
24965.0 0.0000401 6456.58350 25918.60742
25915.0 0.0000386 6438.61816 26639.75977
25976.0 0.0000385 6420.67432 26886.10938
25907.0 0.0000386 6402.75537 26624.30078
25573.0 0.0000391 6384.85547 25886.42383
25010.0 0.0000400 6366.97754 24759.52148
23465.0 0.0000426 6349.11572 23359.91797
22057.0 0.0000453 6331.27686 21806.69531
20745.0 0.0000482 6313.45361 20201.85156
19489.0 0.0000513 6295.64404 18623.05273
17678.0 0.0000566 6277.85400 17124.04492
16286.0 0.0000614 6260.07568 15737.77539
15075.0 0.0000663 6242.31299 14482.32422
13659.0 0.0000732 6224.56299 13364.67871
12762.0 0.0000784 6206.82275 12383.77441
11822.0 0.0000846 6189.09668 11533.45996
10871.0 0.0000920 6171.37842 10803.78516
10222.0 0.0000978 6153.67432 10182.88379
9306.0 0.0001075 6135.97607 9657.61230
9043.0 0.0001106 6118.28516 9214.81445
8701.0 0.0001149 6100.60645 8841.95996
8264.0 0.0001210 6082.93359 8527.38770
7668.0 0.0001304 6065.26514 8260.80371
7621.0 0.0001312 6047.60449 8033.39453
7635.0 0.0001310 6029.94971 7837.67773
7247.0 0.0001380 6012.29883 7667.56982
7168.0 0.0001395 5994.65479 7518.16699
7087.0 0.0001411 5977.01416 7385.54834
6906.0 0.0001448 5959.37695 7266.66553
6804.0 0.0001470 5941.74316 7159.11670
6677.0 0.0001498 5924.11279 7061.05518
6689.0 0.0001495 5906.48584 6971.00684
6566.0 0.0001523 5888.86084 6887.81494
6450.0 0.0001550 5871.23877 6810.57227
6425.0 0.0001556 5853.61816 6738.51709
6376.0 0.0001568 5835.99902 6671.03809
6354.0 0.0001574 5818.38281 6607.62695
6327.0 0.0001581 5800.76660 6547.83350
6245.0 0.0001601 5783.15186 6491.29102
6187.0 0.0001616 5765.53906 6437.67676
6087.0 0.0001643 5747.92578 6386.69873
6060.0 0.0001650 5730.31348 6338.10840
6052.0 0.0001652 5712.70410 6291.69922
5994.0 0.0001668 5695.09375 6247.25732
5954.0 0.0001680 5677.48438 6204.61572
5846.0 0.0001711 5659.87598 6163.62012
6049.0 0.0001653 5642.26855 6124.13184
5839.0 0.0001713 5624.66113 6086.02197
5830.0 0.0001715 5607.05371 6049.17871
5766.0 0.0001734 5589.45068 6013.50977
5853.0 0.0001709 5571.84668 5978.91211
5719.0 0.0001749 5554.24365 5945.30713
5731.0 0.0001745 5536.64258 5912.62158
5679.0 0.0001761 5519.04199 5880.78564
5767.0 0.0001734 5501.44385 5849.73779
5701.0 0.0001754 5483.84521 5819.41992
5729.0 0.0001746 5466.25244 5789.78857
5635.0 0.0001775 5448.65918 5760.78760
5602.0 0.0001785 5431.06836 5732.37744
5570.0 0.0001795 5413.48340 5704.52295
5536.0 0.0001806 5395.89746 5677.17969
5498.0 0.0001819 5378.31543 5650.31885
5613.0 0.0001782 5360.74072 5623.91602
5478.0 0.0001825 5343.16553 5597.93164
5468.0 0.0001829 5325.59570 5572.34766
5463.0 0.0001830 5308.03027 5547.13818
5542.0 0.0001804 5290.47070 5522.28271
5405.0 0.0001850 5272.91699 5497.75977
5393.0 0.0001854 5255.36621 5473.54688
5488.0 0.0001822 5237.82520 5449.63672
5366.0 0.0001864 5220.28809 5426.00195
5337.0 0.0001874 5202.75684 5402.63184
5368.0 0.0001863 5185.23633 5379.51660
5309.0 0.0001884 5167.72168 5356.63770
5318.0 0.0001880 5150.21289 5333.98291
5223.0 0.0001915 5132.71387 5311.54395
5277.0 0.0001895 5115.22803 5289.31543
5248.0 0.0001905 5097.74756 5267.27637
5157.0 0.0001939 5080.27930 5245.42578
5094.0 0.0001963 5062.82080 5223.75293
5060.0 0.0001976 5045.37402 5202.24951
5077.0 0.0001970 5027.93604 5180.90576
5255.0 0.0001903 5010.51416 5159.72314
5135.0 0.0001947 4993.10352 5138.68701
5136.0 0.0001947 4975.70459 5117.79297
4946.0 0.0002022 4958.31934 5097.03613
5165.0 0.0001936 4940.95166 5076.41650
5075.0 0.0001970 4923.59570 5055.91992
5075.0 0.0001970 4906.25439 5035.54639
4988.0 0.0002005 4888.93359 5015.29590
5120.0 0.0001953 4871.62549 4995.15625
4875.0 0.0002051 4854.33545 4975.12891
4893.0 0.0002044 4837.06445 4955.20996
5015.0 0.0001994 4819.81006 4935.39307
4974.0 0.0002010 4802.57568 4915.67969
4953.0 0.0002019 4785.35840 4896.06055
4736.0 0.0002111 4768.16406 4876.54248
4727.0 0.0002116 4750.99023 4857.11475
4822.0 0.0002074 4733.83643 4837.77734
4796.0 0.0002085 4716.70703 4818.53076
4755.0 0.0002103 4699.59717 4799.36768
4858.0 0.0002058 4682.51074 4780.28955
4740.0 0.0002110 4665.45068 4761.29688
4682.0 0.0002136 4648.41309 4742.38330
4756.0 0.0002103 4631.40039 4723.54883
4669.0 0.0002142 4614.41504 4704.79395
4682.0 0.0002136 4597.45410 4686.11377
4686.0 0.0002134 4580.52100 4610.01563
4569.0 0.0002189 4563.61279 4563.59717
4683.0 0.0002135 4546.73828 4546.72363
4518.0 0.0002213 4529.88867 4529.87451
4544.0 0.0002201 4513.06982 4513.05664
4561.0 0.0002193 4496.28076 4496.26807
4549.0 0.0002198 4479.52246 4479.51074
4516.0 0.0002214 4462.79443 4462.78320
4513.0 0.0002216 4446.10010 4446.08936
4506.0 0.0002219 4429.43750 4429.42773
4508.0 0.0002218 4412.80762 4412.79834
4471.0 0.0002237 4396.21191 4396.20313
4485.0 0.0002230 4379.65137 4379.64355
4282.0 0.0002335 4363.12451 4363.11719
4413.0 0.0002266 4346.63330 4346.62646
4389.0 0.0002278 4330.18066 4330.17480
4295.0 0.0002328 4313.76318 4313.75781
4398.0 0.0002274 4297.38232 4297.37744
4442.0 0.0002251 4281.04297 4281.03857
4331.0 0.0002309 4264.73877 4264.73535
4310.0 0.0002320 4248.47510 4248.47217
4471.0 0.0002237 4232.25049 4232.24805
4373.0 0.0002287 4216.06836 4216.06641
4280.0 0.0002336 4199.92725 4199.92627
4226.0 0.0002366 4183.82568 4183.82520
4207.0 0.0002377 4167.76904 4167.76904
4223.0 0.0002368 4151.75342 4151.75391
4238.0 0.0002360 4135.77930 4135.78027
4158.0 0.0002405 4119.85352 4119.85547
4204.0 0.0002379 4103.97021 4103.97266
4270.0 0.0002342 4088.13062 4088.13330
4089.0 0.0002446 4072.33838 4072.34180
4112.0 0.0002432 4056.59277 4056.59668
4038.0 0.0002476 4040.89160 4040.89575
4164.0 0.0002402 4025.23779 4025.24268
4179.0 0.0002393 4009.63574 4009.64111
4079.0 0.0002452 3994.07910 3994.08496
4071.0 0.0002456 3978.57153 3978.57764
4156.0 0.0002406 3963.11401 3963.12085
4109.0 0.0002434 3947.70557 3947.71289
4049.0 0.0002470 3932.34766 3932.35547
3866.0 0.0002587 3917.03882 3917.04712
4037.0 0.0002477 3901.78564 3901.79419
3959.0 0.0002526 3886.58154 3886.59082
3991.0 0.0002506 3871.42993 3871.43945
3930.0 0.0002545 3856.33228 3856.34229
3897.0 0.0002566 3841.28613 3841.29663
3867.0 0.0002586 3826.29321 3826.30396
3969.0 0.0002520 3811.35815 3811.36938
3918.0 0.0002552 3796.47510 3796.48657
3826.0 0.0002614 3781.64771 3781.65967
3915.0 0.0002554 3766.87500 3766.88745
3953.0 0.0002530 3752.15918 3752.17212
3744.0 0.0002671 3737.50024 3737.51343
3865.0 0.0002587 3722.89526 3722.90894
3842.0 0.0002603 3708.35156 3708.36548
3834.0 0.0002608 3693.86353 3693.87769
3750.0 0.0002667 3679.43286 3679.44751
3770.0 0.0002653 3665.06152 3665.07642
3814.0 0.0002622 3650.74829 3650.76367
3670.0 0.0002725 3636.49390 3636.50928
3792.0 0.0002637 3622.29785 3622.31348
3702.0 0.0002701 3608.16553 3608.18164
3762.0 0.0002658 3594.09082 3594.10718
3702.0 0.0002701 3580.07715 3580.09375
3629.0 0.0002756 3566.12378 3566.14063
3633.0 0.0002753 3552.23145 3552.24854
3626.0 0.0002758 3538.39966 3538.41699
3647.0 0.0002742 3524.63257 3524.65015
3627.0 0.0002757 3510.92700 3510.94482
3634.0 0.0002752 3497.28223 3497.30029
3556.0 0.0002812 3483.70044 3483.71875
3417.0 0.0002927 3470.18262 3470.20117
3491.0 0.0002865 3456.72705 3456.74585
3544.0 0.0002822 3443.33398 3443.35278
3614.0 0.0002767 3430.00781 3430.02686
3582.0 0.0002792 3416.74341 3416.76245
3557.0 0.0002811 3403.54346 3403.56299
3505.0 0.0002853 3390.40894 3390.42847
3514.0 0.0002846 3377.33765 3377.35718
3457.0 0.0002893 3364.33228 3364.35205
3440.0 0.0002907 3351.39087 3351.41089
3441.0 0.0002906 3338.51660 3338.53662
3507.0 0.0002851 3325.70703 3325.72729
3508.0 0.0002851 3312.96289 3312.98315
3386.0 0.0002953 3300.28564 3300.30591
3412.0 0.0002931 3287.67358 3287.69409
3355.0 0.0002981 3275.12720 3275.14771
3346.0 0.0002989 3262.65015 3262.67090
3311.0 0.0003020 3250.23682 3250.25757
3307.0 0.0003024 3237.88940 3237.91016
3387.0 0.0002952 3225.61035 3225.63110
3280.0 0.0003049 3213.39966 3213.42065
3305.0 0.0003026 3201.25317 3201.27417
3325.0 0.0003008 3189.17480 3189.19556
3336.0 0.0002998 3177.16528 3177.18628
3363.0 0.0002974 3165.22168 3165.24268
3218.0 0.0003108 3153.34644 3153.36719
3318.0 0.0003014 3141.53857 3141.55957
3325.0 0.0003008 3129.79639 3129.81738
3331.0 0.0003002 3118.12524 3118.14600
3366.0 0.0002971 3106.51855 3106.53931
3297.0 0.0003033 3094.98267 3095.00342
3242.0 0.0003085 3083.51294 3083.53369
3077.0 0.0003250 3072.11035 3072.13110
3126.0 0.0003199 3060.77783 3060.79858
3099.0 0.0003227 3049.51196 3049.53271
3112.0 0.0003213 3038.31299 3038.33350
3103.0 0.0003223 3027.18506 3027.20557
3030.0 0.0003300 3016.12280 3016.14331
3083.0 0.0003244 3005.12915 3005.14941
3025.0 0.0003306 2994.20361 2994.22388
3048.0 0.0003281 2983.34595 2983.36621
3068.0 0.0003259 2972.55591 2972.57593
2944.0 0.0003397 2961.83301 2961.85278
3030.0 0.0003300 2951.18042 2951.20020
3016.0 0.0003316 2940.59424 2940.61401
2922.0 0.0003422 2930.07568 2930.09521
2916.0 0.0003429 2919.62573 2919.64526
2882.0 0.0003470 2909.24268 2909.26196
3011.0 0.0003321 2898.92725 2898.94629
2913.0 0.0003433 2888.67847 2888.69727
2963.0 0.0003375 2878.49976 2878.51855
2857.0 0.0003500 2868.38672 2868.40527
2880.0 0.0003472 2858.34033 2858.35889
2849.0 0.000351 2848.36255 2848.38086
2872.0 0.0003482 2838.45117 2838.46924
2732.0 0.000366 2828.60498 2828.62305
2862.0 0.0003494 2818.82935 2818.84717
2813.0 0.000355 2809.11841 2809.13599
2761.0 0.000362 2799.47412 2799.49170
2838.0 0.000352 2789.89648 2789.91357
2742.0 0.000365 2780.38525 2780.40234
2623.0 0.000381 2770.94043 2770.95728
2688.0 0.000372 2761.56030 2761.57690
2562.0 0.000390 2752.24805 2752.26440
2610.0 0.000383 2743.00024 2743.01636
2687.0 0.000372 2733.81812 2733.83398
2600.0 0.000385 2724.70264 2724.71826
2554.0 0.000392 2715.65063 2715.66602
2621.0 0.000382 2706.66431 2706.67944
2617.0 0.000382 2697.74219 2697.75708
2627.0 0.000381 2688.88623 2688.90088
2524.0 0.000396 2680.09399 2680.10840
2529.0 0.000395 2671.36572 2671.37988
2606.0 0.000384 2662.70239 2662.71631
2538.0 0.000394 2654.10254 2654.11621
2490.0 0.000402 2645.56543 2645.57886
2531.0 0.000395 2637.09277 2637.10596
2452.0 0.000408 2628.68286 2628.69580
2434.0 0.000411 2620.33594 2620.34839
2457.0 0.000407 2612.05200 2612.06421
2446.0 0.000409 2603.83154 2603.84351
2398.0 0.000417 2595.67139 2595.68311
2467.0 0.000405 2587.57373 2587.58521
2423.0 0.000413 2579.53955 2579.55078
2395.0 0.000418 2571.56470 2571.57568
2458.0 0.000407 2563.65210 2563.66260
2352.0 0.000425 2555.80127 2555.81177
2357.0 0.000424 2548.00977 2548.01978
2359.0 0.000424 2540.27905 2540.28882
2396.0 0.000417 2532.61011 2532.61963
2397.0 0.000417 2524.99927 2525.00854
2316.0 0.000432 2517.44946 2517.45825
2329.0 0.000429 2509.95752 2509.96631
2509.0 0.000399 2502.52661 2502.53491
2293.0 0.000436 2495.15308 2495.16113
2290.0 0.000437 2487.83740 2487.84521
2306.0 0.000434 2480.58228 2480.58960
2276.0 0.000439 2473.38379 2473.39087
2350.0 0.000426 2466.24243 2466.24927
2396.0 0.000417 2459.15967 2459.16626
2258.0 0.000443 2452.13330 2452.13940
2348.0 0.000426 2445.16333 2445.16919
2313.0 0.000432 2438.24902 2438.25464
2278.0 0.000439 2431.39331 2431.39844
2343.0 0.000427 2424.59204 2424.59692
2346.0 0.000426 2417.84595 2417.85059
2356.0 0.000424 2411.15552 2411.15991
2291.0 0.000436 2404.52002 2404.52393
2372.0 0.000422 2397.93774 2397.94141
2257.0 0.000443 2391.41138 2391.41479
2233.0 0.000448 2384.93823 2384.94141
2263.0 0.000442 2378.51855 2378.52124
2323.0 0.000430 2372.15186 2372.15430
2244.0 0.000446 2365.83862 2365.84082
2250.0 0.000444 2359.57739 2359.57935
2194.0 0.000456 2353.36768 2353.36914
2212.0 0.000452 2347.21167 2347.21289
2239.0 0.000447 2341.10645 2341.10718
2258.0 0.000443 2335.05200 2335.05273
2280.0 0.000439 2329.04858 2329.04883
2264.0 0.000442 2323.09570 2323.09570
2271.0 0.000440 2317.19312 2317.19263
2187.0 0.000457 2311.33960 2311.33911
2191.0 0.000456 2305.53613 2305.53540
2332.0 0.000429 2299.78198 2299.78076
2279.0 0.000439 2294.07593 2294.07446
2205.0 0.000454 2288.41895 2288.41724
2279.0 0.000439 2282.80957 2282.80762
2280.0 0.000439 2277.24780 2277.24561
2255.0 0.000443 2271.73364 2271.73096
2164.0 0.000462 2266.26636 2266.26343
2238.0 0.000447 2260.84546 2260.84229
2191.0 0.000456 2255.47144 2255.46802
2118.0 0.000472 2250.14282 2250.13916
2139.0 0.000468 2244.85962 2244.85571
2220.0 0.000450 2239.62134 2239.61694
2156.0 0.000464 2234.42871 2234.42407
2227.0 0.000449 2229.28003 2229.27539
2200.0 0.000455 2224.17578 2224.17065
2223.0 0.000450 2219.11499 2219.10962
2144.0 0.000466 2214.09790 2214.09229
2184.0 0.000458 2209.12329 2209.11743
2086.0 0.000479 2204.19141 2204.18530
2182.0 0.000458 2199.30273 2199.29639
2196.0 0.000455 2194.45483 2194.44800
2148.0 0.000466 2189.64893 2189.64185
2185.0 0.000458 2184.88501 2184.87769
2165.0 0.000462 2180.16016 2180.15283
2190.0 0.000457 2175.47681 2175.46924
2152.0 0.000465 2170.83423 2170.82642
2149.0 0.000465 2166.23022 2166.22217
2160.0 0.000463 2161.66650 2161.65820
2132.0 0.000469 2157.14087 2157.13232
2085.0 0.000480 2152.65430 2152.64575
2118.0 0.000472 2148.20679 2148.19775
2156.0 0.000464 2143.79590 2143.78687
2150.0 0.000465 2139.42334 2139.41406
2102.0 0.000476 2135.08887 2135.07910
2162.0 0.000463 2130.78931 2130.77954
2171.0 0.000461 2126.52808 2126.51807
2226.0 0.000449 2122.30225 2122.29199
2138.0 0.000468 2118.11157 2118.10107
2110.0 0.000474 2113.95679 2113.94604
2032.0 0.000492 2109.83813 2109.82715
2073.0 0.000482 2105.75317 2105.74219
2166.0 0.000462 2101.70264 2101.69165
2044.0 0.000489 2097.68652 2097.67505
2209.0 0.000453 2093.70361 2093.69214
2077.0 0.000481 2089.75366 2089.74194
2102.0 0.000476 2085.83765 2085.82593
2138.0 0.000468 2081.95435 2081.94214
2205.0 0.000454 2078.10254 2078.09033
1996.0 0.000501 2074.28296 2074.27075
2150.0 0.000465 2070.49512 2070.48267
2130.0 0.000469 2066.73828 2066.72559
2110.0 0.000474 2063.01196 2062.99927
2071.0 0.000483 2059.31738 2059.30444
2063.0 0.000485 2055.65210 2055.63916
2049.0 0.000488 2052.01709 2052.00391
2100.0 0.000476 2048.41138 2048.39795
2061.0 0.000485 2044.83533 2044.82178
2039.0 0.000490 2041.28772 2041.27417
2052.0 0.000487 2037.76807 2037.75439
2066.0 0.000484 2034.27783 2034.26404
2045.0 0.000489 2030.81506 2030.80115
2101.0 0.000476 2027.37988 2027.36597
2057.0 0.000486 2023.97156 2023.95740
2122.0 0.000471 2020.59070 2020.57654
2091.0 0.000478 2017.23584 2017.22156
2030.0 0.000493 2013.90771 2013.89331
2005.0 0.000499 2010.60510 2010.59070
2074.0 0.000482 2007.32874 2007.31421
2076.0 0.000482 2004.07715 2004.06262
2033.0 0.000492 2000.85059 2000.83594
1961.0 0.000510 1997.64880 1997.63403
2075.0 0.000482 1994.47083 1994.45605
2113.0 0.000473 1991.31812 1991.30322
2113.0 0.000473 1988.18860 1988.17358
1973.0 0.000507 1985.08228 1985.06726
2020.0 0.000495 1981.99927 1981.98425
2037.0 0.000491 1978.93933 1978.92419
2028.0 0.000493 1975.90161 1975.88647
2042.0 0.000490 1972.88586 1972.87073
2030.0 0.000493 1969.89246 1969.87732
2004.0 0.000499 1966.92053 1966.90540
2037.0 0.000491 1963.97034 1963.95508
2011.0 0.000497 1961.04089 1961.02563
1981.0 0.000505 1958.13208 1958.11682
1956.0 0.000511 1955.24414 1955.22888
1989.0 0.000503 1952.37659 1952.36133
1943.0 0.000515 1949.52832 1949.51294
1986.0 0.000504 1946.69934 1946.68408
1987.0 0.000503 1943.89050 1943.87524
2007.0 0.000498 1941.10071 1941.08545
1960.0 0.000510 1938.32959 1938.31433
1998.0 0.000501 1935.57678 1935.56152
1921.0 0.000521 1932.84265 1932.82739
1949.0 0.000513 1930.12708 1930.11182
2003.0 0.000499 1927.42798 1927.41272
1963.0 0.000509 1924.74670 1924.73169
1978.0 0.000506 1922.08350 1922.06848
1961.0 0.000510 1919.43591 1919.42090
1950.0 0.000513 1916.80615 1916.79114
2022.0 0.000495 1914.19263 1914.17773
1971.0 0.000507 1911.59521 1911.58032
1865.0 0.000536 1909.01306 1908.99817
1934.0 0.000517 1906.44714 1906.43237
1903.0 0.000525 1903.89661 1903.88184
1971.0 0.000507 1901.36145 1901.34680
2073.0 0.000482 1898.84143 1898.82690
1939.0 0.000516 1896.33630 1896.32178
1892.0 0.000529 1893.84497 1893.83057
1866.0 0.000536 1891.36804 1891.35376
1923.0 0.000520 1888.90564 1888.89148
1907.0 0.000524 1886.45703 1886.44287
1934.0 0.000517 1884.02087 1884.00684
1890.0 0.000529 1881.59937 1881.58545
1959.0 0.000510 1879.19019 1879.17627
1931.0 0.000518 1876.79480 1876.78101
1874.0 0.000534 1874.41113 1874.39746
1926.0 0.000519 1872.04041 1872.02686
1940.0 0.000515 1869.68213 1869.66870
1914.0 0.000522 1867.33484 1867.32153
1935.0 0.000517 1865.00073 1864.98755
1892.0 0.000529 1862.67798 1862.66492
1934.0 0.000517 1860.36633 1860.35339
1943.0 0.000515 1858.06592 1858.05310
1978.0 0.000506 1855.77649 1855.76379
1870.0 0.000535 1853.49817 1853.48560
1854.0 0.000539 1851.23035 1851.21802
1939.0 0.000516 1848.97278 1848.96045
1953.0 0.000512 1846.72559 1846.71350
1842.0 0.000543 1844.48853 1844.47656
1863.0 0.000537 1842.26135 1842.24963
1862.0 0.000537 1840.04358 1840.03198
1898.0 0.000527 1837.83569 1837.82422
1918.0 0.000521 1835.63721 1835.62585
1896.0 0.000527 1833.44739 1833.43628
1843.0 0.000543 1831.26697 1831.25586
1840.0 0.000543 1829.09509 1829.08435
1821.0 0.000549 1826.93201 1826.92139
1830.0 0.000546 1824.77734 1824.76685
1878.0 0.000532 1822.63135 1822.62109
1810.0 0.000552 1820.49292 1820.48279
1866.0 0.000536 1818.36304 1818.35303
1795.0 0.000557 1816.24048 1816.23071
1818.0 0.000550 1814.12585 1814.11621
1909.0 0.000524 1812.01868 1812.00928
1805.0 0.000554 1809.91833 1809.90906
1885.0 0.000531 1807.82605 1807.81702
1848.0 0.000541 1805.74060 1805.73181
1807.0 0.000553 1803.66187 1803.65332
1836.0 0.000545 1801.59045 1801.58203
1863.0 0.000537 1799.52490 1799.51672
1872.0 0.000534 1797.46594 1797.45789
1818.0 0.000550 1795.41357 1795.40576
1796.0 0.000557 1793.36731 1793.35974
1844.0 0.000542 1791.32751 1791.32007
1905.0 0.000525 1789.29321 1789.28601
1848.0 0.000541 1787.26526 1787.25830
1808.0 0.000553 1785.24219 1785.23535
1839.0 0.000544 1783.22510 1783.21851
1768.0 0.000566 1781.21338 1781.20703
1827.0 0.000547 1779.20789 1779.20166
1690.0 0.000592 1777.20618 1777.20032
1802.0 0.000555 1775.21008 1775.20435
1740.0 0.000575 1773.21924 1773.21387
1790.0 0.000559 1771.23303 1771.22778
1817.0 0.000550 1769.25146 1769.24646
1777.0 0.000563 1767.27539 1767.27063
1708.0 0.000585 1765.30347 1765.29883
1823.0 0.000549 1763.33521 1763.33093
1777.0 0.000563 1761.37207 1761.36792
1744.0 0.000573 1759.41296 1759.40906
1758.0 0.000569 1757.45813 1757.45447
1758.0 0.000569 1755.50659 1755.50330
1825.0 0.000548 1753.55994 1753.55676
1769.0 0.000565 1751.61646 1751.61353
1821.0 0.000549 1749.67712 1749.67444
1742.0 0.000574 1747.74158 1747.73914
1835.0 0.000545 1745.80920 1745.80701
1756.0 0.000569 1743.88037 1743.87842
1840.0 0.000543 1741.95532 1741.95361
1755.0 0.000570 1740.03296 1740.03149
1777.0 0.000563 1738.11462 1738.11340
1789.0 0.000559 1736.19897 1736.19800
1665.0 0.000601 1734.28674 1734.28601
1690.0 0.000592 1732.37720 1732.37659
1749.0 0.000572 1730.47034 1730.47009
1717.0 0.000582 1728.56702 1728.56702
1707.0 0.000586 1726.66626 1726.66650
1705.0 0.000587 1724.76831 1724.76880
1726.0 0.000579 1722.87268 1722.87341
1790.0 0.000559 1720.97974 1720.98071
1797.0 0.000556 1719.08960 1719.09082
1715.0 0.000583 1717.20142 1726.39282
1661.0 0.000602 1715.31641 1724.65662
1770.0 0.000565 1713.43335 1722.92603
1715.0 0.000583 1711.55261 1725.77588
1743.0 0.000574 1709.67407 1724.13147
1779.0 0.000562 1707.79773 1722.49500
1732.0 0.000577 1705.92346 1720.86658
1750.0 0.000571 1704.05151 1719.24670
1716.0 0.000583 1702.18140 1717.63513
1733.0 0.000577 1700.31335 1716.03210
1683.0 0.000594 1698.44727 1714.43799
1693.0 0.000591 1696.58301 1712.85278
1721.0 0.000581 1694.72070 1711.27673
1672.0 0.000598 1692.85962 1709.70984
1741.0 0.000574 1691.00122 1708.15320
1698.0 0.000589 1689.14417 1706.60608
1702.0 0.000588 1687.28870 1705.06909
1654.0 0.000605 1685.43506 1703.54272
1762.0 0.000568 1683.58301 1702.02710
1738.0 0.000575 1681.73242 1700.52222
1703.0 0.000587 1679.88330 1699.02869
1751.0 0.000571 1678.03601 1697.54712
1728.0 0.000579 1676.18994 1696.07727
1649.0 0.000606 1674.34534 1694.61975
1707.0 0.000586 1672.50269 1693.17566
1590.0 0.000629 1670.66077 1691.74402
1743.0 0.000574 1668.82043 1690.32654
1696.0 0.000590 1666.98120 1688.92273
1724.0 0.000580 1665.14417 1687.53455
1645.0 0.000608 1663.30737 1686.16052
1646.0 0.000608 1661.47241 1684.80261
1731.0 0.000578 1659.63855 1683.46082
1693.0 0.000591 1657.80627 1682.13635
1686.0 0.000593 1655.97510 1680.82935
1659.0 0.000603 1654.14539 1679.54089
1688.0 0.000592 1652.31641 1678.27087
1665.0 0.000601 1650.48840 1677.02063
1679.0 0.000596 1648.66174 1675.79102
1728.0 0.000579 1646.83655 1674.58337
1743.0 0.000574 1645.01257 1673.39795
1670.0 0.000599 1643.18921 1672.23560
1656.0 0.000604 1641.36768 1671.09802
1641.0 0.000609 1639.54639 1669.98535
1615.0 0.000619 1637.72693 1668.89990
1663.0 0.000601 1635.90869 1667.84229
1664.0 0.000601 1634.09106 1666.81360
1631.0 0.000613 1632.27441 1665.81531
1672.0 0.000598 1630.45935 1664.84937
1667.0 0.000600 1628.64490 1663.91687
1732.0 0.000577 1626.83215 1663.02014
1650.0 0.000606 1625.02014 1662.16003
1668.0 0.000600 1623.20911 1661.33899
1670.0 0.000599 1621.39929 1660.55884
1663.0 0.000601 1619.59009 1659.82178
1708.0 0.000585 1617.78259 1659.13049
1622.0 0.000617 1615.97632 1658.48730
1693.0 0.000591 1614.17065 1657.89441
1656.0 0.000604 1612.36621 1657.35486
1648.0 0.000607 1610.56287 1656.87183
1662.0 0.000602 1608.76050 1656.44873
1699.0 0.000589 1606.95923 1656.08875
1661.0 0.000602 1605.15967 1655.79626
1667.0 0.000600 1603.36084 1655.57471
1568.0 0.000638 1601.56299 1655.42822
1665.0 0.000601 1599.76660 1655.36255
1673.0 0.000598 1597.97095 1655.38184
1717.0 0.000582 1596.17651 1655.49194
1631.0 0.000613 1594.38367 1655.69910
1637.0 0.000611 1592.59167 1656.00940
1624.0 0.000616 1590.80103 1656.43030
1687.0 0.000593 1589.01147 1656.96887
1653.0 0.000605 1587.22314 1657.63379
1638.0 0.000611 1585.43616 1658.43420
1718.0 0.000582 1583.65002 1659.37952
1643.0 0.000609 1581.86584 1660.48096
1601.0 0.000625 1580.08252 1661.75024
1675.0 0.000597 1578.30066 1663.20032
1642.0 0.000609 1576.51978 1664.84473
1646.0 0.000608 1574.74048 1666.70032
1621.0 0.000617 1572.96252 1668.78357
1606.0 0.000623 1571.18530 1671.11304
1708.0 0.000585 1569.41052 1673.71033
1584.0 0.000631 1567.63660 1676.59875
1714.0 0.000583 1565.86414 1679.80371
1708.0 0.000585 1564.09290 1683.35364
1786.0 0.000560 1562.32336 1687.28149
1715.0 0.000583 1560.55493 1691.62280
1561.0 0.000641 1558.78821 1696.41614
1729.0 0.000578 1557.02307 1701.70984
1699.0 0.000589 1555.25952 1707.55396
1687.0 0.000593 1553.49731 1714.00745
1682.0 0.000595 1551.73645 1721.13757
1796.0 0.000557 1549.97742 1729.02551
1618.0 0.000618 1548.22009 1737.76453
1733.0 0.000577 1546.46472 1747.46228
1770.0 0.000565 1544.71021 1758.25671
1697.0 0.000589 1542.95764 1770.31079
1776.0 0.000563 1541.20667 1783.82617
1813.0 0.000552 1539.45764 1799.05762
1826.0 0.000548 1537.71082 1816.32043
1865.0 0.000536 1535.96472 1836.01123
1817.0 0.000550 1534.22119 1858.61987
1877.0 0.000533 1532.47888 1884.76941
1865.0 0.000536 1530.73877 1915.21484
1940.0 0.000515 1529.00037 1950.87256
1942.0 0.000515 1527.26404 1992.84814
1975.0 0.000506 1525.52893 2042.43201
2083.0 0.000480 1523.79663 2101.08862
2169.0 0.000461 1522.06555 2170.49536
2222.0 0.000450 1520.33679 2252.44849
2177.0 0.000459 1518.61011 2348.83936
2289.0 0.000437 1516.88513 2461.60278
2512.0 0.000398 1515.16235 2592.57593
2524.0 0.000396 1513.44128 2743.41089
2671.0 0.000374 1511.72253 2915.33276
2901.0 0.0003447 1510.00647 3109.11060
3107.0 0.0003219 1508.29199 3324.57861
3348.0 0.0002987 1506.57947 3560.36768
3643.0 0.0002745 1504.86938 3813.46802
3977.0 0.0002514 1503.16101 4078.54028
4232.0 0.0002363 1501.45557 4347.22900
4604.0 0.0002172 1499.75183 4608.00098
4700.0 0.0002128 1498.05078 4845.96973
5037.0 0.0001985 1496.35144 5044.28125
5160.0 0.0001938 1494.65515 5186.46826
5352.0 0.0001868 1492.96045 5259.60498
5440.0 0.0001838 1491.26855 5256.97168
5234.0 0.0001911 1489.57922 5179.39990
5083.0 0.0001967 1487.89197 5034.67334
4978.0 0.0002009 1486.20728 4835.72168
4751.0 0.0002105 1484.52502 4598.13135
4426.0 0.0002259 1482.84534 4337.64941
4089.0 0.0002446 1481.16785 4068.41089
3903.0 0.0002562 1479.49268 3801.77124
3543.0 0.0002822 1477.82068 3546.15308
3465.0 0.0002886 1476.15088 3307.01538
3067.0 0.0003261 1474.48376 3087.68262
2848.0 0.000351 1472.81934 2889.71655
2699.0 0.000371 1471.15723 2713.37134
2484.0 0.000403 1469.49780 2558.04761
2410.0 0.000415 1467.84155 2422.57983
2192.0 0.000456 1466.18774 2305.31812
2185.0 0.000458 1464.53650 2204.47168
2042.0 0.000490 1462.88818 2118.14185
1943.0 0.000515 1461.24255 2044.44788
1917.0 0.000522 1459.59973 1981.58337
1909.0 0.000524 1457.95959 1927.89636
1842.0 0.000543 1456.32239 1881.92004
1718.0 0.000582 1454.68799 1842.34204
1728.0 0.000579 1453.05664 1808.06348
1741.0 0.000574 1451.42822 1778.15784
1686.0 0.000593 1449.80225 1751.85339
1695.0 0.000590 1448.17908 1728.52795
1658.0 0.000603 1446.55945 1707.67651
1662.0 0.000602 1444.94263 1688.89954
1602.0 0.000624 1443.32874 1671.86670
1587.0 0.000630 1441.71753 1656.32227
1590.0 0.000629 1440.10962 1642.06006
1634.0 0.000612 1438.50500 1628.90967
1606.0 0.000623 1436.90308 1616.73364
1562.0 0.000640 1435.30469 1605.42236
1552.0 0.000644 1433.70874 1594.87537
1492.0 0.000670 1432.11609 1585.01477
1586.0 0.000631 1430.52649 1575.77100
1528.0 0.000654 1428.94043 1567.08508
1565.0 0.000639 1427.35767 1558.90369
1591.0 0.000629 1425.77747 1551.17993
1535.0 0.000651 1424.20081 1543.87622
1534.0 0.000652 1422.62695 1536.95288
1450.0 0.000690 1421.05676 1530.37964
1538.0 0.000650 1419.48999 1524.12769
1571.0 0.000637 1417.92627 1518.16980
1458.0 0.000686 1416.36511 1512.48254
1540.0 0.000649 1414.80811 1507.04602
1484.0 0.000674 1413.25403 1501.84131
1435.0 0.000697 1411.70337 1496.84961
1453.0 0.000688 1410.15625 1492.05640
1472.0 0.000679 1408.61230 1487.44714
1425.0 0.000702 1407.07166 1483.00830
1422.0 0.000703 1405.53394 1478.72803
1457.0 0.000686 1404.00012 1474.59656
1520.0 0.000658 1402.46985 1470.60339
1457.0 0.000686 1400.94263 1466.73889
1454.0 0.000688 1399.41882 1462.99512
1420.0 0.000704 1397.89856 1459.36487
1419.0 0.000705 1396.38135 1455.84009
1389.0 0.000720 1394.86804 1452.41516
1413.0 0.000708 1393.35828 1449.08447
1442.0 0.000693 1391.85168 1445.84106
1407.0 0.000711 1390.34875 1442.68091
1497.0 0.000668 1388.84912 1439.59900
1461.0 0.000684 1387.35291 1436.59045
1411.0 0.000709 1385.86035 1433.65198
1414.0 0.000707 1384.37134 1430.77942
1377.0 0.000726 1382.88599 1427.96948
1472.0 0.000679 1381.40369 1425.21814
1409.0 0.000710 1379.92505 1422.52307
1327.0 0.000754 1378.45020 1419.88147
1488.0 0.000672 1376.97876 1417.29041
1505.0 0.000664 1375.51086 1414.74768
1368.0 0.000731 1374.04651 1412.25061
1401.0 0.000714 1372.58582 1409.79712
1463.0 0.000684 1371.12866 1407.38525
1415.0 0.000707 1369.67517 1405.01318
1405.0 0.000712 1368.22510 1402.67908
1423.0 0.000703 1366.77869 1400.38110
1427.0 0.000701 1365.33582 1398.11768
1421.0 0.000704 1363.89624 1395.88708
1375.0 0.000727 1362.46082 1393.68896
1319.0 0.000758 1361.02869 1391.52100
1436.0 0.000696 1359.60022 1389.38208
1383.0 0.000723 1358.17493 1387.27100
1328.0 0.000753 1356.75427 1385.18799
1346.0 0.000743 1355.33643 1383.13000
1398.0 0.000715 1353.92249 1381.09717
1334.0 0.000750 1352.51208 1379.08826
1338.0 0.000747 1351.10535 1377.10254
1385.0 0.000722 1349.70215 1375.13879
1417.0 0.000706 1348.30261 1373.19702
1453.0 0.000688 1346.90662 1371.27576
1358.0 0.000736 1345.51440 1369.37451
1388.0 0.000720 1344.12573 1367.49243
1391.0 0.000719 1342.74048 1365.62915
1333.0 0.000750 1341.35913 1363.78406
1384.0 0.000723 1339.98132 1361.95654
1364.0 0.000733 1338.60706 1360.14600
1357.0 0.000737 1337.23669 1358.35205
1396.0 0.000716 1335.86975 1356.57385
1409.0 0.000710 1334.50598 1354.81079
1313.0 0.000762 1333.14612 1353.06311
1376.0 0.000727 1331.79016 1351.32996
1344.0 0.000744 1330.43787 1349.61145
1405.0 0.000712 1329.08887 1347.90625
1344.0 0.000744 1327.74353 1346.21448
1341.0 0.000746 1326.40137 1344.53528
1346.0 0.000743 1325.06335 1342.86951
1403.0 0.000713 1323.72900 1341.21606
1327.0 0.000754 1322.39758 1339.57397
1343.0 0.000745 1321.07031 1337.94446
1314.0 0.000761 1319.74658 1336.32617
1380.0 0.000725 1318.42603 1334.71875
1366.0 0.000732 1317.10938 1333.12256
1300.0 0.000769 1315.79651 1331.53723
1300.0 0.000769 1314.48621 1329.96167
1354.0 0.000739 1313.18066 1328.39697
1312.0 0.000762 1311.87805 1326.84204
1292.0 0.000774 1310.57886 1325.29663
1313.0 0.000762 1309.28345 1323.76099
1340.0 0.000746 1307.99146 1322.23438
1303.0 0.000767 1306.70251 1311.52161
1337.0 0.000748 1305.41760 1310.15857
1295.0 0.000772 1304.13611 1308.80078
1319.0 0.000758 1302.85840 1302.86304
1309.0 0.000764 1301.58374 1301.58813
1261.0 0.000793 1300.31262 1300.31677
1325.0 0.000755 1299.04517 1299.04919
1267.0 0.000789 1297.78064 1297.78455
1291.0 0.000775 1296.52014 1296.52380
1364.0 0.000733 1295.26270 1295.26611
1280.0 0.000781 1294.00891 1294.01221
1294.0 0.000773 1292.75842 1292.76147
1286.0 0.000778 1291.51123 1291.51416
1273.0 0.000786 1290.26758 1290.27026
1272.0 0.000786 1289.02734 1289.02979
1307.0 0.000765 1287.79041 1287.79272
1293.0 0.000773 1286.55701 1286.55908
1326.0 0.000754 1285.32654 1285.32837
1265.0 0.000791 1284.09961 1284.10132
1304.0 0.000767 1282.87610 1282.87769
1276.0 0.000784 1281.65564 1281.65698
1310.0 0.000763 1280.43896 1280.44006
1285.0 0.000778 1279.22546 1279.22644
1283.0 0.000779 1278.01465 1278.01550
1314.0 0.000761 1276.80774 1276.80835
1301.0 0.000769 1275.60376 1275.60413
1290.0 0.000775 1274.40320 1274.40332
1325.0 0.000755 1273.20569 1273.20569
1243.0 0.000805 1272.01123 1272.01099
1293.0 0.000773 1270.82068 1270.82031
1308.0 0.000765 1269.63269 1269.63208
1258.0 0.000795 1268.44800 1268.44727
1211.0 0.000826 1267.26660 1267.26563
1294.0 0.000773 1266.08826 1266.08716
1276.0 0.000784 1264.91321 1264.91187
1238.0 0.000808 1263.74133 1263.73987
1298.0 0.000770 1262.57214 1262.57056
1216.0 0.000822 1261.40662 1261.40479
1241.0 0.000806 1260.24353 1260.24158
1287.0 0.000777 1259.08398 1259.08179
1253.0 0.000798 1257.92737 1257.92505
1222.0 0.000818 1256.77368 1256.77124
1270.0 0.000787 1255.62317 1255.62048
1344.0 0.000744 1254.47571 1254.47290
1369.0 0.000730 1253.33105 1253.32800
1221.0 0.000819 1252.18921 1252.18604
1250.0 0.000800 1251.05054 1251.04724
1307.0 0.000765 1249.91504 1249.91150
1227.0 0.000815 1248.78247 1248.77881
1266.0 0.000790 1247.65259 1247.64880
1221.0 0.000819 1246.52563 1246.52161
1246.0 0.000803 1245.40125 1245.39697
1255.0 0.000797 1244.28003 1244.27576
1274.0 0.000785 1243.16211 1243.15759
1247.0 0.000802 1242.04639 1242.04175
1229.0 0.000814 1240.93372 1240.92883
1308.0 0.000765 1239.82385 1239.81897
1240.0 0.000806 1238.71667 1238.71155
1296.0 0.000772 1237.61267 1237.60742
1179.0 0.000848 1236.51111 1236.50574
1291.0 0.000775 1235.41235 1235.40674
1240.0 0.000806 1234.31604 1234.31030
1268.0 0.000789 1233.22302 1233.21716
1276.0 0.000784 1232.13245 1232.12646
1188.0 0.000842 1231.04456 1231.03833
1274.0 0.000785 1229.95923 1229.95288
1282.0 0.000780 1228.87634 1228.86987
1215.0 0.000823 1227.79626 1227.78967
1207.0 0.000829 1226.71912 1226.71240
1201.0 0.000833 1225.64441 1225.63757
1269.0 0.000788 1224.57251 1224.56555
1243.0 0.000805 1223.50281 1223.49573
1203.0 0.000831 1222.43567 1222.42847
1308.0 0.000765 1221.37109 1221.36377
1178.0 0.000849 1220.30920 1220.30176
1245.0 0.000803 1219.24988 1219.24219
1202.0 0.000832 1218.19287 1218.18506
1240.0 0.000806 1217.13831 1217.13037
1238.0 0.000808 1216.08643 1216.07849
1216.0 0.000822 1215.03687 1215.02869
1203.0 0.000831 1213.98962 1213.98132
1194.0 0.000838 1212.94482 1212.93640
1260.0 0.000794 1211.90198 1211.89355
1187.0 0.000842 1210.86230 1210.85364
1200.0 0.000833 1209.82458 1209.81592
1189.0 0.000841 1208.78931 1208.78052
1210.0 0.000826 1207.75647 1207.74756
1233.0 0.000811 1206.72571 1206.71667
1216.0 0.000822 1205.69763 1205.68860
1209.0 0.000827 1204.67139 1204.66211
1249.0 0.000801 1203.64758 1203.63818
1158.0 0.000864 1202.62585 1202.61646
1187.0 0.000842 1201.60669 1201.59717
1216.0 0.000822 1200.58948 1200.57983
1207.0 0.000829 1199.57458 1199.56494
1220.0 0.000820 1198.56201 1198.55225
1225.0 0.000816 1197.55127 1197.54138
1163.0 0.000860 1196.54297 1196.53296
1208.0 0.000828 1195.53662 1195.52661
1270.0 0.000787 1194.53247 1194.52234
1209.0 0.000827 1193.53064 1194.46216
1199.0 0.000834 1192.53076 1193.48389
1168.0 0.000856 1191.53284 1192.50854
1234.0 0.000810 1190.53711 1191.99646
1228.0 0.000814 1189.54333 1191.03723
1176.0 0.000850 1188.55164 1190.08142
1193.0 0.000838 1187.56213 1189.12915
1229.0 0.000814 1186.57434 1188.18005
1203.0 0.000831 1185.58875 1187.23450
1190.0 0.000840 1184.60510 1186.29236
1188.0 0.000842 1183.62341 1185.35376
1212.0 0.000825 1182.64355 1184.41870
1218.0 0.000821 1181.66565 1183.48730
1137.0 0.000880 1180.68994 1182.56006
1192.0 0.000839 1179.71558 1181.63611
1149.0 0.000870 1178.74377 1180.71680
1189.0 0.000841 1177.77356 1179.80090
1227.0 0.000815 1176.80481 1178.88916
1133.0 0.000883 1175.83838 1177.98181
1238.0 0.000808 1174.87378 1177.07898
1199.0 0.000834 1173.91077 1176.18042
1171.0 0.000854 1172.94983 1175.28687
1253.0 0.000798 1171.99036 1174.39783
1225.0 0.000816 1171.03296 1173.51379
1223.0 0.000818 1170.07739 1172.63538
1129.0 0.000886 1169.12354 1171.76184
1183.0 0.000845 1168.17102 1170.89392
1208.0 0.000828 1167.22058 1170.03198
1193.0 0.000838 1166.27197 1169.17615
1221.0 0.000819 1165.32495 1168.32654
1201.0 0.000833 1164.37952 1167.48364
1149.0 0.000870 1163.43591 1166.64771
1151.0 0.000869 1162.49390 1165.81921
1151.0 0.000869 1161.55334 1164.99817
1211.0 0.000826 1160.61499 1164.18555
1161.0 0.000861 1159.67761 1163.38110
1153.0 0.000867 1158.74231 1162.58630
1194.0 0.000838 1157.80835 1161.80090
1144.0 0.000874 1156.87622 1161.02588
1229.0 0.000814 1155.94531 1160.26172
1102.0 0.000907 1155.01648 1159.50952
1183.0 0.000845 1154.08899 1158.76965
1148.0 0.000871 1153.16309 1158.04346
1113.0 0.000898 1152.23865 1157.33167
1127.0 0.000887 1151.31592 1156.63525
1191.0 0.000840 1150.39441 1155.95581
1143.0 0.000875 1149.47461 1155.29456
1193.0 0.000838 1148.55640 1154.65320
1132.0 0.000883 1147.63928 1154.03296
1181.0 0.000847 1146.72424 1153.43665
1172.0 0.000853 1145.81018 1152.86560
1232.0 0.000812 1144.89783 1152.32288
1172.0 0.000853 1143.98718 1151.81128
1228.0 0.000814 1143.07751 1151.33325
1091.0 0.000917 1142.16931 1150.89282
1158.0 0.000864 1141.26294 1150.49451
1131.0 0.000884 1140.35767 1150.14246
1234.0 0.000810 1139.45386 1149.84241
1156.0 0.000865 1138.55164 1149.60071
1161.0 0.000861 1137.65063 1149.42505
1104.0 0.000906 1136.75110 1149.32422
1146.0 0.000873 1135.85291 1149.30981
1131.0 0.000884 1134.95593 1149.39600
1081.0 0.000925 1134.06042 1149.60095
1155.0 0.000866 1133.16650 1149.95020
1114.0 0.000898 1132.27380 1150.47644
1229.0 0.000814 1131.38220 1151.22595
1109.0 0.000902 1130.49231 1152.26257
1135.0 0.000881 1129.60339 1153.67273
1125.0 0.000889 1128.71631 1155.57581
1199.0 0.000834 1127.83008 1158.12744
1136.0 0.000880 1126.94519 1161.53027
1059.0 0.000944 1126.06152 1166.03809
1152.0 0.000868 1125.17944 1171.95618
1137.0 0.000880 1124.29858 1179.63733
1177.0 0.000850 1123.41907 1189.46716
1185.0 0.000844 1122.54089 1201.84009
1223.0 0.000818 1121.66370 1217.13330
1231.0 0.000812 1120.78784 1235.65137
1193.0 0.000838 1119.91357 1257.58081
1239.0 0.000807 1119.04016 1282.92493
1321.0 0.000757 1118.16809 1311.43286
1308.0 0.000765 1117.29773 1342.50195
1410.0 0.000709 1116.42798 1375.09229
1442.0 0.000693 1115.56006 1407.59875
1484.0 0.000674 1114.69299 1437.83911
1434.0 0.000697 1113.82703 1463.22424
1514.0 0.000661 1112.96252 1481.21106
1548.0 0.000646 1112.09924 1489.93213
1604.0 0.000623 1111.23730 1488.64819
1597.0 0.000626 1110.37659 1477.75354
1603.0 0.000624 1109.51672 1458.46204
1522.0 0.000657 1108.65833 1432.50293
1368.0 0.000731 1107.80090 1401.91968
1388.0 0.000720 1106.94495 1368.86060
1367.0 0.000732 1106.09033 1335.31799
1322.0 0.000756 1105.23682 1302.88989
1290.0 0.000775 1104.38452 1272.72009
1271.0 0.000787 1103.53320 1245.50085
1324.0 0.000755 1102.68298 1221.55835
1218.0 0.000821 1101.83447 1200.94153
1253.0 0.000798 1100.98669 1183.50256
1202.0 0.000832 1100.14050 1168.96863
1222.0 0.000818 1099.29529 1156.98608
1129.0 0.000886 1098.45129 1147.18054
1114.0 0.000898 1097.60864 1139.17920
1152.0 0.000868 1096.76685 1132.63684
1126.0 0.000888 1095.92651 1127.25024
1122.0 0.000891 1095.08740 1122.76465
1178.0 0.000849 1094.24915 1118.97083
1085.0 0.000922 1093.41223 1115.70654
1118.0 0.000894 1092.57654 1112.84668
1102.0 0.000907 1091.74207 1110.29736
1121.0 0.000892 1090.90881 1107.98926
1145.0 0.000873 1090.07642 1105.87097
1086.0 0.000921 1089.24561 1103.90637
1089.0 0.000918 1088.41602 1102.06787
1110.0 0.000901 1087.58740 1100.33423
1136.0 0.000880 1086.76013 1098.69080
1073.0 0.000932 1085.93408 1097.12476
1054.0 0.000949 1085.10876 1095.62622
1104.0 0.000906 1084.28516 1094.18799
1108.0 0.000903 1083.46265 1092.80286
1083.0 0.000923 1082.64124 1091.46460
1019.0 0.000981 1081.82104 1090.16919
1045.0 0.000957 1081.00208 1088.91187
1067.0 0.000937 1080.18433 1087.68921
1112.0 0.000899 1079.36768 1086.49744
1081.0 0.000925 1078.55249 1085.33447
1101.0 0.000908 1077.73828 1084.19714
1017.0 0.000983 1076.92517 1083.08325
1062.0 0.000942 1076.11353 1081.99109
1052.0 0.000951 1075.30286 1080.91858
1067.0 0.000937 1074.49365 1079.86462
1117.0 0.000895 1073.68555 1078.82727
1062.0 0.000942 1072.87891 1077.80554
1081.0 0.000925 1072.07324 1076.79822
1036.0 0.000965 1071.26868 1075.80371
1045.0 0.000957 1070.46545 1074.82202
1019.0 0.000981 1069.66357 1073.85168
1023.0 0.000978 1068.86292 1072.89221
1024.0 0.000977 1068.06360 1071.94287
1039.0 0.000962 1067.26550 1071.00317
1096.0 0.000912 1066.46838 1070.07190
1059.0 0.000944 1065.67273 1069.14893
1047.0 0.000955 1064.87866 1068.23450
1023.0 0.000978 1064.08521 1067.32666
1048.0 0.000954 1063.29321 1066.42615
1045.0 0.000957 1062.50293 1065.53247
1043.0 0.000959 1061.71326 1064.64453
1122.0 0.000891 1060.92554 1063.76331
1072.0 0.000933 1060.13879 1062.88745
1106.0 0.000904 1059.35315 1062.01672
1028.0 0.000973 1058.56885 1061.15137
1054.0 0.000949 1057.78613 1060.29114
1020.0 0.000980 1057.00452 1059.43542
1156.0 0.000865 1056.22449 1058.58459
1019.0 0.000981 1055.44543 1057.73779
989.0 0.001011 1054.66772 1056.89514
1064.0 0.000940 1053.89136 1056.05676
1037.0 0.000964 1053.11646 1055.22229
1058.0 0.000945 1052.34314 1054.39172
1039.0 0.000962 1051.57080 1053.56445
1080.0 0.000926 1050.79993 1052.74097
1022.0 0.000978 1050.03027 1051.92090
1055.0 0.000948 1049.26196 1051.10388
1035.0 0.000966 1048.49524 1050.29028
1019.0 0.000981 1047.72986 1049.47998
1040.0 0.000962 1046.96558 1048.67249
1027.0 0.000974 1046.20288 1047.86792
1061.0 0.000943 1045.44177 1047.06653
1054.0 0.000949 1044.68176 1046.26782
1023.0 0.000978 1043.92334 1045.47205
1087.0 0.000920 1043.16626 1044.67883
1084.0 0.000923 1042.41040 1043.88818
1025.0 0.000976 1041.65625 1042.16699
1084.0 0.000923 1040.90356 1041.40259
992.0 0.001008 1040.15222 1040.64001
1040.0 0.000962 1039.40210 1039.87903
1009.0 0.000991 1038.65369 1038.65625
999.0 0.001001 1037.90649 1037.90930
1017.0 0.000983 1037.16077 1037.16382
1047.0 0.000955 1036.41699 1036.42017
1060.0 0.000943 1035.67419 1035.67761
1046.0 0.000956 1034.93311 1034.93665
1027.0 0.000974 1034.19348 1034.19714
1023.0 0.000978 1033.45544 1033.45911
1014.0 0.000986 1032.71875 1032.72266
963.0 0.001038 1031.98340 1031.98743
945.0 0.001058 1031.24976 1031.25403
1002.0 0.000998 1030.51770 1030.52222
1014.0 0.000986 1029.78723 1029.79187
989.0 0.001011 1029.05811 1029.06287
940.0 0.001064 1028.33057 1028.33545
1019.0 0.000981 1027.60461 1027.60962
1011.0 0.000989 1026.88025 1026.88550
980.0 0.001020 1026.15747 1026.16284
1046.0 0.000956 1025.43616 1025.44165
1010.0 0.000990 1024.71643 1024.72217
996.0 0.001004 1023.99854 1024.00439
1032.0 0.000969 1023.28186 1023.28784
1058.0 0.000945 1022.56720 1022.57336
991.0 0.001009 1021.85388 1021.86017
1069.0 0.000935 1021.14215 1021.14856
968.0 0.001033 1020.43195 1020.43854
1025.0 0.000976 1019.72357 1019.73035
1074.0 0.000931 1019.01691 1019.02380
984.0 0.001016 1018.31165 1018.31873
999.0 0.001001 1017.60828 1017.61548
1046.0 0.000956 1016.90631 1016.91364
1033.0 0.000968 1016.20599 1016.21350
1028.0 0.000973 1015.50781 1015.51550
947.0 0.001056 1014.81085 1014.81866
981.0 0.001019 1014.11566 1014.12366
972.0 0.001029 1013.42224 1013.43036
1020.0 0.000980 1012.73053 1012.73877
1001.0 0.000999 1012.04071 1012.04913
997.0 0.001003 1011.35236 1011.36090
1008.0 0.000992 1010.66565 1010.67432
1015.0 0.000985 1009.98065 1009.98944
1017.0 0.000983 1009.29761 1009.30658
998.0 0.001002 1008.61615 1008.62524
989.0 0.001011 1007.93665 1007.94592
989.0 0.001011 1007.25879 1007.26819
971.0 0.001030 1006.58276 1006.59229
1035.0 0.000966 1005.90802 1005.91766
988.0 0.001012 1005.23578 1005.24561
950.0 0.001053 1004.56464 1004.57458
1025.0 0.000976 1003.89587 1003.90594
1009.0 0.000991 1003.22876 1003.23895
1044.0 0.000958 1002.56317 1002.57355
1024.0 0.000977 1001.89941 1001.90985
964.0 0.001037 1001.23792 1001.24847
1081.0 0.000925 1000.57788 1000.58862
1079.0 0.000927 999.91956 999.93042
995.0 0.001005 999.26318 999.27417
1073.0 0.000932 998.60889 998.62006
1041.0 0.000961 997.95630 997.96759
1010.0 0.000990 997.30548 997.31683
1111.0 0.000900 996.65656 996.66803
1041.0 0.000961 996.00928 996.02094
1038.0 0.000963 995.36432 995.37604
1065.0 0.000939 994.72089 994.73279
1074.0 0.000931 994.07947 994.09143
1116.0 0.000896 993.44006 993.45215
1101.0 0.000908 992.80231 992.81451
1087.0 0.000920 992.16626 992.17859
1095.0 0.000913 991.53265 991.54510
1093.0 0.000915 990.90082 990.91339
1082.0 0.000924 990.27063 990.28333
1037.0 0.000964 989.64258 989.65540
1029.0 0.000972 989.01630 989.02924
976.0 0.001025 988.39203 988.40509
1008.0 0.000992 987.76978 987.78290
1086.0 0.000921 987.14929 987.16260
1030.0 0.000971 986.53088 986.54425
976.0 0.001025 985.91431 985.92780
1037.0 0.000964 985.29974 985.31329
1005.0 0.000995 984.68732 984.70099
992.0 0.001008 984.07666 984.09045
959.0 0.001043 983.46796 983.48187
995.0 0.001005 982.86115 982.87512
1001.0 0.000999 982.25665 982.27075
991.0 0.001009 981.65369 981.66785
1003.0 0.000997 981.05304 981.06732
952.0 0.001050 980.45428 980.46863
1026.0 0.000975 979.85767 979.87207
1002.0 0.000998 979.26288 979.27740
964.0 0.001037 978.67010 978.68475
1052.0 0.000951 978.07898 978.09375
929.0 0.001076 977.49048 977.50525
960.0 0.001042 976.90387 976.91876
1006.0 0.000994 976.31891 976.33392
991.0 0.001009 975.73621 975.75128
967.0 0.001034 975.15552 975.17065
1032.0 0.000969 974.57672 974.59192
967.0 0.001034 973.99994 974.01526
936.0 0.001068 973.42560 973.67743
981.0 0.001019 972.85278 973.10852
957.0 0.001045 972.28217 972.54193
966.0 0.001035 971.71356 971.97742
983.0 0.001017 971.14722 971.53180
945.0 0.001058 970.58270 970.97351
1006.0 0.000994 970.02032 970.41742
933.0 0.001072 969.45978 969.86334
958.0 0.001044 968.90143 969.31171
965.0 0.001036 968.34509 968.76215
985.0 0.001015 967.79102 968.21503
956.0 0.001046 967.23877 967.67004
993.0 0.001007 966.68860 967.12720
994.0 0.001006 966.14050 966.58667
958.0 0.001044 965.59436 966.04828
947.0 0.001056 965.05060 965.51245
1015.0 0.000985 964.50848 964.97852
1012.0 0.000988 963.96869 964.44714
927.0 0.001079 963.43085 963.91797
963.0 0.001038 962.89496 963.39093
986.0 0.001014 962.36133 962.86639
986.0 0.001014 961.82977 962.34424
1012.0 0.000988 961.30005 961.82410
1000.0 0.001000 960.77228 961.30621
1043.0 0.000959 960.24683 960.79102
948.0 0.001055 959.72363 960.27832
923.0 0.001083 959.20221 959.76776
995.0 0.001005 958.68280 959.25952
961.0 0.001041 958.16547 958.75360
993.0 0.001007 957.65015 958.25006
965.0 0.001036 957.13690 957.74908
939.0 0.001065 956.62585 957.25055
982.0 0.001018 956.11682 956.75458
979.0 0.001021 955.60980 956.26093
957.0 0.001045 955.10486 955.76984
995.0 0.001005 954.60187 955.28113
985.0 0.001015 954.10101 954.79504
976.0 0.001025 953.60211 954.31140
1008.0 0.000992 953.10529 953.83032
1016.0 0.000984 952.61053 953.35193
1049.0 0.000953 952.11786 952.87610
919.0 0.001088 951.62708 952.40271
960.0 0.001042 951.13843 951.93213
930.0 0.001075 950.65179 951.46429
987.0 0.001013 950.16736 950.99921
952.0 0.001050 949.68457 1021.69794
979.0 0.001021 949.20392 1022.59760
1015.0 0.000985 948.72528 1023.53931
1039.0 0.000962 948.24884 1024.52478
964.0 0.001037 947.77417 1025.55518
1002.0 0.000998 947.30151 1062.25366
986.0 0.001014 946.83093 1064.06213
965.0 0.001036 946.36243 1065.94055
973.0 0.001028 945.89594 1067.89270
990.0 0.001010 945.43127 1069.92053
1035.0 0.000966 944.96869 1072.02759
1014.0 0.000986 944.50800 1074.21680
1063.0 0.000941 944.04944 1076.49146
1013.0 0.000987 943.59259 1078.85547
970.0 0.001031 943.13800 1081.31274
1010.0 0.000990 942.68524 1083.86682
987.0 0.001013 942.23431 1086.52185
1007.0 0.000993 941.78546 1089.28247
1022.0 0.000978 941.33856 1092.15320
997.0 0.001003 940.89368 1095.13904
1018.0 0.000982 940.45062 1098.24451
1109.0 0.000902 940.00946 1101.47595
1042.0 0.000960 939.57007 1104.83887
1072.0 0.000933 939.13275 1108.33960
1011.0 0.000989 938.69739 1111.98462
1065.0 0.000939 938.26392 1115.78064
1003.0 0.000997 937.83240 1119.73462
1009.0 0.000991 937.40265 1123.85559
1068.0 0.000936 936.97473 1128.15076
1098.0 0.000911 936.54871 1132.62939
1107.0 0.000903 936.12451 1137.30115
1081.0 0.000925 935.70227 1142.17566
1110.0 0.000901 935.28174 1147.26379
1120.0 0.000893 934.86322 1152.57605
1157.0 0.000864 934.44653 1158.12646
1170.0 0.000855 934.03143 1163.92700
1145.0 0.000873 933.61859 1169.99207
1147.0 0.000872 933.20715 1176.33618
1148.0 0.000871 932.79755 1182.97546
1200.0 0.000833 932.38995 1189.92651
1205.0 0.000830 931.98401 1197.20959
1193.0 0.000838 931.57996 1204.84399
1238.0 0.000808 931.17743 1212.85059
1235.0 0.000810 930.77692 1221.25342
1234.0 0.000810 930.37781 1230.07703
1283.0 0.000779 929.98065 1239.34912
1218.0 0.000821 929.58545 1249.09912
1384.0 0.000723 929.19159 1259.35730
1245.0 0.000803 928.79968 1270.16248
1306.0 0.000766 928.40936 1281.55090
1301.0 0.000769 928.02057 1293.56482
1306.0 0.000766 927.63367 1306.25085
1308.0 0.000765 927.24847 1319.65747
1343.0 0.000745 926.86475 1333.84558
1362.0 0.000734 926.48279 1348.87537
1369.0 0.000730 926.10266 1364.81653
1360.0 0.000735 925.72388 1381.74573
1378.0 0.000726 925.34686 1399.74854
1428.0 0.000700 924.97131 1418.92029
1383.0 0.000723 924.59723 1439.36621
1458.0 0.000686 924.22504 1461.20007
1544.0 0.000648 923.85425 1484.55737
1423.0 0.000703 923.48505 1509.57690
1483.0 0.000674 923.11749 1536.41443
1466.0 0.000682 922.75146 1565.24060
1587.0 0.000630 922.38678 1596.24060
1596.0 0.000627 922.02368 1629.61072
1651.0 0.000606 921.66199 1665.57959
1681.0 0.000595 921.30206 1704.37830
1651.0 0.000606 920.94342 1746.25977
1754.0 0.000570 920.58630 1791.49695
1765.0 0.000567 920.23065 1840.38208
1834.0 0.000545 919.87610 1893.22815
1878.0 0.000532 919.52350 1950.36414
1899.0 0.000527 919.17200 2012.17566
2049.0 0.000488 918.82196 2079.07153
2116.0 0.000473 918.47333 2151.54907
2247.0 0.000445 918.12604 2230.24268
2325.0 0.000430 917.78009 2316.00977
2443.0 0.000409 917.43561 2410.02368
2443.0 0.000409 917.09222 2513.96216
2694.0 0.000371 916.75049 2630.05103
2884.0 0.0003467 916.40973 2761.24927
3158.0 0.0003167 916.07043 2911.37769
3296.0 0.0003034 915.73242 3085.26440
3489.0 0.0002866 915.39575 3288.89966
3694.0 0.0002707 915.06006 3529.57764
4185.0 0.0002389 914.72577 3815.94580
4523.0 0.0002211 914.39258 4158.21875
4957.0 0.0002017 914.06067 4567.84961
5362.0 0.0001865 913.72998 5057.50586
5873.0 0.0001703 913.40045 5640.68408
6591.0 0.0001517 913.07220 6331.07178
7180.0 0.0001393 912.74518 7142.28027
8211.0 0.0001218 912.41888 8086.29004
9249.0 0.0001081 912.09381 9172.71484
10336.0 0.0000967 911.76990 10407.28516
11767.0 0.0000850 911.44727 11790.04883
13214.0 0.0000757 911.12549 13313.05273
14695.0 0.0000681 910.80481 14957.32520
16831.0 0.0000594 910.48523 16688.89258
18467.0 0.0000542 910.16656 18455.97070
20164.0 0.0000496 909.84918 20184.74609
21917.0 0.0000456 909.53253 21781.84570
23351.0 0.0000428 909.21686 23142.53906
24469.0 0.0000409 908.90216 24166.91602
25332.0 0.0000395 908.58844 24780.13867
25650.0 0.0000390 908.27576 24945.68945
25242.0 0.0000396 907.96393 24667.83398
24310.0 0.0000411 907.65289 23982.30273
23426.0 0.0000427 907.34253 22944.71680
21922.0 0.0000456 907.03333 21623.06641
20330.0 0.0000492 906.72516 20093.83008
18501.0 0.0000541 906.41748 18437.72852
16749.0 0.0000597 906.11090 16731.82031
14801.0 0.0000676 905.80499 15043.85742
13329.0 0.0000750 905.49969 13426.61328
11845.0 0.0000844 905.19543 11916.98438
10362.0 0.0000965 904.89172 10537.47754
9091.0 0.0001100 904.58862 9299.11816
8079.0 0.0001238 904.28662 8203.56250
7265.0 0.0001376 903.98505 7246.75098
6185.0 0.0001617 903.68420 6420.15723
5636.0 0.0001774 903.38416 5712.56787
5002.0 0.0001999 903.08472 5111.33398
4468.0 0.0002238 902.78571 4603.31641
4143.0 0.0002414 902.48749 4175.66895
3760.0 0.0002660 902.18982 3816.10229
3389.0 0.0002951 901.89270 3513.61719
3224.0 0.0003102 901.59631 3258.42212
3049.0 0.0003280 901.30023 3042.06982
2739.0 0.000365 901.00476 2857.43579
2604.0 0.000384 900.70978 2698.64575
2523.0 0.000396 900.41522 2560.85156
2364.0 0.000423 900.12140 2440.22461
2230.0 0.000448 899.82782 2333.69971
2082.0 0.000480 899.53479 2238.85620
2049.0 0.000488 899.24213 2153.78760
1897.0 0.000527 898.94983 2076.98975
1921.0 0.000521 898.65790 2007.27100
1894.0 0.000528 898.36646 1943.68652
1781.0 0.000561 898.07544 1885.44434
1724.0 0.000580 897.78442 1831.92102
1713.0 0.000584 897.49396 1782.58911
1667.0 0.000600 897.20380 1737.00293
1623.0 0.000616 896.91382 1694.78784
1594.0 0.000627 896.62408 1655.60193
1545.0 0.000647 896.33484 1619.16455
1575.0 0.000635 896.04553 1585.22290
1441.0 0.000694 895.75647 1553.55383
1485.0 0.000673 895.46765 1523.95850
1458.0 0.000686 895.17908 1496.25989
1512.0 0.000661 894.89069 1470.29919
1360.0 0.000735 894.60236 1445.93726
1399.0 0.000715 894.31403 1423.03857
1333.0 0.000750 894.02588 1401.49121
1342.0 0.000745 893.73792 1381.19055
1243.0 0.000805 893.44995 1362.04163
1265.0 0.000791 893.16205 1343.95850
1268.0 0.000789 892.87421 1326.86560
1292.0 0.000774 892.58618 1310.68616
1230.0 0.000813 892.29840 1295.35828
1253.0 0.000798 892.01056 1280.82239
1284.0 0.000779 891.72260 1267.02405
1267.0 0.000789 891.43457 1253.91382
1276.0 0.000784 891.14642 1241.44580
1280.0 0.000781 890.85834 1229.57983
1189.0 0.000841 890.56982 1218.27344
1193.0 0.000838 890.28168 1207.49365
1255.0 0.000797 889.99304 1197.20679
1190.0 0.000840 889.70422 1187.38293
1243.0 0.000805 889.41534 1177.99390
1133.0 0.000883 889.12628 1169.01526
1232.0 0.000812 888.83691 1160.41992
1193.0 0.000838 888.54736 1173.90076
1179.0 0.000848 888.25757 1166.76965
1162.0 0.000861 887.96729 1160.00122
1177.0 0.000850 887.67676 1153.58081
1126.0 0.000888 887.38635 1147.49512
1101.0 0.000908 887.09509 1152.52734
1173.0 0.000853 886.80396 1147.45288
1099.0 0.000910 886.51221 1142.69946
1124.0 0.000890 886.21991 1138.26099
1096.0 0.000912 885.92749 1134.13269
1123.0 0.000890 885.63464 1130.31018
1072.0 0.000933 885.34106 1126.79138
1051.0 0.000951 885.04742 1123.57471
1126.0 0.000888 884.75317 1120.66089
1118.0 0.000894 884.45844 1118.05188
1102.0 0.000907 884.16315 1115.75183
1088.0 0.000919 883.86749 1113.76611
1113.0 0.000898 883.57111 1112.10242
1085.0 0.000922 883.27411 1110.77051
1069.0 0.000935 882.97687 1109.78271
1088.0 0.000919 882.67883 1109.15381
1110.0 0.000901 882.38025 1108.90137
1073.0 0.000932 882.08105 1109.04675
1109.0 0.000902 881.78125 1109.61487
1080.0 0.000926 881.48059 1110.63464
1112.0 0.000899 881.17957 1112.14111
1089.0 0.000918 880.87769 1114.17444
1100.0 0.000909 880.57520 1116.78137
1068.0 0.000936 880.27179 1120.01721
1143.0 0.000875 879.96796 1123.71118
1089.0 0.000918 879.66321 1128.41553
1114.0 0.000898 879.35760 1133.98242
1121.0 0.000892 879.05115 1140.52344
1089.0 0.000918 878.74432 1148.18164
1151.0 0.000869 878.43634 1157.02148
1178.0 0.000849 878.12744 1167.52698
1231.0 0.000812 877.81787 1179.93103
1281.0 0.000781 877.50751 1123.63306
1301.0 0.000769 877.19635 1142.96106
1236.0 0.000809 876.88397 1166.62476
1352.0 0.000740 876.57092 1196.39661
1438.0 0.000695 876.25684 1198.96838
1451.0 0.000689 875.94171 1250.62659
1572.0 0.000636 875.62579 1319.94531
1567.0 0.000638 875.30896 1413.78809
1690.0 0.000592 874.99103 1540.76831
1808.0 0.000553 874.67218 1711.02917
1864.0 0.000536 874.35211 1935.78821
2191.0 0.000456 874.03119 2226.16895
2462.0 0.000406 873.70929 2591.83716
2646.0 0.000378 873.38623 3039.16479
3143.0 0.0003182 873.06219 3569.12769
3789.0 0.0002639 872.73706 4175.59277
4396.0 0.0002275 872.41052 4842.80957
5002.0 0.0001999 872.08331 5543.80176
5792.0 0.0001727 871.75476 6238.81836
6814.0 0.0001468 871.42499 6875.93604
7812.0 0.0001280 871.09406 7396.85986
8409.0 0.0001189 870.76208 7750.01367
8682.0 0.0001152 870.42914 7906.03027
8595.0 0.0001163 870.09460 7864.21045
8124.0 0.0001231 869.75897 7644.32227
7498.0 0.0001334 869.42200 7273.36572
6871.0 0.0001455 869.08386 6779.23340
6218.0 0.0001608 868.74451 6193.03320
5640.0 0.0001773 868.40417 5552.00439
4925.0 0.0002030 868.06219 4896.97607
4051.0 0.0002469 867.71899 4262.48779
3524.0 0.0002838 867.37439 3676.68896
2948.0 0.0003392 867.02863 3156.46655
2689.0 0.000372 866.68170 2709.56982
2292.0 0.000436 866.33319 2337.16772
2023.0 0.000494 865.98334 2034.17261
1859.0 0.000538 865.63214 1793.57336
1724.0 0.000580 865.27960 1606.41895
1583.0 0.000632 864.92578 1463.25378
1435.0 0.000697 864.57019 1355.03992
1427.0 0.000701 864.21356 1273.72742
1357.0 0.000737 863.85541 1212.55579
1286.0 0.000778 863.49573 1166.09412
1229.0 0.000814 863.13470 1130.21240
1162.0 0.000861 862.77209 1101.86255
1096.0 0.000912 862.40820 1078.87610
1137.0 0.000880 862.04254 1059.75024
1122.0 0.000891 861.67566 1043.46423
1086.0 0.000921 861.30731 1029.33057
1083.0 0.000923 860.93713 1016.87738
1047.0 0.000955 860.56573 1005.78516
1034.0 0.000967 860.19257 995.82318
1003.0 0.000997 859.81799 986.82123
1001.0 0.000999 859.44183 978.64746
1030.0 0.000971 859.06421 971.19751
1065.0 0.000939 858.68500 964.38239
1003.0 0.000997 858.30408 958.12988
997.0 0.001003 857.92175 952.37817
997.0 0.001003 857.53760 947.07336
943.0 0.001060 857.15204 942.16931
977.0 0.001024 856.76477 937.62524
943.0 0.001060 856.37579 933.40594
927.0 0.001079 855.98529 929.48108
932.0 0.001073 855.59320 925.82245
931.0 0.001074 855.19940 922.40625
955.0 0.001047 854.80396 919.21155
984.0 0.001016 854.40686 916.21942
897.0 0.001115 854.00800 913.41357
893.0 0.001120 853.60742 910.77869
958.0 0.001044 853.20532 908.30206
965.0 0.001036 852.80157 905.97211
960.0 0.001042 852.39575 903.77808
886.0 0.001129 851.98846 901.71143
988.0 0.001012 851.57941 899.76379
924.0 0.001082 851.16864 897.92822
872.0 0.001147 850.75623 896.19879
869.0 0.001151 850.34192 894.56921
879.0 0.001138 849.92590 893.03552
921.0 0.001086 849.50830 891.59387
901.0 0.001110 849.08875 868.63031
905.0 0.001105 848.66742 868.08020
922.0 0.001085 848.24445 867.57953
895.0 0.001117 847.81982 867.12915
920.0 0.001087 847.39313 866.73041
904.0 0.001106 846.96472 855.58258
899.0 0.001112 846.53467 855.65375
963.0 0.001038 846.10266 855.76746
881.0 0.001135 845.66895 855.92987
937.0 0.001067 845.23334 856.14746
912.0 0.001096 844.79614 856.42908
946.0 0.001057 844.35681 856.78467
865.0 0.001156 843.91589 857.22827
852.0 0.001174 843.47284 857.77704
892.0 0.001121 843.02838 858.45538
915.0 0.001093 842.58179 859.29401
921.0 0.001086 842.13354 860.33643
875.0 0.001143 841.68335 861.63940
914.0 0.001094 841.23126 863.27875
913.0 0.001095 840.77740 865.35303
861.0 0.001161 840.32166 867.98755
882.0 0.001134 839.86426 871.33820
902.0 0.001109 839.40472 875.59143
911.0 0.001098 838.94366 880.96362
931.0 0.001074 838.48059 887.69739
923.0 0.001083 838.01550 896.04791
900.0 0.001111 837.54871 906.27026
979.0 0.001021 837.07996 918.59808
957.0 0.001045 836.60956 933.21613
1015.0 0.000985 836.13721 950.23914
994.0 0.001006 835.66284 969.66315
1058.0 0.000945 835.18665 991.33191
1099.0 0.000910 834.70856 1014.88281
1085.0 0.000922 834.22876 1039.68323
1150.0 0.000870 833.74695 1064.76892
1067.0 0.000937 833.26337 1088.81372
1156.0 0.000865 832.77789 1110.19434
1206.0 0.000829 832.29065 1127.22778
1213.0 0.000824 831.80139 1138.51611
1201.0 0.000833 831.31012 1143.30347
1214.0 0.000824 830.81726 1141.57690
1160.0 0.000862 830.32233 1133.87158
1140.0 0.000877 829.82574 1120.96790
1146.0 0.000873 829.32715 1103.69910
1067.0 0.000937 828.82684 1082.97095
1025.0 0.000976 828.32440 1059.81836
986.0 0.001014 827.82019 1035.38574
1000.0 0.001000 827.31421 1010.79816
999.0 0.001001 826.80615 987.01611
989.0 0.001011 826.29645 964.75519
983.0 0.001017 825.78485 944.46155
900.0 0.001111 825.27130 926.36835
884.0 0.001131 824.75604 910.53253
869.0 0.001151 824.23889 896.88641
849.0 0.001178 823.71979 885.27948
835.0 0.001198 823.19904 875.51208
819.0 0.001221 822.67639 867.35437
835.0 0.001198 822.15179 860.57532
887.0 0.001127 821.62543 854.95093
838.0 0.001193 821.09711 850.27472
827.0 0.001209 820.56720 846.36499
867.0 0.001153 820.03528 843.06549
844.0 0.001185 819.50165 840.24774
854.0 0.001171 818.96613 837.80719
834.0 0.001199 818.42883 835.66119
800.0 0.001250 817.88959 833.74585
750.0 0.001333 817.34882 832.01300
809.0 0.001236 816.80609 830.42517
853.0 0.001172 816.26166 828.95508
796.0 0.001256 815.71527 827.58136
758.0 0.001319 815.16711 826.28821
809.0 0.001236 814.61743 825.06396
802.0 0.001247 814.06573 823.89832
876.0 0.001142 813.51221 822.78375
766.0 0.001305 812.95728 821.71448
755.0 0.001325 812.40033 820.68475
791.0 0.001264 811.84174 819.69043
806.0 0.001241 811.28143 818.72754
795.0 0.001258 810.71936 817.79285
841.0 0.001189 810.15540 816.88330
834.0 0.001199 809.58978 815.99670
778.0 0.001285 809.02252 815.13055
816.0 0.001225 808.45380 814.28339
776.0 0.001289 807.88312 813.45264
772.0 0.001295 807.31061 812.63702
812.0 0.001232 806.73663 811.83533
823.0 0.001215 806.16077 811.04596
794.0 0.001259 805.58331 810.26819
842.0 0.001188 805.00439 809.50079
726.0 0.001377 804.42371 808.74286
801.0 0.001248 803.84131 807.99335
783.0 0.001277 803.25732 807.25177
812.0 0.001232 802.67163 806.51721
760.0 0.001316 802.08453 805.78937
801.0 0.001248 801.49561 805.06726
801.0 0.001248 800.90527 804.35083
798.0 0.001253 800.31311 803.63916
818.0 0.001222 799.71979 802.93231
812.0 0.001232 799.12451 802.22925
745.0 0.001342 798.52759 801.52985
785.0 0.001274 797.92944 800.83429
826.0 0.001211 797.32947 800.14148
772.0 0.001295 796.72797 799.45148
819.0 0.001221 796.12531 798.76459
815.0 0.001227 795.52112 798.07983
802.0 0.001247 794.91504 797.39691
770.0 0.001299 794.30750 796.71588
774.0 0.001292 793.69885 796.03705
734.0 0.001362 793.08838 795.35938
808.0 0.001238 792.47681 794.68341
785.0 0.001274 791.86340 794.00836
805.0 0.001242 791.24866 793.33453
771.0 0.001297 790.63281 792.66199
804.0 0.001244 790.01508 791.98993
767.0 0.001304 789.39612 791.31873
800.0 0.001250 788.77600 790.64838
739.0 0.001353 788.15430 789.97845
727.0 0.001376 787.53125 789.30902
751.0 0.001332 786.90680 788.63989
770.0 0.001299 786.28113 787.97125
785.0 0.001274 785.65411 787.30292
781.0 0.001280 785.02563 786.63452
809.0 0.001236 784.39600 785.96643
806.0 0.001241 783.76514 785.29852
786.0 0.001272 783.13293 784.63055
785.0 0.001274 782.49933 783.96252
743.0 0.001346 781.86462 782.38116
719.0 0.001391 781.22864 781.73322
737.0 0.001357 780.59125 781.08429
788.0 0.001269 779.95306 780.43494
790.0 0.001266 779.31342 779.78448
758.0 0.001319 778.67267 778.67487
756.0 0.001323 778.03064 778.03302
735.0 0.001361 777.38745 777.38995
739.0 0.001353 776.74323 776.74591
775.0 0.001290 776.09796 776.10077
734.0 0.001362 775.45142 775.45441
725.0 0.001379 774.80365 774.80676
728.0 0.001374 774.15515 774.15839
810.0 0.001235 773.50531 773.50873
784.0 0.001276 772.85449 772.85809
677.0 0.001477 772.20264 772.20642
808.0 0.001238 771.54999 771.55389
741.0 0.001350 770.89594 770.90002
815.0 0.001227 770.24109 770.24536
735.0 0.001361 769.58527 769.58966
768.0 0.001302 768.92834 768.93292
716.0 0.001397 768.27051 768.27521
762.0 0.001312 767.61188 767.61676
752.0 0.001330 766.95227 766.95728
690.0 0.001449 766.29187 766.29706
779.0 0.001284 765.63043 765.63580
772.0 0.001295 764.96802 764.97357
756.0 0.001323 764.30511 764.31079
785.0 0.001274 763.64099 763.64685
752.0 0.001330 762.97620 762.98218
759.0 0.001318 762.31055 762.31671
760.0 0.001316 761.64441 761.65076
777.0 0.001287 760.97711 760.98358
709.0 0.001410 760.30920 768.21332
716.0 0.001397 759.64056 767.67255
739.0 0.001353 758.97144 767.13440
715.0 0.001399 758.30133 766.59851
789.0 0.001267 757.63031 766.06506
789.0 0.001267 756.95905 765.53479
816.0 0.001225 756.28699 768.94043
754.0 0.001326 755.61407 768.47931
757.0 0.001321 754.94073 768.02319
741.0 0.001350 754.26672 767.57184
733.0 0.001364 753.59241 767.12604
737.0 0.001357 752.91724 766.68512
720.0 0.001389 752.24139 766.24976
718.0 0.001393 751.56537 765.82056
737.0 0.001357 750.88843 765.39703
793.0 0.001261 750.21118 764.97992
780.0 0.001282 749.53369 764.56958
740.0 0.001351 748.85553 764.16589
764.0 0.001309 748.17682 763.76929
826.0 0.001211 747.49774 763.38013
766.0 0.001305 746.81848 762.99890
774.0 0.001292 746.13855 762.62549
733.0 0.001364 745.45819 762.26044
760.0 0.001316 744.77771 761.90424
767.0 0.001304 744.09680 761.55719
790.0 0.001266 743.41559 761.21954
739.0 0.001353 742.73395 760.89185
735.0 0.001361 742.05206 760.57440
746.0 0.001340 741.36993 760.26788
826.0 0.001211 740.68787 759.97278
791.0 0.001264 740.00513 759.68896
855.0 0.001170 739.32220 759.41760
730.0 0.001370 738.63940 759.15924
742.0 0.001348 737.95612 758.91412
753.0 0.001328 737.27264 758.68274
780.0 0.001282 736.58929 758.46637
761.0 0.001314 735.90576 758.26514
791.0 0.001264 735.22211 758.07977
737.0 0.001357 734.53821 757.91107
744.0 0.001344 733.85455 757.76013
749.0 0.001335 733.17065 757.62732
739.0 0.001353 732.48657 760.94171
745.0 0.001342 731.80280 760.91394
816.0 0.001225 731.11896 760.90924
797.0 0.001255 730.43500 760.92847
751.0 0.001332 729.75116 760.97296
747.0 0.001339 729.06738 761.04395
774.0 0.001292 728.38373 762.84863
780.0 0.001282 727.70001 763.00922
757.0 0.001321 727.01660 763.20160
768.0 0.001302 726.33325 763.42682
763.0 0.001311 725.65033 763.68744
756.0 0.001323 724.96722 763.98450
768.0 0.001302 724.28448 764.32025
740.0 0.001351 723.60187 764.69684
749.0 0.001335 722.91962 765.11633
806.0 0.001241 722.23755 765.58093
746.0 0.001340 721.55579 766.09351
795.0 0.001258 720.87433 766.65656
802.0 0.001247 720.19324 767.27289
759.0 0.001318 719.51227 767.94550
800.0 0.001250 718.83191 768.67810
789.0 0.001267 718.15173 769.47388
823.0 0.001215 717.47192 770.33624
767.0 0.001304 716.79254 771.27008
775.0 0.001290 716.11371 772.27960
734.0 0.001362 715.43536 773.36945
868.0 0.001152 714.75726 774.54462
820.0 0.001220 714.07971 775.81085
823.0 0.001215 713.40277 777.17377
785.0 0.001274 712.72650 778.64075
781.0 0.001280 712.05048 780.21790
795.0 0.001258 711.37500 781.91333
790.0 0.001266 710.70013 783.73547
802.0 0.001247 710.02588 785.69305
796.0 0.001256 709.35236 787.79645
869.0 0.001151 708.67957 790.05627
841.0 0.001189 708.00726 792.48383
838.0 0.001193 707.33551 795.09283
785.0 0.001274 706.66449 797.89728
849.0 0.001178 705.99438 800.91327
815.0 0.001227 705.32489 804.15759
802.0 0.001247 704.65625 807.64905
905.0 0.001105 703.98816 811.40997
821.0 0.001218 703.32092 815.46368
829.0 0.001206 702.65454 819.83667
826.0 0.001211 701.98895 824.55884
833.0 0.001200 701.32410 829.66406
832.0 0.001202 700.66028 835.19147
896.0 0.001116 699.99713 841.18555
873.0 0.001145 699.33521 847.69745
916.0 0.001092 698.67389 854.79053
938.0 0.001066 698.01379 862.53735
902.0 0.001109 697.35431 871.02502
885.0 0.001130 696.69598 880.36047
993.0 0.001007 696.03870 890.67310
948.0 0.001055 695.38251 902.11938
975.0 0.001026 694.72705 914.89722
980.0 0.001020 694.07257 929.24219
999.0 0.001001 693.41949 945.44373
1058.0 0.000945 692.76727 963.85052
1057.0 0.000946 692.11615 984.88086
1049.0 0.000953 691.46637 1009.02972
1153.0 0.000867 690.81744 1036.86890
1151.0 0.000869 690.16974 1069.07031
1174.0 0.000852 689.52319 1106.37744
1195.0 0.000837 688.87793 1149.61694
1334.0 0.000750 688.23383 1199.68274
1404.0 0.000712 687.59100 1257.51599
1495.0 0.000669 686.94940 1324.06848
1501.0 0.000666 686.30884 1400.30945
1646.0 0.000608 685.66980 1487.11865
1728.0 0.000579 685.03192 1585.26978
1831.0 0.000546 684.39545 1695.35132
1903.0 0.000525 683.76019 1817.67603
2081.0 0.000481 683.12628 1952.16589
2139.0 0.000468 682.49365 2098.19824
2271.0 0.000440 681.86255 2254.38818
2530.0 0.000395 681.23291 2418.45483
2668.0 0.000375 680.60449 2586.83569
2746.0 0.000364 679.97760 2754.61206
2913.0 0.0003433 679.35223 2915.50488
3070.0 0.0003257 678.72815 3062.22046
3136.0 0.0003189 678.10559 3187.33569
3219.0 0.0003107 677.48450 3284.29224
3216.0 0.0003109 676.86487 3371.08862
3270.0 0.0003058 676.24695 3401.34814
3298.0 0.0003032 675.63043 3398.12964
3260.0 0.0003067 675.01538 3364.28540
3140.0 0.0003185 674.40216 3303.77881
3049.0 0.0003280 673.79041 3221.13647
2914.0 0.0003432 673.18024 3132.35498
2759.0 0.000362 672.57159 3020.64014
2696.0 0.000371 671.96466 2902.58643
2556.0 0.000391 671.35944 2783.82666
2436.0 0.000411 670.75592 2669.57446
2436.0 0.000411 670.15405 2564.13867
2292.0 0.000436 669.55377 2470.75977
2247.0 0.000445 668.95526 2391.43530
2081.0 0.000481 668.35840 2326.94165
2129.0 0.000470 667.76355 2276.88037
2179.0 0.000459 667.17017 2239.73047
2145.0 0.000466 666.57861 2212.91797
2133.0 0.000469 665.98889 2192.96924
2103.0 0.000476 665.40094 2175.80811
2149.0 0.000465 664.81488 2157.28882
2139.0 0.000468 664.23041 2133.82666
2110.0 0.000474 663.64807 2102.95313
2034.0 0.000492 663.06763 2063.52637
2021.0 0.000495 662.48895 2015.53735
2011.0 0.000497 661.91205 1959.63770
1891.0 0.000529 661.33722 1896.79590
1845.0 0.000542 660.76428 1828.12231
1728.0 0.000579 660.19312 1754.93103
1628.0 0.000614 659.62402 1678.81885
1573.0 0.000636 659.05676 1601.61462
1517.0 0.000659 658.49176 1525.20984
1369.0 0.000730 657.92847 1451.28455
1342.0 0.000745 657.36713 1381.21570
1191.0 0.000840 656.80817 1315.96277
1192.0 0.000839 656.25079 1256.09521
1163.0 0.000860 655.69568 1201.85632
1112.0 0.000899 655.14276 1153.24390
1073.0 0.000932 654.59161 1110.05176
962.0 0.001040 654.04272 1071.97302
989.0 0.001011 653.49573 1038.61389
959.0 0.001043 652.95093 1009.53821
935.0 0.001070 652.40833 984.29382
863.0 0.001159 651.86786 962.43304
909.0 0.001100 651.32928 943.52722
841.0 0.001189 650.79297 927.18091
894.0 0.001119 650.25903 913.02759
860.0 0.001163 649.72699 900.74841
855.0 0.001170 649.19720 890.06317
829.0 0.001206 648.66980 880.73193
840.0 0.001190 648.14447 872.55255
799.0 0.001252 647.62134 865.35315
779.0 0.001284 647.10034 858.99542
807.0 0.001239 646.58167 853.36493
821.0 0.001218 646.06519 848.36865
832.0 0.001202 645.55096 843.93097
820.0 0.001220 645.03894 839.99084
821.0 0.001218 644.52948 836.49896
832.0 0.001202 644.02209 833.41449
800.0 0.001250 643.51703 830.70374
804.0 0.001244 643.01428 828.33984
775.0 0.001290 642.51398 826.30017
806.0 0.001241 642.01581 824.56531
808.0 0.001238 641.52002 823.11957
849.0 0.001178 641.02667 821.94971
837.0 0.001195 640.53564 821.04419
816.0 0.001225 640.04694 820.39398
819.0 0.001221 639.56055 819.99115
776.0 0.001289 639.07672 819.82953
830.0 0.001205 638.59521 819.90454
794.0 0.001259 638.11584 820.21198
810.0 0.001235 637.63916 820.74969
798.0 0.001253 637.16504 821.51654
845.0 0.001183 636.69318 822.51184
846.0 0.001182 636.22369 823.73633
818.0 0.001222 635.75659 825.19153
837.0 0.001195 635.29199 826.88025
805.0 0.001242 634.83014 828.80579
807.0 0.001239 634.37042 830.97302
816.0 0.001225 633.91327 833.38757
802.0 0.001247 633.45844 836.05579
836.0 0.001196 633.00641 838.98560
753.0 0.001328 632.55658 842.18542
835.0 0.001198 632.10962 845.66571
810.0 0.001235 631.66479 849.43671
895.0 0.001117 631.22260 853.51062
848.0 0.001179 630.78302 857.90271
835.0 0.001198 630.34595 862.62732
768.0 0.001302 629.91132 867.70117
854.0 0.001171 629.47925 873.14301
883.0 0.001133 629.04968 878.97192
868.0 0.001152 628.62274 885.21265
892.0 0.001121 628.19849 891.88861
891.0 0.001122 627.77655 899.02673
901.0 0.001110 627.35730 906.65704
905.0 0.001105 626.94055 914.81171
872.0 0.001147 626.52649 923.52710
938.0 0.001066 626.11487 932.84235
941.0 0.001063 625.70593 942.79950
900.0 0.001111 625.29962 953.45001
954.0 0.001048 624.89581 964.84521
973.0 0.001028 624.49463 977.04462
964.0 0.001037 624.09607 990.11414
1030.0 0.000971 623.70020 1004.12732
963.0 0.001038 623.30676 1019.16473
1006.0 0.000994 622.91608 1035.32520
976.0 0.001025 622.52814 1052.71326
1100.0 0.000909 622.14246 1071.45166
1005.0 0.000995 621.75970 1091.68286
1097.0 0.000912 621.37939 1113.57251
1079.0 0.000927 621.00183 1137.31616
1137.0 0.000880 620.62701 1163.14111
1148.0 0.000871 620.25458 1191.33044
1182.0 0.000846 619.88470 1222.21130
1173.0 0.000853 619.51794 1256.18127
1240.0 0.000806 619.15344 1293.71667
1265.0 0.000791 618.79169 1335.39050
1413.0 0.000708 618.43250 1381.88062
1477.0 0.000677 618.07623 1434.01660
1473.0 0.000679 617.72241 1492.75452
1539.0 0.000650 617.37128 1559.22144
1685.0 0.000593 617.02283 1634.72217
1761.0 0.000568 616.67694 1720.74915
1817.0 0.000550 616.33374 1818.98474
1918.0 0.000521 615.99329 1923.43408
2046.0 0.000489 615.65546 2051.96948
2215.0 0.000451 615.32025 2198.82495
2443.0 0.000409 614.98761 2366.27368
2464.0 0.000406 614.65790 2556.65771
2667.0 0.000375 614.33069 2772.29834
2975.0 0.0003361 614.00616 3008.27100
3086.0 0.0003240 613.68420 3280.94556
3590.0 0.0002786 613.36493 3582.97827
3773.0 0.0002650 613.04846 3918.87817
4088.0 0.0002446 612.73462 4287.17334
4605.0 0.0002172 612.42334 4687.02490
5024.0 0.0001990 612.11481 5116.08154
5566.0 0.0001797 611.80884 5569.97998
5882.0 0.0001700 611.50568 6041.70947
6422.0 0.0001557 611.20502 6521.37598
6805.0 0.0001470 610.90710 6995.44141
7451.0 0.0001342 610.61176 7447.18750
7873.0 0.0001270 610.31903 7857.58887
8251.0 0.0001212 610.02917 8207.16992
8416.0 0.0001188 609.74182 8478.50977
8698.0 0.0001150 609.45715 8658.94434
8818.0 0.0001134 609.17505 8741.94922
8851.0 0.0001130 608.89569 8727.46582
8575.0 0.0001166 608.61896 8620.57324
8614.0 0.0001161 608.34460 8429.59766
8339.0 0.0001199 608.07324 8164.55469
8296.0 0.0001205 607.80432 7836.45996
7613.0 0.0001314 607.53815 7457.05566
7178.0 0.0001393 607.27454 7039.15088
6764.0 0.0001478 607.01349 6596.12354
6200.0 0.0001613 606.75513 6141.21680
5666.0 0.0001765 606.49915 5686.61035
5283.0 0.0001893 606.24628 5242.71191
4894.0 0.0002043 605.99554 4817.46338
4458.0 0.0002243 605.74762 4416.70361
4050.0 0.0002469 605.50220 4044.10645
3748.0 0.0002668 605.25952 3701.60303
3469.0 0.0002883 605.01941 3389.75830
3106.0 0.0003220 604.78180 3108.11987
2860.0 0.0003497 604.54663 2855.51172
2677.0 0.000374 604.31427 2630.29736
2478.0 0.000404 604.08441 2430.42749
2211.0 0.000452 603.85718 2253.78906
2128.0 0.000470 603.63226 2098.16479
1922.0 0.000520 603.41034 1961.35559
1816.0 0.000551 603.19055 1841.25403
1669.0 0.000599 602.97363 1735.81873
1599.0 0.000625 602.75885 1643.21265
1543.0 0.000648 602.54681 1561.74719
1402.0 0.000713 602.33759 1489.90637
1408.0 0.000710 602.13049 1426.34851
1393.0 0.000718 601.92596 1369.90186
1314.0 0.000761 601.72406 1319.55249
1193.0 0.000838 601.52472 1274.43823
1182.0 0.000846 601.32770 1233.80676
1124.0 0.000890 601.13324 1197.04199
1155.0 0.000866 600.94122 1163.61963
1162.0 0.000861 600.75177 1133.10071
1055.0 0.000948 600.56482 1105.12158
1088.0 0.000919 600.38013 1079.36548
1061.0 0.000943 600.19806 1055.57898
1006.0 0.000994 600.01825 1033.54370
952.0 0.001050 599.84106 1013.07526
1012.0 0.000988 599.66632 994.01587
947.0 0.001056 599.49384 976.23010
1010.0 0.000990 599.32379 959.60052
927.0 0.001079 599.15631 944.02716
911.0 0.001098 598.99103 929.41516
893.0 0.001120 598.82837 915.68732
942.0 0.001062 598.66779 902.77234
852.0 0.001174 598.50983 890.60712
887.0 0.001127 598.35419 879.13409
855.0 0.001170 598.20087 868.30328
853.0 0.001172 598.04980 858.06451
928.0 0.001078 597.90112 848.37708
864.0 0.001157 597.75482 839.20209
844.0 0.001185 597.61084 830.50427
823.0 0.001215 597.46906 822.25073
837.0 0.001195 597.32977 814.41254
787.0 0.001271 597.19263 806.96289
773.0 0.001294 597.05780 799.87457
792.0 0.001263 596.92523 793.12579
768.0 0.001302 596.79492 786.69525
773.0 0.001294 596.66687 780.56335
821.0 0.001218 596.54108 774.71179
789.0 0.001267 596.41748 769.12463
816.0 0.001225 596.29602 763.78461
788.0 0.001269 596.17688 758.67822
774.0 0.001292 596.05994 753.79211
778.0 0.001285 595.94513 749.11383
749.0 0.001335 595.83264 744.63159
788.0 0.001269 595.72223 740.33484
724.0 0.001381 595.61383 736.21338
764.0 0.001309 595.50769 732.25836
699.0 0.001431 595.40375 728.46021
741.0 0.001350 595.30188 724.81091
693.0 0.001443 595.20197 721.30292
706.0 0.001416 595.10437 717.92932
740.0 0.001351 595.00885 714.68359
749.0 0.001335 594.91522 711.55853
765.0 0.001307 594.82379 708.54877
692.0 0.001445 594.73450 705.64886
756.0 0.001323 594.64697 702.85309
686.0 0.001458 594.56171 700.15723
728.0 0.001374 594.47833 697.55627
703.0 0.001422 594.39709 695.04590
702.0 0.001425 594.31781 692.62244
694.0 0.001441 594.24042 690.28119
714.0 0.001401 594.16498 688.01886
689.0 0.001451 594.09155 685.83215
687.0 0.001456 594.02014 683.71777
659.0 0.001517 593.95056 681.67242
728.0 0.001374 593.88281 679.69366
684.0 0.001462 593.81720 677.77814
668.0 0.001497 593.75336 675.92346
710.0 0.001408 593.69141 674.12714
699.0 0.001431 593.63110 672.38666
732.0 0.001366 593.57294 670.70032
713.0 0.001403 593.51642 669.06531
753.0 0.001328 593.46185 667.47974
711.0 0.001406 593.40918 665.94281
721.0 0.001387 593.35815 664.45068
691.0 0.001447 593.30884 663.00366
660.0 0.001515 593.26141 661.59912
665.0 0.001504 593.21582 660.23480
635.0 0.001575 593.17175 658.91052
691.0 0.001447 593.12952 657.62347
646.0 0.001548 593.08905 656.37390
702.0 0.001425 593.05017 655.15875
654.0 0.001529 593.01306 653.97858
665.0 0.001504 592.97772 652.83063
678.0 0.001475 592.94379 651.71490
674.0 0.001484 592.91174 650.62927
624.0 0.001603 592.88129 649.57397
684.0 0.001462 592.85223 648.54651
632.0 0.001582 592.82495 647.54736
670.0 0.001493 592.79926 646.57513
671.0 0.001490 592.77515 645.62805
665.0 0.001504 592.75244 644.70654
632.0 0.001582 592.73145 643.80884
660.0 0.001515 592.71191 642.93506
662.0 0.001511 592.69397 642.08356
672.0 0.001488 592.67737 641.25452
601.0 0.001664 592.66241 640.44641
705.0 0.001418 592.64880 639.65936
662.0 0.001511 592.63678 638.89203
632.0 0.001582 592.62604 638.14447
646.0 0.001548 592.61676 637.98431
636.0 0.001572 592.60901 637.28192
607.0 0.001647 592.60248 636.59723
633.0 0.001580 592.59735 635.92975
666.0 0.001502 592.59369 635.27966
686.0 0.001458 592.59131 634.64545
645.0 0.001550 592.59039 634.02771
613.0 0.001631 592.59064 633.70776
680.0 0.001471 592.59222 633.12469
619.0 0.001616 592.59503 632.55573
638.0 0.001567 592.59924 632.00177
651.0 0.001536 592.60468 631.46143
657.0 0.001522 592.61121 630.93488
680.0 0.001471 592.61920 630.42169
657.0 0.001522 592.62830 629.92151
629.0 0.001590 592.63837 629.43372
634.0 0.001577 592.65002 628.95862
626.0 0.001597 592.66241 605.98926
594.0 0.001684 592.67621 605.84448
653.0 0.001531 592.69104 605.70477
623.0 0.001605 592.70709 605.57025
592.0 0.001689 592.72412 605.44067
647.0 0.001546 592.74225 605.31598
671.0 0.001490 592.76160 605.19629
640.0 0.001563 592.78180 593.96606
633.0 0.001580 592.80316 594.00647
602.0 0.001661 592.82544 594.04840
620.0 0.001613 592.84869 594.09161
573.0 0.001745 592.87311 594.13660
613.0 0.001631 592.89838 594.18298
614.0 0.001629 592.92462 594.23083
629.0 0.001590 592.95178 594.28021
610.0 0.001639 592.97980 594.33093
606.0 0.001650 593.00885 594.38336
599.0 0.001669 593.03870 594.43719
629.0 0.001590 593.06958 594.49268
616.0 0.001623 593.10114 594.54950
592.0 0.001689 593.13361 594.60797
657.0 0.001522 593.16687 594.66791
665.0 0.001504 593.20111 594.72961
619.0 0.001616 593.23602 594.79272
571.0 0.001751 593.27167 594.85736
628.0 0.001592 593.30804 594.92358
620.0 0.001613 593.34528 594.99139
601.0 0.001664 593.38312 595.06091
615.0 0.001626 593.42163 595.13190
586.0 0.001706 593.46112 595.20483
608.0 0.001645 593.50098 595.27917
613.0 0.001631 593.54175 595.35541
616.0 0.001623 593.58313 595.43341
610.0 0.001639 593.62500 595.51300
613.0 0.001631 593.66754 595.59442
625.0 0.001600 593.71075 595.67780
579.0 0.001727 593.75446 595.76288
593.0 0.001686 593.79883 595.84998
608.0 0.001645 593.84363 595.93884
572.0 0.001748 593.88898 596.02972
656.0 0.001524 593.93481 596.12268
597.0 0.001675 593.98126 596.21765
598.0 0.001672 594.02814 596.31482
583.0 0.001715 594.07556 596.41418
603.0 0.001658 594.12347 596.51593
662.0 0.001511 594.17163 596.61975
641.0 0.001560 594.22046 596.72620
619.0 0.001616 594.26953 596.83496
575.0 0.001739 594.31897 596.94623
607.0 0.001647 594.36877 597.06018
602.0 0.001661 594.41913 597.17694
620.0 0.001613 594.46967 597.29651
630.0 0.001587 594.52057 597.41901
637.0 0.001570 594.57178 597.54456
590.0 0.001695 594.62329 597.67328
588.0 0.001701 594.67505 597.80542
610.0 0.001639 594.72717 597.94098
614.0 0.001629 594.77936 598.08008
627.0 0.001595 594.83191 598.22296
616.0 0.001623 594.88470 598.37000
627.0 0.001595 594.93756 598.52106
587.0 0.001704 594.99078 598.67664
650.0 0.001538 595.04407 598.83673
647.0 0.001546 595.09760 599.00171
588.0 0.001701 595.15112 599.17169
612.0 0.001634 595.20483 599.34698
620.0 0.001613 595.25873 599.52820
639.0 0.001565 595.31262 599.71521
636.0 0.001572 595.36658 599.90869
589.0 0.001698 595.42078 600.10901
618.0 0.001618 595.47491 600.31647
567.0 0.001764 595.52893 600.53131
590.0 0.001695 595.58319 600.75464
598.0 0.001672 595.63745 600.98633
637.0 0.001570 595.69159 601.22729
593.0 0.001686 595.74573 601.47809
600.0 0.001667 595.79980 601.73944
614.0 0.001629 595.85388 602.01208
593.0 0.001686 595.90778 602.29651
595.0 0.001681 595.96173 602.59430
578.0 0.001730 596.01550 602.90582
636.0 0.001572 596.06909 603.23242
642.0 0.001558 596.12268 603.57526
654.0 0.001529 596.17603 603.93561
589.0 0.001698 596.22925 604.31482
604.0 0.001656 596.28229 604.71478
614.0 0.001629 596.33514 605.13690
588.0 0.001701 596.38800 605.58380
604.0 0.001656 596.44025 606.05688
594.0 0.001684 596.49243 606.55957
590.0 0.001695 596.54443 607.09448
609.0 0.001642 596.59607 607.66510
603.0 0.001658 596.64752 608.27563
626.0 0.001597 596.69879 608.93060
619.0 0.001616 596.74963 609.63623
628.0 0.001592 596.80005 610.39832
584.0 0.001712 596.85028 611.22626
631.0 0.001585 596.90015 612.12866
606.0 0.001650 596.94958 613.11847
642.0 0.001558 596.99866 614.20880
615.0 0.001626 597.04742 615.41809
615.0 0.001626 597.09570 616.76520
592.0 0.001689 597.14362 618.27606
642.0 0.001558 597.19110 619.97705
575.0 0.001739 597.23822 621.90259
647.0 0.001546 597.28473 624.08984
610.0 0.001639 597.33093 626.58075
632.0 0.001582 597.37659 629.42499
588.0 0.001701 597.42163 632.67090
657.0 0.001522 597.46631 636.37817
653.0 0.001531 597.51044 640.60065
631.0 0.001585 597.55396 654.63763
664.0 0.001506 597.59711 660.20190
645.0 0.001550 597.63965 666.46576
625.0 0.001600 597.68152 673.47247
721.0 0.001387 597.72290 681.27319
708.0 0.001412 597.76367 689.88727
700.0 0.001429 597.80371 699.33191
717.0 0.001395 597.84326 714.15363
758.0 0.001319 597.88226 725.23059
687.0 0.001456 597.92059 736.97760
729.0 0.001372 597.95801 749.22064
747.0 0.001339 597.99506 761.74213
715.0 0.001399 598.03131 774.21008
761.0 0.001314 598.06689 786.24109
787.0 0.001271 598.10175 797.35803
824.0 0.001214 598.13599 807.08929
803.0 0.001245 598.16931 814.97583
833.0 0.001200 598.20209 820.68481
809.0 0.001236 598.23395 824.02087
832.0 0.001202 598.26526 824.96515
818.0 0.001222 598.29565 823.63171
828.0 0.001208 598.32520 820.22113
860.0 0.001163 598.35413 814.96069
773.0 0.001294 598.38214 808.08990
781.0 0.001280 598.40942 799.83319
752.0 0.001330 598.43579 790.44659
827.0 0.001209 598.46136 780.19055
815.0 0.001227 598.48602 769.37378
711.0 0.001406 598.50989 758.28711
788.0 0.001269 598.53296 747.23206
763.0 0.001311 598.55511 736.44464
740.0 0.001351 598.57629 726.13672
690.0 0.001449 598.59668 716.44000
752.0 0.001330 598.61609 707.45947
704.0 0.001420 598.63452 699.23920
743.0 0.001346 598.65210 691.79102
716.0 0.001397 598.66876 685.11469
682.0 0.001466 598.68445 679.17401
680.0 0.001471 598.69922 673.93610
687.0 0.001456 598.71289 669.34589
661.0 0.001513 598.72577 665.35645
667.0 0.001499 598.73755 661.90784
654.0 0.001529 598.74841 658.95020
602.0 0.001661 598.75824 656.42694
630.0 0.001587 598.76703 654.29163
641.0 0.001560 598.77478 652.49487
667.0 0.001499 598.78156 650.99725
644.0 0.001553 598.78735 649.75964
636.0 0.001572 598.79193 648.74799
640.0 0.001563 598.79559 647.93439
631.0 0.001585 598.79816 647.29266
631.0 0.001585 598.79968 646.80219
673.0 0.001486 598.80011 646.44397
672.0 0.001488 598.79950 646.20349
616.0 0.001623 598.79761 646.06757
616.0 0.001623 598.79474 646.02643
676.0 0.001479 598.79083 654.41302
630.0 0.001587 598.78571 654.77258
686.0 0.001458 598.77942 655.21619
636.0 0.001572 598.77203 655.73932
592.0 0.001689 598.76355 656.33978
650.0 0.001538 598.75403 657.01532
697.0 0.001435 598.74310 657.76398
649.0 0.001541 598.73114 662.68842
644.0 0.001553 598.71796 663.69775
634.0 0.001577 598.70374 664.78589
655.0 0.001527 598.68823 665.95197
638.0 0.001567 598.67163 667.19897
637.0 0.001570 598.65369 668.52698
646.0 0.001548 598.63464 669.94031
633.0 0.001580 598.61432 671.43921
649.0 0.001541 598.59283 673.02893
684.0 0.001462 598.57007 674.71075
663.0 0.001508 598.54626 676.49036
631.0 0.001585 598.52100 678.37079
709.0 0.001410 598.49463 680.35675
670.0 0.001493 598.46692 682.45526
681.0 0.001468 598.43805 684.66962
660.0 0.001515 598.40790 687.00891
685.0 0.001460 598.37653 689.47723
661.0 0.001513 598.34387 692.08539
680.0 0.001471 598.30994 694.83850
696.0 0.001437 598.27472 697.74957
698.0 0.001433 598.23822 700.82501
645.0 0.001550 598.20038 704.07996
675.0 0.001481 598.16144 707.52277
664.0 0.001506 598.12103 711.16992
703.0 0.001422 598.07947 715.03552
715.0 0.001399 598.03644 719.13470
698.0 0.001433 597.99225 723.48999
673.0 0.001486 597.94666 728.11566
650.0 0.001538 597.89978 733.04034
750.0 0.001333 597.85168 738.28278
694.0 0.001441 597.80206 743.87732
725.0 0.001379 597.75128 749.84857
706.0 0.001416 597.69910 756.23920
704.0 0.001420 597.64563 763.08154
761.0 0.001314 597.59082 770.43030
704.0 0.001420 597.53461 778.33057
762.0 0.001312 597.47717 786.85687
760.0 0.001316 597.41821 796.07745
782.0 0.001279 597.35803 806.09631
806.0 0.001241 597.29663 817.04865
797.0 0.001255 597.23376 829.08929
825.0 0.001212 597.16943 842.46008
849.0 0.001178 597.10382 857.45239
923.0 0.001083 597.03693 874.50378
911.0 0.001098 596.96851 894.15741
956.0 0.001046 596.89880 917.18970
994.0 0.001006 596.82794 944.55151
1041.0 0.000961 596.75549 977.52332
1085.0 0.000922 596.68176 1018.52283
1147.0 0.000872 596.60657 1067.60632
1172.0 0.000853 596.53015 1127.70740
1251.0 0.000799 596.45221 1201.13257
1404.0 0.000712 596.37299 1290.28918
1446.0 0.000692 596.29230 1397.31262
1509.0 0.000663 596.21033 1524.26831
1671.0 0.000598 596.12695 1672.37109
1908.0 0.000524 596.04211 1842.82288
1991.0 0.000502 595.95599 2033.96472
2217.0 0.000451 595.86853 2244.57495
2409.0 0.000415 595.77966 2470.79932
2662.0 0.000376 595.68939 2707.30347
2891.0 0.0003459 595.59766 2945.92383
3140.0 0.0003185 595.50464 3176.94702
3250.0 0.0003077 595.41028 3388.91797
3695.0 0.0002706 595.31451 3571.74634
3770.0 0.0002653 595.21729 3718.93018
3947.0 0.0002534 595.11877 3829.27930
3999.0 0.0002501 595.01874 3907.22559
4011.0 0.0002493 594.91760 3959.89380
3959.0 0.0002526 594.81482 3994.60034
3917.0 0.0002553 594.71094 4016.68628
4008.0 0.0002495 594.60529 4029.45190
3968.0 0.0002520 594.49860 4035.06152
4099.0 0.0002440 594.39038 4035.95239
4084.0 0.0002449 594.28088 4035.40845
4017.0 0.0002489 594.16986 4037.00513
4047.0 0.0002471 594.05762 4043.34668
4036.0 0.0002478 593.94403 4054.98413
4013.0 0.0002492 593.82886 4070.02832
4026.0 0.0002484 593.71252 4084.45581
4047.0 0.0002471 593.59473 4093.02441
3989.0 0.0002507 593.47577 4090.32129
3858.0 0.0002592 593.35522 4071.82935
4067.0 0.0002459 593.23340 4034.65747
3881.0 0.0002577 593.11011 3977.61719
3824.0 0.0002615 592.98560 3901.09058
3814.0 0.0002622 592.85962 3806.17285
3667.0 0.0002727 592.73242 3694.50415
3683.0 0.0002715 592.60388 3567.54077
3522.0 0.0002839 592.47388 3427.14209
3271.0 0.0003057 592.34259 3275.20752
3134.0 0.0003191 592.20996 3114.30859
2904.0 0.0003444 592.07605 2947.53979
2745.0 0.000364 591.94073 2778.10327
2592.0 0.000386 591.80408 2609.57495
2588.0 0.000386 591.66614 2444.81323
2313.0 0.000432 591.52692 2286.56641
2051.0 0.000488 591.38623 2136.56396
2047.0 0.000489 591.24451 1996.30151
1926.0 0.000519 591.10114 1865.79810
1832.0 0.000546 590.95673 1746.66577
1667.0 0.000600 590.81085 1638.13977
1540.0 0.000649 590.66376 1540.05359
1458.0 0.000686 590.51532 1451.82666
1398.0 0.000715 590.36566 1372.88452
1307.0 0.000765 590.21460 1302.56726
1251.0 0.000799 590.06232 1239.81299
1180.0 0.000847 589.90887 1184.54431
1178.0 0.000849 589.75403 1135.69397
1084.0 0.000923 589.59802 1092.64270
1050.0 0.000952 589.44061 1054.70007
1067.0 0.000937 589.28198 1021.32953
989.0 0.001011 589.12207 991.96423
999.0 0.001001 588.96094 966.17889
950.0 0.001053 588.79858 943.54541
941.0 0.001063 588.63501 923.76123
911.0 0.001098 588.47021 906.54260
929.0 0.001076 588.30414 891.69434
843.0 0.001186 588.13684 879.07916
867.0 0.001153 587.96832 868.60034
884.0 0.001131 587.79865 860.23297
850.0 0.001176 587.62762 853.96893
800.0 0.001250 587.45551 849.84650
852.0 0.001174 587.28210 847.90637
858.0 0.001166 587.10767 848.19794
832.0 0.001202 586.93188 850.75232
876.0 0.001142 586.75519 855.56268
860.0 0.001163 586.57697 862.57800
879.0 0.001138 586.39789 871.65729
844.0 0.001185 586.21741 882.57831
878.0 0.001139 586.03601 894.96326
871.0 0.001148 585.85352 908.29114
924.0 0.001082 585.66962 921.85156
899.0 0.001112 585.48474 934.71765
998.0 0.001002 585.29865 945.85986
938.0 0.001066 585.11139 954.22583
932.0 0.001073 584.92322 958.99866
920.0 0.001087 584.73389 959.74719
957.0 0.001045 584.54321 956.51819
918.0 0.001089 584.35181 949.73199
926.0 0.001080 584.15900 939.95563
946.0 0.001057 583.96539 927.73181
930.0 0.001075 583.77051 913.43097
906.0 0.001104 583.57477 897.33258
833.0 0.001200 583.37793 879.67053
847.0 0.001181 583.17993 860.76282
847.0 0.001181 582.98096 841.09174
840.0 0.001190 582.78088 821.18152
820.0 0.001220 582.57990 801.60620
801.0 0.001248 582.37775 782.81293
732.0 0.001366 582.17480 765.17499
750.0 0.001333 581.97064 748.89429
708.0 0.001412 581.76569 734.10437
714.0 0.001401 581.55957 720.81415
705.0 0.001418 581.35260 709.00525
669.0 0.001495 581.14459 698.58478
660.0 0.001515 580.93567 689.45844
687.0 0.001456 580.72583 681.49634
642.0 0.001558 580.51508 674.56396
628.0 0.001592 580.30347 668.53815
647.0 0.001546 580.09070 663.28479
629.0 0.001590 579.87720 658.69318
663.0 0.001508 579.66260 654.65082
628.0 0.001592 579.44733 651.06976
617.0 0.001621 579.23102 647.86560
647.0 0.001546 579.01392 644.97479
653.0 0.001531 578.79584 642.33868
588.0 0.001701 578.57703 639.91583
603.0 0.001658 578.35724 637.66760
649.0 0.001541 578.13672 635.56824
608.0 0.001645 577.91534 633.59406
596.0 0.001678 577.69312 631.72803
591.0 0.001692 577.47003 629.95697
563.0 0.001776 577.24622 628.26868
619.0 0.001616 577.02167 626.65656
616.0 0.001623 576.79620 625.11121
573.0 0.001745 576.57007 623.62860
640.0 0.001563 576.34296 622.20184
578.0 0.001730 576.11542 620.82867
622.0 0.001608 575.88678 619.50311
594.0 0.001684 575.65771 618.22382
552.0 0.001812 575.42773 616.98602
576.0 0.001736 575.19708 615.78845
610.0 0.001639 574.96576 614.62781
567.0 0.001764 574.73370 613.50183
643.0 0.001555 574.50116 612.40912
576.0 0.001736 574.26764 611.34668
636.0 0.001572 574.03345 610.31384
629.0 0.001590 573.79871 609.30823
607.0 0.001647 573.56335 608.32910
573.0 0.001745 573.32727 607.37421
607.0 0.001647 573.09070 606.44354
568.0 0.001761 572.85327 605.53418
600.0 0.001667 572.61548 604.64697
551.0 0.001815 572.37701 603.77930
567.0 0.001764 572.13794 602.93115
598.0 0.001672 571.89825 602.10120
566.0 0.001767 571.65802 605.71417
604.0 0.001656 571.41748 604.97992
578.0 0.001730 571.17603 604.26227
537.0 0.001862 570.93427 603.56177
587.0 0.001704 570.69189 602.87683
576.0 0.001736 570.44897 602.20758
608.0 0.001645 570.20544 601.55273
551.0 0.001815 569.96173 600.91266
645.0 0.001550 569.71735 602.48035
583.0 0.001715 569.47266 601.89795
558.0 0.001792 569.22723 601.32861
606.0 0.001650 568.98157 600.77289
595.0 0.001681 568.73541 600.22998
601.0 0.001664 568.48883 599.69971
593.0 0.001686 568.24188 599.18170
570.0 0.001754 567.99432 598.67548
588.0 0.001701 567.74658 598.18121
590.0 0.001695 567.49835 597.69824
605.0 0.001653 567.24994 597.22687
629.0 0.001590 567.00092 596.76630
642.0 0.001558 566.75171 596.31659
530.0 0.001887 566.50195 595.87756
587.0 0.001704 566.25208 595.44934
591.0 0.001692 566.00183 595.03131
600.0 0.001667 565.75134 594.62378
643.0 0.001555 565.50031 594.22601
563.0 0.001776 565.24921 593.83875
582.0 0.001718 564.99786 593.46143
572.0 0.001748 564.74603 593.09381
573.0 0.001745 564.49432 583.47662
591.0 0.001692 564.24200 583.25494
600.0 0.001667 563.98962 583.04077
598.0 0.001672 563.73694 582.83368
637.0 0.001570 563.48419 582.63409
608.0 0.001645 563.23114 582.44202
598.0 0.001672 562.97803 582.25732
569.0 0.001757 562.72443 582.08008
593.0 0.001686 562.47113 573.83740
606.0 0.001650 562.21729 573.78986
583.0 0.001715 561.96356 573.74786
585.0 0.001709 561.70966 573.71161
559.0 0.001789 561.45551 574.21423
580.0 0.001724 561.20148 574.20038
576.0 0.001736 560.94702 574.19318
641.0 0.001560 560.69275 574.19299
598.0 0.001672 560.43823 574.20013
567.0 0.001764 560.18378 574.21478
585.0 0.001709 559.92914 574.23749
566.0 0.001767 559.67468 574.26837
586.0 0.001706 559.41986 574.57159
579.0 0.001727 559.16534 574.62500
570.0 0.001754 558.91064 574.68787
594.0 0.001684 558.65613 574.76068
590.0 0.001695 558.40161 574.84363
612.0 0.001634 558.14691 574.93732
582.0 0.001718 557.89246 575.04224
595.0 0.001681 557.63782 575.15869
624.0 0.001603 557.38361 575.28748
602.0 0.001661 557.12915 575.42908
579.0 0.001727 556.87500 575.58380
577.0 0.001733 556.62067 575.75256
544.0 0.001838 556.36664 575.93567
590.0 0.001695 556.11273 576.13434
581.0 0.001721 555.85895 576.34869
542.0 0.001845 555.60516 576.57983
578.0 0.001730 555.35181 576.82837
596.0 0.001678 555.09833 577.09515
622.0 0.001608 554.84515 577.38135
545.0 0.001835 554.59222 577.68756
594.0 0.001684 554.33936 578.01514
602.0 0.001661 554.08679 578.36469
570.0 0.001754 553.83429 578.73785
587.0 0.001704 553.58215 579.13531
600.0 0.001667 553.33026 579.55908
610.0 0.001639 553.07861 580.00952
584.0 0.001712 552.82709 580.48907
598.0 0.001672 552.57599 580.99854
593.0 0.001686 552.32501 581.54028
605.0 0.001653 552.07452 594.18292
596.0 0.001678 551.82434 594.93829
588.0 0.001701 551.57434 595.73401
580.0 0.001724 551.32483 596.57184
622.0 0.001608 551.07538 597.45502
616.0 0.001623 550.82660 598.38513
580.0 0.001724 550.57788 599.36591
570.0 0.001754 550.32977 600.39935
621.0 0.001610 550.08191 601.48969
569.0 0.001757 549.83453 608.67767
580.0 0.001724 549.58728 609.96387
597.0 0.001675 549.34076 611.31799
588.0 0.001701 549.09448 612.74634
705.0 0.001418 548.84869 614.25153
637.0 0.001570 548.60339 615.84015
622.0 0.001608 548.35846 617.51727
678.0 0.001475 548.11414 619.28857
618.0 0.001618 547.87006 621.16187
599.0 0.001669 547.62659 623.14246
610.0 0.001639 547.38354 625.24060
643.0 0.001555 547.14124 627.46246
653.0 0.001531 546.89899 629.82001
639.0 0.001565 546.65771 632.32135
678.0 0.001475 546.41675 634.98126
670.0 0.001493 546.17639 637.80975
635.0 0.001575 545.93646 640.82532
619.0 0.001616 545.69733 644.04126
671.0 0.001490 545.45844 647.48108
647.0 0.001546 545.22046 651.16284
680.0 0.001471 544.98291 655.11444
672.0 0.001488 544.74591 659.36902
667.0 0.001499 544.50983 663.95642
698.0 0.001433 544.27405 668.92377
697.0 0.001435 544.03900 674.31384
718.0 0.001393 543.80444 680.19086
682.0 0.001466 543.57080 686.61554
749.0 0.001335 543.33759 693.67560
735.0 0.001361 543.10529 701.45581
766.0 0.001305 542.87341 710.07495
790.0 0.001266 542.64240 719.64893
789.0 0.001267 542.41187 730.33551
802.0 0.001247 542.18231 742.28851
785.0 0.001274 541.95337 755.70251
772.0 0.001295 541.72510 770.79907
799.0 0.001252 541.49762 787.79388
872.0 0.001147 541.27087 806.96497
861.0 0.001161 541.04486 828.56592
918.0 0.001089 540.81958 852.91827
937.0 0.001067 540.59509 880.29932
1013.0 0.000987 540.37134 911.05792
984.0 0.001016 540.14850 945.47003
1086.0 0.000921 539.92627 983.88062
1089.0 0.000918 539.70502 1026.52161
1147.0 0.000872 539.48450 1073.68469
1186.0 0.000843 539.26483 1125.48975
1238.0 0.000808 539.04602 1182.05762
1323.0 0.000756 538.82800 1243.40173
1353.0 0.000739 538.61078 1309.26086
1418.0 0.000705 538.39447 1379.32251
1492.0 0.000670 538.17896 1452.83789
1520.0 0.000658 537.96417 1528.90796
1693.0 0.000591 537.75067 1606.06531
1714.0 0.000583 537.53772 1682.61829
1810.0 0.000552 537.32581 1756.29431
1908.0 0.000524 537.11481 1824.70911
1934.0 0.000517 536.90466 1885.20093
1956.0 0.000511 536.69543 1935.43518
1890.0 0.000529 536.48718 1973.42078
2031.0 0.000492 536.27979 1998.00781
2080.0 0.000481 536.07336 2008.85120
2113.0 0.000473 535.86792 2006.41284
2066.0 0.000484 535.66333 1991.70386
1988.0 0.000503 535.45990 1966.02295
1971.0 0.000507 535.25732 1930.62891
1901.0 0.000526 535.05579 1886.74219
1939.0 0.000516 534.85510 1835.38538
1764.0 0.000567 534.65558 1777.70056
1768.0 0.000566 534.45679 1714.81006
1706.0 0.000586 534.25934 1648.15320
1611.0 0.000621 534.06268 1579.14294
1436.0 0.000696 533.86700 1509.39307
1438.0 0.000695 533.67255 1440.27771
1374.0 0.000728 533.47888 1373.06177
1282.0 0.000780 533.28656 1308.75537
1214.0 0.000824 533.09503 1248.02332
1154.0 0.000867 532.90466 1191.41504
1120.0 0.000893 532.71527 1139.12183
1092.0 0.000916 532.52698 1091.30029
1076.0 0.000929 532.33984 1047.85242
990.0 0.001010 532.15369 1008.69812
988.0 0.001012 531.96857 973.58789
893.0 0.001120 531.78467 942.32037
946.0 0.001057 531.60181 914.58472
857.0 0.001167 531.42010 890.13092
821.0 0.001218 531.23938 868.64740
833.0 0.001200 531.05988 849.86108
782.0 0.001279 530.88147 833.50592
783.0 0.001277 530.70410 819.31354
799.0 0.001252 530.52808 807.06580
750.0 0.001333 530.35297 796.53186
710.0 0.001408 530.17902 787.53058
741.0 0.001350 530.00629 779.87769
724.0 0.001381 529.83478 773.43054
803.0 0.001245 529.66425 768.04791
706.0 0.001416 529.49506 763.62274
790.0 0.001266 529.32690 760.05139
686.0 0.001458 529.15997 757.25623
698.0 0.001433 528.99420 755.16571
757.0 0.001321 528.82959 753.72437
704.0 0.001420 528.66620 752.88605
732.0 0.001366 528.50391 752.61383
721.0 0.001387 528.34302 752.87982
765.0 0.001307 528.18304 753.91943
699.0 0.001431 528.02460 755.20764
755.0 0.001325 527.86713 756.98846
720.0 0.001389 527.71094 759.25494
749.0 0.001335 527.55585 762.00989
762.0 0.001312 527.40222 765.25415
730.0 0.001370 527.24957 768.99945
780.0 0.001282 527.09833 773.25372
738.0 0.001355 526.94824 778.03809
746.0 0.001340 526.79938 783.49603
730.0 0.001370 526.65186 789.40021
719.0 0.001391 526.50549 795.91132
719.0 0.001391 526.36035 803.05627
722.0 0.001385 526.21643 810.88629
846.0 0.001182 526.07391 819.44116
875.0 0.001143 525.93243 828.78906
860.0 0.001163 525.79236 838.98712
839.0 0.001192 525.65356 850.12836
792.0 0.001263 525.51593 862.29376
862.0 0.001160 525.37958 875.61047
868.0 0.001152 525.24457 890.19458
911.0 0.001098 525.11078 906.22015
893.0 0.001120 524.97839 923.85132
905.0 0.001105 524.84717 943.31335
979.0 0.001021 524.71710 964.87268
973.0 0.001028 524.58856 988.79730
915.0 0.001093 524.46118 1015.45673
1063.0 0.000941 524.33508 1045.20862
1105.0 0.000905 524.21033 1078.53503
1063.0 0.000941 524.08685 1115.89648
1198.0 0.000835 523.96454 1157.89990
1167.0 0.000857 523.84369 1205.11218
1291.0 0.000775 523.72406 1258.26709
1342.0 0.000745 523.60577 1318.02600
1378.0 0.000726 523.48877 1385.23364
1446.0 0.000692 523.37299 1460.61133
1533.0 0.000652 523.25867 1545.02246
1663.0 0.000601 523.14545 1639.35437
1754.0 0.000570 523.03375 1744.29724
1905.0 0.000525 522.92316 1860.74109
2066.0 0.000484 522.81409 1989.22180
2188.0 0.000457 522.70618 2130.45703
2252.0 0.000444 522.59967 2284.65771
2343.0 0.000427 522.49438 2452.15942
2619.0 0.000382 522.39044 2632.57690
2777.0 0.000360 522.28772 2825.52197
3049.0 0.0003280 522.18652 3029.58447
3224.0 0.0003102 522.08649 3243.12842
3526.0 0.0002836 521.98779 3463.13013
3579.0 0.0002794 521.89038 3686.01587
3815.0 0.0002621 521.79437 3906.85815
4020.0 0.0002488 521.69965 4119.70557
4263.0 0.0002346 521.60626 4318.09326
4427.0 0.0002259 521.51416 4494.83936
4542.0 0.0002202 521.42340 4643.63525
4590.0 0.0002179 521.33398 4758.96338
4798.0 0.0002084 521.24573 4837.46875
5013.0 0.0001995 521.15894 4877.72900
4887.0 0.0002046 521.07343 4880.53125
4888.0 0.0002046 520.98920 4848.16406
4841.0 0.0002066 520.90625 4783.74609
4710.0 0.0002123 520.82471 4690.73047
4616.0 0.0002166 520.74451 4572.24658
4440.0 0.0002252 520.66547 4431.27441
4144.0 0.0002413 520.58783 4270.74805
4086.0 0.0002447 520.51154 4093.57886
3926.0 0.0002547 520.43652 3903.42651
3638.0 0.0002749 520.36285 3703.88672
3508.0 0.0002851 520.29047 3499.25464
3274.0 0.0003054 520.21936 3293.28345
3091.0 0.0003235 520.14960 3089.90552
2837.0 0.000352 520.08105 2892.01196
2631.0 0.000380 520.01392 2702.34082
2564.0 0.000390 519.94800 2522.48486
2296.0 0.000436 519.88342 2353.87793
2239.0 0.000447 519.82013 2197.04199
2033.0 0.000492 519.75812 2052.28540
1928.0 0.000519 519.69745 1919.57092
1873.0 0.000534 519.63806 1798.45898
1705.0 0.000587 519.57990 1688.60144
1667.0 0.000600 519.52307 1589.24609
1513.0 0.000661 519.46753 1499.82654
1423.0 0.000703 519.41327 1419.50330
1318.0 0.000759 519.36029 1347.63623
1333.0 0.000750 519.30865 1283.40564
1282.0 0.000780 519.25812 1226.18457
1195.0 0.000837 519.20905 1175.23254
1145.0 0.000873 519.16113 1129.98657
1153.0 0.000867 519.11444 1089.81372
1053.0 0.000950 519.06921 1054.23840
1017.0 0.000983 519.02509 1022.76007
1003.0 0.000997 518.98224 994.93811
967.0 0.001034 518.94061 970.42828
930.0 0.001075 518.90033 948.86230
950.0 0.001053 518.86127 929.96472
904.0 0.001106 518.82355 913.43860
905.0 0.001105 518.78699 899.05261
870.0 0.001149 518.75159 886.55042
833.0 0.001200 518.71753 875.71356
829.0 0.001206 518.68457 866.28821
837.0 0.001195 518.65302 853.60779
813.0 0.001230 518.62256 846.29022
857.0 0.001167 518.59344 839.55792
842.0 0.001188 518.56543 833.09045
791.0 0.001264 518.53864 826.58105
802.0 0.001247 518.51312 819.78528
765.0 0.001307 518.48871 812.53003
820.0 0.001220 518.46558 804.76587
791.0 0.001264 518.44360 793.90912
777.0 0.001287 518.42297 785.32086
771.0 0.001297 518.40338 776.45178
792.0 0.001263 518.38501 767.39966
739.0 0.001353 518.36786 758.20465
751.0 0.001332 518.35181 748.90198
753.0 0.001328 518.33704 739.49762
757.0 0.001321 518.32330 730.03766
688.0 0.001453 518.31085 720.58081
759.0 0.001318 518.29944 711.21356
733.0 0.001364 518.28925 702.05353
682.0 0.001466 518.28021 693.19189
707.0 0.001414 518.27222 684.72388
706.0 0.001416 518.26550 676.70007
687.0 0.001456 518.25989 669.16650
685.0 0.001460 518.25531 662.12897
665.0 0.001504 518.25201 655.59509
660.0 0.001515 518.24976 649.54272
664.0 0.001506 518.24854 643.95715
724.0 0.001381 518.24847 638.80353
660.0 0.001515 518.24945 634.05688
626.0 0.001597 518.25165 630.71313
603.0 0.001658 518.25488 626.68530
603.0 0.001658 518.25916 622.96320
605.0 0.001653 518.26459 619.51190
649.0 0.001541 518.27100 616.30634
617.0 0.001621 518.27863 613.31567
641.0 0.001560 518.28711 610.51904
631.0 0.001585 518.29681 607.89172
583.0 0.001715 518.30743 605.41785
606.0 0.001650 518.31921 603.59082
620.0 0.001613 518.33191 601.38031
594.0 0.001684 518.34576 599.27826
619.0 0.001616 518.36060 597.27716
562.0 0.001779 518.37646 595.36664
555.0 0.001802 518.39325 593.53967
547.0 0.001828 518.41107 591.79089
629.0 0.001590 518.42993 590.11322
620.0 0.001613 518.44983 588.50421
592.0 0.001689 518.47070 586.95758
587.0 0.001704 518.49243 585.47174
627.0 0.001595 518.51526 584.04144
607.0 0.001647 518.53894 582.66565
595.0 0.001681 518.56360 581.34003
596.0 0.001678 518.58929 580.06360
588.0 0.001701 518.61591 578.83276
596.0 0.001678 518.64337 577.64655
592.0 0.001689 518.67188 576.50220
573.0 0.001745 518.70129 575.39795
522.0 0.001916 518.73151 574.38562
602.0 0.001661 518.76282 573.35754
574.0 0.001742 518.79486 572.36536
582.0 0.001718 518.82782 571.40637
575.0 0.001739 518.86176 570.48071
577.0 0.001733 518.89648 569.58600
567.0 0.001764 518.93207 568.72174
585.0 0.001709 518.96863 567.88611
590.0 0.001695 519.00598 567.07886
554.0 0.001805 519.04419 566.32422
603.0 0.001658 519.08325 565.57025
584.0 0.001712 519.12317 564.84100
613.0 0.001631 519.16382 564.13586
603.0 0.001658 519.20538 563.45447
599.0 0.001669 519.24768 562.79504
585.0 0.001709 519.29089 562.15802
592.0 0.001689 519.33478 574.55432
574.0 0.001742 519.37952 574.16998
616.0 0.001623 519.42505 573.81030
602.0 0.001661 519.47137 573.47540
580.0 0.001724 519.51831 573.16443
610.0 0.001639 519.56616 572.87762
596.0 0.001678 519.61469 572.61401
590.0 0.001695 519.66400 572.37378
593.0 0.001686 519.71411 572.15625
616.0 0.001623 519.76471 578.40784
606.0 0.001650 519.81616 578.33997
584.0 0.001712 519.86841 578.29694
598.0 0.001672 519.92133 578.27875
612.0 0.001634 519.97479 578.28522
510.0 0.001961 520.02905 578.31671
633.0 0.001580 520.08398 578.37286
585.0 0.001709 520.13959 578.45416
620.0 0.001613 520.19580 578.56036
613.0 0.001631 520.25262 578.69171
582.0 0.001718 520.31018 578.84882
609.0 0.001642 520.36835 579.03137
609.0 0.001642 520.42719 579.23999
657.0 0.001522 520.48651 579.47455
572.0 0.001748 520.54651 579.73578
586.0 0.001706 520.60718 580.02423
599.0 0.001669 520.66827 580.33954
592.0 0.001689 520.73010 580.68323
623.0 0.001605 520.79236 581.05469
590.0 0.001695 520.85535 581.45569
560.0 0.001786 520.91870 581.88574
533.0 0.001876 520.98285 582.34631
626.0 0.001597 521.04730 582.83740
580.0 0.001724 521.11237 583.36053
635.0 0.001575 521.17798 583.91583
650.0 0.001538 521.24396 584.50464
586.0 0.001706 521.31061 585.12756
625.0 0.001600 521.37762 585.78583
600.0 0.001667 521.44519 586.48090
613.0 0.001631 521.51331 587.21313
594.0 0.001684 521.58185 587.98474
627.0 0.001595 521.65070 588.79578
599.0 0.001669 521.72021 589.64911
568.0 0.001761 521.79010 590.54504
583.0 0.001715 521.86029 591.48602
563.0 0.001776 521.93097 592.47327
587.0 0.001704 522.00220 593.50922
601.0 0.001664 522.07361 594.59473
589.0 0.001698 522.14557 595.73340
601.0 0.001664 522.21783 596.92603
572.0 0.001748 522.29053 586.00092
627.0 0.001595 522.36353 587.45447
614.0 0.001629 522.43695 588.96765
625.0 0.001600 522.51068 590.54449
605.0 0.001653 522.58478 592.18646
607.0 0.001647 522.65912 593.89880
582.0 0.001718 522.73389 595.68317
598.0 0.001672 522.80896 597.54596
608.0 0.001645 522.88422 599.48846
614.0 0.001629 522.95996 595.19763
594.0 0.001684 523.03583 597.39233
604.0 0.001656 523.11206 599.68298
600.0 0.001667 523.18842 602.07214
623.0 0.001605 523.26520 604.56812
651.0 0.001536 523.34216 607.17657
625.0 0.001600 523.41937 609.90399
611.0 0.001637 523.49677 612.76001
648.0 0.001543 523.57440 615.74951
619.0 0.001616 523.65234 618.88525
653.0 0.001531 523.73022 622.17242
648.0 0.001543 523.80859 625.62604
667.0 0.001499 523.88696 629.25250
618.0 0.001618 523.96570 633.06921
607.0 0.001647 524.04437 637.08423
597.0 0.001675 524.12335 641.31757
618.0 0.001618 524.20239 645.77979
639.0 0.001565 524.28162 650.49261
642.0 0.001558 524.36096 655.47406
610.0 0.001639 524.44037 660.74365
665.0 0.001504 524.51996 666.33044
697.0 0.001435 524.59961 672.25330
672.0 0.001488 524.67944 678.54944
644.0 0.001553 524.75922 685.24396
656.0 0.001524 524.83917 692.38239
653.0 0.001531 524.91907 699.99799
682.0 0.001466 524.99921 708.14905
718.0 0.001393 525.07928 716.88086
759.0 0.001318 525.15930 726.26892
768.0 0.001302 525.23956 736.37732
746.0 0.001340 525.31964 747.30762
732.0 0.001366 525.39978 759.15234
762.0 0.001312 525.47998 772.04413
746.0 0.001340 525.56018 786.14386
824.0 0.001214 525.64032 801.61688
804.0 0.001244 525.72046 818.70313
863.0 0.001159 525.80054 837.64716
844.0 0.001185 525.88055 858.79187
936.0 0.001068 525.96051 882.49304
948.0 0.001055 526.04053 909.23376
996.0 0.001004 526.12024 939.51416
1010.0 0.000990 526.20007 973.99286
1069.0 0.000935 526.27972 1013.34021
1095.0 0.000913 526.35938 1058.41309
1157.0 0.000864 526.43884 1110.05518
1220.0 0.000820 526.51813 1169.27649
1390.0 0.000719 526.59741 1237.17847
1300.0 0.000769 526.67651 1314.78748
1421.0 0.000704 526.75543 1403.33875
1507.0 0.000664 526.83423 1503.85730
1612.0 0.000620 526.91290 1617.55811
1752.0 0.000571 526.99139 1745.29590
1882.0 0.000531 527.06970 1888.06738
1968.0 0.000508 527.14783 2046.30042
2189.0 0.000457 527.22577 2220.47046
2312.0 0.000433 527.30347 2410.20313
2528.0 0.000396 527.38098 2615.00000
2803.0 0.000357 527.45831 2833.13354
2937.0 0.0003405 527.53534 3062.31885
3318.0 0.0003014 527.61218 3299.14722
3506.0 0.0002852 527.68872 3538.42334
3836.0 0.0002607 527.76508 3774.08984
3827.0 0.0002613 527.84113 3998.16699
4299.0 0.0002326 527.91693 4202.33643
4515.0 0.0002215 527.99249 4377.69629
4741.0 0.0002109 528.06763 4516.91553
4855.0 0.0002060 528.14258 4614.59668
4849.0 0.0002062 528.21722 4668.78125
4833.0 0.0002069 528.29150 4680.56641
4804.0 0.0002082 528.36560 4653.67090
4724.0 0.0002117 528.43921 4593.13135
4630.0 0.0002160 528.51257 4503.93359
4401.0 0.0002272 528.58551 4390.23779
4198.0 0.0002382 528.65814 4255.05518
4100.0 0.0002439 528.73047 4100.31934
3937.0 0.0002540 528.80225 3928.03613
3704.0 0.0002700 528.87390 3740.24048
3570.0 0.0002801 528.94501 3540.27393
3380.0 0.0002959 529.01581 3331.88770
3175.0 0.0003150 529.08612 3119.88672
2869.0 0.0003486 529.15601 2908.60010
2627.0 0.000381 529.22565 2702.43970
2494.0 0.000401 529.29474 2504.55469
2290.0 0.000437 529.36340 2317.71631
2170.0 0.000461 529.43164 2143.42358
1970.0 0.000508 529.49939 1982.67749
1795.0 0.000557 529.56665 1835.86719
1649.0 0.000606 529.63361 1702.75586
1583.0 0.000632 529.69995 1583.06958
1480.0 0.000676 529.76593 1475.98987
1332.0 0.000751 529.83130 1380.82568
1293.0 0.000773 529.89630 1296.54175
1264.0 0.000791 529.96075 1222.27905
1160.0 0.000862 530.02472 1156.97083
1060.0 0.000943 530.08820 1099.74109
1011.0 0.000989 530.15106 1049.59973
1020.0 0.000980 530.21350 1005.74493
954.0 0.001048 530.27527 967.33325
893.0 0.001120 530.33661 933.65143
879.0 0.001138 530.39734 904.05444
875.0 0.001143 530.45758 877.93884
876.0 0.001142 530.51721 854.83087
853.0 0.001172 530.57623 834.26471
768.0 0.001302 530.63477 815.89185
804.0 0.001244 530.69275 799.37164
748.0 0.001337 530.75000 784.45703
796.0 0.001256 530.80682 770.90564
777.0 0.001287 530.86292 758.54785
785.0 0.001274 530.91846 747.21246
706.0 0.001416 530.97333 736.78442
759.0 0.001318 531.02759 727.14606
667.0 0.001499 531.08124 718.21063
693.0 0.001443 531.13422 709.90485
705.0 0.001418 531.18658 702.15723
721.0 0.001387 531.23840 694.92279
644.0 0.001553 531.28949 688.14545
672.0 0.001488 531.33984 681.79260
662.0 0.001511 531.38959 675.82104
626.0 0.001597 531.43872 670.20654
607.0 0.001647 531.48712 664.91394
649.0 0.001541 531.53485 659.92505
627.0 0.001595 531.58185 655.21106
638.0 0.001567 531.62811 650.75763
629.0 0.001590 531.67371 646.54077
623.0 0.001605 531.71863 642.54889
605.0 0.001653 531.76288 638.76422
588.0 0.001701 531.80640 635.17047
627.0 0.001595 531.84912 631.75928
588.0 0.001701 531.89117 628.51471
620.0 0.001613 531.93243 625.42993
643.0 0.001555 531.97302 622.49097
593.0 0.001686 532.01276 619.69232
592.0 0.001689 532.05188 617.02222
603.0 0.001658 532.09015 614.47589
603.0 0.001658 532.12775 612.04291
600.0 0.001667 532.16449 609.71960
636.0 0.001572 532.20044 607.49670
598.0 0.001672 532.23566 605.37115
541.0 0.001848 532.27014 603.33618
574.0 0.001742 532.30377 601.38556
579.0 0.001727 532.33661 599.51672
573.0 0.001745 532.36871 597.72333
597.0 0.001675 532.39996 596.00330
535.0 0.001869 532.43048 594.35059
606.0 0.001650 532.46002 592.76385
614.0 0.001629 532.48889 591.23767
555.0 0.001802 532.51691 589.77069
578.0 0.001730 532.54413 588.35828
547.0 0.001828 532.57043 586.99921
531.0 0.001883 532.59601 585.68945
565.0 0.001770 532.62067 584.42792
598.0 0.001672 532.64453 583.21173
575.0 0.001739 532.66754 582.03778
603.0 0.001658 532.68970 580.90564
550.0 0.001818 532.71094 579.81189
566.0 0.001767 532.73132 578.75598
524.0 0.001908 532.75104 577.73499
525.0 0.001905 532.76971 576.74866
583.0 0.001715 532.78754 575.79407
547.0 0.001828 532.80457 574.87109
536.0 0.001866 532.82062 573.97699
529.0 0.001890 532.83588 573.11182
538.0 0.001859 532.85028 572.27325
536.0 0.001866 532.86365 571.46082
539.0 0.001855 532.87622 570.67297
536.0 0.001866 532.88794 569.90894
550.0 0.001818 532.89862 569.16760
578.0 0.001730 532.90857 568.44788
566.0 0.001767 532.91754 567.74927
579.0 0.001727 532.92560 567.07025
538.0 0.001859 532.93274 566.41095
539.0 0.001855 532.93903 565.76971
541.0 0.001848 532.94427 565.14630
585.0 0.001709 532.94873 564.53967
565.0 0.001770 532.95221 563.94952
539.0 0.001855 532.95483 563.37476
533.0 0.001876 532.95648 562.81543
554.0 0.001805 532.95721 562.27032
545.0 0.001835 532.95697 561.73914
593.0 0.001686 532.95587 561.22137
589.0 0.001698 532.95380 560.71631
551.0 0.001815 532.95074 560.22357
533.0 0.001876 532.94684 559.74286
567.0 0.001764 532.94196 559.27368
555.0 0.001802 532.93610 558.81531
547.0 0.001828 532.92938 558.36780
547.0 0.001828 532.92163 557.93030
608.0 0.001645 532.91290 557.50275
540.0 0.001852 532.90326 557.08453
537.0 0.001862 532.89276 556.67572
552.0 0.001812 532.88123 556.27570
537.0 0.001862 532.86871 555.88403
558.0 0.001792 532.85529 555.50055
608.0 0.001645 532.84088 555.12494
523.0 0.001912 532.82556 554.75714
542.0 0.001845 532.80920 554.39642
539.0 0.001855 532.79193 554.04309
539.0 0.001855 532.77362 553.69629
512.0 0.001953 532.75446 553.35638
564.0 0.001773 532.73431 553.02258
531.0 0.001883 532.71313 552.69513
552.0 0.001812 532.69098 552.37335
513.0 0.001949 532.66791 552.05762
562.0 0.001779 532.64380 551.74695
550.0 0.001818 532.61884 553.09161
535.0 0.001869 532.59283 552.80914
531.0 0.001883 532.56586 552.53162
505.0 0.001980 532.53784 552.25946
570.0 0.001754 532.50897 551.99207
568.0 0.001761 532.47906 551.72955
529.0 0.001890 532.44818 551.47156
543.0 0.001842 532.41638 551.21820
517.0 0.001934 532.38354 550.96912
547.0 0.001828 532.34979 550.72430
563.0 0.001776 532.31506 550.48334
556.0 0.001799 532.27930 550.24658
563.0 0.001776 532.24255 550.01355
555.0 0.001802 532.20490 554.07751
530.0 0.001887 532.16620 553.90338
525.0 0.001905 532.12659 553.73340
572.0 0.001748 532.08600 553.56812
524.0 0.001908 532.04437 553.40692
553.0 0.001808 532.00189 553.25006
536.0 0.001866 531.95837 553.09729
534.0 0.001873 531.91376 552.94867
522.0 0.001916 531.86829 552.80408
552.0 0.001812 531.82196 554.20135
524.0 0.001908 531.77448 554.08606
511.0 0.001957 531.72607 553.97522
570.0 0.001754 531.67670 553.86853
491.0 0.002037 531.62646 553.76636
522.0 0.001916 531.57520 553.66840
566.0 0.001767 531.52289 552.54675
531.0 0.001883 531.46967 552.46954
553.0 0.001808 531.41547 552.39618
549.0 0.001821 531.36035 552.32690
524.0 0.001908 531.30426 553.02435
557.0 0.001795 531.24725 552.97369
524.0 0.001908 531.18915 552.92743
500.0 0.002000 531.13025 552.88550
537.0 0.001862 531.07025 552.84766
536.0 0.001866 531.00934 542.12909
546.0 0.001832 530.94751 542.22327
528.0 0.001894 530.88477 542.31976
572.0 0.001748 530.82098 542.41876
581.0 0.001721 530.75635 542.52014
566.0 0.001767 530.69067 542.62433
545.0 0.001835 530.62415 546.72144
556.0 0.001799 530.55664 546.87915
540.0 0.001852 530.48822 547.04089
586.0 0.001706 530.41882 547.20654
563.0 0.001776 530.34851 547.37646
532.0 0.001880 530.27728 547.55048
512.0 0.001953 530.20508 547.72900
500.0 0.002000 530.13202 547.91217
551.0 0.001815 530.05792 548.10004
559.0 0.001789 529.98291 548.29279
552.0 0.001812 529.90717 550.46692
582.0 0.001718 529.83032 550.69385
592.0 0.001689 529.75269 550.92682
561.0 0.001783 529.67401 551.16589
580.0 0.001724 529.59448 551.41132
585.0 0.001709 529.51404 551.66351
532.0 0.001880 529.43280 551.92230
561.0 0.001783 529.35052 552.18842
583.0 0.001715 529.26740 552.46161
552.0 0.001812 529.18329 552.74261
537.0 0.001862 529.09845 553.03149
587.0 0.001704 529.01263 553.32861
561.0 0.001783 528.92596 553.63397
589.0 0.001698 528.83838 553.94818
538.0 0.001859 528.75000 554.27179
556.0 0.001799 528.66064 554.60455
544.0 0.001838 528.57043 554.94739
554.0 0.001805 528.47949 555.30042
548.0 0.001825 528.38745 555.66388
523.0 0.001912 528.29474 556.03833
545.0 0.001835 528.20099 556.42432
549.0 0.001821 528.10663 556.82202
586.0 0.001706 528.01117 557.23230
603.0 0.001658 527.91504 557.65515
567.0 0.001764 527.81799 558.09155
569.0 0.001757 527.72015 558.54144
534.0 0.001873 527.62146 559.00586
550.0 0.001818 527.52191 559.48529
559.0 0.001789 527.42163 559.98022
601.0 0.001664 527.32037 560.49158
527.0 0.001898 527.21844 561.01965
513.0 0.001949 527.11560 561.56567
531.0 0.001883 527.01202 562.12964
595.0 0.001681 526.90759 562.71301
573.0 0.001745 526.80243 563.31604
581.0 0.001721 526.69635 563.94012
573.0 0.001745 526.58960 564.58551
556.0 0.001799 526.48193 565.25403
563.0 0.001776 526.37360 565.94574
545.0 0.001835 526.26440 566.66266
579.0 0.001727 526.15454 567.40491
572.0 0.001748 526.04388 568.17407
560.0 0.001786 525.93237 568.97211
536.0 0.001866 525.82025 569.79913
575.0 0.001739 525.70728 570.65759
551.0 0.001815 525.59351 571.54785
570.0 0.001754 525.47906 572.47290
573.0 0.001745 525.36389 573.43280
564.0 0.001773 525.24792 574.43060
587.0 0.001704 525.13123 575.46710
565.0 0.001770 525.01379 576.54553
578.0 0.001730 524.89581 577.66656
653.0 0.001531 524.77698 578.83380
632.0 0.001582 524.65747 580.04822
630.0 0.001587 524.53729 581.31311
573.0 0.001745 524.41626 582.63171
594.0 0.001684 524.29474 584.00574
557.0 0.001795 524.17230 585.43958
581.0 0.001721 524.04944 586.93512
604.0 0.001656 523.92566 588.49744
623.0 0.001605 523.80139 590.12860
620.0 0.001613 523.67639 591.83453
624.0 0.001603 523.55072 593.61749
539.0 0.001855 523.42444 595.48456
630.0 0.001587 523.29742 597.43848
647.0 0.001546 523.16986 599.48718
595.0 0.001681 523.04156 601.63397
625.0 0.001600 522.91278 603.88666
661.0 0.001513 522.78326 606.25409
658.0 0.001520 522.65314 608.74078
636.0 0.001572 522.52234 611.35876
637.0 0.001570 522.39105 618.72455
615.0 0.001626 522.25909 621.69507
619.0 0.001616 522.12659 624.82648
659.0 0.001517 521.99335 628.13647
623.0 0.001605 521.85968 631.63593
652.0 0.001534 521.72534 635.34662
633.0 0.001580 521.59052 639.28424
649.0 0.001541 521.45508 643.47626
669.0 0.001495 521.31915 647.94397
683.0 0.001464 521.18250 652.72217
716.0 0.001397 521.04541 657.84503
680.0 0.001471 520.90778 665.65887
705.0 0.001418 520.76965 671.63403
719.0 0.001391 520.63092 678.09363
725.0 0.001379 520.49164 685.10785
729.0 0.001372 520.35193 692.73993
748.0 0.001337 520.21167 701.07977
727.0 0.001376 520.07098 710.20801
753.0 0.001328 519.92969 720.23730
753.0 0.001328 519.78796 731.26752
800.0 0.001250 519.64563 743.43512
793.0 0.001261 519.50299 756.85852
783.0 0.001277 519.35980 771.69232
816.0 0.001225 519.21625 788.08423
870.0 0.001149 519.07208 806.18671
912.0 0.001096 518.92749 826.18134
895.0 0.001117 518.78259 848.20929
910.0 0.001099 518.63708 872.46301
1000.0 0.001000 518.49121 899.07257
983.0 0.001017 518.34491 928.22089
1007.0 0.000993 518.19818 960.00452
1018.0 0.000982 518.05103 994.56976
1058.0 0.000945 517.90350 1031.94360
1049.0 0.000953 517.75555 1072.19263
1181.0 0.000847 517.60724 1115.21973
1232.0 0.000812 517.45856 1160.93445
1285.0 0.000778 517.30945 1209.09558
1356.0 0.000737 517.16003 1259.35107
1374.0 0.000728 517.01019 1311.30725
1428.0 0.000700 516.86005 1364.37573
1439.0 0.000695 516.70941 1418.05811
1508.0 0.000663 516.55865 1471.74902
1626.0 0.000615 516.40729 1525.07007
1559.0 0.000641 516.25580 1577.66174
1750.0 0.000571 516.10388 1629.46777
1798.0 0.000556 515.95172 1680.44495
1850.0 0.000541 515.79919 1730.74475
1790.0 0.000559 515.64642 1780.35657
1842.0 0.000543 515.49329 1829.25293
1892.0 0.000529 515.33997 1877.06287
1850.0 0.000541 515.18628 1923.24866
1976.0 0.000506 515.03229 1967.02454
1973.0 0.000507 514.87817 2007.34302
2062.0 0.000485 514.72363 2043.18372
2156.0 0.000464 514.56891 2073.48486
2044.0 0.000489 514.41382 2097.44897
2145.0 0.000466 514.25873 2114.50854
2122.0 0.000471 514.10321 2124.51563
2129.0 0.000470 513.94757 2127.67578
2178.0 0.000459 513.79163 2124.55957
2122.0 0.000471 513.63556 2115.99438
2180.0 0.000459 513.47913 2102.93408
2048.0 0.000488 513.32269 2086.38281
2092.0 0.000478 513.16602 2067.25073
2071.0 0.000483 513.00916 2046.32422
2054.0 0.000487 512.85211 2024.30981
1887.0 0.000530 512.69476 2001.77515
1989.0 0.000503 512.53748 1979.31042
1888.0 0.000530 512.37982 1957.46985
1920.0 0.000521 512.22217 1936.90942
1933.0 0.000517 512.06433 1918.28101
1775.0 0.000563 511.90640 1902.30212
1847.0 0.000541 511.74817 1889.61694
1820.0 0.000549 511.59000 1880.81592
1838.0 0.000544 511.43164 1876.31848
1959.0 0.000510 511.27319 1876.36646
1823.0 0.000549 511.11472 1880.96326
1958.0 0.000511 510.95602 1889.86304
1909.0 0.000524 510.79739 1902.52734
1818.0 0.000550 510.63852 1918.15930
1936.0 0.000517 510.47968 1935.65967
1977.0 0.000506 510.32062 1953.73462
2046.0 0.000489 510.16174 1970.88757
1935.0 0.000517 510.00262 1985.60889
1926.0 0.000519 509.84363 1996.43494
1993.0 0.000502 509.68442 2002.16003
2015.0 0.000496 509.52527 2001.91260
2048.0 0.000488 509.36606 1995.25183
2000.0 0.000500 509.20697 1982.16760
2014.0 0.000497 509.04779 1962.98645
1900.0 0.000526 508.88852 1938.24341
1874.0 0.000534 508.72934 1908.60400
1898.0 0.000527 508.57016 1874.63550
1854.0 0.000539 508.41104 1836.88330
1875.0 0.000533 508.25192 1795.69470
1763.0 0.000567 508.09283 1751.44348
1682.0 0.000595 507.93369 1704.39087
1685.0 0.000593 507.77478 1654.97241
1582.0 0.000632 507.61572 1603.60693
1551.0 0.000645 507.45694 1550.95166
1494.0 0.000669 507.29803 1497.62231
1462.0 0.000684 507.13931 1444.40710
1400.0 0.000714 506.98068 1391.96375
1389.0 0.000720 506.82208 1340.95398
1346.0 0.000743 506.66373 1291.94336
1279.0 0.000782 506.50525 1245.32666
1242.0 0.000805 506.34705 1201.49060
1172.0 0.000853 506.18887 1160.60632
1098.0 0.000911 506.03088 1122.86353
1044.0 0.000958 505.87292 1088.28467
1026.0 0.000975 505.71524 1056.92822
1023.0 0.000978 505.55753 1028.73425
1003.0 0.000997 505.40018 1003.69293
967.0 0.001034 505.24277 981.71515
1013.0 0.000987 505.08572 962.76770
947.0 0.001056 504.92871 946.77466
870.0 0.001149 504.77191 933.69672
979.0 0.001021 504.61539 923.50647
949.0 0.001054 504.45892 916.18414
947.0 0.001056 504.30273 911.74994
956.0 0.001046 504.14667 910.23279
952.0 0.001050 503.99084 911.69293
935.0 0.001070 503.83524 916.21393
979.0 0.001021 503.67987 923.89331
1020.0 0.000980 503.52469 934.86261
895.0 0.001117 503.36990 949.24463
997.0 0.001003 503.21518 967.20190
979.0 0.001021 503.06076 988.86005
1045.0 0.000957 502.90659 1014.37872
1036.0 0.000965 502.75272 1043.87891
1098.0 0.000911 502.59912 1077.45032
1180.0 0.000847 502.44568 1115.18726
1266.0 0.000790 502.29266 1157.04980
1215.0 0.000823 502.13980 1203.02185
1208.0 0.000828 501.98737 1252.88049
1307.0 0.000765 501.83517 1306.39319
1348.0 0.000742 501.68332 1363.03723
1391.0 0.000719 501.53165 1422.22375
1423.0 0.000703 501.38046 1482.98059
1512.0 0.000661 501.22943 1544.21252
1557.0 0.000642 501.07892 1604.39551
1622.0 0.000617 500.92859 1661.90625
1629.0 0.000614 500.77869 1714.81567
1677.0 0.000596 500.62912 1761.28845
1722.0 0.000581 500.47986 1799.65601
1744.0 0.000573 500.33099 1828.57178
1724.0 0.000580 500.18246 1847.33130
1823.0 0.000549 500.03436 1855.80261
1770.0 0.000565 499.88657 1854.46985
1803.0 0.000555 499.73923 1844.22925
1759.0 0.000569 499.59219 1826.16565
1697.0 0.000589 499.44565 1801.38586
1660.0 0.000602 499.29932 1770.77454
1686.0 0.000593 499.15356 1735.04907
1663.0 0.000601 499.00821 1694.63379
1641.0 0.000609 498.86328 1649.92834
1531.0 0.000653 498.71878 1601.26245
1473.0 0.000679 498.57462 1549.06848
1446.0 0.000692 498.43097 1494.05054
1388.0 0.000720 498.28766 1436.95325
1280.0 0.000781 498.14496 1378.77661
1291.0 0.000775 498.00256 1320.41296
1245.0 0.000803 497.86066 1262.84827
1152.0 0.000868 497.71912 1206.80994
1134.0 0.000882 497.57828 1153.01306
1073.0 0.000932 497.43774 1101.87305
1046.0 0.000956 497.29767 1053.77991
1042.0 0.000960 497.15814 1008.86627
959.0 0.001043 497.01913 967.26721
923.0 0.001083 496.88058 928.94623
864.0 0.001157 496.74249 893.80902
849.0 0.001178 496.60498 861.77673
791.0 0.001264 496.46783 832.65332
831.0 0.001203 496.33136 806.29657
805.0 0.001242 496.19522 782.48145
729.0 0.001372 496.05975 761.03918
778.0 0.001285 495.92474 741.74353
759.0 0.001318 495.79028 724.42224
748.0 0.001337 495.65637 708.86407
731.0 0.001368 495.52298 694.90753
689.0 0.001451 495.39011 682.36560
609.0 0.001642 495.25784 671.09576
642.0 0.001558 495.12610 660.94214
653.0 0.001531 494.99490 651.77655
646.0 0.001548 494.86432 643.48267
596.0 0.001678 494.73422 635.94720
622.0 0.001608 494.60477 629.08551
662.0 0.001511 494.47580 622.80652
637.0 0.001570 494.34756 617.04608
627.0 0.001595 494.21979 611.73450
647.0 0.001546 494.09268 606.82422
625.0 0.001600 493.96606 602.26270
586.0 0.001706 493.84015 598.01575
552.0 0.001812 493.71466 594.04376
596.0 0.001678 493.59000 590.32257
566.0 0.001767 493.46579 586.82349
565.0 0.001770 493.34235 583.52618
573.0 0.001745 493.21936 580.41260
534.0 0.001873 493.09702 583.03790
567.0 0.001764 492.97546 580.30286
542.0 0.001845 492.85434 577.70752
537.0 0.001862 492.73398 575.24451
590.0 0.001695 492.61414 572.90106
558.0 0.001792 492.49506 570.67181
591.0 0.001692 492.37650 568.54578
572.0 0.001748 492.25873 566.51929
575.0 0.001739 492.14148 564.58313
611.0 0.001637 492.02487 562.73407
571.0 0.001751 491.90909 560.96533
574.0 0.001742 491.79385 562.03497
548.0 0.001825 491.67926 560.44312
551.0 0.001815 491.56534 558.91840
569.0 0.001757 491.45215 557.45874
581.0 0.001721 491.33948 556.05890
579.0 0.001727 491.22772 554.71777
540.0 0.001852 491.11646 553.43018
528.0 0.001894 491.00592 552.19513
539.0 0.001855 490.89609 551.00873
545.0 0.001835 490.78696 549.86987
530.0 0.001887 490.67841 548.77496
542.0 0.001845 490.57077 547.72327
516.0 0.001938 490.46365 546.71161
566.0 0.001767 490.35727 545.73907
528.0 0.001894 490.25168 544.80377
527.0 0.001898 490.14664 543.90338
514.0 0.001946 490.04245 543.03760
531.0 0.001883 489.93887 542.20380
524.0 0.001908 489.83603 541.40179
514.0 0.001946 489.73389 540.62933
522.0 0.001916 489.63251 539.88647
479.0 0.002088 489.53186 539.17084
520.0 0.001923 489.43188 538.48242
544.0 0.001838 489.33261 537.81952
532.0 0.001880 489.23410 537.18201
502.0 0.001992 489.13635 536.56830
545.0 0.001835 489.03931 535.97821
544.0 0.001838 488.94308 535.41089
523.0 0.001912 488.84744 534.86493
524.0 0.001908 488.75262 534.34076
513.0 0.001949 488.65848 533.83685
498.0 0.002008 488.56522 533.35339
540.0 0.001852 488.47247 532.88910
528.0 0.001894 488.38068 532.44421
535.0 0.001869 488.28949 532.01758
485.0 0.002062 488.19916 531.60919
513.0 0.001949 488.10950 531.21857
527.0 0.001898 488.02060 530.84528
552.0 0.001812 487.93246 530.48883
515.0 0.001942 487.84506 530.14905
501.0 0.001996 487.75851 529.82587
478.0 0.002092 487.67258 529.51831
466.0 0.002146 487.58759 529.22681
504.0 0.001984 487.50314 528.95056
526.0 0.001901 487.41959 528.68988
508.0 0.001969 487.33679 528.44421
567.0 0.001764 487.25470 528.21332
508.0 0.001969 487.17340 527.99738
535.0 0.001869 487.09286 527.79596
513.0 0.001949 487.01303 518.19006
522.0 0.001916 486.93405 518.11627
477.0 0.002096 486.85583 518.05518
551.0 0.001815 486.77838 518.00684
576.0 0.001736 486.70163 517.97095
522.0 0.001916 486.62567 515.96863
552.0 0.001812 486.55060 515.98145
574.0 0.001742 486.47620 516.00653
528.0 0.001894 486.40253 516.04370
539.0 0.001855 486.32968 516.09344
511.0 0.001957 486.25760 516.15546
527.0 0.001898 486.18628 516.23004
487.0 0.002053 486.11581 516.31714
545.0 0.001835 486.04596 516.41687
525.0 0.001905 485.97705 516.52954
484.0 0.002066 485.90884 516.65527
528.0 0.001894 485.84140 516.79395
530.0 0.001887 485.77478 516.94611
519.0 0.001927 485.70880 517.11157
525.0 0.001905 485.64374 517.29089
487.0 0.002053 485.57941 517.48431
544.0 0.001838 485.51581 519.79877
524.0 0.001908 485.45300 520.04620
556.0 0.001799 485.39105 520.30872
524.0 0.001908 485.32974 520.58685
555.0 0.001802 485.26929 520.88074
540.0 0.001852 485.20959 521.19110
547.0 0.001828 485.15067 521.51782
529.0 0.001890 485.09250 521.86194
533.0 0.001876 485.03516 522.22321
551.0 0.001815 484.97852 522.60254
559.0 0.001789 484.92264 523.00024
527.0 0.001898 484.86765 518.77637
509.0 0.001965 484.81329 520.32959
546.0 0.001832 484.75974 520.86011
526.0 0.001901 484.70703 521.41077
532.0 0.001880 484.65500 521.98132
549.0 0.001821 484.60382 522.57343
530.0 0.001887 484.55331 523.18683
522.0 0.001916 484.50360 523.82343
508.0 0.001969 484.45462 524.48303
556.0 0.001799 484.40643 525.16736
553.0 0.001808 484.35907 525.87671
524.0 0.001908 484.31238 524.31085
526.0 0.001901 484.26657 525.10529
524.0 0.001908 484.22137 525.92700
535.0 0.001869 484.17697 526.77844
578.0 0.001730 484.13339 527.65948
582.0 0.001718 484.09052 528.57263
538.0 0.001859 484.04837 529.51807
545.0 0.001835 484.00699 530.49860
584.0 0.001712 483.96637 531.51422
547.0 0.001828 483.92648 532.56818
540.0 0.001852 483.88742 533.66071
553.0 0.001808 483.84897 534.79504
519.0 0.001927 483.81137 535.97174
531.0 0.001883 483.77441 537.19427
506.0 0.001976 483.73825 538.46332
563.0 0.001776 483.70285 539.78198
551.0 0.001815 483.66818 541.15363
539.0 0.001855 483.63422 542.57904
584.0 0.001712 483.60101 544.06293
500.0 0.002000 483.56851 545.60626
548.0 0.001825 483.53674 547.21436
551.0 0.001815 483.50568 548.88837
531.0 0.001883 483.47537 550.63428
544.0 0.001838 483.44580 552.45361
567.0 0.001764 483.41690 554.35272
570.0 0.001754 483.38873 556.33386
581.0 0.001721 483.36133 560.22260
520.0 0.001923 483.33456 562.41925
591.0 0.001692 483.30859 564.71545
579.0 0.001727 483.28323 567.11847
567.0 0.001764 483.25867 569.63220
600.0 0.001667 483.23474 572.26648
584.0 0.001712 483.21155 575.02576
611.0 0.001637 483.18900 577.92169
588.0 0.001701 483.16724 580.95984
573.0 0.001745 483.14615 584.15405
618.0 0.001618 483.12570 587.51105
597.0 0.001675 483.10596 591.04730
578.0 0.001730 483.08688 595.68457
551.0 0.001815 483.06851 599.63477
630.0 0.001587 483.05084 603.80566
595.0 0.001681 483.03378 608.21869
617.0 0.001621 483.01743 612.89844
605.0 0.001653 483.00174 617.86365
609.0 0.001642 482.98676 623.14886
685.0 0.001460 482.97238 628.77930
652.0 0.001534 482.95874 634.79883
621.0 0.001610 482.94568 641.24200
661.0 0.001513 482.93332 648.16559
784.0 0.001276 482.92160 655.61597
626.0 0.001597 482.91058 663.66589
704.0 0.001420 482.90015 672.37756
721.0 0.001387 482.89032 681.84406
705.0 0.001418 482.88123 692.14661
713.0 0.001403 482.87271 703.39880
805.0 0.001242 482.86484 715.71515
712.0 0.001404 482.85751 729.22156
733.0 0.001364 482.85092 744.07532
762.0 0.001312 482.84488 760.41589
791.0 0.001264 482.83960 778.43555
812.0 0.001232 482.83478 798.29657
822.0 0.001217 482.83066 820.22144
838.0 0.001193 482.82712 844.39111
865.0 0.001156 482.82413 871.25305
883.0 0.001133 482.82181 900.60236
984.0 0.001016 482.82004 932.89972
925.0 0.001081 482.81885 968.33313
1024.0 0.000977 482.81833 1007.15735
1134.0 0.000882 482.81836 1049.57544
1114.0 0.000898 482.81891 1095.76990
1168.0 0.000856 482.82013 1145.95935
1205.0 0.000830 482.82187 1200.22327
1206.0 0.000829 482.82416 1258.72534
1308.0 0.000765 482.82709 1321.43359
1392.0 0.000718 482.83054 1388.39026
1479.0 0.000676 482.83450 1459.48169
1479.0 0.000676 482.83908 1534.34692
1606.0 0.000623 482.84427 1612.58997
1695.0 0.000590 482.84985 1693.72290
1735.0 0.000576 482.85602 1776.84729
1824.0 0.000548 482.86282 1860.99756
1872.0 0.000534 482.87009 1944.84875
1868.0 0.000535 482.87793 2026.82739
2017.0 0.000496 482.88629 2105.24951
2164.0 0.000462 482.89511 2178.13428
2142.0 0.000467 482.90448 2243.68481
2225.0 0.000449 482.91431 2300.09106
2298.0 0.000435 482.92471 2346.01245
2294.0 0.000436 482.93561 2380.44873
2358.0 0.000424 482.94705 2403.04199
2396.0 0.000417 482.95892 2413.91113
2366.0 0.000423 482.97128 2413.68066
2201.0 0.000454 482.98413 2403.27905
2215.0 0.000451 482.99747 2383.76685
2273.0 0.000440 483.01132 2356.22534
2172.0 0.000460 483.02563 2321.57520
2263.0 0.000442 483.04041 2280.53955
2245.0 0.000445 483.05563 2233.75757
2099.0 0.000476 483.07138 2181.65942
2027.0 0.000493 483.08749 2124.78687
2062.0 0.000485 483.10410 2063.62134
1983.0 0.000504 483.12115 1998.92285
1987.0 0.000503 483.13861 1931.45007
1931.0 0.000518 483.15659 1862.25562
1791.0 0.000558 483.17496 1792.30469
1851.0 0.000540 483.19370 1722.75244
1704.0 0.000587 483.21295 1654.54016
1657.0 0.000604 483.23260 1588.69043
1591.0 0.000629 483.25262 1525.98438
1552.0 0.000644 483.27310 1467.08704
1464.0 0.000683 483.29385 1412.65234
1414.0 0.000707 483.31519 1363.08801
1434.0 0.000697 483.33685 1318.84119
1374.0 0.000728 483.35889 1280.16748
1284.0 0.000779 483.38129 1247.36365
1263.0 0.000792 483.40417 1220.58386
1265.0 0.000791 483.42740 1200.00623
1295.0 0.000772 483.45090 1185.69812
1162.0 0.000861 483.47482 1177.71301
1233.0 0.000811 483.49915 1176.01172
1227.0 0.000815 483.52377 1180.49158
1213.0 0.000824 483.54877 1190.95581
1204.0 0.000831 483.57410 1207.11865
1235.0 0.000810 483.59976 1228.54163
1198.0 0.000835 483.62579 1254.68799
1306.0 0.000766 483.65219 1284.79688
1294.0 0.000773 483.67883 1317.98499
1408.0 0.000710 483.70590 1353.08984
1375.0 0.000727 483.73318 1388.84839
1424.0 0.000702 483.76077 1423.79578
1462.0 0.000684 483.78882 1456.57324
1491.0 0.000671 483.81702 1485.94812
1527.0 0.000655 483.84561 1511.16455
1545.0 0.000647 483.87439 1531.92053
1510.0 0.000662 483.90353 1548.46753
1537.0 0.000651 483.93292 1561.40344
1520.0 0.000658 483.96265 1571.43372
1524.0 0.000656 483.99258 1579.19495
1583.0 0.000632 484.02280 1585.03674
1565.0 0.000639 484.05331 1588.97668
1596.0 0.000627 484.08401 1590.67126
1554.0 0.000644 484.11511 1589.51160
1540.0 0.000649 484.14630 1584.75598
1538.0 0.000650 484.17780 1575.70093
1544.0 0.000648 484.20950 1561.87915
1517.0 0.000659 484.24152 1543.13708
1568.0 0.000638 484.27368 1519.73230
1517.0 0.000659 484.30615 1492.20007
1481.0 0.000675 484.33878 1461.30725
1507.0 0.000664 484.37158 1427.90393
1373.0 0.000728 484.40466 1392.76660
1366.0 0.000732 484.43793 1356.63550
1358.0 0.000736 484.47134 1320.01135
1296.0 0.000772 484.50507 1283.32300
1257.0 0.000796 484.53888 1246.76501
1220.0 0.000820 484.57288 1210.51526
1185.0 0.000844 484.60709 1174.59949
1188.0 0.000842 484.64154 1139.11584
1128.0 0.000887 484.67599 1104.09265
1083.0 0.000923 484.71072 1069.68347
967.0 0.001034 484.74557 1036.00671
1033.0 0.000968 484.78061 1003.25458
1035.0 0.000966 484.81573 971.63055
945.0 0.001058 484.85107 941.29181
927.0 0.001079 484.88644 912.43854
903.0 0.001107 484.92209 885.16449
903.0 0.001107 484.95776 859.59546
858.0 0.001166 484.99359 835.75513
811.0 0.001233 485.02954 813.69659
745.0 0.001342 485.06561 793.38873
774.0 0.001292 485.10172 774.83124
790.0 0.001266 485.13809 757.95972
746.0 0.001340 485.17441 742.74030
752.0 0.001330 485.21088 729.09412
672.0 0.001488 485.24741 716.95392
694.0 0.001441 485.28403 706.24384
739.0 0.001353 485.32068 698.04535
684.0 0.001462 485.35757 689.93707
732.0 0.001366 485.39438 682.97498
729.0 0.001372 485.43127 677.06006
645.0 0.001550 485.46832 672.06720
679.0 0.001473 485.50531 667.87250
624.0 0.001603 485.54230 664.32703
671.0 0.001490 485.57944 661.27850
708.0 0.001412 485.61667 658.55542
646.0 0.001548 485.65384 655.99036
668.0 0.001497 485.69104 654.66394
648.0 0.001543 485.72830 651.96643
650.0 0.001538 485.76556 649.02936
644.0 0.001553 485.80286 648.83112
668.0 0.001497 485.84015 645.34821
631.0 0.001585 485.87747 641.61121
598.0 0.001672 485.91479 637.68353
641.0 0.001560 485.95212 633.62335
647.0 0.001546 485.98938 629.48804
617.0 0.001621 486.02670 625.30658
634.0 0.001577 486.06396 621.09772
596.0 0.001678 486.10117 616.85236
579.0 0.001727 486.13834 613.17999
629.0 0.001590 486.17560 608.83502
629.0 0.001590 486.21277 604.42932
580.0 0.001724 486.24982 599.97223
599.0 0.001669 486.28690 595.48975
595.0 0.001681 486.32388 591.02850
588.0 0.001701 486.36090 586.63098
548.0 0.001825 486.39777 582.34955
588.0 0.001701 486.43460 578.22003
605.0 0.001653 486.47137 574.27997
565.0 0.001770 486.50806 570.54755
585.0 0.001709 486.54471 567.16931
566.0 0.001767 486.58127 563.89368
531.0 0.001883 486.61774 560.85120
577.0 0.001733 486.65408 558.03448
526.0 0.001901 486.69037 555.43939
538.0 0.001859 486.72650 553.05438
538.0 0.001859 486.76260 550.86682
533.0 0.001876 486.79861 548.86615
576.0 0.001736 486.83441 547.03668
559.0 0.001789 486.87015 545.36670
533.0 0.001876 486.90579 543.84052
524.0 0.001908 486.94125 542.44641
499.0 0.002004 486.97662 541.23340
491.0 0.002037 487.01184 540.06500
530.0 0.001887 487.04697 538.99078
558.0 0.001792 487.08191 538.00214
508.0 0.001969 487.11673 537.08844
531.0 0.001883 487.15146 536.24280
550.0 0.001818 487.18594 535.45679
547.0 0.001828 487.22034 534.72479
531.0 0.001883 487.25449 534.04132
489.0 0.002045 487.28848 533.40112
542.0 0.001845 487.32242 532.80133
579.0 0.001727 487.35605 532.23749
507.0 0.001972 487.38959 531.70770
528.0 0.001894 487.42294 531.20850
556.0 0.001799 487.45609 530.73877
511.0 0.001957 487.48904 530.29614
502.0 0.001992 487.52179 529.87970
498.0 0.002008 487.55444 529.48743
481.0 0.002079 487.58670 529.11884
535.0 0.001869 487.61893 528.77258
507.0 0.001972 487.65082 528.44781
475.0 0.002105 487.68262 528.14404
512.0 0.001953 487.71420 527.85986
498.0 0.002008 487.74551 527.59552
508.0 0.001969 487.77664 527.34979
519.0 0.001927 487.80750 527.12256
539.0 0.001855 487.83817 526.91296
532.0 0.001880 487.86856 526.72107
525.0 0.001905 487.89880 526.54620
537.0 0.001862 487.92865 526.38794
518.0 0.001931 487.95847 526.24646
556.0 0.001799 487.98782 526.12115
501.0 0.001996 488.01706 526.01172
518.0 0.001931 488.04605 525.91803
532.0 0.001880 488.07474 525.84009
510.0 0.001961 488.10315 525.77747
501.0 0.001996 488.13132 525.73016
498.0 0.002008 488.15930 525.69830
527.0 0.001898 488.18692 525.68164
517.0 0.001934 488.21436 525.68018
550.0 0.001818 488.24146 525.69385
505.0 0.001980 488.26825 525.72260
537.0 0.001862 488.29483 525.76672
506.0 0.001976 488.32104 525.82605
512.0 0.001953 488.34702 525.90076
542.0 0.001845 488.37277 525.99121
556.0 0.001799 488.39816 526.09723
513.0 0.001949 488.42322 526.21906
517.0 0.001934 488.44806 526.35706
511.0 0.001957 488.47256 526.51123
516.0 0.001938 488.49677 526.68213
535.0 0.001869 488.52063 526.86957
532.0 0.001880 488.54425 527.07452
534.0 0.001873 488.56757 527.29706
534.0 0.001873 488.59055 527.53729
514.0 0.001946 488.61316 527.79565
501.0 0.001996 488.63550 528.07318
479.0 0.002088 488.65747 522.77484
534.0 0.001873 488.67917 523.14960
485.0 0.002062 488.70053 523.54346
458.0 0.002183 488.72159 523.95752
530.0 0.001887 488.74228 524.39270
531.0 0.001883 488.76254 524.84912
531.0 0.001883 488.78265 525.32825
534.0 0.001873 488.80231 525.83038
538.0 0.001859 488.82175 526.35693
514.0 0.001946 488.84067 526.90808
488.0 0.002049 488.85934 527.48596
511.0 0.001957 488.87766 528.09052
514.0 0.001946 488.89560 525.95068
553.0 0.001808 488.91318 526.64227
557.0 0.001795 488.93048 527.36493
529.0 0.001890 488.94736 528.11926
497.0 0.002012 488.96390 528.90723
514.0 0.001946 488.98013 529.73132
507.0 0.001972 488.99591 530.59216
564.0 0.001773 489.01138 531.49280
527.0 0.001898 489.02646 532.43439
522.0 0.001916 489.04123 533.42041
527.0 0.001898 489.05560 534.45209
503.0 0.001988 489.06958 535.53357
509.0 0.001965 489.08316 536.66663
525.0 0.001905 489.09644 537.85583
541.0 0.001848 489.10925 539.10358
566.0 0.001767 489.12186 540.41571
570.0 0.001754 489.13391 541.79486
514.0 0.001946 489.14566 543.24707
510.0 0.001961 489.15701 544.77911
588.0 0.001701 489.16794 546.39575
531.0 0.001883 489.17862 548.10632
531.0 0.001883 489.18872 549.91705
569.0 0.001757 489.19858 549.73804
534.0 0.001873 489.20804 551.80658
585.0 0.001709 489.21704 554.01050
577.0 0.001733 489.22565 556.36145
589.0 0.001698 489.23398 558.87885
556.0 0.001799 489.24176 561.57776
559.0 0.001789 489.24927 564.48285
576.0 0.001736 489.25632 567.61414
629.0 0.001590 489.26306 571.00128
590.0 0.001695 489.26926 574.67291
552.0 0.001812 489.27518 578.66125
607.0 0.001647 489.28064 583.00641
566.0 0.001767 489.28580 586.39697
585.0 0.001709 489.29044 591.60864
600.0 0.001667 489.29471 597.30157
608.0 0.001645 489.29865 603.53290
628.0 0.001592 489.30206 610.34717
591.0 0.001692 489.30518 617.80853
665.0 0.001504 489.30783 625.96436
632.0 0.001582 489.31006 634.88281
658.0 0.001520 489.31195 644.61084
676.0 0.001479 489.31332 655.21429
675.0 0.001481 489.31442 666.74548
685.0 0.001460 489.31503 679.25165
638.0 0.001567 489.31522 692.79102
724.0 0.001381 489.31506 707.79669
763.0 0.001311 489.31454 723.49762
816.0 0.001225 489.31354 740.29651
779.0 0.001284 489.31207 758.21271
798.0 0.001253 489.31030 777.20111
842.0 0.001188 489.30807 797.23456
874.0 0.001144 489.30539 818.20422
883.0 0.001133 489.30234 840.01257
937.0 0.001067 489.29895 862.46332
938.0 0.001066 489.29501 885.35858
917.0 0.001091 489.29074 908.42487
948.0 0.001055 489.28607 931.34753
916.0 0.001092 489.28098 953.81506
997.0 0.001003 489.27545 975.46710
934.0 0.001071 489.26953 996.03021
1046.0 0.000956 489.26321 1015.28577
1014.0 0.000986 489.25644 1033.05054
1038.0 0.000963 489.24930 1049.32947
999.0 0.001001 489.24179 1064.25378
1078.0 0.000928 489.23376 1078.02161
1081.0 0.000925 489.22537 1090.93860
1089.0 0.000918 489.21664 1103.30896
1088.0 0.000919 489.20740 1115.45850
1111.0 0.000900 489.19785 1127.64368
1103.0 0.000907 489.18777 1140.08313
1179.0 0.000848 489.17743 1152.93225
1193.0 0.000838 489.16660 1166.26685
1091.0 0.000917 489.15533 1180.15234
1182.0 0.000846 489.14377 1194.61548
1171.0 0.000854 489.13165 1209.65088
1296.0 0.000772 489.11920 1225.26831
1244.0 0.000804 489.10638 1241.48804
1234.0 0.000810 489.09311 1258.26501
1247.0 0.000802 489.07941 1275.55017
1233.0 0.000811 489.06537 1293.18335
1225.0 0.000816 489.05093 1310.96033
1267.0 0.000789 489.03607 1328.53723
1331.0 0.000751 489.02084 1345.50842
1395.0 0.000717 489.00519 1361.39099
1384.0 0.000723 488.98911 1375.62598
1381.0 0.000724 488.97263 1387.68713
1434.0 0.000697 488.95581 1397.05957
1419.0 0.000705 488.93854 1403.34558
1435.0 0.000697 488.92093 1406.25708
1443.0 0.000693 488.90289 1405.66748
1414.0 0.000707 488.88449 1401.59851
1346.0 0.000743 488.86566 1394.19653
1360.0 0.000735 488.84650 1383.71655
1393.0 0.000718 488.82690 1370.44202
1373.0 0.000728 488.80698 1354.69287
1342.0 0.000745 488.78659 1336.73816
1373.0 0.000728 488.76590 1316.79443
1330.0 0.000752 488.74481 1295.06531
1373.0 0.000728 488.72327 1271.66052
1180.0 0.000847 488.70135 1246.72668
1247.0 0.000802 488.67914 1220.35156
1205.0 0.000830 488.65646 1192.71130
1249.0 0.000801 488.63345 1163.95471
1245.0 0.000803 488.61008 1134.34363
1184.0 0.000845 488.58627 1104.10681
1080.0 0.000926 488.56223 1073.57300
1052.0 0.000951 488.53766 1043.00415
1016.0 0.000984 488.51279 1012.72949
1007.0 0.000993 488.48752 982.98901
981.0 0.001019 488.46198 954.02625
980.0 0.001020 488.43600 926.04297
955.0 0.001047 488.40970 899.16565
879.0 0.001138 488.38303 873.53833
868.0 0.001152 488.35599 849.20355
838.0 0.001193 488.32855 826.23297
844.0 0.001185 488.30081 804.61298
774.0 0.001292 488.27277 784.36292
768.0 0.001302 488.24426 765.43268
763.0 0.001311 488.21548 747.80792
732.0 0.001366 488.18634 731.41840
771.0 0.001297 488.15686 716.22906
710.0 0.001408 488.12701 702.16522
650.0 0.001538 488.09677 689.16882
696.0 0.001437 488.06631 677.17847
677.0 0.001477 488.03549 666.11890
675.0 0.001481 488.00427 655.93939
667.0 0.001499 487.97284 646.56445
625.0 0.001600 487.94092 637.94476
638.0 0.001567 487.90872 630.01147
606.0 0.001650 487.87619 622.71832
637.0 0.001570 487.84344 616.00385
644.0 0.001553 487.81030 609.82666
576.0 0.001736 487.77679 604.13281
617.0 0.001621 487.74310 598.88641
579.0 0.001727 487.70895 594.04248
578.0 0.001730 487.67453 589.56628
592.0 0.001689 487.63989 585.42566
543.0 0.001842 487.60480 581.58624
552.0 0.001812 487.56952 578.02551
600.0 0.001667 487.53391 574.71356
599.0 0.001669 487.49792 571.63232
537.0 0.001862 487.46170 568.75787
546.0 0.001832 487.42514 566.07520
531.0 0.001883 487.38831 563.56555
515.0 0.001942 487.35123 561.21710
556.0 0.001799 487.31384 559.01453
574.0 0.001742 487.27609 556.94916
537.0 0.001862 487.23813 555.00867
511.0 0.001957 487.19992 553.18573
537.0 0.001862 487.16144 551.47229
523.0 0.001912 487.12265 549.86041
508.0 0.001969 487.08356 548.34595
508.0 0.001969 487.04416 546.92200
544.0 0.001838 487.00461 545.58600
539.0 0.001855 486.96463 544.64990
554.0 0.001805 486.92453 543.48071
516.0 0.001938 486.88412 542.38867
524.0 0.001908 486.84351 541.37354
493.0 0.002028 486.80258 540.43243
549.0 0.001821 486.76144 539.56610
539.0 0.001855 486.72003 538.77325
547.0 0.001828 486.67834 538.05499
523.0 0.001912 486.63647 537.41193
531.0 0.001883 486.59433 536.84467
518.0 0.001931 486.55200 536.35565
568.0 0.001761 486.50940 535.96161
507.0 0.001972 486.46649 535.63342
561.0 0.001783 486.42343 535.38855
542.0 0.001845 486.38013 535.38831
536.0 0.001866 486.33661 535.31757
525.0 0.001905 486.29291 535.33502
579.0 0.001727 486.24893 535.44135
534.0 0.001873 486.20471 535.63715
491.0 0.002037 486.16034 535.92145
520.0 0.001923 486.11578 536.29248
492.0 0.002033 486.07095 536.74750
533.0 0.001876 486.02597 537.28247
562.0 0.001779 485.98077 537.89050
587.0 0.001704 485.93533 538.56390
550.0 0.001818 485.88980 539.29999
552.0 0.001812 485.84393 540.07123
529.0 0.001890 485.79803 540.87146
555.0 0.001802 485.75186 541.68848
546.0 0.001832 485.70551 542.51056
551.0 0.001815 485.65900 543.33313
556.0 0.001799 485.61230 544.15631
578.0 0.001730 485.56543 544.99036
554.0 0.001805 485.51840 545.85126
580.0 0.001724 485.47125 546.76343
553.0 0.001808 485.42386 547.75488
537.0 0.001862 485.37631 548.85339
536.0 0.001866 485.32864 550.08917
554.0 0.001805 485.28079 551.48682
574.0 0.001742 485.23276 553.07281
555.0 0.001802 485.18466 554.86755
564.0 0.001773 485.13635 556.89343
540.0 0.001852 485.08792 559.16925
575.0 0.001739 485.03940 561.71936
575.0 0.001739 484.99063 564.56421
611.0 0.001637 484.94180 567.73389
593.0 0.001686 484.89285 571.25299
606.0 0.001650 484.84375 576.91687
626.0 0.001597 484.79456 581.25305
608.0 0.001645 484.74524 586.02649
572.0 0.001748 484.69577 591.26605
594.0 0.001684 484.64618 596.98474
626.0 0.001597 484.59653 603.20367
579.0 0.001727 484.54675 609.92200
608.0 0.001645 484.49683 617.14691
653.0 0.001531 484.44687 624.85815
674.0 0.001484 484.39676 633.04266
684.0 0.001462 484.34659 641.65308
665.0 0.001504 484.29626 650.64612
662.0 0.001511 484.24588 659.93732
657.0 0.001522 484.19547 669.43921
694.0 0.001441 484.14496 679.91394
700.0 0.001429 484.09433 689.45496
673.0 0.001486 484.04358 698.77551
710.0 0.001408 483.99286 707.67633
705.0 0.001418 483.94199 715.96973
755.0 0.001325 483.89108 723.44794
742.0 0.001348 483.84015 729.93781
738.0 0.001355 483.78906 735.27985
736.0 0.001359 483.73804 739.37354
716.0 0.001397 483.68686 742.15924
805.0 0.001242 483.63568 743.64166
781.0 0.001280 483.58438 743.87042
742.0 0.001348 483.53311 742.93610
755.0 0.001325 483.48178 740.95160
738.0 0.001355 483.43042 738.03772
759.0 0.001318 483.37903 734.30408
687.0 0.001456 483.32758 729.85010
752.0 0.001330 483.27606 724.74408
749.0 0.001335 483.22455 719.04510
762.0 0.001312 483.17300 712.78516
690.0 0.001449 483.12146 706.00293
690.0 0.001449 483.06992 698.72491
688.0 0.001453 483.01834 691.00458
663.0 0.001508 482.96677 682.89221
657.0 0.001522 482.91510 674.47296
648.0 0.001543 482.86346 665.82574
641.0 0.001560 482.81189 657.05853
658.0 0.001520 482.76025 648.26514
639.0 0.001565 482.70862 639.53656
601.0 0.001664 482.65704 630.97015
619.0 0.001616 482.60541 622.63013
603.0 0.001658 482.55389 614.58838
589.0 0.001698 482.50226 606.88202
599.0 0.001669 482.45068 599.55463
576.0 0.001736 482.39917 592.61945
562.0 0.001779 482.34763 586.09705
586.0 0.001706 482.29614 579.98309
561.0 0.001783 482.24469 574.28235
571.0 0.001751 482.19318 568.97906
587.0 0.001704 482.14182 564.06818
595.0 0.001681 482.09048 559.53088
528.0 0.001894 482.03915 555.34723
542.0 0.001845 481.98792 551.50421
566.0 0.001767 481.93658 547.97742
521.0 0.001919 481.88547 544.75177
540.0 0.001852 481.83432 541.80310
501.0 0.001996 481.78323 539.11578
514.0 0.001946 481.73224 536.66736
562.0 0.001779 481.68121 534.44250
481.0 0.002079 481.63028 532.42126
535.0 0.001869 481.57944 530.58905
540.0 0.001852 481.52863 528.92859
549.0 0.001821 481.47803 527.42712
512.0 0.001953 481.42734 526.07007
519.0 0.001927 481.37677 524.84442
525.0 0.001905 481.32629 523.74042
536.0 0.001866 481.27585 522.74615
512.0 0.001953 481.22559 521.85413
502.0 0.001992 481.17535 521.05450
505.0 0.001980 481.12515 520.34082
531.0 0.001883 481.07513 519.70605
529.0 0.001890 481.02518 519.14490
503.0 0.001988 480.97525 518.65192
492.0 0.002033 480.92551 518.22321
502.0 0.001992 480.87585 517.85486
540.0 0.001852 480.82626 517.54370
492.0 0.002033 480.77676 517.28735
527.0 0.001898 480.72748 517.08350
472.0 0.002119 480.67822 516.93054
501.0 0.001996 480.62906 516.82709
466.0 0.002146 480.58002 516.77234
518.0 0.001931 480.53113 516.76563
488.0 0.002049 480.48233 519.90442
459.0 0.002179 480.43369 521.85083
461.0 0.002169 480.38513 522.04657
546.0 0.001832 480.33673 522.29230
501.0 0.001996 480.28848 522.58893
506.0 0.001976 480.24026 522.93805
504.0 0.001984 480.19220 523.34070
533.0 0.001876 480.14435 523.79938
487.0 0.002053 480.09662 524.31610
534.0 0.001873 480.04898 524.89374
497.0 0.002012 480.00150 525.53583
493.0 0.002028 479.95416 526.24524
469.0 0.002132 479.90698 527.02740
520.0 0.001923 479.85995 527.88623
509.0 0.001965 479.81308 528.82867
516.0 0.001938 479.76633 532.33411
562.0 0.001779 479.71967 533.49329
557.0 0.001795 479.67328 534.75922
517.0 0.001934 479.62695 536.14417
525.0 0.001905 479.58090 537.65930
497.0 0.002012 479.53488 539.32086
541.0 0.001848 479.48907 541.14587
581.0 0.001721 479.44351 543.15417
554.0 0.001805 479.39798 545.37219
566.0 0.001767 479.35278 547.82556
513.0 0.001949 479.30762 550.55054
567.0 0.001764 479.26260 553.58234
582.0 0.001718 479.21780 556.96967
558.0 0.001792 479.17325 560.75970
577.0 0.001733 479.12878 560.83331
565.0 0.001770 479.08453 565.65247
585.0 0.001709 479.04041 571.07837
642.0 0.001558 478.99655 577.18610
649.0 0.001541 478.95288 584.07037
627.0 0.001595 478.90927 591.93988
617.0 0.001621 478.86594 600.66620
641.0 0.001560 478.82278 610.47656
670.0 0.001493 478.77979 621.46570
703.0 0.001422 478.73697 633.75397
674.0 0.001484 478.69440 647.42914
707.0 0.001414 478.65198 662.60297
678.0 0.001475 478.60983 679.34070
715.0 0.001399 478.56772 697.73102
724.0 0.001381 478.52591 717.79956
777.0 0.001287 478.48431 739.59338
745.0 0.001342 478.44284 763.07660
785.0 0.001274 478.40167 788.23175
803.0 0.001245 478.36066 814.93402
826.0 0.001211 478.31985 843.10620
877.0 0.001140 478.27917 872.43628
857.0 0.001167 478.23874 902.64655
893.0 0.001120 478.19852 933.38373
944.0 0.001059 478.15857 964.11597
963.0 0.001038 478.11871 994.28088
1068.0 0.000936 478.07916 1023.14441
1079.0 0.000927 478.03979 1049.97620
1006.0 0.000994 478.00061 1073.95935
1129.0 0.000886 477.96161 1094.39111
1081.0 0.000925 477.92294 1110.65344
1140.0 0.000877 477.88437 1122.38538
1109.0 0.000902 477.84604 1129.45728
1099.0 0.000910 477.80792 1132.03296
1151.0 0.000869 477.77005 1130.49536
1078.0 0.000928 477.73236 1125.38574
1057.0 0.000946 477.69495 1117.29797
1048.0 0.000954 477.65762 1106.81580
1039.0 0.000962 477.62067 1094.40857
1070.0 0.000935 477.58383 1080.44080
1040.0 0.000962 477.54721 1065.10681
1093.0 0.000915 477.51086 1048.51233
1033.0 0.000968 477.47473 1030.63879
1048.0 0.000954 477.43878 1011.47528
941.0 0.001063 477.40305 990.98468
884.0 0.001131 477.36755 969.24335
916.0 0.001092 477.33234 946.38177
923.0 0.001083 477.29727 922.62280
903.0 0.001107 477.26251 898.30878
906.0 0.001104 477.22787 873.76556
863.0 0.001159 477.19351 849.38477
796.0 0.001256 477.15936 825.47223
816.0 0.001225 477.12543 802.34656
730.0 0.001370 477.09174 780.21161
795.0 0.001258 477.05823 759.26917
749.0 0.001335 477.02499 739.61450
772.0 0.001295 476.99188 721.34717
762.0 0.001312 476.95917 704.48291
686.0 0.001458 476.92654 689.05072
750.0 0.001333 476.89426 675.02216
709.0 0.001410 476.86203 662.37195
679.0 0.001473 476.83014 651.06238
663.0 0.001508 476.79843 641.03503
695.0 0.001439 476.76700 632.25018
631.0 0.001585 476.73575 624.64502
620.0 0.001613 476.70474 618.17902
681.0 0.001468 476.67395 612.79993
672.0 0.001488 476.64340 608.47772
623.0 0.001605 476.61307 605.18036
613.0 0.001631 476.58298 602.89667
645.0 0.001550 476.55301 601.62207
603.0 0.001658 476.52335 601.37109
630.0 0.001587 476.49396 602.17072
613.0 0.001631 476.46469 604.06384
625.0 0.001600 476.43567 607.10645
689.0 0.001451 476.40689 611.37225
664.0 0.001506 476.37836 616.93640
605.0 0.001653 476.35001 623.89435
657.0 0.001522 476.32190 632.32959
671.0 0.001490 476.29398 642.34406
703.0 0.001422 476.26624 654.01056
654.0 0.001529 476.23880 667.41730
692.0 0.001445 476.21161 682.60321
686.0 0.001458 476.18454 699.61823
720.0 0.001389 476.15771 718.44067
714.0 0.001401 476.13116 739.04828
788.0 0.001269 476.10471 761.34961
786.0 0.001272 476.07858 785.19525
771.0 0.001297 476.05261 810.40033
793.0 0.001261 476.02695 836.64795
801.0 0.001248 476.00137 863.59485
813.0 0.001230 475.97604 890.73041
903.0 0.001107 475.95096 917.50385
903.0 0.001107 475.92609 943.19714
938.0 0.001066 475.90140 967.08063
973.0 0.001028 475.87695 988.33954
931.0 0.001074 475.85263 1006.26599
957.0 0.001045 475.82852 1020.24817
1024.0 0.000977 475.80469 1029.94324
1047.0 0.000955 475.78107 1034.43787
1005.0 0.000995 475.75760 1035.60742
1028.0 0.000973 475.73438 1033.05981
960.0 0.001042 475.71127 1027.38806
998.0 0.001002 475.68842 1019.21973
1024.0 0.000977 475.66577 1009.15363
943.0 0.001060 475.64328 997.65619
995.0 0.001005 475.62106 985.07593
954.0 0.001048 475.59897 971.58118
929.0 0.001076 475.57715 957.24005
920.0 0.001087 475.55539 941.99133
879.0 0.001138 475.53394 925.76819
880.0 0.001136 475.51263 908.47980
819.0 0.001221 475.49155 889.71619
890.0 0.001124 475.47061 870.42041
903.0 0.001107 475.44989 850.34662
866.0 0.001155 475.42932 829.80212
796.0 0.001256 475.40894 809.09106
837.0 0.001195 475.38870 788.57605
743.0 0.001346 475.36871 768.54327
776.0 0.001289 475.34885 749.28210
721.0 0.001387 475.32922 730.97858
709.0 0.001410 475.30972 713.80981
662.0 0.001511 475.29037 697.86060
700.0 0.001429 475.27127 683.21527
722.0 0.001385 475.25226 669.88599
723.0 0.001383 475.23349 657.89410
676.0 0.001479 475.21487 647.21436
671.0 0.001490 475.19641 637.80902
643.0 0.001555 475.17810 629.85754
646.0 0.001548 475.15997 622.87335
592.0 0.001689 475.14191 617.01416
611.0 0.001637 475.12415 612.20782
604.0 0.001656 475.10651 608.39325
598.0 0.001672 475.08893 605.49738
625.0 0.001600 475.07159 603.45740
613.0 0.001631 475.05435 602.20618
610.0 0.001639 475.03729 601.68396
626.0 0.001597 475.02039 601.83313
634.0 0.001577 475.00366 602.60016
635.0 0.001575 474.98703 603.93707
630.0 0.001587 474.97055 605.79932
629.0 0.001590 474.95413 608.14471
705.0 0.001418 474.93799 611.18579
636.0 0.001572 474.92194 616.24207
677.0 0.001477 474.90598 619.84229
675.0 0.001481 474.89020 623.78076
695.0 0.001439 474.87445 628.02917
686.0 0.001458 474.85889 632.55121
638.0 0.001567 474.84351 637.32697
683.0 0.001464 474.82822 642.33374
710.0 0.001408 474.81302 647.57452
669.0 0.001495 474.79791 653.05743
746.0 0.001340 474.78302 658.82281
696.0 0.001437 474.76816 664.92377
752.0 0.001330 474.75345 671.43219
749.0 0.001335 474.73886 678.44110
745.0 0.001342 474.72437 686.15979
732.0 0.001366 474.70999 694.45197
763.0 0.001311 474.69568 704.39893
763.0 0.001311 474.68149 714.36700
748.0 0.001337 474.66739 725.29614
830.0 0.001205 474.65341 737.28296
833.0 0.001200 474.63953 750.39105
794.0 0.001259 474.62573 764.71240
792.0 0.001263 474.61203 780.30457
835.0 0.001198 474.59836 797.25708
871.0 0.001148 474.58484 815.64282
870.0 0.001149 474.57141 835.53253
922.0 0.001085 474.55798 857.01953
978.0 0.001022 474.54468 880.14508
978.0 0.001022 474.53146 904.99384
959.0 0.001043 474.51831 931.57367
999.0 0.001001 474.50525 959.93311
1043.0 0.000959 474.49225 990.02411
1123.0 0.000890 474.47931 1021.83514
1137.0 0.000880 474.46646 1055.23572
1049.0 0.000953 474.45361 1090.12573
1137.0 0.000880 474.44089 1126.26245
1186.0 0.000843 474.42816 1163.41150
1185.0 0.000844 474.41553 1201.21985
1225.0 0.000816 474.40295 1239.25354
1320.0 0.000758 474.39038 1277.04419
1331.0 0.000751 474.37799 1313.96582
1325.0 0.000755 474.36548 1349.42249
1330.0 0.000752 474.35309 1382.69128
1408.0 0.000710 474.34067 1413.13147
1410.0 0.000709 474.32843 1440.06506
1434.0 0.000697 474.31610 1462.96973
1473.0 0.000679 474.30386 1481.39343
1554.0 0.000644 474.29163 1495.09888
1413.0 0.000708 474.27939 1503.98853
1484.0 0.000674 474.26724 1508.16736
1465.0 0.000683 474.25507 1507.87341
1482.0 0.000675 474.24295 1503.46289
1495.0 0.000669 474.23083 1495.33972
1472.0 0.000679 474.21872 1483.93457
1440.0 0.000694 474.20667 1470.80762
1459.0 0.000685 474.19452 1453.94299
1357.0 0.000737 474.18246 1434.74756
1381.0 0.000724 474.17041 1413.42749
1340.0 0.000746 474.15836 1390.08325
1329.0 0.000752 474.14630 1364.84082
1316.0 0.000760 474.13425 1337.76343
1265.0 0.000791 474.12213 1309.00330
1257.0 0.000796 474.11005 1278.68799
1242.0 0.000805 474.09799 1247.06946
1194.0 0.000838 474.08588 1214.39673
1143.0 0.000875 474.07373 1180.95593
1133.0 0.000883 474.06161 1147.12085
1101.0 0.000908 474.04938 1113.18738
1083.0 0.000923 474.03720 1079.52185
1077.0 0.000929 474.02502 1046.97205
994.0 0.001006 474.01279 1014.65729
957.0 0.001045 474.00049 983.33966
981.0 0.001019 473.98819 953.22791
940.0 0.001064 473.97583 924.41168
909.0 0.001100 473.96344 897.01447
907.0 0.001103 473.95099 871.05542
800.0 0.001250 473.93854 846.59088
834.0 0.001199 473.92606 823.60449
820.0 0.001220 473.91348 802.06470
732.0 0.001366 473.90088 782.23907
773.0 0.001294 473.88818 763.51605
718.0 0.001393 473.87549 746.13129
753.0 0.001328 473.86264 730.00323
718.0 0.001393 473.84988 715.08813
673.0 0.001486 473.83688 701.30060
686.0 0.001458 473.82391 688.59045
664.0 0.001506 473.81088 676.87402
635.0 0.001575 473.79776 666.09906
644.0 0.001553 473.78458 656.18665
612.0 0.001634 473.77130 647.08569
606.0 0.001650 473.75797 638.72638
651.0 0.001536 473.74454 631.05377
601.0 0.001664 473.73102 622.43866
572.0 0.001748 473.71738 615.99036
611.0 0.001637 473.70374 610.37653
605.0 0.001653 473.68994 604.94672
574.0 0.001742 473.67603 599.96301
625.0 0.001600 473.66205 595.38116
515.0 0.001942 473.64801 591.17114
604.0 0.001656 473.63385 587.29535
578.0 0.001730 473.61963 583.72925
604.0 0.001656 473.60516 580.44183
558.0 0.001792 473.59070 577.41345
587.0 0.001704 473.57608 574.61938
530.0 0.001887 473.56140 572.04211
568.0 0.001761 473.54654 569.66516
538.0 0.001859 473.53165 567.47095
548.0 0.001825 473.51660 565.44934
528.0 0.001894 473.50137 563.58630
576.0 0.001736 473.48608 561.87445
543.0 0.001842 473.47064 560.30243
522.0 0.001916 473.45508 558.86505
560.0 0.001786 473.43936 557.55444
536.0 0.001866 473.42349 556.36731
543.0 0.001842 473.40756 555.29810
545.0 0.001835 473.39148 554.34534
526.0 0.001901 473.37524 553.50592
552.0 0.001812 473.35886 552.77930
556.0 0.001799 473.34232 552.16589
587.0 0.001704 473.32562 551.66608
553.0 0.001808 473.30884 551.28253
554.0 0.001805 473.29181 551.01782
570.0 0.001754 473.27475 550.87653
528.0 0.001894 473.25739 550.86340
516.0 0.001938 473.23999 550.98486
550.0 0.001818 473.22238 551.24829
523.0 0.001912 473.20465 551.66180
512.0 0.001953 473.18674 552.23499
531.0 0.001883 473.16867 552.97784
545.0 0.001835 473.15042 553.90204
571.0 0.001751 473.13202 555.01892
570.0 0.001754 473.11340 556.34143
600.0 0.001667 473.09467 557.88391
578.0 0.001730 473.07574 559.65796
508.0 0.001969 473.05661 561.67957
530.0 0.001887 473.03729 563.95984
555.0 0.001802 473.01785 566.51489
573.0 0.001745 472.99823 569.35394
541.0 0.001848 472.97839 572.49231
558.0 0.001792 472.95837 575.93573
573.0 0.001745 472.93817 579.69641
626.0 0.001597 472.91785 583.77466
510.0 0.001961 472.89722 588.17633
572.0 0.001748 472.87643 592.89294
571.0 0.001751 472.85550 597.91742
560.0 0.001786 472.83429 603.23706
604.0 0.001656 472.81293 608.82092
591.0 0.001692 472.79141 614.64337
581.0 0.001721 472.76962 620.65619
668.0 0.001497 472.74771 626.81970
583.0 0.001715 472.72552 633.07507
622.0 0.001608 472.70319 639.37988
592.0 0.001689 472.68063 645.68286
645.0 0.001550 472.65784 651.96027
645.0 0.001550 472.63483 658.19006
647.0 0.001546 472.61166 664.38306
648.0 0.001543 472.58826 670.55286
636.0 0.001572 472.56464 676.73724
668.0 0.001497 472.54071 682.97858
654.0 0.001529 472.51672 689.30621
673.0 0.001486 472.49243 695.75500
747.0 0.001339 472.46793 702.32916
723.0 0.001383 472.44324 709.03302
686.0 0.001458 472.41830 715.83868
691.0 0.001447 472.39316 722.72565
710.0 0.001408 472.36783 729.65509
720.0 0.001389 472.34222 736.61438
786.0 0.001272 472.31644 743.59222
707.0 0.001414 472.29031 750.62042
736.0 0.001359 472.26407 757.74286
771.0 0.001297 472.23758 765.04596
763.0 0.001311 472.21085 772.62695
794.0 0.001259 472.18387 780.59259
759.0 0.001318 472.15668 789.05817
771.0 0.001297 472.12927 798.10834
855.0 0.001170 472.10162 807.82758
879.0 0.001138 472.07373 818.25024
806.0 0.001241 472.04556 829.40430
807.0 0.001239 472.01724 841.25787
901.0 0.001110 471.98868 853.77521
844.0 0.001185 471.95981 866.85913
897.0 0.001115 471.93073 880.41284
887.0 0.001127 471.90140 894.27747
798.0 0.001253 471.87183 908.29346
931.0 0.001074 471.84210 922.25397
911.0 0.001098 471.81204 935.92249
942.0 0.001062 471.78177 949.05292
905.0 0.001105 471.75125 961.35077
952.0 0.001050 471.72052 972.54486
944.0 0.001059 471.68951 982.34509
952.0 0.001050 471.65829 990.51672
948.0 0.001055 471.62683 996.85400
991.0 0.001009 471.59509 1001.23785
1018.0 0.000982 471.56317 1003.61566
984.0 0.001016 471.53094 1004.02441
997.0 0.001003 471.49844 1002.56989
1026.0 0.000975 471.46576 999.41431
1050.0 0.000952 471.43280 994.75403
970.0 0.001031 471.39960 988.79694
933.0 0.001072 471.36615 981.73187
976.0 0.001025 471.33252 973.73462
889.0 0.001125 471.29858 964.92596
921.0 0.001086 471.26440 955.40906
938.0 0.001066 471.23001 945.23096
951.0 0.001052 471.19537 934.44031
961.0 0.001041 471.16040 923.04895
955.0 0.001047 471.12524 911.10260
881.0 0.001135 471.08987 898.63397
861.0 0.001161 471.05423 885.73218
859.0 0.001164 471.01834 872.48828
857.0 0.001167 470.98221 859.03717
861.0 0.001161 470.94589 845.53619
836.0 0.001196 470.90921 832.13922
873.0 0.001145 470.87238 819.03369
837.0 0.001195 470.83521 806.36951
805.0 0.001242 470.79785 794.31744
750.0 0.001333 470.76025 783.00092
801.0 0.001248 470.72247 772.55396
757.0 0.001321 470.68439 763.06360
749.0 0.001335 470.64606 754.62323
773.0 0.001294 470.60742 747.28638
777.0 0.001287 470.56866 741.11029
705.0 0.001418 470.52960 736.12213
746.0 0.001340 470.49030 732.35034
738.0 0.001355 470.45081 729.80322
704.0 0.001420 470.41101 728.48236
736.0 0.001359 470.37106 728.38257
717.0 0.001395 470.33078 729.48749
729.0 0.001372 470.29031 731.77130
776.0 0.001289 470.24963 735.20123
752.0 0.001330 470.20865 739.72748
716.0 0.001397 470.16748 745.29700
721.0 0.001387 470.12610 751.82953
720.0 0.001389 470.08441 759.24231
743.0 0.001346 470.04254 767.41553
752.0 0.001330 470.00040 776.22540
756.0 0.001323 469.95819 785.50208
823.0 0.001215 469.91559 795.12769
781.0 0.001280 469.87277 805.66302
769.0 0.001300 469.82983 815.14807
829.0 0.001206 469.78656 824.22656
832.0 0.001202 469.74310 832.62982
804.0 0.001244 469.69940 840.11859
858.0 0.001166 469.65555 846.45911
884.0 0.001131 469.61139 851.47583
899.0 0.001112 469.56711 855.03571
880.0 0.001136 469.52246 857.08087
847.0 0.001181 469.47778 857.61438
883.0 0.001133 469.43274 856.70221
863.0 0.001159 469.38751 856.71039
859.0 0.001164 469.34219 853.30109
889.0 0.001125 469.29651 848.85693
839.0 0.001192 469.25073 843.56329
777.0 0.001287 469.20465 837.48059
783.0 0.001277 469.15845 830.74817
831.0 0.001203 469.11203 823.42743
733.0 0.001364 469.06540 815.56873
741.0 0.001350 469.01846 807.18256
785.0 0.001274 468.97147 798.28766
768.0 0.001302 468.92426 788.88177
754.0 0.001326 468.87674 778.99414
732.0 0.001366 468.82916 768.64899
729.0 0.001372 468.78134 757.91608
740.0 0.001351 468.73337 743.46667
703.0 0.001422 468.68521 732.22736
711.0 0.001406 468.63684 720.88159
713.0 0.001403 468.58829 709.53180
628.0 0.001592 468.53949 698.30231
653.0 0.001531 468.49057 687.28204
658.0 0.001520 468.44150 676.57391
623.0 0.001605 468.39224 666.24023
669.0 0.001495 468.34283 656.35419
652.0 0.001534 468.29318 646.94940
609.0 0.001642 468.24341 638.06982
642.0 0.001558 468.19345 629.72559
647.0 0.001546 468.14337 621.93848
640.0 0.001563 468.09311 614.70496
585.0 0.001709 468.04266 606.27484
606.0 0.001650 467.99207 600.15808
585.0 0.001709 467.94128 594.57336
609.0 0.001642 467.89047 589.51459
571.0 0.001751 467.83939 584.96082
601.0 0.001664 467.78824 580.90234
595.0 0.001681 467.73688 577.31830
567.0 0.001764 467.68539 574.19763
581.0 0.001721 467.63376 571.52130
622.0 0.001608 467.58206 569.27814
539.0 0.001855 467.53015 567.45166
582.0 0.001718 467.47812 566.03223
561.0 0.001783 467.42599 565.00720
573.0 0.001745 467.37372 564.36713
570.0 0.001754 467.32132 564.10376
586.0 0.001706 467.26880 564.20990
579.0 0.001727 467.21619 564.67963
585.0 0.001709 467.16339 565.50916
563.0 0.001776 467.11050 566.69354
575.0 0.001739 467.05756 568.23199
609.0 0.001642 467.00449 570.12036
588.0 0.001701 466.95126 572.35950
587.0 0.001704 466.89795 574.94543
585.0 0.001709 466.84457 577.87976
611.0 0.001637 466.79114 581.15668
658.0 0.001520 466.73749 584.77704
603.0 0.001658 466.68384 588.73169
630.0 0.001587 466.63013 593.01587
617.0 0.001621 466.57629 597.62238
631.0 0.001585 466.52237 602.53186
632.0 0.001582 466.46841 607.73206
633.0 0.001580 466.41431 613.19189
643.0 0.001555 466.36011 618.88708
626.0 0.001597 466.30597 624.77130
622.0 0.001608 466.25165 630.80334
665.0 0.001504 466.19733 636.91748
685.0 0.001460 466.14297 643.05261
654.0 0.001529 466.08853 649.12274
667.0 0.001499 466.03403 655.04724
687.0 0.001456 465.97949 660.72449
685.0 0.001460 465.92490 666.05975
677.0 0.001477 465.87027 670.95807
675.0 0.001481 465.81558 675.32135
703.0 0.001422 465.76086 678.85913
783.0 0.001277 465.70618 681.93396
685.0 0.001460 465.65143 684.28766
701.0 0.001427 465.59665 685.89581
716.0 0.001397 465.54178 686.76160
695.0 0.001439 465.48700 686.90656
722.0 0.001385 465.43210 686.37061
703.0 0.001422 465.37726 685.52051
715.0 0.001399 465.32245 683.78723
675.0 0.001481 465.26758 681.54230
712.0 0.001404 465.21277 678.83911
710.0 0.001408 465.15787 675.72211
694.0 0.001441 465.10309 672.23303
702.0 0.001425 465.04816 668.39648
669.0 0.001495 464.99335 663.99213
667.0 0.001499 464.93857 659.52802
699.0 0.001431 464.88376 654.77539
684.0 0.001462 464.82901 649.74597
693.0 0.001443 464.77429 644.46698
637.0 0.001570 464.71960 639.47638
623.0 0.001605 464.66492 633.78656
677.0 0.001477 464.61029 627.94287
623.0 0.001605 464.55579 621.99738
605.0 0.001653 464.50125 616.14935
592.0 0.001689 464.44678 610.13696
597.0 0.001675 464.39236 604.16418
602.0 0.001661 464.33798 598.26886
607.0 0.001647 464.28372 592.49731
563.0 0.001776 464.22946 586.87555
644.0 0.001553 464.17535 581.43860
591.0 0.001692 464.12128 576.20105
542.0 0.001845 464.06726 571.18604
561.0 0.001783 464.01331 566.39874
544.0 0.001838 463.95956 561.85205
574.0 0.001742 463.90573 557.54370
530.0 0.001887 463.85214 553.73706
496.0 0.002016 463.79858 549.91290
539.0 0.001855 463.74515 546.32373
498.0 0.002008 463.69180 542.96429
547.0 0.001828 463.63858 539.82465
513.0 0.001949 463.58548 536.90039
553.0 0.001808 463.53244 534.17932
509.0 0.001965 463.47961 531.65564
535.0 0.001869 463.42682 529.31702
473.0 0.002114 463.37418 527.15674
524.0 0.001908 463.32172 525.16272
543.0 0.001842 463.26935 523.32825
522.0 0.001916 463.21719 521.64203
497.0 0.002012 463.16510 520.09711
517.0 0.001934 463.11316 518.68359
511.0 0.001957 463.06143 517.39410
527.0 0.001898 463.00983 516.22101
515.0 0.001942 462.95840 515.15613
537.0 0.001862 462.90717 514.19385
507.0 0.001972 462.85605 513.32678
506.0 0.001976 462.80508 512.54993
480.0 0.002083 462.75433 511.85672
490.0 0.002041 462.70383 511.24332
510.0 0.001961 462.65338 510.70413
524.0 0.001908 462.60324 510.23587
491.0 0.002037 462.55322 509.83429
515.0 0.001942 462.50342 509.49643
486.0 0.002058 462.45380 507.31351
506.0 0.001976 462.40439 507.11423
513.0 0.001949 462.35532 506.97095
527.0 0.001898 462.30624 506.88171
477.0 0.002096 462.25757 506.84558
486.0 0.002058 462.20901 506.86130
501.0 0.001996 462.16071 506.92828
534.0 0.001873 462.11264 507.04648
512.0 0.001953 462.06488 507.21542
511.0 0.001957 462.01724 507.43579
497.0 0.002012 461.96988 507.70871
488.0 0.002049 461.92279 508.03403
502.0 0.001992 461.87589 508.41403
498.0 0.002008 461.82932 508.84982
484.0 0.002066 461.78293 509.34409
507.0 0.001972 461.73688 509.02350
501.0 0.001996 461.69113 509.64893
517.0 0.001934 461.64557 510.33881
546.0 0.001832 461.60025 511.09772
539.0 0.001855 461.55533 511.92624
493.0 0.002028 461.51050 512.83044
521.0 0.001919 461.46613 513.81293
519.0 0.001927 461.42206 514.87628
508.0 0.001969 461.37820 516.02716
490.0 0.002041 461.33466 517.26758
513.0 0.001949 461.29138 518.60449
493.0 0.002028 461.24847 520.03802
495.0 0.002020 461.20590 521.57739
529.0 0.001890 461.16354 523.22449
530.0 0.001887 461.12155 524.98712
519.0 0.001927 461.07990 526.86469
557.0 0.001795 461.03854 528.86774
517.0 0.001934 460.99756 530.99731
534.0 0.001873 460.95685 533.26239
545.0 0.001835 460.91650 535.65973
516.0 0.001938 460.87650 538.19922
561.0 0.001783 460.83685 540.88641
544.0 0.001838 460.79755 543.71558
544.0 0.001838 460.75858 546.69818
595.0 0.001681 460.72000 549.83081
540.0 0.001852 460.68173 553.12183
557.0 0.001795 460.64389 556.56360
550.0 0.001818 460.60632 560.17096
535.0 0.001869 460.56924 563.94440
593.0 0.001686 460.53238 567.90131
559.0 0.001789 460.49603 572.04468
569.0 0.001757 460.46005 576.40771
567.0 0.001764 460.42438 581.01202
578.0 0.001730 460.38922 585.88379
612.0 0.001634 460.35434 591.07214
643.0 0.001555 460.31995 596.60895
645.0 0.001550 460.28583 602.54810
585.0 0.001709 460.25226 608.91541
611.0 0.001637 460.21896 615.77448
622.0 0.001608 460.18616 621.97174
607.0 0.001647 460.15372 629.94281
652.0 0.001534 460.12177 638.50458
638.0 0.001567 460.09021 647.71820
686.0 0.001458 460.05905 657.59998
733.0 0.001364 460.02826 668.19891
681.0 0.001468 459.99802 679.50909
710.0 0.001408 459.96817 691.58130
715.0 0.001399 459.93869 704.44641
756.0 0.001323 459.90979 718.08130
703.0 0.001422 459.88123 732.53864
761.0 0.001314 459.85309 747.79712
748.0 0.001337 459.82544 763.88074
823.0 0.001215 459.79828 780.72198
861.0 0.001161 459.77155 798.33984
849.0 0.001178 459.74527 816.05975
855.0 0.001170 459.71945 835.03278
855.0 0.001170 459.69415 854.50372
927.0 0.001079 459.66928 874.40601
921.0 0.001086 459.64487 894.54535
928.0 0.001078 459.62088 914.76868
935.0 0.001070 459.59747 934.79138
943.0 0.001060 459.57452 954.41046
990.0 0.001010 459.55200 973.35956
962.0 0.001040 459.53003 991.28815
977.0 0.001024 459.50845 1007.95575
1002.0 0.000998 459.48749 1023.04547
1068.0 0.000936 459.46698 1036.32642
999.0 0.001001 459.44696 1047.54700
1110.0 0.000901 459.42746 1056.59119
1040.0 0.000962 459.40845 1063.35522
1049.0 0.000953 459.38989 1067.83716
1118.0 0.000894 459.37195 1070.08179
1071.0 0.000934 459.35446 1070.21191
1081.0 0.000925 459.33743 1068.38232
1086.0 0.000921 459.32104 1064.78259
1057.0 0.000946 459.30511 1059.59436
1027.0 0.000974 459.28967 1053.00854
1060.0 0.000943 459.27478 1045.17322
1064.0 0.000940 459.26044 1036.24585
1022.0 0.000978 459.24661 1026.30103
1002.0 0.000998 459.23331 1015.42932
1047.0 0.000955 459.22055 1003.66028
964.0 0.001037 459.20831 991.06940
1010.0 0.000990 459.19666 977.65448
997.0 0.001003 459.18549 963.48334
922.0 0.001085 459.17487 948.58936
975.0 0.001026 459.16486 933.10004
907.0 0.001103 459.15530 917.08179
938.0 0.001066 459.14633 900.64764
926.0 0.001080 459.13794 883.98999
871.0 0.001148 459.13010 867.20758
867.0 0.001153 459.12283 850.48480
919.0 0.001088 459.11606 833.94031
853.0 0.001172 459.10986 817.76459
824.0 0.001214 459.10428 802.03351
812.0 0.001232 459.09921 786.88647
803.0 0.001245 459.09476 772.38824
786.0 0.001272 459.09082 758.65765
767.0 0.001304 459.08749 746.07611
723.0 0.001383 459.08472 733.97382
693.0 0.001443 459.08249 722.75543
682.0 0.001466 459.08090 712.41010
713.0 0.001403 459.07983 702.96332
702.0 0.001425 459.07932 694.39435
711.0 0.001406 459.07947 686.71722
693.0 0.001443 459.08017 679.88800
688.0 0.001453 459.08148 673.89423
696.0 0.001437 459.08328 668.69305
725.0 0.001379 459.08569 664.26135
615.0 0.001626 459.08875 660.53949
685.0 0.001460 459.09235 657.48309
646.0 0.001548 459.09659 655.02808
654.0 0.001529 459.10135 653.11444
602.0 0.001661 459.10675 651.66284
665.0 0.001504 459.11276 650.59174
614.0 0.001629 459.11926 649.99982
664.0 0.001506 459.12653 649.42810
724.0 0.001381 459.13425 648.96783
694.0 0.001441 459.14258 648.53082
650.0 0.001538 459.15158 648.04077
658.0 0.001520 459.16110 647.43231
681.0 0.001468 459.17133 646.66266
625.0 0.001600 459.18210 645.70746
662.0 0.001511 459.19339 644.56946
689.0 0.001451 459.20538 643.26453
655.0 0.001527 459.21799 641.82892
702.0 0.001425 459.23114 640.30933
671.0 0.001490 459.24493 638.75098
652.0 0.001534 459.25928 637.20398
621.0 0.001610 459.27429 635.70728
624.0 0.001603 459.28989 634.29834
647.0 0.001546 459.30612 632.99622
637.0 0.001570 459.32291 631.81592
674.0 0.001484 459.34033 630.76056
658.0 0.001520 459.35834 629.83246
626.0 0.001597 459.37695 629.02435
634.0 0.001577 459.39624 628.33478
598.0 0.001672 459.41611 627.76196
623.0 0.001605 459.43649 627.31219
631.0 0.001585 459.45758 626.99500
609.0 0.001642 459.47931 626.82623
610.0 0.001639 459.50156 626.82526
675.0 0.001481 459.52448 627.01221
663.0 0.001508 459.54794 627.40436
639.0 0.001565 459.57208 628.01532
640.0 0.001563 459.59683 628.84796
630.0 0.001587 459.62216 629.89941
633.0 0.001580 459.64810 631.15198
656.0 0.001524 459.67468 632.57965
659.0 0.001517 459.70181 634.13812
607.0 0.001647 459.72955 635.78021
617.0 0.001621 459.75790 637.44153
639.0 0.001565 459.78690 639.05591
642.0 0.001558 459.81647 640.54468
625.0 0.001600 459.84668 641.83710
653.0 0.001531 459.87747 642.86279
619.0 0.001616 459.90887 643.55640
611.0 0.001637 459.94092 643.87024
640.0 0.001563 459.97348 643.76941
633.0 0.001580 460.00674 643.23663
631.0 0.001585 460.04050 642.27496
643.0 0.001555 460.07492 640.89862
646.0 0.001548 460.10992 639.13910
638.0 0.001567 460.14563 637.03088
600.0 0.001667 460.18176 634.62225
677.0 0.001477 460.21860 631.94720
628.0 0.001592 460.25601 629.04510
623.0 0.001605 460.29404 625.95020
613.0 0.001631 460.33261 622.07574
644.0 0.001553 460.37180 618.64838
633.0 0.001580 460.41162 615.06299
644.0 0.001553 460.45197 611.33307
564.0 0.001773 460.49295 607.44745
620.0 0.001613 460.53452 603.41364
601.0 0.001664 460.57669 599.22778
612.0 0.001634 460.61938 596.53955
611.0 0.001637 460.66269 592.10889
594.0 0.001684 460.70657 587.57751
549.0 0.001821 460.75110 582.96381
573.0 0.001745 460.79608 578.31146
577.0 0.001733 460.84171 573.64197
551.0 0.001815 460.88800 568.98535
594.0 0.001684 460.93472 564.38800
557.0 0.001795 460.98209 559.56415
553.0 0.001808 461.03003 555.15277
556.0 0.001799 461.07858 553.15906
551.0 0.001815 461.12759 549.04364
503.0 0.001988 461.17719 545.08337
554.0 0.001805 461.22742 541.29596
496.0 0.002016 461.27820 537.68109
526.0 0.001901 461.32944 534.25330
495.0 0.002020 461.38135 531.00305
561.0 0.001783 461.43384 527.93359
509.0 0.001965 461.48676 525.86523
530.0 0.001887 461.54031 523.15521
526.0 0.001901 461.59439 520.61560
513.0 0.001949 461.64908 518.23615
504.0 0.001984 461.70416 516.01721
493.0 0.002028 461.75995 513.94537
514.0 0.001946 461.81616 512.01697
558.0 0.001792 461.87299 510.22141
527.0 0.001898 461.93033 508.55695
491.0 0.002037 461.98816 507.01074
507.0 0.001972 462.04660 506.73148
524.0 0.001908 462.10556 505.41351
513.0 0.001949 462.16492 504.19736
478.0 0.002092 462.22491 503.07330
465.0 0.002151 462.28543 502.03442
550.0 0.001818 462.34634 501.07791
479.0 0.002088 462.40790 500.19501
520.0 0.001923 462.46991 499.38190
507.0 0.001972 462.53253 498.63226
545.0 0.001835 462.59549 497.94324
528.0 0.001894 462.65909 497.30862
513.0 0.001949 462.72311 496.72534
501.0 0.001996 462.78769 496.18832
505.0 0.001980 462.85269 495.69601
487.0 0.002053 462.91821 495.24338
463.0 0.002160 462.98428 494.82843
514.0 0.001946 463.05072 494.44852
499.0 0.002004 463.11771 494.10062
473.0 0.002114 463.18512 493.72058
505.0 0.001980 463.25314 493.43149
468.0 0.002137 463.32147 493.16928
513.0 0.001949 463.39044 493.39175
466.0 0.002146 463.45972 493.18106
450.0 0.002222 463.52963 492.99240
514.0 0.001946 463.59982 492.82474
500.0 0.002000 463.67053 492.67679
465.0 0.002151 463.74170 492.54785
524.0 0.001908 463.81335 492.43692
479.0 0.002088 463.88538 492.34344
486.0 0.002058 463.95786 492.26666
516.0 0.001938 464.03082 492.20605
496.0 0.002016 464.10419 492.16122
488.0 0.002049 464.17801 492.13144
464.0 0.002155 464.25217 492.11655
471.0 0.002123 464.32693 492.11618
514.0 0.001946 464.40192 492.12997
461.0 0.002169 464.47748 492.15781
490.0 0.002041 464.55334 492.19934
455.0 0.002198 464.62970 492.25455
493.0 0.002028 464.70642 492.55414
514.0 0.001946 464.78348 492.63803
511.0 0.001957 464.86102 492.73541
474.0 0.002110 464.93896 492.84622
500.0 0.002000 465.01718 492.97006
458.0 0.002183 465.09592 493.10760
507.0 0.001972 465.17499 493.25876
470.0 0.002128 465.25433 493.42322
460.0 0.002174 465.33420 493.60181
484.0 0.002066 465.41434 493.79431
509.0 0.001965 465.49496 494.00140
557.0 0.001795 465.57584 494.22263
535.0 0.001869 465.65714 494.45917
501.0 0.001996 465.73874 494.71103
469.0 0.002132 465.82074 494.97913
468.0 0.002137 465.90292 495.26306
500.0 0.002000 465.98563 495.56470
504.0 0.001984 466.06866 495.88412
487.0 0.002053 466.15186 496.22195
486.0 0.002058 466.23553 496.57983
505.0 0.001980 466.31952 496.95847
474.0 0.002110 466.40387 497.35953
467.0 0.002141 466.48840 497.81873
511.0 0.001957 466.57333 498.26822
495.0 0.002020 466.65851 498.74405
487.0 0.002053 466.74411 499.24915
493.0 0.002028 466.82983 499.78391
488.0 0.002049 466.91602 500.35239
481.0 0.002079 467.00235 500.95609
521.0 0.001919 467.08908 501.59882
504.0 0.001984 467.17596 502.28198
511.0 0.001957 467.26321 503.01025
514.0 0.001946 467.35074 503.78781
496.0 0.002016 467.43842 504.61621
472.0 0.002119 467.52652 505.50211
478.0 0.002092 467.61472 506.44821
474.0 0.002110 467.70337 507.46121
472.0 0.002119 467.79205 508.54263
521.0 0.001919 467.88116 509.70087
490.0 0.002041 467.97034 510.95697
542.0 0.001845 468.05994 512.28363
511.0 0.001957 468.14957 513.69958
515.0 0.001942 468.23950 515.21497
502.0 0.001992 468.32971 516.83356
529.0 0.001890 468.42004 518.55902
480.0 0.002083 468.51059 520.40076
492.0 0.002033 468.60144 522.36115
542.0 0.001845 468.69247 524.44855
530.0 0.001887 468.78360 526.66125
512.0 0.001953 468.87503 529.01001
555.0 0.001802 468.96652 531.49353
535.0 0.001869 469.05844 534.12000
561.0 0.001783 469.15027 536.88184
573.0 0.001745 469.24234 539.78845
536.0 0.001866 469.33463 542.83331
560.0 0.001786 469.42709 546.01904
564.0 0.001773 469.51962 549.33081
559.0 0.001789 469.61230 552.76880
604.0 0.001656 469.70529 556.32489
545.0 0.001835 469.79825 559.97412
596.0 0.001678 469.89139 563.70923
556.0 0.001799 469.98471 567.50140
559.0 0.001789 470.07825 571.33020
540.0 0.001852 470.17169 575.15210
609.0 0.001642 470.26538 578.94208
572.0 0.001748 470.35913 582.65259
554.0 0.001805 470.45316 586.24640
583.0 0.001715 470.54706 589.66711
611.0 0.001637 470.64124 592.88043
598.0 0.001672 470.73547 595.83978
558.0 0.001792 470.82962 598.50531
542.0 0.001845 470.92407 600.85474
618.0 0.001618 471.01846 602.86456
605.0 0.001653 471.11310 604.52991
575.0 0.001739 471.20761 605.84949
568.0 0.001761 471.30231 606.84131
593.0 0.001686 471.39697 607.52545
584.0 0.001712 471.49188 607.93182
608.0 0.001645 471.58661 608.09149
532.0 0.001880 471.68158 608.03790
554.0 0.001805 471.77646 607.80194
559.0 0.001789 471.87155 607.41022
621.0 0.001610 471.96643 606.88641
574.0 0.001742 472.06149 606.24603
580.0 0.001724 472.15659 605.50177
568.0 0.001761 472.25153 601.91150
562.0 0.001779 472.34668 601.00177
620.0 0.001613 472.44174 600.00464
581.0 0.001721 472.53693 598.92291
591.0 0.001692 472.63193 597.76648
562.0 0.001779 472.72702 596.54108
600.0 0.001667 472.82208 595.26239
581.0 0.001721 472.91727 593.94574
603.0 0.001658 473.01221 592.61572
570.0 0.001754 473.10730 591.29279
555.0 0.001802 473.20224 590.00464
556.0 0.001799 473.29730 588.77594
572.0 0.001748 473.39215 587.63678
561.0 0.001783 473.48700 586.60992
558.0 0.001792 473.58191 585.71960
573.0 0.001745 473.67661 584.99097
543.0 0.001842 473.77136 584.44232
601.0 0.001664 473.86597 584.09454
526.0 0.001901 473.96069 583.96484
574.0 0.001742 474.05508 584.07025
584.0 0.001712 474.14963 584.42737
532.0 0.001880 474.24393 585.05115
603.0 0.001658 474.33832 585.95935
574.0 0.001742 474.43246 587.16510
542.0 0.001845 474.52658 588.68872
584.0 0.001712 474.62061 590.54706
547.0 0.001828 474.71445 592.75610
591.0 0.001692 474.80829 595.34210
608.0 0.001645 474.90201 598.32220
577.0 0.001733 474.99561 601.72589
580.0 0.001724 475.08896 605.56726
603.0 0.001658 475.18234 609.88416
590.0 0.001695 475.27551 614.69653
674.0 0.001484 475.36871 620.04309
620.0 0.001613 475.46158 625.93671
617.0 0.001621 475.55435 632.42596
652.0 0.001534 475.64700 639.53027
651.0 0.001536 475.73959 647.29474
682.0 0.001466 475.83188 655.72589
693.0 0.001443 475.92401 664.87329
717.0 0.001395 476.01614 674.77350
653.0 0.001531 476.10794 685.47736
662.0 0.001511 476.19962 696.93085
664.0 0.001506 476.29114 709.18921
710.0 0.001408 476.38257 722.29272
766.0 0.001305 476.47360 736.21094
783.0 0.001277 476.56461 750.99103
799.0 0.001252 476.65533 765.98828
768.0 0.001302 476.74609 782.45496
803.0 0.001245 476.83636 799.69440
796.0 0.001256 476.92661 817.72150
822.0 0.001217 477.01660 836.46039
833.0 0.001200 477.10626 855.81360
870.0 0.001149 477.19583 875.73383
888.0 0.001126 477.28513 896.06494
922.0 0.001085 477.37430 916.69916
944.0 0.001059 477.46313 937.39996
1060.0 0.000943 477.55176 958.03241
902.0 0.001109 477.64026 978.33795
1000.0 0.001000 477.72845 998.14417
996.0 0.001004 477.81631 1017.09338
1033.0 0.000968 477.90408 1035.03772
1077.0 0.000929 477.99149 1051.73047
1111.0 0.000900 478.07883 1066.77087
1081.0 0.000925 478.16565 1080.50952
1044.0 0.000958 478.25229 1092.66760
1120.0 0.000893 478.33884 1103.26233
1151.0 0.000869 478.42487 1114.00134
1059.0 0.000944 478.51083 1121.75879
1143.0 0.000875 478.59637 1128.34802
1169.0 0.000855 478.68179 1133.99890
1155.0 0.000866 478.76678 1138.92480
1174.0 0.000852 478.85162 1143.36597
1066.0 0.000938 478.93607 1147.51843
1122.0 0.000891 479.02039 1151.56458
1198.0 0.000835 479.10413 1155.62952
1178.0 0.000849 479.18784 1159.82666
1127.0 0.000887 479.27109 1164.21460
1172.0 0.000853 479.35425 1168.83777
1245.0 0.000803 479.43686 1173.69678
1096.0 0.000912 479.51923 1178.80750
1184.0 0.000845 479.60141 1184.17517
1155.0 0.000866 479.68311 1189.78979
1232.0 0.000812 479.76456 1195.68677
1216.0 0.000822 479.84570 1201.88403
1218.0 0.000821 479.92657 1209.26099
1254.0 0.000797 480.00699 1216.19287
1255.0 0.000797 480.08716 1223.55908
1254.0 0.000797 480.16693 1231.37109
1226.0 0.000816 480.24658 1239.64563
1249.0 0.000801 480.32562 1248.32593
1303.0 0.000767 480.40448 1257.36987
1213.0 0.000824 480.48300 1266.65515
1266.0 0.000790 480.56104 1276.01611
1255.0 0.000797 480.63885 1285.28198
1228.0 0.000814 480.71625 1294.20764
1327.0 0.000754 480.79340 1302.55835
1353.0 0.000739 480.87006 1310.04712
1333.0 0.000750 480.94647 1316.44141
1357.0 0.000737 481.02246 1321.49353
1268.0 0.000789 481.09814 1325.53528
1349.0 0.000741 481.17337 1327.36914
1383.0 0.000723 481.24829 1327.43372
1366.0 0.000732 481.32285 1325.70605
1258.0 0.000795 481.39703 1322.22217
1305.0 0.000766 481.47076 1317.09131
1303.0 0.000767 481.54416 1310.44397
1296.0 0.000772 481.61725 1302.44153
1309.0 0.000764 481.68988 1293.29126
1296.0 0.000772 481.76221 1283.14441
1300.0 0.000769 481.83411 1272.18140
1321.0 0.000757 481.90564 1260.51794
1271.0 0.000787 481.97665 1248.29688
1244.0 0.000804 482.04745 1235.55432
1256.0 0.000796 482.11774 1222.35828
1301.0 0.000769 482.18781 1208.70508
1255.0 0.000797 482.25726 1194.64270
1236.0 0.000809 482.32645 1180.12842
1178.0 0.000849 482.39523 1165.18274
1163.0 0.000860 482.46347 1150.10388
1247.0 0.000802 482.53143 1134.36340
1198.0 0.000835 482.59897 1118.30566
1145.0 0.000873 482.66614 1101.97632
1139.0 0.000878 482.73285 1085.52002
1105.0 0.000905 482.79919 1068.99365
1083.0 0.000923 482.86511 1052.54260
1143.0 0.000875 482.93063 1036.25110
1097.0 0.000912 482.99564 1020.27747
1070.0 0.000935 483.06036 1004.66724
1097.0 0.000912 483.12460 989.52826
1037.0 0.000964 483.18851 974.89124
997.0 0.001003 483.25183 960.83807
928.0 0.001078 483.31479 947.34760
1028.0 0.000973 483.37747 934.40826
959.0 0.001043 483.43954 922.03510
947.0 0.001056 483.50128 910.15094
959.0 0.001043 483.56259 898.72888
929.0 0.001076 483.62350 887.69141
975.0 0.001026 483.68390 877.01489
908.0 0.001101 483.74393 868.00537
915.0 0.001093 483.80356 857.85504
879.0 0.001138 483.86276 847.89233
879.0 0.001138 483.92142 838.12097
838.0 0.001193 483.97974 828.49664
887.0 0.001127 484.03763 819.02838
936.0 0.001068 484.09500 809.73315
860.0 0.001163 484.15201 800.59973
833.0 0.001200 484.20859 791.65979
827.0 0.001209 484.26477 782.91040
798.0 0.001253 484.32040 774.38916
812.0 0.001232 484.37570 766.07507
744.0 0.001344 484.43048 757.98291
765.0 0.001307 484.48492 750.09076
792.0 0.001263 484.53885 742.40924
738.0 0.001355 484.59235 734.89661
748.0 0.001337 484.64542 727.54633
733.0 0.001364 484.69812 720.32367
752.0 0.001330 484.75021 713.23065
749.0 0.001335 484.80191 706.93237
749.0 0.001335 484.85330 700.02130
743.0 0.001346 484.90411 693.20642
735.0 0.001361 484.95456 686.46838
717.0 0.001395 485.00452 679.82568
718.0 0.001393 485.05414 673.27777
652.0 0.001534 485.10315 666.86023
688.0 0.001453 485.15186 660.56952
699.0 0.001431 485.20007 654.43585
647.0 0.001546 485.24783 648.46478
650.0 0.001538 485.29517 642.69110
670.0 0.001493 485.34207 637.10956
654.0 0.001529 485.38852 631.74231
612.0 0.001634 485.43454 626.58759
653.0 0.001531 485.48004 621.66699
605.0 0.001653 485.52515 616.97101
639.0 0.001565 485.56989 612.49829
676.0 0.001479 485.61404 608.26160
619.0 0.001616 485.65790 604.24500
591.0 0.001692 485.70117 600.45203
599.0 0.001669 485.74417 596.87122
624.0 0.001603 485.78656 593.50714
630.0 0.001587 485.82864 590.34344
589.0 0.001698 485.87021 587.37872
599.0 0.001669 485.91135 584.60083
585.0 0.001709 485.95206 582.01105
598.0 0.001672 485.99231 579.59351
606.0 0.001650 486.03217 577.34436
589.0 0.001698 486.07150 575.25916
555.0 0.001802 486.11047 573.32526
564.0 0.001773 486.14896 571.53992
553.0 0.001808 486.18707 569.89307
554.0 0.001805 486.22464 568.38342
561.0 0.001783 486.26187 567.00000
570.0 0.001754 486.29861 565.74011
612.0 0.001634 486.33496 564.59619
567.0 0.001764 486.37082 563.56653
562.0 0.001779 486.40631 562.64331
555.0 0.001802 486.44131 561.82440
541.0 0.001848 486.47595 561.10443
555.0 0.001802 486.51010 560.48254
563.0 0.001776 486.54382 559.95428
582.0 0.001718 486.57709 559.51733
602.0 0.001661 486.60999 559.17120
579.0 0.001727 486.64236 558.91357
578.0 0.001730 486.67438 558.37836
618.0 0.001618 486.70596 558.30139
575.0 0.001739 486.73709 558.31390
523.0 0.001912 486.76782 558.41748
554.0 0.001805 486.79816 558.61420
579.0 0.001727 486.82803 558.90790
585.0 0.001709 486.85742 559.30212
570.0 0.001754 486.88647 559.80316
564.0 0.001773 486.91513 560.41730
557.0 0.001795 486.94327 561.15112
574.0 0.001742 486.97104 562.01593
581.0 0.001721 486.99835 563.02124
555.0 0.001802 487.02536 564.18127
509.0 0.001965 487.05182 565.50671
496.0 0.002016 487.07794 567.01801
572.0 0.001748 487.10361 568.73053
579.0 0.001727 487.12891 570.66833
583.0 0.001715 487.15372 572.66455
564.0 0.001773 487.17816 575.11877
594.0 0.001684 487.20221 577.86914
587.0 0.001704 487.22583 580.94995
562.0 0.001779 487.24902 584.38342
608.0 0.001645 487.27182 588.21051
572.0 0.001748 487.29425 592.47009
563.0 0.001776 487.31619 597.18512
653.0 0.001531 487.33780 602.40784
616.0 0.001623 487.35895 608.16730
560.0 0.001786 487.37979 614.51331
614.0 0.001629 487.40009 621.46387
626.0 0.001597 487.42007 629.07751
666.0 0.001502 487.43967 637.37549
617.0 0.001621 487.45883 646.40698
588.0 0.001701 487.47763 656.17303
645.0 0.001550 487.49597 666.72723
633.0 0.001580 487.51398 678.07806
666.0 0.001502 487.53156 690.22284
657.0 0.001522 487.54874 703.19672
706.0 0.001416 487.56555 716.97217
697.0 0.001435 487.58200 731.56067
703.0 0.001422 487.59796 746.88843
746.0 0.001340 487.61362 762.95972
711.0 0.001406 487.62888 779.68524
748.0 0.001337 487.64377 797.01642
818.0 0.001222 487.65823 814.79559
840.0 0.001190 487.67236 832.94775
821.0 0.001218 487.68607 851.28101
810.0 0.001235 487.69940 869.63971
859.0 0.001164 487.71234 887.74677
852.0 0.001174 487.72488 905.40833
903.0 0.001107 487.73709 922.32782
869.0 0.001151 487.74893 938.19720
938.0 0.001066 487.76031 952.76514
938.0 0.001066 487.77139 965.72784
939.0 0.001065 487.78214 976.86621
951.0 0.001052 487.79239 985.95856
936.0 0.001068 487.80237 992.91443
1009.0 0.000991 487.81189 997.67633
1018.0 0.000982 487.82117 1000.28888
999.0 0.001001 487.82999 1000.85730
955.0 0.001047 487.83847 999.55743
985.0 0.001015 487.84656 996.60272
967.0 0.001034 487.85428 992.22028
953.0 0.001049 487.86166 986.65808
902.0 0.001109 487.86868 980.12042
916.0 0.001092 487.87527 972.78534
917.0 0.001091 487.88159 964.82172
889.0 0.001125 487.88751 956.30707
851.0 0.001175 487.89304 947.31598
902.0 0.001109 487.89832 937.85199
913.0 0.001095 487.90311 927.93542
818.0 0.001222 487.90759 917.50671
915.0 0.001093 487.91174 906.54791
890.0 0.001124 487.91556 895.00586
824.0 0.001214 487.91898 882.90015
852.0 0.001174 487.92206 870.20178
837.0 0.001195 487.92474 856.96210
744.0 0.001344 487.92715 843.26575
824.0 0.001214 487.92917 829.17163
842.0 0.001188 487.93082 813.67688
798.0 0.001253 487.93213 799.18256
821.0 0.001218 487.93311 784.70154
695.0 0.001439 487.93375 770.31354
706.0 0.001416 487.93402 756.75500
707.0 0.001414 487.93396 742.91589
768.0 0.001302 487.93350 729.51392
740.0 0.001351 487.93277 716.57593
677.0 0.001477 487.93167 704.17969
653.0 0.001531 487.93024 692.34052
683.0 0.001464 487.92844 681.12115
673.0 0.001486 487.92630 670.50720
641.0 0.001560 487.92383 660.49988
611.0 0.001637 487.92105 651.12787
639.0 0.001565 487.91791 642.35394
627.0 0.001595 487.91437 634.18219
566.0 0.001767 487.91055 626.58173
609.0 0.001642 487.90634 619.55585
612.0 0.001634 487.90186 613.27643
558.0 0.001792 487.89697 607.30261
593.0 0.001686 487.89178 602.05664
562.0 0.001779 487.88632 597.04370
561.0 0.001783 487.88040 592.46393
587.0 0.001704 487.87424 588.59412
551.0 0.001815 487.86771 584.82202
586.0 0.001706 487.86081 581.40723
585.0 0.001709 487.85364 578.33148
578.0 0.001730 487.84613 575.56586
573.0 0.001745 487.83826 573.09589
569.0 0.001757 487.82999 570.89191
552.0 0.001812 487.82150 568.93866
572.0 0.001748 487.81262 567.21332
526.0 0.001901 487.80341 565.70422
548.0 0.001825 487.79388 564.39063
560.0 0.001786 487.78400 563.26044
546.0 0.001832 487.77377 562.29956
559.0 0.001789 487.76328 561.49915
556.0 0.001799 487.75238 560.84717
573.0 0.001745 487.74115 560.44373
524.0 0.001908 487.72964 560.06696
543.0 0.001842 487.71771 559.81683
588.0 0.001701 487.70554 559.68958
551.0 0.001815 487.69299 559.68121
549.0 0.001821 487.68008 559.78900
527.0 0.001898 487.66687 560.01166
563.0 0.001776 487.65332 560.34784
552.0 0.001812 487.63943 560.79846
588.0 0.001701 487.62521 561.36255
589.0 0.001698 487.61066 562.04315
580.0 0.001724 487.59579 562.84186
544.0 0.001838 487.58057 563.76019
554.0 0.001805 487.56500 564.80334
557.0 0.001795 487.54910 565.97321
543.0 0.001842 487.53284 567.27594
564.0 0.001773 487.51630 568.71185
546.0 0.001832 487.49933 570.28979
530.0 0.001887 487.48209 572.01227
549.0 0.001821 487.46451 573.88733
578.0 0.001730 487.44656 575.91473
597.0 0.001675 487.42825 578.10559
605.0 0.001653 487.40964 580.46167
568.0 0.001761 487.39069 582.99298
596.0 0.001678 487.37140 585.69720
581.0 0.001721 487.35178 585.72809
571.0 0.001751 487.33176 588.82861
577.0 0.001733 487.31143 592.11707
598.0 0.001672 487.29074 595.60577
610.0 0.001639 487.26974 599.29199
602.0 0.001661 487.24832 603.18549
643.0 0.001555 487.22662 607.27643
600.0 0.001667 487.20453 611.57782
612.0 0.001634 487.18213 616.08142
638.0 0.001567 487.15936 620.79376
629.0 0.001590 487.13620 625.69617
605.0 0.001653 487.11270 630.79718
618.0 0.001618 487.08890 636.07898
615.0 0.001626 487.06470 641.53943
655.0 0.001527 487.04019 647.14697
675.0 0.001481 487.01526 652.89636
638.0 0.001567 486.98999 658.76959
659.0 0.001517 486.96439 664.72253
744.0 0.001344 486.93845 669.59595
712.0 0.001404 486.91205 675.65216
707.0 0.001414 486.88528 681.70996
695.0 0.001439 486.85828 687.71472
726.0 0.001377 486.83081 693.64911
774.0 0.001292 486.80301 699.46808
743.0 0.001346 486.77484 705.15210
716.0 0.001397 486.74631 710.65863
743.0 0.001346 486.71735 715.98712
707.0 0.001414 486.68808 721.12207
744.0 0.001344 486.65845 726.05817
792.0 0.001263 486.62839 730.81860
794.0 0.001259 486.59793 735.41467
759.0 0.001318 486.56711 739.88422
781.0 0.001280 486.53595 744.25012
808.0 0.001238 486.50439 748.56732
800.0 0.001250 486.47247 752.87256
790.0 0.001266 486.44006 757.21893
805.0 0.001242 486.40741 761.63721
775.0 0.001290 486.37427 766.18188
759.0 0.001318 486.34073 770.88141
824.0 0.001214 486.30685 775.31342
859.0 0.001164 486.27258 780.41809
811.0 0.001233 486.23788 785.76178
819.0 0.001221 486.20279 791.36365
851.0 0.001175 486.16733 797.21722
830.0 0.001205 486.13144 803.34753
845.0 0.001183 486.09512 809.74780
814.0 0.001229 486.05838 816.43134
871.0 0.001148 486.02136 823.37695
847.0 0.001181 485.98380 830.60193
858.0 0.001166 485.94592 838.08679
821.0 0.001218 485.90750 845.83459
887.0 0.001127 485.86877 853.80444
873.0 0.001145 485.82962 861.99719
927.0 0.001079 485.79004 870.36987
943.0 0.001060 485.75003 878.86774
884.0 0.001131 485.70966 887.45605
926.0 0.001080 485.66876 896.04919
955.0 0.001047 485.62744 904.33160
943.0 0.001060 485.58582 912.68085
893.0 0.001120 485.54361 920.76483
942.0 0.001062 485.50110 928.45233
941.0 0.001063 485.45810 935.63623
969.0 0.001032 485.41461 942.17365
985.0 0.001015 485.37073 947.96869
996.0 0.001004 485.32642 952.90533
984.0 0.001016 485.28162 956.90259
1025.0 0.000976 485.23645 959.88147
981.0 0.001019 485.19083 961.80786
1021.0 0.000979 485.14471 962.66431
983.0 0.001017 485.09818 962.45911
1014.0 0.000986 485.05115 961.22754
985.0 0.001015 485.00372 959.02606
968.0 0.001033 484.95572 955.92102
998.0 0.001002 484.90741 952.00342
967.0 0.001034 484.85852 947.34631
913.0 0.001095 484.80927 942.04016
945.0 0.001058 484.75943 936.15039
1010.0 0.000990 484.70923 929.76147
967.0 0.001034 484.65851 922.90729
922.0 0.001085 484.60730 915.64075
993.0 0.001007 484.55563 907.97571
870.0 0.001149 484.50354 899.95361
870.0 0.001149 484.45096 891.56500
858.0 0.001166 484.39783 882.80902
876.0 0.001142 484.34430 873.71747
872.0 0.001147 484.29025 864.26971
865.0 0.001156 484.23572 854.49530
813.0 0.001230 484.18060 844.39642
748.0 0.001337 484.12515 834.03375
798.0 0.001253 484.06912 823.41339
808.0 0.001238 484.01263 812.60168
809.0 0.001236 483.95557 802.21155
768.0 0.001302 483.89810 791.17902
782.0 0.001279 483.84009 780.10596
797.0 0.001255 483.78159 769.06683
796.0 0.001256 483.72263 758.13318
771.0 0.001297 483.66312 747.33270
730.0 0.001370 483.60309 736.73499
747.0 0.001339 483.54251 726.36450
717.0 0.001395 483.48157 716.29028
724.0 0.001381 483.41998 706.51184
653.0 0.001531 483.35794 697.07239
711.0 0.001406 483.29526 687.97357
702.0 0.001425 483.23224 679.25677
631.0 0.001585 483.16855 670.90338
629.0 0.001590 483.10443 662.93384
639.0 0.001565 483.03973 655.33496
671.0 0.001490 482.97458 648.12775
608.0 0.001645 482.90887 641.28937
666.0 0.001502 482.84259 634.81012
586.0 0.001706 482.77582 628.70190
631.0 0.001585 482.70856 622.93573
610.0 0.001639 482.64069 617.80463
590.0 0.001695 482.57227 612.70636
604.0 0.001656 482.50345 607.93469
577.0 0.001733 482.43396 603.46271
624.0 0.001603 482.36398 599.28735
584.0 0.001712 482.29340 595.38940
583.0 0.001715 482.22238 591.76947
622.0 0.001608 482.15073 588.40442
601.0 0.001664 482.07858 585.28809
589.0 0.001698 482.00595 582.41357
625.0 0.001600 481.93268 579.76355
581.0 0.001721 481.85892 577.33392
603.0 0.001658 481.78455 575.11169
575.0 0.001739 481.70972 573.09540
597.0 0.001675 481.63434 571.27136
495.0 0.002020 481.55832 569.63660
575.0 0.001739 481.48175 568.18262
552.0 0.001812 481.40475 566.85315
580.0 0.001724 481.32709 565.75171
563.0 0.001776 481.24893 564.82117
564.0 0.001773 481.17014 564.05792
534.0 0.001873 481.09091 563.46265
570.0 0.001754 481.01111 563.03308
564.0 0.001773 480.93060 562.76971
588.0 0.001701 480.84976 562.67456
582.0 0.001718 480.76822 562.74945
574.0 0.001742 480.68622 562.99713
581.0 0.001721 480.60352 563.42194
533.0 0.001876 480.52042 564.02710
589.0 0.001698 480.43674 564.81952
550.0 0.001818 480.35245 565.80328
581.0 0.001721 480.26758 566.98743
619.0 0.001616 480.18228 568.37433
589.0 0.001698 480.09625 569.97601
603.0 0.001658 480.00980 571.79797
579.0 0.001727 479.92276 572.04633
556.0 0.001799 479.83514 574.34827
558.0 0.001792 479.74704 576.89215
538.0 0.001859 479.65829 579.69092
576.0 0.001736 479.56909 582.74268
595.0 0.001681 479.47931 586.06335
557.0 0.001795 479.38901 589.65277
555.0 0.001802 479.29797 593.52295
633.0 0.001580 479.20663 597.66528
610.0 0.001639 479.11462 602.09424
588.0 0.001701 479.02216 606.80225
583.0 0.001715 478.92902 611.79572
621.0 0.001610 478.83545 617.05432
600.0 0.001667 478.74130 622.58258
637.0 0.001570 478.64658 628.37347
643.0 0.001555 478.55136 634.39319
618.0 0.001618 478.45560 640.64185
631.0 0.001585 478.35931 647.08459
620.0 0.001613 478.26239 653.70667
665.0 0.001504 478.16519 660.45715
694.0 0.001441 478.06726 667.32343
697.0 0.001435 477.96890 674.25763
692.0 0.001445 477.86981 681.23615
718.0 0.001393 477.77048 688.20038
700.0 0.001429 477.67047 695.13593
725.0 0.001379 477.56998 701.99420
791.0 0.001264 477.46896 708.75360
748.0 0.001337 477.36749 715.35974
726.0 0.001377 477.26547 721.79596
758.0 0.001319 477.16290 728.03278
763.0 0.001311 477.05997 734.01660
733.0 0.001364 476.95639 739.73181
794.0 0.001259 476.85239 745.13263
776.0 0.001289 476.74780 750.19519
764.0 0.001309 476.64294 754.87360
742.0 0.001348 476.53741 759.15631
777.0 0.001287 476.43152 763.01544
749.0 0.001335 476.32492 766.44690
756.0 0.001323 476.21814 769.43896
752.0 0.001330 476.11072 772.01013
734.0 0.001362 476.00281 774.17413
754.0 0.001326 475.89465 775.95581
750.0 0.001333 475.78586 777.39166
727.0 0.001376 475.67673 778.51532
786.0 0.001272 475.56699 779.36603
754.0 0.001326 475.45691 779.97766
765.0 0.001307 475.34634 780.38464
793.0 0.001261 475.23541 780.61224
768.0 0.001302 475.12393 780.67944
749.0 0.001335 475.01224 780.59521
759.0 0.001318 474.89999 780.35944
782.0 0.001279 474.78738 779.96216
759.0 0.001318 474.67416 779.38379
726.0 0.001377 474.56085 778.60004
763.0 0.001311 474.44705 777.57703
796.0 0.001256 474.33270 776.27814
778.0 0.001285 474.21820 774.67218
737.0 0.001357 474.10315 772.72052
753.0 0.001328 473.98788 770.39789
759.0 0.001318 473.87204 767.67749
783.0 0.001277 473.75604 764.55536
780.0 0.001282 473.63962 761.01910
721.0 0.001387 473.52283 757.08258
735.0 0.001361 473.40567 752.75598
681.0 0.001468 473.28833 748.08044
815.0 0.001227 473.17053 743.07684
751.0 0.001332 473.05243 737.79211
696.0 0.001437 472.93417 732.27905
703.0 0.001422 472.81543 726.57025
691.0 0.001447 472.69650 720.72284
709.0 0.001410 472.57709 714.76929
749.0 0.001335 472.45770 708.76746
725.0 0.001379 472.33783 702.73193
731.0 0.001368 472.21783 696.70166
675.0 0.001481 472.09741 690.68555
701.0 0.001427 471.97690 684.71570
684.0 0.001462 471.85614 678.78217
642.0 0.001558 471.73505 672.89819
659.0 0.001517 471.61374 667.05231
701.0 0.001427 471.49243 661.25867
707.0 0.001414 471.37076 655.49847
600.0 0.001667 471.24884 649.76410
642.0 0.001558 471.12695 644.06964
634.0 0.001577 471.00467 638.39740
655.0 0.001527 470.88239 632.75964
612.0 0.001634 470.75970 627.15125
579.0 0.001727 470.63721 621.59784
648.0 0.001543 470.51440 616.09290
579.0 0.001727 470.39154 610.65887
614.0 0.001629 470.26837 605.29999
580.0 0.001724 470.14539 600.04669
547.0 0.001828 470.02213 594.89691
588.0 0.001701 469.89877 590.33514
592.0 0.001689 469.77554 585.45337
560.0 0.001786 469.65210 580.71088
541.0 0.001848 469.52875 576.12524
512.0 0.001953 469.40506 571.69403
601.0 0.001664 469.28165 567.43604
595.0 0.001681 469.15802 563.34076
538.0 0.001859 469.03455 559.41736
546.0 0.001832 468.91089 555.65857
527.0 0.001898 468.78745 552.07446
538.0 0.001859 468.66400 548.65155
531.0 0.001883 468.54059 545.39301
489.0 0.002045 468.41708 542.28900
547.0 0.001828 468.29385 539.34473
531.0 0.001883 468.17062 536.54584
538.0 0.001859 468.04742 533.89111
532.0 0.001880 467.92453 531.37811
531.0 0.001883 467.80157 528.99493
532.0 0.001880 467.67886 526.74091
517.0 0.001934 467.55612 524.60602
521.0 0.001919 467.43372 522.59143
518.0 0.001931 467.31137 520.91803
515.0 0.001942 467.18930 519.12024
510.0 0.001961 467.06726 517.42090
515.0 0.001942 466.94571 515.81970
544.0 0.001838 466.82419 514.30676
510.0 0.001961 466.70300 512.88000
507.0 0.001972 466.58185 511.53265
500.0 0.002000 466.46127 510.26407
505.0 0.001980 466.34088 509.06693
530.0 0.001887 466.22058 507.93649
492.0 0.002033 466.10089 506.87256
499.0 0.002004 465.98135 505.86810
477.0 0.002096 465.86227 504.92166
497.0 0.002012 465.74335 504.02808
538.0 0.001859 465.62500 503.18723
539.0 0.001855 465.50687 502.39365
505.0 0.001980 465.38922 501.64609
527.0 0.001898 465.27191 500.94089
473.0 0.002114 465.15524 500.27783
516.0 0.001938 465.03882 499.65274
505.0 0.001980 464.92288 499.06454
536.0 0.001866 464.80759 498.51205
507.0 0.001972 464.69257 497.99225
488.0 0.002049 464.57819 497.50491
454.0 0.002203 464.46411 497.04761
501.0 0.001996 464.35089 496.62070
496.0 0.002016 464.23804 496.22171
488.0 0.002049 464.12582 495.85059
511.0 0.001957 464.01407 495.50586
441.0 0.002268 463.90308 495.18768
496.0 0.002016 463.79260 494.89474
481.0 0.002079 463.68283 494.62708
499.0 0.002004 463.57361 494.73227
519.0 0.001927 463.46527 494.51718
519.0 0.001927 463.35742 494.32629
476.0 0.002101 463.25027 494.15991
487.0 0.002053 463.14401 494.01859
495.0 0.002020 463.03827 493.90195
506.0 0.001976 462.93344 493.81076
520.0 0.001923 462.82919 493.22336
495.0 0.002020 462.72598 493.18829
493.0 0.002028 462.62338 493.63803
516.0 0.001938 462.52173 493.66153
489.0 0.002045 462.42075 493.71429
509.0 0.001965 462.32083 493.79733
493.0 0.002028 462.22168 493.91235
482.0 0.002075 462.12335 494.06061
502.0 0.001992 462.02603 494.24368
495.0 0.002020 461.92966 494.46436
480.0 0.002083 461.83411 494.72379
544.0 0.001838 461.73953 495.02554
531.0 0.001883 461.64606 495.37064
522.0 0.001916 461.55344 495.76334
550.0 0.001818 461.46185 496.20584
514.0 0.001946 461.37125 496.87802
479.0 0.002088 461.28186 497.43222
508.0 0.001969 461.19342 498.04807
468.0 0.002137 461.10608 498.72852
476.0 0.002101 461.01978 499.21783
487.0 0.002053 460.93469 500.04306
526.0 0.001901 460.85074 500.94772
480.0 0.002083 460.76782 501.93747
497.0 0.002012 460.68619 503.01450
506.0 0.001976 460.60568 504.41779
511.0 0.001957 460.52640 505.69217
522.0 0.001916 460.44827 507.07455
529.0 0.001890 460.37152 508.56628
545.0 0.001835 460.29590 510.17789
566.0 0.001767 460.22162 511.91245
547.0 0.001828 460.14853 513.77948
538.0 0.001859 460.07693 515.77875
547.0 0.001828 460.00653 517.92218
485.0 0.002062 459.93747 520.21307
498.0 0.002008 459.86987 522.65344
527.0 0.001898 459.80359 525.25439
489.0 0.002045 459.73871 528.01581
519.0 0.001927 459.67517 532.33594
496.0 0.002016 459.61319 535.43976
504.0 0.001984 459.55255 537.32251
606.0 0.001650 459.49347 540.78375
510.0 0.001961 459.43576 544.42316
572.0 0.001748 459.37964 548.22864
594.0 0.001684 459.32498 552.20953
545.0 0.001835 459.27191 556.35455
589.0 0.001698 459.22034 560.66510
556.0 0.001799 459.17041 565.11896
592.0 0.001689 459.12204 569.71893
536.0 0.001866 459.07523 574.44440
578.0 0.001730 459.03012 579.27148
576.0 0.001736 458.98660 584.19025
558.0 0.001792 458.94470 589.16534
604.0 0.001656 458.90445 594.17572
590.0 0.001695 458.86597 599.17010
583.0 0.001715 458.82910 604.12469
594.0 0.001684 458.79404 608.98639
591.0 0.001692 458.76062 613.71674
575.0 0.001739 458.72900 618.65240
630.0 0.001587 458.69913 622.25800
605.0 0.001653 458.67108 626.97650
637.0 0.001570 458.64474 630.67017
615.0 0.001626 458.62033 633.97729
592.0 0.001689 458.59766 636.87006
631.0 0.001585 458.57684 639.32043
680.0 0.001471 458.55792 641.30261
597.0 0.001675 458.54083 642.81525
623.0 0.001605 458.52563 643.85730
645.0 0.001550 458.51233 644.44366
686.0 0.001458 458.50098 644.59454
637.0 0.001570 458.49152 644.33954
659.0 0.001517 458.48401 643.71277
658.0 0.001520 458.47849 642.74933
611.0 0.001637 458.47491 641.48901
619.0 0.001616 458.47330 639.96393
611.0 0.001637 458.47375 638.20715
621.0 0.001610 458.47614 636.24860
616.0 0.001623 458.48062 634.10529
650.0 0.001538 458.48706 631.79785
594.0 0.001684 458.49564 629.53284
600.0 0.001667 458.50626 626.92694
642.0 0.001558 458.51895 624.17279
639.0 0.001565 458.53372 621.27576
614.0 0.001629 458.55060 618.22986
666.0 0.001502 458.56955 615.04407
651.0 0.001536 458.59064 611.71002
623.0 0.001605 458.61389 608.27863
598.0 0.001672 458.63931 604.66895
573.0 0.001745 458.66684 600.94342
603.0 0.001658 458.69650 597.10809
605.0 0.001653 458.72845 593.17798
556.0 0.001799 458.76248 589.18591
570.0 0.001754 458.79877 585.14209
568.0 0.001761 458.83728 581.07788
549.0 0.001821 458.87799 577.00940
587.0 0.001704 458.92093 572.97241
589.0 0.001698 458.96609 568.97607
569.0 0.001757 459.01352 565.04822
578.0 0.001730 459.06317 561.19934
546.0 0.001832 459.11511 557.45648
562.0 0.001779 459.16928 553.82123
558.0 0.001792 459.22577 550.30902
535.0 0.001869 459.28452 546.93237
556.0 0.001799 459.34555 543.68933
569.0 0.001757 459.40887 540.59045
567.0 0.001764 459.47461 537.63324
537.0 0.001862 459.54248 534.82770
511.0 0.001957 459.61279 532.16577
551.0 0.001815 459.68539 529.67194
511.0 0.001957 459.76035 527.29901
522.0 0.001916 459.83759 525.07257
523.0 0.001912 459.91724 522.98248
502.0 0.001992 459.99911 521.02960
537.0 0.001862 460.08347 519.20667
500.0 0.002000 460.17007 517.51526
517.0 0.001934 460.25903 515.94702
505.0 0.001980 460.35046 514.49701
538.0 0.001859 460.44406 513.16559
551.0 0.001815 460.54019 511.94434
522.0 0.001916 460.63861 510.83142
510.0 0.001961 460.73953 509.82089
478.0 0.002092 460.84256 508.91168
517.0 0.001934 460.94815 508.09732
485.0 0.002062 461.05603 507.37585
553.0 0.001808 461.16638 506.74255
526.0 0.001901 461.27896 506.19638
523.0 0.001912 461.39404 505.73233
496.0 0.002016 461.51138 505.34906
513.0 0.001949 461.63129 505.04343
561.0 0.001783 461.75327 504.81451
516.0 0.001938 461.87775 504.65976
548.0 0.001825 462.00470 504.57819
499.0 0.002004 462.13373 504.56857
497.0 0.002012 462.26538 504.63077
562.0 0.001779 462.39923 504.76395
534.0 0.001873 462.53564 504.96887
530.0 0.001887 462.67413 505.24515
484.0 0.002066 462.81512 505.59433
550.0 0.001818 462.95834 506.01730
554.0 0.001805 463.10419 506.51630
530.0 0.001887 463.25198 507.09167
548.0 0.001825 463.40231 507.74747
524.0 0.001908 463.55493 508.48563
508.0 0.001969 463.70969 509.30789
547.0 0.001828 463.86694 510.21954
524.0 0.001908 464.02637 511.22250
522.0 0.001916 464.18826 512.32239
504.0 0.001984 464.35217 513.51965
522.0 0.001916 464.51862 514.82196
524.0 0.001908 464.68710 516.23114
534.0 0.001873 464.85806 517.75421
464.0 0.002155 465.03098 519.39081
495.0 0.002020 465.20627 521.14984
543.0 0.001842 465.38370 523.03259
561.0 0.001783 465.56363 525.04681
548.0 0.001825 465.74533 527.19000
574.0 0.001742 465.92935 529.47040
528.0 0.001894 466.11578 531.89355
559.0 0.001789 466.30402 534.45416
540.0 0.001852 466.49460 537.70148
527.0 0.001898 466.68726 540.55792
548.0 0.001825 466.88214 543.56451
542.0 0.001845 467.07889 546.71228
540.0 0.001852 467.27795 550.00958
551.0 0.001815 467.47891 553.44806
571.0 0.001751 467.68219 557.02985
538.0 0.001859 467.88718 560.73883
546.0 0.001832 468.09430 564.57861
551.0 0.001815 468.30356 568.53485
583.0 0.001715 468.51450 572.59064
581.0 0.001721 468.72757 576.74036
597.0 0.001675 468.94250 580.95929
610.0 0.001639 469.15973 585.23389
601.0 0.001664 469.37839 589.52618
522.0 0.001916 469.59912 593.82178
570.0 0.001754 469.82175 598.08173
588.0 0.001701 470.04636 602.28021
603.0 0.001658 470.27246 606.36932
610.0 0.001639 470.50067 610.32520
585.0 0.001709 470.73044 614.10425
600.0 0.001667 470.96228 617.67932
668.0 0.001497 471.19547 621.01001
622.0 0.001608 471.43042 624.35052
648.0 0.001543 471.66742 626.15558
676.0 0.001479 471.90567 628.66089
666.0 0.001502 472.14572 630.87830
613.0 0.001631 472.38727 632.81244
632.0 0.001582 472.63083 634.48450
659.0 0.001517 472.87543 635.91510
625.0 0.001600 473.12180 637.14111
597.0 0.001675 473.36966 638.19739
658.0 0.001520 473.61914 639.12543
678.0 0.001475 473.86972 639.96283
633.0 0.001580 474.12213 640.75287
663.0 0.001508 474.37573 641.53137
659.0 0.001517 474.63052 642.33191
636.0 0.001572 474.88696 643.18585
630.0 0.001587 475.14453 644.11707
646.0 0.001548 475.40369 645.14722
619.0 0.001616 475.66367 646.28900
617.0 0.001621 475.92502 647.55688
666.0 0.001502 476.18747 648.95679
646.0 0.001548 476.45151 650.49738
636.0 0.001572 476.71613 651.68079
651.0 0.001536 476.98209 653.51068
628.0 0.001592 477.24908 655.48694
673.0 0.001486 477.51724 657.61621
676.0 0.001479 477.78604 659.89600
650.0 0.001538 478.05591 662.33539
604.0 0.001656 478.32706 664.94049
640.0 0.001563 478.59860 667.70660
692.0 0.001445 478.87140 670.64386
640.0 0.001563 479.14474 673.74591
616.0 0.001623 479.41928 677.01306
642.0 0.001558 479.69388 680.42499
670.0 0.001493 479.96973 683.97540
669.0 0.001495 480.24597 687.63409
683.0 0.001464 480.52332 691.37726
681.0 0.001468 480.80066 695.15521
678.0 0.001475 481.07889 698.96472
742.0 0.001348 481.35757 703.92316
746.0 0.001340 481.63693 707.56116
718.0 0.001393 481.91635 711.04144
733.0 0.001364 482.19629 714.32635
750.0 0.001333 482.47699 717.37860
639.0 0.001565 482.75751 720.15936
706.0 0.001416 483.03870 722.65894
737.0 0.001357 483.31989 724.86481
720.0 0.001389 483.60172 726.78461
685.0 0.001460 483.88306 728.42310
717.0 0.001395 484.16504 729.80371
658.0 0.001520 484.44681 730.94366
777.0 0.001287 484.72910 731.86584
708.0 0.001412 485.01083 732.58740
718.0 0.001393 485.29282 733.12811
695.0 0.001439 485.57486 733.50177
696.0 0.001437 485.85641 733.72064
696.0 0.001437 486.13806 733.79486
689.0 0.001451 486.41940 733.73291
717.0 0.001395 486.70087 733.54163
732.0 0.001366 486.98151 733.22870
783.0 0.001277 487.26230 732.80011
736.0 0.001359 487.54242 732.27771
780.0 0.001282 487.82239 732.25671
700.0 0.001429 488.10150 731.53168
741.0 0.001350 488.38058 730.72455
680.0 0.001471 488.65881 729.84985
749.0 0.001335 488.93686 728.92218
689.0 0.001451 489.21378 727.96234
726.0 0.001377 489.49017 726.98907
723.0 0.001383 489.76620 726.02386
728.0 0.001374 490.04099 725.09192
716.0 0.001397 490.31525 724.21198
671.0 0.001490 490.58853 723.40497
686.0 0.001458 490.86136 722.68665
746.0 0.001340 491.13272 722.07135
679.0 0.001473 491.40335 721.56665
723.0 0.001383 491.67300 721.17950
723.0 0.001383 491.94171 720.91138
724.0 0.001381 492.20898 720.76239
742.0 0.001348 492.47549 720.90295
745.0 0.001342 492.74063 720.97925
764.0 0.001309 493.00433 721.15668
727.0 0.001376 493.26715 721.42499
731.0 0.001368 493.52838 721.77039
716.0 0.001397 493.78867 722.17786
718.0 0.001393 494.04703 722.62787
724.0 0.001381 494.30423 723.10040
738.0 0.001355 494.55981 723.57141
761.0 0.001314 494.81424 724.01672
725.0 0.001379 495.06662 724.40912
709.0 0.001410 495.31760 724.72424
738.0 0.001355 495.56699 724.93787
733.0 0.001364 495.81479 725.02881
757.0 0.001321 496.06049 724.98047
756.0 0.001323 496.30466 724.78204
725.0 0.001379 496.54715 724.42706
691.0 0.001447 496.78745 723.91864
721.0 0.001387 497.02615 723.26331
733.0 0.001364 497.26276 722.47626
680.0 0.001471 497.49768 721.57495
705.0 0.001418 497.73013 720.58582
735.0 0.001361 497.96078 719.53113
655.0 0.001527 498.18924 718.43994
727.0 0.001376 498.41589 717.33698
748.0 0.001337 498.63998 716.33936
745.0 0.001342 498.86206 716.17987
703.0 0.001422 499.08197 715.19281
708.0 0.001412 499.29929 714.28101
715.0 0.001399 499.51456 713.45483
758.0 0.001319 499.72736 712.72681
745.0 0.001342 499.93808 712.10315
728.0 0.001374 500.14600 711.59119
702.0 0.001425 500.35168 711.19391
682.0 0.001466 500.55478 710.91663
710.0 0.001408 500.75558 710.76392
769.0 0.001300 500.95352 710.74237
744.0 0.001344 501.14896 710.86017
707.0 0.001414 501.34177 711.12866
703.0 0.001422 501.53220 711.56195
662.0 0.001511 501.71954 712.17633
664.0 0.001506 501.90427 712.99225
713.0 0.001403 502.08655 714.03326
750.0 0.001333 502.26575 715.32001
784.0 0.001276 502.44229 716.88129
758.0 0.001319 502.61591 718.74030
712.0 0.001404 502.78693 720.92627
724.0 0.001381 502.95474 723.45648
749.0 0.001335 503.11990 726.36163
722.0 0.001385 503.28198 729.65778
727.0 0.001376 503.44131 733.81836
801.0 0.001248 503.59732 737.95404
760.0 0.001316 503.75061 742.53583
762.0 0.001312 503.90076 747.56659
758.0 0.001319 504.04807 753.06305
775.0 0.001290 504.19205 759.01190
785.0 0.001274 504.33298 765.42725
773.0 0.001294 504.47104 772.31079
775.0 0.001290 504.60571 779.63379
798.0 0.001253 504.73740 787.40631
845.0 0.001183 504.86584 795.59717
736.0 0.001359 504.99133 804.20038
808.0 0.001238 505.11337 813.16052
853.0 0.001172 505.23236 822.47058
869.0 0.001151 505.34808 832.07220
858.0 0.001166 505.46078 841.93384
879.0 0.001138 505.56992 851.96820
901.0 0.001110 505.67606 862.14044
899.0 0.001112 505.77887 872.36438
904.0 0.001106 505.87836 882.54553
916.0 0.001092 505.97467 892.61957
851.0 0.001175 506.06769 902.47211
861.0 0.001161 506.15753 912.02045
929.0 0.001076 506.24390 921.13232
890.0 0.001124 506.32709 929.73364
950.0 0.001053 506.40698 937.70819
967.0 0.001034 506.48370 944.39423
967.0 0.001034 506.55695 950.85822
956.0 0.001046 506.62704 956.46448
928.0 0.001078 506.69376 961.16931
1018.0 0.000982 506.75729 964.90601
959.0 0.001043 506.81750 967.66931
977.0 0.001024 506.87448 969.47284
935.0 0.001070 506.92819 970.33789
1007.0 0.000993 506.97861 970.30267
1023.0 0.000978 507.02582 969.42059
962.0 0.001040 507.06976 967.75494
978.0 0.001022 507.11053 965.37067
1001.0 0.000999 507.14804 962.34595
984.0 0.001016 507.18237 958.74121
971.0 0.001030 507.21353 954.62695
993.0 0.001007 507.24161 950.05267
930.0 0.001075 507.26642 945.08087
923.0 0.001083 507.28812 939.73566
963.0 0.001038 507.30679 934.05170
980.0 0.001020 507.32230 928.05640
959.0 0.001043 507.33481 921.74591
927.0 0.001079 507.34421 914.84399
933.0 0.001072 507.35065 907.92603
888.0 0.001126 507.35410 900.71649
909.0 0.001100 507.35458 893.19208
906.0 0.001104 507.35211 885.36670
862.0 0.001160 507.34671 877.22980
824.0 0.001214 507.33850 868.82806
824.0 0.001214 507.32742 860.13159
857.0 0.001167 507.31357 851.18970
877.0 0.001140 507.29694 842.01599
853.0 0.001172 507.27753 832.67450
828.0 0.001208 507.25546 823.18353
819.0 0.001221 507.23074 813.58014
814.0 0.001229 507.20340 803.94043
810.0 0.001235 507.17352 794.28070
745.0 0.001342 507.14105 784.66382
779.0 0.001284 507.10611 775.11554
749.0 0.001335 507.06876 765.70496
768.0 0.001302 507.02896 756.43921
745.0 0.001342 506.98691 747.36816
755.0 0.001325 506.94241 738.50269
751.0 0.001332 506.89581 729.89380
695.0 0.001439 506.84695 721.53412
711.0 0.001406 506.79593 713.44934
704.0 0.001420 506.74292 705.66132
726.0 0.001377 506.68777 698.15863
641.0 0.001560 506.63074 690.96167
676.0 0.001479 506.57172 684.05994
660.0 0.001515 506.51089 677.47516
669.0 0.001495 506.44827 671.18628
672.0 0.001488 506.38391 665.20203
656.0 0.001524 506.31781 659.50763
659.0 0.001517 506.25024 654.11572
656.0 0.001524 506.18103 649.00366
664.0 0.001506 506.11038 644.17444
619.0 0.001616 506.03827 639.61255
626.0 0.001597 505.96494 635.32471
628.0 0.001592 505.89026 631.28973
632.0 0.001582 505.81445 627.50537
618.0 0.001618 505.73752 623.96838
584.0 0.001712 505.65952 620.66254
649.0 0.001541 505.58060 617.58649
622.0 0.001608 505.50067 614.72784
616.0 0.001623 505.42004 612.08771
617.0 0.001621 505.33868 609.65143
568.0 0.001761 505.25665 607.41693
584.0 0.001712 505.17392 605.37457
600.0 0.001667 505.09091 603.52460
567.0 0.001764 505.00729 601.85553
593.0 0.001686 504.92346 600.36615
618.0 0.001618 504.83929 599.04932
596.0 0.001678 504.75513 597.90479
578.0 0.001730 504.67081 596.92572
601.0 0.001664 504.58646 596.10919
589.0 0.001698 504.50232 595.45410
596.0 0.001678 504.41827 594.95654
586.0 0.001706 504.33463 594.61548
598.0 0.001672 504.25116 594.42877
626.0 0.001597 504.16840 594.45453
585.0 0.001709 504.08606 594.57416
595.0 0.001681 504.00449 594.84546
580.0 0.001724 503.92346 595.26868
568.0 0.001761 503.84348 595.84210
574.0 0.001742 503.76428 596.56720
550.0 0.001818 503.68625 597.44385
567.0 0.001764 503.60931 598.47003
595.0 0.001681 503.53363 599.64893
639.0 0.001565 503.45917 600.97772
610.0 0.001639 503.38620 602.45935
608.0 0.001645 503.31479 604.08838
608.0 0.001645 503.24493 605.40387
627.0 0.001595 503.17685 607.33521
633.0 0.001580 503.11047 609.41626
583.0 0.001715 503.04614 611.63892
601.0 0.001664 502.98376 614.00793
634.0 0.001577 502.92355 616.51740
642.0 0.001558 502.86551 619.17017
633.0 0.001580 502.80984 621.95569
637.0 0.001570 502.75656 624.87921
616.0 0.001623 502.70578 627.94086
631.0 0.001585 502.65765 631.12946
616.0 0.001623 502.61227 634.45258
635.0 0.001575 502.56964 637.90198
610.0 0.001639 502.52997 641.51038
634.0 0.001577 502.49338 645.20313
624.0 0.001603 502.45981 649.01556
634.0 0.001577 502.42953 652.93231
675.0 0.001481 502.40253 656.95123
619.0 0.001616 502.37906 661.04700
702.0 0.001425 502.35895 665.21600
691.0 0.001447 502.34259 669.43445
677.0 0.001477 502.32993 673.67438
652.0 0.001534 502.32101 677.68744
711.0 0.001406 502.31604 681.90381
636.0 0.001572 502.31506 686.06470
721.0 0.001387 502.31818 690.12170
702.0 0.001425 502.32553 694.05072
681.0 0.001468 502.33710 697.80658
677.0 0.001477 502.35315 701.35773
707.0 0.001414 502.37360 704.65735
696.0 0.001437 502.39862 707.68201
686.0 0.001458 502.42825 710.39575
680.0 0.001471 502.46265 712.77991
689.0 0.001451 502.50186 714.81427
690.0 0.001449 502.54602 716.48395
713.0 0.001403 502.59512 717.79108
769.0 0.001300 502.64923 718.73676
728.0 0.001374 502.70865 719.33575
727.0 0.001376 502.77316 719.60449
738.0 0.001355 502.84317 719.56641
722.0 0.001385 502.91837 719.24878
752.0 0.001330 502.99915 718.67981
675.0 0.001481 503.08539 717.88989
671.0 0.001490 503.17731 716.90643
677.0 0.001477 503.27478 715.76056
670.0 0.001493 503.37811 714.47308
672.0 0.001488 503.48721 713.06714
707.0 0.001414 503.60208 712.52197
729.0 0.001372 503.72302 710.93530
758.0 0.001319 503.84976 709.27197
689.0 0.001451 503.98282 707.53601
682.0 0.001466 504.12158 705.73602
757.0 0.001321 504.26675 703.86823
745.0 0.001342 504.41794 701.58765
678.0 0.001475 504.57568 699.59143
683.0 0.001464 504.73929 697.53400
708.0 0.001412 504.90942 695.41119
691.0 0.001447 505.08575 693.23047
681.0 0.001468 505.26874 690.99579
686.0 0.001458 505.45782 688.71851
765.0 0.001307 505.65359 686.40527
661.0 0.001513 505.85568 684.07251
698.0 0.001433 506.06403 681.74054
698.0 0.001433 506.27930 679.42120
680.0 0.001471 506.50073 677.13861
681.0 0.001468 506.72894 674.90942
640.0 0.001563 506.96332 672.76123
650.0 0.001538 507.20456 670.70795
717.0 0.001395 507.45212 668.77356
626.0 0.001597 507.70654 666.97418
638.0 0.001567 507.96695 665.33319
659.0 0.001517 508.23413 663.86206
659.0 0.001517 508.50763 663.06476
662.0 0.001511 508.78799 661.98694
696.0 0.001437 509.07422 661.12573
668.0 0.001497 509.36703 660.49097
661.0 0.001513 509.66656 660.09277
687.0 0.001456 509.97186 659.94214
686.0 0.001458 510.28369 660.04779
668.0 0.001497 510.60181 660.41748
642.0 0.001558 510.92618 661.05963
699.0 0.001431 511.25626 661.97931
687.0 0.001456 511.59286 663.18561
702.0 0.001425 511.93512 664.68250
664.0 0.001506 512.28381 666.47949
693.0 0.001443 512.63763 668.57599
642.0 0.001558 512.99756 670.98315
674.0 0.001484 513.36334 673.70428
705.0 0.001418 513.73419 676.73969
710.0 0.001408 514.11084 680.10181
710.0 0.001408 514.49268 683.78864
690.0 0.001449 514.88037 687.81152
695.0 0.001439 515.27240 692.16077
640.0 0.001563 515.66992 696.85315
711.0 0.001406 516.07233 701.88263
712.0 0.001404 516.47968 707.26025
686.0 0.001458 516.89105 712.97058
729.0 0.001372 517.30762 719.03174
685.0 0.001460 517.72803 725.43164
772.0 0.001295 518.15332 732.18042
771.0 0.001297 518.58185 739.25415
739.0 0.001353 519.01440 746.66486
759.0 0.001318 519.45129 754.41150
734.0 0.001362 519.89093 762.46082
774.0 0.001292 520.33429 770.82654
820.0 0.001220 520.78064 779.47943
776.0 0.001289 521.23059 788.41956
804.0 0.001244 521.68237 797.59760
824.0 0.001214 522.13727 807.01825
848.0 0.001179 522.59448 816.63574
840.0 0.001190 523.05402 826.43463
840.0 0.001190 523.51483 836.34698
856.0 0.001168 523.97803 846.36072
833.0 0.001200 524.44244 856.41541
857.0 0.001167 524.90759 866.44592
906.0 0.001104 525.37439 876.41974
902.0 0.001109 525.84143 886.25616
898.0 0.001114 526.30963 895.90906
918.0 0.001089 526.77710 905.28156
888.0 0.001126 527.24487 913.75024
918.0 0.001089 527.71216 922.40479
910.0 0.001099 528.17950 930.60785
961.0 0.001041 528.64496 938.27484
994.0 0.001006 529.10968 945.37738
948.0 0.001055 529.57288 951.85797
950.0 0.001053 530.03455 957.69354
959.0 0.001043 530.49335 962.84460
948.0 0.001055 530.95001 967.31488
992.0 0.001008 531.40448 971.10754
985.0 0.001015 531.85510 974.22571
1036.0 0.000965 532.30298 976.70471
1002.0 0.000998 532.74664 978.57391
967.0 0.001034 533.18689 979.87866
977.0 0.001024 533.62164 980.66309
978.0 0.001022 534.05249 980.98120
984.0 0.001016 534.47784 980.88373
1008.0 0.000992 534.89825 980.42120
991.0 0.001009 535.31213 979.64288
1042.0 0.000960 535.72021 978.59027
978.0 0.001022 536.12170 977.30328
949.0 0.001054 536.51648 975.81110
1017.0 0.000983 536.90338 973.91437
986.0 0.001014 537.28284 972.09186
978.0 0.001022 537.65472 970.12415
983.0 0.001017 538.01764 968.02747
993.0 0.001007 538.37207 965.80176
956.0 0.001046 538.71710 963.45471
954.0 0.001048 539.05304 960.98541
987.0 0.001013 539.37811 958.40393
961.0 0.001041 539.69354 955.70734
910.0 0.001099 539.99799 952.90674
923.0 0.001083 540.29163 950.37323
959.0 0.001043 540.57324 947.39673
985.0 0.001015 540.84320 944.34857
906.0 0.001104 541.10101 941.25183
939.0 0.001065 541.34564 938.13202
965.0 0.001036 541.57758 935.00549
943.0 0.001060 541.79590 931.90308
888.0 0.001126 542.00073 928.84558
921.0 0.001086 542.19086 925.86761
962.0 0.001040 542.36670 922.98535
900.0 0.001111 542.52747 920.22803
900.0 0.001111 542.67297 917.61212
962.0 0.001040 542.80255 915.16553
948.0 0.001055 542.91626 912.89880
940.0 0.001064 543.01349 910.83099
924.0 0.001082 543.09406 908.97192
892.0 0.001121 543.15729 907.33777
928.0 0.001078 543.20313 906.24969
874.0 0.001144 543.23126 905.08337
909.0 0.001100 543.24127 904.16003
902.0 0.001109 543.23291 903.47772
929.0 0.001076 543.20581 903.03699
887.0 0.001127 543.15961 902.83252
918.0 0.001089 543.09430 902.85754
907.0 0.001103 543.00934 903.10052
942.0 0.001062 542.90466 903.54620
903.0 0.001107 542.77979 904.36096
907.0 0.001103 542.63495 905.14996
927.0 0.001079 542.46936 906.07098
882.0 0.001134 542.28314 907.09003
893.0 0.001120 542.07635 908.16962
857.0 0.001167 541.84814 909.27045
870.0 0.001149 541.59912 910.34735
913.0 0.001095 541.32843 911.35522
914.0 0.001094 541.03687 912.24341
857.0 0.001167 540.72357 912.96680
876.0 0.001142 540.38898 913.47693
873.0 0.001145 540.03229 913.72961
855.0 0.001170 539.65472 913.68384
943.0 0.001060 539.25531 913.30414
878.0 0.001139 538.83435 912.56152
904.0 0.001106 538.39185 911.43311
904.0 0.001106 537.92859 910.06702
911.0 0.001098 537.44373 908.13727
908.0 0.001101 536.93762 905.80176
869.0 0.001151 536.41150 903.07684
931.0 0.001074 535.86401 899.99292
875.0 0.001143 535.29663 896.53204
849.0 0.001178 534.70844 892.73553
836.0 0.001196 534.10181 888.64380
867.0 0.001153 533.47528 884.27429
889.0 0.001125 532.83014 879.66437
889.0 0.001125 532.16577 874.83398
877.0 0.001140 531.48474 869.82501
840.0 0.001190 530.78589 864.64618
810.0 0.001235 530.06995 859.32263
804.0 0.001244 529.33899 853.87866
823.0 0.001215 528.59210 848.31354
814.0 0.001229 527.83105 842.64612
793.0 0.001261 527.05511 836.87262
838.0 0.001193 526.26794 831.01434
809.0 0.001236 525.46777 825.05542
761.0 0.001314 524.65741 819.00818
799.0 0.001252 523.83618 811.40308
789.0 0.001267 523.00787 805.18762
773.0 0.001294 522.17120 798.87665
810.0 0.001235 521.32886 792.48645
785.0 0.001274 520.48053 786.01196
815.0 0.001227 519.63031 779.48236
753.0 0.001328 518.77783 772.89404
848.0 0.001179 517.92389 766.25647
744.0 0.001344 517.07281 759.60730
709.0 0.001410 516.22406 752.95581
773.0 0.001294 515.38068 746.31189
754.0 0.001326 514.54291 739.69513
725.0 0.001379 513.71564 733.14850
717.0 0.001395 512.89819 726.67291
741.0 0.001350 512.09473 720.30249
729.0 0.001372 511.30569 714.04633
692.0 0.001445 510.53647 707.94427
732.0 0.001366 509.78622 701.99536
661.0 0.001513 509.05988 696.22961
727.0 0.001376 508.35837 690.65289
644.0 0.001553 507.68695 685.29803
698.0 0.001433 507.04697 680.16583
666.0 0.001502 506.44092 675.26697
698.0 0.001433 505.87418 669.88171
688.0 0.001453 505.34833 665.50702
724.0 0.001381 504.86774 661.40985
656.0 0.001524 504.43509 657.59381
698.0 0.001433 504.05576 654.08051
681.0 0.001468 503.73227 650.86914
650.0 0.001538 503.46951 647.97632
686.0 0.001458 503.27121 645.40686
614.0 0.001629 503.14243 643.17847
631.0 0.001585 503.08704 641.29431
686.0 0.001458 503.11020 639.76831
696.0 0.001437 503.21646 638.61218
642.0 0.001558 503.41132 637.83435
651.0 0.001536 503.69968 637.44843
658.0 0.001520 504.08765 637.46545
679.0 0.001473 504.57944 637.89685
689.0 0.001451 505.18234 638.75623
646.0 0.001548 505.90146 640.05438
630.0 0.001587 506.74454 641.80701
632.0 0.001582 507.71515 644.02026
681.0 0.001468 508.82321 646.71362
680.0 0.001471 510.07294 649.89349
681.0 0.001468 511.47379 653.57819
687.0 0.001456 513.02972 657.76807
661.0 0.001513 514.75195 662.48315
608.0 0.001645 516.64777 667.73651
666.0 0.001502 518.72137 673.52130
638.0 0.001567 520.98700 679.86310
650.0 0.001538 523.44794 686.75592
701.0 0.001427 526.11926 694.21942
668.0 0.001497 529.00073 702.23193
656.0 0.001524 532.10986 710.81909
727.0 0.001376 535.45203 719.96466
698.0 0.001433 539.04407 729.68341
737.0 0.001357 542.88391 739.93665
759.0 0.001318 546.99280 750.74438
692.0 . . .
732.0 . . .
746.0 . . .
707.0 . . .
751.0 . . .
714.0 . . .
762.0 . . .
779.0 . . .
788.0 . . .
794.0 . . .
751.0 . . .
704.0 . . .
803.0 . . .
785.0 . . .
844.0 . . .
848.0 . . .
824.0 . . .
776.0 . . .
807.0 . . .
803.0 . . .
812.0 . . .
845.0 . . .
805.0 . . .
805.0 . . .
834.0 . . .
820.0 . . .
801.0 . . .
845.0 . . .
765.0 . . .
824.0 . . .
791.0 . . .
837.0 . . .
812.0 . . .
776.0 . . .
759.0 . . .
750.0 . . .
795.0 . . .
loop_
_refln_index_h
_refln_index_k
_refln_index_l
_pd_refln_wavelength_id
_refln_observed_status
_refln_F_squared_meas
_refln_F_squared_calc
_refln_phase_calc
_refln_d_spacing
_gsas_i100_meas
0 0 1 1 o 5167.703 5185.552 0.00 9.15486 79.09
0 0 1 2 o 5151.216 5185.552 0.00 9.15486 39.29
0 0 2 1 o 2380.037 2462.489 180.00 4.57743 15.55
0 0 2 2 o 2396.380 2462.489 180.00 4.57743 7.80
1 0 1 1 o 1035.808 978.271 180.00 3.66077 1.37
1 0 1 2 o 1058.988 978.271 180.00 3.66077 0.70
0 0 3 1 o 299.567 270.061 180.00 3.05162 0.47
0 0 3 2 o 302.325 270.061 180.00 3.05162 0.24
1 0 2 1 o 47208.88 47170.78 180.00 3.00945 100.00
1 0 2 2 o 47042.17 47170.78 180.00 3.00945 49.58
1 1 0 1 o 46584.61 45593.18 180.00 2.82417 20.87
1 1 0 2 o 47289.89 45593.18 180.00 2.82417 10.55
1 1 1 1 o 1688.311 1496.421 180.00 2.69868 1.34
1 1 1 2 o 1423.938 1496.421 180.00 2.69868 0.54
1 0 3 1 o 5963.045 5928.978 180.00 2.42484 12.78
1 0 3 2 o 5800.502 5928.978 180.00 2.42484 6.17
1 1 2 1 o 3987.884 4147.329 0.00 2.40352 4.27
1 1 2 2 o 3948.941 4147.329 0.00 2.40352 2.10
0 0 4 1 o 25232.158 25277.492 180.00 2.28871 43.53
0 0 4 2 o 25421.582 25277.492 180.00 2.28871 21.83
1 1 3 1 o 1504.015 1351.786 0.00 2.07274 1.31
1 1 3 2 o 1503.479 1351.786 0.00 2.07274 0.65
1 0 4 1 o 7980.929 8096.243 0.00 1.98578 17.14
1 0 4 2 o 8022.297 8096.243 0.00 1.98578 8.57
2 0 0 1 o 43202.07 43328.20 180.00 1.99699 8.74
2 0 0 2 o 43043.18 43328.20 180.00 1.99699 4.33
2 0 1 1 o 2859.525 2968.846 180.00 1.95111 1.06
2 0 1 2 o 2823.678 2968.846 180.00 1.95111 0.52
0 0 5 1 o 7548.663 7221.719 180.00 1.83097 8.15
0 0 5 2 o 7376.047 7221.719 180.00 1.83097 3.96
2 0 2 1 o 1623.344 1561.418 0.00 1.83039 0.75
2 0 2 2 o 1584.243 1561.418 0.00 1.83039 0.36
1 1 4 1 o 25622.311 25674.561 0.00 1.77813 27.24
1 1 4 2 o 25736.701 25674.561 0.00 1.77813 13.61
2 1 1 1 o 773.059 771.246 0.00 1.75311 0.37
2 1 1 2 o 795.581 771.246 0.00 1.75311 0.19
1 0 5 1 o 1655.068 1654.561 0.00 1.66441 2.28
1 0 5 2 o 1644.060 1654.561 0.00 1.66441 1.12
2 0 3 1 o 337.214 334.766 0.00 1.67100 0.08
2 0 3 2 o 335.168 334.766 0.00 1.67100 0.04
2 1 2 1 o 29939.539 29903.975 0.00 1.66397 20.89
2 1 2 2 o 29693.959 29903.975 0.00 1.66397 10.30
1 1 5 2 o 8497.223 8423.908 0.00 1.53634 4.26
1 1 5 1 o 8616.685 8423.908 0.00 1.53634 8.69
2 1 3 1 o 4230.114 4014.879 0.00 1.54152 2.95
2 1 3 2 o 4126.608 4014.879 0.00 1.54152 1.43
0 0 6 1 o 11217.156 11135.014 0.00 1.52581 8.31
0 0 6 2 o 11257.159 11135.014 0.00 1.52581 4.15
2 0 4 1 o 17061.377 17493.074 0.00 1.50472 8.06
2 0 4 2 o 16977.146 17493.074 0.00 1.50472 3.98
1 0 6 1 o 10260.082 10298.768 0.00 1.42534 14.08
1 0 6 2 o 10368.754 10298.768 0.00 1.42534 7.09
2 1 4 1 o 5528.645 5500.657 180.00 1.40811 4.36
2 1 4 2 o 5559.024 5500.657 180.00 1.40811 2.18
2 2 0 1 o 29405.563 29346.457 0.00 1.41209 2.94
2 2 0 2 o 29351.564 29346.457 0.00 1.41209 1.46
2 2 1 1 o 2014.184 2015.545 0.00 1.39558 0.36
2 2 1 2 o 1971.319 2015.545 0.00 1.39558 0.17
1 1 6 2 o 7309.769 7202.193 180.00 1.34242 3.42
2 0 5 1 o 5268.257 5227.339 0.00 1.34958 2.55
1 1 6 1 o 7220.207 7202.193 180.00 1.34242 6.80
2 0 5 2 o 5194.574 5227.339 0.00 1.34958 1.25
2 2 2 1 o 1163.371 1155.474 180.00 1.34934 0.25
2 2 2 2 o 1145.047 1155.474 180.00 1.34934 0.12
0 0 7 1 o 4430.502 4365.850 0.00 1.30784 2.01
0 0 7 2 o 4294.792 4365.850 0.00 1.30784 0.96
3 0 1 1 o 622.155 591.521 0.00 1.31747 0.07
3 0 1 2 o 627.823 591.521 0.00 1.31747 0.04
2 1 5 1 o 1255.263 1246.040 180.00 1.27856 0.74
2 2 3 1 o 310.427 304.235 180.00 1.28153 0.04
2 1 5 2 o 1267.392 1246.040 180.00 1.27856 0.37
2 2 3 2 o 305.105 304.235 180.00 1.28153 0.02
3 0 2 1 o 21331.350 21324.908 0.00 1.27836 3.58
3 0 2 2 o 21681.691 21324.908 0.00 1.27836 1.81
1 0 7 1 o 7273.561 7154.389 0.00 1.24290 9.00
3 1 0 1 o 21334.711 21662.611 0.00 1.26301 3.16
1 0 7 2 o 7092.717 7154.389 0.00 1.24290 4.36
3 1 0 2 o 21933.604 21662.611 0.00 1.26301 1.62
3 1 1 1 o 1095.965 958.297 0.00 1.25116 0.28
3 1 1 2 o 1056.743 958.297 0.00 1.25116 0.13
3 0 3 1 o 2704.571 2930.959 0.00 1.22026 0.45
3 1 2 1 o 1653.635 1738.310 180.00 1.21751 0.54
2 0 6 1 o 7668.298 7857.051 180.00 1.21242 3.91
3 0 3 2 o 2810.656 2930.959 0.00 1.22026 0.23
3 1 2 2 o 1684.741 1738.310 180.00 1.21751 0.27
2 0 6 2 o 7775.630 7857.051 180.00 1.21242 1.97
2 2 4 1 o 12678.397 12912.494 180.00 1.20176 2.77
2 2 4 2 o 12608.184 12912.494 180.00 1.20176 1.37
1 1 7 1 o 2818.680 2661.188 180.00 1.18676 2.04
1 1 7 2 o 2738.176 2661.188 180.00 1.18676 0.98
3 1 3 1 o 692.872 687.870 180.00 1.16701 0.16
2 1 6 2 o 7803.443 7610.541 180.00 1.16014 2.95
2 1 6 1 o 7758.718 7610.541 180.00 1.16014 5.89
3 1 3 2 o 701.204 687.870 180.00 1.16701 0.08
3 0 4 1 o 4197.757 4002.537 180.00 1.15079 0.85
0 0 8 1 o 3844.515 3830.570 0.00 1.14436 1.36
3 0 4 2 o 4136.913 4002.537 180.00 1.15079 0.42
0 0 8 2 o 3819.312 3830.570 0.00 1.14436 0.67
2 2 5 1 o 3609.191 3935.954 180.00 1.11818 0.86
2 2 5 2 o 3517.867 3935.954 180.00 1.11818 0.42
3 1 4 1 o 13094.517 13149.296 180.00 1.10581 4.61
1 0 8 1 o 6513.241 6362.655 180.00 1.10009 7.26
3 1 4 2 o 13205.807 13149.296 180.00 1.10581 2.32
1 0 8 2 o 6724.649 6362.655 180.00 1.10009 3.74
2 0 7 1 o 3507.961 3252.542 180.00 1.09409 1.61
2 0 7 2 o 3526.188 3252.542 180.00 1.09409 0.81
3 2 1 1 o 474.250 466.274 180.00 1.09971 0.08
3 2 1 2 o 487.533 466.274 180.00 1.09971 0.04
3 0 5 1 o 925.290 971.686 180.00 1.07677 0.15
3 0 5 2 o 923.491 971.686 180.00 1.07677 0.07
3 2 2 1 o 14894.388 15926.949 180.00 1.07665 3.91
3 2 2 2 o 14856.180 15926.949 180.00 1.07665 1.94
1 1 8 1 o 2573.146 2465.269 180.00 1.06060 1.85
1 1 8 2 o 2582.281 2465.269 180.00 1.06060 0.93
2 1 7 1 o 5552.387 5340.307 180.00 1.05521 4.99
2 1 7 2 o 5433.334 5340.307 180.00 1.05521 2.43
2 2 6 1 o 5733.779 5819.439 0.00 1.03637 1.66
3 1 5 1 o 4431.225 4435.789 180.00 1.03965 1.81
3 2 3 1 o 2244.768 2226.218 180.00 1.04125 0.61
2 2 6 2 o 5685.088 5819.439 0.00 1.03637 0.82
3 1 5 2 o 4372.545 4435.789 180.00 1.03965 0.89
3 2 3 2 o 2205.909 2226.218 180.00 1.04125 0.30
0 0 9 1 o 5351.125 5329.089 0.00 1.01721 2.03
0 0 9 2 o 5474.274 5329.089 0.00 1.01721 1.04
3 0 6 1 o 5915.990 5826.338 180.00 1.00315 1.42
3 0 6 2 o 5749.351 5826.338 180.00 1.00315 0.69
3 2 4 1 o 2950.413 3016.366 0.00 0.99709 1.02
2 0 8 1 o 2961.876 2934.170 180.00 0.99289 1.53
3 2 4 2 o 3012.483 3016.366 0.00 0.99709 0.52
2 0 8 2 o 2988.068 2934.170 180.00 0.99289 0.77
1 0 9 1 o 5290.117 5210.827 180.00 0.98574 5.55
4 0 0 1 o 15590.831 16129.951 0.00 0.99850 0.87
1 0 9 2 o 5242.128 5210.827 180.00 0.98574 2.75
4 0 0 2 o 15822.772 16129.951 0.00 0.99850 0.44
4 0 1 1 o 1139.056 1126.876 0.00 0.99261 0.11
4 0 1 2 o 1150.817 1126.876 0.00 0.99261 0.06
3 1 6 1 o 4053.759 4108.409 0.00 0.97293 2.10
3 1 6 2 o 4130.486 4108.409 0.00 0.97293 1.07
4 0 2 1 o 663.420 678.115 180.00 0.97556 0.09
2 1 8 1 o 4918.272 4850.454 0.00 0.96356 5.32
4 0 2 2 o 665.914 678.115 180.00 0.97556 0.04
2 1 8 2 o 4892.491 4850.454 0.00 0.96356 2.65
2 2 7 1 o 2519.697 2518.307 0.00 0.95952 0.75
2 2 7 2 o 2490.423 2518.307 0.00 0.95952 0.37
1 1 9 1 o 3705.478 3753.894 180.00 0.95702 3.63
1 1 9 2 o 3763.852 3753.894 180.00 0.95702 1.85
4 1 1 1 o 382.172 378.427 180.00 0.96331 0.06
4 1 1 2 o 380.719 378.427 180.00 0.96331 0.03
