#------------------------------------------------------------------------------
#$Date: 2016-03-23 23:50:39 +0200 (Wed, 23 Mar 2016) $
#$Revision: 179515 $
#$URL: svn://www.crystallography.net/cod/cif/4/34/12/4341281.cif $
#------------------------------------------------------------------------------
#
# This file is available in the Crystallography Open Database (COD),
# http://www.crystallography.net/
#
# All data on this site have been placed in the public domain by the
# contributors.
#
data_4341281
loop_
_publ_author_name
'Prakash, Jai'
'Tarasenko, Mariya S.'
'Mesbah, Adel'
'Leb\`egue, S\'ebastien'
'Malliakas, Christos D.'
'Ibers, James A.'
_publ_section_title
;
 Syntheses, Crystal Structures, Transport Properties, and Theoretical
 Studies of Five Members of the MAn2Q5 Family: SrU2S5, BaU2Se5, PbU2S5,
 BaTh2S5, and BaU2Te5.
;
_journal_issue                   21
_journal_name_full               'Inorganic chemistry'
_journal_page_first              11626
_journal_page_last               11632
_journal_paper_doi               10.1021/ic501795w
_journal_volume                  53
_journal_year                    2014
_chemical_formula_sum            'Pb S5 U2'
_chemical_formula_weight         843.55
_chemical_name_common            PbU2S5
_chemical_name_systematic
;
 ?
;
_space_group_crystal_system      monoclinic
_space_group_IT_number           14
_space_group_name_Hall           '-P 2ybc'
_space_group_name_H-M_alt        'P 1 21/c 1'
_symmetry_space_group_name_Hall  '-P 2ybc'
_symmetry_space_group_name_H-M   'P 1 21/c 1'
_atom_sites_solution_primary     direct
_atom_sites_solution_secondary   difmap
_audit_creation_method           SHELXL-2014
_cell_angle_alpha                90
_cell_angle_beta                 90.1390(18)
_cell_angle_gamma                90
_cell_formula_units_Z            4
_cell_length_a                   8.2376(4)
_cell_length_b                   7.4434(3)
_cell_length_c                   11.7236(5)
_cell_measurement_reflns_used    9925
_cell_measurement_temperature    100(2)
_cell_measurement_theta_max      41.76
_cell_measurement_theta_min      3.02
_cell_volume                     718.84(5)
_computing_cell_refinement       'Bruker SAINT'
_computing_data_collection       'Bruker APEX2'
_computing_data_reduction        'Bruker SAINT'
_computing_molecular_graphics    'Bruker SHELXTL'
_computing_publication_material  'Bruker SHELXTL'
_computing_structure_refinement  'SHELXL-2014 (Sheldrick, 2014)'
_computing_structure_solution    'SHELXL-97 (Sheldrick, 2008a)'
_diffrn_ambient_temperature      100(2)
_diffrn_measured_fraction_theta_full 1.000
_diffrn_measured_fraction_theta_max 0.999
_diffrn_measurement_device_type  'Bruker APEX-II CCD'
_diffrn_measurement_method       '\f and \w scans'
_diffrn_radiation_type           MoK\a
_diffrn_radiation_wavelength     0.71073
_diffrn_reflns_av_R_equivalents  0.0714
_diffrn_reflns_av_unetI/netI     0.0369
_diffrn_reflns_Laue_measured_fraction_full 1.000
_diffrn_reflns_Laue_measured_fraction_max 0.999
_diffrn_reflns_limit_h_max       13
_diffrn_reflns_limit_h_min       -13
_diffrn_reflns_limit_k_max       12
_diffrn_reflns_limit_k_min       -12
_diffrn_reflns_limit_l_max       19
_diffrn_reflns_limit_l_min       -19
_diffrn_reflns_number            27862
_diffrn_reflns_point_group_measured_fraction_full 1.000
_diffrn_reflns_point_group_measured_fraction_max 0.999
_diffrn_reflns_theta_full        25.242
_diffrn_reflns_theta_max         36.522
_diffrn_reflns_theta_min         2.472
_diffrn_source                   'fine-focus sealed tube'
_exptl_absorpt_coefficient_mu    69.646
_exptl_absorpt_correction_T_max  0.05668
_exptl_absorpt_correction_T_min  0.00371
_exptl_absorpt_correction_type   numerical
_exptl_absorpt_process_details   'face indexed (SADABS; Sheldrick, 2008'
_exptl_crystal_colour            Black
_exptl_crystal_density_diffrn    7.795
_exptl_crystal_density_meas      ?
_exptl_crystal_description       Block
_exptl_crystal_F_000             1384
_exptl_crystal_size_max          0.236
_exptl_crystal_size_mid          0.198
_exptl_crystal_size_min          0.144
_refine_diff_density_max         11.639
_refine_diff_density_min         -3.903
_refine_diff_density_rms         0.877
_refine_ls_extinction_coef       0.0035(2)
_refine_ls_extinction_expression Fc^*^=kFc[1+0.001xFc^2^\l^3^/sin(2\q)]^-1/4^
_refine_ls_extinction_method     SHELXL
_refine_ls_goodness_of_fit_ref   1.629
_refine_ls_hydrogen_treatment    undef
_refine_ls_matrix_type           full
_refine_ls_number_parameters     74
_refine_ls_number_reflns         3532
_refine_ls_number_restraints     0
_refine_ls_restrained_S_all      1.629
_refine_ls_R_factor_all          0.0405
_refine_ls_R_factor_gt           0.0396
_refine_ls_shift/su_max          0.001
_refine_ls_shift/su_mean         0.000
_refine_ls_structure_factor_coef Fsqd
_refine_ls_weighting_details
'w=1/[\s^2^(Fo^2^)+(0.0490P)^2^] where P=(1.0000Fo^2^+0.0000Fc^2^)'
_refine_ls_weighting_scheme      calc
_refine_ls_wR_factor_gt          0.1166
_refine_ls_wR_factor_ref         0.1171
_reflns_Friedel_coverage         0.000
_reflns_number_gt                3435
_reflns_number_total             3532
_reflns_threshold_expression     'I > 2\s(I)'
_cod_data_source_file            ic501795w_si_001.cif
_cod_data_source_block           PbU2S5
_cod_depositor_comments
;Adding full bibliography for 4341279--4341283.cif.

The following automatic conversions were performed:

'_exptl_crystal_density_meas' value 'not measured' was changed to '?'
- the value is perceived as not measured.

Automatic conversion script
Id: cif_fix_values 3008 2015-01-20 13:52:24Z robertas 
;
_cod_database_code               4341281
#BEGIN Tags that were not found in dictionaries:
_shelx_space_group_comment
;
The symmetry employed for this shelxl refinement is uniquely defined
by the following loop, which should always be used as a source of
symmetry information in preference to the above space-group names.
They are only intended as comments.
;
_shelxl_version_number           2014-1
_shelx_res_file
;
TITL PbU2S5 in P2(1)/c after abs correction (sadabs) and tidy
CELL 0.71073 8.2376 7.4434 11.7236 90 90.139 90
ZERR 4 0.0004 0.0003 0.0005 0 0.0018 0
LATT 1
SYMM -X,0.5+Y,0.5-Z

SFAC S Pb U
UNIT 20 4 8

L.S. 4
PLAN  20
SIZE 0.144 0.198 0.236
TEMP -173.17
BOND
fmap 2
acta
REM <HKL>C:/people$/Jai/jpp1/work4/final%20work/sad_new.hkl</HKL>

WGHT    0.049000    0.000000    0.000000    0.000000    0.000000    1.000000
EXTI    0.003547
FVAR       0.14895
U1    3    0.499959    0.022436    0.320174    11.00000    0.00965    0.01007 =
         0.00514   -0.00002   -0.00110    0.00032
U2    3    0.253122    0.076545    0.008004    11.00000    0.00922    0.01056 =
         0.00589    0.00041   -0.00097    0.00011
PB1   2    0.011420    0.009027    0.323621    11.00000    0.01858    0.01785 =
         0.01462    0.00021   -0.00265   -0.00534
S1    1    0.545781    0.162683    0.098854    11.00000    0.00955    0.01127 =
         0.00644   -0.00026   -0.00071    0.00070
S2    1    0.282253    0.456471    0.000508    11.00000    0.01044    0.01207 =
         0.00570   -0.00042   -0.00086    0.00006
S3    1    0.722498    0.335080    0.314299    11.00000    0.01257    0.01159 =
         0.00693   -0.00079   -0.00137    0.00065
S4    1    0.038770    0.662707    0.411672    11.00000    0.00922    0.01443 =
         0.01029    0.00374    0.00016    0.00068
S5    1    0.269427    0.305175    0.281072    11.00000    0.01063    0.01105 =
         0.00760    0.00011   -0.00144    0.00012
HKLF 4

REM  PbU2S5 in P2(1)/c after abs correction (sadabs) and tidy
REM R1 =  0.0396 for    3435 Fo > 4sig(Fo)  and  0.0405 for all    3532 data
REM     74 parameters refined using      0 restraints

END

WGHT      0.0564     14.8501

REM Highest difference peak 11.639,  deepest hole -3.903,  1-sigma level  0.877
Q1    1  -0.0288  0.0806  0.3109  11.00000  0.05   11.64
Q2    1   0.5565 -0.0208  0.3461  11.00000  0.05    5.62
Q3    1   0.4980 -0.0448  0.3416  11.00000  0.05    5.54
Q4    1   0.4982  0.0877  0.3438  11.00000  0.05    5.37
Q5    1   0.2588 -0.0034 -0.0168  11.00000  0.05    5.34
Q6    1   0.4972 -0.0433  0.2955  11.00000  0.05    5.09
Q7    1   0.3159  0.0972  0.0366  11.00000  0.05    4.96
Q8    1   0.4407  0.0461  0.2953  11.00000  0.05    4.91
Q9    1   0.1926  0.1192 -0.0155  11.00000  0.05    4.78
Q10   1   0.5626  0.0560  0.3487  11.00000  0.05    4.64
Q11   1   0.0729  0.0449  0.3473  11.00000  0.05    4.45
Q12   1   0.2491  0.1510  0.0262  11.00000  0.05    4.36
Q13   1   0.4801  0.0291  0.3733  11.00000  0.05    4.23
Q14   1  -0.0233 -0.0408  0.3148  11.00000  0.05    4.21
Q15   1   0.0837 -0.0545  0.3529  11.00000  0.05    4.17
Q16   1   0.5175  0.0292  0.2582  11.00000  0.05    3.96
Q17   1   0.2768  0.0699 -0.0451  11.00000  0.05    3.93
Q18   1   0.2739  0.1109 -0.0298  11.00000  0.05    3.93
Q19   1   0.5164  0.0717  0.2852  11.00000  0.05    3.89
Q20   1   0.0187  0.0050  0.2496  11.00000  0.05    3.88
;
_shelx_res_checksum              94173
_shelx_hkl_file
;
   1   0   0 62.9428 6.01739   2
  -1   0   0 67.7543 6.60840  10
  -1   0   0 63.2415 6.43263  10
  -1   0   0 64.2288 6.01862   2
   2   0   0 1130.58 92.6333   2
  -2   0   0 960.290 100.387  10
  -2   0   0 937.177 92.5948   2
  -2   0   0 1043.85 100.045  10
  -3   0   0 120.594 10.9169   9
   3   0   0 114.955 10.9577   2
   3   0   0 128.561 12.2429   6
  -3   0   0 116.283 10.4566   8
  -3   0   0 117.286 10.9599   2
   4   0   0 9999.99 832.857   6
  -4   0   0 8467.60 806.442   8
  -4   0   0 8687.78 843.613   9
  -4   0   0 9904.74 831.749   2
  -5   0   0 247.001 25.2279   7
   5   0   0 290.822 24.9836   2
  -5   0   0 270.907 24.0315   8
  -5   0   0 279.147 25.0126   2
   6   0   0 267.084 25.6097   2
  -6   0   0 258.922 25.9275   7
   6   0   0 274.482 25.1460   1
  -6   0   0 269.926 24.7050   8
  -6   0   0 319.825 25.8217   2
  -6   0   0 282.125 25.6430   8
  -7   0   0 63.2504 8.44030   7
   7   0   0 84.9356 7.93583   2
   7   0   0 89.8373 7.95040   1
  -7   0   0 77.7873 7.40422   8
   8   0   0 3391.90 308.065   2
  -8   0   0 3290.76 299.046   8
   8   0   0 3620.56 300.637   1
   9   0   0 378.743 34.7838   1
  -9   0   0 392.782 34.2502   8
 -10   0   0 61.4967 6.22387   8
  10   0   0 55.9581 6.69556   1
  11   0   0 9.66230 2.72917   1
 -11   0   0 9.51290 2.26711   8
  12   0   0 1107.56 93.0793   1
 -12   0   0 994.422 92.4145   8
 -13   0   0 298.474 27.3058   8
   0  -1   0 37.4338 4.34080   9
   0  -1   0 36.5784 4.75332  10
   0  -1   0 35.0680 4.27804   9
   0  -1   0 26.2026 4.32038   9
   0  -1   0 28.6739 5.00252  10
   0   1   0 38.0167 5.25027   6
   0   1   0 26.0323 4.74174  10
   0   1   0 18.3572 4.45833  10
   0   1   0 23.1702 4.19827   9
   1  -1   0 413.389 42.6312   9
   1  -1   0 524.992 45.3509  10
   1  -1   0 416.607 42.4443   9
  -1  -1   0 433.842 45.0940  10
  -1  -1   0 474.084 45.2393  10
   1  -1   0 485.792 41.8674   2
   1  -1   0 412.205 45.7227  10
  -1  -1   0 452.901 41.9684   2
   1   1   0 438.173 41.9713   2
   1   1   0 426.128 41.8172   6
  -1   1   0 542.710 48.1552   3
  -1   1   0 532.310 45.3616  10
  -1   1   0 504.403 46.1173  10
  -1   1   0 406.580 42.4488   9
   2  -1   0 9.79786 1.71384   9
  -2  -1   0 10.8672 2.06416   2
   2  -1   0 12.5169 2.84643  10
   2  -1   0 6.40016 1.83027   2
   2  -1   0 7.64384 1.93159  10
  -2   1   0 5.67108 1.74472   9
  -2   1   0 6.50832 1.86256   2
  -2   1   0 19.1143 4.14271   7
   3  -1   0 694.279 68.5719   9
   3  -1   0 753.005 73.0240  10
   3  -1   0 704.340 68.4965   9
   3  -1   0 829.506 67.6397   2
  -3  -1   0 704.377 67.6942   2
   3  -1   0 856.457 66.4369   7
   3  -1   0 740.569 73.3494  10
  -3   1   0 753.001 67.6828   2
   3   1   0 880.377 68.0042   6
   3   1   0 717.596 67.7264   2
  -3   1   0 696.605 68.6358   9
  -3   1   0 650.566 74.0251  10
  -3   1   0 702.940 65.6217   8
  -3   1   0 813.911 73.1757  10
  -4  -1   0 8.64372 1.90454   2
  -4  -1   0 14.1643 2.71374   7
   4  -1   0 8.49749 1.70010   7
  -4  -1   0 14.8092 1.91945   8
   4  -1   0 8.07697 1.73058   2
   4  -1   0 11.0227 1.60483   5
  -4  -1   0 12.2415 1.35972   8
   4  -1   0 8.18038 1.95005  10
   4  -1   0 9.26935 1.57681  10
   4   1   0 6.64482 1.85572   2
  -4   1   0 5.19279 1.68280   2
  -4   1   0 7.18444 1.62766   9
  -4   1   0 15.9655 3.90549   7
  -5  -1   0 81.9740 7.07845   8
   5  -1   0 67.0888 7.55704   2
   5  -1   0 79.6979 7.94935  10
  -5  -1   0 73.7156 8.03079   7
   5  -1   0 80.3107 7.17922   5
   5  -1   0 66.3714 7.81084  10
  -5  -1   0 84.0238 7.47023   8
   5  -1   0 72.6686 7.91522   1
  -5  -1   0 92.1784 7.88574   2
  -5   1   0 71.2032 7.66833   2
   5   1   0 85.1734 7.84727   2
  -5   1   0 91.5506 7.65969   9
  -5   1   0 71.7323 7.27440   8
  -5   1   0 75.1336 9.44386   7
   5   1   0 92.0310 8.05856   6
   6  -1   0 8.03034 1.32094   7
  -6  -1   0 6.58214 2.08813   7
  -6  -1   0 12.9010 2.70164   8
   6  -1   0 7.97788 1.18280   5
  -6  -1   0 8.56300 1.88654   2
  -6  -1   0 5.98665 1.12793   8
   6  -1   0 6.89041 1.63297   2
  -6   1   0 7.14268 1.50670   8
   6   1   0 6.63275 1.74735   2
  -6   1   0 8.39669 1.93755   2
   6   1   0 6.98257 1.48858   1
  -6   1   0 6.99997 3.10277   7
   6   1   0 8.23983 1.54545   1
   6   1   0 8.96750 2.02632   6
   7  -1   0 358.577 36.3313   2
  -7  -1   0 389.280 35.0547   8
  -7  -1   0 466.822 36.2255   8
   7  -1   0 389.686 36.0185   1
  -7   1   0 378.905 35.3015   8
   7   1   0 437.145 35.5136   1
   7   1   0 391.330 36.5176   2
  -8  -1   0 3.93508 1.12128   8
   8  -1   0 5.59150 2.32249   1
   8  -1   0 4.62111 1.51473   2
  -8   1   0 5.45778 1.53386   8
   8   1   0 7.48726 1.76557   1
  -8   1   0 3.37150 2.70448   7
   8   1   0 5.09705 1.79339   2
   9  -1   0 55.2602 6.82388   1
  -9  -1   0 62.2932 5.81890   8
  -9   1   0 59.1413 6.23054   8
   9   1   0 56.4818 6.16584   1
 -10  -1   0 13.1432 2.31187   8
  10  -1   0 14.4396 3.36544   1
  10   1   0 14.9963 2.79435   1
 -10   1   0 18.0938 2.93946   8
  11  -1   0 68.9087 9.22015   1
 -11  -1   0 96.3976 8.64523   8
  11   1   0 92.2463 8.98244   1
 -11   1   0 88.2047 8.99058   8
  12  -1   0 5.07321 2.41938   6
  12  -1   0 1.20993 2.16406   1
 -12  -1   0 2.21261 1.64684   8
 -12   1   0 3.27231 2.05773   8
 -13  -1   0 57.2024 6.54352   8
  13  -1   0 72.3645 7.50864   1
 -13   1   0 48.8371 6.59382   8
   0  -2   0 6987.81 650.221   9
   0  -2   0 7474.98 692.438  10
   0   2   0 6937.17 691.866  10
   0   2   0 6845.94 627.474   7
   0   2   0 7385.43 649.801   9
   1  -2   0 8.12437 2.19134   9
  -1  -2   0 8.44284 3.21670   2
  -1  -2   0 16.3639 2.98622  10
  -1  -2   0 11.4086 2.38438   9
   1  -2   0 13.1935 3.02998  10
  -1  -2   0 19.3271 2.85419  10
   1  -2   0 11.9607 3.10062   6
  -1   2   0 15.4722 3.99423  10
   1   2   0 6.42195 2.19794  10
  -1   2   0 10.6169 4.08706   6
  -1   2   0 8.70883 2.56903  10
   1   2   0 13.8996 2.81570  10
  -1   2   0 6.28089 2.57016   9
   1   2   0 16.9931 3.26893   6
  -1   2   0 11.8745 3.82579   7
   2  -2   0 2483.72 234.730  10
   2  -2   0 2713.91 218.412   6
   2  -2   0 2343.81 235.331  10
   2  -2   0 2062.63 216.942   2
  -2  -2   0 2425.12 217.273   2
   2  -2   0 2456.93 220.400   9
  -2   2   0 2459.66 234.845  10
   2   2   0 2195.00 217.377   6
  -2   2   0 2199.96 218.868   6
  -2   2   0 2274.19 214.261   7
  -2   2   0 2500.88 220.473   9
  -2   2   0 2668.89 248.217   3
   2   2   0 2632.88 217.445   2
   3  -2   0 4.69641 1.58425  10
   3  -2   0 3.34650 1.23099   9
   3  -2   0 6.74749 2.40607  10
   3  -2   0 5.15801 1.52871   2
  -3  -2   0 5.09989 1.70315   2
   3  -2   0 4.24331 1.66502   7
   3  -2   0 5.99876 1.62931   9
  -3   2   0 5.49279 1.40945   9
   3   2   0 6.21487 1.92339   2
  -3   2   0 3.67032 1.58918   2
  -3   2   0 6.45550 3.59887   6
  -3   2   0 9.12827 1.96087  10
  -3   2   0 9.31305 3.71606  10
  -3   2   0 3.76050 3.30684   7
   3   2   0 5.23778 1.27390   6
   4  -2   0 5334.93 451.039   7
   4  -2   0 4977.91 497.322  10
  -4  -2   0 5519.32 460.180   2
   4  -2   0 5768.53 460.584   2
   4  -2   0 5311.10 467.198   9
   4  -2   0 4668.76 497.107  10
  -4   2   0 5080.22 498.377  10
   4   2   0 4459.71 460.373   6
  -4   2   0 5228.52 452.533   7
  -4   2   0 5218.43 459.542   2
  -4   2   0 4574.42 461.872   6
  -4   2   0 5002.55 446.239   8
   4   2   0 5503.86 459.730   2
   5  -2   0 27.1048 3.26854   2
  -5  -2   0 31.3724 3.62065   2
   5  -2   0 25.4197 3.74022  10
   5  -2   0 25.5424 3.21261  10
  -5  -2   0 26.2697 2.79493   8
  -5  -2   0 34.6892 3.60425   7
   5  -2   0 29.9226 3.35754   7
   5  -2   0 36.1794 4.80082   1
   5  -2   0 25.4533 2.75492   9
   5  -2   0 25.5649 2.78632   9
  -5   2   0 31.5276 3.33662   9
  -5   2   0 25.3599 3.39152   2
   5   2   0 26.1472 3.63360   2
   5   2   0 25.2588 3.23652   6
  -5   2   0 33.9013 3.37867   8
  -5   2   0 28.2600 5.47187   7
   6  -2   0 1211.57 121.045  10
  -6  -2   0 1177.77 108.691   8
   6  -2   0 1308.45 110.439   1
   6  -2   0 1279.16 112.283   2
  -6  -2   0 1205.06 112.468   2
   6  -2   0 1326.51 109.014   5
   6  -2   0 1157.11 121.190  10
   6  -2   0 1364.08 110.151   7
   6   2   0 1411.73 112.545   6
  -6   2   0 1237.39 109.102   8
  -6   2   0 1234.66 111.990   7
   6   2   0 1232.14 112.576   2
   6   2   0 1142.95 109.250   1
  -6   2   0 1176.28 112.392   2
   7  -2   0 18.5986 3.73219   1
   7  -2   0 21.3349 2.86129   2
   7  -2   0 23.5451 2.39032   5
  -7  -2   0 20.3394 2.21203   8
   7  -2   0 18.3941 2.27812  10
   7  -2   0 19.8397 2.22157  10
  -7   2   0 23.3453 3.00306   8
   7   2   0 20.6263 2.67649   1
  -7   2   0 20.7142 4.77545   7
   7   2   0 22.7476 3.34023   2
   8  -2   0 2254.01 213.089   2
   8  -2   0 2131.44 208.515   1
  -8  -2   0 2434.70 206.655   8
  -8   2   0 2120.60 210.321   7
  -8   2   0 2660.92 207.266   8
   8   2   0 2611.16 207.754   1
  -9  -2   0 67.4550 6.12657   8
   9  -2   0 46.3937 7.27643   1
  -9   2   0 50.8266 7.81417   7
   9   2   0 72.4180 6.50897   1
  -9   2   0 66.0077 6.87585   8
  10  -2   0 365.234 37.6068   1
  10  -2   0 375.917 38.6914   6
 -10  -2   0 441.339 36.5202   8
 -10   2   0 456.412 37.1937   8
  11  -2   0 41.2406 6.27800   6
  11  -2   0 51.9054 6.66910   1
 -11  -2   0 46.5550 4.93097   8
 -11   2   0 42.8724 5.61502   8
 -12  -2   0 868.787 78.4170   8
  12  -2   0 941.337 79.6887   1
 -12   2   0 870.246 78.9166   8
 -13  -2   0 63.8908 7.14761   8
  13  -2   0 72.4086 8.23291   1
   0  -3   0 0.81874 1.51668   9
   0  -3   0 0.16618 2.09705  10
   0  -3   0 0.93481 1.52966  10
   0  -3   0 0.62930 1.95287   6
   0   3   0 -0.7498 2.19108   6
   0   3   0 0.08514 1.90444  10
   0   3   0 3.33023 1.73057   9
   0   3   0 1.23959 2.32499  10
   0   3   0 1.33522 1.39941   9
   0   3   0 1.78553 2.48908   7
  -1  -3   0 1490.05 130.515   9
   1  -3   0 1592.03 130.757   9
  -1  -3   0 1283.12 128.467   2
   1  -3   0 1603.92 139.522  10
   1  -3   0 1472.79 131.122   9
   1  -3   0 1264.95 129.306   6
  -1  -3   0 1519.81 138.852  10
  -1  -3   0 1545.68 124.743   8
  -1   3   0 1292.28 130.847   9
  -1   3   0 1350.78 139.107  10
  -1   3   0 1225.97 125.707   5
   1   3   0 1530.28 126.619   7
  -1   3   0 1195.40 139.616  10
   1   3   0 1375.17 138.976  10
   1   3   0 1583.57 129.491   6
  -1   3   0 1408.90 127.111   7
  -1   3   0 1426.48 130.410   9
   2  -3   0 11.1420 2.75829   7
   2  -3   0 7.87084 2.40151   9
   2  -3   0 7.62836 1.67844   9
   2  -3   0 9.04993 2.90935  10
  -2  -3   0 9.90819 1.85162   9
   2  -3   0 6.59204 2.04403   2
  -2  -3   0 15.2061 1.79766   8
  -2  -3   0 16.3867 2.85813   2
   2  -3   0 9.78730 2.38480  10
  -2   3   0 6.99448 3.13123   5
  -2   3   0 8.31765 3.52029   7
  -2   3   0 8.68867 2.69398   9
  -2   3   0 5.07247 3.13019   6
  -2   3   0 6.07492 1.75796   9
  -2   3   0 7.08099 3.40138  10
  -2   3   0 7.09634 2.51488   3
   2   3   0 7.60779 2.09374   6
   3  -3   0 1153.71 119.928  10
   3  -3   0 1347.27 112.531   9
   3  -3   0 1111.42 112.863   9
   3  -3   0 1389.00 109.339   7
  -3  -3   0 1255.40 107.331   8
   3  -3   0 1235.18 109.184   1
   3  -3   0 1217.55 110.885   2
  -3  -3   0 1104.01 111.117   2
  -3  -3   0 1244.38 108.673   7
   3  -3   0 1222.43 120.612  10
   3   3   0 1241.85 111.043   6
  -3   3   0 1112.06 121.062  10
  -3   3   0 1037.71 126.850   3
  -3   3   0 1297.52 110.472   7
  -3   3   0 1313.53 109.373   5
  -3   3   0 1178.37 112.534   9
  -3   3   0 1350.74 120.165  10
   3   3   0 1311.33 111.547   2
  -4  -3   0 13.0672 1.81487   8
  -4  -3   0 18.8587 3.09330   2
   4  -3   0 15.9452 2.52923   2
  -4  -3   0 19.7708 3.23201   4
   4  -3   0 16.2239 2.65287  10
   4  -3   0 16.9757 3.51612  10
   4  -3   0 21.1889 2.90713   7
   4  -3   0 19.5206 3.77978   1
  -4  -3   0 18.0322 2.18357   7
   4  -3   0 17.3152 2.22920   9
   4  -3   0 16.7041 2.54838   9
  -4   3   0 14.7990 4.35464  10
  -4   3   0 19.2423 2.46182   8
  -4   3   0 14.7136 3.95054   6
  -4   3   0 18.1544 3.01764  10
  -4   3   0 17.8491 4.58448   5
   4   3   0 21.2484 3.36485   2
   4   3   0 17.3011 2.28388   6
  -4   3   0 15.1608 4.41864   7
  -4   3   0 11.2215 2.31139   9
  -4   3   0 26.0633 4.01041   3
   5  -3   0 858.907 71.5258   7
   5  -3   0 854.634 78.5230  10
  -5  -3   0 794.396 71.1798   7
  -5  -3   0 796.696 72.9884   2
   5  -3   0 723.794 78.9024  10
   5  -3   0 821.986 73.5549   9
   5  -3   0 914.290 74.1963   6
   5  -3   0 900.006 72.0863   1
  -5  -3   0 752.390 70.2940   8
   5  -3   0 759.482 73.6262   9
   5  -3   0 714.628 72.6239   2
   5   3   0 855.264 73.1672   2
  -5   3   0 727.301 73.0771   7
  -5   3   0 860.200 83.9402   3
   5   3   0 812.041 72.6768   6
   5   3   0 866.880 70.7151   1
  -5   3   0 751.671 70.6394   8
  -5   3   0 702.934 72.4641   5
   6  -3   0 17.6679 2.64690  10
   6  -3   0 17.5846 4.00522   6
   6  -3   0 23.0881 2.88500   2
   6  -3   0 18.5192 2.15440   9
  -6  -3   0 21.7847 2.34613   8
   6  -3   0 18.3757 2.15022   9
   6  -3   0 20.5687 2.95763   7
   6  -3   0 13.7520 3.59143   1
   6  -3   0 21.6845 3.35464  10
   6   3   0 18.7261 2.48947   1
  -6   3   0 17.6247 4.80062   5
   6   3   0 23.4449 3.50690   2
  -6   3   0 21.0197 4.36023   3
  -6   3   0 23.6744 5.39455   7
  -6   3   0 23.1196 3.02290   8
   7  -3   0 506.001 50.0297   6
   7  -3   0 456.917 48.4758   1
   7  -3   0 552.301 47.8142   7
   7  -3   0 455.600 52.2477  10
   7  -3   0 520.268 52.4540  10
   7  -3   0 521.709 52.4370  10
  -7  -3   0 559.139 46.9585   8
   7  -3   0 588.220 47.2719   5
  -7   3   0 605.929 47.6011   8
   7   3   0 574.680 47.2776   1
   7   3   0 498.981 49.1013   2
  -7   3   0 538.539 49.9050   7
  -7   3   0 578.990 56.8892   3
   8  -3   0 18.9181 2.43789  10
   8  -3   0 20.6036 4.30910   6
   8  -3   0 19.5104 4.24452   1
  -8  -3   0 21.5316 2.42211   8
   8  -3   0 22.7618 2.66458   5
   8  -3   0 18.8985 2.39827  10
   8   3   0 22.5318 2.88828   1
  -8   3   0 17.9123 5.01261   7
  -8   3   0 22.6096 3.31785   8
  -8   3   0 19.0876 4.85510   3
  -9  -3   0 288.449 25.2988   8
   9  -3   0 285.342 27.6623   6
   9  -3   0 297.871 27.0789   1
  -9   3   0 267.256 27.4719   7
  10  -3   0 13.7276 3.59375   6
 -10  -3   0 16.1362 2.18079   8
  10  -3   0 12.0703 3.65930   1
 -10   3   0 17.5302 4.21287   7
 -10   3   0 11.2499 2.59114   8
  11  -3   0 173.043 18.6331   1
  11  -3   0 214.434 19.3359   6
 -11  -3   0 187.458 17.2951   8
 -12  -3   0 11.1366 2.19229   8
  12  -3   0 9.04403 3.26757   1
 -13  -3   0 127.974 11.7990   8
  13  -3   0 115.059 12.7279   1
   0  -4   0 1566.72 155.506   6
   0  -4   0 1808.91 157.272   9
   0  -4   0 1709.44 150.239   8
   0  -4   0 1798.55 167.949  10
   0  -4   0 1707.96 167.269  10
   0   4   0 1662.52 157.236   9
   0   4   0 1652.66 156.877   9
   0   4   0 1730.27 152.538   7
   0   4   0 1973.54 151.870   1
   0   4   0 1521.61 151.027   5
   0   4   0 1786.51 156.077   6
  -1  -4   0 8.96322 1.87260   8
  -1  -4   0 4.12834 1.72300   2
   1  -4   0 10.7225 3.08176   6
   1  -4   0 8.33263 2.51666  10
  -1  -4   0 6.04979 1.87561   9
   1  -4   0 7.33957 2.67906  10
   1  -4   0 9.43396 2.63541   9
  -1   4   0 6.15213 3.10578  10
  -1   4   0 6.16175 1.65946   9
   1   4   0 9.83062 2.72334  10
  -1   4   0 8.12899 3.22749   6
   1   4   0 14.8996 2.99730   5
  -1   4   0 6.01834 2.14489  10
   1   4   0 11.5510 3.02913   7
  -1   4   0 11.2427 3.28567   5
   1   4   0 10.1569 2.56158  10
  -1   4   0 7.49578 2.44041   9
  -1   4   0 11.3687 3.42784   1
  -1   4   0 4.64594 1.61945   9
   1   4   0 14.3034 3.21896   1
   2  -4   0 3152.99 334.528  10
  -2  -4   0 3385.81 309.018   2
   2  -4   0 3477.47 314.683   9
   2  -4   0 4065.83 304.650   7
   2   4   0 3283.61 303.385   7
   2   4   0 3709.87 301.760   1
  -2   4   0 3821.23 334.357  10
  -2   4   0 3124.32 310.975   6
  -2   4   0 3461.31 301.685   5
   2   4   0 3028.00 300.287   5
  -2   4   0 3745.35 353.307   3
   2   4   0 3287.66 310.095   6
  -2   4   0 3453.34 313.953   9
  -2   4   0 3203.82 314.458   9
  -2   4   0 3464.51 304.448   7
  -3  -4   0 1.48759 0.99146   8
  -3  -4   0 5.18773 2.15063   2
   3  -4   0 3.27004 2.04289   9
  -3  -4   0 5.46217 1.28746   8
   3  -4   0 -0.1898 1.30411   2
   3  -4   0 1.87020 2.39260   1
   3  -4   0 5.64687 2.98812  10
   3  -4   0 1.37391 1.62743  10
   3  -4   0 3.84631 2.44806   6
   3  -4   0 2.79292 1.31374   9
   3  -4   0 4.79045 2.36385   7
  -3   4   0 1.86728 1.30914   9
  -3   4   0 0.53891 1.84425   3
  -3   4   0 1.45372 2.67824   5
  -3   4   0 4.20934 1.76165  10
  -3   4   0 1.13515 2.39832  10
   3   4   0 4.49536 2.01555   1
   3   4   0 4.85688 1.96244   6
  -3   4   0 -0.4221 2.69251   6
  -3   4   0 6.11508 3.18060   7
  -3   4   0 4.02406 3.11033   1
   4  -4   0 1372.26 110.677   7
   4  -4   0 1231.24 113.788   9
  -4  -4   0 1070.10 108.419   8
   4  -4   0 1338.04 114.214   9
  -4  -4   0 1274.05 108.637   8
  -4  -4   0 1299.96 117.625   4
   4  -4   0 1126.77 121.214  10
   4  -4   0 1376.37 112.320   2
   4   4   0 1109.91 112.787   2
  -4   4   0 1149.60 110.541   5
   4   4   0 1361.43 109.541   1
  -4   4   0 1046.82 108.941   8
  -4   4   0 1252.49 113.946   9
  -4   4   0 1326.00 111.922   7
   4   4   0 1442.08 112.485   6
  -4   4   0 1123.99 113.772   6
   5  -4   0 1.83347 2.40980   6
   5  -4   0 1.73040 1.61199   7
   5  -4   0 3.35670 1.42516  10
   5  -4   0 5.03806 2.71747   1
  -5  -4   0 3.81140 1.96743   4
   5  -4   0 3.92852 1.48901   9
  -5  -4   0 2.11977 0.92036   8
   5  -4   0 4.30665 2.33229  10
   5  -4   0 3.68399 1.68136   2
  -5  -4   0 3.75295 1.23617   8
  -5   4   0 4.07209 1.59874   8
   5   4   0 4.86221 1.59893   1
  -5   4   0 4.25185 1.58721   9
  -5   4   0 -0.7225 2.68430   7
  -5   4   0 0.51202 1.95669   3
  -5   4   0 1.80320 3.21376   5
   5   4   0 -1.3228 1.93927   2
  -5   4   0 5.75342 3.30199   1
   6  -4   0 2382.26 191.226   6
  -6  -4   0 1846.99 183.625   8
   6  -4   0 1931.94 185.711   1
   6  -4   0 1983.85 204.605  10
   6  -4   0 1982.22 192.091   9
  -6  -4   0 2310.91 183.720   8
   6  -4   0 1909.23 205.025  10
   6  -4   0 2392.44 186.068   7
   6   4   0 1996.09 189.953   2
  -6   4   0 2240.64 184.101   8
   6   4   0 2178.64 184.445   1
  -6   4   0 2003.99 187.779   7
  -6   4   0 2461.74 186.768   5
  -6   4   0 1910.78 216.798   3
  -7  -4   0 23.4536 2.93825   8
  -7  -4   0 17.4532 2.48611   8
   7  -4   0 24.1348 3.58379  10
   7  -4   0 16.8982 2.14254   9
   7  -4   0 20.4724 4.61870   1
   7  -4   0 19.1683 3.15180   7
   7  -4   0 24.6394 4.74217   6
   7  -4   0 17.5022 2.80208  10
   7  -4   0 23.6072 2.25962   9
  -7  -4   0 24.7229 4.27881   4
  -7   4   0 17.9881 5.23601   7
  -7   4   0 13.1626 5.18244   5
   7   4   0 20.5110 2.80713   1
  -7   4   0 24.7291 4.84537   3
  -7   4   0 15.7190 3.18812   8
   8  -4   0 628.291 58.4320  10
   8  -4   0 565.328 58.3189  10
  -8  -4   0 563.723 52.4000   8
  -8  -4   0 666.201 57.9086   4
   8  -4   0 588.080 55.7020   6
  -8   4   0 628.864 55.6538   7
  -8   4   0 555.237 63.0426   3
   9  -4   0 12.4219 3.82184   6
   9  -4   0 19.2636 4.43753   1
   9  -4   0 19.6008 2.54251   5
  -9  -4   0 17.3004 2.36176   8
  -9  -4   0 22.4615 4.40608   4
   9  -4   0 15.2066 2.12152  10
  -9   4   0 19.5525 5.12523   7
  -9   4   0 18.2287 4.75890   3
  10  -4   0 856.580 79.0587   6
  10  -4   0 810.681 76.9948   1
 -10  -4   0 912.103 75.2133   8
 -10   4   0 840.422 78.0144   7
 -11  -4   0 44.9871 4.84186   8
  11  -4   0 45.2426 6.84956   1
  11  -4   0 51.6968 7.10351   6
 -11   4   0 42.7516 7.13193   7
 -12  -4   0 192.940 17.6329   8
  12  -4   0 194.153 19.0998   1
  13  -4   0 12.4931 3.66273   1
 -13  -4   0 22.5041 3.01692   8
   0  -5   0 0.64429 1.53696   6
   0  -5   0 -1.1503 1.55592   4
   0  -5   0 0.63787 2.36153  10
   0  -5   0 3.05108 1.40362   8
   0  -5   0 2.67084 1.51270   9
   0   5   0 2.26841 2.18380   5
   0   5   0 2.09920 2.29107  10
   0   5   0 -0.8410 1.35157  10
   0   5   0 0.00254 0.75624   9
   0   5   0 -0.1213 1.36426   9
   0   5   0 -0.9707 1.97409   7
   0   5   0 -0.2630 1.90958   1
  -1  -5   0 800.691 71.5412   8
   1  -5   0 787.258 74.7860   6
   1  -5   0 825.465 79.9087  10
   1  -5   0 814.662 75.2411   9
   1  -5   0 769.188 71.7460   8
   1  -5   0 725.431 80.2341  10
   1  -5   0 946.355 72.9943   1
   1  -5   0 853.985 78.1764   4
  -1   5   0 797.721 80.7719  10
   1   5   0 717.864 79.8661  10
  -1   5   0 851.932 75.1155   6
  -1   5   0 884.888 74.7533   9
   1   5   0 847.393 72.7303   1
  -1   5   0 711.826 75.2582   9
   1   5   0 819.883 72.2649   5
  -1   5   0 876.403 73.5751   7
  -1   5   0 941.997 79.7951  10
  -1   5   0 725.155 72.7410   1
   1   5   0 801.303 73.0542   7
  -1   5   0 794.490 72.7971   5
   2  -5   0 23.5978 4.43582   6
   2  -5   0 14.0380 3.22449   9
  -2  -5   0 19.1664 2.47153   8
   2  -5   0 28.0031 5.15009   4
   2  -5   0 31.5340 4.95258  10
   2  -5   0 18.9123 4.11456   1
   2  -5   0 24.4144 4.54736   7
   2   5   0 18.6834 3.58902   1
   2   5   0 17.5674 2.32676  10
  -2   5   0 13.0954 2.62220   9
  -2   5   0 15.0474 3.45160   9
  -2   5   0 14.1762 2.52077   9
   2   5   0 20.5399 2.24096  10
  -2   5   0 17.6532 4.01734   7
  -2   5   0 10.3604 3.66860   5
   2   5   0 15.6732 2.71398   5
  -2   5   0 14.9857 4.49390  10
  -2   5   0 21.7483 4.70577   6
  -2   5   0 23.8767 3.99697   3
   2   5   0 24.9240 3.50356   7
  -2   5   0 19.5595 3.30237  10
  -2   5   0 16.8660 4.06889   1
  -3  -5   0 350.841 31.4368   8
   3  -5   0 413.317 33.3008   1
   3  -5   0 402.715 33.4126   7
  -3  -5   0 339.040 31.4281   8
   3  -5   0 330.165 33.9354   9
   3  -5   0 339.724 33.0773   2
  -3  -5   0 331.214 33.9833   4
   3   5   0 416.677 32.5839   1
  -3   5   0 353.674 33.3999   5
  -3   5   0 321.397 37.5396   3
  -3   5   0 366.337 33.7033   7
  -3   5   0 338.429 33.2180   1
  -3   5   0 359.988 34.4124   6
  -4  -5   0 32.7066 4.34004   4
   4  -5   0 27.9874 4.27827   2
   4  -5   0 42.6481 5.22761   9
   4  -5   0 24.9814 4.66687   7
   4  -5   0 49.7933 6.99384   6
  -4  -5   0 31.9485 3.74865   8
  -4  -5   0 37.1682 3.57047   8
   4  -5   0 48.2244 6.80395   1
  -4   5   0 42.7130 6.39705   1
   4   5   0 34.9526 4.47093   1
  -4   5   0 32.6378 6.12395   7
  -4   5   0 29.8141 5.20317   3
  -4   5   0 36.7447 6.64965   5
  -4   5   0 34.8601 4.42286   9
   5  -5   0 722.318 60.0757   9
   5  -5   0 630.039 58.9724   2
   5  -5   0 679.019 58.2731   7
  -5  -5   0 630.193 56.6323   8
  -5  -5   0 681.607 56.8783   8
   5  -5   0 638.404 60.1684   6
  -5  -5   0 690.133 61.8720   4
   5  -5   0 581.818 63.7096  10
   5  -5   0 653.688 58.6051   1
  -5   5   0 674.218 59.1858   5
  -5   5   0 595.998 59.8334   9
  -5   5   0 594.034 58.6704   1
  -5   5   0 643.418 59.6586   7
   6  -5   0 44.4910 6.80107   1
   6  -5   0 40.4038 5.29415   7
   6  -5   0 41.9852 5.02650   9
   6  -5   0 43.2244 5.35541  10
  -6  -5   0 43.8434 4.74456   8
  -6  -5   0 43.1647 4.44462   8
   6  -5   0 38.8075 6.44065   6
  -6   5   0 52.4127 8.32876   5
  -6   5   0 47.3485 6.95182   1
  -6   5   0 45.7170 6.75679   3
   6   5   0 51.7227 5.10593   1
  -6   5   0 46.8320 7.87255   7
   7  -5   0 100.574 10.7751   6
  -7  -5   0 90.3755 8.55541   8
   7  -5   0 87.5797 10.3578   1
   7  -5   0 97.6227 9.13736   7
   7  -5   0 91.3426 8.67663   9
   7  -5   0 80.6170 9.44692  10
  -7   5   0 82.4989 11.3519   5
  -7   5   0 87.4004 11.4683   7
   7   5   0 94.6737 8.76022   1
  -7   5   0 73.2890 11.0089   3
  -8  -5   0 49.0936 5.37857   8
   8  -5   0 57.0552 6.16362   7
   8  -5   0 55.8197 8.15612   1
   8  -5   0 57.3962 7.81290   6
   8  -5   0 53.5634 6.06202  10
  -8   5   0 53.7010 7.95888   3
  -8   5   0 59.7626 9.04593   7
   9  -5   0 184.278 18.5032  10
   9  -5   0 192.823 19.0962   6
   9  -5   0 170.675 18.4684   1
  -9  -5   0 187.402 16.7086   8
  -9   5   0 187.398 19.6095   7
  -9   5   0 183.233 21.3125   3
  10  -5   0 14.9868 3.97137   1
 -10  -5   0 15.3883 2.34506   8
  10  -5   0 15.5430 3.83897   6
 -10   5   0 21.3538 5.10868   7
  11  -5   0 43.9370 6.89263   6
  11  -5   0 39.7744 6.66395   1
 -11  -5   0 48.1660 4.96605   8
 -11   5   0 51.4142 7.79618   7
 -12  -5   0 30.8723 3.75097   8
  12  -5   0 30.8940 5.48073   1
 -12   5   0 27.5043 5.25742   7
   0  -6   0 664.342 62.9480   4
   0   6   0 713.297 59.6077   5
   0   6   0 639.880 60.0282   7
   0   6   0 668.207 65.9006  10
   0   6   0 663.451 60.7678   9
   0   6   0 700.672 61.2004   9
   0   6   0 584.657 59.4312   1
   1  -6   0 23.6239 4.13084   1
   1  -6   0 16.8731 3.38444   4
   1  -6   0 19.1508 3.21011   9
   1  -6   0 16.6212 2.69250   8
  -1  -6   0 18.7912 2.60641   8
   1   6   0 12.9732 3.34798   7
  -1   6   0 12.7381 3.56360   7
   1   6   0 18.6350 3.75053   1
   1   6   0 18.4780 3.28438  10
   1   6   0 15.4929 3.24508   5
  -1   6   0 11.5666 3.75296  10
  -1   6   0 11.2433 2.15480   9
   1   6   0 19.9976 2.78747  10
  -1   6   0 12.8547 3.72492   5
  -1   6   0 16.5422 2.79948  10
  -1   6   0 13.0731 3.79669   1
   2  -6   0 3800.05 340.764   4
   2  -6   0 3763.64 319.937   7
   2  -6   0 3644.82 317.416   1
   2  -6   0 4038.00 330.271   9
  -2  -6   0 3807.63 315.005   8
   2   6   0 3787.62 318.775   7
   2   6   0 3586.91 315.470   5
   2   6   0 3018.13 316.928   1
  -2   6   0 3244.99 317.416   1
  -2   6   0 3254.57 352.039  10
   2   6   0 3750.26 350.253  10
  -2   6   0 3791.82 329.637   9
  -2   6   0 3771.29 316.961   5
   2   6   0 3348.93 350.265  10
   3  -6   0 21.8305 4.83433   4
   3  -6   0 18.2846 3.73891   9
  -3  -6   0 21.7860 2.59093   8
   3  -6   0 21.6010 4.44696   7
   3  -6   0 19.1749 4.11941   1
  -3   6   0 18.3458 4.66130   1
   3   6   0 24.0929 4.00437   1
  -3   6   0 16.0908 4.24854   7
  -3   6   0 19.9462 3.07560   9
  -3   6   0 21.0755 4.80742   5
   4  -6   0 367.893 31.4908   1
   4  -6   0 335.656 32.4055   6
  -4  -6   0 356.087 29.4014   8
   4  -6   0 309.100 31.6823   9
   4  -6   0 340.129 31.0337   7
  -4   6   0 381.723 31.9150   5
  -4   6   0 308.194 31.3272   1
   4   6   0 340.240 30.2313   1
  -4   6   0 291.748 31.5609   7
  -4   6   0 289.751 35.0706   3
  -4   6   0 341.523 31.1913   9
  -5  -6   0 2.19511 0.92078   8
   5  -6   0 1.48412 2.14376   7
   5  -6   0 2.35079 2.11737   9
   5  -6   0 4.80964 2.77796   1
   5  -6   0 1.77898 2.67262   6
   5   6   0 2.72343 1.98802   1
  -5   6   0 3.99860 2.96401   1
  -5   6   0 3.05675 1.88240   3
  -5   6   0 0.65130 1.48133   9
  -5   6   0 3.00884 3.20947   7
  -5   6   0 2.78839 3.39877   5
   6  -6   0 1741.18 159.916   1
   6  -6   0 1602.84 160.136   7
   6  -6   0 1663.38 164.325   6
  -6  -6   0 1934.92 157.689   8
   6  -6   0 1958.77 165.560   9
  -6   6   0 1876.98 161.796   7
   6   6   0 1914.87 158.829   1
  -6   6   0 1567.72 159.949   5
  -6   6   0 1975.96 186.413   3
  -7  -6   0 1.82117 1.13093   8
   7  -6   0 3.56026 2.86819   6
   7  -6   0 2.58606 1.89006   7
   7  -6   0 3.71965 3.05002   1
   7  -6   0 2.67335 1.39338   9
  -7   6   0 4.58733 3.34962   5
  -7   6   0 1.54065 3.12241   7
   7   6   0 6.51170 1.90851   1
  -7   6   0 4.09559 2.54850   3
   8  -6   0 16.8483 3.11971   7
   8  -6   0 20.6811 4.96099   1
   8  -6   0 14.5305 4.45139   6
  -8  -6   0 17.4163 2.49058   8
  -8   6   0 6.66737 4.53903   5
  -8   6   0 12.6899 3.88743   3
  -8   6   0 22.6863 5.30837   7
  -9  -6   0 0.70382 1.42406   8
   9  -6   0 3.21033 2.80860   6
   9  -6   0 -1.4010 2.60636   1
   9  -6   0 4.20512 1.81686   5
  -9   6   0 1.68086 3.22179   7
  -9   6   0 2.86273 2.94581   3
 -10  -6   0 681.203 62.6849   8
 -10   6   0 759.464 65.7764   7
 -10   6   0 711.327 74.9999   3
 -11  -6   0 10.8002 2.08919   8
  11  -6   0 7.92440 3.41970   1
 -11   6   0 13.6466 4.36457   7
 -12  -6   0 6.75015 1.74852   8
  12  -6   0 4.68721 2.91410   1
   0  -7   0 5.69467 1.58903   8
   0   7   0 1.00444 2.03636  10
   0   7   0 2.59196 1.26643  10
   0   7   0 -1.0797 1.92849   1
   0   7   0 1.45046 0.87106   9
   0   7   0 -2.2518 1.92966   7
   0   7   0 -0.4655 1.93709   5
  -1  -7   0 15.9630 2.48748   8
   1  -7   0 11.9450 2.53151   4
   1  -7   0 15.0258 3.24463   1
  -1   7   0 12.3446 3.66170   7
  -1   7   0 11.6980 1.93207   9
  -1   7   0 13.7337 4.08991  10
   1   7   0 14.9748 3.24593   7
   1   7   0 10.9169 3.22893   1
  -1   7   0 9.28010 3.14995   1
   1   7   0 16.1816 2.89332  10
  -1   7   0 13.6217 3.62412   5
   1   7   0 14.1494 2.93219   5
  -2  -7   0 0.76154 1.06745   8
   2  -7   0 4.78077 2.59156   1
   2  -7   0 1.37399 1.83126   4
   2  -7   0 0.73687 2.15360   7
  -2   7   0 0.73032 1.07494   9
   2   7   0 1.13920 1.96582   1
  -2   7   0 3.28400 2.48121   1
  -2   7   0 -0.9430 2.18648   5
  -2   7   0 -0.0882 2.61283   7
   2   7   0 5.45016 1.46376   5
   3  -7   0 1.04229 2.15627   1
   3  -7   0 2.56984 1.82219   9
   3  -7   0 11.4966 3.26004   7
  -3  -7   0 3.79244 1.24933   8
  -3   7   0 11.7630 3.77282   5
  -3   7   0 6.78524 1.63992   9
  -3   7   0 5.21822 3.29842   7
   3   7   0 7.62859 2.55204   1
  -3   7   0 4.21251 2.74964   1
   4  -7   0 3.72580 2.07715   9
  -4  -7   0 4.59003 1.16718   8
   4  -7   0 2.97149 2.52125   7
   4  -7   0 3.19702 2.67114   1
  -4   7   0 3.93076 3.01862   1
  -4   7   0 6.47362 1.87079   9
   4   7   0 5.06386 2.20535   1
  -4   7   0 5.59503 3.44000   7
  -4   7   0 7.18538 1.83615   9
  -4   7   0 5.49090 3.22456   5
  -5  -7   0 37.0027 4.08978   8
   5  -7   0 35.1237 5.98817   1
   5  -7   0 44.8255 5.92798   9
   5  -7   0 36.0667 5.83590   7
  -5   7   0 41.3849 7.11658   5
  -5   7   0 41.7288 5.13036   9
  -5   7   0 42.2457 6.52179   1
   5   7   0 42.9800 5.29305   1
  -5   7   0 49.8000 6.09052   3
  -5   7   0 50.5150 7.52592   7
   6  -7   0 -0.1065 2.15390   1
   6  -7   0 0.33926 2.00767   7
   6  -7   0 1.37150 1.98119   9
  -6  -7   0 1.06358 0.85278   8
  -6   7   0 1.55788 1.99276   3
  -6   7   0 1.85050 2.76734   1
  -6   7   0 -0.4848 2.58208   7
  -6   7   0 2.74293 2.97036   5
   6   7   0 1.28477 1.78549   1
   7  -7   0 1.12456 1.89430   7
   7  -7   0 3.04022 2.53406   1
  -7  -7   0 3.21691 1.05303   8
  -7   7   0 4.96449 3.52257   7
   7   7   0 2.64095 1.79049   1
  -7   7   0 1.70640 1.98997   3
  -7   7   0 1.29089 3.46329   5
  -8  -7   0 4.36971 1.26666   8
   8  -7   0 2.05789 2.79639   1
   8  -7   0 2.15203 2.09489   7
  -8   7   0 5.62344 2.80527   3
  -8   7   0 4.25972 3.71194   7
  -8   7   0 2.58493 3.34566   5
  -9  -7   0 10.0264 1.83667   8
   9  -7   0 13.7526 3.96833   1
  -9   7   0 22.9286 5.29698   7
  -9   7   0 23.1127 5.65079   5
  10  -7   0 -1.2760 2.31201   1
 -10  -7   0 0.40458 1.31958   8
  10  -7   0 1.85805 1.76495   5
 -10   7   0 0.71414 2.70888   7
  11  -7   0 8.72294 3.49773   1
 -11  -7   0 11.4665 2.09979   8
 -11   7   0 11.8582 4.44995   7
   0   8   0 7.64613 2.58394   5
   0   8   0 4.80909 1.48257  10
   0   8   0 11.1232 3.00660  10
   0   8   0 2.53726 2.26665   1
  -1  -8   0 73.8746 6.06168   8
  -1   8   0 49.8926 7.84210  10
   1   8   0 51.6358 6.95957   1
   1   8   0 59.3256 6.47248  10
   1   8   0 64.6043 6.10907  10
  -1   8   0 62.9363 7.41833   5
  -1   8   0 45.7212 7.20677   7
  -1   8   0 52.9305 5.73083   9
  -1   8   0 37.9151 6.78348   1
   1   8   0 51.9596 6.25112   5
   2  -8   0 1310.29 124.399   7
  -2   8   0 1583.35 124.217   5
  -2   8   0 1397.26 127.950   9
   2   8   0 1415.79 122.341   5
  -2   8   0 1301.42 123.935   1
   2   8   0 1401.22 123.805   1
   3  -8   0 3.58855 2.41190   7
   3  -8   0 4.43996 2.49923   1
  -3  -8   0 5.04406 1.26768   8
  -3   8   0 6.77739 3.33343   7
   3   8   0 3.00734 2.13871   1
  -3   8   0 3.79805 2.87782   5
  -3   8   0 6.28023 1.57208   9
  -3   8   0 4.00570 2.80261   1
   4  -8   0 2.43543 2.32461   7
  -4  -8   0 4.77030 1.17045   8
   4  -8   0 6.97529 2.92130   1
   4  -8   0 2.45697 2.33455   9
  -4   8   0 2.92684 3.03499   5
  -4   8   0 1.12388 2.76984   1
  -4   8   0 4.57035 3.06264   7
  -4   8   0 7.40702 2.00003   9
   4   8   0 4.02916 2.09773   1
   5  -8   0 59.2586 8.21687   7
  -5  -8   0 72.8236 6.56694   8
   5  -8   0 69.0723 8.03386   9
   5  -8   0 65.8286 8.55223   1
  -5   8   0 79.7472 9.60211   5
  -5   8   0 77.1987 7.55781   9
  -5   8   0 79.4295 7.80954   9
  -5   8   0 54.6822 8.83458   1
   5   8   0 72.2730 7.68369   1
  -5   8   0 43.8754 8.42917   7
   6  -8   0 969.530 82.6636   1
   6  -8   0 910.531 82.6933   7
  -6  -8   0 947.514 80.5219   8
  -6   8   0 982.871 83.7864   7
  -6   8   0 776.177 82.5190   1
   6   8   0 935.842 81.6482   1
   7  -8   0 10.7546 3.65330   1
  -7  -8   0 12.1637 1.76132   8
   7  -8   0 10.9817 3.02179   7
  -7   8   0 10.4683 4.35744   5
   7   8   0 9.55052 2.49634   1
  -7   8   0 13.4986 4.31881   7
   8  -8   0 4.57799 2.99204   1
  -8  -8   0 7.91981 1.45984   8
   8  -8   0 4.20048 2.48230   7
  -8   8   0 7.35047 3.65212   7
  -8   8   0 4.15191 3.62190   5
   9  -8   0 30.5418 6.03547   1
  -9  -8   0 31.4615 3.51727   8
  -9   8   0 30.0152 5.82556   7
  -9   8   0 36.1198 6.81631   5
 -10  -8   0 438.574 36.4989   8
  10  -8   0 393.260 36.9977   5
 -10   8   0 397.868 39.1166   7
   0   9   0 1.24167 2.19238   1
   0   9   0 0.94214 1.13178  10
   0   9   0 1.31465 1.53263  10
   0   9   0 0.84490 1.74224   5
   1  -9   0 266.577 25.9196   7
  -1   9   0 279.029 26.6328   1
  -1   9   0 288.700 26.4523   5
   1   9   0 257.904 26.3343   1
  -1   9   0 316.666 27.0049   7
   1   9   0 283.589 25.5509   5
  -1   9   0 301.641 29.1835  10
   2  -9   0 1.35113 1.40549   7
  -2  -9   0 1.97035 1.19760   8
  -2   9   0 1.15592 2.40482   7
  -2   9   0 2.39341 2.61769   1
  -2   9   0 4.90460 2.69585   5
   2   9   0 4.01034 2.36556   1
   3  -9   0 241.669 24.0654   7
  -3  -9   0 280.124 23.0121   8
  -3   9   0 236.893 24.5590   1
  -3   9   0 272.998 24.7998   5
  -3   9   0 261.613 24.9922   7
   3   9   0 244.686 24.0054   1
   4  -9   0 -0.4941 1.92228   7
   4  -9   0 -0.2951 2.10489   1
  -4  -9   0 0.50838 0.85415   8
  -4   9   0 1.48695 2.74472   1
  -4   9   0 0.76014 2.64741   7
   4   9   0 1.61132 2.09535   1
  -4   9   0 2.57427 2.77153   5
   5  -9   0 185.921 22.7797   1
   5  -9   0 215.262 23.0651   7
  -5  -9   0 269.465 21.5138   8
  -5   9   0 267.617 24.0207   7
  -5   9   0 248.247 23.7130   5
  -5   9   0 255.749 23.7940   1
   6  -9   0 9.01592 3.28123   1
   6  -9   0 6.36115 2.74270   7
  -6  -9   0 9.58700 1.62385   8
   6   9   0 9.69530 2.61510   1
  -6   9   0 16.1865 4.62333   5
  -6   9   0 18.9681 4.47767   7
  -6   9   0 15.8570 4.16275   1
   7  -9   0 195.919 18.4300   7
  -7  -9   0 191.068 16.8733   8
   7  -9   0 155.700 18.4552   1
  -7   9   0 186.905 19.2259   5
  -7   9   0 214.427 19.6195   7
   8  -9   0 4.78133 2.86802   1
   8  -9   0 5.83630 2.55215   7
  -8   9   0 7.97061 3.60436   5
  -8   9   0 2.36259 2.81461   7
  -9  -9   0 144.754 12.2903   8
   9  -9   0 112.346 14.1771   1
  -9   9   0 134.259 14.4586   5
   0 -10   0 112.429 10.2332   7
   0  10   0 114.045 11.1760   1
   0  10   0 91.8623 10.1770   5
   1 -10   0 65.0690 6.88208   7
   1  10   0 60.3129 7.67694   1
  -1  10   0 63.4890 7.34240   5
  -1  10   0 76.7985 8.07440   1
   2 -10   0 76.5095 8.58933   7
   2  10   0 99.5826 9.67050   1
  -2  10   0 93.0273 9.63123   5
  -2  10   0 76.4180 9.60303   1
  -2  10   0 92.7831 9.88014   7
   3 -10   0 25.2341 4.14161   7
  -3  10   0 35.1444 5.62792   7
  -3  10   0 38.5355 5.73415   5
   3  10   0 43.1771 5.29790   1
  -3  10   0 37.3203 5.75112   1
   4 -10   0 107.096 11.7318   7
  -4 -10   0 128.836 10.7087   8
  -4  10   0 113.019 12.6187   1
  -4  10   0 118.271 12.5590   5
   4  10   0 106.763 11.7477   1
  -4  10   0 110.907 12.6148   7
  -5 -10   0 41.3075 4.47669   8
   5 -10   0 44.4909 6.34865   7
  -5  10   0 47.8298 6.94462   7
  -5  10   0 49.3358 7.01978   1
   5  10   0 50.7933 5.92864   1
  -5  10   0 40.9253 6.47647   5
  -6 -10   0 62.0847 5.77745   8
   6 -10   0 48.0463 7.53456   1
   6 -10   0 52.3401 7.35567   7
   6  10   0 62.5383 6.84133   1
  -6  10   0 64.5784 8.04984   5
  -6  10   0 68.7166 8.59201   1
  -6  10   0 56.5832 7.91485   7
   7 -10   0 7.36560 3.24673   1
  -7 -10   0 9.68649 1.59145   8
   7 -10   0 6.44898 2.68211   7
  -7  10   0 11.1144 3.59208   5
  -7  10   0 7.63698 3.37853   7
  -8 -10   0 85.8781 8.21205   8
   8 -10   0 90.1532 10.1009   7
   8 -10   0 87.9360 10.3359   1
  -8  10   0 95.2552 10.3635   5
   0 -11   0 0.83995 1.29326   7
   0  11   0 1.22659 1.37560   5
   0  11   0 0.65158 2.11765   1
   1 -11   0 48.7311 5.48500   7
  -1 -11   0 51.3287 5.47128   7
  -1  11   0 49.7992 5.81543   5
  -1  11   0 49.8131 6.56124   1
   1  11   0 56.1727 6.60618   1
  -2  11   0 1.50268 2.33836   1
   2  11   0 -0.1831 2.14106   1
  -2  11   0 2.18522 2.04909   5
   3 -11   0 121.869 12.3324   7
  -3  11   0 143.392 13.4621   1
  -3  11   0 117.136 13.3229   7
   3  11   0 134.059 12.9989   1
  -3  11   0 131.249 12.9494   5
   4 -11   0 2.83385 1.74836   7
  -4  11   0 5.75890 2.93957   1
  -4  11   0 4.55386 2.42742   7
   4  11   0 1.26718 2.10549   1
  -4  11   0 4.09784 2.41401   5
   5 -11   0 16.4788 3.33279   7
  -5  11   0 22.5436 4.51568   1
   5  11   0 19.2039 3.47931   1
  -5  11   0 15.9378 3.69572   5
  -5  11   0 14.8089 3.63142   7
  -6 -11   0 2.90416 1.06343   8
   6  11   0 1.79626 1.85603   1
  -6  11   0 -0.1829 2.02936   5
  -6  11   0 3.16330 2.81629   1
   0 -12   0 311.389 28.7826   7
   0  12   0 327.852 29.1895   1
   1 -12   0 73.1973 7.62192   7
  -1 -12   0 79.0808 7.60735   7
  -1  12   0 75.6449 8.32513   1
   1  12   0 92.6602 8.47345   1
  -1  12   0 66.7812 7.63127   5
  -2 -12   0 5.03841 1.59202   7
  -2  12   0 2.93421 1.84299   5
   2  12   0 6.01620 2.51056   1
  -2  12   0 4.74551 2.42014   1
  -3  12   0 63.8140 7.90435   5
   3  12   0 91.7173 8.57143   1
  -3  12   0 76.7022 8.60380   1
 -13   0   1 0.70580 1.80381   8
 -12   0   1 2.69425 1.79908   8
  12   0  -1 -0.2849 2.13132   6
 -11   0   1 1.74996 1.53911   8
  11   0  -1 -0.4739 2.02755   1
  10   0  -1 0.95528 2.00970   1
 -10   0   1 1.91696 1.36734   8
   9   0  -1 11.4975 2.60592   1
  -9   0   1 1.60636 1.15391   8
   8   0  -1 1.22912 1.78139   1
   8   0  -1 2.20005 1.32075   2
  -8   0   1 0.60648 0.96780   8
  -7   0   1 3.16524 1.44934   2
  -7   0   1 5.22712 1.09114   8
  -7   0   1 6.42581 2.28828   7
   7   0  -1 4.12830 1.25369   2
   7   0  -1 5.04188 1.75749   1
  -7   0   1 1.18066 1.53725   8
  -6   0   1 0.78249 1.03918   2
  -6   0   1 1.78059 1.68296   8
  -6   0   1 1.54140 0.65650   8
   6   0  -1 1.15618 0.95571   2
   6   0  -1 1.53308 1.94724   6
  -6   0   1 1.80962 1.80769   7
   6   0  -1 0.62143 1.18258   1
  -5   0   1 6.35843 1.53899   2
  -5   0   1 11.3956 3.01402   7
  -5   0   1 5.07385 1.10645   8
  -5   0   1 4.83730 1.62500   8
   5   0  -1 6.22110 2.63041   6
   4   0  -1 5.20396 2.55609   6
  -4   0   1 1.81372 0.76992   2
   4   0  -1 1.59331 0.76775   2
  -4   0   1 1.13119 1.93119   7
  -4   0   1 0.85685 0.35973   8
   3   0  -1 3.01066 1.50458   2
  -3   0   1 8.21525 1.21566   8
  -3   0   1 7.06820 1.55711   2
   3   0  -1 20.4740 3.64829   6
  -2   0   1 1.86193 0.51727   2
  -2   0   1 2.36340 0.34938  10
  -2   0   1 1.29959 0.30556  10
   2   0  -1 1.71048 0.55105   2
   1   0  -1 11.3397 1.91257   2
  -1   0   1 13.1383 1.91222   2
   0   0   1 0.28943 0.71129  10
   0   0  -1 0.20007 0.12854   9
   0   0  -1 0.84199 0.20704  10
   0   0  -1 1.06827 0.35783   6
   0   0   1 -0.0452 0.10358   9
   0   0  -1 -0.2016 0.16005   9
   0   0   1 0.27655 0.46452   9
   0   0   1 -0.0440 0.07603   2
   0   0  -1 -0.0363 0.29326  10
  -1   0  -1 14.0146 1.88794   9
   1   0   1 11.5994 2.01991  10
  -1   0  -1 14.3407 1.97052   2
  -1   0  -1 26.4724 3.57081   9
   1   0   1 22.2515 3.78703  10
  -2   0  -1 2.31107 0.67797   2
  -2   0  -1 7.39221 2.32724   9
  -2   0  -1 1.74997 3.12713  10
   2   0   1 -1.5686 2.35111  10
  -2   0  -1 1.32793 0.52660  10
   2   0   1 1.46826 0.67192   2
   2   0   1 1.02423 0.35357   9
   2   0   1 2.61052 0.85019   9
  -3   0  -1 23.7761 4.70412  10
  -3   0  -1 4.92478 1.22108   9
   3   0   1 8.58833 1.26696  10
   3   0   1 5.02857 1.38791   2
  -3   0  -1 5.81722 1.43481   2
  -3   0  -1 14.0360 3.60080   7
  -3   0  -1 7.38895 1.15732   8
   3   0   1 7.13397 1.30550   7
   4   0   1 1.01789 0.79851   2
  -4   0  -1 0.51628 2.01845   7
  -4   0  -1 0.94444 0.53297   9
   4   0   1 2.85722 0.51056  10
  -4   0  -1 1.71569 0.86653   2
   4   0   1 1.87552 0.60970   7
  -4   0  -1 1.56567 0.52141   8
   4   0   1 2.51343 2.54239   6
   4   0   1 2.64717 0.87297  10
   5   0   1 1.27100 2.09551   6
  -5   0  -1 1.71304 0.76704   8
  -5   0  -1 1.79297 1.12316   2
   5   0   1 4.39664 0.71857   5
  -5   0  -1 4.66152 0.94288   9
  -5   0  -1 2.69429 2.23319   7
   5   0   1 3.21091 0.78572   7
   5   0   1 -0.0449 0.92585   2
   5   0   1 3.01193 1.21199   1
  -6   0  -1 3.07957 2.16507   7
  -6   0  -1 1.71486 0.74896   8
   6   0   1 1.18817 0.99133   2
   6   0   1 0.93412 1.08695   1
  -6   0  -1 0.38576 0.91549   2
   7   0   1 3.37048 1.36495   2
  -7   0  -1 13.6906 3.43260   7
   7   0   1 8.10192 1.86287   1
  -8   0  -1 2.19647 1.12766   8
   8   0   1 0.11561 1.39934   1
  -8   0  -1 1.14761 2.28384   7
  -9   0  -1 3.82154 1.47702   8
   9   0   1 3.13786 1.83590   1
 -10   0  -1 1.31564 1.32976   8
  10   0   1 -1.4910 1.68357   1
 -11   0  -1 -0.1314 1.44969   8
  11   0   1 2.26634 1.95284   1
  12   0   1 1.06774 2.06072   1
 -12   0  -1 0.89977 1.85778   8
 -13   0  -1 2.62274 2.16367   8
  13   0   1 3.53748 2.34116   1
  13  -1  -1 55.7637 6.73523   1
 -13  -1   1 51.8291 5.99083   8
 -13   1   1 43.6688 6.14056   8
  12  -1  -1 127.391 11.2981   1
  12  -1  -1 91.7336 10.8106   6
 -12  -1   1 94.5532 10.0253   8
 -12   1   1 107.063 10.5366   8
  11  -1  -1 159.565 15.3442   6
 -11  -1   1 135.558 13.8491   8
  11  -1  -1 175.027 15.2038   1
 -11   1   1 142.466 14.3443   8
  10  -1  -1 601.793 53.5452   1
  10  -1  -1 559.164 54.9014   6
 -10  -1   1 596.380 52.3013   8
  10   1  -1 619.418 52.9036   1
 -10   1   1 590.477 52.6646   8
   9  -1  -1 98.4799 10.5626   1
  -9  -1   1 94.4919 9.26899   8
   9   1  -1 106.277 9.83354   1
  -9   1   1 104.582 9.79135   8
  -8  -1   1 132.493 11.8018   8
  -8  -1   1 136.621 12.5531   8
   8  -1  -1 128.874 12.4636   2
   8  -1  -1 104.889 12.7493   1
   8   1  -1 141.071 12.6274   2
   8   1  -1 139.351 12.2518   1
  -8   1   1 127.422 12.1446   8
  -7  -1   1 91.0363 8.47021   2
   7  -1  -1 88.6963 8.25777   2
  -7  -1   1 85.6860 7.67365   8
   7  -1  -1 81.0610 8.94420   1
  -7  -1   1 77.6092 7.98390   8
   7   1  -1 89.8032 8.16319   1
   7   1  -1 74.1264 8.32879   2
  -7   1   1 97.8884 8.64233   2
  -7   1   1 83.0646 8.02992   8
  -7   1   1 76.5899 9.29614   7
   6  -1  -1 1607.85 125.360   1
  -6  -1   1 1420.89 123.621   8
   6  -1  -1 1470.29 127.615   2
  -6  -1   1 1271.22 123.865   8
  -6  -1   1 1527.69 127.799   2
   6   1  -1 1440.74 128.114   6
  -6   1   1 1368.36 123.912   8
  -6   1   1 1217.30 124.568   8
   6   1  -1 1468.51 127.793   2
  -6   1   1 1581.69 126.813   7
   6   1  -1 1383.25 124.372   1
  -6   1   1 1307.77 127.708   2
   5  -1  -1 103.934 8.33617   7
   5  -1  -1 87.3186 10.4844   6
   5  -1  -1 89.3830 9.26412   1
  -5  -1   1 87.3835 8.75914   2
   5  -1  -1 93.9893 8.10690   5
   5  -1  -1 90.8075 8.62431   2
  -5   1   1 88.4916 8.64821   9
  -5   1   1 78.4399 9.93683   7
  -5   1   1 80.3605 8.67842   2
  -5   1   1 80.1083 8.29634   8
   5   1  -1 84.7345 8.77861   2
   5   1  -1 99.4182 8.97436   6
   4  -1  -1 119.804 11.8008  10
   4  -1  -1 112.989 11.7373  10
   4  -1  -1 141.796 10.7139   5
  -4  -1   1 116.099 11.2106   2
   4  -1  -1 150.165 13.3107   6
   4  -1  -1 112.741 11.0708   2
   4  -1  -1 135.044 10.9030   7
  -4   1   1 112.031 10.7552   8
  -4   1   1 121.155 12.6654   7
  -4   1   1 112.471 11.1941   9
   4   1  -1 104.945 11.2053   2
   4   1  -1 115.956 11.4587   6
   3  -1  -1 9.79299 1.75133  10
   3  -1  -1 8.85474 1.88414  10
  -3  -1   1 6.28768 1.59579   2
   3  -1  -1 4.05845 1.38954  10
   3  -1  -1 12.2372 1.65854   7
   3  -1  -1 8.57411 1.47948   2
  -3   1   1 7.81959 1.51330   8
  -3   1   1 14.7856 3.68445   7
  -3   1   1 4.70954 1.41140   9
  -3   1   1 7.21741 1.62003   2
   3   1  -1 3.42725 1.57940   2
  -3   1   1 5.96243 2.33771  10
   2  -1  -1 2623.43 264.732   9
   2  -1  -1 2937.43 282.018  10
   2  -1  -1 3268.14 261.752   6
   2  -1  -1 2530.23 281.923  10
   2  -1  -1 3294.44 255.813   7
   2  -1  -1 2885.77 260.870   2
  -2  -1   1 3146.67 261.022   2
   2  -1  -1 2592.39 264.825   9
  -2   1   1 2876.07 260.713   2
   2   1  -1 2691.90 260.528   2
  -2   1   1 3285.13 256.283   7
  -2   1   1 2751.30 264.970   9
   1  -1  -1 41.2869 4.96773   9
   1  -1  -1 40.5204 5.46090  10
   1  -1  -1 52.6440 5.71349  10
   1  -1  -1 56.0182 5.90369   6
   1   1  -1 41.6385 4.73108   6
  -1   1   1 38.4240 4.97737   9
  -1   1   1 32.4373 5.04500   9
  -1   1   1 45.7641 5.56000  10
  -1   1   1 56.0854 6.21953  10
   0  -1  -1 18.3148 2.02953   9
   0  -1  -1 29.1554 3.36992   6
   0  -1  -1 20.7723 2.67140   2
   0  -1   1 17.3415 2.37969  10
   0  -1   1 12.0131 2.29259   9
   0  -1   1 11.6451 2.75163  10
   0  -1  -1 9.81666 2.41519   9
   0   1   1 17.9481 2.23369  10
   0   1   1 17.9584 2.60806   9
   0   1   1 15.7239 2.72577  10
   0   1  -1 15.8576 2.57518  10
   0   1   1 17.1635 2.06902   9
   0   1  -1 21.2035 2.06274   9
   0   1  -1 16.1632 2.21905  10
   0   1   1 15.0820 2.52195   2
   0   1  -1 30.0637 3.41530   6
  -1  -1  -1 32.7187 4.53936   9
  -1  -1  -1 31.9019 4.00918   9
  -1  -1  -1 35.2644 4.07247   2
   1  -1   1 35.3951 5.45500   9
   1  -1   1 31.5633 4.30847  10
  -1  -1  -1 43.5381 4.66814  10
  -1  -1  -1 40.0682 4.35156  10
  -1   1  -1 33.6907 3.96981   2
   1   1   1 35.1215 3.96849   9
  -1   1  -1 33.8035 5.57453   9
   1   1   1 40.1586 4.73409   9
  -1   1  -1 24.6105 3.89753   9
   1   1   1 32.2047 4.81876  10
  -1   1  -1 28.4756 6.07159  10
   1   1   1 34.0026 4.28961  10
   2  -1   1 3026.14 326.223   9
  -2  -1  -1 3719.39 321.692   2
   2  -1   1 3538.72 347.501  10
  -2  -1  -1 3455.59 326.075   9
   2  -1   1 3840.85 321.589   2
  -2  -1  -1 4076.01 347.475  10
   2  -1   1 3953.99 348.337  10
   2  -1   1 4123.54 315.442   7
  -2  -1  -1 3981.20 326.261   9
  -2   1  -1 3476.48 347.568  10
  -2   1  -1 3772.47 321.849   2
  -2   1  -1 3291.41 348.091  10
   2   1   1 3593.04 322.124   2
  -2   1  -1 3445.19 322.772   6
   2   1   1 3017.12 346.983  10
  -2   1  -1 3502.82 326.595   9
   2   1   1 3067.94 346.860  10
   3  -1   1 9.67571 1.55121   7
  -3  -1  -1 8.87705 1.16948   8
   3  -1   1 7.22057 1.16852   9
   3  -1   1 7.14275 1.57149   9
  -3  -1  -1 8.22316 1.31665   9
   3  -1   1 6.79932 3.03767  10
   3  -1   1 3.99225 1.21607  10
   3  -1   1 6.46855 1.39711   2
  -3  -1  -1 7.97603 2.00091   7
  -3  -1  -1 2.17051 1.31936   2
  -3   1  -1 4.92620 3.09318   6
  -3   1  -1 7.87666 1.51688  10
  -3   1  -1 9.93365 3.95942   7
   3   1   1 7.84237 1.66813   6
  -3   1  -1 3.39629 1.10587   9
  -3   1  -1 12.5064 4.68693  10
   3   1   1 5.30041 1.45326   2
  -3   1  -1 4.94510 1.33973   2
   4  -1   1 66.8851 5.72382  10
  -4  -1  -1 49.8860 5.04105   8
   4  -1   1 53.8990 5.18455   9
  -4  -1  -1 61.0520 6.30956   7
   4  -1   1 59.5694 5.49036   2
   4  -1   1 51.7805 5.17508   5
  -4  -1  -1 50.5760 5.57150   2
   4  -1   1 59.5201 5.30694   9
   4   1   1 61.9988 5.68091   2
   4   1   1 56.3394 5.86222   6
  -4   1  -1 49.4349 5.39228   9
  -4   1  -1 44.4282 8.26237  10
  -4   1  -1 50.2733 5.50690   2
  -4   1  -1 55.8111 5.19017   8
  -5  -1  -1 41.9083 5.01718   7
   5  -1   1 36.1238 4.44548  10
   5  -1   1 34.7170 4.03459   2
  -5  -1  -1 35.6879 3.57141   8
  -5  -1  -1 38.2308 4.23964   2
   5  -1   1 35.8926 3.69679   5
   5  -1   1 43.3213 3.89372   7
   5  -1   1 35.4906 4.22928   1
   5  -1   1 33.3896 3.95987  10
   5   1   1 41.9335 4.29654   2
   5   1   1 44.8708 4.69327   6
  -5   1  -1 36.2843 4.17447   2
  -5   1  -1 45.7947 6.60891   7
  -5   1  -1 37.3195 3.77944   8
  -5   1  -1 35.6039 3.95161   9
  -6  -1  -1 3061.87 240.851   7
   6  -1   1 2975.19 237.562   5
   6  -1   1 2451.42 264.022  10
  -6  -1  -1 2511.60 237.259   8
   6  -1   1 2444.09 244.538   2
   6  -1   1 2784.13 238.741   1
  -6  -1  -1 3017.78 244.810   2
   6  -1   1 2551.85 264.149  10
  -6   1  -1 2812.71 241.371   7
   6   1   1 2497.59 244.630   2
   6   1   1 2909.22 238.452   1
   6   1   1 2421.09 238.344   1
  -6   1  -1 3046.97 244.806   2
  -6   1  -1 2706.66 237.438   8
   7  -1   1 16.5655 2.33831   2
   7  -1   1 10.7491 2.40310   1
   7  -1   1 13.1729 1.52443   5
  -7  -1  -1 12.7833 1.73774   8
  -7  -1  -1 14.7917 3.07929   7
  -7   1  -1 10.1221 1.90540   8
   7   1   1 10.6699 1.98936   1
   7   1   1 12.8334 2.33832   2
  -7   1  -1 11.1732 3.11150   7
   8  -1   1 59.4489 6.44442   1
  -8  -1  -1 53.6770 5.51836   8
  -8   1  -1 53.3317 7.25590   7
  -8   1  -1 59.0024 5.85099   8
   8   1   1 58.6381 5.87487   1
   9  -1   1 41.4599 5.20842   1
  -9  -1  -1 40.3355 4.19951   8
  -9   1  -1 26.0866 5.19737   7
   9   1   1 37.3061 4.57865   1
  -9   1  -1 45.2987 4.62464   8
  10  -1   1 1361.41 133.618   1
 -10  -1  -1 1618.94 132.620   8
  10   1   1 1499.05 133.252   1
 -10   1  -1 1581.61 132.897   8
  11  -1   1 2.75651 2.18367   1
 -11  -1  -1 6.02807 1.87095   8
  11   1   1 5.91052 1.98829   1
 -11   1  -1 5.27640 2.15318   8
  12  -1   1 9.81058 3.10520   1
 -12  -1  -1 16.1226 2.93317   8
  12   1   1 12.7215 2.77044   1
 -12   1  -1 16.9370 3.14224   8
  13  -1   1 47.5079 6.07016   1
 -13  -1  -1 44.0782 5.55590   8
 -13   1  -1 41.6464 5.71479   8
  13  -2  -1 163.670 15.4864   1
 -13  -2   1 151.400 14.4361   8
 -13   2   1 147.083 14.9593   8
  12  -2  -1 9.81946 3.34878   1
 -12  -2   1 10.1458 2.14628   8
 -12   2   1 7.49488 2.54001   8
 -11  -2   1 98.6502 8.87410   8
  11  -2  -1 89.7280 10.3506   6
  11  -2  -1 88.5627 10.2716   1
 -11   2   1 86.4952 9.50356   8
 -10  -2   1 30.4617 3.36055   8
  10  -2  -1 26.6988 5.00498   1
  10  -2  -1 24.8060 4.77568   6
 -10   2   1 30.5871 4.16161   8
   9  -2  -1 165.985 18.3128   6
  -9  -2   1 183.504 16.2956   8
   9  -2  -1 178.280 17.9729   1
  -9   2   1 196.031 17.0412   8
   8  -2  -1 31.3241 5.26587   1
  -8  -2   1 28.5944 3.04426   8
   8  -2  -1 22.7955 4.80855   6
   8   2  -1 29.6688 4.18650   2
  -8   2   1 32.0808 3.97047   8
  -8   2   1 27.6280 5.48896   7
   8   2  -1 37.2377 3.61007   1
  -7  -2   1 291.509 28.6024   8
  -7  -2   1 320.272 28.8191   8
   7  -2  -1 287.057 31.1548   6
   7  -2  -1 328.167 30.4743   1
   7  -2  -1 376.398 28.7212   5
   7  -2  -1 378.269 30.0021   2
  -7   2   1 301.804 31.1790   7
   7   2  -1 308.662 30.2476   2
   7   2  -1 340.134 28.9524   1
   7   2  -1 309.175 28.9564   1
  -7   2   1 330.624 29.2386   8
   6  -2  -1 183.029 15.9610   1
   6  -2  -1 149.439 16.1466   6
   6  -2  -1 143.024 14.5744   2
   6  -2  -1 158.291 15.4430  10
   6  -2  -1 181.620 14.0672   5
   6  -2  -1 157.941 14.2877   7
   6  -2  -1 138.682 15.3639  10
  -6  -2   1 167.149 14.9165   2
   6   2  -1 166.045 14.6201   6
   6   2  -1 149.771 14.9913   2
  -6   2   1 153.439 14.8344   2
  -6   2   1 141.807 14.3081   8
  -6   2   1 143.447 16.1835   7
   5  -2  -1 246.734 27.8274  10
   5  -2  -1 309.101 28.0497  10
  -5  -2   1 270.755 26.1433   2
   5  -2  -1 266.603 26.5007   1
   5  -2  -1 253.644 27.9839  10
   5  -2  -1 304.430 25.9732   2
   5  -2  -1 332.654 25.6017   7
   5  -2  -1 319.478 27.7492   6
  -5   2   1 297.930 26.4633   9
   5   2  -1 282.712 26.3554   2
  -5   2   1 284.466 25.3630   8
  -5   2   1 242.502 26.0715   2
  -5   2   1 290.900 30.6155   3
  -5   2   1 248.001 27.0908   7
   5   2  -1 314.218 25.9522   6
   4  -2  -1 113.376 12.0003  10
   4  -2  -1 111.776 11.6751  10
   4  -2  -1 135.162 11.0221   7
   4  -2  -1 113.231 10.7805   9
  -4  -2   1 121.097 11.1648   2
   4  -2  -1 124.163 10.8417   9
   4  -2  -1 119.990 10.9129   2
  -4   2   1 120.059 11.1792   9
  -4   2   1 98.8601 11.0500   2
  -4   2   1 129.125 13.1238   7
   4   2  -1 101.864 11.2610   2
  -4   2   1 137.077 13.6827   3
  -4   2   1 112.165 13.1025  10
   4   2  -1 100.196 10.6839   6
  -4   2   1 105.040 10.6674   8
   3  -2  -1 578.822 56.8341   9
   3  -2  -1 667.127 55.3707   7
   3  -2  -1 654.640 60.7153  10
   3  -2  -1 668.184 56.1363   2
  -3  -2   1 547.820 56.2277   2
   3   2  -1 593.580 55.9409   6
  -3   2   1 643.834 54.5777   8
  -3   2   1 575.385 64.6864   3
  -3   2   1 604.720 56.8003   7
  -3   2   1 627.957 60.9861  10
   3   2  -1 667.577 56.5652   2
   2  -2  -1 738.792 69.2687   9
   2  -2  -1 813.977 68.2784   2
   2  -2  -1 835.910 67.6671   7
   2  -2  -1 715.998 69.1695   9
   2  -2  -1 653.763 73.9828  10
   2  -2  -1 786.121 73.9023  10
   2  -2  -1 719.477 69.0352   6
  -2  -2   1 723.099 68.5282   2
  -2   2   1 861.653 74.1039  10
  -2   2   1 725.613 69.2892   9
   2   2  -1 758.695 68.1883   6
   2   2  -1 771.701 68.4618   6
  -2   2   1 692.233 69.4292   9
   1  -2  -1 917.199 87.7897   9
   1  -2  -1 933.271 87.9399   9
  -1  -2   1 1087.87 94.2342  10
   1  -2  -1 980.686 87.3011   6
  -1   2   1 898.872 93.7060  10
  -1   2   1 982.426 85.4592   7
  -1   2   1 1054.60 87.9190   9
   1   2  -1 902.865 86.8848   6
   1   2  -1 872.863 86.9406   6
   0  -2   1 219.163 20.9532   9
   0  -2  -1 183.577 20.8802   9
   0  -2   1 235.483 22.5959  10
   0  -2  -1 197.101 22.4418  10
   0  -2   1 230.824 23.6210  10
   0  -2  -1 236.948 21.5540   9
   0  -2  -1 236.538 21.4129   9
   0  -2   1 234.671 21.5276   9
   0  -2  -1 201.706 22.7619  10
   0   2   1 211.602 22.4190  10
   0   2   1 234.474 20.6438   7
   0   2   1 185.601 22.5770  10
   0   2   1 237.927 21.3795   9
   0   2  -1 249.638 23.9261   3
   0   2  -1 206.862 21.1532   9
   0   2  -1 243.703 21.2024   7
  -1  -2  -1 466.566 48.1374  10
   1  -2   1 484.217 45.0947   9
   1  -2   1 467.020 44.5891   2
  -1  -2  -1 470.289 44.7068   2
  -1  -2  -1 469.592 48.0855  10
   1  -2   1 545.681 49.7734  10
  -1  -2  -1 494.128 45.1532   9
   1  -2   1 537.674 48.2818  10
  -1   2  -1 487.614 50.8860   3
   1   2   1 569.237 43.8549   7
  -1   2  -1 421.127 45.6601   9
   1   2   1 565.702 45.3591   9
   1   2   1 535.638 44.9359   2
  -1   2  -1 522.073 45.0704   9
  -1   2  -1 452.647 44.8004   7
   1   2   1 422.636 48.1531  10
  -1   2  -1 451.676 45.7852   6
  -1   2  -1 466.264 49.2856  10
   1   2   1 463.553 44.9812   9
   2  -2   1 777.037 73.9293   9
  -2  -2  -1 748.267 70.7289   7
   2  -2   1 748.374 70.9647   7
  -2  -2  -1 691.250 69.9182   8
  -2  -2  -1 863.008 78.0279  10
   2  -2   1 762.794 73.1923   9
  -2  -2  -1 883.738 72.3750   2
  -2  -2  -1 778.546 73.2335   9
   2  -2   1 923.877 72.2964   2
   2  -2   1 945.274 79.6224  10
   2   2   1 674.600 77.8217  10
   2   2   1 808.890 77.8704  10
  -2   2  -1 919.185 72.7501   7
  -2   2  -1 827.779 72.2465   2
  -2   2  -1 875.538 73.8678   6
   2   2   1 810.811 72.3710   2
   2   2   1 770.954 72.2638   6
  -2   2  -1 734.962 73.9898   9
  -2   2  -1 688.266 73.1741   9
  -2   2  -1 788.369 78.0257  10
  -2   2  -1 841.953 79.8217  10
  -3  -2  -1 1590.19 147.537   2
  -3  -2  -1 1604.19 149.564   9
  -3  -2  -1 1530.67 142.994   8
   3  -2   1 1539.32 159.314  10
   3  -2   1 1821.53 144.846   7
   3  -2   1 1498.77 147.371   2
  -3  -2  -1 1613.69 144.631   7
   3  -2   1 1510.28 150.123   9
   3  -2   1 1564.33 160.583  10
   3   2   1 1695.76 147.672   6
  -3   2  -1 1885.88 147.528   2
  -3   2  -1 1533.93 149.055   6
  -3   2  -1 1810.47 146.743   7
  -3   2  -1 1508.28 149.686   9
   3   2   1 1769.18 147.629   2
  -3   2  -1 1789.44 159.470  10
  -4  -2  -1 104.494 9.95645   2
  -4  -2  -1 99.0145 9.71674   7
   4  -2   1 90.4750 10.0236   9
   4  -2   1 112.836 11.8542  10
   4  -2   1 100.812 10.4407  10
   4  -2   1 106.395 9.70273   9
   4  -2   1 107.064 10.2114   1
   4  -2   1 101.545 9.77361   2
   4  -2   1 114.851 9.75868   7
  -4  -2  -1 96.4714 9.29400   8
   4   2   1 107.584 10.0946   2
  -4   2  -1 119.582 13.6795  10
  -4   2  -1 97.8833 9.87055   2
  -4   2  -1 79.2091 11.3506   6
  -4   2  -1 98.2889 10.6796  10
   4   2   1 96.2147 9.77399   6
  -4   2  -1 96.8334 9.48732   8
  -4   2  -1 128.740 12.5121   7
  -4   2  -1 115.387 9.91256   9
   5  -2   1 350.576 26.6830   7
  -5  -2  -1 320.365 26.0310   8
   5  -2   1 254.164 27.0737   9
   5  -2   1 279.228 28.9992  10
   5  -2   1 275.267 29.5806  10
   5  -2   1 306.705 27.2356   9
  -5  -2  -1 352.644 26.8589   7
   5  -2   1 291.047 27.0223   2
   5  -2   1 260.849 26.9498   1
  -5   2  -1 295.531 27.4214   9
  -5   2  -1 303.282 31.7532  10
  -5   2  -1 268.740 28.5798   7
   5   2   1 325.373 27.3824   2
   5   2   1 305.113 27.1366   6
  -5   2  -1 298.379 26.3140   8
  -5   2  -1 298.408 27.1809   2
   5   2   1 263.481 26.1798   1
  -5   2  -1 254.706 28.1742   5
   6  -2   1 172.859 14.6264   7
   6  -2   1 184.065 16.3075  10
   6  -2   1 146.543 15.7539  10
  -6  -2  -1 139.675 14.1371   8
   6  -2   1 149.868 14.9031   2
   6  -2   1 140.843 15.1517   1
  -6  -2  -1 172.017 14.9905   7
   6  -2   1 156.732 14.3336   5
   6   2   1 149.149 14.3715   1
  -6   2  -1 161.532 17.1096   7
  -6   2  -1 159.915 16.8515   5
   6   2   1 169.064 15.2542   2
  -6   2  -1 174.376 14.6235   8
   7  -2   1 954.195 102.821  10
   7  -2   1 1208.13 93.7105   7
   7  -2   1 1030.92 93.8139   1
  -7  -2  -1 1030.79 92.4415   8
   7  -2   1 1014.97 95.5634   2
   7  -2   1 964.272 102.964  10
   7  -2   1 1182.41 92.6752   5
  -7   2  -1 1066.44 92.9098   8
   7   2   1 1150.71 95.8578   2
  -7   2  -1 1005.17 95.2869   7
   7   2   1 1042.74 93.0609   1
   8  -2   1 25.5431 4.59832   1
   8  -2   1 36.0779 3.26914   5
  -8  -2  -1 26.7124 3.29453   8
   8   2   1 29.0341 3.69755   1
  -8   2  -1 34.0743 5.72296   7
  -8   2  -1 34.0158 4.08947   8
   8   2   1 32.3963 3.69794   1
   9  -2   1 215.976 20.8350   1
  -9  -2  -1 229.362 19.7573   8
   9   2   1 207.294 20.0377   1
  -9   2  -1 196.307 21.4725   7
  -9   2  -1 246.293 20.3860   8
  10  -2   1 2.63025 2.41005   1
 -10  -2  -1 3.24548 1.36087   8
 -10   2  -1 4.45271 2.32132   7
  10   2   1 4.43395 1.73689   1
 -10   2  -1 4.71377 2.21195   8
  11  -2   1 420.619 39.1982   6
 -11  -2  -1 421.458 37.0843   8
  11  -2   1 408.572 38.1072   1
 -11   2  -1 417.073 37.6401   8
 -12  -2  -1 24.8482 3.75128   8
  12  -2   1 36.2008 5.19602   1
  12  -2   1 23.8993 4.79835   6
 -13  -2  -1 138.764 13.6138   8
  13  -2   1 148.118 14.4318   1
  13  -3  -1 105.513 11.6352   1
 -13  -3   1 109.810 10.4427   8
 -12  -3   1 40.1767 4.38712   8
  12  -3  -1 31.4838 5.74160   1
  11  -3  -1 52.0719 7.66955   1
 -11  -3   1 58.3173 5.60205   8
  11  -3  -1 51.2280 7.44838   6
 -11   3   1 52.6770 6.56080   8
  10  -3  -1 4.87280 3.15971   1
 -10  -3   1 11.1726 1.64997   8
  10  -3  -1 9.06504 3.23083   6
 -10   3   1 5.97393 3.46055   7
 -10   3   1 6.74715 2.42688   8
  -9  -3   1 246.094 20.6289   8
   9  -3  -1 220.938 22.9845   6
   9  -3  -1 196.696 22.3011   1
  -9   3   1 204.603 22.8826   7
  -9   3   1 271.483 21.6256   8
  -8  -3   1 11.5512 1.55038   8
   8  -3  -1 20.7212 4.36268   1
   8  -3  -1 3.36368 2.65578   6
   8  -3  -1 12.0917 1.71999   5
  -8   3   1 9.67383 2.32371   8
  -8   3   1 11.9433 3.87951   3
  -8   3   1 3.94747 3.82687   7
   7  -3  -1 75.0494 6.61297   5
   7  -3  -1 78.1718 7.02886   2
   7  -3  -1 58.8861 6.97274  10
   7  -3  -1 70.7744 7.08080  10
   7  -3  -1 64.0381 8.77132   6
   7  -3  -1 73.2438 6.87375   7
   7  -3  -1 78.7616 9.02842   1
  -7  -3   1 56.4636 6.21158   8
  -7   3   1 77.0037 7.15346   8
  -7   3   1 58.5015 9.26897   7
  -7   3   1 68.7878 9.41190   3
   7   3  -1 72.6429 7.66728   2
   6  -3  -1 138.839 14.7767  10
   6  -3  -1 155.724 13.7811   2
   6  -3  -1 140.035 15.0075   1
   6  -3  -1 167.475 13.6906   7
   6  -3  -1 155.137 14.6515  10
   6  -3  -1 121.231 15.2087   6
  -6   3   1 162.558 16.5178   5
   6   3  -1 156.558 14.4531   2
   6   3  -1 143.761 13.5002   6
  -6   3   1 137.470 15.6994   7
  -6   3   1 131.902 13.5047   8
  -6   3   1 115.475 16.4607   3
   6   3  -1 147.478 13.1215   1
   5  -3  -1 276.739 27.4658  10
   5  -3  -1 291.217 25.5478   2
  -5  -3   1 305.058 25.9433   2
   5  -3  -1 299.997 25.6041   9
   5  -3  -1 315.754 25.3315   7
   5  -3  -1 233.123 27.6886  10
   5  -3  -1 247.976 25.6011   9
   5  -3  -1 289.681 26.5955   1
  -5   3   1 278.472 27.2316   7
   5   3  -1 282.591 26.1419   2
   5   3  -1 288.327 25.3093   6
  -5   3   1 297.437 27.0667   5
  -5   3   1 267.602 26.0444   9
  -5   3   1 243.897 29.8632   3
  -5   3   1 263.110 24.9037   8
   4  -3  -1 598.381 51.8568   9
  -4  -3   1 581.829 51.5875   2
   4  -3  -1 622.461 50.7063   7
   4  -3  -1 512.827 51.8768   9
   4  -3  -1 561.098 51.2519   2
   4  -3  -1 500.259 55.3017  10
   4   3  -1 571.467 51.0893   6
  -4   3   1 584.217 59.3386   3
   4   3  -1 624.501 51.9823   2
  -4   3   1 646.593 51.9193   5
  -4   3   1 566.266 49.9152   8
  -4   3   1 484.577 56.3866  10
  -4   3   1 505.784 52.0172   9
  -4   3   1 550.139 52.0761   7
   3  -3  -1 40.6956 5.59759   1
   3  -3  -1 42.8774 6.37910   4
   3  -3  -1 30.9746 4.20002  10
   3  -3  -1 31.8304 4.95583  10
   3  -3  -1 38.0528 3.88180   2
   3  -3  -1 28.3080 3.54223   9
   3  -3  -1 35.4653 4.00974   9
  -3  -3   1 32.8724 4.41234   2
   3  -3  -1 28.3893 5.13957   6
   3  -3  -1 26.9255 4.37847   7
  -3   3   1 37.8203 6.29725   7
  -3   3   1 34.5861 5.59037  10
  -3   3   1 32.4704 5.56391   3
  -3   3   1 38.6175 6.29585   5
  -3   3   1 33.0211 3.93651   9
  -3   3   1 33.1809 4.56563  10
   3   3  -1 32.2629 3.79875   6
   2  -3  -1 1010.44 87.9287   6
  -2  -3   1 824.318 83.8597   8
   2  -3  -1 913.739 88.2369   9
   2  -3  -1 989.911 94.2066  10
   2  -3  -1 934.757 88.1966   9
  -2  -3   1 882.099 86.8413   2
  -2   3   1 883.878 94.4747  10
   2   3  -1 1090.05 87.3798   6
  -2   3   1 1033.08 85.7298   5
  -2   3   1 1121.01 87.0404   7
  -2   3   1 1059.37 88.3757   9
   2   3  -1 905.647 87.0929   6
  -2   3   1 873.121 88.3957   9
  -1  -3   1 32.5512 4.36996   8
   1  -3  -1 13.9038 3.59125  10
   1  -3  -1 19.9948 3.54213   6
   1  -3  -1 13.8669 2.74924   9
  -1  -3   1 24.3400 3.33617   9
   1  -3  -1 23.4842 4.83586  10
   1  -3  -1 14.1193 2.69961   9
   1   3  -1 18.8220 3.33665   6
  -1   3   1 11.3212 2.21018   9
  -1   3   1 17.6448 3.66132   5
  -1   3   1 11.6905 2.63849   9
  -1   3   1 12.6909 3.27395  10
  -1   3   1 20.9396 4.04831   7
  -1   3   1 12.9863 2.42393   9
   1   3  -1 18.7366 3.15109   7
  -1   3   1 18.8915 3.51113  10
   1   3  -1 14.7087 2.41876  10
   1   3  -1 20.6022 2.74469  10
   1   3  -1 22.2717 3.62258   6
   0  -3   1 2085.82 191.366   9
   0  -3  -1 2125.35 203.843  10
   0  -3   1 2134.96 203.885  10
   0  -3  -1 2326.21 204.200  10
   0  -3  -1 1895.28 191.215   9
   0  -3  -1 2173.43 189.087   6
   0   3   1 1795.79 203.554  10
   0   3   1 2185.48 203.823  10
   0   3  -1 1884.07 191.086   9
   0   3   1 2106.38 183.512   5
   0   3   1 2264.92 191.496   9
   0   3  -1 1969.44 190.787   9
   0   3   1 2334.78 185.407   7
   0   3  -1 2373.03 203.538  10
   0   3  -1 1844.66 189.132   6
   0   3  -1 1941.63 185.264   7
   1  -3   1 14.2789 2.82378  10
  -1  -3  -1 13.7075 2.58927  10
   1  -3   1 10.5593 2.62494   9
  -1  -3  -1 13.8781 2.93494   9
   1  -3   1 18.8102 3.86516  10
   1  -3   1 23.8814 3.61638   6
  -1  -3  -1 22.1240 3.56623   2
  -1  -3  -1 17.9083 2.94326   8
   1  -3   1 21.7780 3.74702   7
  -1   3  -1 16.6422 3.40361   9
  -1   3  -1 17.0013 2.76957  10
   1   3   1 18.1936 2.55266   9
   1   3   1 15.5742 3.17829   5
  -1   3  -1 16.4596 4.00266   5
  -1   3  -1 20.1229 3.43048   3
   1   3   1 18.4877 3.32283  10
   1   3   1 17.3599 3.27793  10
  -1   3  -1 15.4130 4.18368   7
   1   3   1 20.8849 3.50379   7
  -1   3  -1 13.5770 4.14896  10
  -1   3  -1 17.9066 2.34269   9
   1   3   1 12.6199 2.29817   9
  -1   3  -1 15.2527 3.87839   6
  -2  -3  -1 1604.23 133.032   2
   2  -3   1 1310.93 134.562   9
   2  -3   1 1476.11 135.493   9
   2  -3   1 1326.93 132.613   2
  -2  -3  -1 1634.29 134.998   9
  -2  -3  -1 1502.58 128.825   8
  -2   3  -1 1601.62 134.583   6
  -2   3  -1 1569.00 132.064   7
   2   3   1 1374.78 133.105   2
  -2   3  -1 1549.17 134.654   9
   2   3   1 1660.17 130.468   7
  -2   3  -1 1330.43 130.311   5
  -2   3  -1 1370.28 144.706  10
  -2   3  -1 1318.26 151.494   3
  -2   3  -1 1447.21 135.428   9
  -3  -3  -1 175.957 17.9442   7
  -3  -3  -1 226.655 18.7915   9
   3  -3   1 183.217 18.4448   2
  -3  -3  -1 176.449 17.7109   8
  -3  -3  -1 201.024 17.7979   8
   3  -3   1 236.712 21.2057  10
   3  -3   1 186.902 19.3862   9
   3  -3   1 212.897 18.4878   7
  -3  -3  -1 172.614 18.6066   2
   3  -3   1 215.983 18.6005   9
   3  -3   1 175.922 19.8366  10
   3  -3   1 185.488 18.5451   1
  -3   3  -1 198.202 20.0484  10
  -3   3  -1 222.559 21.6696   3
  -3   3  -1 194.490 18.5972   9
   3   3   1 216.534 18.9104   2
  -3   3  -1 191.655 21.8305  10
  -3   3  -1 212.879 20.3079   5
  -3   3  -1 180.145 20.1525   6
   3   3   1 203.367 18.4584   6
   4  -3   1 1225.44 113.223  10
   4  -3   1 1231.61 102.939   7
  -4  -3  -1 1143.20 104.959   2
  -4  -3  -1 1222.40 102.666   7
  -4  -3  -1 1054.95 101.524   8
   4  -3   1 1312.40 104.818   2
  -4  -3  -1 1313.54 101.572   8
   4  -3   1 1082.19 106.573   9
   4  -3   1 995.856 102.543   1
  -4  -3  -1 1221.58 110.088   4
  -4   3  -1 1088.47 106.309   9
  -4   3  -1 1228.91 120.152   3
  -4   3  -1 1173.40 106.752   6
   4   3   1 1236.46 104.830   6
  -4   3  -1 1095.93 115.032  10
  -4   3  -1 1153.29 104.657   7
  -4   3  -1 1190.94 103.875   5
   4   3   1 1042.35 104.879   2
  -4   3  -1 1028.44 113.257  10
  -5  -3  -1 114.798 9.80263   7
   5  -3   1 101.045 10.1389   9
   5  -3   1 111.844 9.85489   9
   5  -3   1 116.701 10.0873   7
   5  -3   1 103.058 10.0044   2
  -5  -3  -1 93.1599 9.45548   8
   5  -3   1 104.550 10.6585   1
   5  -3   1 82.6812 10.5420  10
  -5  -3  -1 119.247 11.5622   4
   5  -3   1 114.817 11.8241  10
   5   3   1 101.139 9.91202   6
  -5   3  -1 107.953 9.76355   8
  -5   3  -1 95.1258 10.1225   9
   5   3   1 99.8135 9.60397   1
   5   3   1 110.068 10.5172   2
  -5   3  -1 82.6045 11.7150   5
  -5   3  -1 103.927 12.3318   7
  -5   3  -1 97.4640 10.2082   2
   6  -3   1 804.837 76.5136   7
  -6  -3  -1 831.098 75.3530   8
   6  -3   1 877.502 84.0129  10
   6  -3   1 905.193 77.9228   2
   6  -3   1 872.463 76.9352   1
   6  -3   1 979.090 84.7204  10
   6  -3   1 904.394 78.7083   9
   6  -3   1 765.175 78.7477   9
  -6   3  -1 890.209 78.5836   7
  -6   3  -1 712.031 77.4088   5
  -6   3  -1 907.034 75.7855   8
   6   3   1 871.335 75.7885   1
   6   3   1 870.905 78.3339   2
   7  -3   1 193.362 21.9002  10
   7  -3   1 214.920 21.0576   1
   7  -3   1 246.022 20.3134   7
  -7  -3  -1 208.360 19.6740   8
   7  -3   1 202.095 22.2500  10
   7  -3   1 259.485 20.0161   5
   7  -3   1 229.051 20.6991   2
  -7   3  -1 192.974 20.0886   8
   7   3   1 230.613 19.9508   1
  -7   3  -1 265.069 22.9686   7
   8  -3   1 293.186 31.4370  10
   8  -3   1 303.280 31.4658  10
   8  -3   1 365.583 28.5146   5
   8  -3   1 256.890 29.4150   1
  -8  -3  -1 312.474 28.2905   8
   8  -3   1 353.710 31.3928  10
  -8   3  -1 314.287 28.8567   8
   8   3   1 321.979 28.6742   1
  -8   3  -1 364.158 31.2881   7
   9  -3   1 45.7201 6.83990   6
   9  -3   1 45.7066 6.83994   1
   9  -3   1 60.8485 5.32319   5
  -9  -3  -1 55.9172 5.38517   8
  -9   3  -1 50.8686 6.07786   8
   9   3   1 52.6512 5.62649   1
  -9   3  -1 50.0727 7.73840   7
   9   3   1 56.8103 5.78963   1
  10  -3   1 349.783 33.0648   6
  10  -3   1 347.073 32.1862   1
 -10  -3  -1 370.793 30.8099   8
 -10   3  -1 307.371 32.5022   7
 -11  -3  -1 37.1056 4.25135   8
  11  -3   1 33.2575 5.59293   1
  11  -3   1 43.3846 5.96940   6
 -11   3  -1 34.5695 5.69167   7
 -12  -3  -1 80.8084 10.8706   4
 -12  -3  -1 92.7196 8.72861   8
  12  -3   1 85.8106 9.86529   1
 -13  -3  -1 9.87778 4.02970   4
 -13  -3  -1 6.50954 2.00331   8
  13  -3   1 6.17215 3.02777   1
 -13  -4   1 326.357 28.4861   8
  13  -4  -1 307.209 29.8145   1
  12  -4  -1 57.3702 7.87626   1
 -12  -4   1 61.1016 6.13315   8
  11  -4  -1 123.972 14.8624   1
  11  -4  -1 140.645 15.3264   6
 -11  -4   1 153.253 13.2221   8
 -11   4   1 152.437 15.6348   7
  10  -4  -1 120.265 13.7475   1
 -10  -4   1 134.689 11.7974   8
  10  -4  -1 125.407 14.0563   6
 -10   4   1 129.263 14.5099   7
   9  -4  -1 739.261 69.8533   1
  -9  -4   1 889.582 67.7756   8
   9  -4  -1 693.451 71.4665   6
  -9   4   1 739.886 71.0093   7
   8  -4  -1 277.700 26.3843   6
   8  -4  -1 247.239 26.0428  10
   8  -4  -1 311.058 26.1570   1
   8  -4  -1 274.755 26.1009  10
  -8  -4   1 252.890 23.4038   8
   8  -4  -1 280.778 23.7603   5
  -8   4   1 223.352 26.1615   7
  -8   4   1 277.549 24.4299   8
  -8   4   1 244.429 29.1689   3
   7  -4  -1 208.407 20.1085  10
   7  -4  -1 189.254 20.0350  10
   7  -4  -1 197.518 18.6663   2
   7  -4  -1 202.026 19.9021  10
   7  -4  -1 227.874 20.3421   1
   7  -4  -1 211.389 20.6103   6
   7  -4  -1 212.470 18.4903   7
  -7  -4   1 201.298 17.7808   8
  -7   4   1 198.865 20.8661   7
  -7   4   1 183.245 18.4788   8
  -7   4   1 169.219 22.1531   3
  -6  -4   1 129.839 12.0548   8
  -6  -4   1 133.179 14.1402   4
   6  -4  -1 154.326 15.1601   6
   6  -4  -1 125.294 13.9026  10
   6  -4  -1 130.032 13.0282   2
   6  -4  -1 148.340 14.3913  10
   6  -4  -1 123.876 12.7791   9
   6  -4  -1 153.000 13.0622   7
   6  -4  -1 157.911 14.8546   1
   6   4  -1 148.346 12.5442   1
   6   4  -1 153.091 14.1382   2
  -6   4   1 167.180 15.8726   7
  -6   4   1 106.744 15.4971   3
  -6   4   1 129.236 13.0059   8
  -6   4   1 136.230 15.2081   5
   5  -4  -1 1845.62 145.355   6
   5  -4  -1 1473.06 145.245   9
   5  -4  -1 1563.99 140.777   7
  -5  -4   1 1532.51 138.450   8
   5  -4  -1 1434.38 154.681  10
  -5  -4   1 1439.48 138.552   8
  -5  -4   1 1738.87 150.170   4
   5  -4  -1 1536.00 143.158   2
   5  -4  -1 1484.16 155.085  10
  -5   4   1 1713.01 142.581   7
  -5   4   1 1706.30 164.260   3
   5   4  -1 1686.73 139.511   1
  -5   4   1 1561.12 140.853   1
   5   4  -1 1575.73 143.303   6
  -5   4   1 1636.12 141.073   5
   4  -4  -1 591.014 63.7276  10
  -4  -4   1 692.293 56.8093   8
   4  -4  -1 590.629 60.3590   6
   4  -4  -1 668.898 58.9804   2
   4  -4  -1 698.551 58.4294   7
  -4  -4   1 599.487 59.3135   2
   4  -4  -1 670.782 64.3083  10
   4  -4  -1 695.017 59.8975   9
  -4  -4   1 609.850 56.7613   8
  -4   4   1 655.020 67.9115   3
   4   4  -1 681.927 57.4807   1
  -4   4   1 663.836 57.3511   8
  -4   4   1 679.106 59.9596   9
  -4   4   1 546.294 59.1937   7
  -4   4   1 627.545 58.8967   5
   4   4  -1 706.026 59.1041   6
  -4   4   1 604.929 58.7942   1
   3  -4  -1 312.626 27.8742   6
  -3  -4   1 267.779 26.6280   2
  -3  -4   1 240.522 25.1807   8
   3  -4  -1 338.011 27.1531   7
   3  -4  -1 295.111 26.8032   9
   3  -4  -1 334.096 29.4481   4
   3  -4  -1 236.546 26.4390   2
   3  -4  -1 324.031 27.1040   1
   3  -4  -1 261.134 26.9605   9
  -3   4   1 338.633 31.2429   3
  -3   4   1 298.238 27.4331   1
  -3   4   1 317.473 27.4919   5
  -3   4   1 255.106 28.6896  10
   3   4  -1 266.910 26.5738   6
  -3   4   1 305.365 27.6707   7
  -3   4   1 282.569 26.9556   9
   2  -4  -1 83.9440 9.97457   9
   2  -4  -1 94.9099 11.1151  10
   2  -4  -1 88.3079 10.2855   1
   2  -4  -1 115.333 9.98964   9
   2  -4  -1 88.3889 10.8438  10
   2  -4  -1 112.882 11.5599   4
   2  -4  -1 108.476 10.8232   6
  -2  -4   1 83.6378 8.72694   8
  -2   4   1 102.685 9.68001   9
  -2   4   1 98.5493 10.9579   7
   2   4  -1 80.3632 9.59815   6
  -2   4   1 120.960 12.7250   3
   2   4  -1 108.318 10.2517   6
  -2   4   1 88.9661 10.7804   5
   2   4  -1 89.4199 9.00138   7
  -2   4   1 101.814 11.6429  10
  -2   4   1 130.727 11.6891   1
  -2   4   1 76.9268 9.95731   9
   1  -4  -1 1454.54 137.047   9
   1  -4  -1 1412.70 141.306   4
   1  -4  -1 1484.02 135.562   6
   1  -4  -1 1553.35 146.048  10
   1  -4  -1 1758.42 146.312  10
  -1   4   1 1526.67 133.136   7
   1   4  -1 1267.61 132.088   7
   1   4  -1 1353.19 130.756   5
  -1   4   1 1366.14 131.684   5
  -1   4   1 1490.96 136.880   9
  -1   4   1 1759.59 145.861  10
  -1   4   1 1598.87 132.344   1
  -1   4   1 1342.66 136.411   9
   1   4  -1 1641.51 145.280  10
   1   4  -1 1508.63 135.266   6
  -1   4   1 1378.67 145.995  10
   0  -4  -1 935.921 76.7947   9
   0  -4  -1 738.164 73.0764   8
   0  -4   1 929.836 75.8723   6
   0  -4  -1 865.513 81.7746  10
   0  -4  -1 840.010 75.4750   6
   0   4  -1 795.742 73.7811   1
   0   4   1 791.099 76.2303   9
   0   4  -1 910.049 74.5023   7
   0   4  -1 793.693 76.1063   9
   0   4  -1 824.409 73.5838   5
   0   4  -1 731.177 75.7024   9
   0   4   1 832.312 81.6793  10
   0   4   1 858.069 73.8452   5
   0   4   1 882.884 76.0745   9
   0   4  -1 695.071 75.7691   6
   1  -4   1 438.607 33.3349   8
  -1  -4  -1 323.593 32.8727   8
  -1  -4  -1 373.948 36.4205  10
   1  -4   1 405.576 34.7130   6
  -1  -4  -1 348.129 34.4630   9
  -1   4  -1 326.523 33.9664   9
  -1   4  -1 322.458 34.8980   6
   1   4   1 407.675 34.1410   7
   1   4   1 384.291 33.8939   1
   1   4   1 378.189 33.9887   9
  -1   4  -1 307.297 33.7427   5
  -1   4  -1 347.741 34.0721   9
  -1   4  -1 397.973 34.5575   7
  -1   4  -1 378.687 37.7447  10
   1   4   1 409.487 37.1350  10
   1   4   1 404.062 33.6255   5
  -1   4  -1 368.002 34.0398   1
   1   4   1 338.917 34.0820   9
   2  -4   1 108.484 11.2935  10
   2  -4   1 88.6593 10.2256   9
   2  -4   1 107.752 10.6948   6
  -2  -4  -1 99.8651 10.3584   2
   2  -4   1 79.2472 9.93678   2
   2  -4   1 87.5317 10.7198  10
  -2  -4  -1 105.481 9.80668   9
  -2  -4  -1 87.1929 9.30706   8
   2  -4   1 117.603 10.7569   7
   2   4   1 85.1277 10.3322  10
  -2   4  -1 107.518 11.3818   3
  -2   4  -1 86.1314 11.2987   6
  -2   4  -1 86.6914 10.6547   9
  -2   4  -1 100.372 11.2573   7
  -2   4  -1 94.0685 11.0976   1
   2   4   1 111.540 10.2251   7
   2   4   1 107.887 10.1800   1
  -2   4  -1 103.138 10.5590  10
   2   4   1 122.396 10.0200   5
  -2   4  -1 87.7692 9.65942   9
  -2   4  -1 100.580 11.2072   5
  -2   4  -1 82.5762 11.9061  10
   3  -4   1 628.833 61.9691   9
  -3  -4  -1 641.229 59.1999   8
   3  -4   1 720.268 62.3210   6
   3  -4   1 603.736 61.2212   2
   3  -4   1 756.248 63.1433   9
   3  -4   1 730.277 66.9246  10
  -3  -4  -1 663.606 61.9002   9
  -3  -4  -1 672.158 59.2730   8
   3  -4   1 720.517 66.4517  10
  -3  -4  -1 598.217 61.5564   2
   3  -4   1 694.324 60.6284   7
   3   4   1 712.793 61.5567   6
  -3   4  -1 739.666 62.0096   7
  -3   4  -1 690.922 61.1902   5
  -3   4  -1 683.158 62.1097   9
  -3   4  -1 576.522 62.7478   6
  -3   4  -1 542.083 60.7976   1
   3   4   1 701.059 62.1198   2
   3   4   1 690.057 59.0948   5
  -3   4  -1 738.010 63.2271   9
   4  -4   1 717.533 59.0363   9
   4  -4   1 593.721 56.7268   1
   4  -4   1 668.508 56.7913   7
   4  -4   1 680.595 57.5950   2
  -4  -4  -1 609.563 60.3674   4
   4  -4   1 536.459 58.1430   6
   4  -4   1 732.893 63.2192  10
   4  -4   1 613.280 62.1221  10
  -4  -4  -1 640.695 55.6341   8
  -4  -4  -1 649.562 55.7660   8
  -4   4  -1 626.975 57.6636   1
  -4   4  -1 597.089 59.1528   6
  -4   4  -1 587.526 58.0996   7
   4   4   1 714.353 58.2373   2
  -4   4  -1 611.592 65.9692   3
  -4   4  -1 644.481 58.2474   9
   4   4   1 563.763 56.0485   1
  -4   4  -1 577.028 57.5127   5
   5  -4   1 251.863 23.6983   2
  -5  -4  -1 241.203 22.7859   8
   5  -4   1 255.550 24.1533   9
   5  -4   1 269.858 23.4097   7
  -5  -4  -1 282.716 23.1424   7
   5  -4   1 246.698 25.4153  10
  -5  -4  -1 255.835 25.1815   4
   5  -4   1 222.337 24.3803   6
   5  -4   1 297.771 26.6970  10
  -5  -4  -1 262.497 22.7891   8
   5  -4   1 239.042 23.8466   1
  -5   4  -1 246.764 27.5204   3
  -5   4  -1 233.995 24.5023   1
   5   4   1 258.793 24.1829   2
   5   4   1 260.994 22.9581   1
  -5   4  -1 242.017 23.9405   9
  -5   4  -1 234.001 25.0712   7
   6  -4   1 149.157 14.4995  10
   6  -4   1 102.860 13.0663   1
   6  -4   1 150.104 13.5460  10
   6  -4   1 125.818 12.5382   9
  -6  -4  -1 131.082 12.1799   8
  -6  -4  -1 113.740 11.9148   8
  -6  -4  -1 148.072 14.0098   4
   6  -4   1 133.804 12.5036   7
   6  -4   1 148.200 12.7044   2
   6  -4   1 118.789 13.6601   6
   6   4   1 128.896 12.1699   1
  -6   4  -1 145.959 15.4256   3
  -6   4  -1 100.463 13.4972   1
  -6   4  -1 104.262 14.0684   7
   7  -4   1 345.735 32.7960   6
  -7  -4  -1 334.509 30.2065   8
   7  -4   1 403.145 34.4974  10
   7  -4   1 379.242 31.1300   7
   7  -4   1 317.173 31.4000   9
   7  -4   1 315.717 33.6538  10
   7  -4   1 298.122 31.6700   1
  -7   4  -1 294.683 32.5367   5
  -7   4  -1 380.323 37.1095   3
  -7   4  -1 308.947 32.7022   7
   7   4   1 362.185 30.5374   1
   8  -4   1 404.843 34.5314   7
   8  -4   1 351.966 37.5472  10
   8  -4   1 368.164 37.8382  10
  -8  -4  -1 402.536 37.7658   4
  -8  -4  -1 367.593 33.7494   8
   8  -4   1 424.123 34.0753   5
  -8   4  -1 390.210 41.3117   3
  -8   4  -1 353.774 36.3378   7
   8   4   1 375.063 34.0221   1
   9  -4   1 81.2011 8.70652  10
   9  -4   1 86.7006 8.75148  10
  -9  -4  -1 84.4923 10.1852   4
   9  -4   1 89.9967 9.84248   1
  -9  -4  -1 77.6947 7.96373   8
   9  -4   1 91.0587 8.17985   5
   9  -4   1 73.5013 9.66784   6
  -9   4  -1 88.1662 11.0104   7
  -9   4  -1 88.8322 11.6404   3
 -10  -4  -1 111.876 9.96060   8
 -10  -4  -1 123.666 12.5379   4
  10  -4   1 90.6678 11.4902   6
  10  -4   1 97.6219 11.4449   1
 -10   4  -1 100.933 12.1659   7
  11  -4   1 239.097 22.2428   1
 -11  -4  -1 246.517 20.7334   8
  11  -4   1 233.830 22.6095   6
 -11   4  -1 188.992 22.1393   7
 -12  -4  -1 142.783 12.9094   8
  12  -4   1 133.965 14.0971   1
 -12   4  -1 132.333 14.1883   7
 -13  -4  -1 19.8701 3.14660   8
  13  -4   1 22.3154 4.45915   1
  12  -5  -1 130.499 14.0313   1
 -12   5   1 136.204 14.5530   7
  11  -5  -1 50.8097 7.78209   6
  11  -5  -1 47.6684 7.53982   1
 -11  -5   1 61.3342 5.59352   8
 -11   5   1 46.2161 7.94809   7
  10  -5  -1 66.9042 9.94715   6
 -10  -5   1 91.3539 7.81472   8
  10  -5  -1 75.4435 9.87516   1
 -10   5   1 73.6398 10.7628   7
   9  -5  -1 63.8737 8.72056   1
   9  -5  -1 57.7530 8.85124   6
  -9  -5   1 63.1085 6.41455   8
  -9   5   1 69.8983 10.0583   7
  -9   5   1 83.9870 10.1292   3
   8  -5  -1 399.594 33.5507   1
  -8  -5   1 347.357 30.9015   8
   8  -5  -1 329.086 34.4793  10
   8  -5  -1 292.084 33.6919   6
   8  -5  -1 352.796 34.3945  10
  -8   5   1 354.336 34.1283   7
  -8   5   1 378.720 37.9185   3
  -7  -5   1 62.9009 5.99985   8
   7  -5  -1 68.4646 6.71160   7
   7  -5  -1 63.0943 8.71119   6
   7  -5  -1 74.1576 8.68695   1
  -7  -5   1 60.0085 5.69927   8
   7  -5  -1 50.9372 5.86809   9
   7  -5  -1 59.4879 6.77697  10
  -7   5   1 62.2290 9.67392   5
  -7   5   1 59.7911 9.50588   7
  -7   5   1 73.3015 8.84312   3
   6  -5  -1 86.3200 10.3331  10
   6  -5  -1 128.809 11.8347   1
   6  -5  -1 116.338 12.1237   6
  -6  -5   1 110.204 9.11695   8
   6  -5  -1 100.469 9.95728   7
   6  -5  -1 89.1862 9.50434   9
  -6  -5   1 90.8475 8.73870   8
  -6   5   1 105.750 12.2705   5
   6   5  -1 93.2710 9.31668   1
  -6   5   1 82.5528 11.8110   7
  -6   5   1 99.3984 11.8819   3
  -5  -5   1 15.4929 2.18007   8
   5  -5  -1 16.9500 4.41159   1
   5  -5  -1 22.4535 3.32083   2
   5  -5  -1 14.9784 2.94513  10
  -5  -5   1 14.2086 1.86298   8
   5  -5  -1 17.3000 2.75835   9
   5  -5  -1 13.6406 3.25846   7
   5  -5  -1 24.0987 5.06198   6
  -5   5   1 17.1808 4.56689   1
  -5   5   1 16.9409 3.72381   3
   5   5  -1 22.7782 3.09265   1
  -5   5   1 10.5337 4.12476   5
  -5   5   1 20.0052 5.01614   7
  -4  -5   1 860.696 74.9590   8
   4  -5  -1 1005.38 77.4519   1
   4  -5  -1 799.899 84.1865  10
   4  -5  -1 821.330 77.0060   7
   4  -5  -1 766.480 79.0139   9
   4  -5  -1 834.123 77.8163   2
   4  -5  -1 823.582 79.2632   6
  -4   5   1 856.498 77.1216   1
   4   5  -1 893.680 75.9094   1
  -4   5   1 827.779 89.0655   3
  -4   5   1 912.319 78.0176   7
  -4   5   1 918.548 79.0547   9
   3  -5  -1 19.7181 3.68866   9
   3  -5  -1 17.0016 4.01188   6
   3  -5  -1 29.4815 5.59600   4
  -3  -5   1 21.1999 2.52471   8
   3  -5  -1 20.1999 3.99293  10
  -3  -5   1 26.0609 2.75304   8
   3  -5  -1 23.0569 3.96802   2
   3  -5  -1 20.7455 4.38940   1
   3  -5  -1 20.0530 4.39348   7
  -3   5   1 22.1969 4.87380   7
  -3   5   1 28.0259 4.89818   3
  -3   5   1 24.4141 3.41053   9
  -3   5   1 20.4997 4.72192   5
   3   5  -1 19.7686 3.48246   1
  -3   5   1 24.4870 4.92451   1
  -2  -5   1 41.8355 4.64017   8
   2  -5  -1 48.1109 6.47584   1
   2  -5  -1 49.9102 6.76176   6
   2  -5  -1 53.3952 6.72028  10
  -2  -5   1 58.8352 5.23870   8
   2  -5  -1 46.4719 6.19923   9
   2  -5  -1 50.1584 7.15645   4
   2   5  -1 40.4893 4.52665   5
  -2   5   1 55.1429 6.16899  10
  -2   5   1 44.8738 6.18640   9
  -2   5   1 60.4870 7.92624  10
  -2   5   1 55.5987 7.19707   5
  -2   5   1 63.2452 7.45856   7
   2   5  -1 47.6956 5.85567   1
   2   5  -1 51.6495 5.18055   7
  -2   5   1 52.3306 5.48033   9
  -2   5   1 45.2376 6.97563   1
  -2   5   1 43.2466 5.25296   9
  -1  -5   1 22.5696 2.88983   8
   1  -5  -1 9.59596 2.41934   8
   1  -5  -1 12.2316 3.36272   4
   1  -5  -1 15.7968 3.03495  10
   1  -5  -1 17.1062 3.53617   9
   1  -5  -1 11.9140 3.14100   1
   1  -5  -1 13.8833 3.69571  10
   1  -5  -1 12.7321 3.26716   6
  -1  -5   1 23.9145 3.12227   9
   1   5  -1 10.8484 3.05559   6
  -1   5   1 17.3656 3.19774  10
   1   5  -1 16.2986 2.58510  10
   1   5  -1 15.7899 2.77364  10
   1   5  -1 13.4603 3.03125   1
  -1   5   1 21.2972 4.33358   1
  -1   5   1 11.5594 3.39452  10
  -1   5   1 12.0488 3.42993   5
   1   5  -1 16.3420 2.86456   5
  -1   5   1 14.5999 3.13892   9
   1   5  -1 25.7956 3.58436   7
  -1   5   1 14.5503 3.81603   7
  -1   5   1 12.8576 2.26689   9
   0  -5  -1 1360.14 139.854  10
   0  -5  -1 1277.07 135.157   4
   0  -5  -1 1399.11 129.546   6
   0  -5  -1 1567.47 131.407   9
   0  -5  -1 1198.37 129.217   2
   0   5  -1 1456.46 127.469   7
   0   5  -1 1274.35 130.578   9
   0   5   1 1497.32 140.373  10
   0   5   1 1600.59 127.107   1
   0   5  -1 1465.09 126.192   5
   0   5  -1 1393.79 140.062  10
   0   5   1 1568.24 131.334   9
   0   5  -1 1630.48 139.468  10
   0   5   1 1475.08 130.847   9
   0   5  -1 1560.96 131.077   9
   0   5   1 1196.24 126.083   5
  -1  -5  -1 1.55764 1.23278   8
   1  -5   1 2.08084 1.69877   9
   1  -5   1 1.30237 1.72729  10
  -1  -5  -1 1.57782 1.36611   9
  -1  -5  -1 2.47201 1.17498   4
   1  -5   1 1.28080 1.60862   8
   1  -5   1 2.34613 1.76375  10
   1  -5   1 1.51451 2.02211   6
   1  -5   1 1.39823 2.13307   4
  -1   5  -1 1.47928 2.30396   5
   1   5   1 3.53960 2.27502  10
   1   5   1 2.53020 1.24688   9
  -1   5  -1 1.62888 2.54820   1
  -1   5  -1 3.94692 2.62180  10
   1   5   1 3.22143 2.34306   5
   1   5   1 2.39042 2.37861   1
  -1   5  -1 4.59936 2.65902   7
  -1   5  -1 2.61147 2.01327   9
   1   5   1 4.29889 2.36464   7
  -1   5  -1 0.21002 1.95595   6
  -1   5  -1 1.94499 0.97425   9
   1   5   1 0.86316 0.94087   9
  -1   5  -1 1.34140 1.03251  10
   1   5   1 2.97428 1.91919  10
   2  -5   1 4.81848 2.16289   2
   2  -5   1 3.28512 2.31361   1
  -2  -5  -1 2.44317 1.15813   8
   2  -5   1 3.31553 1.88529   9
   2  -5   1 11.2736 2.50095   8
   2  -5   1 7.02599 3.22599   4
  -2  -5  -1 4.82118 1.40338   4
   2  -5   1 2.85246 2.52804   7
   2  -5   1 4.39058 2.35709   6
  -2   5  -1 6.84704 1.84061  10
   2   5   1 3.00124 2.02324   1
   2   5   1 6.68151 1.86244  10
  -2   5  -1 4.12253 1.87596   3
  -2   5  -1 1.87384 2.78884  10
  -2   5  -1 5.86986 2.81687   5
   2   5   1 8.46057 1.69473  10
   2   5   1 10.3460 2.49723   5
  -2   5  -1 1.54540 2.22751   9
   2   5   1 5.06989 2.37119   7
  -2   5  -1 2.97918 1.33093   9
  -2   5  -1 8.71474 3.50727   1
  -2   5  -1 7.17655 3.03462   6
  -2   5  -1 9.57093 3.38612   7
   3  -5   1 75.1398 8.46752   2
  -3  -5  -1 78.5207 7.60421   8
  -3  -5  -1 71.3052 8.32917   4
   3  -5   1 73.3891 9.00585   9
   3  -5   1 106.149 9.72328   1
   3  -5   1 81.4855 9.08685   7
   3  -5   1 96.2251 9.65561   6
   3   5   1 94.0835 8.63423   1
  -3   5  -1 74.6133 9.74445   7
   3   5   1 84.3375 7.58271   5
  -3   5  -1 66.6553 9.45953   1
  -3   5  -1 74.1179 10.6197  10
  -3   5  -1 65.8957 9.54121   6
  -3   5  -1 88.9327 8.32677   9
  -3   5  -1 65.5370 9.42041   5
  -3   5  -1 83.8258 9.60006   3
  -4  -5  -1 1481.91 129.271   4
   4  -5   1 1278.01 125.857   9
   4  -5   1 1278.80 121.601   7
   4  -5   1 1336.53 123.514   2
  -4  -5  -1 1379.10 119.463   8
  -4   5  -1 1252.79 140.969   3
  -4   5  -1 1392.28 121.725   1
  -4   5  -1 1544.08 122.964   7
  -4   5  -1 1554.15 125.415   9
  -4   5  -1 1176.13 121.245   5
   5  -5   1 2.94912 2.42845   6
   5  -5   1 4.40182 2.11048   9
  -5  -5  -1 3.93562 1.44282   8
   5  -5   1 0.72042 1.69919   7
  -5  -5  -1 5.62389 2.13397   4
   5  -5   1 -0.0701 1.96018   1
   5   5   1 3.15142 1.81478   1
  -5   5  -1 4.60728 3.55117   7
  -5   5  -1 4.79218 3.47355   5
  -5   5  -1 3.04668 2.90968   1
  -5   5  -1 6.13374 1.75347   9
  -5   5  -1 1.52427 1.83388   3
   6  -5   1 43.9293 6.96519   1
   6  -5   1 48.1562 5.79738   9
  -6  -5  -1 52.7043 5.40180   8
   6  -5   1 57.5317 7.09514   6
  -6  -5  -1 42.6926 6.22192   4
  -6   5  -1 42.2324 7.21304   1
  -6   5  -1 60.3556 8.47949   7
   6   5   1 56.0479 5.56330   1
  -6   5  -1 50.0234 7.26102   3
  -6   5  -1 38.0478 7.68012   5
   7  -5   1 100.273 10.8472   1
   7  -5   1 102.019 10.1886  10
  -7  -5  -1 104.765 10.8872   4
  -7  -5  -1 83.2588 8.97657   8
   7  -5   1 98.2659 10.9693   6
   7  -5   1 87.9960 9.54507   7
   7  -5   1 88.4423 9.32266   9
  -7   5  -1 109.946 12.2916   3
  -7   5  -1 84.1052 11.5920   7
   7   5   1 96.2523 9.36994   1
  -7   5  -1 103.491 12.0752   5
   8  -5   1 995.927 93.5862  10
   8  -5   1 1124.56 85.5055   7
   8  -5   1 808.395 85.5991   1
   8  -5   1 956.093 87.4722   9
  -8  -5  -1 946.553 84.0355   8
   8  -5   1 879.108 87.9976   6
  -8   5  -1 982.700 86.8288   5
   8   5   1 833.641 84.4093   1
  -8   5  -1 1073.44 100.363   3
  -8   5  -1 998.482 87.2166   7
  -9  -5  -1 3.34742 1.47729   8
   9  -5   1 5.64890 1.89778  10
   9  -5   1 -0.0191 2.56426   6
   9  -5   1 2.84442 2.64973   1
   9  -5   1 4.40471 1.68147   5
  -9   5  -1 3.14835 3.24109   3
  -9   5  -1 2.68171 3.38796   7
  10  -5   1 53.5063 5.51419   5
 -10  -5  -1 51.0102 5.38049   8
  10  -5   1 44.2138 7.04860   1
  10  -5   1 49.0173 7.38975   6
 -10   5  -1 45.6259 8.13502   3
 -10   5  -1 77.7262 9.02534   7
 -11  -5  -1 71.3731 6.73608   8
  11  -5   1 61.0886 8.35767   6
  11  -5   1 55.6249 8.10921   1
 -11   5  -1 67.6566 8.79436   7
 -12  -5  -1 423.656 38.9963   8
  12  -5   1 434.973 40.4087   1
 -12   5  -1 465.040 40.8140   7
 -12  -6   1 95.4409 8.94904   8
  12  -6  -1 92.5852 10.8716   1
 -11  -6   1 7.77676 1.61504   8
  11  -6  -1 11.4260 3.53101   1
 -11   6   1 8.41123 4.15243   7
 -10  -6   1 175.372 14.8327   8
  10  -6  -1 129.570 16.9497   6
  10  -6  -1 190.209 15.1006   5
  10  -6  -1 131.795 16.4610   1
 -10   6   1 149.871 17.4496   7
   9  -6  -1 107.844 12.2014   1
   9  -6  -1 90.0132 12.2663   6
  -9  -6   1 105.805 10.0082   8
  -9   6   1 127.048 13.6140   3
  -9   6   1 105.565 13.1658   7
   8  -6  -1 256.326 27.3300  10
   8  -6  -1 252.512 27.2564   6
  -8  -6   1 252.888 24.2528   8
   8  -6  -1 286.842 25.3248   7
   8  -6  -1 260.125 26.4949   1
  -8   6   1 330.276 28.2722   7
  -8   6   1 317.835 30.1797   3
  -8   6   1 268.099 28.1800   5
   7  -6  -1 35.5916 4.63381   7
  -7  -6   1 32.5523 3.33325   8
   7  -6  -1 25.5934 5.53272   1
   7  -6  -1 35.7834 6.18906   6
   7  -6  -1 32.9821 3.84994   9
  -7   6   1 34.4867 7.00612   5
  -7   6   1 21.9935 6.06468   7
  -7   6   1 36.6816 5.67616   3
   6  -6  -1 311.071 32.3068   1
  -6  -6   1 345.332 30.2353   8
   6  -6  -1 376.792 32.3216   9
   6  -6  -1 350.294 31.7432   7
  -6   6   1 316.658 32.9655   5
   6   6  -1 323.164 30.9446   1
  -6   6   1 368.159 33.5889   7
  -6   6   1 353.457 36.7739   3
   5  -6  -1 178.528 16.7130   6
  -5  -6   1 144.664 13.5050   8
   5  -6  -1 142.580 15.0483   7
   5  -6  -1 153.805 15.9276   1
   5  -6  -1 157.558 15.0474   9
  -5   6   1 162.641 16.5395   5
  -5   6   1 121.551 15.4916   1
   5   6  -1 155.892 14.2968   1
  -5   6   1 170.812 17.2027   3
  -5   6   1 128.419 16.0919   7
   4  -6  -1 462.715 43.9196   7
   4  -6  -1 549.067 44.3313   1
   4  -6  -1 504.118 44.9580   9
   4   6  -1 497.936 42.9350   1
  -4   6   1 420.763 43.8443   1
  -4   6   1 475.794 44.6049   7
  -4   6   1 419.033 44.0110   5
  -4   6   1 510.561 50.3808   3
  -4   6   1 457.003 44.3955   9
   3  -6  -1 57.3032 7.14241   2
   3  -6  -1 62.0480 8.49353   4
  -3  -6   1 69.9143 5.90087   8
   3  -6  -1 69.6718 7.61947   9
   3  -6  -1 54.9430 7.68088   7
   3  -6  -1 66.5396 7.87022   1
  -3   6   1 46.0270 7.82895   5
   3   6  -1 51.2884 6.63000   1
  -3   6   1 56.2194 6.49949   9
  -3   6   1 66.8288 8.48062   7
  -3   6   1 54.4946 6.40429   9
  -3   6   1 63.0250 8.10778   1
   2  -6  -1 748.105 62.4197   4
   2  -6  -1 681.683 60.0726   9
   2   6  -1 617.668 56.2977   5
  -2   6   1 537.418 59.1407   9
  -2   6   1 643.270 58.7146   7
  -2   6   1 696.976 58.3934   5
  -2   6   1 615.940 58.2409   1
   1  -6  -1 169.107 18.1690   4
   1  -6  -1 174.483 17.6771   9
   1  -6  -1 193.175 17.4624   1
  -1   6   1 175.259 17.0361   9
  -1   6   1 194.918 18.1137   1
  -1   6   1 195.458 18.2181   7
   1   6  -1 161.581 16.5903   5
   1   6  -1 196.439 18.3168  10
   1   6  -1 180.068 17.1614   7
  -1   6   1 155.063 19.3769  10
  -1   6   1 209.430 18.5135  10
  -1   6   1 182.626 17.8685   5
   1   6  -1 153.162 17.0362   1
   1   6  -1 178.941 17.9511  10
   0  -6  -1 541.004 41.0000   1
   0  -6  -1 398.559 43.3790   4
   0   6  -1 433.575 41.0324   5
   0   6  -1 466.728 41.6955   9
   0   6   1 418.389 41.6000   1
   0   6   1 512.271 42.0190   7
   0   6   1 448.833 41.3907   5
   0   6   1 483.213 45.0374  10
   0   6  -1 375.377 42.1937   6
   0   6  -1 506.309 41.8020   7
   0   6   1 376.129 45.4863  10
   0   6   1 450.158 41.8753   9
   0   6  -1 400.278 45.2801  10
   0   6  -1 531.608 44.7258  10
   0   6   1 470.373 42.5492   9
   1  -6   1 46.9134 5.69059   1
  -1  -6  -1 30.4302 4.40910   4
   1  -6   1 44.3040 5.36713   4
  -1  -6  -1 43.5781 4.44697   8
   1   6   1 37.8659 5.89224   1
   1   6   1 40.8650 4.16388   9
  -1   6  -1 32.2891 5.43590   1
  -1   6  -1 40.7154 6.57789  10
  -1   6  -1 32.6246 4.13088   9
   1   6   1 41.9951 5.85180  10
   1   6   1 42.2309 5.80807   5
  -1   6  -1 36.8237 5.70757   6
  -1   6  -1 34.9282 5.86293   5
  -1   6  -1 40.0825 6.06447   7
   1   6   1 44.6943 5.93785   7
   1   6   1 40.9321 5.03380  10
  -1   6  -1 37.1866 4.68347  10
   1   6   1 43.1733 3.99710   9
   2  -6   1 745.687 63.7715   1
  -2  -6  -1 743.219 67.1189   4
  -2  -6  -1 804.314 62.3738   8
   2  -6   1 775.151 68.0673   4
  -2   6  -1 640.973 64.2204   7
  -2   6  -1 631.726 65.0471   9
   2   6   1 765.805 63.7903   7
   2   6   1 777.545 63.7072   1
   2   6   1 661.579 69.3603  10
  -2   6  -1 765.327 71.0933  10
   2   6   1 709.937 62.8846   5
  -2   6  -1 625.816 63.6310   5
   2   6   1 751.577 69.1282  10
  -2   6  -1 611.730 65.4293   6
  -2   6  -1 613.972 63.5463   1
  -3  -6  -1 218.682 19.0781   4
  -3  -6  -1 216.118 17.6582   8
   3  -6   1 194.097 19.3247   7
   3  -6   1 192.568 19.1104   1
   3  -6   1 206.148 19.2663   9
  -3   6  -1 160.218 19.6346   6
  -3   6  -1 224.719 21.3273   3
  -3   6  -1 178.800 19.4618   7
  -3   6  -1 157.087 19.0843   5
  -3   6  -1 178.967 19.1922   1
   3   6   1 204.225 18.6378   1
   3   6   1 179.364 17.4526   5
  -3   6  -1 197.664 18.6295   9
   4  -6   1 327.543 28.9128   7
   4  -6   1 307.878 28.7431   1
   4  -6   1 265.416 29.3574   9
  -4  -6  -1 336.290 27.2602   8
  -4   6  -1 309.262 29.4947   7
  -4   6  -1 328.885 32.6426   3
  -4   6  -1 314.595 28.8292   9
  -4   6  -1 238.098 28.7453   5
   4   6   1 309.542 28.1501   1
   5  -6   1 16.6976 3.18845   7
   5  -6   1 10.6768 3.14516   1
   5  -6   1 8.80783 2.78672   9
  -5  -6  -1 7.36710 1.69361   8
  -5   6  -1 7.84768 3.59129   7
   5   6   1 11.3279 2.70070   1
  -5   6  -1 7.52862 3.49683   5
  -5   6  -1 9.47421 3.71790   1
  -5   6  -1 13.1778 2.46368   9
  -5   6  -1 10.0276 2.81783   3
   6  -6   1 472.075 44.3848   7
   6  -6   1 470.914 46.2949   6
  -6  -6  -1 503.337 43.2304   8
   6  -6   1 474.368 44.8083   1
   6  -6   1 519.458 45.8980   9
   6   6   1 521.570 43.8533   1
  -6   6  -1 406.860 45.3951   7
  -6   6  -1 500.181 45.5400   5
  -6   6  -1 517.802 51.7522   3
   7  -6   1 167.488 18.1897   1
  -7  -6  -1 178.681 16.6784   8
   7  -6   1 184.166 17.4333   7
   7  -6   1 207.391 17.7076   9
   7  -6   1 155.438 18.4388   6
  -7   6  -1 211.774 19.5766   7
   7   6   1 190.023 17.0448   1
  -7   6  -1 196.448 19.2554   5
  -7   6  -1 159.524 20.3279   3
   8  -6   1 170.603 17.5596   1
  -8  -6  -1 179.534 15.8436   8
   8  -6   1 165.369 16.4736   7
   8  -6   1 130.715 17.4331   6
  -8   6  -1 187.154 18.6020   5
  -8   6  -1 192.691 18.5813   7
  -8   6  -1 186.750 19.8516   3
   9  -6   1 2.67081 2.77596   6
   9  -6   1 1.96804 2.59503   1
   9  -6   1 6.43351 1.87823   5
  -9  -6  -1 1.67973 1.40148   8
  -9   6  -1 1.81586 2.55364   3
  -9   6  -1 1.63772 3.20816   7
 -10  -6  -1 198.001 18.1062   8
  10  -6   1 170.098 19.4428   1
  10  -6   1 199.318 18.1846   5
 -10   6  -1 234.885 20.8914   7
 -11  -6  -1 142.084 13.2090   8
  11  -6   1 128.126 14.5715   1
 -11   6  -1 153.460 15.3100   7
  12  -6   1 93.9352 11.2726   1
 -12  -6  -1 108.740 9.99702   8
  11  -7  -1 17.1946 4.61110   1
 -11  -7   1 23.5710 3.08890   8
 -11   7   1 28.4524 5.82877   7
  10  -7  -1 108.744 9.50301   5
  10  -7  -1 69.1722 10.6895   1
 -10  -7   1 92.4831 8.98442   8
 -10   7   1 115.460 12.4448   7
  -9  -7   1 59.3697 5.67421   8
   9  -7  -1 49.0208 8.17204   1
  -9   7   1 67.6406 9.58016   7
  -8  -7   1 238.855 20.6938   8
   8  -7  -1 245.078 21.9301   7
   8  -7  -1 188.310 22.5994   1
  -8   7   1 243.331 24.0706   5
  -8   7   1 221.925 23.7166   7
  -8   7   1 248.702 25.7236   3
   7  -7  -1 6.69059 3.33109   1
  -7  -7   1 9.01911 1.36267   8
   7  -7  -1 5.84135 2.38065   7
  -7   7   1 6.68441 2.53862   3
  -7   7   1 7.98266 4.08065   5
  -7   7   1 6.44151 4.06412   7
   6  -7  -1 140.960 14.6314   1
   6  -7  -1 127.420 13.8585   7
  -6  -7   1 139.930 12.3319   8
   6  -7  -1 132.000 13.7824   9
  -6   7   1 155.370 15.8416   5
  -6   7   1 114.663 14.4829   1
   6   7  -1 147.035 13.3107   1
  -6   7   1 141.201 15.5750   7
  -6   7   1 140.002 15.6701   3
   5  -7  -1 34.4509 6.07518   1
   5  -7  -1 26.5971 4.79587   7
   5  -7  -1 34.4946 4.75252   9
  -5  -7   1 28.1391 3.03842   8
  -5   7   1 38.3094 6.59821   5
   5   7  -1 35.2008 4.25640   1
  -5   7   1 16.6287 5.13676   7
  -5   7   1 19.9769 4.86584   1
  -4  -7   1 422.082 41.1107   8
   4  -7  -1 543.690 43.4682   1
   4  -7  -1 495.377 43.2838   7
   4  -7  -1 495.365 44.2111   9
   4   7  -1 471.453 42.1706   1
  -4   7   1 453.022 43.4224   5
  -4   7   1 496.106 43.5467   9
  -4   7   1 403.056 43.1047   1
  -4   7   1 443.590 43.7459   7
   3  -7  -1 5.83146 2.65282   4
   3  -7  -1 9.30509 3.18774   7
   3  -7  -1 6.24769 2.85175   1
   3  -7  -1 9.05471 2.73424   9
  -3  -7   1 7.48551 1.42025   8
  -3   7   1 8.57581 1.87070   9
  -3   7   1 5.40465 3.37826   7
   3   7  -1 7.97734 2.48410   1
  -3   7   1 8.72067 3.50975   5
  -3   7   1 4.12169 2.99457   1
   2  -7  -1 158.688 15.0946   1
   2  -7  -1 145.749 15.5494   4
  -2  -7   1 178.100 13.9590   8
  -2   7   1 172.891 16.0871   7
  -2   7   1 120.622 15.2663   1
  -2   7   1 133.645 15.4837   5
   2   7  -1 139.446 14.6187   1
  -2   7   1 146.884 14.4478   9
   2   7  -1 154.329 13.5001   5
  -1  -7   1 4.32508 1.56541   8
   1  -7  -1 2.43484 1.57735   4
   1  -7  -1 3.98460 2.18944   1
  -1   7   1 1.19179 2.55300  10
   1   7  -1 3.41095 1.15894  10
  -1   7   1 1.05135 0.97575   9
   1   7  -1 2.34561 1.78999   7
  -1   7   1 1.78632 2.72924   7
  -1   7   1 2.69910 2.70985   5
  -1   7   1 1.80222 2.19299   1
   1   7  -1 5.64672 2.33260   1
   1   7  -1 3.06913 1.54887   5
   1   7  -1 5.15046 1.51671  10
   0  -7  -1 981.164 85.5728   8
   0  -7  -1 978.195 92.0604   4
   0   7   1 1043.28 95.1849  10
   0   7  -1 873.517 95.4067  10
   0   7   1 944.246 87.4176   7
   0   7   1 1014.95 86.6724   5
   0   7   1 823.135 95.7762  10
   0   7  -1 1007.95 88.8299   9
   0   7   1 862.134 86.8444   1
   0   7  -1 1067.52 88.9165   9
   0   7   1 1088.09 89.1394   9
   0   7  -1 1055.20 87.2842   7
   0   7  -1 940.545 86.1601   5
   0   7  -1 925.314 94.8468  10
   1  -7   1 34.0230 5.36476   7
  -1  -7  -1 39.7474 4.25030   8
  -1  -7  -1 37.5654 4.46359   4
   1   7   1 39.8267 5.69262   7
   1   7   1 43.0682 4.65138  10
  -1   7  -1 31.3486 5.39839   1
  -1   7  -1 39.5499 5.78360   5
   1   7   1 42.4717 6.05496   1
  -1   7  -1 35.7737 6.20645  10
  -1   7  -1 36.2257 4.03879   9
   1   7   1 32.5409 5.41123  10
   1   7   1 44.8452 5.73373   5
  -1   7  -1 35.4581 4.48157  10
  -1   7  -1 37.5897 5.81332   7
   2  -7   1 81.4535 8.88561   7
   2  -7   1 78.5908 8.53283   1
  -2   7  -1 60.9536 8.61648   6
  -2   7  -1 74.1537 8.88002   7
   2   7   1 85.8613 7.55260  10
   2   7   1 68.9211 7.69442  10
  -2   7  -1 61.0127 8.50422   5
   2   7   1 70.1606 8.36936   1
  -2   7  -1 73.1430 8.63192   1
   2   7   1 75.9721 7.64293   5
  -2   7  -1 63.3435 7.24369   9
   3  -7   1 13.8000 3.46488   1
   3  -7   1 9.04879 3.11849   7
  -3  -7  -1 8.66341 1.68364   8
  -3   7  -1 9.58781 3.29922   1
  -3   7  -1 7.16823 3.04426   6
  -3   7  -1 8.03343 1.81860   9
  -3   7  -1 9.69448 3.52840   5
  -3   7  -1 10.6461 2.05526   9
   3   7   1 8.50222 2.76419   1
  -3   7  -1 10.9415 3.38158   7
   4  -7   1 1187.47 110.278   7
   4  -7   1 1387.13 109.854   1
   4  -7   1 1166.68 113.532   9
  -4   7  -1 1130.66 127.110   3
   4   7   1 1109.18 108.928   1
  -4   7  -1 1346.74 109.934   5
  -4   7  -1 1269.38 113.082   9
  -4   7  -1 1303.11 110.788   7
  -5  -7  -1 27.8435 3.44867   8
   5  -7   1 37.4390 5.29014   9
   5  -7   1 33.7212 5.10625   7
   5  -7   1 26.0698 4.91317   1
  -5   7  -1 34.2535 4.99733   3
   5   7   1 26.4965 4.47432   1
  -5   7  -1 28.5206 5.59700   5
  -5   7  -1 36.2636 4.29700   9
  -5   7  -1 33.2522 6.07688   7
  -5   7  -1 31.3926 5.88197   1
   6  -7   1 15.5606 3.43243   7
   6  -7   1 13.3289 3.69208   1
  -6  -7  -1 19.4201 2.48049   8
   6  -7   1 19.4139 3.65220   9
  -6   7  -1 20.7727 4.94921   5
  -6   7  -1 15.7768 3.45285   3
  -6   7  -1 11.3255 3.97002   7
   6   7   1 15.4662 3.05042   1
  -6   7  -1 13.3544 4.11313   1
   7  -7   1 27.9546 5.22573   1
   7  -7   1 31.9006 4.80979   7
  -7  -7  -1 29.5134 3.65652   8
  -7   7  -1 30.8319 5.87299   7
  -7   7  -1 35.6515 5.60710   3
  -7   7  -1 42.9451 6.96668   5
   7   7   1 34.6131 4.38297   1
   8  -7   1 980.874 85.3442   1
   8  -7   1 900.554 84.8259   7
  -8  -7  -1 1006.55 83.2446   8
  -8   7  -1 909.634 85.4790   5
  -8   7  -1 857.529 85.9464   7
  -8   7  -1 1025.78 98.9216   3
   9  -7   1 11.6572 3.65510   1
  -9  -7  -1 10.2799 2.13582   8
  -9   7  -1 12.5528 4.43050   5
  -9   7  -1 18.5935 4.73814   7
 -10  -7  -1 2.93597 1.72985   8
  10  -7   1 4.08536 1.86712   5
  10  -7   1 4.51598 2.95423   1
 -10   7  -1 5.50464 3.59194   7
 -11  -7  -1 52.7162 5.17525   8
  11  -7   1 33.5113 6.27482   1
 -10  -8   1 87.3209 7.77320   8
  10  -8  -1 81.4238 8.37400   5
  10  -8  -1 85.6917 10.3243   1
 -10   8   1 63.5110 9.82060   7
   9  -8  -1 23.3031 5.28532   1
  -9  -8   1 23.6244 2.77224   8
  -9   8   1 25.8798 5.78726   5
  -9   8   1 24.5835 5.48229   7
  -8  -8   1 332.683 29.7734   8
   8  -8  -1 343.998 32.1645   1
   8  -8  -1 299.634 31.0385   7
  -8   8   1 329.221 32.5338   7
  -8   8   1 414.487 33.0884   5
   7  -8  -1 246.765 23.8036   1
   7  -8  -1 235.865 23.0484   7
  -7  -8   1 236.619 21.5406   8
  -7   8   1 240.937 24.4319   7
  -7   8   1 268.814 24.6704   5
  -6  -8   1 218.022 20.7910   8
   6  -8  -1 249.928 22.6809   7
   6  -8  -1 219.853 22.7665   1
  -6   8   1 276.120 24.0951   5
   6   8  -1 249.701 21.7949   1
  -6   8   1 201.107 22.8666   1
  -6   8   1 253.957 23.9722   7
   5  -8  -1 99.8835 10.5336   1
   5  -8  -1 83.6682 9.94471   7
   5  -8  -1 96.3146 10.0352   9
  -5  -8   1 77.3075 8.13747   8
  -5   8   1 89.7011 11.1391   5
  -5   8   1 92.7661 9.34262   9
  -5   8   1 92.0673 11.3006   7
  -5   8   1 103.287 9.32988   9
   5   8  -1 88.3791 9.15823   1
  -5   8   1 79.0919 10.5591   1
  -4  -8   1 518.371 46.4867   8
   4  -8  -1 483.552 48.3549   7
   4  -8  -1 547.739 48.4446   1
  -4   8   1 577.966 49.1628   9
  -4   8   1 632.575 49.2889   5
  -4   8   1 561.434 49.3484   7
  -4   8   1 490.134 48.5797   1
   4   8  -1 451.825 47.4065   1
  -3  -8   1 418.074 42.1706   8
   3  -8  -1 486.862 44.0944   7
   3  -8  -1 475.001 46.0664   4
   3  -8  -1 516.645 43.8117   1
  -3   8   1 531.613 44.4233   9
   3   8  -1 439.485 43.1965   1
  -3   8   1 482.850 44.6946   7
  -3   8   1 470.057 44.2111   1
  -3   8   1 512.786 44.4306   5
   2  -8  -1 602.921 52.3267   1
   2  -8  -1 546.499 52.2890   7
   2  -8  -1 524.535 55.3432   4
  -2   8   1 626.780 53.4996   9
  -2   8   1 641.798 53.0728   5
  -2   8   1 516.517 52.6680   1
  -2   8   1 617.030 53.5196   7
  -1  -8   1 75.1277 7.07976   8
  -1   8   1 65.2612 7.01335   9
   1   8  -1 69.9124 7.02325   5
  -1   8   1 62.7317 8.73847   7
   1   8  -1 59.5482 7.70243   1
   1   8  -1 83.7480 7.30610  10
   1   8  -1 71.7625 7.38556  10
  -1   8   1 70.6787 9.91748  10
  -1   8   1 54.4649 8.29224   1
  -1   8   1 71.4015 8.70527   5
   0   8   1 559.069 53.0607   7
   0   8   1 607.064 52.6122   5
   0   8   1 641.153 53.4383   9
   0   8  -1 631.697 57.5873  10
   0   8  -1 494.702 52.1495   1
   0   8   1 500.590 52.5936   1
   0   8   1 561.284 57.9939  10
   0   8  -1 558.571 52.6325   7
   0   8  -1 642.698 57.0543  10
   0   8  -1 601.961 51.9766   5
   1  -8   1 653.571 67.5363   7
  -1   8  -1 764.261 67.5106   5
   1   8   1 687.145 74.2172  10
   1   8   1 845.591 73.8372  10
  -1   8  -1 813.373 69.2761   9
  -1   8  -1 739.578 67.6583   1
  -1   8  -1 800.576 74.8922  10
   1   8   1 710.644 67.8103   1
   1   8   1 812.372 67.3173   5
  -1   8  -1 723.530 68.1271   7
  -2  -8  -1 927.216 73.5622   8
   2  -8   1 693.682 74.9235   7
   2   8   1 947.220 81.3276  10
  -2   8  -1 797.172 76.6956   9
  -2   8  -1 761.793 74.6048   5
   2   8   1 796.667 73.6727   5
  -2   8  -1 884.128 75.5647   7
   2   8   1 823.256 74.8227   1
   2   8   1 875.110 81.3718  10
   3  -8   1 5.21957 2.74035   7
  -3  -8  -1 5.03870 1.37248   8
   3  -8   1 5.75537 2.81077   1
  -3   8  -1 4.43641 2.84366   5
  -3   8  -1 5.80396 3.13803   7
  -3   8  -1 8.16199 3.05019   1
   3   8   1 4.55226 2.42814   1
  -3   8  -1 3.75938 1.30100   9
  -4  -8  -1 293.177 26.7335   8
   4  -8   1 327.334 28.4952   1
   4  -8   1 293.959 28.5534   7
  -4   8  -1 292.096 28.5024   5
  -4   8  -1 312.311 28.8469   7
   4   8   1 283.863 27.7700   1
  -4   8  -1 314.299 28.3299   9
  -4   8  -1 294.903 28.5213   1
   5  -8   1 612.103 53.6835   7
   5  -8   1 620.350 53.4419   1
  -5  -8  -1 614.980 51.6738   8
  -5   8  -1 617.669 53.6869   1
  -5   8  -1 579.572 54.5367   9
  -5   8  -1 524.733 54.3235   9
  -5   8  -1 646.955 53.8312   5
  -5   8  -1 502.770 53.6820   7
  -6  -8  -1 529.051 43.5801   8
   6  -8   1 492.990 45.2965   1
   6  -8   1 484.051 45.2839   7
  -6   8  -1 495.934 45.9596   7
  -6   8  -1 558.538 45.7773   1
  -6   8  -1 465.870 45.5378   5
  -6   8  -1 450.008 51.8073   3
   6   8   1 485.006 44.4851   1
   7  -8   1 5.58706 2.46474   7
   7  -8   1 5.74081 2.94374   1
  -7  -8  -1 3.13676 1.20434   8
  -7   8  -1 5.71913 2.39889   3
  -7   8  -1 1.70648 2.80049   7
   7   8   1 5.19379 2.12821   1
  -7   8  -1 3.23720 3.18588   5
   8  -8   1 94.1718 9.78484   7
   8  -8   1 95.4624 10.6406   1
  -8  -8  -1 85.3323 8.36413   8
  -8   8  -1 103.692 11.3647   5
  -8   8  -1 77.1422 10.6280   7
  -9  -8  -1 261.307 24.2003   8
   9  -8   1 259.230 26.1433   1
  -9   8  -1 272.658 26.4630   5
  -9   8  -1 303.199 26.8477   7
  10  -8   1 183.441 19.1647   5
 -10  -8  -1 223.193 18.8035   8
  10  -8   1 191.840 20.4701   1
 -10   8  -1 190.556 21.3799   7
 -10   8  -1 262.862 21.6337   5
  -9  -9   1 31.0775 3.16370   8
   9  -9  -1 23.8982 5.33017   1
  -9   9   1 20.7538 5.00074   5
   8  -9  -1 21.3563 4.04923   7
  -8  -9   1 22.2205 2.59511   8
   8  -9  -1 22.4286 4.93156   1
  -8   9   1 15.9737 4.72661   5
  -8   9   1 18.9389 4.65690   7
   7  -9  -1 32.7965 6.12982   1
  -7  -9   1 36.1942 3.76190   8
   7  -9  -1 43.2213 5.75935   7
  -7   9   1 33.9211 6.37586   5
  -7   9   1 36.6237 6.36457   7
   6  -9  -1 32.2850 5.36781   7
  -6  -9   1 36.3322 3.69295   8
   6  -9  -1 35.3204 5.85375   1
  -6   9   1 38.2535 6.43460   5
   6   9  -1 34.1031 4.77931   1
  -6   9   1 34.2874 6.12855   1
  -6   9   1 44.8359 6.81257   7
   5  -9  -1 6.01428 2.91113   1
  -5  -9   1 6.51577 1.25531   8
   5  -9  -1 5.22951 2.67457   7
   5   9  -1 3.77898 2.25660   1
  -5   9   1 6.17037 3.43237   5
  -5   9   1 6.88521 3.23401   7
  -5   9   1 5.55413 3.35705   1
   4  -9  -1 127.813 13.6299   1
   4  -9  -1 117.677 13.5388   7
  -4  -9   1 136.370 12.0705   8
  -4   9   1 125.613 14.1458   1
  -4   9   1 149.530 14.7728   7
   4   9  -1 142.380 13.2502   1
  -4   9   1 130.484 14.3435   5
   3  -9  -1 16.9370 3.34238   7
  -3  -9   1 23.8894 2.64401   8
  -3   9   1 28.4645 5.31621   7
  -3   9   1 14.1399 4.15733   5
   3   9  -1 22.7452 3.95044   1
  -3   9   1 15.9636 4.22609   1
  -2  -9   1 6.97848 1.58856   8
   2  -9  -1 9.98270 2.27764   7
   2   9  -1 8.29482 2.74615   1
  -2   9   1 8.58989 3.35736   5
  -2   9   1 9.37850 3.44459   1
  -2   9   1 10.7055 3.85104   7
  -1   9   1 19.8074 4.15648   5
  -1   9   1 19.9407 4.27226   7
   1   9  -1 17.1237 2.38796   5
  -1   9   1 16.4692 4.00832   1
   1   9  -1 18.6786 3.58034   1
   0  -9   1 286.266 26.2978   7
   0   9   1 262.787 27.3022   7
   0   9   1 249.661 26.9267   1
   0   9   1 280.631 26.7250   5
   0   9  -1 279.310 26.7900   1
   0   9  -1 337.548 28.5721  10
   0   9  -1 308.940 26.2796   5
   0   9   1 281.947 29.3541  10
   1  -9   1 7.12582 1.92048   7
  -1   9  -1 8.17199 2.64443   1
  -1   9  -1 7.80108 2.49880   7
   1   9   1 5.97951 1.89891  10
   1   9   1 6.32048 2.19206   5
  -1   9  -1 5.33933 2.56048  10
  -1   9  -1 5.80463 2.33854   5
   1   9   1 2.63359 2.28786   1
   1   9   1 7.67137 1.46380  10
   2  -9   1 52.9373 6.54338   7
  -2   9  -1 63.8356 7.63707   7
   2   9   1 63.1671 7.39792   1
  -2   9  -1 70.0752 7.65723   1
  -2   9  -1 55.4225 7.18996   5
  -3  -9  -1 97.6830 9.10023   8
   3  -9   1 87.9226 10.1569   7
  -3   9  -1 115.331 10.9838   1
   3   9   1 86.4242 10.1721   1
  -3   9  -1 91.4136 10.5537   5
  -3   9  -1 109.603 11.0388   7
  -4  -9  -1 257.591 23.3477   8
   4  -9   1 254.395 25.0701   7
  -4   9  -1 275.979 25.3370   7
   4   9   1 245.942 24.4141   1
  -4   9  -1 248.576 24.9474   5
  -4   9  -1 298.878 25.2776   1
   5  -9   1 75.5135 8.35882   1
   5  -9   1 70.1703 8.28572   7
  -5  -9  -1 59.1908 6.35509   8
  -5   9  -1 63.6105 8.43534   5
  -5   9  -1 70.2233 8.67797   7
  -5   9  -1 89.7463 9.19299   1
   5   9   1 62.5571 7.44372   1
  -6  -9  -1 42.8506 4.32718   8
   6  -9   1 41.0241 6.10717   7
   6  -9   1 46.6760 6.59187   1
  -6   9  -1 34.5950 6.38202   5
   6   9   1 42.2841 5.41807   1
  -6   9  -1 35.9562 6.45733   1
  -6   9  -1 45.0556 6.80336   7
   7  -9   1 95.0336 10.3896   7
   7  -9   1 107.945 11.1149   1
  -7  -9  -1 96.9394 8.86878   8
  -7   9  -1 99.0597 11.1323   5
  -7   9  -1 88.5262 10.9852   7
   7   9   1 86.1200 9.52963   1
   8  -9   1 126.904 14.4231   1
   8  -9   1 118.099 13.7363   7
  -8  -9  -1 134.847 12.4148   8
  -8   9  -1 162.580 15.0608   5
  -8   9  -1 156.583 15.0035   7
  -9  -9  -1 56.8674 5.85093   8
   9  -9   1 52.5904 8.22786   1
  -9   9  -1 76.4365 8.75901   5
   8 -10  -1 213.436 24.3020   1
   8 -10  -1 250.954 24.2874   7
  -8 -10   1 271.767 22.7203   8
  -8  10   1 278.927 24.8682   5
   7 -10  -1 404.673 34.1344   1
   7 -10  -1 309.013 33.5488   7
  -7 -10   1 384.146 32.1353   8
  -7  10   1 357.969 34.0798   5
  -7  10   1 364.118 34.2868   7
   6 -10  -1 197.919 19.9703   7
   6 -10  -1 200.206 19.9765   1
  -6 -10   1 217.882 18.3883   8
   6  10  -1 215.783 19.2690   1
  -6  10   1 163.645 20.0829   1
  -6  10   1 223.374 20.5377   5
  -6  10   1 211.134 20.5856   7
  -5 -10   1 10.0467 1.53449   8
   5 -10  -1 9.20086 3.05064   1
   5 -10  -1 6.71597 2.72994   7
  -5  10   1 5.06420 3.06687   7
  -5  10   1 8.27351 3.41590   5
   5  10  -1 10.1719 2.78392   1
  -5  10   1 6.12347 3.19530   1
   4 -10  -1 361.418 33.8204   7
  -4 -10   1 385.197 32.6656   8
  -4  10   1 337.998 34.5640   7
  -4  10   1 375.026 34.4114   5
  -4  10   1 383.982 34.6864   1
   3 -10  -1 492.582 47.6203   7
  -3 -10   1 521.194 46.6090   8
  -3  10   1 569.011 48.8773   7
  -3  10   1 541.255 48.4587   1
  -3  10   1 538.055 48.2437   5
   2 -10  -1 234.575 21.3062   7
  -2  10   1 220.247 22.0345   5
  -2  10   1 234.499 22.4939   7
  -2  10   1 231.247 22.2468   1
   1 -10  -1 48.3805 5.13073   7
  -1 -10   1 44.9395 4.81463   7
  -1  10   1 33.1122 5.85705   1
  -1  10   1 31.0674 5.58915   5
   1  10  -1 59.0635 6.17223   1
   0 -10   1 319.270 32.6366   7
   0  10  -1 368.603 33.2685   1
   0  10   1 383.193 32.9516   5
   0  10  -1 408.472 32.4617   5
   0  10   1 334.049 33.3575   1
  -1  10  -1 550.648 50.7638   1
   1  10   1 570.271 49.9258   5
   1  10   1 509.874 50.7754   1
  -1  10  -1 621.447 50.3549   5
   2 -10   1 216.080 23.3412   7
  -2  10  -1 278.278 24.1440   1
  -2  10  -1 265.298 23.7310   5
   2  10   1 261.971 24.0202   1
  -2  10  -1 268.981 24.2415   7
   3 -10   1 71.7973 8.32640   7
   3  10   1 83.7769 9.06513   1
  -3  10  -1 79.9638 9.18436   7
  -3  10  -1 89.0306 9.07040   5
  -3  10  -1 84.0010 9.25374   1
   4 -10   1 202.789 22.2820   7
  -4  10  -1 265.048 22.9160   1
  -4  10  -1 279.255 22.7959   5
   4  10   1 218.730 22.1823   1
  -4  10  -1 231.445 22.8252   7
  -5 -10  -1 455.614 39.5819   8
   5 -10   1 408.193 41.1764   7
   5  10   1 429.060 40.5686   1
  -5  10  -1 477.501 41.1841   5
  -5  10  -1 483.198 41.4870   1
  -5  10  -1 446.257 41.5553   7
  -6 -10  -1 329.144 25.2075   8
   6 -10   1 262.078 26.6045   7
   6 -10   1 268.116 26.6914   1
   6  10   1 242.103 25.8393   1
  -6  10  -1 286.456 27.1224   1
  -6  10  -1 302.231 26.8748   5
  -6  10  -1 276.012 27.0394   7
  -7 -10  -1 64.8666 6.00474   8
   7 -10   1 53.1196 7.35206   7
   7 -10   1 63.3797 8.07635   1
  -7  10  -1 60.4422 8.13847   7
  -7  10  -1 64.6081 8.08663   5
   7  10   1 58.3554 6.84952   1
   8 -10   1 155.654 16.4764   1
  -8 -10  -1 156.623 14.5295   8
  -8  10  -1 177.448 16.4937   5
  -6 -11   1 42.4840 4.32972   8
   6  11  -1 43.8453 5.43886   1
  -6  11   1 41.8122 6.38639   5
   5 -11  -1 4.66578 2.21944   7
  -5 -11   1 7.00816 1.34448   8
   5  11  -1 6.33305 2.49340   1
  -5  11   1 2.85762 3.29044   1
  -5  11   1 5.46592 2.69057   5
  -5  11   1 5.22492 2.89665   7
   4 -11  -1 71.7304 7.95803   7
   4  11  -1 85.7507 8.48683   1
  -4  11   1 68.5005 8.54966   5
  -4  11   1 72.4356 8.88564   7
  -4  11   1 78.5124 9.36239   1
   3 -11  -1 -0.1136 1.21506   7
  -3  11   1 0.27489 2.55953   1
   3  11  -1 2.04073 2.21360   1
  -3  11   1 -0.4299 2.21397   7
  -3  11   1 1.22838 2.13812   5
   2 -11  -1 111.487 11.8254   7
  -2 -11   1 121.948 11.6670   7
   2  11  -1 154.043 12.6383   1
  -2  11   1 106.009 12.2957   5
  -2  11   1 138.638 13.1652   1
  -1 -11   1 17.0962 2.51643   7
   1 -11  -1 16.1202 2.61739   7
  -1  11   1 17.3198 3.26692   5
  -1  11   1 11.3964 3.45598   1
   0 -11   1 49.5840 5.30037   7
   0 -11  -1 47.3108 5.41367   7
   0  11   1 48.4457 5.49993   5
   0  11  -1 52.1986 6.10036   1
   0  11   1 49.2748 6.43165   1
   1 -11   1 20.7927 3.22182   7
  -1  11  -1 27.3489 3.58526   5
   1  11   1 29.5766 4.47001   1
  -1  11  -1 24.3803 3.98769   1
   2 -11   1 186.946 17.7475   7
  -2  11  -1 196.938 18.2730   1
  -2  11  -1 188.694 17.9042   5
   2  11   1 195.891 18.5033   1
   3 -11   1 17.8474 2.94386   7
  -3  11  -1 11.9582 3.31635   1
  -3  11  -1 17.9401 3.45262   5
   3  11   1 18.6976 3.75170   1
   4 -11   1 8.38947 2.32567   7
  -4  11  -1 9.47424 2.93443   5
   4  11   1 14.7327 3.30321   1
  -4  11  -1 4.18231 2.59928   1
  -4  11  -1 8.97706 2.92115   7
   5 -11   1 60.0287 7.47848   7
   5  11   1 67.3544 7.55132   1
  -5  11  -1 59.1912 7.67431   5
  -5  11  -1 63.7031 7.91406   7
  -5  11  -1 82.3124 8.28723   1
  -6  11  -1 185.158 19.3182   5
  -6  11  -1 237.832 19.9341   1
   6  11   1 191.455 18.9081   1
  -3  12   1 133.967 14.4834   5
   3  12  -1 168.969 14.7385   1
  -3  12   1 156.396 15.2146   1
  -2  12   1 290.943 25.2114   1
  -2  12   1 224.516 24.3519   5
   2  12  -1 297.962 24.7201   1
  -1 -12   1 1.78562 1.19887   7
   1 -12  -1 1.53072 1.36340   7
   1  12  -1 3.05151 2.05121   1
  -1  12   1 1.38987 2.24042   1
  -1  12   1 3.79540 1.76251   5
   0 -12  -1 207.491 17.8924   7
   0 -12   1 179.511 17.7023   7
   0  12   1 193.555 18.4861   1
   0  12  -1 194.082 18.1745   1
   1 -12   1 137.984 12.7002   7
  -1 -12  -1 128.645 12.7108   7
  -1  12  -1 128.031 13.1192   1
   1  12   1 148.411 13.6524   1
  -2  12  -1 261.770 23.9326   5
   2  12   1 289.688 24.8193   1
  -2  12  -1 245.394 24.3718   1
  -3  12  -1 3.69909 2.25244   1
  -3  12  -1 3.25978 1.89626   5
   3  12   1 3.42132 2.46412   1
 -13   0   2 0.95733 1.89511   8
  12   0  -2 62.3233 7.61496   6
 -12   0   2 70.5117 7.35778   8
 -11   0   2 2.20923 1.79913   8
  11   0  -2 4.21625 2.16175   6
  11   0  -2 2.58840 2.59948   1
  10   0  -2 2038.44 185.177   6
 -10   0   2 1911.09 178.797   8
  10   0  -2 2200.30 180.289   1
  -9   0   2 40.9812 4.62473   8
   9   0  -2 50.9183 5.90711   1
  -8   0   2 127.373 12.0339   8
   8   0  -2 140.406 13.0017   1
   7   0  -2 110.182 10.3569   1
  -7   0   2 104.432 9.37605   8
  -7   0   2 99.3594 10.1294   8
   7   0  -2 98.8560 9.83599   2
  -6   0   2 3707.80 339.255   7
   6   0  -2 4145.32 337.003   1
   6   0  -2 3667.44 346.587   6
  -6   0   2 3988.13 345.072   2
  -6   0   2 4015.45 335.133   8
   6   0  -2 3559.73 344.978   2
  -6   0   2 3853.02 335.195   8
  -5   0   2 106.579 9.94189   8
   5   0  -2 117.945 11.7209   6
  -5   0   2 127.038 11.1993   7
  -5   0   2 102.042 9.76899   8
   5   0  -2 115.181 10.3524   2
  -5   0   2 108.159 10.3188   2
  -4   0   2 166.202 14.2676   8
  -4   0   2 139.428 14.2229   8
   4   0  -2 153.423 14.8948   2
  -4   0   2 183.661 15.3090   7
  -4   0   2 177.178 14.8886   2
  -3   0   2 190.020 17.3408   2
   2   0  -2 5950.16 502.336   6
  -2   0   2 5224.94 500.458   2
   1   0  -2 31.9979 3.48331  10
  -1   0   2 25.0242 3.41569  10
   1   0  -2 35.7527 4.09410   6
   1   0  -2 26.0850 3.35815  10
   0   0   2 91.9690 8.86613  10
   0   0   2 84.1558 8.64344   9
   0   0  -2 92.4005 7.90837   6
   0   0  -2 86.7852 8.90086  10
   0   0   2 76.7895 7.62899   2
   0   0   2 78.6841 8.27497  10
   0   0  -2 80.1281 7.73790   9
  -1   0  -2 23.8559 3.78369  10
   1   0   2 13.0693 2.09794  10
  -1   0  -2 15.0624 1.97002   9
  -1   0  -2 25.1439 3.88326   9
  -1   0  -2 13.6082 2.01777   2
   1   0   2 20.3032 3.65906   9
  -1   0  -2 10.0251 2.12729  10
   1   0   2 8.99504 1.98506   2
   2   0   2 3996.62 357.570  10
  -2   0  -2 3962.06 324.223   7
  -2   0  -2 3451.84 356.869  10
   2   0   2 3502.29 330.142   2
  -2   0  -2 3291.69 335.295   9
   2   0   2 3266.38 335.104   9
   2   0   2 3777.13 324.081   7
   2   0   2 3542.76 335.585   9
  -2   0  -2 3655.24 335.804   9
  -2   0  -2 3976.73 330.762   2
   2   0   2 4049.82 357.311  10
   3   0   2 608.900 53.1407   7
   3   0   2 567.959 54.8549   9
  -3   0  -2 625.358 54.2509   2
   3   0   2 693.365 60.2004  10
   3   0   2 576.254 58.4466  10
   3   0   2 594.026 55.2039   9
  -3   0  -2 526.257 52.4811   8
  -3   0  -2 618.983 54.9667   9
  -3   0  -2 559.782 58.5259  10
   3   0   2 636.336 54.2551   2
   4   0   2 29.7892 4.42782  10
   4   0   2 24.4792 2.46229   7
   4   0   2 24.9032 2.53948  10
  -4   0  -2 22.4632 2.48692   9
  -4   0  -2 16.7461 2.27061   8
   4   0   2 22.9804 2.67678   2
   5   0   2 202.636 18.8875   1
  -5   0  -2 202.183 19.4990   9
   5   0   2 226.399 18.5805   5
  -5   0  -2 189.664 18.6032   8
   5   0   2 198.418 19.3720   2
   5   0   2 240.094 21.0405  10
   5   0   2 205.138 20.5516  10
  -5   0  -2 218.348 19.4765   2
   5   0   2 201.453 18.7869   7
   6   0   2 1863.76 178.600   1
   6   0   2 2177.19 179.483   7
  -6   0  -2 2064.52 177.733   8
   6   0   2 2115.93 183.183   2
   6   0   2 1973.15 177.751   5
   7   0   2 636.242 59.5306   1
  -7   0  -2 679.142 59.1370   8
  -7   0  -2 716.429 61.2247   7
  -8   0  -2 6.29850 1.46552   8
  -8   0  -2 4.15115 2.64107   7
   8   0   2 1.56069 1.51983   1
   9   0   2 171.685 16.3056   1
  -9   0  -2 178.207 16.0773   8
  10   0   2 816.078 75.0040   1
 -10   0  -2 878.191 74.5749   8
  11   0   2 288.384 26.0630   1
 -11   0  -2 278.970 25.7457   8
  12   0   2 29.7200 4.38645   1
 -12   0  -2 26.0500 4.05037   8
  13   0   2 74.4361 8.06061   1
 -13   0  -2 70.4547 8.06558   8
 -13  -1   2 15.6861 2.93514   8
 -13   1   2 8.40397 2.88398   8
 -12  -1   2 24.0688 3.54534   8
  12  -1  -2 22.4197 4.32596   6
  12  -1  -2 25.5039 4.58632   1
 -12   1   2 21.7721 3.93496   8
  12   1  -2 28.4673 3.98178   6
  11  -1  -2 37.7530 5.74880   6
 -11  -1   2 40.0587 4.60821   8
  11  -1  -2 40.5882 6.12834   1
  11   1  -2 48.6552 5.43570   6
 -11   1   2 38.5692 5.11577   8
  10  -1  -2 22.3889 4.55864   6
  10  -1  -2 26.0388 4.87529   1
 -10  -1   2 28.5372 3.33684   8
 -10   1   2 30.9444 3.99910   8
   9  -1  -2 10.0970 3.49304   1
   9  -1  -2 8.11422 3.15800   6
  -9  -1   2 12.4672 1.76511   8
  -9   1   2 9.16096 2.12641   8
   8  -1  -2 52.8779 7.57901   6
  -8  -1   2 62.3713 5.71293   8
  -8  -1   2 60.8323 6.02283   8
   8  -1  -2 52.4431 7.30425   1
  -8   1   2 60.1333 6.21961   8
   8   1  -2 69.8329 6.51700   1
  -7  -1   2 131.001 14.2464   8
   7  -1  -2 134.561 15.9556   6
   7  -1  -2 173.065 15.9619   1
  -7  -1   2 155.089 13.8911   8
   7  -1  -2 174.159 14.6528   2
   7   1  -2 172.762 14.9725   2
   7   1  -2 168.083 14.4395   1
  -7   1   2 133.777 15.4598   7
  -7   1   2 165.667 14.3841   8
   6  -1  -2 -0.0434 2.29584   6
   6  -1  -2 3.96126 2.94391   1
   6  -1  -2 1.40570 0.92318   2
  -6  -1   2 1.94416 1.17245   2
  -6   1   2 3.02021 2.67071   7
   6   1  -2 1.58980 1.51631   6
  -6   1   2 3.77066 1.20804   2
   6   1  -2 0.50007 1.14840   2
  -6   1   2 4.81811 1.19671   8
  -6   1   2 1.96432 1.81767   8
   5  -1  -2 49.1954 6.49148   6
   5  -1  -2 45.8248 5.47877   1
   5  -1  -2 35.4632 5.22555   6
   5  -1  -2 30.6713 3.20878   2
   5  -1  -2 30.4154 2.95878   7
  -5  -1   2 32.0448 3.42221   2
  -5   1   2 31.4115 3.36176   2
  -5   1   2 24.2994 3.14278   8
   5   1  -2 24.0513 3.77331   6
  -5   1   2 32.9478 5.67838   7
  -5   1   2 23.7393 3.39844   8
  -5   1   2 34.2446 3.22865   9
   5   1  -2 29.8403 3.55320   2
   4  -1  -2 43.0407 4.03681   7
   4  -1  -2 56.0717 7.22872   6
   4  -1  -2 55.0385 6.26441   6
   4  -1  -2 37.2153 4.08842   2
  -4  -1   2 44.5063 4.29344   2
  -4   1   2 40.8350 4.09732   8
   4   1  -2 43.3694 4.53712   6
  -4   1   2 39.6697 4.15681   9
   4   1  -2 40.7230 4.43763   2
  -4   1   2 40.0352 4.24474   2
  -4   1   2 48.5229 6.09573   3
  -4   1   2 44.8645 6.08579   7
   3  -1  -2 369.741 38.4400  10
   3  -1  -2 416.248 35.6139   2
  -3  -1   2 366.969 35.7144   2
   3  -1  -2 365.677 36.5828   6
   3  -1  -2 399.190 38.4552  10
  -3   1   2 464.104 35.8012   2
  -3   1   2 402.198 36.2301   9
  -3   1   2 419.327 35.6312   7
   3   1  -2 350.098 35.8684   2
   2  -1  -2 121.331 11.0570   6
   2  -1  -2 105.935 10.6527  10
   2  -1  -2 97.6517 9.86337   9
   2  -1  -2 114.124 9.90378   9
   2  -1  -2 108.299 9.84621   2
  -2  -1   2 100.761 10.0523   2
   2  -1  -2 106.711 10.7747  10
  -2   1   2 95.9806 10.0187   7
  -2   1   2 104.008 10.8701  10
  -2   1   2 133.339 11.5619  10
  -2   1   2 107.484 10.1492   9
   1  -1  -2 315.314 26.6261  10
   1  -1  -2 237.468 24.1935   9
   1  -1  -2 272.601 25.8503  10
   1  -1  -2 230.444 24.4054   9
   1  -1  -2 317.160 25.4723   6
   1   1  -2 255.906 23.8920   6
  -1   1   2 284.171 23.6274   7
  -1   1   2 234.210 26.4851  10
  -1   1   2 248.506 25.9192  10
   0  -1  -2 2.24408 1.58898  10
   0  -1   2 3.00584 0.88384   2
   0  -1   2 3.65703 1.53194  10
   0  -1  -2 9.59415 2.36752   9
   0  -1   2 2.99563 0.73998   9
   0  -1  -2 0.83283 0.79926   2
   0  -1   2 1.97734 1.46003   9
   0  -1  -2 2.32161 0.65454   9
   0  -1  -2 1.87832 1.59674   6
   0  -1   2 3.02871 0.91067  10
   0   1   2 1.16596 0.67436  10
   0   1   2 4.56650 1.87395   9
   0   1  -2 1.94329 1.17634   6
   0   1   2 0.81814 1.91128  10
   0   1   2 3.70778 0.79847   7
   0   1   2 4.70161 0.84189   9
   0   1  -2 1.89636 0.74814  10
   0   1  -2 3.31877 1.81259   9
   0   1  -2 6.51343 1.70924  10
   0   1  -2 3.71312 0.67672   9
  -1  -1  -2 538.817 46.6171  10
   1  -1   2 454.211 47.1407  10
  -1  -1  -2 550.870 44.1155   9
  -1  -1  -2 397.083 42.0079   7
  -1  -1  -2 441.303 42.6626   2
   1  -1   2 393.148 44.1949   9
   1  -1   2 542.478 41.9112   7
   1  -1   2 509.792 43.2879   9
   1  -1   2 426.431 42.6179   2
  -1  -1  -2 445.724 43.2712   9
   1   1   2 403.631 41.7892   7
  -1   1  -2 537.979 43.2723   9
  -1   1  -2 395.411 46.6942  10
  -1   1  -2 472.202 46.0677  10
  -1   1  -2 456.576 42.6350   2
   1   1   2 494.636 46.6434  10
  -1   1  -2 431.077 44.3172   9
   1   1   2 514.232 44.1626   9
  -1   1  -2 504.725 43.6413   6
   1   1   2 478.151 46.0753  10
   1   1   2 497.879 42.6871   2
  -2  -1  -2 49.6291 4.74751   2
  -2  -1  -2 43.3483 4.89794  10
  -2  -1  -2 38.4000 5.77434  10
   2  -1   2 53.4314 4.63050   9
  -2  -1  -2 49.5321 5.00417   7
   2  -1   2 41.7245 4.93347  10
   2  -1   2 52.6502 4.69023   7
   2  -1   2 42.7357 7.10217  10
   2  -1   2 58.8466 6.88662   9
  -2  -1  -2 46.0953 4.62996   9
   2  -1   2 44.0458 4.60648   2
  -2   1  -2 43.8936 6.72064   9
  -2   1  -2 44.6527 4.65264   2
   2   1   2 47.8903 6.45606  10
  -2   1  -2 43.8126 4.97257  10
  -2   1  -2 60.8110 8.42270  10
   2   1   2 49.2922 4.91911  10
  -2   1  -2 45.0219 4.62118   9
   2   1   2 57.4215 4.63458   9
   2   1   2 48.4198 5.69121   9
   2   1   2 48.9693 4.75114   2
  -2   1  -2 52.6651 6.88372   6
   2   1   2 43.9567 4.47051   7
  -2   1  -2 38.8975 6.07159   7
  -3  -1  -2 335.511 39.5584  10
   3  -1   2 354.033 35.0051   5
  -3  -1  -2 457.239 36.5333   9
   3  -1   2 380.450 36.4510   9
  -3  -1  -2 426.273 35.9167   7
   3  -1   2 436.471 35.4452   7
  -3  -1  -2 379.515 36.1382   2
   3  -1   2 376.465 37.1720   9
  -3  -1  -2 406.582 34.8762   8
   3  -1   2 420.641 41.0280  10
   3  -1   2 414.430 38.8839  10
   3  -1   2 332.567 35.9839   2
  -3   1  -2 445.870 41.5768  10
  -3   1  -2 383.936 36.0856   2
   3   1   2 379.637 38.8086  10
  -3   1  -2 422.354 38.9736  10
   3   1   2 454.499 39.9974  10
   3   1   2 392.744 35.2645   7
   3   1   2 389.226 36.1463   2
  -3   1  -2 378.342 36.5199   9
   4  -1   2 13.0419 3.99165  10
  -4  -1  -2 5.71339 0.97706   8
  -4  -1  -2 5.74150 1.08859   9
   4  -1   2 5.16348 1.24526   2
   4  -1   2 6.76581 0.98472   9
  -4  -1  -2 7.83256 1.55210   2
   4  -1   2 6.68602 1.53060   9
   4  -1   2 7.20014 1.32119   7
   4  -1   2 5.32471 1.09710  10
   4  -1   2 7.65102 1.47317   1
  -4  -1  -2 10.6436 2.29333   7
   4  -1   2 8.41100 1.29930   5
  -4   1  -2 10.6089 3.86349   7
   4   1   2 6.48607 0.99257   5
   4   1   2 7.77608 1.12814   7
   4   1   2 7.96176 1.14541  10
   4   1   2 8.53642 1.75193  10
  -4   1  -2 5.66670 1.13060   9
   4   1   2 6.86280 1.67671   6
  -4   1  -2 4.04480 3.57697   6
  -4   1  -2 5.76660 1.09215   8
  -4   1  -2 4.69741 1.29814   2
   4   1   2 4.52484 1.34198   2
  -4   1  -2 6.86059 4.22319  10
   5  -1   2 267.676 24.5078   9
   5  -1   2 245.707 24.0207   1
   5  -1   2 261.066 24.5376   2
  -5  -1  -2 250.561 23.5462   8
   5  -1   2 259.862 24.4420   9
   5  -1   2 283.230 23.6858   5
   5  -1   2 305.364 26.2559  10
  -5  -1  -2 312.800 24.7946   2
  -5  -1  -2 293.304 24.9178   7
   5  -1   2 247.256 23.9652   7
   5   1   2 313.247 25.0248   6
   5   1   2 239.486 23.4525   5
   5   1   2 273.962 23.8671   1
  -5   1  -2 260.914 23.6958   8
   5   1   2 253.974 24.5908   2
  -5   1  -2 235.745 24.7588   9
  -5   1  -2 293.454 26.0285   7
  -5   1  -2 250.712 24.6006   2
   5   1   2 253.847 23.7371   7
   6  -1   2 45.0488 4.65019   2
   6  -1   2 39.9042 4.69638   1
  -6  -1  -2 40.2901 4.14223   8
   6  -1   2 39.2078 4.88458  10
  -6  -1  -2 44.7301 5.59182   7
   6  -1   2 53.5305 4.43757   7
   6  -1   2 49.4082 4.16607   5
   6  -1   2 39.8431 4.43389  10
  -6   1  -2 34.9602 4.24747   8
   6   1   2 40.0209 4.67117   2
   6   1   2 39.7724 4.40959   1
  -6   1  -2 34.4111 5.82576   7
  -7  -1  -2 174.806 16.0668   8
   7  -1   2 161.676 17.5282  10
   7  -1   2 200.218 16.3305   7
   7  -1   2 176.759 16.8372   2
   7  -1   2 183.251 15.9630   5
   7  -1   2 184.170 16.6417   1
  -7  -1  -2 201.102 17.4677   7
   7  -1   2 184.208 17.6687  10
   7   1   2 151.904 16.2614   1
   7   1   2 154.341 16.3009   1
  -7   1  -2 200.571 16.3131   8
   7   1   2 196.238 16.9858   2
  -8  -1  -2 23.4675 2.91405   8
   8  -1   2 24.1507 3.57526   1
  -8  -1  -2 29.4442 4.47398   7
   8  -1   2 24.3328 2.48169   5
   8   1   2 23.6034 3.34104   1
  -8   1  -2 20.8546 4.17372   7
  -8   1  -2 26.6512 3.27087   8
   9  -1   2 122.847 12.6463   1
  -9  -1  -2 131.153 12.0624   8
   9   1   2 149.555 12.4614   1
  -9   1  -2 106.309 13.2684   7
  -9   1  -2 133.658 12.3210   8
 -10  -1  -2 90.9918 8.89208   8
  10  -1   2 78.1283 9.47053   1
 -10   1  -2 97.9412 9.28461   8
  10   1   2 99.4694 9.29372   1
 -11  -1  -2 49.5388 5.71082   8
  11  -1   2 52.6368 6.45598   1
  11   1   2 48.9549 5.86788   1
 -11   1  -2 57.4192 6.15947   8
 -12  -1  -2 13.3406 2.70876   8
  12  -1   2 12.9460 3.19879   1
 -12   1  -2 14.3032 3.15824   8
  12   1   2 12.6104 2.85575   1
 -13  -1  -2 59.8643 6.65439   8
  13  -1   2 51.6069 6.84616   1
  13   1   2 60.2451 6.80785   1
 -13  -2   2 13.2241 2.66704   8
  13  -2  -2 15.9874 3.94887   1
 -13   2   2 17.5999 3.46437   8
 -12  -2   2 117.187 10.9579   8
  12  -2  -2 103.128 12.0950   1
 -12   2   2 103.861 11.4922   8
  12   2  -2 128.678 11.5052   6
  11  -2  -2 12.6331 3.49952   1
 -11  -2   2 11.9731 2.06526   8
  11  -2  -2 9.39526 3.32013   6
 -11   2   2 12.2168 2.84941   8
 -10  -2   2 1017.46 84.5981   8
  10  -2  -2 852.154 88.5325   6
  10  -2  -2 1027.51 86.7047   1
  -9  -2   2 50.4779 4.47585   8
   9  -2  -2 37.3969 6.56732   1
  -9  -2   2 42.5927 4.85566   8
   9  -2  -2 39.7966 6.60648   6
  -9   2   2 47.5517 5.38655   8
   8  -2  -2 229.772 21.2901   1
  -8  -2   2 217.950 18.9441   8
   8  -2  -2 165.972 21.0341   6
  -8  -2   2 227.842 18.8524   8
  -8   2   2 189.275 20.9369   7
  -8   2   2 231.870 19.6169   8
   7  -2  -2 36.6728 4.12714   2
   7  -2  -2 35.9178 6.32480   6
   7  -2  -2 47.9942 7.16243   1
  -7   2   2 36.3859 4.28545   8
  -7   2   2 40.0574 6.87411   3
  -7   2   2 34.5699 6.34694   7
   7   2  -2 38.9578 4.83366   2
  -6  -2   2 3357.54 280.492   2
   6  -2  -2 2767.93 280.170   2
   6  -2  -2 3208.31 272.336   5
   6  -2  -2 3584.82 275.052   7
  -6   2   2 2963.97 276.781   7
  -6   2   2 2634.49 272.275   8
  -6   2   2 3201.49 321.189   3
   6   2  -2 3377.41 280.787   6
  -6   2   2 3185.47 280.535   2
   6   2  -2 2954.82 280.596   2
   5  -2  -2 58.2814 5.05485   7
   5  -2  -2 44.6055 7.09377   1
   5  -2  -2 53.3574 4.98296   2
  -5  -2   2 51.5955 5.23472   2
   5  -2  -2 57.4264 7.26505   6
   5  -2  -2 49.5035 5.12617  10
   5  -2  -2 44.6105 5.16696  10
   5   2  -2 46.9844 5.56634   2
  -5   2   2 46.1138 5.21250   9
  -5   2   2 50.6094 7.37476   3
  -5   2   2 46.3655 5.32729   2
   5   2  -2 50.6992 4.82900   6
  -5   2   2 48.0313 7.95064   7
   4  -2  -2 438.418 37.7931   1
   4  -2  -2 381.577 40.0516  10
   4  -2  -2 358.744 40.1122  10
  -4  -2   2 396.120 37.2945   2
   4  -2  -2 411.120 37.0955   2
   4  -2  -2 415.176 36.6838   7
   4  -2  -2 465.319 38.8340   6
  -4   2   2 457.389 38.4209   7
  -4   2   2 492.869 44.4309   3
  -4   2   2 400.198 36.2374   8
   4   2  -2 407.363 37.6363   2
  -4   2   2 369.983 37.8189   9
   3  -2  -2 20.8516 2.42139   9
   3  -2  -2 22.8774 4.12730   6
   3  -2  -2 18.5590 3.03445  10
   3  -2  -2 17.8454 2.83060  10
   3  -2  -2 30.3594 3.55436   7
   3  -2  -2 25.3280 2.43665   9
   3  -2  -2 31.6044 5.04747   4
   3  -2  -2 21.1316 2.58334   2
  -3  -2   2 18.2535 2.92654   2
  -3   2   2 23.3742 2.85731   9
  -3   2   2 32.2764 5.67950   3
  -3   2   2 28.2461 3.17887   8
  -3   2   2 17.3544 3.25262  10
   3   2  -2 22.1835 3.59645   2
  -3   2   2 25.2815 4.39187   7
   2  -2  -2 5278.28 548.391  10
   2  -2  -2 5850.47 515.305   9
   2  -2  -2 5265.63 547.785  10
   2  -2  -2 5677.71 548.090  10
  -2  -2   2 6269.55 506.419   2
   2   2  -2 5356.83 507.009   6
  -2   2   2 5701.97 497.119   7
   2   2  -2 6039.59 507.203   6
  -2   2   2 5681.42 514.406   9
  -2   2   2 5336.16 578.673   3
   1  -2  -2 3.60940 1.08692   9
  -1  -2   2 2.38996 0.87462   8
   1  -2  -2 0.23456 2.33263  10
   1  -2  -2 2.53217 1.12517  10
   1  -2  -2 5.21561 2.63029   6
   1  -2  -2 3.23520 1.48534   9
   1  -2  -2 1.71792 1.55472  10
   1   2  -2 2.34389 1.60071   6
  -1   2   2 1.04346 1.62149   9
   1   2  -2 0.39130 1.34109   6
  -1   2   2 7.60111 1.29978   9
  -1   2   2 1.17463 1.23071   7
  -1   2   2 1.51946 1.82826  10
  -1   2   2 0.87324 1.67951   9
  -1   2   2 2.48276 1.32482  10
   0  -2  -2 259.347 22.3560   9
   0  -2  -2 258.254 21.5742   2
   0  -2   2 255.294 22.9737  10
   0  -2   2 269.430 21.0722   7
   0  -2   2 208.676 21.7145   9
   0  -2  -2 242.082 21.3459   9
   0  -2  -2 213.133 23.2778  10
   0  -2  -2 239.944 21.6124   6
   0  -2  -2 266.825 23.0749  10
   0   2   2 219.876 21.8900   9
   0   2   2 242.778 20.7473   7
   0   2   2 201.717 22.7052  10
   0   2  -2 228.385 21.1024   9
   0   2  -2 185.141 20.6424   7
   0   2  -2 249.890 24.1007   3
   0   2  -2 222.095 21.5060   6
   0   2   2 191.730 23.2682  10
   0   2  -2 200.333 21.2294   9
   0   2  -2 204.354 22.5443  10
  -1  -2  -2 12.7520 1.83885   9
  -1  -2  -2 14.4027 2.27694  10
   1  -2   2 11.5501 3.90435  10
   1  -2   2 9.36985 3.11453   9
   1  -2   2 10.4253 1.88897   2
   1  -2   2 11.4082 2.00109  10
  -1  -2  -2 12.4381 2.22193   2
  -1  -2  -2 10.1131 2.30774  10
  -1  -2  -2 10.2495 2.26397   6
   1  -2   2 7.65002 1.55324   9
   1  -2   2 13.8694 2.17532   7
  -1  -2  -2 10.5774 2.83048   9
   1   2   2 12.7718 3.08303   9
   1   2   2 9.74035 1.64945   9
   1   2   2 9.42012 2.01556   2
   1   2   2 14.4366 1.92700   7
   1   2   2 9.20941 1.87366  10
  -1   2  -2 9.08006 2.86547   9
  -1   2  -2 16.1469 3.24304   6
  -1   2  -2 9.61555 1.52512   9
  -1   2  -2 16.6053 3.69309   7
  -1   2  -2 11.7651 1.95629  10
   1   2   2 8.16498 2.57917  10
  -1   2  -2 9.67428 3.47956  10
  -2  -2  -2 5277.94 389.664   8
  -2  -2  -2 5101.24 401.679   2
   2  -2   2 4758.26 402.191   2
  -2  -2  -2 4469.50 407.467   9
  -2  -2  -2 4390.29 393.485   7
  -2  -2  -2 4502.37 433.126  10
   2  -2   2 4718.02 393.939   7
  -2   2  -2 4486.35 400.361   2
   2   2   2 3870.99 432.804  10
  -2   2  -2 4374.29 407.931   9
   2   2   2 4309.06 406.789   9
   2   2   2 4424.13 393.021   7
   2   2   2 4639.83 433.421  10
   2   2   2 4288.54 400.773   2
   2   2   2 4221.50 406.558   9
  -2   2  -2 4043.70 434.484  10
  -2   2  -2 4077.58 407.257   9
  -3  -2  -2 147.777 14.0424   2
  -3  -2  -2 146.511 13.2813   8
   3  -2   2 163.274 13.7356   7
  -3  -2  -2 162.185 13.7431   7
   3  -2   2 165.348 13.9288   2
   3  -2   2 145.711 13.9164   9
   3  -2   2 198.571 18.3399  10
   3  -2   2 139.340 14.9511   9
  -3  -2  -2 148.822 13.9943   9
   3  -2   2 146.584 14.8890  10
   3   2   2 147.458 13.4911   7
   3   2   2 119.000 15.2152  10
  -3   2  -2 162.615 13.9830   9
   3   2   2 152.282 14.0541   2
  -3   2  -2 115.875 17.0498  10
  -3   2  -2 135.741 14.9529  10
  -3   2  -2 131.042 13.8264   2
   3   2   2 152.839 14.7640  10
   4  -2   2 41.0874 4.63726  10
   4  -2   2 37.6833 4.17357   9
   4  -2   2 38.0921 4.74956   1
   4  -2   2 46.8659 7.47670  10
   4  -2   2 47.2225 4.54822   7
  -4  -2  -2 40.4157 4.63252   7
   4  -2   2 44.9211 4.42342   2
   4  -2   2 31.9314 4.97504   9
  -4  -2  -2 37.8379 4.55777   2
  -4   2  -2 32.7625 6.32152   6
  -4   2  -2 41.4837 4.88978  10
  -4   2  -2 62.7171 8.35268   7
  -4   2  -2 57.1158 7.88234   5
  -4   2  -2 34.1487 4.15304   8
   4   2   2 46.8749 4.59143   6
   4   2   2 40.3448 4.09634   5
  -4   2  -2 36.6518 4.40233   2
   4   2   2 42.1476 4.65332   2
  -4   2  -2 40.8813 4.34430   9
  -4   2  -2 41.4727 7.44262  10
   4   2   2 39.2362 4.05897   7
   5  -2   2 16.9663 1.95374   9
   5  -2   2 15.1352 2.35658   9
   5  -2   2 17.4078 2.40861   7
  -5  -2  -2 20.6635 2.91627   7
   5  -2   2 12.0361 2.64379   1
   5  -2   2 15.0850 2.32805  10
  -5  -2  -2 17.7849 2.00271   8
   5  -2   2 12.6466 2.15850   5
  -5  -2  -2 20.4156 2.82450   2
   5  -2   2 12.7052 2.24613   2
   5  -2   2 20.3439 4.16286  10
   5   2   2 18.6675 2.63317   6
   5   2   2 18.4303 2.33432   1
  -5   2  -2 12.2930 2.32706   2
   5   2   2 13.3356 2.47071   2
  -5   2  -2 17.0106 4.66820   7
  -5   2  -2 17.8839 2.32498   8
  -5   2  -2 16.3453 2.30803   9
  -5   2  -2 15.9035 5.93301  10
  -5   2  -2 25.5010 5.54916   5
   6  -2   2 1831.00 154.832   1
   6  -2   2 1665.69 155.287   7
   6  -2   2 2036.12 171.674  10
   6  -2   2 1674.04 160.321   9
   6  -2   2 1762.78 170.881  10
  -6  -2  -2 1523.32 153.403   8
   6  -2   2 1530.92 160.346   9
   6  -2   2 1989.32 153.847   5
  -6  -2  -2 1927.75 155.741   7
   6  -2   2 1559.55 158.244   2
  -6   2  -2 1795.83 153.741   8
  -6   2  -2 1700.50 157.427   7
  -6   2  -2 2034.82 156.450   5
   6   2   2 1822.13 158.516   2
   6   2   2 1618.47 154.188   1
   7  -2   2 380.221 30.1332   5
  -7  -2  -2 316.803 29.9770   8
   7  -2   2 338.611 30.9476   1
   7  -2   2 305.915 31.1874   2
   7  -2   2 336.284 33.2881  10
   7  -2   2 323.421 30.5101   7
   7  -2   2 345.078 33.6669  10
  -7   2  -2 389.865 32.6102   7
  -7   2  -2 342.363 30.3719   8
   7   2   2 339.242 30.3885   1
   8  -2   2 8.49461 2.54518   1
  -8  -2  -2 7.16552 1.39536   8
   8  -2   2 4.76102 0.95680  10
   8  -2   2 3.46124 1.13971   5
   8  -2   2 7.10071 1.22342  10
  -8   2  -2 3.49749 1.60213   8
  -8   2  -2 4.50589 2.74492   7
   8   2   2 2.81538 1.58048   1
   8   2   2 2.77579 1.43170   1
   9  -2   2 3.68166 2.17508   1
  -9  -2  -2 6.38622 1.45601   8
   9   2   2 7.00017 1.87122   1
  -9   2  -2 3.44096 2.54340   7
  -9   2  -2 8.37807 2.11667   8
 -10  -2  -2 430.317 37.3563   8
  10  -2   2 374.395 38.1696   1
 -10   2  -2 441.038 37.8827   8
  10   2   2 433.029 37.6295   1
  11  -2   2 367.404 33.2917   1
 -11  -2  -2 355.743 32.3834   8
  11   2   2 387.008 32.7439   1
 -11   2  -2 338.619 33.1003   8
  12  -2   2 2.48063 2.44720   1
 -12  -2  -2 2.25139 1.76583   8
 -13  -2  -2 37.7346 5.22754   8
  13  -2   2 49.5052 6.25730   1
 -13  -3   2 75.3059 7.47557   8
  13  -3  -2 73.3378 8.89026   1
  12  -3  -2 82.4446 10.1048   1
 -12  -3   2 90.4098 8.52403   8
  11  -3  -2 293.547 30.5383   1
 -11  -3   2 328.070 28.8603   8
  11  -3  -2 308.127 31.3172   6
 -11   3   2 365.300 29.9834   8
  10  -3  -2 8.86599 3.80201   1
  10  -3  -2 10.8640 3.80270   6
 -10  -3   2 13.0570 1.79448   8
 -10   3   2 11.7571 2.91498   8
   9  -3  -2 223.045 21.7905   1
  -9  -3   2 243.944 19.3096   8
   9  -3  -2 176.133 21.7008   6
  -9   3   2 232.858 20.3241   8
  -9   3   2 183.643 21.6976   7
   8  -3  -2 167.466 18.0978   6
  -8  -3   2 169.383 15.1372   8
   8  -3  -2 180.266 18.0825   1
  -8   3   2 169.297 16.0405   8
  -8   3   2 177.892 18.4036   7
   7  -3  -2 877.690 93.3203  10
   7  -3  -2 1061.92 89.1790   6
   7  -3  -2 1107.57 84.2474   5
   7  -3  -2 899.474 93.3315  10
   7  -3  -2 907.799 86.5696   1
   7  -3  -2 1000.29 86.8358   2
  -7   3   2 899.739 84.5110   8
  -7   3   2 933.606 87.1603   7
  -7   3   2 1103.61 100.906   3
   7   3  -2 854.370 87.2515   2
  -6  -3   2 66.9963 7.02447   2
   6  -3  -2 61.5925 6.95362  10
   6  -3  -2 65.9199 6.93080  10
   6  -3  -2 71.8869 9.08949   6
   6  -3  -2 78.4956 6.75201   2
   6  -3  -2 80.2001 6.81096   7
   6  -3  -2 84.1722 9.36314   1
  -6   3   2 62.3028 9.66765   7
  -6   3   2 55.5148 9.16066   3
   6   3  -2 64.2648 6.29542   6
  -6   3   2 56.0002 6.69627   8
   6   3  -2 60.0133 7.33654   2
   5  -3  -2 758.724 69.3052   6
   5  -3  -2 711.008 67.2873   2
   5  -3  -2 637.912 72.6413  10
   5  -3  -2 872.382 67.8515   1
   5  -3  -2 798.581 66.3422   7
  -5  -3   2 672.373 67.5513   2
   5  -3  -2 814.587 68.0510   9
   5  -3  -2 754.092 72.8092  10
  -5   3   2 727.379 65.7217   8
  -5   3   2 705.893 67.4945   5
  -5   3   2 829.356 78.6012   3
   5   3  -2 675.917 67.1068   6
   5   3  -2 778.966 68.1024   2
   4  -3  -2 295.733 27.6412   4
   4  -3  -2 224.188 26.8655  10
   4  -3  -2 311.363 25.9992   1
  -4  -3   2 225.981 24.9896   2
   4  -3  -2 248.921 24.7433   7
   4  -3  -2 275.503 24.9981   9
   4  -3  -2 301.740 24.8905   2
   4  -3  -2 317.167 26.8098   6
   4  -3  -2 247.025 26.7710  10
   4  -3  -2 238.784 26.9301  10
  -4   3   2 258.614 27.9586  10
  -4   3   2 290.585 24.5666   8
  -4   3   2 296.490 26.8735   7
  -4   3   2 258.443 25.2779   9
   4   3  -2 308.550 24.6271   6
   3  -3  -2 1837.16 163.162   1
   3  -3  -2 1998.08 175.556   4
   3  -3  -2 1736.62 179.929  10
   3  -3  -2 1592.78 167.580   6
   3  -3  -2 1989.49 168.893   9
   3  -3  -2 1833.32 163.973   7
   3  -3  -2 1654.45 166.182   2
   3  -3  -2 2036.19 180.153  10
   3  -3  -2 1997.94 168.819   9
  -3  -3   2 1957.62 166.748   2
  -3   3   2 1702.66 180.457  10
   3   3  -2 1890.41 166.552   6
  -3   3   2 1955.49 164.771   7
  -3   3   2 1913.63 169.174   9
  -3   3   2 1645.96 161.545   8
   2  -3  -2 309.220 27.7211   9
  -2  -3   2 242.725 25.9009   8
   2  -3  -2 274.406 29.7986  10
   2  -3  -2 297.815 29.6028   4
   2  -3  -2 300.274 27.5742   9
   2  -3  -2 236.558 29.5434  10
   2   3  -2 316.434 27.5164   6
  -2   3   2 338.468 28.1018   7
   2   3  -2 306.919 27.4996   6
  -2   3   2 320.040 27.4894   5
  -2   3   2 326.983 27.8372   9
  -2   3   2 301.517 29.9661  10
   1  -3  -2 1467.60 127.359   9
   1  -3  -2 1383.16 135.943  10
  -1  -3   2 1163.53 126.896   9
   1  -3  -2 1303.72 126.103   6
   1  -3  -2 1298.13 127.026   9
  -1   3   2 1248.63 127.058   9
  -1   3   2 1605.26 127.509   9
  -1   3   2 1359.48 135.633  10
  -1   3   2 1608.51 123.536   7
  -1   3   2 1473.00 122.173   5
   0  -3  -2 162.853 16.5961  10
   0  -3  -2 129.473 15.2457   9
   0  -3  -2 149.571 16.7509  10
   0  -3   2 157.020 15.9254   9
   0  -3  -2 145.114 15.1522   6
   0  -3   2 173.424 16.7048  10
   0  -3  -2 149.949 15.3522   2
   0   3  -2 165.346 16.0729  10
   0   3  -2 144.125 16.5932  10
   0   3   2 178.710 15.8445   9
   0   3   2 140.113 16.7429  10
   0   3  -2 161.530 15.1379   5
   0   3  -2 160.757 17.2075   3
   0   3   2 170.373 16.6661  10
   0   3  -2 148.383 14.8327   9
   0   3   2 142.173 15.2059   9
   0   3   2 159.192 15.1541   7
   0   3  -2 159.043 15.0944   9
   0   3   2 182.026 15.1659   5
   0   3  -2 186.176 15.6792   7
  -1  -3  -2 2092.43 221.023  10
  -1  -3  -2 2432.02 207.764   9
  -1  -3  -2 2030.96 221.039  10
   1  -3   2 2664.70 201.264   7
  -1  -3  -2 2301.85 204.791   2
  -1  -3  -2 2282.79 205.079   6
  -1  -3  -2 2582.68 198.588   8
   1  -3   2 2347.33 222.588  10
   1  -3   2 2174.82 204.656   2
  -1   3  -2 2165.27 207.427   9
  -1   3  -2 2167.39 199.684   5
  -1   3  -2 1983.43 221.807  10
  -1   3  -2 2627.83 201.927   7
   1   3   2 2083.05 221.017  10
   1   3   2 2616.45 200.847   7
  -1   3  -2 2084.70 220.809  10
  -1   3  -2 2229.20 233.330   3
   1   3   2 2107.20 221.454  10
   2  -3   2 536.661 51.5489   7
  -2  -3  -2 523.450 56.5630  10
   2  -3   2 634.271 52.9781   9
   2  -3   2 665.249 53.0423   6
  -2  -3  -2 540.845 53.0405   9
  -2  -3  -2 601.380 50.7471   8
   2  -3   2 552.485 52.3029   2
  -2  -3  -2 558.411 52.5170   2
   2  -3   2 497.310 56.4786  10
   2   3   2 620.685 52.7312   2
   2   3   2 605.561 52.7435   9
  -2   3  -2 612.798 52.9091   9
  -2   3  -2 577.372 58.3002  10
  -2   3  -2 593.892 56.5161  10
   2   3   2 502.874 56.3951  10
  -2   3  -2 541.023 53.9840   9
  -2   3  -2 640.105 53.1428   7
   2   3   2 614.238 50.9440   5
   2   3   2 517.887 52.5937   9
   2   3   2 571.632 56.8208  10
   3  -3   2 1013.79 92.6009   9
   3  -3   2 1045.62 93.7279   9
  -3  -3  -2 887.274 95.8820   4
   3  -3   2 961.030 91.3253   2
  -3  -3  -2 935.813 91.4831   2
   3  -3   2 1035.62 98.7225  10
  -3  -3  -2 1104.52 89.6554   7
  -3  -3  -2 954.049 88.4900   8
  -3  -3  -2 971.953 92.6038   9
   3  -3   2 1057.79 89.7948   7
   3  -3   2 1171.01 89.5505   1
  -3   3  -2 1069.57 101.015  10
  -3   3  -2 977.100 93.9668   9
   3   3   2 1063.36 89.5498   7
   3   3   2 1040.22 88.7555   5
   3   3   2 1001.54 98.3913  10
   3   3   2 1028.13 98.4906  10
  -3   3  -2 1076.29 90.8098   5
   3   3   2 1033.67 91.5385   2
  -3   3  -2 947.525 98.6870  10
  -3   3  -2 898.587 92.5747   9
  -4  -3  -2 24.8115 3.15599   9
   4  -3   2 26.2001 5.34524  10
  -4  -3  -2 23.9930 4.14577   4
   4  -3   2 26.5199 3.09890   9
  -4  -3  -2 26.1125 3.81523   2
  -4  -3  -2 27.3007 3.02949   8
   4  -3   2 27.8115 3.38377   2
   4  -3   2 25.3834 3.41587   7
   4  -3   2 29.6648 4.13633   1
   4  -3   2 23.7415 3.35445  10
   4  -3   2 23.6318 4.19576   9
  -4  -3  -2 22.8543 3.14971   8
  -4  -3  -2 20.5042 3.11551   7
  -4   3  -2 23.4418 3.16436   9
  -4   3  -2 28.2068 5.70673   7
   4   3   2 25.4672 3.17794   1
   4   3   2 22.6177 3.57772   2
   4   3   2 25.8095 3.31042   6
  -4   3  -2 27.8997 3.13143   8
  -4   3  -2 19.7325 5.31880   5
  -4   3  -2 25.6282 5.32881   1
  -4   3  -2 27.7494 7.12368  10
  -4   3  -2 22.9756 3.53053  10
  -4   3  -2 20.7411 5.39102   6
  -4   3  -2 21.7907 3.31583   2
   4   3   2 21.1633 3.08811   7
  -5  -3  -2 1221.40 114.279   8
   5  -3   2 1508.57 116.062   7
   5  -3   2 1474.73 129.049  10
  -5  -3  -2 1187.98 124.180   4
   5  -3   2 1317.81 115.694   1
   5  -3   2 1304.28 120.048   9
  -5  -3  -2 1332.92 114.741   8
   5  -3   2 1404.77 117.974   2
   5  -3   2 1256.66 119.532   9
  -5  -3  -2 1143.26 115.693   7
   5  -3   2 1453.44 127.464  10
  -5   3  -2 1228.85 119.796   9
   5   3   2 1108.02 114.842   1
  -5   3  -2 1357.13 114.576   8
   5   3   2 1433.68 118.377   2
  -5   3  -2 1163.78 116.428   1
  -5   3  -2 1320.89 116.963   5
  -5   3  -2 1373.83 118.053   7
  -6  -3  -2 519.683 44.9618   8
  -6  -3  -2 485.915 45.7422   7
   6  -3   2 531.482 46.5663   2
   6  -3   2 475.826 46.1030   1
   6  -3   2 454.852 47.0350   9
  -6  -3  -2 588.521 50.0732   4
   6  -3   2 589.782 45.8974   7
   6  -3   2 599.521 51.3010  10
  -6  -3  -2 534.281 45.8199   8
   6  -3   2 481.036 50.0539  10
  -6   3  -2 522.687 47.5175   5
  -6   3  -2 482.064 45.2340   8
   6   3   2 449.949 45.1982   1
   6   3   2 545.377 47.0154   2
  -6   3  -2 504.573 47.8419   7
  -6   3  -2 439.700 46.8017   1
   7  -3   2 423.468 36.0908   9
   7  -3   2 360.797 36.0756   9
   7  -3   2 420.543 39.3780  10
   7  -3   2 393.301 35.4494   7
  -7  -3  -2 366.268 34.7740   8
   7  -3   2 446.166 35.0838   5
   7  -3   2 388.782 38.7291  10
   7  -3   2 344.104 35.8093   1
  -7   3  -2 370.699 37.4653   7
   7   3   2 397.030 35.0891   1
  -7   3  -2 427.571 37.5180   5
  -7   3  -2 392.720 35.2299   8
   8  -3   2 5.12613 1.76298  10
   8  -3   2 4.12921 1.44160   5
   8  -3   2 2.66135 2.07054   1
   8  -3   2 1.68421 1.13940  10
  -8  -3  -2 1.91508 1.04208   8
   8  -3   2 2.09330 1.41340   7
  -8   3  -2 3.03418 1.68131   8
  -8   3  -2 3.61007 3.08391   7
   8   3   2 2.74917 1.56442   1
  -9  -3  -2 478.007 42.4198   8
   9  -3   2 505.829 46.8087  10
   9  -3   2 456.323 46.8100  10
   9  -3   2 503.683 43.7190   1
   9   3   2 465.633 42.7770   1
  -9   3  -2 415.967 44.1445   7
   9   3   2 529.367 42.8561   1
  10  -3   2 203.920 22.1392   1
 -10  -3  -2 246.038 21.1644   8
  10   3   2 251.996 21.4885   1
 -10   3  -2 226.829 22.5636   7
 -11  -3  -2 104.032 9.71347   8
 -11  -3  -2 111.678 12.4878   4
  11  -3   2 96.7115 10.7919   1
  11  -3   2 101.584 11.0804   6
 -11   3  -2 89.3116 10.7956   7
 -12  -3  -2 0.66098 3.18137   4
 -12  -3  -2 1.21898 1.56766   8
  12  -3   2 2.07687 2.54981   1
 -13  -3  -2 179.181 19.7055   4
  13  -3   2 178.881 17.7834   1
 -13  -3  -2 185.227 17.0018   8
  12  -4  -2 409.781 38.0388   1
 -11  -4   2 3.56232 1.23504   8
  11  -4  -2 5.05934 2.95047   6
  11  -4  -2 4.83031 3.08469   1
  10  -4  -2 115.799 13.7807   1
 -10  -4   2 141.351 11.5436   8
  10  -4  -2 116.329 14.1536   6
 -10   4   2 109.587 14.0270   7
   9  -4  -2 5.08412 3.26991   1
   9  -4  -2 5.02808 3.12713   6
  -9   4   2 8.58062 4.55621   7
   8  -4  -2 1013.85 105.038  10
   8  -4  -2 1028.67 100.084   6
  -8  -4   2 1083.41 94.3873   8
   8  -4  -2 1143.09 105.110  10
   8  -4  -2 1115.20 97.7061   1
  -8   4   2 1061.86 112.969   3
  -8   4   2 1126.90 95.5222   8
   7  -4  -2 7.00932 1.83219   7
   7  -4  -2 5.91132 3.32478   6
   7  -4  -2 1.30807 3.08216   1
   7  -4  -2 4.16807 1.35338  10
   7  -4  -2 5.91923 1.50339  10
  -7   4   2 5.38211 3.19206   3
  -7   4   2 7.07215 4.30933   7
  -7   4   2 4.47233 2.11552   8
   6  -4  -2 603.372 50.0612   6
   6  -4  -2 523.629 47.5029   2
   6  -4  -2 526.087 48.3238   1
   6  -4  -2 539.864 51.3420  10
   6  -4  -2 441.484 46.6793   7
   6  -4  -2 581.368 47.8139   9
   6  -4  -2 487.140 51.1693  10
  -6   4   2 512.408 49.0221   7
   6   4  -2 522.066 47.4567   6
  -6   4   2 450.886 46.4545   8
  -6   4   2 494.253 48.3554   5
  -6   4   2 609.459 55.7835   3
   5  -4  -2 16.9753 2.77428   9
   5  -4  -2 29.3738 3.50062   2
   5  -4  -2 31.1088 5.75461   1
   5  -4  -2 19.9871 3.36114  10
   5  -4  -2 30.9768 5.82176   6
   5  -4  -2 23.2666 3.82764  10
   5  -4  -2 27.9274 3.92852   7
   5  -4  -2 21.4346 3.70954  10
  -5   4   2 23.8267 4.94375   1
  -5   4   2 21.6872 3.38306   8
  -5   4   2 32.3632 6.17458   7
   5   4  -2 26.2257 3.06714   1
  -5   4   2 22.3230 5.65653   5
  -5   4   2 30.0778 5.58745   3
   5   4  -2 25.1287 3.12520   6
   4  -4  -2 1782.89 198.285  10
   4  -4  -2 2190.93 185.477   6
   4  -4  -2 2139.42 180.277   1
   4  -4  -2 1988.43 180.617   7
   4  -4  -2 2078.08 186.137   9
   4  -4  -2 1983.88 186.202   9
   4  -4  -2 1804.46 193.294   4
  -4  -4   2 1951.92 183.704   2
   4  -4  -2 2103.17 183.374   2
  -4   4   2 2141.30 180.373   5
   4   4  -2 1909.79 183.689   6
  -4   4   2 2175.81 186.550   9
  -4   4   2 2278.81 180.563   1
  -4   4   2 2068.24 181.987   7
   3  -4  -2 14.9840 3.50394  10
   3  -4  -2 12.7984 2.37276   9
   3  -4  -2 11.3532 3.67814   4
  -3  -4   2 11.2694 1.61264   8
   3  -4  -2 12.4561 2.39783   9
  -3  -4   2 11.6500 2.28834   2
   3  -4  -2 11.2627 2.63815   2
   3  -4  -2 8.20860 3.08114   6
   3  -4  -2 10.6963 3.47708   1
   3  -4  -2 14.8607 3.20547  10
   3   4  -2 9.60575 2.23686   6
  -3   4   2 15.4270 4.33239   7
  -3   4   2 17.5026 4.33504   5
  -3   4   2 12.8513 2.59409   9
  -3   4   2 13.7970 4.50592   1
  -3   4   2 11.8988 3.70870  10
   3   4  -2 13.2493 2.56399   6
  -3   4   2 13.3316 2.77746  10
  -3   4   2 13.4067 4.29432   3
   2  -4  -2 866.904 84.8783   4
  -2  -4   2 911.823 80.1018   2
  -2  -4   2 750.057 77.2058   8
   2  -4  -2 902.941 81.5052   9
   2  -4  -2 1008.49 87.3301  10
   2  -4  -2 805.978 87.0285  10
   2  -4  -2 780.905 81.1532   6
   2  -4  -2 1029.86 81.5880   9
  -2   4   2 849.474 81.4455   9
   2   4  -2 776.367 80.3821   6
  -2   4   2 938.235 81.3865   9
  -2   4   2 944.150 79.1786   5
  -2   4   2 807.581 81.6147   9
   2   4  -2 972.724 80.6720   6
  -2   4   2 952.735 87.5386  10
   1  -4  -2 25.5093 4.35744   6
  -1  -4   2 30.5510 4.23707   8
   1  -4  -2 23.7406 3.70784   9
  -1  -4   2 28.8614 3.97016   9
   1  -4  -2 22.5947 4.65916  10
   1  -4  -2 21.4991 4.42828   4
   1  -4  -2 36.7599 5.65254  10
   1   4  -2 16.9938 2.71435  10
  -1   4   2 33.7143 4.87748  10
   1   4  -2 19.2179 2.65216   5
   1   4  -2 22.9427 3.05652   7
  -1   4   2 22.2039 3.49761   9
  -1   4   2 27.9075 4.88619   7
  -1   4   2 24.4808 3.41164   9
  -1   4   2 30.2982 4.85264   5
  -1   4   2 16.1455 4.01038  10
   1   4  -2 25.2160 3.37841  10
   1   4  -2 26.1333 4.18502   1
  -1   4   2 29.3902 5.42711   1
   1   4  -2 19.2964 3.67369   6
   0  -4  -2 2259.31 202.102  10
   0  -4  -2 2288.56 201.924  10
   0  -4  -2 1963.73 189.433   9
   0  -4  -2 1798.79 181.100   8
   0  -4  -2 1990.05 195.292   4
   0   4   2 1854.15 201.701  10
   0   4   2 1913.37 189.252   9
   0   4  -2 2099.05 181.425   5
   0   4  -2 1959.74 201.028  10
   0   4  -2 2105.88 201.701  10
   0   4  -2 1966.89 188.919   9
   0   4   2 2137.49 201.903  10
   0   4   2 2072.53 182.438   1
   0   4   2 2377.79 183.921   7
   0   4  -2 2109.97 183.396   7
   0   4   2 2267.94 181.979   5
   1  -4   2 27.5337 6.26335  10
   1  -4   2 15.0046 3.16284   6
  -1  -4  -2 9.88364 2.36307   9
   1  -4   2 12.4800 3.24908   8
  -1  -4  -2 9.41587 2.08837  10
  -1  -4  -2 8.75771 1.88221   6
   1  -4   2 14.9435 3.36997   7
  -1  -4  -2 9.28176 2.08670   4
   1  -4   2 11.6264 2.92602  10
  -1  -4  -2 8.00438 2.17985   8
   1  -4   2 14.2834 2.71689   9
  -1  -4  -2 10.9173 2.58462   2
   1   4   2 9.94351 2.69809   1
  -1   4  -2 16.2909 3.85681   6
   1   4   2 8.79386 2.04339   9
  -1   4  -2 16.8203 4.08872   1
  -1   4  -2 6.01734 1.43772   9
  -1   4  -2 10.1785 3.35028   7
  -1   4  -2 9.38156 3.60012  10
  -1   4  -2 12.4090 2.43362   3
  -1   4  -2 8.98478 2.53810   9
   1   4   2 8.18237 2.79636   7
  -1   4  -2 6.55685 1.76423  10
   1   4   2 9.88695 1.99945   9
  -1   4  -2 6.55544 2.75096   5
   1   4   2 7.97241 2.60818  10
   1   4   2 11.4498 2.95891   5
   1   4   2 9.03124 2.70766  10
   2  -4   2 703.631 59.1282   9
  -2  -4  -2 612.522 56.0970   8
  -2  -4  -2 612.905 58.7561   9
   2  -4   2 600.190 62.5379  10
  -2  -4  -2 548.296 60.3089   4
   2  -4   2 722.509 58.5907   6
  -2  -4  -2 577.041 58.0835   2
   2  -4   2 553.090 57.8098   2
  -2   4  -2 610.777 59.3915   9
  -2   4  -2 667.730 58.4731   9
  -2   4  -2 730.750 58.4384   7
  -2   4  -2 724.610 59.3879   6
   2   4   2 545.185 62.3137  10
  -2   4  -2 603.709 57.3702   5
   2   4   2 652.785 56.5280   5
   2   4   2 635.227 57.0067   7
  -2   4  -2 548.838 63.5749  10
   2   4   2 720.445 62.6400  10
   2   4   2 722.491 56.8222   1
   3  -4   2 2.17686 1.14270   9
   3  -4   2 0.11948 1.72944   9
  -3  -4  -2 1.71960 1.23408   8
   3  -4   2 0.91092 1.40838  10
   3  -4   2 3.53051 1.79338   6
   3  -4   2 3.63323 1.51396   2
   3  -4   2 2.12647 1.85532   1
  -3  -4  -2 4.57576 2.11203   2
   3  -4   2 2.96256 2.52825  10
  -3  -4  -2 1.48847 1.56933   4
   3  -4   2 3.37025 1.99781   7
  -3  -4  -2 1.16808 1.43567   9
  -3   4  -2 2.14366 3.01221   5
  -3   4  -2 1.52323 3.41632  10
   3   4   2 5.85132 2.15368   1
  -3   4  -2 1.14447 1.74766   3
  -3   4  -2 2.74012 2.79103   6
  -3   4  -2 1.24986 1.16274   9
  -3   4  -2 1.69905 2.87519   7
   3   4   2 2.05855 1.94778   2
  -3   4  -2 1.83707 2.98552   1
  -3   4  -2 1.26534 1.44747  10
   3   4   2 2.35007 1.04195  10
  -3   4  -2 -1.3939 2.53478   9
   3   4   2 1.58277 1.82709   5
   3   4   2 3.10272 1.85280   7
   3   4   2 1.64484 1.23643  10
  -4  -4  -2 935.393 84.5076   8
   4  -4   2 916.518 89.2813   9
   4  -4   2 877.902 87.1577   2
  -4  -4  -2 843.946 84.4833   8
  -4  -4  -2 912.701 91.5419   4
   4  -4   2 1059.99 85.7307   1
   4  -4   2 1010.43 94.2941  10
   4  -4   2 888.245 85.7197   7
   4  -4   2 1020.78 88.1107   6
  -4   4  -2 876.725 88.9313   6
  -4   4  -2 1042.20 86.7667   1
   4   4   2 955.716 87.5793   2
  -4   4  -2 1072.73 88.4853   9
   4   4   2 928.346 84.9867   1
  -4   4  -2 1010.13 86.8860   5
  -4   4  -2 1108.71 87.7720   7
   5  -4   2 28.1100 3.77474   7
   5  -4   2 31.6422 4.84161   1
   5  -4   2 34.2851 4.60714   9
  -5  -4  -2 27.4246 3.61294   7
  -5  -4  -2 18.7877 4.14223   4
   5  -4   2 23.2766 3.53826  10
  -5  -4  -2 25.3587 3.27645   8
   5  -4   2 29.4797 3.79645   2
   5  -4   2 17.3324 3.91091   6
  -5   4  -2 32.9528 6.23647   5
  -5   4  -2 24.9163 5.68079   1
  -5   4  -2 24.8187 5.47830   7
   5   4   2 26.8581 3.48335   1
  -5   4  -2 25.9328 3.65193   9
  -5   4  -2 29.4156 4.97226   3
   5   4   2 27.1188 4.17659   2
  -6  -4  -2 121.076 11.8532   8
   6  -4   2 135.269 12.5540   7
   6  -4   2 134.432 13.4083  10
  -6  -4  -2 118.603 13.8141   4
   6  -4   2 141.898 12.8104   9
  -6   4  -2 145.386 14.8812   5
  -6   4  -2 103.100 13.8197   1
  -6   4  -2 138.140 14.5941   7
   6   4   2 123.248 12.1871   1
  -6   4  -2 130.481 15.2188   3
   7  -4   2 41.6510 4.92894   7
   7  -4   2 35.9915 4.59066  10
   7  -4   2 24.4094 5.25031   1
   7  -4   2 39.1180 6.11615   6
   7  -4   2 35.0278 4.16106   9
  -7  -4  -2 43.0406 4.21659   8
  -7  -4  -2 45.0253 6.15772   4
  -7   4  -2 41.1905 6.62927   3
  -7   4  -2 37.4753 6.93532   5
  -7   4  -2 32.4236 6.53953   7
   7   4   2 38.1730 4.49681   1
   8  -4   2 246.388 29.2697   6
  -8  -4  -2 315.883 30.8943   4
   8  -4   2 322.591 28.0651   7
   8  -4   2 347.234 27.7005   5
   8  -4   2 304.753 30.4525  10
   8  -4   2 333.498 31.0385  10
  -8  -4  -2 269.939 27.3542   8
  -8   4  -2 313.165 33.7607   3
  -8   4  -2 311.893 29.9794   7
   8   4   2 309.689 27.6763   1
  -9  -4  -2 91.3068 10.1459   4
   9  -4   2 81.9601 8.52982  10
   9  -4   2 81.5087 8.33275  10
   9  -4   2 74.8429 9.21060   1
  -9  -4  -2 80.4912 7.69666   8
   9  -4   2 86.9253 9.60363   6
   9  -4   2 77.5257 7.78910   5
  -9   4  -2 76.8670 11.0846   3
  -9   4  -2 71.9980 9.86535   7
   9   4   2 69.4548 7.94121   1
 -10  -4  -2 8.01090 3.51522   4
  10  -4   2 5.12373 2.68181   6
 -10  -4  -2 3.68229 1.58611   8
  10  -4   2 18.5555 3.71080   1
  10  -4   2 6.66738 1.63862   5
 -10   4  -2 10.8409 3.29452   7
 -11  -4  -2 77.1643 8.12978   8
  11  -4   2 89.8041 9.75583   1
  11  -4   2 81.7434 9.57335   6
 -11  -4  -2 99.3111 10.8479   4
 -11   4  -2 77.4439 9.41675   7
 -12  -4  -2 101.071 11.1546   4
  12  -4   2 76.5954 9.20014   1
 -12  -4  -2 76.2076 7.95979   8
 -12   4  -2 75.4299 9.18268   7
 -12  -5   2 47.4428 4.76482   8
  12  -5  -2 41.8045 6.88934   1
  11  -5  -2 164.485 17.7960   1
  11  -5  -2 155.720 18.4561   6
 -11  -5   2 189.378 15.7265   8
 -11   5   2 167.866 18.3133   7
  10  -5  -2 21.5719 5.09210   1
  10  -5  -2 18.2930 4.83134   6
 -10  -5   2 25.7113 2.89359   8
 -10   5   2 25.6791 6.10144   7
   9  -5  -2 75.9995 10.4678   6
   9  -5  -2 84.8612 10.3523   1
  -9  -5   2 75.9566 7.40807   8
  -9   5   2 98.6328 11.8548   3
  -9   5   2 66.2410 10.6009   7
  -8  -5   2 161.617 13.7771   8
   8  -5  -2 170.383 16.8146   1
   8  -5  -2 158.378 15.3611  10
   8  -5  -2 176.916 17.7524   6
  -8  -5   2 133.938 13.4902   8
   8  -5  -2 139.417 15.2840  10
  -8   5   2 138.915 16.8842   7
  -8   5   2 174.166 18.3237   3
  -7  -5   2 336.301 33.4449   8
   7  -5  -2 334.883 37.8776  10
   7  -5  -2 384.938 34.6500   7
   7  -5  -2 433.141 37.8151   6
   7  -5  -2 351.312 34.9882   9
   7  -5  -2 428.366 36.6540   1
   7  -5  -2 421.928 37.9001  10
  -7  -5   2 380.625 33.6846   8
  -7   5   2 410.375 41.2721   3
  -7   5   2 438.037 37.4826   7
  -6  -5   2 260.457 20.3244   8
   6  -5  -2 233.860 22.8542   1
   6  -5  -2 213.504 21.2591   9
   6  -5  -2 215.721 21.2791   7
   6  -5  -2 199.248 22.9370  10
  -6  -5   2 199.278 20.0489   8
   6  -5  -2 247.934 21.5416   2
   6  -5  -2 218.253 23.4659   6
  -6   5   2 271.336 23.7504   5
  -6   5   2 248.833 25.4233   3
  -6   5   2 257.050 23.6931   7
   5  -5  -2 216.277 21.1012  10
   5  -5  -2 197.608 21.3300   6
   5  -5  -2 194.472 19.5268   9
  -5  -5   2 195.227 18.3095   8
   5  -5  -2 192.280 19.5386   7
   5  -5  -2 226.544 19.5805   2
   5  -5  -2 226.954 21.0153   1
  -5  -5   2 195.003 18.2565   8
   5   5  -2 205.322 18.8109   1
  -5   5   2 227.585 21.4094   5
  -5   5   2 225.874 21.0017   1
  -5   5   2 207.439 21.3413   7
   4  -5  -2 419.385 38.0303   2
  -4  -5   2 350.837 36.2205   8
   4  -5  -2 370.355 41.0939  10
  -4  -5   2 448.416 36.4815   8
   4  -5  -2 391.868 38.0123   7
   4  -5  -2 422.926 38.4295   1
   4  -5  -2 472.122 39.7852   6
   4  -5  -2 404.028 41.2734   4
   4  -5  -2 388.580 38.4730   9
  -4   5   2 498.894 39.6617   7
  -4   5   2 379.612 38.4912   9
  -4   5   2 461.594 39.0593   1
  -4   5   2 504.407 39.3474   5
   4   5  -2 380.252 36.8634   1
   3  -5  -2 625.483 57.8630   1
   3  -5  -2 696.536 62.4786   4
   3  -5  -2 559.449 63.2650  10
   3  -5  -2 651.907 59.2783   9
   3   5  -2 590.267 56.7334   1
  -3   5   2 717.654 58.6033   5
   3   5  -2 563.136 58.3351   6
  -3   5   2 654.584 59.0993   9
  -3   5   2 753.870 59.2990   7
   2  -5  -2 965.834 82.5136   4
   2  -5  -2 779.362 76.4321   1
   2  -5  -2 873.916 84.5317  10
   2  -5  -2 952.142 79.0089   6
  -2  -5   2 727.651 74.7826   8
   2  -5  -2 776.710 79.0826   9
  -2   5   2 976.270 84.3503  10
  -2   5   2 872.032 77.0767   5
  -2   5   2 859.474 84.9432  10
   2   5  -2 707.703 77.8254   6
  -2   5   2 998.666 77.7127   1
  -2   5   2 864.609 78.7954   9
   1  -5  -2 237.712 20.8600   6
   1  -5  -2 180.109 19.8582   1
   1  -5  -2 211.826 21.6324   4
   1  -5  -2 189.910 22.1432  10
   1  -5  -2 241.776 22.8858  10
   1  -5  -2 211.299 20.6973   9
   1   5  -2 187.320 20.3299   6
  -1   5   2 264.133 21.7486   7
  -1   5   2 199.837 20.4896   9
  -1   5   2 225.879 21.0929   1
  -1   5   2 188.190 19.9352   9
   1   5  -2 222.238 20.9549  10
   1   5  -2 214.878 19.4592   7
   1   5  -2 215.444 19.8604   1
  -1   5   2 250.325 21.1397   5
   1   5  -2 200.016 18.9659   5
  -1   5   2 202.413 22.3249  10
   1   5  -2 213.384 20.9250  10
   0  -5  -2 622.785 56.4428   9
   0  -5  -2 673.070 60.0207  10
   0  -5  -2 555.932 60.2580  10
   0   5  -2 535.570 55.2078   9
   0   5  -2 593.793 54.4841   7
   0   5  -2 613.120 55.4166   9
   0   5   2 534.498 55.9055   9
   0   5  -2 643.705 55.9872   6
   0   5   2 618.896 55.7120   9
   0   5  -2 579.216 59.0919  10
   0   5  -2 628.687 59.7433  10
   0   5  -2 682.289 54.4228   1
   0   5   2 587.318 54.5807   5
   0   5  -2 537.118 53.6422   5
   0   5   2 702.325 55.0088   1
   0   5   2 604.256 55.3342   7
  -1  -5  -2 879.229 88.0447   4
  -1  -5  -2 943.207 82.3367   8
   1   5   2 952.217 85.4824   9
  -1   5  -2 1021.42 83.1855   1
  -1   5  -2 837.076 85.1820   9
  -1   5  -2 1072.68 85.7741   6
   1   5   2 822.891 91.4506  10
  -1   5  -2 964.584 90.8920  10
   1   5   2 1019.72 83.9793   7
  -1   5  -2 973.041 85.9578   9
  -1   5  -2 869.404 91.8249  10
  -1   5  -2 843.322 82.6468   5
  -1   5  -2 906.219 96.0818   3
   1   5   2 963.124 82.8756   5
  -1   5  -2 941.856 83.6413   7
  -2  -5  -2 1156.89 100.563   8
   2  -5   2 1259.18 105.455   9
   2  -5   2 1199.72 102.525   7
   2  -5   2 980.415 104.120   6
  -2   5  -2 1283.10 102.015   1
  -2   5  -2 1070.79 104.671   9
  -2   5  -2 1220.30 104.954   6
   2   5   2 1221.98 102.286   7
  -2   5  -2 1092.99 111.552  10
   2   5   2 1064.07 111.808  10
  -2   5  -2 1125.35 113.014  10
   2   5   2 1069.91 101.150   1
  -2   5  -2 1149.49 117.917   3
  -2   5  -2 1172.85 101.719   5
  -2   5  -2 1125.45 102.591   7
   3  -5   2 103.447 9.55010   6
   3  -5   2 73.8177 8.65592   2
   3  -5   2 80.2191 9.04357   1
   3  -5   2 99.0252 9.49055   7
   3  -5   2 80.7248 9.03255   9
  -3  -5  -2 76.3781 8.75685   4
   3   5   2 75.0563 8.81878   1
  -3   5  -2 95.0666 10.2518   5
  -3   5  -2 101.469 10.3432   1
   3   5   2 77.3208 8.51552  10
  -3   5  -2 66.0558 10.6751  10
  -3   5  -2 101.052 10.8658   6
   3   5   2 83.1277 8.41739  10
  -3   5  -2 70.9555 9.64128   3
  -3   5  -2 88.1500 10.1721   7
  -3   5  -2 90.0206 8.53064   9
  -4  -5  -2 223.295 21.1928   4
   4  -5   2 204.660 21.1071   9
   4  -5   2 222.538 20.2690   7
   4  -5   2 186.266 20.1132   2
  -4  -5  -2 210.893 19.5744   8
   4  -5   2 201.919 20.7342   6
   4  -5   2 218.125 20.3581   1
  -4   5  -2 169.548 22.9550   3
  -4   5  -2 230.515 21.4300   5
   4   5   2 254.166 20.1899   1
  -4   5  -2 217.209 22.0498   6
  -4   5  -2 230.748 21.6945   7
  -4   5  -2 222.278 21.3842   1
  -4   5  -2 217.097 20.2941   9
   5  -5   2 591.471 50.2621   6
  -5  -5  -2 493.910 47.6906   8
  -5  -5  -2 491.566 51.7058   4
   5  -5   2 456.303 48.5629   1
   5  -5   2 572.620 50.6351   9
   5  -5   2 535.627 48.5900   7
  -5   5  -2 501.201 49.8633   9
  -5   5  -2 538.790 49.6115   5
  -5   5  -2 542.062 50.0231   7
   5   5   2 614.227 48.1671   1
  -5   5  -2 531.796 56.6201   3
  -5   5  -2 627.092 50.0254   1
   6  -5   2 446.960 43.1228   7
   6  -5   2 427.713 43.5234   1
   6  -5   2 521.783 44.8272   9
  -6  -5  -2 489.409 42.4369   8
  -6  -5  -2 476.998 46.3586   4
  -6   5  -2 458.892 50.5890   3
   6   5   2 504.600 42.7202   1
  -6   5  -2 475.512 44.7582   7
  -6   5  -2 497.060 44.6752   5
   7  -5   2 29.2006 4.06567   7
   7  -5   2 27.6365 3.54613   9
  -7  -5  -2 26.8906 4.76656   4
   7  -5   2 21.9821 4.58923   6
   7  -5   2 18.7474 4.37836   1
  -7   5  -2 17.2468 4.83208   7
  -7   5  -2 17.7561 4.64552   3
   7   5   2 28.9932 3.85295   1
  -7   5  -2 22.1596 5.38562   5
   8  -5   2 30.5531 4.35355  10
   8  -5   2 34.0546 5.75332   1
   8  -5   2 38.2694 4.38086   5
   8  -5   2 31.8166 4.47942   7
  -8  -5  -2 32.4082 5.67012   4
   8  -5   2 23.7348 4.95664   6
  -8  -5  -2 28.8503 3.82054   8
  -8   5  -2 36.7510 6.86551   5
  -8   5  -2 36.6857 6.41726   7
  -8   5  -2 33.3748 6.07351   3
   8   5   2 40.1068 4.40251   1
   9  -5   2 214.072 22.0989   6
  -9  -5  -2 223.791 20.1704   8
  -9  -5  -2 232.271 23.1436   4
   9  -5   2 231.120 20.3724   5
  -9   5  -2 248.339 22.7471   7
  -9   5  -2 211.595 25.1513   3
   9   5   2 206.523 20.3960   1
  10  -5   2 106.251 12.5642   1
  10  -5   2 140.759 11.3345   5
  10  -5   2 100.792 12.6339   6
 -10  -5  -2 116.638 11.2030   8
 -10   5  -2 105.322 12.8877   7
 -10   5  -2 128.637 15.2840   3
  11  -5   2 6.47192 3.12806   6
  11  -5   2 8.87144 3.31003   1
 -11  -5  -2 6.92056 1.92777   8
 -11   5  -2 10.5670 3.41283   7
 -12  -5  -2 7.84007 1.98335   8
  12  -5   2 7.51881 3.22963   1
 -12   5  -2 8.30048 3.25232   7
  12  -6  -2 493.697 46.1401   1
 -12  -6   2 506.172 44.1006   8
  11  -6  -2 35.0995 6.61007   1
 -11  -6   2 45.6379 4.48510   8
 -11   6   2 44.3090 7.46316   7
  10  -6  -2 18.3249 4.92037   6
  10  -6  -2 17.5560 4.82844   1
 -10  -6   2 23.0412 2.88147   8
 -10   6   2 25.6711 5.89181   7
   9  -6  -2 11.4272 4.45083   1
  -9  -6   2 13.6615 1.97132   8
   9  -6  -2 17.5207 4.93926   6
  -9   6   2 14.8058 4.89729   7
  -9   6   2 25.3800 4.96652   3
   8  -6  -2 1338.61 118.359   1
   8  -6  -2 1242.88 121.549   6
  -8  -6   2 1361.32 115.264   8
   8  -6  -2 1381.62 128.814  10
  -8   6   2 1371.43 119.641   7
  -8   6   2 1228.87 136.909   3
  -7  -6   2 169.171 16.6260   8
   7  -6  -2 171.852 17.6304   9
   7  -6  -2 224.174 20.0157   1
   7  -6  -2 196.061 17.9680   7
   7  -6  -2 218.663 20.5333   6
  -7   6   2 171.258 19.8544   7
  -7   6   2 216.277 21.4453   3
  -7   6   2 196.310 20.2077   5
   6  -6  -2 11.2143 1.94406   9
  -6  -6   2 6.53961 1.11317   8
   6  -6  -2 9.77314 3.85583   6
   6  -6  -2 15.9598 4.49356   1
   6  -6  -2 6.49794 2.55375   7
  -6   6   2 10.5957 4.53437   5
  -6   6   2 6.48059 2.74360   3
  -6   6   2 5.86199 3.98989   7
  -5  -6   2 46.6414 5.07981   8
   5  -6  -2 59.5313 8.15358   6
   5  -6  -2 69.4591 8.37373   1
   5  -6  -2 61.3866 6.33032   9
   5  -6  -2 55.9349 6.97731   7
   5   6  -2 52.1543 5.90694   1
  -5   6   2 70.9869 8.95372   7
  -5   6   2 72.8900 9.17662   5
  -5   6   2 46.5324 7.74163   1
   4  -6  -2 2251.89 177.560   6
   4  -6  -2 1886.64 185.012   4
  -4  -6   2 1961.53 169.773   8
   4  -6  -2 1997.37 178.391   9
   4  -6  -2 1895.00 172.252   1
  -4   6   2 1889.32 172.197   5
  -4   6   2 2028.71 178.166   9
   4   6  -2 1736.95 170.922   1
  -4   6   2 1892.16 172.606   1
   3  -6  -2 147.580 14.3605   9
   3  -6  -2 141.346 15.5703   4
   3  -6  -2 152.769 14.5878   1
   3  -6  -2 129.470 14.7816   6
  -3  -6   2 137.604 12.8183   8
   3   6  -2 133.992 13.4827   1
  -3   6   2 147.953 13.7405   9
  -3   6   2 128.336 13.7116   9
  -3   6   2 139.088 15.1259   1
  -3   6   2 136.057 15.2693   7
  -3   6   2 159.624 15.4351   5
   2  -6  -2 31.4061 4.93172   1
   2  -6  -2 35.3112 5.86112   4
   2  -6  -2 31.7533 5.01845   9
  -2   6   2 37.1084 6.07346   7
  -2   6   2 50.1919 7.18656   1
   2   6  -2 28.5303 4.45193   6
   2   6  -2 28.9378 4.42411   1
  -2   6   2 36.9016 6.09910   5
  -2   6   2 27.6985 3.80834   9
  -1  -6   2 19.2614 2.89697   8
   1  -6  -2 16.1490 3.26228   4
   1  -6  -2 20.0586 3.45613   1
   1  -6  -2 15.7346 3.74517   9
   1   6  -2 20.0292 2.92498   7
   1   6  -2 15.8380 2.25467  10
  -1   6   2 22.2996 4.56764   5
   1   6  -2 11.9879 2.99540   1
   1   6  -2 16.4976 2.32256  10
   1   6  -2 17.3446 2.41350   5
   1   6  -2 12.3672 3.00456   6
  -1   6   2 16.6766 4.33395  10
  -1   6   2 12.2722 4.08664   7
  -1   6   2 13.9084 2.45742   9
  -1   6   2 21.3984 4.75516   1
   0  -6  -2 2479.92 231.111   4
   0   6   2 2339.20 216.234   1
   0   6  -2 2672.97 223.567   9
   0   6  -2 2608.06 214.870   5
   0   6  -2 2523.04 223.519   9
   0   6   2 2223.88 223.893   9
   0   6   2 2575.86 217.867   7
   0   6  -2 2170.27 216.912   7
   0   6  -2 2554.78 215.847   1
   0   6  -2 2474.97 238.782  10
   0   6  -2 2696.68 221.901   6
   0   6  -2 2170.30 238.140  10
   0   6   2 2431.55 215.604   5
  -1  -6  -2 16.0191 2.58021   4
   1  -6   2 14.7779 4.01801   7
   1  -6   2 13.5461 3.49704   1
  -1  -6  -2 13.4744 2.50040   8
   1  -6   2 23.2443 3.47923   8
   1   6   2 13.1321 3.35184  10
  -1   6  -2 15.2107 2.09711   9
   1   6   2 10.7274 3.28076   1
   1   6   2 16.0822 3.80650   7
  -1   6  -2 16.4204 3.63337   7
   1   6   2 13.6084 2.42450   9
  -1   6  -2 18.2293 3.65284   5
   1   6   2 14.5973 2.20302   9
  -1   6  -2 24.4688 4.32533   1
   1   6   2 13.2112 3.08781  10
  -1   6  -2 17.2040 3.78980  10
  -1   6  -2 11.9051 2.22212  10
  -1   6  -2 17.6988 3.72910   6
   1   6   2 11.4962 3.34452   5
   2  -6   2 118.875 13.4916   1
   2  -6   2 152.549 13.7302   9
  -2  -6  -2 131.753 13.4312   4
   2  -6   2 142.550 14.3057   7
  -2  -6  -2 118.868 12.5299   8
  -2   6  -2 135.379 14.8650   3
  -2   6  -2 156.003 14.3688   1
  -2   6  -2 162.572 14.6833   6
   2   6   2 123.064 13.3637   1
   2   6   2 130.988 14.3024  10
   2   6   2 152.941 13.8894  10
  -2   6  -2 130.066 14.0289   7
  -2   6  -2 121.111 15.2854  10
  -2   6  -2 131.105 13.8931   5
   2   6   2 130.389 13.6243   7
   2   6   2 150.915 13.4533   5
  -2   6  -2 123.020 12.9253   9
   3  -6   2 21.2246 3.67545   9
  -3  -6  -2 15.4501 2.47658   8
   3  -6   2 19.1132 4.00652   1
   3  -6   2 15.7119 3.68291   7
  -3  -6  -2 14.8750 2.55737   4
  -3   6  -2 15.2295 3.02036   3
  -3   6  -2 23.1694 4.57021   1
   3   6   2 21.6172 3.12491   5
  -3   6  -2 14.7283 3.91046   5
  -3   6  -2 14.5854 2.52880   9
  -3   6  -2 17.9892 4.31268   6
   3   6   2 18.7595 3.68538   1
  -3   6  -2 12.5534 3.75077   7
   4  -6   2 1495.60 137.360   7
  -4  -6  -2 1418.16 134.972   8
   4  -6   2 1464.12 136.476   1
  -4  -6  -2 1559.82 145.713   4
  -4   6  -2 1715.16 137.016   5
  -4   6  -2 1427.76 137.020   1
  -4   6  -2 1545.35 141.369   9
  -4   6  -2 1682.95 159.183   3
   4   6   2 1725.52 136.422   1
  -4   6  -2 1412.64 137.766   7
  -5  -6  -2 279.846 27.5907   4
   5  -6   2 340.082 27.8126   9
   5  -6   2 294.927 26.5997   1
   5  -6   2 253.123 26.2441   7
  -5  -6  -2 293.511 25.3449   8
  -5   6  -2 276.000 27.2713   7
   5   6   2 245.734 25.7772   1
  -5   6  -2 252.360 30.1616   3
  -5   6  -2 317.931 26.8052   9
  -5   6  -2 296.899 27.2632   5
  -5   6  -2 257.842 26.9607   1
  -6  -6  -2 137.041 12.4856   8
   6  -6   2 162.489 13.8080   9
   6  -6   2 106.028 13.3467   1
   6  -6   2 113.714 12.9190   7
  -6  -6  -2 124.746 13.7206   4
   6   6   2 130.519 12.6457   1
  -6   6  -2 122.384 14.2224   5
  -6   6  -2 138.408 15.3836   3
  -6   6  -2 131.730 14.1795   1
  -6   6  -2 155.368 14.7901   7
   7  -6   2 27.1849 4.06621   9
   7  -6   2 23.4151 4.74073   1
   7  -6   2 25.1361 4.03503   7
  -7  -6  -2 28.0352 3.60586   8
  -7   6  -2 21.9573 4.71789   3
  -7   6  -2 20.9439 5.27924   5
  -7   6  -2 30.9969 5.68716   7
   7   6   2 23.6215 3.84122   1
   8  -6   2 624.927 58.7053   1
   8  -6   2 699.740 58.2508   7
  -8  -6  -2 657.558 57.1375   8
  -8   6  -2 586.596 67.9375   3
   8   6   2 700.571 57.6484   1
  -8   6  -2 596.122 58.9356   5
  -8   6  -2 642.775 59.5171   7
  -9  -6  -2 296.874 26.5693   8
   9  -6   2 251.826 27.7637   1
   9  -6   2 292.494 26.7485   5
  -9   6  -2 322.713 28.8094   5
  -9   6  -2 345.325 29.0811   7
  -9   6  -2 278.732 32.3333   3
  10  -6   2 75.9165 9.90307   1
  10  -6   2 91.5119 8.74644   5
 -10  -6  -2 87.6477 8.64836   8
 -10   6  -2 91.7245 10.5325   7
  11  -6   2 4.78014 2.96528   1
 -11  -6  -2 5.13782 1.89201   8
 -11   6  -2 4.90400 3.04516   7
 -12  -6  -2 169.695 15.7521   8
  11  -7  -2 1.15482 2.86699   1
 -11  -7   2 2.18626 1.24969   8
 -10  -7   2 143.386 12.5291   8
  10  -7  -2 149.095 13.0393   5
  10  -7  -2 113.550 14.6623   1
 -10   7   2 126.270 15.2291   7
  -9  -7   2 169.890 14.8649   8
   9  -7  -2 160.478 17.5382   1
  -9   7   2 159.850 17.7326   7
   8  -7  -2 259.524 25.4851   1
   8  -7  -2 273.477 24.2990   7
  -8  -7   2 244.802 22.7916   8
  -8   7   2 245.310 25.7273   7
  -8   7   2 283.471 26.1154   5
  -7  -7   2 16.5476 1.82947   8
   7  -7  -2 12.7375 4.40910   1
   7  -7  -2 11.9183 3.06257   7
  -7   7   2 8.41785 4.02133   7
  -7   7   2 15.4711 5.20098   5
  -6  -7   2 159.363 13.9315   8
   6  -7  -2 180.750 16.9666   1
   6  -7  -2 153.048 15.5999   7
  -6   7   2 151.002 16.9670   7
  -6   7   2 133.022 16.4814   5
   5  -7  -2 232.774 21.2509   9
   5  -7  -2 183.808 21.2795   1
  -5  -7   2 208.014 19.2838   8
   5  -7  -2 247.285 21.2701   7
  -5   7   2 260.006 22.5793   7
  -5   7   2 197.736 21.5339   1
  -5   7   2 205.647 21.7736   5
   4  -7  -2 362.304 38.7944   7
   4  -7  -2 454.595 39.9133   9
   4  -7  -2 470.416 41.9795   4
   4  -7  -2 360.840 38.7255   1
  -4  -7   2 473.256 37.1518   8
  -4   7   2 460.078 39.9409   7
  -4   7   2 447.435 39.4012   9
  -4   7   2 425.366 39.4427   5
  -4   7   2 404.275 39.3374   1
  -4   7   2 394.454 39.1959   9
   4   7  -2 378.606 37.8884   1
   3  -7  -2 35.2934 5.46003   1
   3  -7  -2 24.8206 5.06110   7
   3  -7  -2 30.2790 5.46131   4
   3  -7  -2 33.2249 5.35911   9
  -3  -7   2 35.6601 3.57832   8
  -3   7   2 31.2669 4.17888   9
   3   7  -2 26.9525 4.29148   1
  -3   7   2 34.7106 6.18632   1
  -3   7   2 32.4297 6.13038   5
  -3   7   2 45.5036 6.65351   7
   2  -7  -2 139.135 15.2203   4
   2  -7  -2 156.554 14.8077   1
   2  -7  -2 167.015 15.2918   9
  -2  -7   2 152.313 13.6165   8
   2   7  -2 143.225 14.2743   1
  -2   7   2 144.101 15.5443   1
  -2   7   2 128.488 14.1298   9
  -2   7   2 174.698 15.9572   5
  -2   7   2 145.846 15.6697   7
   1  -7  -2 127.573 12.8500   1
   1  -7  -2 119.339 13.3575   4
  -1   7   2 130.529 12.6391   9
  -1   7   2 156.731 14.3716   1
   1   7  -2 136.990 12.9681   1
   1   7  -2 134.003 12.0801   5
  -1   7   2 144.255 14.3232   7
  -1   7   2 107.289 15.0421  10
   1   7  -2 142.983 13.1576  10
   1   7  -2 125.892 13.0737  10
   1   7  -2 126.564 13.2870   6
  -1   7   2 138.754 14.0663   5
   0  -7   2 496.973 38.5312   8
   0  -7  -2 433.972 41.1450   4
   0  -7   2 364.315 38.8372   7
   0   7  -2 379.962 38.9318   7
   0   7   2 416.173 39.6028   1
   0   7   2 496.672 42.7706  10
   0   7  -2 449.337 42.6517  10
   0   7   2 452.815 39.6747   9
   0   7  -2 401.854 38.4092   5
   0   7   2 370.239 43.2222  10
   0   7  -2 423.684 42.0708  10
   0   7   2 406.561 39.7396   7
   0   7   2 401.428 39.2500   5
   0   7  -2 472.907 40.2257   6
   0   7  -2 463.444 39.0219   1
  -1  -7  -2 35.1517 4.26695   8
  -1  -7  -2 38.0830 4.41850   4
   1  -7   2 33.0585 5.22486   7
  -1   7  -2 42.9305 5.63049   1
  -1   7  -2 35.4281 5.26215   5
   1   7   2 37.6765 4.64033  10
  -1   7  -2 32.6322 4.25064  10
  -1   7  -2 33.0844 5.40513   6
  -1   7  -2 35.9511 5.49453  10
  -1   7  -2 32.6945 3.82345   9
   1   7   2 38.8850 4.03906   9
   1   7   2 29.5254 5.23004   5
   1   7   2 35.4206 5.76550  10
  -1   7  -2 35.8623 5.42711   7
   1   7   2 45.5321 6.07718   7
   1   7   2 38.0102 3.82488   9
   1   7   2 36.3983 5.89949   1
  -2  -7  -2 206.845 22.2485   4
   2  -7   2 247.350 22.1601   1
   2  -7   2 232.470 22.5811   7
  -2  -7  -2 238.620 20.8463   8
  -2   7  -2 239.630 22.2869   7
  -2   7  -2 208.845 21.8533   5
   2   7   2 259.740 22.0547   7
  -2   7  -2 267.090 22.3422   1
   2   7   2 203.103 23.2047  10
   2   7   2 264.095 21.6576   5
  -2   7  -2 240.153 22.8268   6
   2   7   2 201.918 21.7001   1
  -2   7  -2 262.162 24.7207  10
   2   7   2 226.069 22.8418  10
  -2   7  -2 205.573 21.4988   9
   3  -7   2 75.8087 8.16178   1
   3  -7   2 75.9071 8.52277   7
  -3  -7  -2 63.6407 7.25213   4
  -3  -7  -2 76.1074 6.82645   8
  -3   7  -2 96.5471 9.01955   1
  -3   7  -2 62.0617 6.95655   9
  -3   7  -2 59.7186 8.27689   7
  -3   7  -2 74.7642 7.18932   9
   3   7   2 69.2087 6.92937   5
  -3   7  -2 53.7953 8.01846   3
  -3   7  -2 60.5414 8.23880   5
   3   7   2 67.3592 7.87691   1
   4  -7   2 361.350 33.0031   7
   4  -7   2 349.314 32.5691   1
  -4  -7  -2 344.066 31.2854   8
  -4   7  -2 329.532 37.0548   3
  -4   7  -2 388.963 33.1661   1
  -4   7  -2 340.785 32.8602   9
  -4   7  -2 344.057 33.0812   7
   4   7   2 372.737 32.3289   1
   5  -7   2 18.4877 3.91419   7
  -5  -7  -2 20.8673 2.74712   8
   5  -7   2 20.6518 4.14025   1
   5  -7   2 19.8770 3.65037   9
  -5   7  -2 15.2521 3.44097   3
  -5   7  -2 24.3229 4.68377   7
  -5   7  -2 18.5201 3.21176   9
  -5   7  -2 14.9644 4.14423   5
  -5   7  -2 23.7960 4.96126   1
   5   7   2 22.2601 3.76707   1
   6  -7   2 228.789 26.4426   1
  -6  -7  -2 284.273 25.3571   8
   6  -7   2 339.781 27.6216   9
   6  -7   2 284.062 26.4872   7
  -6   7  -2 312.787 30.5654   3
  -6   7  -2 232.502 26.9412   7
   6   7   2 280.524 25.9087   1
  -6   7  -2 311.785 27.4271   1
  -6   7  -2 266.199 27.0570   5
   7  -7   2 58.0623 7.05620   7
   7  -7   2 59.9975 7.83600   1
  -7  -7  -2 64.7685 6.09629   8
  -7   7  -2 54.1254 7.94543   3
  -7   7  -2 63.7171 8.33342   5
   7   7   2 62.4379 6.70061   1
  -7   7  -2 42.3163 7.63627   7
  -8  -7  -2 257.825 23.2566   8
   8  -7   2 261.666 24.2459   7
   8  -7   2 222.186 24.6512   1
  -8   7  -2 291.406 25.6287   7
  -8   7  -2 275.780 28.3273   3
  -8   7  -2 244.779 24.9968   5
   8   7   2 250.330 23.6896   1
   9  -7   2 7.48125 2.31677   5
   9  -7   2 7.83819 3.44761   1
  -9  -7  -2 5.42690 1.99895   8
  -9   7  -2 6.71772 3.87001   5
  -9   7  -2 9.08648 3.38580   7
 -10  -7  -2 237.857 19.4425   8
  10  -7   2 228.396 19.5392   5
  10  -7   2 163.440 20.3314   1
 -10   7  -2 197.546 20.8055   7
 -11  -7  -2 59.5668 6.17287   8
  11  -7   2 51.2054 7.55498   1
  11  -7   2 56.3789 6.14314   5
 -10  -8   2 3.59216 1.10847   8
  10  -8  -2 3.64236 3.24867   1
  10  -8  -2 14.1629 2.36395   5
  -9  -8   2 23.3618 2.54307   8
   9  -8  -2 17.5564 4.75739   1
  -9   8   2 17.5304 4.49548   7
  -9   8   2 17.7308 5.07533   5
   8  -8  -2 453.656 43.4427   1
   8  -8  -2 477.679 42.6033   7
  -8  -8   2 503.344 41.0554   8
  -8   8   2 426.860 43.6278   7
  -8   8   2 451.324 43.5732   5
   7  -8  -2 23.6733 4.48350   7
  -7  -8   2 29.2429 2.94976   8
   7  -8  -2 23.0675 5.14992   1
  -7   8   2 32.5430 5.95408   7
  -7   8   2 27.3239 5.99161   5
   6  -8  -2 15.9487 3.84930   7
   6  -8  -2 23.3358 5.02345   1
  -6  -8   2 18.2236 2.14787   8
  -6   8   2 21.9176 4.98335   7
  -6   8   2 14.6247 4.60460   5
  -5  -8   2 30.9978 3.24018   8
   5  -8  -2 28.9485 4.99220   7
   5  -8  -2 35.3910 6.19166   1
   5   8  -2 31.6192 4.42586   1
  -5   8   2 25.7034 5.71364   7
  -5   8   2 36.8010 6.36981   5
  -5   8   2 28.9707 5.54094   1
   4  -8  -2 728.192 71.5920   7
  -4  -8   2 887.169 69.5479   8
   4  -8  -2 845.071 71.4306   1
   4  -8  -2 846.668 73.9413   9
   4  -8  -2 751.676 75.8292   4
   4   8  -2 830.083 70.6035   1
  -4   8   2 771.261 72.2597   7
  -4   8   2 779.509 71.6563   5
  -4   8   2 678.900 71.4855   1
   3  -8  -2 14.9509 3.56491   1
   3  -8  -2 17.6333 3.36978   4
   3  -8  -2 16.1982 3.84180   7
  -3  -8   2 17.8751 2.33792   8
  -3   8   2 16.7198 4.33435   5
   3   8  -2 17.7580 3.37142   1
  -3   8   2 16.7722 4.49271   7
  -3   8   2 17.6585 4.56707   1
  -3   8   2 14.0068 2.46783   9
  -2  -8   2 15.4561 2.21484   8
   2  -8  -2 21.0741 3.61149   1
   2  -8  -2 13.2733 2.75883   4
  -2   8   2 10.7684 3.86967   5
  -2   8   2 19.3728 4.58575   7
   2   8  -2 11.6408 2.81145   1
  -2   8   2 15.0880 3.95183   1
  -2   8   2 11.3475 2.12408   9
   1  -8  -2 26.8362 3.92686   4
   1   8  -2 25.5372 4.24037   1
  -1   8   2 25.1912 3.27221   9
  -1   8   2 33.8743 5.65183   7
  -1   8   2 22.5109 4.98014   1
   1   8  -2 31.1340 3.13303   5
  -1   8   2 21.5749 4.76277   5
   0  -8  -2 872.896 77.6318   4
   0   8   2 739.664 73.0441   5
   0   8   2 896.881 74.1689   7
   0   8  -2 799.517 72.8980   1
   0   8  -2 888.415 79.8452  10
   0   8  -2 847.269 80.1142  10
   0   8  -2 709.544 72.0973   5
   0   8   2 774.746 80.9965  10
   0   8   2 835.727 74.9988   9
   1  -8   2 2.85629 1.88438   7
  -1   8  -2 2.09910 1.92751   5
  -1   8  -2 1.90990 2.20389   1
  -1   8  -2 2.73080 0.93811   9
   1   8   2 5.88006 2.65932   1
   1   8   2 2.51775 2.24076  10
   1   8   2 3.74012 2.49327   5
   1   8   2 2.36742 2.48742   7
   1   8   2 1.01624 1.24787  10
  -1   8  -2 -1.2945 1.82297   6
  -1   8  -2 2.03237 2.14842   7
  -1   8  -2 2.75165 2.25963  10
   2  -8   2 3.88020 2.29393   7
  -2  -8  -2 0.77152 1.33174   8
   2   8   2 3.14920 1.61345  10
  -2   8  -2 0.55721 2.25942   1
  -2   8  -2 15.6298 3.39761   7
  -2   8  -2 4.43027 1.22736   9
   2   8   2 6.94340 2.31598   5
  -2   8  -2 3.08924 2.23373   5
   2   8   2 1.93784 2.41790   1
  -2   8  -2 5.01835 2.45130   6
   2   8   2 6.86261 1.36072  10
   3  -8   2 12.3784 3.23502   1
   3  -8   2 6.35998 2.85305   7
  -3  -8  -2 8.47020 1.78852   8
  -3   8  -2 10.9113 3.54307   1
   3   8   2 6.21960 2.76419   1
  -3   8  -2 7.75585 2.82729   7
  -3   8  -2 7.43148 2.95019   5
  -3   8  -2 7.74168 1.80828   9
   4  -8   2 460.582 39.6650   7
  -4  -8  -2 393.581 37.6048   8
   4  -8   2 432.671 39.0755   1
  -4   8  -2 387.628 39.2555   7
  -4   8  -2 367.815 38.8427   5
   4   8   2 494.465 38.9270   1
  -4   8  -2 452.820 39.5840   9
  -4   8  -2 419.665 39.4480   9
   5  -8   2 8.54333 3.01205   7
   5  -8   2 9.42013 2.53037   9
  -5  -8  -2 7.70479 1.70576   8
  -5   8  -2 4.59250 2.69469   5
  -5   8  -2 7.26350 2.44293   3
  -5   8  -2 8.06576 3.26020   7
  -5   8  -2 11.0376 3.91543   1
   5   8   2 7.96119 2.64939   1
  -6  -8  -2 26.3059 3.18081   8
   6  -8   2 29.8639 4.64115   7
   6  -8   2 23.0276 4.53714   1
  -6   8  -2 19.6494 4.54132   7
  -6   8  -2 25.4012 5.12195   1
  -6   8  -2 22.9815 4.29617   3
  -6   8  -2 25.4757 5.05517   5
   6   8   2 28.9035 4.30571   1
  -7  -8  -2 1.27325 1.19710   8
   7  -8   2 3.00454 2.43362   1
   7  -8   2 1.19199 2.06356   7
  -7   8  -2 4.62778 2.31612   3
   7   8   2 2.63318 2.03960   1
  -7   8  -2 0.57461 2.33897   7
  -7   8  -2 0.51909 2.51642   5
   8  -8   2 134.750 14.3182   1
   8  -8   2 112.606 13.5537   7
   8   8   2 131.661 13.2474   1
  -8   8  -2 154.441 14.8131   5
  -8   8  -2 166.596 15.0420   7
  -9  -8  -2 36.1174 4.11670   8
   9  -8   2 33.0459 5.23148   7
   9  -8   2 27.1645 5.58564   1
  -9   8  -2 42.9220 6.50463   5
  -9   8  -2 37.6574 6.08602   7
 -10  -8  -2 44.5679 4.93193   8
  10  -8   2 42.6489 6.59846   1
  10  -8   2 42.2630 5.50073   5
 -10   8  -2 53.9799 7.57337   5
  -9  -9   2 287.214 24.3214   8
   9  -9  -2 244.408 26.4640   1
  -9   9   2 281.239 26.6801   5
   8  -9  -2 190.063 20.1025   1
  -8  -9   2 232.624 17.9694   8
   8  -9  -2 178.351 19.2854   7
  -8   9   2 177.562 20.0920   7
  -8   9   2 199.073 20.3787   5
   7  -9  -2 13.2688 3.77354   1
   7  -9  -2 16.6183 3.58395   7
  -7  -9   2 11.6042 1.65299   8
  -7   9   2 13.7676 4.21855   5
  -7   9   2 8.34540 3.62735   7
   6  -9  -2 141.288 14.6119   7
  -6  -9   2 145.664 12.8257   8
   6  -9  -2 125.641 14.6247   1
   6   9  -2 144.700 13.9372   1
  -6   9   2 164.489 15.7021   7
  -6   9   2 133.416 15.2468   5
   5  -9  -2 297.641 32.2161   7
   5  -9  -2 381.924 32.6771   1
  -5  -9   2 368.960 30.6917   8
  -5   9   2 274.794 32.4622   1
  -5   9   2 403.630 33.2895   5
   5   9  -2 355.690 31.5842   1
  -5   9   2 357.991 33.2265   7
   4  -9  -2 320.486 28.7596   1
   4  -9  -2 287.999 28.7587   7
  -4   9   2 310.542 29.4563   7
   4   9  -2 298.951 28.0758   1
  -4   9   2 317.873 29.2658   5
   3  -9  -2 12.7120 3.31709   1
   3  -9  -2 18.1245 3.05760   4
  -3  -9   2 19.9695 2.42329   8
   3  -9  -2 18.9242 3.36191   7
  -3   9   2 16.2795 4.22063   7
  -3   9   2 14.6735 4.26957   5
   3   9  -2 13.9707 3.28940   1
  -3   9   2 10.9783 3.88430   1
   2  -9  -2 244.975 23.0337   4
   2  -9  -2 224.413 21.4934   7
  -2  -9   2 232.174 20.8195   8
  -2   9   2 260.035 22.7726   5
   2   9  -2 243.964 21.7417   1
  -2   9   2 183.129 22.1104   1
  -2   9   2 235.050 22.8309   7
  -1  -9   2 363.448 36.1971   7
  -1   9   2 403.823 37.2996   5
   1   9  -2 450.940 36.6289   1
  -1   9   2 404.517 37.7675   7
   0  -9   2 314.407 29.7196   7
   0   9  -2 321.826 32.3573  10
   0   9   2 328.876 33.4153  10
   0   9   2 287.304 30.4452   1
   0   9   2 362.987 30.6257   5
   0   9  -2 364.007 30.0450   1
   0   9  -2 306.894 29.2939   5
   0   9   2 354.358 31.0540   7
   1  -9   2 23.0411 3.61715   7
  -1   9  -2 30.7635 4.34550  10
   1   9   2 26.1306 4.03481  10
   1   9   2 21.2667 4.04127   5
  -1   9  -2 27.8106 4.19731   1
   1   9   2 25.9352 3.40110  10
  -1   9  -2 32.2931 4.10465   5
   1   9   2 22.7392 4.55534   1
   2  -9   2 227.120 24.0565   7
  -2   9  -2 257.813 24.1137   5
  -2   9  -2 262.142 24.2298   1
   2   9   2 291.080 24.7304   1
   2   9   2 268.398 23.6475   5
   3  -9   2 304.580 29.7316   7
   3   9   2 332.086 29.6972   1
  -3   9  -2 325.128 29.5284   1
  -3   9  -2 314.541 29.8501   7
   4  -9   2 274.641 27.3087   7
  -4  -9  -2 312.740 25.6741   8
  -4   9  -2 311.302 27.0452   1
  -4   9  -2 292.604 26.9031   5
  -4   9  -2 262.385 27.0992   7
   4   9   2 261.653 26.6571   1
   5  -9   2 34.4229 5.54251   1
   5  -9   2 39.7936 5.78994   7
  -5  -9  -2 36.4782 3.84965   8
  -5   9  -2 37.6818 5.59458   1
  -5   9  -2 30.7941 5.41497   5
   5   9   2 31.0677 4.92879   1
  -5   9  -2 28.7442 5.30744   7
  -6  -9  -2 262.746 23.6320   8
   6  -9   2 242.319 25.0609   7
   6  -9   2 232.022 25.0350   1
  -6   9  -2 313.774 25.6001   1
  -6   9  -2 265.512 25.1950   5
   6   9   2 259.236 24.5087   1
  -6   9  -2 290.187 25.6348   7
  -7  -9  -2 300.652 24.1876   8
   7  -9   2 273.433 25.9452   1
   7  -9   2 222.537 25.3853   7
  -7   9  -2 300.117 26.0369   5
   7   9   2 253.750 24.8473   1
  -7   9  -2 273.665 26.1155   7
   8  -9   2 185.935 19.3382   7
   8  -9   2 179.958 19.6123   1
   8   9   2 200.633 18.7698   1
  -8   9  -2 204.124 19.8206   5
  -8   9  -2 229.161 20.0855   7
   9  -9   2 30.4384 5.94198   1
  -9  -9  -2 39.2684 4.27796   8
  -9   9  -2 46.5513 6.69571   5
  -8 -10   2 70.9733 6.71711   8
   8 -10  -2 69.7984 8.90046   1
   8 -10  -2 70.5917 8.70140   7
  -8  10   2 77.0004 9.25066   5
   7 -10  -2 32.2983 5.14266   7
  -7 -10   2 35.8741 3.55494   8
   7 -10  -2 32.5380 5.50527   1
  -7  10   2 31.4425 5.65245   7
  -7  10   2 30.7104 5.67606   5
   6 -10  -2 55.9163 8.19145   1
  -6 -10   2 72.4903 6.60586   8
   6 -10  -2 65.7907 8.32559   7
  -6  10   2 83.0256 9.29218   7
  -6  10   2 75.6271 9.18178   5
   5 -10  -2 16.1528 3.61969   7
   5 -10  -2 25.2843 4.22079   1
  -5 -10   2 17.0277 2.18732   8
   5  10  -2 16.8141 3.22931   1
  -5  10   2 15.6943 4.35005   1
  -5  10   2 18.0818 4.35630   5
  -5  10   2 13.0814 3.88651   7
  -4 -10   2 131.849 11.6758   8
   4 -10  -2 113.597 12.6246   7
  -4  10   2 151.573 14.1523   1
  -4  10   2 120.156 13.5225   5
  -4  10   2 130.904 13.8959   7
  -3 -10   2 24.3520 2.76336   8
   3 -10  -2 18.5639 3.23497   7
  -3  10   2 16.1808 4.23368   5
  -3  10   2 20.6706 4.64546   1
  -3  10   2 23.0326 4.65543   7
   3  10  -2 27.9259 4.12390   1
   2 -10  -2 54.0400 6.38665   7
  -2 -10   2 57.4598 6.02275   7
  -2  10   2 67.0841 7.80277   5
  -2  10   2 61.2810 7.92129   7
   2  10  -2 63.1248 6.83306   1
  -2  10   2 56.0996 7.67862   1
  -1 -10   2 36.6770 4.12584   7
  -1  10   2 27.8961 5.21340   5
  -1  10   2 31.1204 5.39289   1
  -1  10   2 35.5508 5.70799   7
   1  10  -2 40.2081 4.84308   1
   0 -10   2 84.5105 9.76262   7
   0  10  -2 105.168 10.3254   1
   0  10   2 104.809 10.7317   5
   0  10  -2 118.916 9.66251   5
   0  10   2 97.7225 10.9097   1
   1 -10   2 6.63025 1.71566   7
   1  10   2 4.70962 2.79563   1
  -1  10  -2 8.09196 1.99313   5
  -1  10  -2 6.61312 2.22991   1
   1  10   2 7.44995 2.23006   5
   2 -10   2 28.8759 4.05236   7
   2  10   2 33.3168 5.13656   1
  -2  10  -2 37.9438 4.72294   1
  -2  10  -2 27.7437 4.29396   5
   3 -10   2 38.8013 5.02378   7
  -3  10  -2 38.5507 5.14988   1
   3  10   2 30.9730 5.15164   1
  -3  10  -2 38.9090 5.19956   5
  -3  10  -2 33.1794 5.10674   7
   4 -10   2 18.7537 3.73846   7
  -4  10  -2 18.9183 3.72431   7
  -4  10  -2 18.2837 3.76636   5
  -4  10  -2 15.4762 3.47017   1
   4  10   2 16.4470 3.68047   1
   5 -10   2 0.22557 2.22473   7
   5  10   2 -0.7273 2.01423   1
  -5  10  -2 -0.3551 2.14031   5
  -5  10  -2 0.44019 2.11775   1
  -5  10  -2 1.96021 2.13895   7
  -6 -10  -2 11.7961 1.76668   8
   6 -10   2 9.20277 2.93750   7
  -6  10  -2 8.24577 3.11653   7
  -6  10  -2 7.51635 3.17259   5
   6  10   2 6.09197 2.48043   1
  -6  10  -2 6.00712 2.78002   1
  -7 -10  -2 8.23271 1.51581   8
   7 -10   2 8.48866 2.73725   7
   7 -10   2 6.59215 3.13675   1
   7  10   2 6.60222 2.41964   1
  -7  10  -2 9.84472 3.24417   7
  -7  10  -2 6.93573 3.20345   5
  -8 -10  -2 3.68826 1.35254   8
   8 -10   2 3.39501 2.54110   1
  -8  10  -2 4.38278 3.00607   5
  -6 -11   2 166.442 14.6477   8
  -6  11   2 155.654 16.3118   5
  -5 -11   2 264.865 23.9252   8
   5 -11  -2 231.514 25.0208   7
  -5  11   2 253.337 25.6906   1
  -5  11   2 270.367 25.5724   5
  -5  11   2 279.221 25.9031   7
   5  11  -2 322.884 24.9919   1
   4 -11  -2 174.790 15.8908   7
  -4  11   2 161.582 16.7183   7
  -4  11   2 164.933 16.5485   5
  -4  11   2 162.225 16.8061   1
   3 -11  -2 47.8373 5.10126   7
  -3  11   2 37.1563 6.16370   1
  -3  11   2 39.9132 6.06309   5
  -3  11   2 40.9753 6.11285   7
   2 -11  -2 265.852 27.3783   7
  -2 -11   2 332.917 27.4197   7
  -2  11   2 280.730 27.8540   5
  -2  11   2 280.102 28.1517   1
   2  11  -2 345.872 27.6718   1
   1 -11  -2 348.886 32.7987   7
  -1 -11   2 326.984 32.5033   7
  -1  11   2 343.566 32.9580   5
  -1  11   2 394.425 33.5428   1
   1  11  -2 410.748 32.8918   1
   0 -11   2 324.220 29.7566   7
   0  11   2 331.826 29.9097   5
   0  11  -2 330.558 29.9719   1
   0  11   2 334.992 30.5689   1
   1 -11   2 50.5260 5.70010   7
   1  11   2 46.5272 6.78652   1
  -1  11  -2 55.9831 6.26077   1
  -1  11  -2 60.0308 5.70188   5
   2 -11   2 237.626 24.2872   7
  -2  11  -2 252.509 24.4508   1
  -2  11  -2 302.190 24.3183   5
   2  11   2 277.002 25.0578   1
   3 -11   2 337.186 36.5752   7
  -3  11  -2 430.840 36.7891   1
  -3  11  -2 429.619 36.5930   5
   3  11   2 433.011 37.1214   1
   4 -11   2 322.150 30.2806   7
  -4  11  -2 366.757 30.7834   7
  -4  11  -2 314.467 30.2208   1
  -4  11  -2 289.642 30.0229   5
   4  11   2 365.846 30.5588   1
   5 -11   2 41.6716 5.76262   7
  -5  11  -2 51.5098 6.26262   7
  -5  11  -2 50.4975 6.09151   1
   5  11   2 34.1226 5.49037   1
  -5  11  -2 42.1423 5.83227   5
  -6  11  -2 102.082 11.0302   1
  -6  11  -2 109.502 11.0793   5
   6  11   2 103.068 10.6273   1
  -3  12   2 136.306 14.0894   1
  -3  12   2 111.185 13.2080   5
   3  12  -2 163.643 13.2770   1
   2  12  -2 163.981 14.2098   1
  -2  12   2 146.480 14.2233   5
  -2  12   2 130.914 14.7561   1
  -1 -12   2 13.2578 2.15246   7
   1 -12  -2 13.5546 2.47048   7
   1  12  -2 13.8549 2.72230   1
  -1  12   2 14.2457 2.66742   5
  -1  12   2 12.0660 3.41789   1
   0 -12  -2 39.7566 4.73361   7
   0 -12   2 41.1981 4.48922   7
   0  12  -2 43.4310 5.09632   1
   0  12   2 35.3222 5.57120   1
   1 -12   2 38.9750 4.69454   7
  -1  12  -2 51.5438 5.36363   1
   1  12   2 36.3566 5.63209   1
  -2  12  -2 85.8598 9.20280   5
   2  12   2 110.031 10.4486   1
  -2  12  -2 100.148 9.77216   1
  -3  12  -2 4.54424 2.09859   1
   3  12   2 -0.9514 2.03346   1
  -3  12  -2 -0.5119 1.62173   5
 -13   0   3 3.38044 1.68166   8
  12   0  -3 2.49591 1.82174   6
 -12   0   3 0.56030 1.74994   8
 -11   0   3 5.28540 1.98386   8
  11   0  -3 2.11664 2.12873   6
 -10   0   3 3.05936 1.58445   8
  10   0  -3 0.65631 1.93509   6
  10   0  -3 2.10696 2.38018   1
   9   0  -3 2.43672 2.17687   1
  -9   0   3 1.96662 1.27407   8
   9   0  -3 1.48618 1.94651   6
   8   0  -3 2.16054 2.34251   1
  -8   0   3 0.51813 0.95008   8
   8   0  -3 1.10113 2.12966   6
  -7   0   3 1.66468 0.85402   8
   7   0  -3 3.54780 2.14710   1
  -7   0   3 0.73924 1.09743   8
   7   0  -3 2.26406 2.28110   6
  -6   0   3 2.72676 0.85591   8
  -6   0   3 4.35975 2.55102   7
   6   0  -3 2.08494 2.63195   6
   6   0  -3 9.31489 2.75594   1
   6   0  -3 4.11773 1.30225   2
  -6   0   3 2.91617 1.11641   8
  -6   0   3 2.73685 1.13118   2
   6   0  -3 2.59546 2.44081   6
   5   0  -3 0.16668 0.80641   2
  -5   0   3 2.63578 0.82493   2
   5   0  -3 9.75546 2.56047   6
   5   0  -3 7.32870 2.46961   6
  -5   0   3 8.12070 2.10273   7
  -5   0   3 3.66972 0.72890   8
  -5   0   3 1.90873 0.55961   8
  -4   0   3 4.91827 0.91413   8
   4   0  -3 3.58451 1.20643   2
  -4   0   3 6.82029 1.58857   7
   4   0  -3 7.89795 2.41506   6
  -4   0   3 5.83258 1.23328   2
  -4   0   3 10.8788 2.73278   3
  -3   0   3 1.74445 0.52286   2
   3   0  -3 10.9680 2.27736   6
  -3   0   3 10.2494 2.79709   3
  -3   0   3 3.30647 0.47132   8
   3   0  -3 2.78295 0.69093   2
   2   0  -3 22.2167 4.46159   6
  -1   0   3 4.43333 0.57023   2
  -1   0   3 1.49850 1.27604   9
  -1   0   3 3.15320 0.70246  10
   1   0  -3 3.47894 0.52672   2
  -1   0   3 13.1064 2.62372  10
   1   0  -3 6.60091 1.73749  10
   1   0  -3 2.00666 0.54882  10
   1   0  -3 3.49002 1.42329   6
   0   0  -3 16.9168 2.33528   9
   0   0  -3 15.4710 2.89189   6
   0   0   3 14.3972 2.55774  10
   0   0   3 15.0736 3.92814   9
   0   0   3 11.4666 2.31086   2
   0   0  -3 11.7712 2.27089   2
   0   0  -3 7.52344 3.50290  10
  -1   0  -3 3.88746 1.57060   7
   1   0   3 -1.1284 1.10842  10
  -1   0  -3 5.05735 1.59855   6
  -1   0  -3 2.81719 2.77881   9
  -1   0  -3 2.62663 1.98415  10
   1   0   3 2.41810 0.64040   9
  -1   0  -3 2.51955 0.72248   9
   1   0   3 11.6420 2.94085   9
  -1   0  -3 2.08196 0.73918   2
   1   0   3 2.18863 0.77446  10
   1   0   3 2.01711 0.74268   2
   1   0   3 3.09599 0.82674   7
  -2   0  -3 8.88488 1.97316  10
   2   0   3 3.05924 1.60892   9
   2   0   3 13.0488 4.05159  10
  -2   0  -3 8.43163 1.78089   9
  -2   0  -3 9.31963 3.94070  10
  -2   0  -3 3.63717 3.21805   9
  -2   0  -3 8.98101 1.90418   2
   2   0   3 4.69685 1.84152   2
   3   0   3 8.18274 4.01085  10
   3   0   3 2.70983 2.12254   9
   3   0   3 1.19819 0.72085  10
  -3   0  -3 0.70857 0.68653   9
   3   0   3 3.97318 0.87535   5
   3   0   3 7.24455 1.22876   2
  -3   0  -3 0.70589 0.81592  10
   3   0   3 0.58469 0.75106   7
  -3   0  -3 1.83602 2.17966   6
  -3   0  -3 2.60098 0.70554   8
  -3   0  -3 8.23758 2.63281   7
  -3   0  -3 4.82202 1.22198   2
   3   0   3 2.08567 0.67972   9
   4   0   3 6.53681 3.70316  10
   4   0   3 1.86315 1.40701   2
  -4   0  -3 7.56105 3.60491  10
  -4   0  -3 6.70088 3.07242   7
   4   0   3 0.92515 1.17928   7
   4   0   3 5.47999 1.78483   9
  -4   0  -3 2.51219 1.27457   9
   4   0   3 4.28851 1.16386   9
   4   0   3 1.64813 1.21877  10
   4   0   3 1.54183 1.32286   1
  -5   0  -3 0.62716 0.77575   9
   5   0   3 1.57658 0.86558   7
   5   0   3 11.7011 3.28964  10
   5   0   3 2.27395 0.78318  10
  -5   0  -3 3.67885 2.70367   7
   5   0   3 1.05139 1.02856   1
   5   0   3 2.03437 1.12052   1
   5   0   3 2.90347 0.83391   5
   5   0   3 0.90753 0.95542   2
   6   0   3 3.57870 1.56722  10
  -6   0  -3 0.67005 0.93043   8
   6   0   3 0.59966 1.13641   2
   6   0   3 2.45435 0.98879   7
   6   0   3 0.35406 1.20094   1
   6   0   3 -0.5433 0.69960   5
  -6   0  -3 7.51411 3.21676   7
   6   0   3 -0.1267 0.73961  10
  -7   0  -3 11.1521 3.42538   7
   7   0   3 2.17911 0.76845   5
  -7   0  -3 1.73800 1.02165   8
   7   0   3 2.03789 1.27681   1
   8   0   3 1.83285 1.58426   1
  -8   0  -3 2.27482 2.29661   7
  -8   0  -3 4.56700 1.38076   8
  -9   0  -3 0.13980 2.27814   7
   9   0   3 1.12313 1.65106   1
  -9   0  -3 2.73641 1.48471   8
  10   0   3 0.60491 1.59284   1
 -10   0  -3 0.51899 1.44455   8
 -11   0  -3 0.70246 1.78145   8
  11   0   3 4.32517 2.18516   1
 -12   0  -3 0.72595 1.91889   8
  12   0   3 0.65670 1.97394   1
 -13   0  -3 2.62445 1.93689   8
  13   0   3 0.96074 2.22374   1
 -13  -1   3 49.8218 5.99608   8
 -13   1   3 60.5494 6.80555   8
 -12  -1   3 1016.98 89.3262   8
  12  -1  -3 921.381 90.3172   1
 -12   1   3 1134.52 89.7954   8
  12   1  -3 990.135 92.0504   6
  11  -1  -3 110.704 13.6142   6
  11  -1  -3 127.700 13.6640   1
 -11  -1   3 151.785 12.7953   8
  11   1  -3 122.205 13.1946   6
 -11   1   3 164.087 13.3396   8
 -10  -1   3 71.8525 6.25179   8
  10  -1  -3 56.7850 7.49680   1
  10  -1  -3 56.6731 7.51333   6
  10   1  -3 59.2894 6.86818   6
 -10   1   3 57.0958 6.58941   8
   9  -1  -3 26.2494 5.05756   6
   9  -1  -3 33.6038 5.66006   1
  -9  -1   3 36.4232 3.80675   8
  -9   1   3 38.5226 4.48253   8
   9   1  -3 46.1780 4.95588   6
  -8  -1   3 2641.62 218.104   8
   8  -1  -3 2347.57 220.068   1
  -8  -1   3 2429.87 217.700   8
   8  -1  -3 2368.30 226.051   6
  -8   1   3 2703.76 218.262   8
  -7  -1   3 259.469 26.4057   8
  -7  -1   3 299.302 26.3092   8
   7  -1  -3 328.512 28.6327   1
   7  -1  -3 356.725 29.4020   6
  -7   1   3 324.652 28.7303   7
  -7   1   3 291.467 26.8190   8
   7   1  -3 293.955 26.9788   1
   6  -1  -3 652.944 58.8420   1
   6  -1  -3 609.229 58.7278   2
  -6  -1   3 601.381 58.8209   2
   6  -1  -3 704.615 60.5068   6
   6   1  -3 578.678 59.2724   6
   6   1  -3 689.618 59.1029   2
  -6   1   3 731.841 59.4798   7
  -6   1   3 693.954 58.9673   2
  -6   1   3 637.150 57.2546   8
   5  -1  -3 5.83170 2.86284   6
   5  -1  -3 9.04253 3.23623   1
   5  -1  -3 7.05550 3.57243   6
   5  -1  -3 9.56706 1.22619   2
  -5  -1   3 7.60080 1.31911   2
  -5   1   3 5.14700 1.29311   2
  -5   1   3 8.72482 3.35887   3
  -5   1   3 4.82310 1.25053   8
   5   1  -3 6.01012 1.67960   6
  -5   1   3 5.79189 1.30429   8
   5   1  -3 5.36962 1.55749   2
  -5   1   3 2.70691 2.42803   7
   4  -1  -3 6261.50 512.570   7
  -4  -1   3 5706.83 522.853   2
   4  -1  -3 6093.34 524.311   6
   4  -1  -3 6607.41 524.635   6
   4  -1  -3 5616.17 522.564   2
   4   1  -3 5853.17 522.462   2
  -4   1   3 5456.04 522.237   2
  -4   1   3 6670.19 597.791   3
  -4   1   3 4954.16 512.775   7
  -4   1   3 5089.57 530.660   9
   3  -1  -3 272.033 22.5514   7
   3  -1  -3 237.712 24.4021  10
   3  -1  -3 237.819 22.5766   2
   3  -1  -3 265.192 24.0649   6
  -3  -1   3 256.658 22.7335   2
   3  -1  -3 236.379 24.4211  10
  -3   1   3 252.511 23.1847   9
  -3   1   3 263.664 22.3996   8
   3   1  -3 242.543 22.7865   6
  -3   1   3 248.877 22.6821   7
  -2  -1   3 2101.18 190.282   2
   2  -1  -3 1846.73 205.638  10
   2  -1  -3 2074.37 189.986   2
   2  -1  -3 2361.78 205.777  10
   2  -1  -3 2000.66 193.012   9
   2   1  -3 2044.61 190.542   6
  -2   1   3 2346.20 205.698  10
  -2   1   3 2147.75 185.146   8
   1  -1  -3 31.1334 3.42199   9
  -1  -1   3 35.8169 3.75568  10
   1  -1  -3 29.5590 3.76344  10
   1  -1  -3 42.5345 4.18801   9
   1  -1  -3 40.0928 5.46195  10
   1  -1  -3 39.2155 5.27022   6
   1  -1  -3 30.8025 3.56751   2
  -1  -1   3 36.7430 3.82495   2
  -1   1   3 30.3178 3.51525   7
  -1   1   3 38.0658 4.75173   9
  -1   1   3 44.1881 5.87225  10
  -1   1   3 25.3127 3.77348  10
   1   1  -3 33.4518 3.63119   6
  -1   1   3 37.3890 3.55587   9
  -1   1   3 44.9744 5.05344   9
   0  -1   3 7467.82 687.323  10
   0  -1  -3 8066.79 687.163  10
   0  -1   3 6821.35 634.705   2
   0  -1   3 6984.64 644.698   9
   0  -1  -3 7664.65 634.813   2
   0  -1   3 6338.93 644.558   9
   0  -1   3 7313.24 686.278  10
   0  -1   3 8076.56 623.240   7
   0  -1  -3 6051.82 644.659   9
   0   1   3 6160.49 622.870   7
   0   1  -3 7078.34 634.922   2
   0   1  -3 7941.30 644.206   9
   0   1   3 6482.90 644.874   9
   0   1  -3 6455.54 636.268   6
   0   1   3 6056.67 685.871  10
   0   1  -3 8106.11 644.680   9
   0   1  -3 7055.23 686.065  10
  -1  -1  -3 6.26386 1.92929   6
   1  -1   3 6.31169 1.48456   2
  -1  -1  -3 12.0131 3.63083  10
  -1  -1  -3 10.9544 3.38615   9
  -1  -1  -3 9.80522 1.65264   2
  -1  -1  -3 11.3194 1.77489  10
  -1  -1  -3 10.1654 2.10116   7
  -1  -1  -3 8.59191 1.55646   9
   1  -1   3 10.0625 3.09897   9
   1  -1   3 7.38803 1.59609  10
   1  -1   3 6.64355 2.94922  10
   1  -1   3 11.3639 1.74110   7
   1   1   3 11.3917 1.77374  10
  -1   1  -3 15.7824 3.74895  10
  -1   1  -3 6.95251 1.53031   2
   1   1   3 7.61717 3.19480   9
   1   1   3 13.6448 1.63407   9
   1   1   3 10.5534 1.73644   2
   1   1   3 9.33150 2.79568  10
  -1   1  -3 14.9629 3.12997   7
  -1   1  -3 6.08851 2.07757   6
   1   1   3 9.91326 1.59485   7
  -1   1  -3 6.98657 2.56613   9
  -1   1  -3 12.6822 1.74743  10
  -1   1  -3 10.4330 1.53558   9
   2  -1   3 2197.89 186.287   2
   2  -1   3 2131.33 202.836  10
  -2  -1  -3 2420.52 183.137   7
  -2  -1  -3 1943.13 186.119   2
  -2  -1  -3 1885.93 189.013   9
  -2  -1  -3 2048.03 186.971   6
   2  -1   3 1930.54 201.152  10
  -2  -1  -3 2239.94 201.215  10
   2   1   3 1994.32 188.981   9
  -2   1  -3 2109.11 187.637   6
   2   1   3 1990.81 202.202  10
   2   1   3 1976.95 186.122   2
   2   1   3 2150.05 190.208   9
   2   1   3 1796.95 201.092  10
  -2   1  -3 2188.10 190.652   9
  -2   1  -3 1854.62 201.146  10
   2   1   3 2345.02 182.629   7
   3  -1   3 45.9467 4.77687   5
   3  -1   3 47.2283 4.93155   7
  -3  -1  -3 50.4759 6.59382  10
   3  -1   3 52.7201 7.06426   9
   3  -1   3 47.5887 4.83324   9
   3  -1   3 41.5109 4.88878   2
  -3  -1  -3 42.7622 5.03497   2
  -3  -1  -3 46.2542 4.60497   8
   3  -1   3 55.7364 8.27705  10
  -3  -1  -3 56.5283 5.01648   9
  -3  -1  -3 50.6495 5.63288   7
   3  -1   3 45.1782 5.23338  10
   3   1   3 52.5173 4.70903   5
  -3   1  -3 46.7808 5.29066  10
  -3   1  -3 48.7132 4.91451   9
   3   1   3 45.2779 5.13294  10
  -3   1  -3 58.8254 7.19323   6
   3   1   3 55.9098 4.80955   7
  -3   1  -3 41.6688 4.94468   2
   3   1   3 47.3290 5.06860   2
   3   1   3 49.7963 4.84113   9
  -3   1  -3 50.3597 8.93213  10
   3   1   3 43.1892 7.31077  10
  -3   1  -3 45.0101 6.87306   7
   3   1   3 56.2018 5.77845   9
  -4  -1  -3 5749.51 461.256   2
   4  -1   3 5137.88 467.343   9
   4  -1   3 5005.10 497.813  10
  -4  -1  -3 5472.33 467.529   9
   4  -1   3 4795.35 467.416   9
  -4  -1  -3 4660.89 446.754   8
   4  -1   3 5440.40 459.791   2
   4  -1   3 4617.71 451.164   7
  -4   1  -3 5832.32 461.495   2
   4   1   3 5368.78 497.485  10
   4   1   3 4662.50 447.086   5
  -4   1  -3 4691.56 467.312   9
  -4   1  -3 4580.22 446.588   8
  -4   1  -3 4821.88 497.077  10
   4   1   3 5229.50 451.455   7
  -4   1  -3 6003.04 452.541   7
  -5  -1  -3 6.12097 1.77945   2
   5  -1   3 7.60339 3.67266  10
  -5  -1  -3 5.09588 1.17249   8
   5  -1   3 7.71787 1.68112   1
   5  -1   3 8.59055 1.67741   9
   5  -1   3 6.68982 1.54930   2
   5  -1   3 8.66927 1.57444   7
  -5  -1  -3 10.0650 1.42952   9
  -5  -1  -3 7.01610 2.35491   7
   5  -1   3 6.35969 1.02913   9
   5  -1   3 3.75556 1.17133   5
   5  -1   3 6.41532 1.32730  10
  -5   1  -3 3.71056 1.25314   9
   5   1   3 6.83480 1.67699   2
   5   1   3 8.26465 2.22276  10
   5   1   3 5.28327 1.08341   5
  -5   1  -3 8.91724 4.61237  10
   5   1   3 5.77871 1.49346   1
  -5   1  -3 5.29099 2.56312   7
  -5   1  -3 11.7025 3.53845   5
  -5   1  -3 11.1051 1.57409   8
   5   1   3 6.17303 1.28901  10
  -5   1  -3 7.23414 1.68319   2
   5   1   3 6.65797 1.20209   7
   6  -1   3 788.556 73.6305   1
  -6  -1  -3 730.598 72.9528   8
   6  -1   3 863.147 81.1764  10
   6  -1   3 838.193 75.4518   2
   6  -1   3 904.702 73.9155   7
   6   1   3 918.267 75.5493   2
   6   1   3 882.611 72.9283   5
  -6   1  -3 775.050 74.9335   7
   6   1   3 826.206 73.4992   1
  -6   1  -3 843.923 73.1430   8
  -6   1  -3 705.268 74.2360   5
   6   1   3 899.859 73.6789   7
   7  -1   3 4.07444 1.22716   7
   7  -1   3 3.13687 0.91614  10
  -7  -1  -3 3.29066 1.04386   8
   7  -1   3 1.84742 1.26847  10
   7  -1   3 4.19253 1.08698   5
  -7  -1  -3 3.75261 2.30667   7
   7  -1   3 2.92641 1.56537   1
   7   1   3 6.47049 1.58665   1
  -7   1  -3 6.91861 2.73436   7
  -7   1  -3 3.42517 1.26082   8
   7   1   3 5.48154 1.57160   1
   8  -1   3 3094.69 275.469   1
   8  -1   3 2938.42 274.105   5
  -8  -1  -3 3486.68 278.044   7
  -8  -1  -3 3136.74 274.058   8
  -8   1  -3 3287.34 274.228   8
   8   1   3 2943.53 275.308   1
  -9  -1  -3 23.1697 3.19833   8
   9  -1   3 25.9986 3.84890   1
  -9   1  -3 30.6945 5.50581   7
  -9   1  -3 25.1372 3.52231   8
   9   1   3 26.0870 3.61815   1
  10  -1   3 227.331 21.4676   1
 -10  -1  -3 255.147 21.0131   8
  10   1   3 199.993 21.1147   1
 -10   1  -3 229.405 22.7068   7
 -10   1  -3 239.965 21.2239   8
 -11  -1  -3 13.5517 2.62376   8
  11  -1   3 10.4120 2.95224   1
  11   1   3 14.2191 2.83363   1
 -11   1  -3 15.0841 3.05029   8
  12  -1   3 1283.48 128.966   1
 -12  -1  -3 1612.25 128.355   8
  12   1   3 1489.81 128.827   1
  13  -1   3 104.380 11.2207   1
 -13  -1  -3 107.259 10.9809   8
  13   1   3 116.129 11.1662   1
 -13  -2   3 93.3437 9.91809   8
  13  -2  -3 110.058 11.2401   1
 -13   2   3 116.893 11.2719   8
 -12  -2   3 33.6149 3.98264   8
  12  -2  -3 30.7770 5.16565   1
 -12   2   3 30.4797 4.75591   8
  12   2  -3 29.3216 3.93411   6
  11  -2  -3 221.266 20.5451   6
  11  -2  -3 201.279 20.0047   1
 -11   2   3 208.384 19.2474   8
  11   2  -3 192.905 19.1221   6
  10  -2  -3 18.8536 4.65124   1
  10  -2  -3 24.1905 4.78220   6
 -10  -2   3 30.3350 3.09514   8
  10   2  -3 35.7747 3.83609   6
 -10   2   3 20.3682 3.79525   8
   9  -2  -3 230.895 24.8975   1
  -9  -2   3 263.307 23.0501   8
   9  -2  -3 231.555 25.3587   6
  -9   2   3 305.877 23.9890   8
   8  -2  -3 9.37197 4.06980   1
   8  -2  -3 11.0660 3.71944   6
  -8   2   3 10.4088 3.84556   7
  -8   2   3 11.3140 2.35307   8
   7  -2  -3 596.411 52.3567   6
   7  -2  -3 579.760 51.0754   1
  -7   2   3 577.902 49.1865   8
  -7   2   3 511.181 51.0971   7
   7   2  -3 522.817 50.2020   6
  -6  -2   3 30.8391 3.47590   2
   6  -2  -3 32.7531 5.91610   1
   6  -2  -3 32.3221 5.59495   6
   6  -2  -3 31.2725 2.65677   5
   6  -2  -3 23.3117 2.90909   2
  -6   2   3 24.2901 5.56178   7
   6   2  -3 27.2996 3.90065   2
  -6   2   3 36.0922 6.69030   3
   6   2  -3 23.1886 2.79219   6
  -6   2   3 16.8987 3.15826   8
   5  -2  -3 725.310 63.7471   6
  -5  -2   3 681.336 61.7976   2
   5  -2  -3 672.888 66.4286  10
   5  -2  -3 633.627 66.4237  10
   5  -2  -3 796.933 62.2568   1
   5  -2  -3 755.186 60.6497   7
   5  -2  -3 590.748 61.5468   2
  -5   2   3 599.095 60.1356   8
  -5   2   3 747.093 62.5145   7
   5   2  -3 701.184 62.2774   2
   4  -2  -3 64.3912 6.14627  10
   4  -2  -3 52.7531 7.70824   4
   4  -2  -3 77.2450 8.16407   6
   4  -2  -3 55.0899 6.13524  10
  -4  -2   3 51.1651 5.91141   2
   4  -2  -3 56.7572 5.67342   2
   4  -2  -3 60.3249 5.98630   7
   4  -2  -3 60.6249 7.41652   1
  -4   2   3 70.0269 6.32636   8
  -4   2   3 85.8121 9.78487   3
  -4   2   3 51.3123 6.67035   7
  -4   2   3 52.1471 6.04380   9
  -3  -2   3 1010.22 85.7948   2
   3  -2  -3 1094.15 86.6978   9
   3  -2  -3 844.734 86.6003   9
   3  -2  -3 995.090 92.5523  10
   3  -2  -3 1045.25 90.9756   4
  -3   2   3 980.959 99.1908   3
  -3   2   3 828.504 92.6491  10
  -3   2   3 821.164 84.2670   7
  -3   2   3 923.856 87.1396   9
   2  -2  -3 5.24289 2.10544  10
   2  -2  -3 8.13083 1.79203  10
   2  -2  -3 8.54951 1.70633   9
   2  -2  -3 6.80899 3.06115   6
   2  -2  -3 9.83298 1.47341   9
  -2  -2   3 5.69236 1.74201   2
  -2   2   3 7.28266 1.90546   7
  -2   2   3 13.1143 2.51321   9
  -2   2   3 7.60602 1.78281  10
   2   2  -3 9.84722 1.49886   6
  -2   2   3 15.2320 3.84426  10
   1  -2  -3 1138.55 92.5540   2
   1  -2  -3 851.668 93.2446   9
   1  -2  -3 1108.83 100.410  10
  -1  -2   3 1023.73 93.2021   9
  -1  -2   3 1115.04 90.4066   7
   1  -2  -3 1077.43 92.9605   6
  -1  -2   3 1005.23 89.1501   8
   1  -2  -3 1105.91 93.8880   9
   1  -2  -3 929.322 99.3710  10
  -1   2   3 944.698 93.3369   9
  -1   2   3 922.066 90.3308   7
   0  -2  -3 387.853 38.4940  10
   0  -2   3 364.791 33.9883   7
   0  -2  -3 325.659 35.9545   9
   0  -2   3 379.274 35.4707   9
   0  -2  -3 370.261 35.0644   9
   0  -2   3 431.914 34.9268   2
   0  -2  -3 377.424 34.7369   2
   0  -2   3 404.261 37.4311  10
   0  -2   3 335.196 37.6090  10
   0   2  -3 331.757 35.0443   6
   0   2  -3 360.449 34.8443   9
   0   2   3 396.707 35.0836   9
   0   2   3 418.653 35.1695   2
   0   2   3 384.293 37.4757  10
   0   2   3 331.846 35.6927   9
   0   2  -3 381.175 37.8781  10
   0   2  -3 339.499 35.0371   9
   0   2  -3 438.919 39.6519   3
   0   2  -3 418.002 37.3788  10
   0   2  -3 384.233 34.4314   7
  -1  -2  -3 1066.66 93.9049   9
   1  -2   3 1146.37 91.9353   2
   1  -2   3 881.042 94.0678   9
  -1  -2  -3 994.706 92.4185   6
  -1  -2  -3 1144.68 99.2185  10
  -1  -2  -3 914.803 99.7110  10
   1  -2   3 1090.37 93.3269   9
  -1  -2  -3 1048.91 91.8847   2
   1   2   3 1053.27 94.1492   9
   1   2   3 912.253 90.0125   7
  -1   2  -3 964.605 99.1113  10
  -1   2  -3 1027.72 93.1061   9
   1   2   3 1075.64 93.1323   9
  -1   2  -3 893.997 90.4568   7
   1   2   3 911.667 99.8981  10
   1   2   3 933.906 91.8741   2
  -1   2  -3 1187.45 92.9462   6
  -2  -2  -3 40.0224 3.96075   8
  -2  -2  -3 35.7424 4.37265   2
  -2  -2  -3 46.0711 4.54824  10
   2  -2   3 41.6792 4.31476   2
   2  -2   3 42.4006 4.30427   7
  -2  -2  -3 38.4267 4.45625   7
  -2  -2  -3 41.1787 4.25045   9
   2  -2   3 33.0330 5.57462   9
  -2  -2  -3 40.7855 4.77538   6
   2  -2   3 33.8578 6.72824  10
  -2  -2  -3 41.2360 5.23408  10
   2  -2   3 38.7596 4.16069   9
  -2   2  -3 45.0124 6.52694   9
  -2   2  -3 37.6297 5.43769   6
  -2   2  -3 33.7702 4.17064   2
   2   2   3 29.8173 4.26638   2
   2   2   3 37.7194 5.44492   9
   2   2   3 37.2499 4.50471  10
   2   2   3 34.4523 5.62279  10
   2   2   3 40.2680 4.08177   5
  -2   2  -3 32.2050 5.30526   5
   2   2   3 27.3923 3.93363   7
   2   2   3 42.5932 4.12585   9
  -2   2  -3 37.0118 6.79021  10
  -2   2  -3 31.6339 5.16192   7
   2   2   3 39.4539 4.51459  10
  -2   2  -3 31.5346 4.07543   9
   3  -2   3 531.663 49.4381   9
  -3  -2  -3 518.511 46.7025   7
   3  -2   3 597.902 53.4667  10
  -3  -2  -3 509.670 48.0189   9
  -3  -2  -3 530.747 47.4686   2
   3  -2   3 472.445 51.0892  10
   3  -2   3 594.574 48.0349   9
  -3  -2  -3 494.764 45.8366   8
  -3  -2  -3 544.850 51.6327  10
  -3  -2  -3 471.454 50.2720   4
   3   2   3 532.647 47.9350   9
  -3   2  -3 558.645 51.2188  10
   3   2   3 552.560 46.3763   7
  -3   2  -3 459.577 47.9296   9
  -3   2  -3 586.614 47.4534   2
   3   2   3 456.625 51.0327  10
   3   2   3 482.780 45.8961   5
  -3   2  -3 596.280 53.8117  10
   3   2   3 527.864 47.7848   9
  -3   2  -3 460.877 47.5678   7
   3   2   3 460.747 51.8157  10
   3   2   3 542.227 47.5063   2
   4  -2   3 95.3746 10.5807  10
   4  -2   3 91.7557 9.87395   2
  -4  -2  -3 93.6197 10.0840   2
  -4  -2  -3 99.4177 10.0768   7
  -4  -2  -3 107.177 9.97620   9
   4  -2   3 111.518 9.92264   7
  -4  -2  -3 110.751 11.8050   4
  -4  -2  -3 109.561 9.47839   8
   4  -2   3 89.7800 9.87829   1
   4  -2   3 145.806 14.8378  10
   4  -2   3 103.558 11.1439   9
  -4   2  -3 101.477 10.7366  10
   4   2   3 94.9168 9.61663   1
   4   2   3 106.195 10.1285   2
   4   2   3 96.3189 9.41003   5
  -4   2  -3 137.035 12.7224   5
  -4   2  -3 112.052 11.7596   7
  -4   2  -3 131.562 14.3871  10
  -4   2  -3 85.3255 9.91014   9
   4   2   3 119.046 10.5264  10
   4   2   3 105.838 11.4343  10
   4   2   3 105.841 9.56141   7
  -4   2  -3 87.5109 9.92841   2
  -4   2  -3 116.490 9.64533   8
   5  -2   3 597.153 61.3154  10
   5  -2   3 569.556 58.0522   9
   5  -2   3 624.245 56.8787   2
   5  -2   3 654.156 57.4737   9
  -5  -2  -3 613.960 55.0180   8
   5  -2   3 678.871 55.3110   5
  -5  -2  -3 617.411 56.2276   7
   5  -2   3 734.219 55.9719   7
   5  -2   3 626.574 55.7240   1
  -5   2  -3 716.637 57.6722   7
  -5   2  -3 548.226 55.1243   8
  -5   2  -3 719.310 57.7484   5
  -5   2  -3 558.339 57.6556   9
   5   2   3 675.264 55.5704   7
   5   2   3 574.587 55.3674   1
   5   2   3 619.969 57.0503   2
   5   2   3 589.034 54.9615   5
   6  -2   3 128.048 11.5390   5
   6  -2   3 111.541 12.6039  10
   6  -2   3 113.730 11.8957   9
  -6  -2  -3 155.178 12.5068   7
   6  -2   3 117.064 11.6539   9
   6  -2   3 131.491 12.0869   2
  -6  -2  -3 126.746 11.3425   8
   6  -2   3 140.894 12.1101   1
   6   2   3 132.087 12.2226   2
  -6   2  -3 97.1180 12.7913   7
   6   2   3 128.232 11.6654   1
  -6   2  -3 122.526 11.6021   8
   7  -2   3 223.563 19.3503   7
   7  -2   3 226.487 18.9864   5
  -7  -2  -3 235.849 20.0104   7
   7  -2   3 194.162 20.8749  10
   7  -2   3 224.564 21.6785  10
  -7  -2  -3 200.454 18.8395   8
  -7   2  -3 176.289 20.1509   7
   7   2   3 173.144 19.1131   1
  -7   2  -3 249.901 19.3415   8
  -8  -2  -3 4.44596 1.34810   8
   8  -2   3 3.22850 1.21720   5
   8  -2   3 4.28394 2.14591   1
   8  -2   3 7.99351 1.76755  10
   8  -2   3 2.94996 1.03606  10
  -8   2  -3 5.60635 2.41582   7
  -8   2  -3 4.50728 1.73589   8
   8   2   3 2.29915 1.61193   1
   8   2   3 4.46037 1.65575   1
  -9  -2  -3 256.658 23.4028   8
   9  -2   3 248.895 24.2176   1
   9  -2   3 279.331 23.1799   5
   9   2   3 260.431 23.7528   1
  -9   2  -3 253.470 23.8523   8
  10  -2   3 113.440 12.5469   1
 -10  -2  -3 125.916 11.8058   8
  10   2   3 134.771 12.1321   1
  11  -2   3 82.0366 10.2287   1
 -11  -2  -3 105.010 9.70382   8
  11   2   3 106.038 9.97719   1
 -12  -2  -3 1.11323 1.76309   8
  12  -2   3 0.68086 2.23889   1
  12   2   3 3.32121 2.04475   1
 -13  -2  -3 83.8403 8.48430   8
 -13  -2  -3 86.8002 11.0315   4
  13  -2   3 70.4797 8.77474   1
 -13  -3   3 80.8151 8.08745   8
  13  -3  -3 92.1372 9.84925   1
 -12  -3   3 310.686 24.9129   8
  12  -3  -3 245.650 26.2960   1
  12   3  -3 268.722 25.4450   6
  11  -3  -3 19.6551 4.52716   1
  11  -3  -3 11.3401 4.04398   6
 -11  -3   3 16.8777 2.26729   8
  11   3  -3 17.7192 2.40643   6
 -11   3   3 14.7222 3.47025   8
 -10  -3   3 415.431 33.2783   8
  10  -3  -3 335.837 36.1253   6
  10  -3  -3 339.847 35.3249   1
 -10   3   3 396.397 34.5286   8
  -9  -3   3 27.3041 3.03517   8
   9  -3  -3 34.0476 6.15996   6
   9  -3  -3 29.7331 5.98165   1
  -9  -3   3 31.5546 2.96488   8
  -9   3   3 39.6893 4.73765   8
  -9   3   3 27.8256 5.76619   7
   8  -3  -3 1225.85 103.623   1
   8  -3  -3 1234.45 106.452   6
  -8   3   3 1100.93 103.786   7
  -8   3   3 1066.48 101.283   8
   7  -3  -3 29.6310 6.08594   1
   7  -3  -3 27.8365 5.84551   6
  -7   3   3 24.3535 3.86441   8
  -7   3   3 39.9624 7.60903   3
  -7   3   3 23.5337 5.85303   7
   6  -3  -3 1408.09 120.713   1
   6  -3  -3 1524.03 119.457   7
  -6  -3   3 1355.94 121.741   2
   6  -3  -3 1195.10 121.410   2
   6  -3  -3 1311.78 131.146  10
   6  -3  -3 1444.10 124.151   6
   6  -3  -3 1257.61 131.127  10
  -6   3   3 1429.35 121.815   7
  -6   3   3 1282.08 118.521   8
   5  -3  -3 2.27175 1.17128  10
   5  -3  -3 3.46517 1.27007   2
   5  -3  -3 4.56615 3.09838   1
   5  -3  -3 5.51540 3.50117   6
   5  -3  -3 4.18402 1.29393  10
   5  -3  -3 4.13824 1.62150   7
  -5  -3   3 4.34939 1.85454   2
  -5   3   3 2.76578 2.95532   5
  -5   3   3 10.0908 3.86429   7
  -5   3   3 0.07586 1.48170   8
  -5   3   3 3.41001 3.71922   3
   4  -3  -3 2984.11 264.862   6
   4  -3  -3 2515.52 283.953  10
   4  -3  -3 2623.69 283.988  10
  -4  -3   3 3035.83 262.968   2
   4  -3  -3 3062.15 258.413   7
   4  -3  -3 3177.34 266.645   9
   4  -3  -3 2767.03 266.530   9
   4  -3  -3 3018.41 257.580   1
   4  -3  -3 3311.76 276.966   4
   4   3  -3 2912.25 263.001   6
  -4   3   3 2534.53 256.069   5
  -4   3   3 2922.57 255.375   8
  -4   3   3 3141.97 267.213   9
  -4   3   3 3007.62 259.020   7
   3  -3  -3 56.8398 6.81734  10
   3  -3  -3 58.6873 7.11649  10
  -3  -3   3 51.7553 6.43393   2
   3  -3  -3 70.1589 6.22082   9
   3  -3  -3 53.6745 7.74436   6
   3  -3  -3 53.2580 6.22849   2
   3  -3  -3 71.7386 7.93036   1
   3  -3  -3 58.7184 6.03128   9
   3  -3  -3 74.5009 8.45240   4
  -3   3   3 58.4938 6.63950   5
  -3   3   3 61.6745 7.12727  10
   3   3  -3 61.7797 6.20866   6
  -3   3   3 62.9290 6.71540   8
  -3   3   3 57.2841 6.70924   9
  -3   3   3 61.6269 7.05411   7
   3   3  -3 48.5092 5.78559   6
   2  -3  -3 2745.87 229.451   9
   2  -3  -3 2350.99 227.225   6
  -2  -3   3 2278.93 225.773   2
  -2  -3   3 2406.37 218.776   8
   2  -3  -3 2572.80 221.084   1
   2  -3  -3 2608.44 237.472   4
   2  -3  -3 2819.21 244.836  10
  -2   3   3 2527.09 244.193  10
  -2   3   3 2218.46 219.676   5
   2   3  -3 2442.66 226.085   6
  -2   3   3 2560.07 229.608   9
  -2   3   3 2641.53 221.937   7
   1  -3  -3 3.01925 2.00518   6
   1  -3  -3 1.83891 2.32542   4
  -1  -3   3 10.6289 2.85485   7
   1  -3  -3 4.65745 1.55769   9
   1  -3  -3 4.94679 2.31232   9
   1  -3  -3 4.08483 1.97953   2
  -1  -3   3 2.68631 1.34175   9
   1  -3  -3 5.33130 2.12789  10
   1  -3  -3 11.6828 4.39347  10
  -1   3   3 4.13130 1.79423   5
  -1   3   3 7.61463 2.53305   9
   1   3  -3 4.57456 1.63046   6
  -1   3   3 2.83214 1.38789   9
  -1   3   3 4.73336 1.94608   7
  -1   3   3 4.71947 1.82451  10
   0  -3  -3 4379.52 422.941   9
   0  -3   3 5107.42 423.549   9
   0  -3  -3 4036.75 436.362   4
   0  -3  -3 5031.04 417.520   6
   0  -3  -3 5245.39 416.826   2
   0   3   3 4583.82 404.818   5
   0   3   3 5246.55 423.601   9
   0   3  -3 4288.56 449.770  10
   0   3  -3 4515.21 417.403   6
   0   3  -3 4185.13 474.985   3
   0   3  -3 4589.83 422.589   9
   0   3   3 4627.97 450.112  10
   0   3   3 4528.72 408.593   7
  -1  -3  -3 6.77881 1.92505   9
   1  -3   3 9.33450 2.50555  10
   1  -3   3 4.97064 2.08393   2
  -1  -3  -3 13.9259 2.96757   6
  -1  -3  -3 7.55057 2.29226  10
  -1  -3  -3 10.8726 2.67870   4
   1  -3   3 12.7153 4.21454  10
  -1  -3  -3 7.44794 2.30253   2
  -1  -3  -3 4.64031 2.24323  10
   1  -3   3 6.59361 2.85205   9
   1  -3   3 6.90226 2.18388   6
   1  -3   3 6.70036 2.11937   7
   1   3   3 8.98828 2.08595  10
  -1   3  -3 7.14830 1.99060  10
  -1   3  -3 11.4547 2.93748   9
  -1   3  -3 5.58953 2.32937   6
   1   3   3 8.00323 3.20064  10
  -1   3  -3 8.92900 2.57875   5
   1   3   3 5.96860 1.91123   7
   1   3   3 6.21899 2.53609   2
  -1   3  -3 11.1420 2.64522   3
  -1   3  -3 6.86251 2.37926   7
   1   3   3 10.8124 3.03087   9
  -1   3  -3 5.35548 1.62341   9
  -1   3  -3 8.34567 3.03832  10
  -2  -3  -3 2546.85 261.298   9
   2  -3   3 2684.61 252.582   7
  -2  -3  -3 2360.70 269.727   4
   2  -3   3 2828.79 278.183  10
  -2  -3  -3 2819.97 249.753   8
   2  -3   3 3158.69 262.144   9
   2  -3   3 3048.82 279.884  10
   2  -3   3 2623.94 257.275   2
  -2  -3  -3 2925.49 257.471   2
  -2   3  -3 3180.46 262.515   9
  -2   3  -3 2797.71 253.556   7
   2   3   3 2706.48 250.044   5
   2   3   3 2711.42 261.126   9
   2   3   3 3069.97 252.503   7
  -2   3  -3 2953.65 258.595   6
  -2   3  -3 2693.20 261.177   9
  -2   3  -3 3070.24 278.155  10
  -2   3  -3 3157.93 279.939  10
   2   3   3 2812.34 278.034  10
  -2   3  -3 3168.93 252.060   1
   2   3   3 3190.01 250.985   1
   2   3   3 2538.07 257.356   2
  -2   3  -3 2931.10 251.445   5
  -3  -3  -3 41.0548 5.20748   9
   3  -3   3 47.2488 5.32389   7
   3  -3   3 45.9610 5.20154   9
  -3  -3  -3 46.9001 4.89903   8
  -3  -3  -3 49.6428 5.38764   7
   3  -3   3 33.9556 6.00989   9
   3  -3   3 49.8925 5.60080   1
   3  -3   3 34.7021 7.03603  10
   3  -3   3 44.2984 5.32341   2
   3  -3   3 41.2670 5.57519  10
  -3  -3  -3 30.4592 5.86326   4
  -3  -3  -3 40.3457 5.43919   2
  -3   3  -3 44.9667 5.14279   9
   3   3   3 50.9043 5.60278  10
  -3   3  -3 44.0890 6.97801   5
  -3   3  -3 47.8779 5.38822   2
   3   3   3 50.9115 5.15387   1
  -3   3  -3 57.4515 7.80788   7
   3   3   3 50.5612 6.30449  10
  -3   3  -3 45.2174 7.27700   9
  -3   3  -3 65.4146 9.20449  10
   3   3   3 43.8644 4.90390   5
   3   3   3 51.9549 5.11454   7
   3   3   3 46.2957 5.56389   2
  -3   3  -3 61.8152 7.87288   1
  -3   3  -3 48.6788 7.12284   6
   4  -3   3 3905.67 298.886   1
   4  -3   3 3453.33 310.659   9
  -4  -3  -3 3310.14 321.014   4
   4  -3   3 3381.14 330.749  10
   4  -3   3 3823.00 306.005   2
   4  -3   3 3248.59 311.717   9
  -4  -3  -3 3932.47 310.857   9
  -4  -3  -3 3388.02 296.874   8
  -4  -3  -3 3635.25 300.394   7
   4   3   3 3558.62 330.384  10
   4   3   3 3635.01 297.298   5
  -4   3  -3 3218.48 330.744  10
   4   3   3 3091.89 306.049   2
   4   3   3 3117.90 330.560  10
  -4   3  -3 3184.97 310.703   9
   4   3   3 3080.79 299.922   7
   4   3   3 3159.19 298.183   1
  -4   3  -3 3230.00 306.178   2
   5  -3   3 98.8476 12.0456  10
   5  -3   3 83.6115 9.26054   2
   5  -3   3 97.5495 9.83884   1
  -5  -3  -3 96.9862 8.87318   8
   5  -3   3 93.4241 9.39959   7
  -5  -3  -3 102.943 10.9216   4
   5  -3   3 91.7878 10.2083   9
  -5  -3  -3 98.3184 9.40239   7
   5  -3   3 90.9560 9.94832  10
   5   3   3 91.2706 9.07630   1
  -5   3  -3 118.675 12.2502   7
  -5   3  -3 110.899 11.9543   5
   5   3   3 96.9416 9.74909   2
  -5   3  -3 83.6053 8.98598   8
  -5   3  -3 111.677 11.9669   1
  -5   3  -3 75.0932 9.29657   9
   6  -3   3 1391.25 128.816   2
  -6  -3  -3 1597.38 126.669   7
   6  -3   3 1287.91 125.136   5
   6  -3   3 1601.19 140.807  10
  -6  -3  -3 1310.18 124.806   8
   6  -3   3 1400.84 126.165   1
  -6  -3  -3 1430.94 135.958   4
   6  -3   3 1418.64 130.907   9
   6  -3   3 1406.21 139.005  10
   6  -3   3 1604.49 126.571   7
  -6   3  -3 1351.42 125.063   8
  -6   3  -3 1644.23 127.561   5
   6   3   3 1302.20 125.447   1
  -6   3  -3 1563.00 128.556   7
  -6   3  -3 1191.65 126.995   1
   7  -3   3 47.6859 4.77133   9
  -7  -3  -3 48.2174 7.31308   4
   7  -3   3 62.3537 6.92660  10
  -7  -3  -3 40.4542 5.31758   7
   7  -3   3 38.1617 5.69055   1
   7  -3   3 45.6560 5.23808  10
   7  -3   3 42.4876 4.86218   5
  -7  -3  -3 40.0944 4.64831   8
   7  -3   3 41.4678 5.12878   7
  -7   3  -3 54.0954 7.57944   7
  -7   3  -3 73.7676 8.60125   5
   7   3   3 47.8740 5.07815   1
   8  -3   3 1497.94 128.869   5
   8  -3   3 1468.71 143.073  10
  -8  -3  -3 1352.37 128.593   8
   8  -3   3 1350.74 130.156   7
  -8  -3  -3 1692.85 140.703   4
   8  -3   3 1318.90 129.920   1
   8  -3   3 1682.38 143.684  10
   8   3   3 1551.07 129.451   1
  -8   3  -3 1353.09 131.231   7
   9  -3   3 68.4919 7.43296  10
   9  -3   3 76.6859 7.70067  10
   9  -3   3 63.1247 8.04269   1
  -9  -3  -3 81.7856 9.93752   4
  -9  -3  -3 69.1791 7.07906   8
   9  -3   3 84.5561 7.05547   5
  -9   3  -3 55.8718 8.09922   7
   9   3   3 68.4951 7.38698   1
 -10  -3  -3 460.903 38.8387   8
  10  -3   3 445.550 39.8718   1
 -10  -3  -3 467.577 43.7291   4
 -10   3  -3 369.042 39.9822   7
  10   3   3 442.824 39.1632   1
 -11  -3  -3 11.0603 2.23971   8
  11  -3   3 9.01642 3.07975   1
 -11  -3  -3 9.58339 3.78671   4
  11   3   3 12.2395 2.55818   1
 -11   3  -3 10.0041 2.99366   7
 -12  -3  -3 432.835 39.7333   4
  12  -3   3 361.323 36.0144   1
  13  -3   3 24.5777 4.87597   1
 -13  -3  -3 36.4251 4.68795   8
 -13  -3  -3 38.4410 6.60151   4
 -12  -4   3 2.40863 1.16431   8
  12  -4  -3 2.20545 3.05158   1
  11  -4  -3 180.939 19.2434   6
 -11  -4   3 202.745 16.6848   8
  11  -4  -3 156.113 18.6410   1
 -10  -4   3 1.70891 0.81034   8
  10  -4  -3 0.38981 2.50634   6
  10  -4  -3 1.38450 2.76389   1
 -10   4   3 0.40993 3.12254   7
   9  -4  -3 144.268 17.7400   6
   9  -4  -3 180.665 17.8426   1
  -9   4   3 159.608 17.9540   7
  -9   4   3 178.066 16.3033   8
   8  -4  -3 4.69880 1.33705   5
   8  -4  -3 5.78618 3.92547   1
   8  -4  -3 4.44693 3.76839   6
  -8   4   3 2.79740 2.03698   8
  -8   4   3 2.18811 3.81987   7
  -8   4   3 1.65826 4.71438   3
   7  -4  -3 417.762 38.5021  10
   7  -4  -3 383.451 38.4200  10
   7  -4  -3 379.075 38.2628   6
   7  -4  -3 413.620 37.4186   1
  -7   4   3 342.088 37.3244   7
  -7   4   3 403.377 35.4382   8
   6  -4  -3 48.0162 5.45305  10
   6  -4  -3 41.9842 7.66541   6
   6  -4  -3 46.2842 7.69026   1
   6  -4  -3 52.9630 5.51278   7
   6  -4  -3 45.5270 5.41488  10
   6  -4  -3 52.3343 5.24613   2
  -6   4   3 40.2976 5.33149   8
  -6   4   3 48.0459 8.01469   7
   6   4  -3 44.4771 4.85743   6
  -6   4   3 65.8248 8.91245   3
   5  -4  -3 310.416 28.6171  10
   5  -4  -3 254.867 28.3832  10
   5  -4  -3 320.475 26.4884   2
   5  -4  -3 303.838 28.5899   6
   5  -4  -3 296.172 27.7286   1
   5  -4  -3 272.927 26.3472   9
   5  -4  -3 301.166 26.3755   7
  -5   4   3 289.394 28.0674   7
   5   4  -3 270.958 26.1566   6
  -5   4   3 248.252 27.0382   5
   4  -4  -3 68.2258 6.85822   7
   4  -4  -3 58.2363 8.03800   4
   4  -4  -3 52.4496 6.24849  10
   4  -4  -3 52.6613 6.16062  10
  -4  -4   3 43.8024 5.70938   2
   4  -4  -3 48.7921 5.44889   2
   4  -4  -3 44.3250 7.12484   6
   4  -4  -3 56.7937 7.34789   1
   4  -4  -3 53.7222 5.33654   9
   4   4  -3 51.4966 5.48458   6
  -4   4   3 57.6772 7.18469   5
  -4   4   3 72.3532 9.19500   3
  -4   4   3 52.0879 5.99533   9
  -4   4   3 43.0769 6.28207   1
  -4   4   3 40.7810 5.41460   8
  -4   4   3 58.2918 7.82353   7
   4   4  -3 40.8081 5.40230   6
   3  -4  -3 510.053 56.2024  10
   3  -4  -3 572.959 52.6494   9
  -3  -4   3 501.405 49.7750   8
   3  -4  -3 527.287 53.2321   6
   3  -4  -3 645.498 56.0725   4
   3  -4  -3 481.961 51.5299   1
   3  -4  -3 662.135 52.8146   9
  -3  -4   3 581.233 51.8286   2
   3  -4  -3 602.168 56.4578  10
   3  -4  -3 511.803 56.4436  10
  -3   4   3 583.018 51.3439   5
  -3   4   3 567.863 56.6627  10
  -3   4   3 652.280 53.0482   9
  -3   4   3 617.777 50.5819   8
  -3   4   3 580.136 52.0577   7
  -3   4   3 542.754 51.5035   1
   3   4  -3 554.180 52.0222   6
   2  -4  -3 138.818 15.3877   6
   2  -4  -3 126.109 14.6713   1
   2  -4  -3 173.331 16.4841  10
   2  -4  -3 156.182 14.6792   9
  -2  -4   3 135.662 14.3603   2
   2  -4  -3 149.443 14.5629   9
   2  -4  -3 153.824 15.8567  10
  -2  -4   3 128.003 13.3163   8
   2  -4  -3 169.195 16.3087   4
   2  -4  -3 160.594 15.9863  10
  -2   4   3 178.310 15.1594   7
  -2   4   3 162.977 14.7563   9
  -2   4   3 151.783 14.5825   5
  -2   4   3 142.450 15.8238  10
  -2   4   3 152.458 14.8738   1
  -2   4   3 138.255 14.5386   9
   2   4  -3 155.361 14.2918   6
   1  -4  -3 379.030 37.4762   9
   1  -4  -3 425.112 36.8769   2
  -1  -4   3 403.545 37.4153   9
   1  -4  -3 397.165 40.7265  10
   1  -4  -3 412.087 37.8419   9
   1  -4  -3 371.125 39.4014   4
   1  -4  -3 379.845 36.3041   1
   1  -4  -3 331.073 37.0824   6
  -1   4   3 371.463 36.1485   5
   1   4  -3 359.305 35.7524   7
  -1   4   3 352.778 37.3404   9
   1   4  -3 398.111 35.9309   1
  -1   4   3 424.518 40.1270  10
  -1   4   3 453.768 40.6036  10
  -1   4   3 453.424 36.8419   7
  -1   4   3 416.079 36.5591   1
   1   4  -3 440.572 37.0074   6
   1   4  -3 438.072 39.0758  10
   0  -4  -3 225.342 21.4555  10
   0  -4  -3 218.009 19.8698   9
   0  -4  -3 188.143 19.3814   6
   0  -4  -3 180.443 21.0891  10
   0  -4  -3 215.038 20.6054   4
   0  -4   3 222.571 20.3535   9
   0  -4  -3 197.280 21.2329  10
   0  -4  -3 190.239 19.4892   2
   0   4  -3 180.655 20.4203  10
   0   4   3 190.749 21.5239  10
   0   4  -3 227.648 21.8679   3
   0   4   3 183.369 19.2548   7
   0   4  -3 197.477 19.0570   1
   0   4  -3 212.433 20.8211  10
   0   4   3 215.390 19.1643   5
   0   4   3 242.728 19.8628   9
   0   4  -3 207.946 19.6023   6
   0   4  -3 227.352 19.0889   9
   0   4  -3 205.362 18.9379   7
   0   4  -3 195.038 18.6434   5
   0   4   3 187.292 19.1806   1
   0   4   3 221.484 21.2097  10
  -1  -4  -3 779.344 74.8186  10
   1  -4   3 886.522 69.7636   6
  -1  -4  -3 642.053 70.0565   9
  -1  -4  -3 792.582 74.6913  10
  -1  -4  -3 812.867 69.6243   2
  -1  -4  -3 780.216 72.2959   4
   1  -4   3 822.718 76.0628  10
   1  -4   3 647.344 69.3181   2
  -1  -4  -3 784.020 74.7364  10
  -1  -4  -3 677.038 69.0878   6
  -1  -4  -3 818.987 67.1252   8
   1   4   3 782.193 67.3233   5
   1   4   3 678.405 67.5536   1
  -1   4  -3 755.348 75.3359  10
  -1   4  -3 888.587 70.5603   9
   1   4   3 782.921 70.0288   9
  -1   4  -3 783.073 69.6370   6
  -1   4  -3 795.334 78.7104   3
   1   4   3 700.146 74.6864  10
  -1   4  -3 693.117 67.5013   5
   1   4   3 769.298 67.9121   7
  -1   4  -3 661.694 69.6206   9
  -1   4  -3 753.924 68.3071   7
  -2  -4  -3 87.5732 9.44056   9
  -2  -4  -3 89.9163 9.64653   2
   2  -4   3 80.3054 10.1076  10
   2  -4   3 92.3971 9.50436   1
   2  -4   3 100.791 9.84982   6
  -2  -4  -3 85.8653 8.92418   8
  -2  -4  -3 81.8552 9.74699   4
   2  -4   3 96.1910 9.95810   9
  -2  -4  -3 92.4891 10.1955  10
   2  -4   3 85.6913 9.38840   2
   2  -4   3 87.5936 9.53866   7
   2   4   3 113.408 10.7271  10
  -2   4  -3 79.8377 9.79354  10
   2   4   3 91.5102 9.18931   9
  -2   4  -3 79.0508 10.5234   3
  -2   4  -3 84.2562 9.08746   9
   2   4   3 91.8214 9.20863   5
  -2   4  -3 109.245 11.8743  10
   2   4   3 84.3735 10.0270  10
   2   4   3 99.8930 10.0788   2
  -2   4  -3 89.7216 10.0429   6
  -2   4  -3 121.006 11.0908   7
  -2   4  -3 126.833 10.8074   5
   2   4   3 101.713 9.14004   9
  -2   4  -3 111.041 10.1725   1
  -2   4  -3 96.3436 10.3005   9
   2   4   3 97.9777 9.33460   7
  -3  -4  -3 596.012 53.7239   9
   3  -4   3 632.920 54.2803   9
   3  -4   3 550.338 52.1526   7
  -3  -4  -3 486.119 55.5351   4
   3  -4   3 631.629 52.1306   1
   3  -4   3 503.556 57.1303  10
   3  -4   3 500.375 52.8937   2
   3  -4   3 545.889 53.4321   6
   3   4   3 668.434 51.8800   1
   3   4   3 485.911 51.7749   7
  -3   4  -3 575.375 52.9902   1
   3   4   3 528.499 53.2276   2
  -3   4  -3 618.395 53.5171   9
  -3   4  -3 691.538 59.4403  10
   3   4   3 651.763 51.6701   5
  -3   4  -3 516.912 57.0759  10
  -3   4  -3 552.859 60.5860   3
   3   4   3 619.895 57.0942  10
  -3   4  -3 611.532 54.9778   9
  -3   4  -3 680.478 53.9443   7
  -3   4  -3 593.082 52.9780   5
   3   4   3 589.770 57.1733  10
   4  -4   3 91.1277 9.57379  10
  -4  -4  -3 78.1882 9.66057   4
   4  -4   3 66.4482 9.63151   9
  -4  -4  -3 96.4163 8.56353   8
   4  -4   3 65.9962 8.93240   1
   4  -4   3 71.9923 8.79418   2
   4  -4   3 90.2331 8.94671   7
  -4   4  -3 96.0077 11.0275   7
   4   4   3 94.4704 9.38438   2
  -4   4  -3 116.252 11.7695   6
  -4   4  -3 101.581 11.0357   5
   4   4   3 91.9607 8.71695   1
   4   4   3 88.2938 8.71978   7
  -4   4  -3 95.7792 8.90758   9
  -4   4  -3 104.580 11.3939   1
  -4   4  -3 84.7016 10.5368   3
   5  -4   3 577.953 57.6930   7
   5  -4   3 590.781 63.3847  10
  -5  -4  -3 595.143 62.0673   4
   5  -4   3 660.765 58.8417   2
   5  -4   3 702.698 60.5874   9
  -5  -4  -3 590.652 56.7825   8
   5  -4   3 753.858 58.1810   1
  -5  -4  -3 699.077 57.7977   7
  -5   4  -3 611.250 59.5891   9
  -5   4  -3 743.658 60.0125   7
   5   4   3 569.960 57.1716   1
  -5   4  -3 660.549 59.2785   1
  -5   4  -3 721.730 59.4012   5
   6  -4   3 6.89587 2.16796   7
   6  -4   3 9.87790 2.42958   9
   6  -4   3 8.81277 2.87458   1
  -6  -4  -3 9.08497 3.11584   4
  -6  -4  -3 13.7696 2.50362   7
  -6  -4  -3 9.39974 1.85184   8
   6  -4   3 5.51498 1.98334  10
  -6   4  -3 13.2781 4.18357   7
  -6   4  -3 2.45978 3.80184   1
  -6   4  -3 3.47949 3.38528   5
   6   4   3 14.2934 2.51127   1
   7  -4   3 480.115 44.6409   7
   7  -4   3 523.139 44.1540   5
   7  -4   3 481.283 48.7252  10
   7  -4   3 532.444 45.1595   1
  -7  -4  -3 474.067 43.7587   8
  -7  -4  -3 455.067 48.3645   4
   7  -4   3 515.630 45.8777   9
   7   4   3 476.455 44.1768   1
  -7   4  -3 537.422 46.0963   5
  -7   4  -3 492.227 46.2165   7
   8  -4   3 0.28529 1.52137   7
   8  -4   3 -1.0943 1.87368   1
  -8  -4  -3 3.88887 1.42183   8
  -8  -4  -3 0.63025 2.48776   4
   8  -4   3 0.53811 1.28505   5
   8  -4   3 2.50486 0.90546   9
   8  -4   3 -0.1597 1.26754  10
  -8   4  -3 2.63656 2.81946   7
  -8   4  -3 2.59603 3.24267   5
   8   4   3 1.44480 1.64549   1
  -9  -4  -3 426.013 40.8751   8
   9  -4   3 492.153 45.3431  10
  -9  -4  -3 544.850 45.9420   4
   9  -4   3 492.408 45.7218  10
   9  -4   3 445.064 40.9706   5
   9  -4   3 407.600 43.1805   6
   9  -4   3 459.026 42.1955   1
  -9   4  -3 431.092 49.4392   3
  -9   4  -3 464.537 42.6536   7
  10  -4   3 2.78518 2.31783   1
 -10  -4  -3 5.32323 1.74683   8
  10  -4   3 4.89529 2.59511   6
 -10  -4  -3 10.7453 3.91224   4
  10  -4   3 4.88664 1.62705   5
  10   4   3 7.03576 2.18882   1
 -10   4  -3 4.48663 3.63792   3
 -10   4  -3 5.94980 2.73845   7
 -11  -4  -3 234.962 21.8654   8
 -11  -4  -3 259.446 25.3073   4
  11  -4   3 253.537 23.7065   6
  11  -4   3 260.778 23.1966   1
 -11   4  -3 204.738 22.8917   7
 -12  -4  -3 20.7425 5.17926   4
 -12  -4  -3 19.9514 3.14997   8
  12  -4   3 22.6950 4.29606   1
 -12   4  -3 18.9430 4.16050   7
  12  -5  -3 25.7944 5.20799   1
 -12  -5   3 20.7982 2.61296   8
  11  -5  -3 52.8097 8.96481   1
 -11  -5   3 77.1365 6.62196   8
 -11   5   3 59.1443 9.41793   7
 -10  -5   3 735.650 58.1483   8
  10  -5  -3 607.016 60.6951   1
  10  -5  -3 566.653 62.1053   6
 -10   5   3 722.482 61.8581   7
  -9  -5   3 7.29056 1.32687   8
  -9  -5   3 4.88427 1.10763   8
   9  -5  -3 4.65935 3.49350   6
   9  -5  -3 7.31183 3.91732   1
  -9   5   3 6.79873 4.16358   7
   8  -5  -3 105.616 11.0642  10
   8  -5  -3 98.5466 13.2143   6
   8  -5  -3 106.895 13.1545   1
   8  -5  -3 110.455 11.0357  10
  -8   5   3 124.900 14.4288   3
  -8   5   3 103.916 13.2802   7
   7  -5  -3 99.2476 10.1842  10
   7  -5  -3 97.2462 12.2025   6
   7  -5  -3 91.3012 9.61518   7
   7  -5  -3 117.156 12.3927   1
   7  -5  -3 87.3619 10.0639  10
  -7   5   3 88.3368 11.9251   7
  -7   5   3 118.413 13.3364   3
   6  -5  -3 2103.74 173.249   1
   6  -5  -3 2203.48 172.657   7
   6  -5  -3 1751.04 189.457  10
   6  -5  -3 1901.44 177.626   9
  -6   5   3 1707.78 171.967   5
  -6   5   3 2048.33 174.096   7
   5  -5  -3 0.10028 1.87751   7
   5  -5  -3 3.96058 1.72130  10
   5  -5  -3 -1.4183 2.59134   1
   5  -5  -3 -1.0442 2.82720   4
   5  -5  -3 0.71213 1.05215   9
   5  -5  -3 0.02690 1.34160   2
  -5  -5   3 1.10104 0.74725   8
   5  -5  -3 2.26524 2.74979   6
  -5   5   3 -0.2805 2.61656   5
  -5   5   3 3.41878 2.25288   1
  -5   5   3 1.62608 2.65757   7
   4  -5  -3 265.888 22.9486   2
   4  -5  -3 248.139 23.6814   1
   4  -5  -3 248.995 24.9354  10
   4  -5  -3 232.038 24.2640   6
   4  -5  -3 245.458 25.6151   4
   4  -5  -3 242.355 23.4345   7
  -4  -5   3 237.297 21.4224   8
   4  -5  -3 249.753 23.0202   9
   4   5  -3 216.350 22.6542   6
  -4   5   3 246.908 23.2426   9
  -4   5   3 229.643 23.5376   1
  -4   5   3 265.179 23.8686   5
  -4   5   3 238.587 24.0468   7
   4   5  -3 243.795 22.0909   1
   3  -5  -3 18.6934 4.50750   4
   3  -5  -3 19.0470 4.28748   6
   3  -5  -3 10.2953 3.39728   1
   3  -5  -3 18.2294 3.81888  10
   3  -5  -3 15.8935 2.85898   9
  -3  -5   3 13.7839 1.88505   8
  -3   5   3 14.8106 3.86818   5
  -3   5   3 20.7043 4.39461   7
  -3   5   3 20.9406 3.17621   9
  -3   5   3 24.0817 4.99788   1
   3   5  -3 19.0008 3.10814   6
  -3   5   3 22.5111 3.29548   9
   3   5  -3 26.0553 3.34173   1
   2  -5  -3 3640.87 358.270  10
   2  -5  -3 3792.64 336.057   9
   2  -5  -3 4045.37 323.182   1
   2  -5  -3 4192.22 332.548   6
   2  -5  -3 3117.65 346.795   4
  -2   5   3 3380.99 335.777   9
  -2   5   3 3523.36 358.082  10
  -2   5   3 3249.29 322.051   5
  -2   5   3 3729.86 323.602   1
  -2   5   3 4172.18 325.634   7
   1  -5  -3 8.62402 3.18451   4
   1  -5  -3 11.2747 2.20627   2
   1  -5  -3 8.99379 2.43834   1
  -1  -5   3 10.4887 2.56234   8
   1  -5  -3 9.36509 2.40681   6
   1  -5  -3 9.32971 2.35532   9
   1   5  -3 10.8427 2.37882   6
   1   5  -3 9.42866 1.45096  10
  -1   5   3 8.84844 2.24265   9
  -1   5   3 12.0204 3.45917   1
  -1   5   3 7.04526 2.93801   7
   1   5  -3 8.53931 1.38810  10
  -1   5   3 8.62614 2.75256  10
   1   5  -3 11.8931 1.84964   7
  -1   5   3 14.4398 3.26426  10
   1   5  -3 14.8073 2.69402   1
  -1   5   3 7.72997 2.96337   5
   0  -5  -3 338.815 33.8094   9
   0  -5  -3 323.303 32.9848   6
   0  -5  -3 339.196 32.4715   8
   0  -5   3 418.544 32.9393   8
   0  -5  -3 349.572 34.7285   4
   0   5   3 341.260 36.1534  10
   0   5   3 361.708 33.1927   7
   0   5  -3 308.260 31.8605   5
   0   5  -3 365.161 32.3768   7
   0   5  -3 361.841 35.1628  10
   0   5  -3 415.236 32.5852   1
   0   5   3 408.781 33.2000   1
   0   5  -3 345.487 35.4780  10
   0   5   3 348.923 33.4518   9
   0   5   3 371.713 32.8745   5
   1  -5   3 50.7918 6.48579   7
  -1  -5  -3 52.6728 6.05026   9
   1  -5   3 46.1171 5.97190   2
  -1  -5  -3 38.0745 5.09084   4
  -1  -5  -3 40.1652 5.25803   8
   1  -5   3 52.3740 5.73610   9
   1  -5   3 50.1070 6.11718   8
  -1   5  -3 52.6509 5.77253   1
  -1   5  -3 40.3137 6.22096  10
  -1   5  -3 56.4995 5.67088   9
   1   5   3 41.3486 5.92547   7
  -1   5  -3 42.3545 5.60246   5
  -1   5  -3 49.6839 5.67288   6
   1   5   3 48.3621 6.14418  10
  -1   5  -3 30.9953 5.31164   3
   1   5   3 44.1935 6.25903  10
  -1   5  -3 32.4252 4.41819   9
   1   5   3 44.6208 5.73471   1
   1   5   3 43.0766 4.93667   9
   1   5   3 43.5971 5.19359   9
  -1   5  -3 33.3681 5.56839   7
  -1   5  -3 43.5854 5.10888  10
   1   5   3 59.4745 6.41659   5
  -2  -5  -3 4747.51 384.373   8
   2  -5   3 4475.64 386.204   1
  -2  -5  -3 4419.06 414.098   4
   2  -5   3 4602.99 402.222   9
   2  -5   3 4537.54 389.019   7
  -2   5  -3 4029.05 389.049   7
  -2   5  -3 4289.74 385.382   5
   2   5   3 4778.08 386.402   1
   2   5   3 4222.59 388.643   7
   2   5   3 4529.67 428.001  10
  -2   5  -3 4270.28 401.586   9
   2   5   3 4098.63 401.433   9
  -2   5  -3 4962.67 397.190   6
   2   5   3 3850.47 427.709  10
  -2   5  -3 4281.02 428.663  10
   2   5   3 4000.18 401.378   9
   2   5   3 4861.79 385.282   5
  -3  -5  -3 5.01955 1.82046   8
   3  -5   3 3.93298 2.16954   6
   3  -5   3 14.3011 2.70333   9
   3  -5   3 2.44848 1.76669   2
  -3  -5  -3 3.77688 1.83688   4
   3  -5   3 3.85543 2.20294   7
   3  -5   3 5.05853 2.35594   1
  -3   5  -3 3.96579 1.57096   9
   3   5   3 4.55815 2.00617  10
   3   5   3 8.86030 2.65568   5
  -3   5  -3 7.08613 3.09211   6
  -3   5  -3 5.48103 2.76945   5
  -3   5  -3 2.58622 2.73459   7
   3   5   3 3.69665 2.25009   1
   3   5   3 3.88919 2.22881   7
  -3   5  -3 2.82238 2.64460   1
  -3   5  -3 3.56748 1.91306   3
  -3   5  -3 -0.6241 3.14786  10
   3   5   3 3.12552 1.49204  10
   4  -5   3 298.303 25.5752   1
   4  -5   3 279.586 26.2657   9
  -4  -5  -3 262.916 26.7914   4
   4  -5   3 278.500 26.1323   6
   4  -5   3 291.461 25.4884   7
  -4  -5  -3 249.753 24.6440   8
  -4   5  -3 245.573 26.4461   7
  -4   5  -3 275.314 25.6998   9
  -4   5  -3 251.782 29.2293   3
   4   5   3 267.774 25.0554   1
  -4   5  -3 311.089 26.6688   5
   5  -5   3 97.9620 9.84730   7
   5  -5   3 101.190 10.9471   9
  -5  -5  -3 90.1005 9.23600   8
   5  -5   3 93.6509 10.4554   6
  -5  -5  -3 84.9611 10.4315   4
   5  -5   3 78.4825 10.0010   1
   5   5   3 99.1448 9.52425   1
  -5   5  -3 102.305 11.4649   5
  -5   5  -3 105.430 9.71160   9
  -5   5  -3 114.973 11.7960   1
  -5   5  -3 100.266 11.4594   7
  -5   5  -3 85.7831 11.4088   3
  -6  -5  -3 2927.12 250.220   4
   6  -5   3 2681.68 239.731   6
  -6  -5  -3 2680.60 231.233   8
   6  -5   3 2371.70 233.964   7
   6  -5   3 2748.97 242.616   9
  -6   5  -3 2718.05 272.635   3
  -6   5  -3 2587.86 233.906   1
   6   5   3 2455.90 232.319   1
  -6   5  -3 2640.74 233.304   5
  -6   5  -3 2697.12 235.456   7
   7  -5   3 15.0977 3.01644   7
   7  -5   3 14.9614 4.03436   6
   7  -5   3 12.9547 3.68183   1
  -7  -5  -3 14.0106 2.50567   8
   7  -5   3 17.9272 3.07515   9
  -7  -5  -3 17.3066 3.97155   4
  -7   5  -3 15.1320 4.37931   5
   7   5   3 17.6652 3.11437   1
  -7   5  -3 12.8802 4.18761   3
  -7   5  -3 12.4422 4.11196   7
   8  -5   3 127.938 12.8792   5
   8  -5   3 118.272 14.1498   6
   8  -5   3 108.672 13.6438   1
   8  -5   3 159.477 13.3515   7
  -8  -5  -3 126.105 12.6379   8
  -8  -5  -3 153.184 15.2543   4
  -8   5  -3 149.076 14.9389   5
   8   5   3 129.093 12.9746   1
  -8   5  -3 155.853 16.5529   3
  -8   5  -3 140.051 14.5698   7
  -9  -5  -3 32.4105 4.05808   8
   9  -5   3 28.7874 5.37888   6
  -9  -5  -3 35.8805 6.14442   4
   9  -5   3 40.0388 4.45679   5
   9  -5   3 37.9010 5.72243   1
   9   5   3 32.5986 4.48096   1
  -9   5  -3 30.6583 5.48841   7
  -9   5  -3 27.2931 6.04869   3
 -10  -5  -3 1010.76 92.9829   4
  10  -5   3 837.299 88.4364   6
 -10  -5  -3 1073.80 85.0165   8
  10  -5   3 915.269 86.2728   1
 -10   5  -3 1017.19 86.9273   7
 -10   5  -3 900.840 101.121   3
  10   5   3 998.277 85.5055   1
  11  -5   3 54.2275 7.66705   1
 -11  -5  -3 67.7398 6.67979   8
  11  -5   3 53.1243 7.73632   6
 -11   5  -3 68.0371 8.01740   7
  12  -5   3 39.7696 6.38293   1
 -12  -5  -3 48.3562 5.31885   8
 -12   5  -3 42.3345 6.35264   7
 -11  -6   3 38.7521 3.95948   8
  11  -6  -3 38.5703 6.83023   1
 -11   6   3 39.0580 6.80619   7
  10  -6  -3 38.9001 7.15077   6
 -10  -6   3 32.0977 3.55571   8
  10  -6  -3 34.5973 6.63662   1
 -10   6   3 37.4291 7.10156   7
   9  -6  -3 17.2411 5.28528   1
  -9  -6   3 13.8410 1.79967   8
   9  -6  -3 17.4838 4.95422   6
  -9   6   3 8.18613 4.24355   7
  -9   6   3 22.4584 5.07175   3
  -8  -6   3 4.40112 0.77734   8
   8  -6  -3 6.18138 3.76784   6
  -8  -6   3 1.23969 1.07900   8
   8  -6  -3 5.28336 3.94494   1
  -8   6   3 1.32018 3.02740   7
  -8   6   3 4.04615 3.13046   3
   7  -6  -3 45.8729 5.82069  10
   7  -6  -3 53.1046 6.05707   7
  -7  -6   3 46.0745 4.74383   8
   7  -6  -3 50.5508 8.03061   1
  -7  -6   3 49.8338 4.48028   8
   7  -6  -3 47.3595 8.23484   6
  -7   6   3 47.8107 7.83997   7
  -7   6   3 42.0008 7.72099   5
  -6  -6   3 104.317 9.54733   8
   6  -6  -3 99.3016 11.0724   7
   6  -6  -3 151.844 14.0392   6
  -6  -6   3 105.443 9.64398   8
   6  -6  -3 131.888 13.2431   1
   6  -6  -3 101.462 10.2890   9
  -6   6   3 103.304 12.3096   7
  -6   6   3 94.9622 12.0013   5
   5  -6  -3 3.16343 2.40067   7
   5  -6  -3 6.03843 3.43597   6
   5  -6  -3 8.91803 3.43116   1
   5  -6  -3 3.42213 1.48736   9
  -5  -6   3 6.29771 1.25941   8
   5  -6  -3 21.6386 4.99812   4
  -5  -6   3 8.77004 1.21855   8
  -5   6   3 4.35273 3.21616   5
  -5   6   3 6.25286 3.34758   7
   5   6  -3 4.05522 1.64174   1
  -5   6   3 4.91389 2.69059   1
  -4  -6   3 2.70362 1.14443   8
   4  -6  -3 0.16577 2.37782   4
   4  -6  -3 11.4779 3.74374   6
   4  -6  -3 -0.0874 1.87162   2
   4  -6  -3 5.81818 2.68616   7
   4  -6  -3 2.08994 2.61027   1
   4  -6  -3 1.49682 1.64323   9
  -4   6   3 3.98518 1.66032   9
  -4   6   3 1.58855 2.67905   7
  -4   6   3 3.40527 1.54797   9
  -4   6   3 2.54464 2.85944   5
   4   6  -3 0.33455 1.49362   1
  -4   6   3 6.28366 3.18419   1
   3  -6  -3 26.0143 4.81981   1
   3  -6  -3 19.3941 5.07473   4
   3  -6  -3 27.8982 4.38859   9
   3  -6  -3 39.8810 6.18275   6
  -3  -6   3 28.9477 3.70124   8
  -3   6   3 31.5557 5.63456   7
   3   6  -3 29.1481 4.26563   6
  -3   6   3 36.6991 6.31811   1
  -3   6   3 39.3347 4.43688   9
  -3   6   3 45.1438 6.46104   5
   3   6  -3 29.5328 4.10199   1
   2  -6  -3 146.621 14.7713   1
   2  -6  -3 154.400 16.1909   4
  -2  -6   3 134.726 13.8354   8
   2  -6  -3 149.658 15.0450   9
  -2   6   3 140.747 15.5187   7
  -2   6   3 124.549 15.2349   1
   2   6  -3 155.258 14.3194   1
  -2   6   3 152.937 14.4525   9
   2   6  -3 184.534 14.8435   6
  -2   6   3 132.891 15.1482   5
   1  -6  -3 9.43576 2.26540   1
   1  -6  -3 5.87779 2.33807   9
  -1  -6   3 16.8693 2.60790   8
   1  -6  -3 6.22862 2.45291   4
  -1   6   3 6.45498 3.22088   1
  -1   6   3 5.95887 2.68020  10
   1   6  -3 8.33863 1.44590   5
   1   6  -3 9.97900 1.32781  10
   1   6  -3 7.61247 1.21488  10
  -1   6   3 5.12638 2.88580   5
  -1   6   3 12.2007 3.83973   7
   1   6  -3 9.36841 2.41456   1
   1   6  -3 13.4315 2.68879   6
  -1   6   3 5.38194 1.72565   9
   0  -6  -3 17.2556 2.86354   1
   0  -6   3 28.6579 3.55348   8
   0  -6  -3 18.1310 3.00445   4
   0  -6   3 17.7670 3.80177   7
   0   6  -3 23.5952 3.35880   1
   0   6  -3 15.7728 2.78024  10
   0   6   3 18.1120 3.94684   1
   0   6   3 20.0390 4.07835  10
   0   6   3 11.7414 2.41676   9
   0   6   3 18.1389 4.21142   5
   0   6  -3 19.2372 2.92641   7
   0   6  -3 14.2119 2.99785   6
   0   6   3 17.5267 4.18336   7
   0   6  -3 15.0755 2.32785  10
   0   6   3 18.7177 4.17190  10
   0   6  -3 12.6721 2.43808   5
  -1  -6  -3 16.6565 2.80371   4
  -1  -6  -3 11.5532 3.10214   8
  -1  -6  -3 19.1495 2.81053   1
   1  -6   3 28.8806 3.87823   8
   1   6   3 19.1940 4.22008   5
  -1   6  -3 17.4762 2.31223   9
  -1   6  -3 18.1009 3.80958  10
  -1   6  -3 12.4509 2.35694  10
  -1   6  -3 13.9084 3.23065   7
   1   6   3 17.4104 3.93039  10
   1   6   3 29.6143 4.42393   1
  -1   6  -3 22.2592 3.65579   6
  -1   6  -3 18.0855 3.36501   1
   1   6   3 19.3539 2.66332   9
   1   6   3 18.7421 4.32600   7
   1   6   3 24.0486 4.14958  10
  -1   6  -3 14.6858 3.17403   5
  -2  -6  -3 61.4228 7.38876   8
  -2  -6  -3 71.7714 7.58519   4
   2  -6   3 77.2538 8.09417   1
   2  -6   3 75.0531 8.62361   7
   2   6   3 68.7024 8.04483  10
   2   6   3 87.0689 8.49529   5
   2   6   3 69.6917 8.39141  10
   2   6   3 77.9678 8.84622   7
  -2   6  -3 70.2625 9.10292  10
  -2   6  -3 78.4924 8.36757   6
  -2   6  -3 62.2097 7.10063   9
  -2   6  -3 90.2424 8.45807   5
   2   6   3 62.7095 7.97711   1
  -2   6  -3 65.3610 8.24810   3
  -2   6  -3 59.3704 6.99595   9
  -2   6  -3 74.3116 8.43365   7
  -2   6  -3 88.5751 8.20605   1
   3  -6   3 15.3688 3.34088   1
  -3  -6  -3 19.6082 2.77811   4
   3  -6   3 10.6888 3.23724   7
   3  -6   3 14.3752 2.85028   9
  -3  -6  -3 10.2117 2.47189   8
   3   6   3 7.90240 2.51232   5
   3   6   3 11.5240 1.99115  10
   3   6   3 10.4002 3.18296   7
  -3   6  -3 10.6892 3.28477   1
  -3   6  -3 12.2744 3.45685   7
  -3   6  -3 10.5509 3.46187   6
   3   6   3 13.7635 3.33571   1
  -3   6  -3 6.67836 1.89860   9
  -3   6  -3 10.3916 3.26139   5
  -3   6  -3 8.00587 2.46798   3
   3   6   3 9.31781 2.23920  10
   4  -6   3 26.4568 4.93005   1
  -4  -6  -3 30.6267 4.44765   4
  -4  -6  -3 33.2330 4.55863   8
   4  -6   3 36.3429 4.91962   9
   4  -6   3 32.8608 5.26412   7
  -4   6  -3 33.7003 4.34313   9
   4   6   3 36.7697 5.18553   1
   4   6   3 39.0125 4.12427   5
  -4   6  -3 36.6404 5.26652   3
  -4   6  -3 31.9337 5.73775   7
  -4   6  -3 23.5974 5.20099   5
  -4   6  -3 42.1115 6.29412   1
   5  -6   3 13.2522 3.65888   1
  -5  -6  -3 21.6398 3.61411   4
  -5  -6  -3 17.9617 3.16180   8
   5  -6   3 20.6071 3.64661   7
   5  -6   3 17.2460 3.43104   9
  -5   6  -3 16.5040 3.68663   3
  -5   6  -3 17.8070 4.47955   7
  -5   6  -3 21.7629 3.12821   9
   5   6   3 14.8563 3.19464   1
  -5   6  -3 19.4023 4.49981   5
  -5   6  -3 23.8010 5.18189   1
   6  -6   3 11.3084 2.86156   7
  -6  -6  -3 11.6304 2.37487   8
   6  -6   3 13.1915 3.21795   9
   6  -6   3 11.1567 3.62093   1
  -6  -6  -3 15.3753 3.27875   4
  -6   6  -3 15.3047 4.21148   7
  -6   6  -3 9.32676 3.69977   5
  -6   6  -3 8.81949 2.95925   3
  -6   6  -3 13.0337 4.22649   1
   6   6   3 10.9017 2.63260   1
  -7  -6  -3 1.96922 2.27778   4
   7  -6   3 1.61530 1.77391   7
   7  -6   3 8.86785 3.16723   1
  -7  -6  -3 1.98539 1.61486   8
  -7   6  -3 3.69507 3.75238   1
   7   6   3 3.01405 1.97105   1
  -7   6  -3 3.45758 2.58187   3
  -7   6  -3 7.59066 3.42545   5
  -7   6  -3 3.15161 2.85099   7
  -8  -6  -3 26.7058 4.75818   4
   8  -6   3 19.6804 4.46498   1
  -8  -6  -3 22.0527 3.22911   8
   8  -6   3 28.0389 4.14672   7
  -8   6  -3 19.9027 4.95566   3
  -8   6  -3 19.6488 5.00939   5
  -8   6  -3 20.4566 4.67835   7
   8   6   3 22.1512 3.80351   1
   9  -6   3 32.5962 4.28586   5
   9  -6   3 22.4576 4.93638   1
  -9  -6  -3 30.8412 4.01177   8
   9  -6   3 29.0690 4.37989   7
  -9   6  -3 30.7463 5.41314   7
  -9   6  -3 24.1156 5.51288   3
   9   6   3 34.8714 4.52980   1
  -9   6  -3 35.8295 6.52072   5
  10  -6   3 4.43688 2.74858   1
  10  -6   3 2.65516 1.76573   5
 -10  -6  -3 1.98864 1.62902   8
 -10   6  -3 3.01235 2.56948   7
  11  -6   3 2.38868 1.50622   5
  11  -6   3 1.03338 2.53278   1
 -11  -6  -3 6.08207 2.09813   8
 -11   6  -3 -0.0555 2.31927   7
 -11  -7   3 15.2746 2.02592   8
  11  -7  -3 7.70736 3.75896   1
 -10   7   3 477.581 44.7401   7
   9  -7  -3 22.0920 5.39740   1
  -9  -7   3 17.4435 2.06840   8
  -9   7   3 12.5532 4.41704   7
  -8  -7   3 2.72369 0.78406   8
   8  -7  -3 3.47790 3.22059   1
  -8   7   3 6.65425 3.38993   7
   7  -7  -3 2.64809 2.25679   7
  -7  -7   3 4.63420 0.92105   8
   7  -7  -3 0.87398 3.18582   1
  -7   7   3 9.20076 4.08583   5
  -7   7   3 6.35616 3.48607   7
  -6  -7   3 1284.90 118.962   8
   6  -7  -3 1575.09 122.261   1
   6  -7  -3 1364.59 121.662   7
  -6   7   3 1344.73 122.393   7
  -6   7   3 1283.57 121.271   5
   5  -7  -3 29.3997 4.93373   7
   5  -7  -3 25.8248 5.40061   1
   5  -7  -3 22.2327 3.82197   9
  -5  -7   3 22.7678 2.61473   8
  -5   7   3 26.3749 5.32676   7
  -5   7   3 25.6203 5.53859   5
  -5   7   3 24.4696 5.49554   1
   5   7  -3 22.6961 3.58068   1
   4  -7  -3 14.2039 3.72743   7
   4  -7  -3 10.9689 3.93000   4
   4  -7  -3 15.8729 3.06800   9
   4  -7  -3 19.4891 4.04579   1
  -4  -7   3 16.9920 2.08616   8
  -4   7   3 9.14696 3.42350   1
  -4   7   3 10.4339 3.93743   7
   4   7  -3 12.0167 2.64396   1
  -4   7   3 11.5061 3.78486   5
   3  -7  -3 25.2758 4.59734   1
   3  -7  -3 26.1628 5.17111   4
  -3  -7   3 23.9356 3.07062   8
   3  -7  -3 29.2145 4.65949   9
  -3   7   3 24.8747 3.61474   9
   3   7  -3 31.1530 4.05185   1
  -3   7   3 25.4250 5.23176   7
  -3   7   3 23.5042 5.18192   1
  -3   7   3 24.2640 5.01192   5
   2  -7  -3 2114.37 200.151   4
  -2  -7   3 2217.74 185.063   8
   2  -7  -3 2040.86 186.401   1
   2  -7  -3 2344.94 194.535   9
  -2   7   3 2246.29 188.534   7
  -2   7   3 1990.19 193.563   9
  -2   7   3 1882.16 187.194   1
  -1  -7   3 5.12525 1.65686   8
   1  -7  -3 2.37955 1.84288   4
  -1  -7   3 6.22507 1.90207   7
   1  -7  -3 5.40582 1.95253   1
  -1   7   3 1.72918 1.16752   9
  -1   7   3 1.56546 2.45447   5
   1   7  -3 3.03264 1.97845   1
   1   7  -3 2.36664 1.71977   6
  -1   7   3 4.73057 2.77173   7
  -1   7   3 3.07459 2.78372   1
   0  -7   3 64.7229 6.42771   8
   0  -7  -3 65.5970 6.79655   4
   0  -7   3 47.6524 6.71700   7
   0  -7  -3 63.7137 6.39247   1
   0   7  -3 55.6585 6.22206  10
   0   7   3 84.4390 8.19731   1
   0   7  -3 66.0094 6.64612  10
   0   7   3 60.0366 6.20655   9
   0   7  -3 55.2251 6.03433   5
   0   7  -3 54.6273 6.61635   1
   0   7   3 53.6260 8.05817   7
   0   7   3 53.9799 7.71292   5
   0   7   3 55.3772 8.10324  10
   0   7  -3 63.2349 6.75986   6
   0   7  -3 50.7175 6.24709   7
   1  -7   3 157.993 16.3474   7
  -1  -7  -3 145.131 16.2388   4
   1   7   3 150.735 17.5790  10
  -1   7  -3 163.095 16.5627  10
  -1   7  -3 154.216 15.3245   9
  -1   7  -3 156.030 15.5609   5
  -1   7  -3 195.552 15.9851   1
   1   7   3 166.977 16.8236   7
  -1   7  -3 190.031 16.2644   6
   1   7   3 160.543 16.3143   5
  -1   7  -3 146.376 17.1689  10
   1   7   3 177.522 17.0613  10
   1   7   3 177.752 15.5862   9
  -1   7  -3 161.599 15.9209   7
   1   7   3 181.011 16.5208   1
   2  -7   3 2497.27 216.285   7
  -2  -7  -3 2490.66 229.253   4
   2   7   3 2709.48 216.039   7
   2   7   3 2051.73 236.951  10
  -2   7  -3 2619.42 214.248   1
  -2   7  -3 2528.72 215.910   7
   2   7   3 2613.84 213.708   5
  -2   7  -3 2530.16 220.095   6
   2   7   3 2112.02 214.276   1
  -2   7  -3 2246.55 222.213   9
   2   7   3 2216.92 236.543  10
  -2   7  -3 2673.80 237.872  10
  -3  -7  -3 7.00686 1.75469   4
   3  -7   3 0.04096 2.21053   7
   3  -7   3 4.54909 2.30903   1
  -3  -7  -3 5.02697 1.61222   8
  -3   7  -3 3.37003 1.38511   9
   3   7   3 5.48249 2.55040   1
   3   7   3 5.33581 1.26189  10
  -3   7  -3 3.74267 1.86601   3
   3   7   3 3.93088 2.09288   5
  -3   7  -3 4.71618 2.38237   1
  -3   7  -3 4.71781 2.62709   6
   3   7   3 4.38226 1.42128  10
  -3   7  -3 3.06071 2.44324   7
  -3   7  -3 4.00975 2.52019   5
  -3   7  -3 3.24833 1.29616   9
   4  -7   3 62.5187 7.85408   7
  -4  -7  -3 70.5576 7.01327   4
   4  -7   3 65.8637 7.63397   1
  -4  -7  -3 55.8624 6.42956   8
  -4   7  -3 54.1273 7.78946   7
  -4   7  -3 63.3983 6.79724   9
   4   7   3 67.9892 7.60902   1
  -4   7  -3 57.3311 7.76634   1
  -4   7  -3 61.1214 7.82442   5
  -4   7  -3 66.4979 7.86931   3
   5  -7   3 149.700 16.9505   7
  -5  -7  -3 151.206 17.2925   4
   5  -7   3 168.873 17.1449   1
  -5  -7  -3 178.300 16.0728   8
   5  -7   3 210.512 17.4238   9
  -5   7  -3 160.107 16.7304   9
   5   7   3 160.715 16.6995   1
  -5   7  -3 199.846 17.8426   7
  -5   7  -3 168.617 19.1965   3
  -5   7  -3 220.944 18.0478   1
  -5   7  -3 180.024 17.4368   5
  -6  -7  -3 1502.11 118.926   8
   6  -7   3 1440.45 125.010   9
   6  -7   3 1325.03 120.836   7
   6  -7   3 1367.17 120.522   1
   6   7   3 1398.92 119.712   1
  -6   7  -3 1319.58 120.244   5
  -6   7  -3 1151.80 140.023   3
  -6   7  -3 1283.91 124.604   9
  -6   7  -3 1431.86 121.594   7
   7  -7   3 -0.4753 1.73364   7
  -7  -7  -3 -0.4833 1.13041   8
   7  -7   3 2.43197 2.60420   1
  -7   7  -3 4.58897 2.73273   3
  -7   7  -3 2.71833 3.37208   1
  -7   7  -3 2.73824 2.65521   5
   7   7   3 2.24379 1.98018   1
  -7   7  -3 0.10173 2.21534   7
  -8  -7  -3 41.6777 4.94381   8
   8  -7   3 27.8659 5.80913   1
   8  -7   3 35.8646 5.37426   7
  -8   7  -3 34.8101 5.97438   7
   8   7   3 42.3399 5.21973   1
  -8   7  -3 33.5535 6.30175   3
  -8   7  -3 45.8838 6.88623   5
   9  -7   3 38.1982 5.61292   5
   9  -7   3 55.0655 7.33149   1
   9  -7   3 46.7220 6.13290   7
  -9  -7  -3 52.0157 5.74441   8
  -9   7  -3 51.2276 7.58132   5
   9   7   3 54.8013 6.22377   1
  -9   7  -3 52.6883 7.16388   7
  10  -7   3 591.527 54.6544   5
  10  -7   3 536.687 55.7259   1
 -10  -7  -3 667.958 54.7255   8
 -10   7  -3 677.025 56.2256   5
 -10   7  -3 608.629 55.9901   7
  11  -7   3 13.8980 3.90221   1
 -11  -7  -3 17.3222 3.14159   8
  11  -7   3 23.4158 3.25261   5
  10  -8  -3 37.6024 7.08670   1
 -10  -8   3 48.6432 4.58836   8
  -9  -8   3 85.3210 7.28162   8
   9  -8  -3 53.4198 9.63951   1
  -9   8   3 80.5130 10.0808   7
   8  -8  -3 36.3047 7.09482   1
  -8  -8   3 51.8649 4.57684   8
  -8   8   3 44.1124 7.67524   5
  -8   8   3 39.0347 7.13461   7
  -7  -8   3 56.9422 5.35907   8
   7  -8  -3 62.3985 8.37564   1
   7  -8  -3 60.8760 7.25243   7
  -7   8   3 63.3946 8.85722   5
  -7   8   3 45.8923 7.89173   7
   6  -8  -3 16.4469 4.42431   1
  -6  -8   3 15.8715 2.02883   8
   6  -8  -3 27.3813 4.40784   7
  -6   8   3 14.9154 4.42931   7
  -6   8   3 21.6118 4.92148   5
  -5  -8   3 149.832 12.2037   8
   5  -8  -3 127.072 13.8953   7
   5  -8  -3 142.998 14.3191   1
   5   8  -3 141.734 13.0375   1
  -5   8   3 134.080 14.5721   7
  -5   8   3 119.553 14.3553   1
  -5   8   3 103.581 14.0133   5
   4  -8  -3 15.7478 3.40000   9
   4  -8  -3 17.3423 3.77263   4
  -4  -8   3 20.2832 2.35583   8
   4  -8  -3 21.2977 4.17959   1
   4  -8  -3 11.8351 3.44514   7
  -4   8   3 17.8949 2.95198   9
  -4   8   3 16.5471 4.47235   5
  -4   8   3 14.3935 4.06492   7
  -4   8   3 14.3918 4.25367   1
   4   8  -3 17.3805 3.20991   1
   3  -8  -3 88.0600 9.72642   1
   3  -8  -3 81.9626 9.74070   7
   3  -8  -3 100.528 10.2973   9
   3  -8  -3 82.1213 9.86119   4
  -3  -8   3 78.1787 8.38087   8
  -3   8   3 99.3338 10.6114   5
  -3   8   3 95.3781 9.17153   9
  -3   8   3 87.3730 10.7298   1
  -3   8   3 100.826 10.7990   7
   3   8  -3 99.2703 9.35090   1
  -2  -8   3 1.44743 1.16016   8
   2  -8  -3 2.53655 1.85724   1
   2  -8  -3 2.35305 1.75314   4
  -2   8   3 1.08376 2.61747   5
  -2   8   3 2.27116 1.15222   9
  -2   8   3 -0.4296 2.33968   7
  -2   8   3 1.82222 2.87703   1
   2   8  -3 1.52482 1.70632   1
   1  -8  -3 244.756 21.8003   4
  -1  -8   3 255.499 20.1416   8
  -1  -8   3 184.884 20.1956   7
  -1   8   3 214.888 21.3491   5
  -1   8   3 203.203 21.4849   7
   1   8  -3 237.054 20.3774   1
  -1   8   3 212.165 21.5123   1
  -1   8   3 213.409 20.7150   9
   1   8  -3 212.293 20.8656   6
   0  -8  -3 8.99611 2.10482   4
   0  -8   3 5.58856 2.03139   7
   0  -8   3 9.00101 2.01289   8
   0   8  -3 7.68175 2.21513   6
   0   8  -3 8.69368 1.78433  10
   0   8   3 5.71356 3.27526  10
   0   8  -3 8.61810 1.59553  10
   0   8   3 4.22535 2.79877   5
   0   8  -3 9.40849 1.81649   5
   0   8   3 8.27536 1.66516   9
   0   8   3 7.31567 3.18397   7
   0   8  -3 10.8007 2.35690   1
   0   8   3 8.92838 3.30086   1
  -1  -8  -3 88.4868 8.20382   4
   1  -8   3 62.4004 8.11450   7
  -1   8  -3 81.4354 8.15444   7
   1   8   3 77.7571 8.95772   1
   1   8   3 83.3365 8.26444  10
  -1   8  -3 80.6744 8.61636  10
  -1   8  -3 69.2586 7.73792   5
  -1   8  -3 78.6396 8.20704   6
   1   8   3 79.1508 9.27773   7
   1   8   3 72.2959 9.18608  10
  -1   8  -3 65.8330 7.85422  10
  -1   8  -3 72.8786 7.89585   1
   1   8   3 69.8865 8.65225   5
   2  -8   3 0.67586 1.98051   7
  -2  -8  -3 5.17412 1.58357   4
   2   8   3 6.60174 2.22139  10
  -2   8  -3 2.63670 2.20503   7
  -2   8  -3 2.77451 2.02648  10
  -2   8  -3 4.94148 1.22403   9
  -2   8  -3 4.57546 2.21523   5
   2   8   3 1.83727 2.21453   5
   2   8   3 3.16978 1.30260  10
  -2   8  -3 5.46080 2.17660   1
  -2   8  -3 3.47774 2.03365   6
   2   8   3 3.52374 2.74089   1
  -3  -8  -3 273.245 23.6579   8
   3  -8   3 216.498 25.0350   7
   3   8   3 291.504 24.9345   1
   3   8   3 252.541 23.8106   5
  -3   8  -3 272.420 24.5924   9
  -3   8  -3 234.213 24.7010   7
  -3   8  -3 280.479 25.2163   6
  -3   8  -3 260.858 24.5773   5
  -3   8  -3 273.838 24.4037   1
   4  -8   3 32.5677 5.37865   7
  -4  -8  -3 26.8957 3.61867   8
   4  -8   3 31.1283 5.06928   1
  -4   8  -3 30.7683 5.25600   7
  -4   8  -3 27.1479 4.49976   3
  -4   8  -3 26.9507 4.59091   1
  -4   8  -3 33.1659 5.04459   5
   4   8   3 37.6906 5.27843   1
   5  -8   3 21.8479 4.51721   1
  -5  -8  -3 32.4078 3.70673   8
   5  -8   3 32.2062 5.11071   7
   5   8   3 25.3569 4.49153   1
  -5   8  -3 33.2882 4.95466   3
  -5   8  -3 38.5782 5.27661   1
  -5   8  -3 25.8514 4.88927   7
  -5   8  -3 27.4931 4.85871   5
   6  -8   3 1.99361 2.12631   7
   6  -8   3 1.57477 2.12174   1
  -6  -8  -3 2.51996 1.36920   8
  -6   8  -3 2.68537 2.13565   3
  -6   8  -3 2.86557 2.82414   1
  -6   8  -3 1.49374 2.24525   7
   6   8   3 1.62213 1.89532   1
  -6   8  -3 1.02995 2.40722   5
  -7  -8  -3 205.081 16.6648   8
   7  -8   3 171.610 17.7133   7
   7  -8   3 209.077 18.3667   1
  -7   8  -3 192.612 18.2561   5
   7   8   3 158.417 17.0547   1
  -7   8  -3 167.769 17.9703   7
  -7   8  -3 167.342 20.2449   3
  -8  -8  -3 55.4176 5.96549   8
   8  -8   3 55.2798 7.62626   1
   8  -8   3 49.4057 7.09816   7
  -8   8  -3 71.2289 8.14879   5
   8   8   3 54.9702 6.68060   1
  -8   8  -3 58.0444 7.49489   7
   9  -8   3 16.8736 4.27299   1
   9  -8   3 12.2238 3.15549   7
   9  -8   3 9.88805 2.76860   5
  -9  -8  -3 15.1392 2.50794   8
  -9   8  -3 14.8024 3.92462   5
  -9   8  -3 15.3335 3.65864   7
   9   8   3 14.9665 3.46174   1
  10  -8   3 4.30677 2.17682   5
  10  -8   3 9.20120 3.23913   1
 -10  -8  -3 4.48532 1.83091   8
 -10   8  -3 5.95936 3.36679   5
   9  -9  -3 -3.6645 2.64046   1
  -9  -9   3 -0.0540 0.81202   8
  -9   9   3 -0.4243 2.92347   5
   8  -9  -3 16.8967 4.56531   1
  -8  -9   3 22.7219 2.45530   8
  -8   9   3 17.4430 4.69367   7
  -8   9   3 20.6009 4.97336   5
  -7  -9   3 67.8196 6.51379   8
   7  -9  -3 68.9847 8.87746   1
   7  -9  -3 69.1842 8.35919   7
  -7   9   3 84.1205 9.71496   5
  -7   9   3 73.0620 9.22552   7
   6  -9  -3 234.378 19.7839   1
   6  -9  -3 169.196 18.9139   7
  -6  -9   3 199.930 17.2970   8
  -6   9   3 174.339 19.4663   5
  -6   9   3 196.069 19.7829   7
   5  -9  -3 25.2967 4.79690   1
   5  -9  -3 24.3294 4.63550   7
  -5  -9   3 31.3096 2.99420   8
  -5   9   3 17.5509 4.79592   7
  -5   9   3 30.6892 5.71858   5
   5   9  -3 25.1985 3.96094   1
  -5   9   3 19.3772 4.70083   1
   4  -9  -3 114.439 12.7619   4
   4  -9  -3 106.963 12.4615   1
  -4  -9   3 135.308 11.2623   8
   4  -9  -3 114.754 12.6659   7
  -4   9   3 122.041 13.4204   1
  -4   9   3 108.605 13.0541   5
   4   9  -3 150.040 12.3735   1
  -4   9   3 115.363 13.3508   7
   3  -9  -3 105.507 11.3542   4
  -3  -9   3 120.134 10.0764   8
   3  -9  -3 106.430 11.0201   7
   3  -9  -3 116.745 11.2087   1
  -3   9   3 101.694 11.8110   5
  -3   9   3 97.3806 11.8707   7
   3   9  -3 103.754 10.7180   1
  -3   9   3 95.5053 11.8813   1
   2  -9  -3 344.388 31.3903   4
  -2  -9   3 294.706 29.1031   7
  -2   9   3 301.770 30.3203   1
  -2   9   3 298.976 30.2003   5
  -2   9   3 337.348 30.6940   7
   2   9  -3 358.369 29.3101   1
  -1  -9   3 43.1677 4.60620   7
   1  -9  -3 44.8542 5.09262   4
  -1   9   3 38.9750 6.19221   7
  -1   9   3 36.0759 6.02171   5
   1   9  -3 36.7864 4.84766   1
  -1   9   3 35.3376 5.92732   1
   0  -9   3 202.801 22.3600   7
   0   9  -3 269.720 24.0994  10
   0   9  -3 261.010 22.5430   1
   0   9   3 249.506 25.7531  10
   0   9  -3 210.488 21.8828   5
   0   9   3 290.373 23.6649   5
   0   9   3 246.073 23.6618   7
   0   9   3 253.296 23.5581   1
   1  -9   3 17.7641 3.18458   7
  -1   9  -3 25.7280 3.54236  10
  -1   9  -3 20.1824 3.40139   1
  -1   9  -3 24.1318 3.34228   5
   1   9   3 18.7865 3.84624  10
   1   9   3 22.9027 4.66216   1
   1   9   3 25.3698 4.32622   5
  -1   9  -3 20.9150 2.82552  10
   2  -9   3 400.874 40.3333   7
  -2   9  -3 441.223 40.9380   6
   2   9   3 424.879 39.7635   5
  -2   9  -3 460.364 40.2928   7
  -2   9  -3 424.120 39.7526   5
  -2   9  -3 464.596 39.9064   1
   2   9   3 412.180 40.4991   1
  -2   9  -3 516.289 44.6063  10
   3  -9   3 23.1830 4.56590   7
  -3   9  -3 24.2970 4.28932   7
  -3   9  -3 29.4890 4.43376   1
   3   9   3 32.4812 4.94156   1
  -3   9  -3 27.4970 4.29693   5
   4  -9   3 159.729 15.9191   7
  -4   9  -3 160.471 15.5136   7
  -4   9  -3 159.918 15.3267   5
   4   9   3 150.809 15.3429   1
  -4   9  -3 146.345 15.0245   1
   5  -9   3 4.22374 2.60777   7
  -5   9  -3 3.77179 2.53518   7
  -5   9  -3 5.20335 2.61855   1
  -5   9  -3 4.68412 2.65632   5
   5   9   3 3.07115 2.22863   1
   6  -9   3 288.673 28.2431   7
   6  -9   3 332.415 28.4418   1
  -6  -9  -3 352.739 26.8090   8
  -6   9  -3 268.997 27.7591   1
  -6   9  -3 321.447 28.1704   5
   6   9   3 257.997 27.4207   1
  -6   9  -3 269.983 28.0606   7
   7  -9   3 13.4105 3.54585   7
   7  -9   3 14.0332 3.73751   1
  -7  -9  -3 11.6032 2.07776   8
  -7   9  -3 14.4393 3.60174   5
   7   9   3 13.1312 3.03348   1
  -7   9  -3 13.5419 3.50590   7
  -7   9  -3 14.6915 3.67284   1
   8  -9   3 23.1978 4.98597   1
  -8  -9  -3 34.1002 3.63691   8
   8  -9   3 23.7543 4.76046   7
  -8   9  -3 32.1375 5.01356   7
  -8   9  -3 27.6130 5.00266   5
   8   9   3 26.3282 4.46250   1
  -9  -9  -3 1.55290 1.35588   8
   9  -9   3 -0.7816 2.43986   1
   9  -9   3 1.03174 2.19023   7
  -9   9  -3 1.77869 2.75665   5
   7 -10  -3 161.612 14.9339   1
   7 -10  -3 137.958 14.4579   7
  -7 -10   3 149.844 12.8015   8
  -7  10   3 132.257 14.9533   5
  -7  10   3 120.134 14.7676   7
   6 -10  -3 32.2490 5.20905   1
   6 -10  -3 32.1147 5.30176   7
  -6 -10   3 30.5070 3.24199   8
  -6  10   3 29.1618 5.51812   7
  -6  10   3 32.2188 5.68523   5
  -5 -10   3 273.979 23.5046   8
   5 -10  -3 291.357 25.1147   1
   5 -10  -3 265.955 25.0404   7
  -5  10   3 280.611 25.6721   1
  -5  10   3 245.454 25.5783   7
  -5  10   3 227.017 25.2423   5
   4 -10  -3 46.8504 6.16958   7
  -4 -10   3 55.2759 5.25352   8
   4 -10  -3 41.6783 6.42829   1
  -4  10   3 55.1866 7.48387   5
  -4  10   3 51.3819 7.48642   7
   4  10  -3 67.2385 6.37777   1
  -4  10   3 48.6065 7.63201   1
   3 -10  -3 200.373 17.8419   7
  -3 -10   3 169.116 16.9346   8
  -3  10   3 202.511 19.0217   7
   3  10  -3 207.115 17.7175   1
  -3  10   3 189.786 18.7085   5
  -3  10   3 169.183 18.5416   1
   2 -10  -3 40.9823 4.51727   7
   2  10  -3 32.5394 4.32854   1
  -2  10   3 29.1667 5.31794   1
  -2  10   3 30.2053 5.35685   5
  -2  10   3 29.3351 5.36249   7
  -1 -10   3 337.780 31.6885   7
  -1  10   3 324.979 32.6283   1
  -1  10   3 388.624 33.1642   7
  -1  10   3 316.217 32.3999   5
   1  10  -3 393.027 31.8021   1
   0 -10   3 108.805 10.9478   7
   0  10  -3 134.220 11.2110   1
   0  10   3 104.361 12.1231   1
   0  10   3 107.149 11.7649   5
   1 -10   3 177.351 16.7984   7
   1  10   3 197.756 17.2676   5
  -1  10  -3 175.719 16.7942   1
   1  10   3 170.039 17.6832   1
   2 -10   3 4.79544 1.87381   7
  -2  10  -3 5.61991 2.07635   1
   2  10   3 3.19133 2.41046   1
  -2  10  -3 2.42846 1.73163   5
   3 -10   3 283.443 30.7190   7
   3  10   3 310.382 30.9609   1
  -3  10  -3 368.659 30.5744   1
  -3  10  -3 375.904 30.9002   7
  -3  10  -3 335.334 30.4595   5
   4 -10   3 97.4211 11.2742   7
   4  10   3 98.4094 11.1899   1
  -4  10  -3 105.561 10.8736   1
  -4  10  -3 104.275 11.0050   5
  -4  10  -3 136.549 11.4842   7
   5 -10   3 95.5206 11.4937   7
  -5  10  -3 134.959 11.6320   7
  -5  10  -3 112.080 11.0305   1
   5  10   3 100.045 11.1101   1
  -5  10  -3 101.662 11.1537   5
   6 -10   3 8.55494 2.94497   7
  -6  10  -3 11.2979 3.05517   5
   6  10   3 9.21982 2.60066   1
  -6  10  -3 13.4297 3.11748   1
  -6  10  -3 8.79394 2.98286   7
   7 -10   3 173.805 18.3606   7
  -7  10  -3 197.600 18.3043   7
  -7  10  -3 189.512 18.2418   5
  -7  10  -3 183.329 18.3162   1
   7  10   3 190.483 17.8102   1
  -6 -11   3 4.00516 1.08370   8
  -6  11   3 1.43075 2.61492   5
   5 -11  -3 28.6622 4.36305   7
  -5 -11   3 26.7827 3.09766   8
  -5  11   3 30.5990 5.68228   1
  -5  11   3 28.9552 5.24534   5
   5  11  -3 31.5203 4.17559   1
  -5  11   3 28.7379 5.12459   7
   4 -11  -3 154.581 15.0080   7
  -4  11   3 173.232 16.0239   5
  -4  11   3 156.026 16.0226   7
  -4  11   3 146.159 15.9516   1
   3 -11  -3 25.6518 3.68372   7
  -3  11   3 22.4277 4.41040   5
  -3  11   3 22.6962 4.68195   7
  -3  11   3 23.8889 4.85962   1
   3  11  -3 32.7783 4.04085   1
   2 -11  -3 3.96044 1.68223   7
  -2  11   3 0.04754 2.35632   7
   2  11  -3 3.49931 1.80472   1
  -2  11   3 4.58374 2.65231   5
  -2  11   3 -2.7478 2.12960   1
   1 -11  -3 96.8050 8.40324   7
  -1 -11   3 71.4730 7.82694   7
  -1  11   3 72.6338 9.19695   1
   1  11  -3 87.9918 8.29785   1
  -1  11   3 75.1816 8.78574   5
   0 -11   3 244.009 20.6114   7
   0  11   3 186.075 21.3027   1
   0  11  -3 223.068 20.6954   1
   0  11   3 240.113 21.0633   5
   1 -11   3 37.2293 4.29929   7
   1  11   3 25.2272 5.04094   1
  -1  11  -3 36.4234 4.54832   1
   1  11   3 38.0971 4.57681   5
   2 -11   3 2.89591 1.51138   7
   2  11   3 2.41599 2.56955   1
  -2  11  -3 1.04660 1.61916   1
  -2  11  -3 1.88541 1.51420   5
   3 -11   3 119.076 13.1169   7
  -3  11  -3 160.649 13.2090   5
  -3  11  -3 132.383 13.1842   1
   3  11   3 135.272 13.7712   1
   4 -11   3 189.792 19.1821   7
  -4  11  -3 196.598 19.0027   1
  -4  11  -3 208.755 19.0110   5
   4  11   3 218.529 19.5337   1
   5 -11   3 20.6279 3.97178   7
  -5  11  -3 24.9268 4.07832   1
   5  11   3 26.3962 4.22047   1
  -5  11  -3 26.5537 4.18703   7
  -5  11  -3 22.9833 3.99065   5
  -6  11  -3 1.93940 1.98136   1
   6  11   3 3.07620 2.22137   1
  -6  11  -3 3.56971 2.25770   5
   3  12  -3 26.6227 3.49319   1
  -3  12   3 16.6906 4.03899   1
  -3  12   3 18.6672 3.74418   5
   2  12  -3 28.1942 3.84626   1
  -2  12   3 26.3673 4.77005   1
  -2  12   3 25.7040 4.19274   5
  -1 -12   3 68.7482 6.72006   7
  -1  12   3 77.6161 8.23641   1
  -1  12   3 59.6385 7.19679   5
   1  12  -3 67.1157 7.08238   1
   0 -12   3 21.2309 2.88372   7
   0 -12  -3 22.1051 3.35368   7
   0  12  -3 18.5558 3.09143   1
   0  12   3 15.7335 3.75692   1
   0  12   3 20.4183 3.19964   5
   1 -12   3 14.6102 2.52904   7
   1  12   3 18.1351 3.73050   1
  -1  12  -3 18.4624 2.99031   1
   2  12   3 15.6626 3.59312   1
  -2  12  -3 13.3520 2.75223   1
   3  12   3 76.3300 9.25331   1
  -3  12  -3 103.456 8.69081   5
  -3  12  -3 74.4062 8.71637   1
 -13   0   4 35.1171 4.71864   8
 -12   0   4 244.740 22.6309   8
  11   0  -4 57.1616 6.75143   6
  10   0  -4 95.7529 10.0335   6
  -9   0   4 10.7416 2.09685   8
   9   0  -4 3.57770 2.36363   1
   9   0  -4 8.22390 2.43201   6
   8   0  -4 559.657 48.0208   1
  -8   0   4 526.271 46.8596   8
   8   0  -4 512.346 49.0697   6
  -7   0   4 36.2754 4.07494   8
   7   0  -4 52.4801 6.02904   1
   7   0  -4 41.0839 5.68329   6
  -7   0   4 38.1841 4.04897   8
   6   0  -4 912.354 91.2036   6
   6   0  -4 1028.68 90.1745   2
   6   0  -4 1150.52 89.1590   1
  -6   0   4 1003.08 87.4782   8
  -6   0   4 928.432 87.4423   8
   5   0  -4 15.1834 1.99395   2
  -5   0   4 9.32535 1.52154   8
  -5   0   4 11.5479 1.75496   2
   5   0  -4 12.4102 3.01289   6
  -5   0   4 10.9649 1.67259   8
  -5   0   4 26.8454 5.14601   3
  -5   0   4 12.8900 2.25885   7
  -4   0   4 632.726 64.1721   8
   4   0  -4 832.818 67.4221   6
  -4   0   4 720.238 64.3040   8
  -4   0   4 753.031 65.1536   7
  -4   0   4 761.038 66.1321   2
   4   0  -4 737.788 66.2237   2
   3   0  -4 10.5650 3.15547   6
   2   0  -4 3379.21 364.012   6
  -2   0   4 4359.81 352.590   8
  -2   0   4 4400.65 368.733   9
  -1   0   4 26.3387 4.07888   9
  -1   0   4 7.43572 2.42845  10
   1   0  -4 13.5374 3.38006  10
   1   0  -4 14.1748 2.11033   9
  -1   0   4 30.0661 4.72174  10
  -1   0   4 14.3758 2.17226   2
   0   0  -4 492.186 46.0601   9
   0   0  -4 477.823 45.8421   6
   0   0   4 461.783 44.6223   7
   0   0   4 498.354 49.8164  10
   0   0  -4 446.797 45.2976   2
   0   0   4 522.344 49.1046  10
   0   0   4 566.083 47.4468   9
   0   0   4 533.962 45.3852   2
   0   0  -4 551.233 45.1719   7
   0   0  -4 542.112 47.1564   9
   0   0  -4 487.685 50.0692  10
   0   0   4 438.354 46.0513   9
   0   0  -4 548.710 49.0800  10
   1   0   4 121.771 12.6520   2
  -1   0  -4 148.414 15.0347  10
  -1   0  -4 129.263 14.4336   9
   1   0   4 131.849 14.7844  10
   1   0   4 133.648 12.5114   7
  -1   0  -4 130.634 13.6468  10
  -1   0  -4 137.191 12.7885   9
   1   0   4 136.366 14.2680   9
   1   0   4 119.372 13.6233  10
  -1   0  -4 127.118 12.6137   2
  -2   0  -4 3717.09 366.987   9
  -2   0  -4 4529.39 367.005   9
  -2   0  -4 4438.52 354.399   7
   2   0   4 3710.79 390.550  10
   2   0   4 3578.88 360.618   2
  -2   0  -4 4369.40 361.152   2
   2   0   4 3855.07 389.991  10
   2   0   4 3717.94 366.348   9
   2   0   4 3990.18 367.433   9
  -2   0  -4 4278.59 390.409  10
   3   0   4 100.861 10.1129   7
   3   0   4 88.2495 10.2758   2
  -3   0  -4 130.987 13.6792  10
  -3   0  -4 100.729 10.3962   9
  -3   0  -4 103.280 11.2715   7
  -3   0  -4 119.659 11.6336   6
   3   0   4 119.825 12.3622   9
   3   0   4 106.988 9.95184   5
  -3   0  -4 122.830 10.4304   2
  -3   0  -4 120.747 11.1452  10
   3   0   4 86.9928 10.9569  10
   3   0   4 109.722 13.2603  10
   4   0   4 222.891 21.2178   9
   4   0   4 244.166 20.1060   9
   4   0   4 243.002 23.9545  10
   4   0   4 230.112 19.3655   5
  -4   0  -4 201.601 20.2487   9
   4   0   4 256.923 19.6830   7
   4   0   4 210.399 20.0629   2
  -4   0  -4 188.189 19.2625   8
  -4   0  -4 201.772 21.1902   6
  -4   0  -4 191.082 20.0272   2
   4   0   4 201.869 21.4489  10
   4   0   4 207.231 19.5431   1
  -4   0  -4 248.485 21.2362   7
   5   0   4 365.198 31.7279   7
  -5   0  -4 411.027 33.6175   5
   5   0   4 404.063 37.2841  10
   5   0   4 299.140 31.6176   1
   5   0   4 365.396 31.3810   5
  -5   0  -4 334.748 31.3598   8
  -5   0  -4 363.192 32.8974   9
   5   0   4 330.603 32.4601   2
  -5   0  -4 432.238 33.6402   7
   5   0   4 317.870 32.5751   9
   5   0   4 341.051 34.7895  10
   5   0   4 353.073 32.9038   9
  -5   0  -4 363.202 37.3218  10
   5   0   4 361.329 31.6647   1
   6   0   4 2539.13 203.894   7
   6   0   4 2075.25 207.888   2
   6   0   4 2593.77 225.866  10
  -6   0  -4 2159.34 201.784   8
   6   0   4 2237.55 202.785   1
   6   0   4 2297.89 201.935   5
   7   0   4 72.2322 6.95503   5
  -7   0  -4 80.5767 7.26101   8
  -7   0  -4 82.3815 9.16652   7
   7   0   4 77.0557 7.11205   7
   7   0   4 76.2797 7.58353  10
   7   0   4 63.9334 7.42630   1
   8   0   4 93.0044 8.52863   5
  -8   0  -4 101.560 10.6727   7
  -8   0  -4 91.2042 9.00473   8
   8   0   4 96.2053 9.27898   1
  -9   0  -4 423.918 33.8895   8
   9   0   4 336.884 34.0008   1
  -9   0  -4 372.547 35.1718   7
  10   0   4 820.295 71.9195   1
 -10   0  -4 883.573 71.6066   8
 -10   0  -4 721.614 72.9909   7
 -11   0  -4 23.2318 3.67713   8
  11   0   4 23.4638 3.80720   1
  12   0   4 25.0434 4.10346   1
  13   0   4 261.104 24.3391   1
 -13  -1   4 64.1414 7.02858   8
 -13   1   4 75.7318 8.08850   8
 -12  -1   4 10.2521 2.46879   8
 -12   1   4 10.8943 2.90675   8
  12   1  -4 11.6582 2.35661   6
  11  -1  -4 52.0111 6.63286   6
  11  -1  -4 49.8983 6.52388   1
  11   1  -4 45.0309 5.70546   6
 -11   1   4 55.7198 6.09810   8
  10  -1  -4 3.84860 2.45178   6
 -10  -1   4 4.90810 1.54349   8
  10  -1  -4 5.28374 2.72608   1
  10   1  -4 3.12074 1.63300   6
 -10   1   4 4.92405 2.08290   8
   9  -1  -4 246.467 21.8857   1
   9  -1  -4 237.166 22.2820   6
   9   1  -4 207.393 21.2773   6
   8  -1  -4 7.41019 3.07012   6
  -8  -1   4 3.72891 1.03133   8
   8  -1  -4 4.93200 3.05169   1
  -8  -1   4 8.32844 1.33555   8
   8   1  -4 4.81897 1.96130   6
  -8   1   4 10.1889 2.09153   8
   7  -1  -4 142.385 15.6890   6
  -7  -1   4 146.872 13.1459   8
  -7  -1   4 151.458 13.2057   8
   7  -1  -4 164.506 15.6404   1
   7   1  -4 126.323 14.3954   6
  -7   1   4 168.585 13.8826   8
   6  -1  -4 20.8740 4.53648   6
   6  -1  -4 28.4322 5.01218   1
   6  -1  -4 16.3462 2.29383   2
  -6   1   4 15.4354 2.44297   8
   6   1  -4 19.8070 3.10270   6
  -6   1   4 18.1287 3.73062   7
   6   1  -4 15.3970 2.93539   6
  -6   1   4 17.2320 2.52091   8
   6   1  -4 19.9111 2.87319   2
   5  -1  -4 903.973 76.1676   6
   5  -1  -4 792.892 74.5157   2
  -5  -1   4 805.555 74.6343   2
   5  -1  -4 952.629 74.3657   1
   5  -1  -4 708.026 76.0013   6
  -5   1   4 854.638 72.7139   8
   5   1  -4 871.409 75.0438   2
  -5   1   4 832.906 72.7755   8
   5   1  -4 758.303 75.0975   6
   4  -1  -4 308.499 24.7551   7
   4  -1  -4 263.307 25.0531   2
   4  -1  -4 265.808 25.9104   1
   4  -1  -4 309.515 26.8990   6
   4  -1  -4 279.746 27.8257   4
  -4  -1   4 282.386 25.1773   2
  -4   1   4 273.028 25.7596   9
  -4   1   4 260.626 24.9386   8
  -4   1   4 297.188 30.8313   3
  -4   1   4 244.428 25.1879   7
  -4   1   4 283.194 24.5950   8
   4   1  -4 272.117 25.6183   6
   3  -1  -4 340.560 34.8137   4
  -3  -1   4 351.799 31.9880   2
   3  -1  -4 329.450 34.4951  10
   3  -1  -4 343.968 34.4583  10
   3   1  -4 350.156 32.2881   6
  -3   1   4 384.908 32.8673   9
  -3   1   4 336.477 31.7635   7
  -3   1   4 379.436 31.8353   8
   2  -1  -4 26.3398 3.62186  10
   2  -1  -4 25.6160 2.61049   2
   2  -1  -4 24.5383 2.90010  10
   2  -1  -4 27.1964 2.57890   9
   2  -1  -4 36.7530 5.36169   6
   2  -1  -4 25.8177 2.51960   9
  -2   1   4 26.5433 3.09474  10
  -2   1   4 24.8482 3.44924   8
  -2   1   4 20.5229 2.87495   7
   2   1  -4 22.8872 2.91876   6
   1  -1  -4 877.554 87.7955  10
  -1  -1   4 867.999 79.0944   8
  -1  -1   4 962.726 82.9780   9
  -1  -1   4 832.374 81.1512   2
   1  -1  -4 1031.41 82.3446   6
   1  -1  -4 864.035 82.3733   9
   1  -1  -4 872.123 88.7273  10
   1  -1  -4 822.468 81.0760   2
   1  -1  -4 1030.08 82.9520   9
  -1  -1   4 996.324 79.7373   7
  -1   1   4 819.951 79.7569   7
  -1   1   4 832.950 81.3080   2
   1   1  -4 930.872 87.6273  10
  -1   1   4 851.174 83.4267   9
  -1   1   4 925.386 88.9641  10
   1   1  -4 1003.76 87.8224  10
   1   1  -4 817.871 81.4956   6
  -1   1   4 841.595 87.8127  10
   0  -1  -4 807.996 80.7243   2
   0  -1  -4 889.835 88.4347  10
   0  -1   4 949.362 87.3500  10
   0  -1   4 995.520 80.8022   2
   0  -1   4 889.616 87.8199  10
   0  -1  -4 1007.62 83.2459   9
   0  -1   4 843.111 79.3382   7
   0  -1   4 986.286 82.8897   9
   0  -1  -4 858.022 81.5222   6
   0  -1  -4 818.765 82.0100   9
   0   1  -4 880.502 88.0923  10
   0   1   4 880.314 82.0476   9
   0   1  -4 919.292 79.7517   7
   0   1  -4 890.678 81.2878   6
   0   1  -4 844.398 87.2836  10
   0   1   4 860.497 80.7883   2
   0   1  -4 864.965 81.9821   9
   0   1   4 917.264 87.3804  10
   0   1   4 902.312 79.3356   7
   0   1  -4 968.002 80.8190   2
   1  -1   4 480.472 47.0562   9
  -1  -1  -4 500.488 49.1379  10
   1  -1   4 477.922 49.9383  10
  -1  -1  -4 537.817 45.1051   7
   1  -1   4 430.371 48.9903  10
  -1  -1  -4 503.894 45.4042   2
   1  -1   4 480.798 45.3328   2
  -1  -1  -4 540.254 47.7309   9
  -1  -1  -4 520.505 46.0498   9
  -1  -1  -4 492.629 50.0865  10
  -1  -1  -4 519.878 45.9889   6
   1  -1   4 488.670 46.0348   9
  -1   1  -4 425.375 45.9845   6
  -1   1  -4 507.657 46.0131   9
  -1   1  -4 508.416 46.9884   9
   1   1   4 535.739 45.4398   2
  -1   1  -4 448.035 49.9938  10
   1   1   4 446.644 47.3402   9
  -1   1  -4 525.180 49.0305  10
  -1   1  -4 536.468 45.3885   2
   1   1   4 519.460 50.0273  10
  -2  -1  -4 3.70274 1.68478   7
   2  -1   4 4.01172 1.17191   7
  -2  -1  -4 8.18242 1.42710  10
   2  -1   4 5.38906 3.09471   9
   2  -1   4 2.39362 0.87701   9
  -2  -1  -4 3.42904 1.19104   2
  -2  -1  -4 3.36222 1.02043   9
   2  -1   4 6.81898 1.23770   2
   2  -1   4 4.53188 1.18058  10
  -2  -1  -4 4.43113 2.42859  10
   2  -1   4 4.53798 1.11466   5
  -2  -1  -4 11.6305 2.28089   6
   2   1   4 6.39237 1.18453   5
  -2   1  -4 2.68238 1.03342   2
   2   1   4 4.21819 1.09475  10
   2   1   4 5.11937 1.22800   2
  -2   1  -4 8.73093 2.93793   7
   2   1   4 7.85635 3.32717   9
  -2   1  -4 3.30945 0.94968   9
  -2   1  -4 4.78850 2.12542   6
  -2   1  -4 6.28345 2.94667  10
   2   1   4 6.22718 2.68100  10
   2   1   4 6.61911 1.06489   9
   2   1   4 5.41332 1.16778   7
  -2   1  -4 6.52761 2.55088   9
   3  -1   4 211.508 21.6751   9
   3  -1   4 209.339 19.8589   9
   3  -1   4 209.554 19.7185   2
  -3  -1  -4 216.169 20.0414   7
  -3  -1  -4 201.010 21.2536  10
  -3  -1  -4 184.036 21.9130   4
  -3  -1  -4 229.360 19.8996   2
   3  -1   4 179.393 21.1850  10
  -3  -1  -4 221.813 19.9419   9
   3  -1   4 232.150 19.2190   5
  -3  -1  -4 202.226 22.4286  10
   3  -1   4 221.209 23.9599  10
  -3  -1  -4 230.471 20.7057   6
   3  -1   4 220.894 19.4289   7
   3   1   4 252.070 21.5690   9
  -3   1  -4 226.408 20.8721   5
  -3   1  -4 256.499 21.7020   7
  -3   1  -4 185.660 19.7056   2
   3   1   4 202.964 19.2778   7
   3   1   4 194.916 19.8319   9
  -3   1  -4 247.543 21.5441   6
  -3   1  -4 200.529 22.6429  10
   3   1   4 188.850 19.0422   5
   3   1   4 204.265 22.9596  10
   3   1   4 231.466 21.1974  10
  -3   1  -4 211.372 21.2785  10
  -3   1  -4 228.674 19.9571   9
   3   1   4 181.643 19.7434   2
   4  -1   4 459.469 40.8927   2
  -4  -1  -4 473.363 45.3380  10
   4  -1   4 471.326 41.2484   9
   4  -1   4 448.973 39.8821   1
  -4  -1  -4 466.329 41.3886   9
   4  -1   4 431.333 43.9824  10
  -4  -1  -4 450.343 40.9795   2
   4  -1   4 422.144 40.1054   7
   4  -1   4 448.607 39.6738   5
  -4  -1  -4 482.162 40.9557   7
   4  -1   4 390.741 45.8296  10
  -4  -1  -4 456.387 39.4923   8
  -4   1  -4 458.874 44.1446  10
   4   1   4 430.540 45.8237  10
   4   1   4 436.660 41.6819   9
   4   1   4 410.360 39.7762   1
  -4   1  -4 424.589 42.1058   6
   4   1   4 409.700 40.8973   2
  -4   1  -4 477.177 41.4479   9
   4   1   4 456.436 39.5501   5
  -4   1  -4 432.052 45.8221  10
   4   1   4 398.667 39.8934   7
  -4   1  -4 490.248 41.2136   5
   4   1   4 490.348 43.9282  10
   4   1   4 495.823 41.2164   9
  -4   1  -4 435.391 40.9004   2
  -4   1  -4 464.594 39.5615   8
   5  -1   4 229.581 21.8620   7
   5  -1   4 217.170 21.5044   5
   5  -1   4 219.219 22.9889   9
  -5  -1  -4 282.409 23.0430   7
  -5  -1  -4 244.944 22.5295   9
   5  -1   4 243.351 21.7966   1
   5  -1   4 221.324 22.2838   9
   5  -1   4 248.460 22.3980   2
   5  -1   4 237.216 23.8526  10
  -5  -1  -4 222.609 21.4405   8
  -5   1  -4 262.688 24.1293   7
   5   1   4 255.809 21.6540   7
  -5   1  -4 252.985 21.5684   8
  -5   1  -4 242.917 23.0085   5
  -5   1  -4 238.378 22.5738   9
   5   1   4 247.807 25.3351  10
   5   1   4 271.705 21.8554   1
   5   1   4 205.608 22.2828   2
   5   1   4 256.350 23.7724  10
   5   1   4 238.053 21.3998   5
   6  -1   4 47.8998 7.51797  10
   6  -1   4 44.0567 4.64214  10
   6  -1   4 42.9440 4.72566   2
   6  -1   4 38.2267 4.64451   1
  -6  -1  -4 53.2626 6.20432   7
  -6  -1  -4 31.4619 4.13658   8
   6  -1   4 45.1605 4.53448   7
   6  -1   4 45.9726 4.29911   5
   6  -1   4 37.1802 4.08818   9
   6  -1   4 38.2767 4.38687   9
  -6   1  -4 40.3643 6.13593   5
  -6   1  -4 36.3458 4.32348   8
   6   1   4 44.8941 4.09518   5
   6   1   4 40.3321 4.17802   7
   6   1   4 55.3755 5.51832  10
  -6   1  -4 44.9668 6.89834   7
   6   1   4 41.5498 4.47304  10
   6   1   4 39.0460 4.66050   2
   6   1   4 43.7927 4.64030   1
   7  -1   4 38.9277 4.05987   7
   7  -1   4 40.6393 5.40752  10
  -7  -1  -4 34.6845 5.40210   7
   7  -1   4 35.4959 4.38882   1
   7  -1   4 41.9992 3.86759   5
   7  -1   4 31.3480 3.97366  10
  -7  -1  -4 35.9147 3.86082   8
   7   1   4 31.6838 3.50519   5
   7   1   4 38.0817 4.18780   1
  -7   1  -4 38.4249 6.27096   7
  -7   1  -4 33.7670 3.99217   8
   7   1   4 35.4201 4.24183   1
  -8  -1  -4 102.367 10.6459   8
   8  -1   4 111.852 10.4362   5
   8  -1   4 122.270 11.7219  10
   8  -1   4 100.315 11.0054   1
  -8  -1  -4 119.619 12.1022   7
   8  -1   4 110.849 11.3842  10
  -8   1  -4 117.501 12.9619   7
   8   1   4 126.088 11.1128   1
  -8   1  -4 125.267 10.9150   8
  -9  -1  -4 37.4036 4.56383   8
   9  -1   4 40.5021 5.09374   1
  -9  -1  -4 39.7142 5.97370   7
  -9   1  -4 43.8825 4.98223   8
   9   1   4 47.1833 5.04959   1
  -9   1  -4 37.7625 6.52176   7
 -10  -1  -4 33.6596 3.96767   8
  10  -1   4 27.3202 4.28339   1
 -10   1  -4 27.3717 4.05338   8
 -10   1  -4 25.7652 5.28664   7
  10   1   4 30.0159 4.21269   1
  11  -1   4 31.7495 4.66021   1
 -11  -1  -4 33.1256 4.35518   8
  11   1   4 28.7430 4.29066   1
 -11   1  -4 22.6638 5.13157   7
  12  -1   4 32.9617 4.75522   1
 -12  -1  -4 29.0036 4.27052   8
  12   1   4 25.3036 4.12593   1
 -13  -1  -4 6.21847 2.28572   8
  13  -1   4 2.25754 2.25383   1
  13   1   4 2.35291 2.25013   1
 -13  -2   4 29.1817 3.81453   8
 -13   2   4 41.2153 5.85048   8
  12  -2  -4 50.1548 7.05222   1
 -12  -2   4 61.8489 5.92956   8
  12   2  -4 48.3647 5.62778   6
 -12   2   4 68.3336 7.38072   8
  11  -2  -4 67.2393 9.03756   6
  11  -2  -4 70.2210 9.09708   1
 -11  -2   4 95.1264 7.76621   8
 -11   2   4 89.0901 8.96107   8
  11   2  -4 70.6820 7.83502   6
  10  -2  -4 48.7709 7.17965   1
  10  -2  -4 37.8908 6.80349   6
 -10  -2   4 55.3338 5.17365   8
 -10   2   4 63.4852 6.62710   8
  -9  -2   4 73.1349 6.34694   8
   9  -2  -4 60.0861 8.48230   1
  -9  -2   4 70.9722 6.41686   8
   9  -2  -4 63.9017 8.80236   6
  -9   2   4 63.7200 7.37381   8
   8  -2  -4 136.492 12.7440   6
   8  -2  -4 109.970 11.9913   1
  -8   2   4 103.477 10.0226   8
   8   2  -4 87.8778 9.67628   6
   7  -2  -4 195.977 17.8223   6
   7  -2  -4 168.222 17.0316   1
   7   2  -4 155.100 14.7981   6
  -7   2   4 156.707 15.0801   8
   7   2  -4 156.286 15.0431   6
  -7   2   4 159.446 17.0931   7
   6  -2  -4 334.554 28.8320   1
   6  -2  -4 288.708 29.3063   6
  -6   2   4 290.045 26.8979   8
  -6   2   4 362.035 33.9034   3
  -6   2   4 239.911 27.7083   7
  -5  -2   4 84.1915 8.09777   2
   5  -2  -4 80.7753 7.82445   2
   5  -2  -4 83.6523 8.25550  10
   5  -2  -4 81.6604 8.25301  10
   5  -2  -4 99.2339 8.07454   7
   5  -2  -4 82.8792 10.1631   6
   5  -2  -4 85.3125 9.91122   1
  -5   2   4 63.2867 8.65136   7
  -5   2   4 95.3856 12.1939   3
   4  -2  -4 237.133 21.5936   1
   4  -2  -4 237.196 22.2463   6
   4  -2  -4 240.285 21.6457  10
   4  -2  -4 220.798 20.1785   7
  -4  -2   4 186.597 20.1958   2
   4  -2  -4 218.591 22.8372   4
   4  -2  -4 195.357 19.9634   2
   4  -2  -4 208.015 21.6703  10
  -4   2   4 215.408 20.3407   8
  -4   2   4 263.312 25.6466   3
  -4   2   4 228.920 20.8775   9
   3  -2  -4 28.1320 3.78527  10
   3  -2  -4 28.6056 3.38105  10
   3  -2  -4 32.6421 3.19617   2
   3  -2  -4 24.3747 2.90159   9
  -3  -2   4 25.4073 3.78341   2
   3  -2  -4 29.6851 3.03020   9
   3  -2  -4 29.3040 5.44280   4
   3  -2  -4 36.7165 5.98655   6
   3  -2  -4 36.6155 5.80230   1
   3   2  -4 27.1458 2.98336   6
  -3   2   4 29.3129 4.04241  10
  -3   2   4 31.9145 3.96055   7
  -3   2   4 35.7316 4.45756   8
  -3   2   4 34.6259 4.27166   9
   2  -2  -4 964.675 87.5025   6
   2  -2  -4 842.519 91.2339   4
   2  -2  -4 950.061 87.5370   9
   2  -2  -4 1034.56 93.8377  10
   2  -2  -4 956.695 93.0321  10
  -2   2   4 946.847 94.0032  10
  -2   2   4 862.392 83.9744   8
  -2   2   4 1029.23 84.8728   7
   2   2  -4 920.517 86.1698   6
  -2   2   4 1009.28 93.3287  10
  -2   2   4 973.096 88.1230   9
   1  -2  -4 11.6402 3.63329   6
   1  -2  -4 9.19420 3.55209  10
  -1  -2   4 9.73715 1.85901   7
  -1  -2   4 9.73213 1.87127   8
   1  -2  -4 9.53619 1.67593   9
  -1  -2   4 9.70551 2.43006   2
  -1  -2   4 11.3021 2.04496   9
   1  -2  -4 18.3332 3.12234   9
   1  -2  -4 11.6722 2.09957   2
   1  -2  -4 9.05409 1.89031  10
  -1   2   4 10.4689 2.03948   7
  -1   2   4 15.0306 2.43149  10
  -1   2   4 10.3977 3.20507   9
  -1   2   4 11.1385 2.18789  10
   1   2  -4 11.0204 1.96190   3
  -1   2   4 12.5495 3.92041  10
   1   2  -4 10.4176 2.05467   6
   0  -2   4 120.402 11.1251   7
   0  -2   4 102.759 11.9317   9
   0  -2  -4 122.295 12.9504   9
   0  -2  -4 126.720 11.3901   9
   0  -2  -4 118.883 12.3977   6
   0  -2  -4 124.053 12.1820  10
   0  -2  -4 134.198 13.7910  10
   0  -2   4 113.257 11.3644   2
   0  -2   4 141.725 12.3218  10
   0   2   4 131.380 11.4521   9
   0   2   4 95.2208 12.2785   9
   0   2   4 109.159 12.2135  10
   0   2  -4 123.740 12.7853  10
   0   2  -4 115.192 11.1743   9
   0   2  -4 98.2862 11.5818   6
   0   2  -4 115.445 11.5449   7
   0   2   4 117.768 11.5616   2
   0   2  -4 117.007 12.0630  10
   0   2  -4 100.007 11.3454   9
  -1  -2  -4 152.477 16.3327  10
  -1  -2  -4 156.905 15.1968  10
  -1  -2  -4 137.083 14.1777   9
   1  -2   4 142.624 14.1449   2
   1  -2   4 145.873 13.8670   7
   1  -2   4 126.251 15.8387  10
   1  -2   4 141.553 15.1525  10
   1  -2   4 146.121 15.3849   9
  -1  -2  -4 159.114 15.2245   9
  -1  -2  -4 178.544 14.2921   2
  -1   2  -4 130.439 14.0760   2
  -1   2  -4 177.056 15.0854   7
   1   2   4 128.577 15.4955   9
   1   2   4 163.379 14.3081   2
  -1   2  -4 172.257 15.1678   6
   1   2   4 136.794 15.1769  10
  -1   2  -4 119.614 15.6261  10
  -1   2  -4 161.932 15.1426  10
   1   2   4 152.989 13.7750   7
  -1   2  -4 159.430 14.1750   9
   1   2   4 135.005 13.6431   5
   1   2   4 167.887 14.2483   9
  -2  -2  -4 1682.94 133.095   2
  -2  -2  -4 1253.66 130.707   7
   2  -2   4 1583.80 132.999   2
  -2  -2  -4 1485.29 128.987   8
  -2  -2  -4 1396.19 133.674   6
  -2  -2  -4 1557.27 140.491   4
  -2  -2  -4 1312.50 144.273  10
  -2  -2  -4 1425.59 134.989   9
   2  -2   4 1662.77 130.699   7
   2  -2   4 1469.71 134.996   9
   2  -2   4 1444.72 143.728  10
   2  -2   4 1370.14 136.319   9
  -2   2  -4 1539.81 132.962   2
   2   2   4 1588.56 129.276   5
   2   2   4 1308.71 132.973   2
   2   2   4 1291.14 144.549  10
   2   2   4 1622.64 136.346   9
  -2   2  -4 1397.29 131.231   7
   2   2   4 1608.91 134.941   9
   2   2   4 1366.63 143.642  10
  -2   2  -4 1483.80 134.954   9
  -2   2  -4 1436.93 134.471   6
  -2   2  -4 1686.24 136.851   9
  -3  -2  -4 27.5908 3.00835   8
   3  -2   4 26.8398 3.34557   1
  -3  -2  -4 24.0823 3.60456   7
  -3  -2  -4 26.4085 3.18229   9
   3  -2   4 28.3436 5.38691   9
  -3  -2  -4 29.6652 3.54422   2
  -3  -2  -4 17.9391 3.51551   6
   3  -2   4 30.3154 3.19939   9
  -3  -2  -4 29.4565 4.54501  10
   3  -2   4 25.4844 3.48036  10
  -3  -2  -4 31.8018 5.20341   4
   3  -2   4 28.3741 3.28944   2
   3  -2   4 27.1814 6.04350  10
   3  -2   4 31.4149 3.48409   7
  -3   2  -4 27.3718 3.12851   9
   3   2   4 23.1817 4.86621  10
  -3   2  -4 21.3985 5.13394  10
   3   2   4 26.7903 3.22157   1
  -3   2  -4 22.6442 4.55008   6
  -3   2  -4 32.4282 5.91397   9
  -3   2  -4 30.8483 4.90960   5
   3   2   4 28.3192 4.34754   9
   3   2   4 28.2097 3.36598  10
   3   2   4 23.1610 3.00449   5
  -3   2  -4 23.5828 3.22120   2
   3   2   4 31.2586 3.12346   9
   3   2   4 26.4626 3.45193  10
   3   2   4 27.1905 3.40009   2
  -3   2  -4 27.9658 4.60068   7
   3   2   4 26.5036 3.09330   7
   4  -2   4 7.06374 1.73393   5
  -4  -2  -4 11.0245 3.28525   4
  -4  -2  -4 10.7500 2.32956   7
  -4  -2  -4 11.1053 1.65204   8
   4  -2   4 6.61743 1.86902   1
   4  -2   4 10.7718 1.97987  10
  -4  -2  -4 15.9365 2.49502   2
   4  -2   4 5.77742 1.71775   7
   4  -2   4 4.33890 2.88859   9
   4  -2   4 4.40546 3.79448  10
  -4   2  -4 8.12295 1.77161   9
  -4   2  -4 14.1311 2.42261  10
  -4   2  -4 8.46088 3.10326   5
   4   2   4 15.8837 2.15061   1
   4   2   4 7.82904 3.14641  10
  -4   2  -4 5.81248 2.84353   6
  -4   2  -4 6.52399 1.70354   2
  -4   2  -4 7.70968 3.39858   1
   4   2   4 12.7196 1.73235   5
  -4   2  -4 14.0475 3.30280   7
  -4   2  -4 10.1321 4.06135  10
   4   2   4 5.85259 1.48813   7
  -5  -2  -4 350.948 35.0277   4
   5  -2   4 353.869 31.0913   5
   5  -2   4 294.472 31.3668   7
   5  -2   4 330.130 33.2049   9
  -5  -2  -4 408.754 32.1350   7
   5  -2   4 343.838 31.3486   1
   5  -2   4 416.870 37.5470  10
   5  -2   4 305.659 31.9159   2
   5  -2   4 359.952 32.1834   9
  -5  -2  -4 348.296 30.8363   8
   5   2   4 369.238 34.2424  10
  -5   2  -4 350.884 31.0022   8
  -5   2  -4 355.074 32.5629   7
   5   2   4 373.862 30.8278   5
   5   2   4 314.692 31.0600   7
   5   2   4 331.996 32.1367   2
  -5   2  -4 387.213 32.7492   5
   5   2   4 384.552 35.1586  10
   5   2   4 319.668 31.1400   1
  -5   2  -4 339.862 32.3938   9
  -6  -2  -4 1227.29 100.781   7
  -6  -2  -4 998.373 98.7870   8
   6  -2   4 1133.16 99.6533   1
   6  -2   4 1227.52 110.084  10
   6  -2   4 1111.22 103.726   9
   6  -2   4 1128.82 102.073   2
  -6  -2  -4 1336.70 108.967   4
   6  -2   4 1002.39 99.0312   5
  -6   2  -4 1019.15 100.940   7
   6   2   4 1145.73 98.7748   5
  -6   2  -4 1148.35 100.580   5
  -7  -2  -4 31.7844 4.16749   8
  -7  -2  -4 41.8632 5.40932   7
   7  -2   4 49.2985 4.75820   7
   7  -2   4 39.6426 4.35074   5
   7  -2   4 38.5438 4.86554   1
   7  -2   4 38.9618 4.57557  10
   7  -2   4 53.2633 6.83198  10
   7  -2   4 41.4605 3.97868   9
   7  -2   4 40.0840 4.11546   9
  -7   2  -4 24.7549 5.13690   7
  -7   2  -4 46.3004 4.68319   8
   7   2   4 34.4382 4.60078   1
  -7   2  -4 48.0779 6.67855   5
  -8  -2  -4 83.9309 8.47803   7
   8  -2   4 66.9735 7.75007  10
   8  -2   4 64.3100 7.12873   5
   8  -2   4 64.2436 7.84120   1
   8  -2   4 87.6777 7.57581   7
   8  -2   4 76.3396 8.50067  10
  -8   2  -4 86.0929 7.80328   8
   8   2   4 78.4404 7.66862   1
  -9  -2  -4 218.721 18.3276   8
   9  -2   4 191.272 18.0093   5
   9  -2   4 218.971 19.0970   1
   9  -2   4 201.394 19.9252  10
   9  -2   4 179.970 19.7191  10
   9   2   4 187.534 18.5268   1
   9   2   4 223.980 18.7311   1
  10  -2   4 486.746 44.4993   1
 -10   2  -4 441.597 45.0770   7
  10   2   4 543.362 44.2021   1
  11  -2   4 13.9076 3.42033   1
 -11  -2  -4 16.4119 2.87694   8
 -11  -2  -4 14.8147 4.87074   4
 -11   2  -4 15.6647 3.89213   7
  11   2   4 19.7935 3.26238   1
 -12  -2  -4 59.4632 6.26574   8
  12  -2   4 50.0971 6.63382   1
 -12  -2  -4 52.3675 8.64961   4
  12   2   4 48.0333 6.12520   1
 -13  -2  -4 78.3737 7.77383   8
  13  -2   4 67.6546 8.09812   1
 -13  -2  -4 49.0456 9.45613   4
  13   2   4 75.7897 7.75597   1
 -13  -3   4 150.905 14.7826   8
  13  -3  -4 188.644 16.6417   1
 -12  -3   4 30.5438 3.48348   8
  12  -3  -4 30.5963 5.51997   1
 -12   3   4 33.0421 5.35652   8
 -11  -3   4 79.9519 6.90850   8
  11  -3  -4 66.4001 8.95588   1
  11  -3  -4 57.4915 8.67831   6
 -11   3   4 72.4682 8.54546   8
 -10  -3   4 92.6997 7.31822   8
  10  -3  -4 56.9345 9.17828   6
  10  -3  -4 60.8919 9.32042   1
 -10  -3   4 83.3129 7.38521   8
 -10   3   4 71.8277 8.81611   8
   9  -3  -4 411.931 40.0740   1
   9  -3  -4 389.961 40.9208   6
  -9   3   4 436.613 40.5181   7
  -9   3   4 469.696 39.0245   8
   8  -3  -4 105.167 12.0289   6
   8  -3  -4 114.403 11.9415   1
  -8   3   4 95.8240 11.5253   7
  -8   3   4 75.6971 9.45941   8
   7  -3  -4 255.752 24.6475   6
   7  -3  -4 205.551 23.4267   1
  -7   3   4 277.287 27.8996   3
  -7   3   4 216.054 21.9233   8
  -7   3   4 247.104 23.7214   7
   6  -3  -4 242.651 23.2209   1
   6  -3  -4 222.631 22.4947  10
   6  -3  -4 267.003 20.9865   7
   6  -3  -4 235.124 23.7688   6
   6  -3  -4 240.068 22.5218  10
  -6   3   4 199.775 22.1742   7
  -6   3   4 198.896 26.0757   3
  -6   3   4 213.424 21.1084   8
   5  -3  -4 1065.89 96.7134   2
   5  -3  -4 1186.51 104.557  10
   5  -3  -4 1083.58 95.3269   7
   5  -3  -4 953.170 104.545  10
  -5  -3   4 966.470 96.9771   2
   5  -3  -4 1174.89 103.272   4
  -5   3   4 1226.68 112.961   3
  -5   3   4 985.621 94.4985   8
   4  -3  -4 368.412 31.1766   9
   4  -3  -4 319.044 31.8400   1
   4  -3  -4 313.749 33.4801  10
   4  -3  -4 320.654 31.0813   9
   4  -3  -4 376.178 33.1405   6
   4  -3  -4 319.382 34.0306   4
  -4  -3   4 311.430 31.2384   2
   4  -3  -4 355.153 33.3936  10
   4  -3  -4 312.278 31.1206   7
   4  -3  -4 344.287 30.9071   2
  -4   3   4 316.560 30.6346   5
  -4   3   4 350.881 31.0448   8
   4   3  -4 343.491 30.7147   6
  -4   3   4 369.725 32.0409   9
   3  -3  -4 588.148 57.6215  10
  -3  -3   4 554.935 53.3464   2
   3  -3  -4 642.706 54.1288   9
   3  -3  -4 532.758 53.1459   1
   3  -3  -4 597.031 53.9315   9
   3  -3  -4 574.289 54.9116   6
   3  -3  -4 653.579 57.6274   4
  -3   3   4 650.699 52.4203   8
  -3   3   4 581.932 52.2677   5
  -3   3   4 566.207 57.9018  10
   3   3  -4 577.245 53.2700   6
  -3   3   4 544.057 52.7765   7
  -2  -3   4 264.053 26.8463   8
   2  -3  -4 345.353 31.3474  10
   2  -3  -4 283.933 30.2469  10
   2  -3  -4 250.220 30.3553   4
  -2  -3   4 347.125 27.2250   8
   2  -3  -4 319.550 28.3216   2
   2  -3  -4 323.592 28.3254   9
   2  -3  -4 303.191 28.4709   1
   2  -3  -4 322.327 28.6209   9
  -2   3   4 286.953 27.7923   7
  -2   3   4 251.497 30.3613  10
  -2   3   4 295.893 29.0150   9
   2   3  -4 323.064 28.1563   6
  -2   3   4 314.544 31.2489  10
  -2   3   4 308.101 27.5151   5
   1  -3  -4 2207.49 176.697   2
   1  -3  -4 1781.58 178.766   9
   1  -3  -4 2177.85 179.655   9
   1  -3  -4 1947.27 190.448  10
  -1  -3   4 1938.52 172.949   7
   1  -3  -4 1651.35 176.791   6
   1  -3  -4 2053.19 191.608  10
   1   3  -4 1825.49 172.676   7
  -1   3   4 2005.10 191.504  10
   1   3  -4 2012.79 200.675   3
  -1   3   4 1850.69 172.980   7
  -1   3   4 1901.42 178.825   9
  -1   3   4 2163.05 179.842   9
   1   3  -4 2022.03 176.846   6
  -1   3   4 1883.38 171.334   5
   0  -3  -4 661.863 61.2282   9
   0  -3   4 683.455 59.5080   2
   0  -3   4 558.823 60.2657   9
   0  -3  -4 647.372 64.4439  10
   0  -3   4 718.992 64.0952  10
   0  -3  -4 716.304 59.4567   2
   0  -3  -4 542.717 62.3483   4
   0  -3  -4 752.264 60.0875   9
   0  -3   4 605.963 58.0917   7
   0  -3  -4 700.410 63.9696  10
   0   3  -4 629.605 58.0713   7
   0   3  -4 593.874 63.5435  10
   0   3   4 610.937 59.8680   9
   0   3  -4 627.697 59.5596   9
   0   3   4 577.009 64.6668  10
   0   3   4 617.315 57.5785   5
   0   3   4 703.757 60.8236   9
   0   3  -4 649.444 67.3654   3
   0   3  -4 650.346 63.8750  10
   0   3  -4 721.487 59.7382   6
   0   3   4 718.039 58.2431   7
   0   3  -4 598.607 59.4910   9
  -1  -3  -4 658.991 74.6992  10
  -1  -3  -4 798.155 70.0154   6
  -1  -3  -4 873.596 75.5642  10
   1  -3   4 825.013 69.4046   2
   1  -3   4 732.691 75.7498  10
   1  -3   4 723.685 68.0195   7
  -1  -3  -4 832.403 69.4418   2
  -1  -3  -4 789.386 73.0575   4
  -1  -3  -4 863.122 70.3792   9
   1  -3   4 808.446 71.3619   9
   1  -3   4 854.368 74.9287  10
   1   3   4 640.556 67.4689   1
  -1   3  -4 891.596 68.1954   1
  -1   3  -4 775.541 70.0719   9
   1   3   4 887.503 75.0354  10
   1   3   4 733.833 67.3443   5
   1   3   4 757.452 67.9721   7
  -1   3  -4 629.510 75.0301  10
   1   3   4 727.508 75.7510  10
   1   3   4 793.800 69.5927   2
  -1   3  -4 651.438 69.7047   6
  -1   3  -4 657.942 68.0602   7
   1   3   4 771.625 71.2504   9
  -1   3  -4 772.038 70.4782   9
  -1   3  -4 760.697 74.6955  10
   1   3   4 704.396 70.0632   9
   2  -3   4 190.312 17.0443   9
   2  -3   4 154.367 16.5506  10
   2  -3   4 162.120 15.1767   7
  -2  -3  -4 142.945 15.5967   6
  -2  -3  -4 158.627 17.0677  10
   2  -3   4 198.632 18.8583  10
  -2  -3  -4 146.152 15.4904   2
  -2  -3  -4 183.007 16.5946  10
   2  -3   4 151.792 15.4279   2
  -2  -3  -4 188.631 15.6487   9
  -2  -3  -4 162.331 16.9503   4
  -2  -3  -4 168.332 14.7732   8
   2   3   4 164.346 14.9860   1
   2   3   4 166.706 15.6184   2
  -2   3  -4 122.177 15.1674   5
  -2   3  -4 132.052 15.4144   7
   2   3   4 156.640 17.4962  10
   2   3   4 168.865 15.3612   9
  -2   3  -4 188.627 15.4470   9
  -2   3  -4 130.421 17.2385  10
  -2   3  -4 148.928 16.4206  10
  -2   3  -4 130.083 15.7658   6
   2   3   4 142.059 16.4269  10
  -2   3  -4 163.710 15.6578   1
   2   3   4 160.272 16.1740   9
  -2   3  -4 203.976 17.2052   9
   2   3   4 157.742 14.9316   5
   3  -3   4 1373.51 132.155   2
  -3  -3  -4 1391.95 138.988   4
  -3  -3  -4 1582.69 134.186   9
  -3  -3  -4 1646.26 128.208   8
   3  -3   4 1557.04 135.044   9
   3  -3   4 1605.86 129.866   7
   3  -3   4 1354.40 142.746  10
  -3  -3  -4 1294.44 143.100  10
   3  -3   4 1664.24 129.202   1
  -3  -3  -4 1442.49 132.316   2
  -3   3  -4 1556.93 142.778  10
  -3   3  -4 1401.45 133.052   6
  -3   3  -4 1585.49 130.446   7
   3   3   4 1346.73 128.690   1
  -3   3  -4 1666.77 134.106   9
   3   3   4 1293.74 132.198   2
   3   3   4 1497.86 142.643  10
   3   3   4 1433.65 134.257   9
  -3   3  -4 1331.71 132.082   2
  -3   3  -4 1504.50 135.625   9
   3   3   4 1436.34 133.856   9
  -3   3  -4 1359.43 129.268   5
  -3   3  -4 1395.28 129.469   1
   3   3   4 1472.57 128.346   5
   3   3   4 1469.61 143.697  10
   4  -3   4 657.231 63.9586  10
   4  -3   4 730.875 60.0579   9
   4  -3   4 625.621 61.0177   9
   4  -3   4 672.022 66.0629  10
  -4  -3  -4 591.894 58.2626   7
   4  -3   4 719.579 59.3274   2
   4  -3   4 636.634 58.1013   1
  -4  -3  -4 623.400 57.3058   8
  -4   3  -4 613.125 58.9442   7
   4   3   4 736.261 59.5954   2
   4   3   4 582.683 57.8661   7
   4   3   4 657.664 63.7218  10
   4   3   4 609.632 57.2967   5
  -4   3  -4 760.887 60.6375   6
   4   3   4 666.579 64.4528  10
  -4   3  -4 577.741 59.9813   9
  -4   3  -4 636.639 58.8797   5
   5  -3   4 410.071 41.2801   2
  -5  -3  -4 477.169 40.9311   7
  -5  -3  -4 426.353 39.9485   8
   5  -3   4 459.339 40.8609   1
   5  -3   4 540.222 47.1179  10
   5  -3   4 443.867 40.7358   7
   5  -3   4 421.586 44.5261  10
   5  -3   4 476.355 43.0746   9
   5   3   4 448.091 41.6597   2
   5   3   4 451.363 40.3495   1
  -5   3  -4 416.719 41.8793   9
   5   3   4 484.786 44.4231  10
   5   3   4 436.142 39.8461   5
   5   3   4 492.857 44.1781  10
  -5   3  -4 464.427 41.6540   7
   5   3   4 431.164 40.2703   7
   6  -3   4 38.2548 4.48782   7
  -6  -3  -4 33.8630 3.87311   8
   6  -3   4 30.1663 4.69863   1
   6  -3   4 32.4345 4.32552  10
  -6  -3  -4 38.7434 6.34143   4
  -6  -3  -4 39.2600 4.85631   7
   6  -3   4 33.7202 4.16649   5
   6  -3   4 34.2836 4.99357   9
  -6   3  -4 37.0930 5.56461   7
   6   3   4 30.4841 4.20370   1
  -6   3  -4 51.0249 8.03171   1
   6   3   4 36.5927 3.64010   5
  -6   3  -4 40.6873 6.45157   5
  -7  -3  -4 787.295 67.7960   8
  -7  -3  -4 768.908 74.6778   4
   7  -3   4 720.998 75.4164  10
   7  -3   4 697.163 67.9484   5
  -7  -3  -4 841.554 69.1635   7
   7  -3   4 830.834 68.8262   7
   7  -3   4 741.673 70.9438   9
   7   3   4 778.764 68.2926   1
  -7   3  -4 788.427 69.5894   5
  -7   3  -4 778.189 69.6284   7
  -8  -3  -4 408.891 39.7550   4
   8  -3   4 374.701 36.0466   1
   8  -3   4 391.804 35.7802   7
   8  -3   4 405.759 35.2495   5
   8  -3   4 417.039 39.0117  10
  -8  -3  -4 412.186 35.1676   8
  -8   3  -4 343.408 36.3775   7
   8   3   4 403.460 35.6237   1
   9  -3   4 151.845 16.5981  10
   9  -3   4 168.473 16.2915   1
  -9  -3  -4 144.824 18.0779   4
  -9  -3  -4 184.289 15.3873   8
   9  -3   4 180.242 15.2055   5
   9  -3   4 185.789 17.1368  10
   9   3   4 168.506 15.6492   1
  -9   3  -4 129.141 16.1874   7
  10  -3   4 2.81588 2.46606   1
  10  -3   4 5.62933 1.52896   5
 -10  -3  -4 2.84348 3.23639   4
 -10  -3  -4 5.14112 1.70186   8
 -10   3  -4 3.70862 2.37833   7
  10   3   4 2.83829 1.86225   1
  10   3   4 3.58547 1.90308   1
 -11  -3  -4 349.942 33.6485   4
 -11  -3  -4 314.873 29.5195   8
  11  -3   4 354.225 30.5247   1
  11   3   4 306.939 29.7452   1
  12  -3   4 160.368 16.8433   1
 -12  -3  -4 184.277 19.1551   4
 -12  -3  -4 177.740 16.1796   8
  12   3   4 169.232 16.3096   1
  13  -3   4 58.3629 7.36373   1
 -13  -3  -4 57.4199 6.62918   8
 -13  -3  -4 54.7181 8.74681   4
 -12  -4   4 4.69992 1.25911   8
  12  -4  -4 4.50016 3.16814   1
  11  -4  -4 74.7249 10.4834   1
 -11  -4   4 96.6717 8.22741   8
  11  -4  -4 79.9183 10.6541   6
  10  -4  -4 20.7752 5.12723   1
  10  -4  -4 28.4220 5.68897   6
 -10   4   4 25.9301 5.79977   7
   9  -4  -4 68.9343 9.84380   1
   9  -4  -4 55.5798 9.17409   6
  -9   4   4 70.0028 9.89659   7
  -9   4   4 65.4344 7.34866   8
   8  -4  -4 25.2021 2.76689   5
   8  -4  -4 18.3232 5.24664   6
   8  -4  -4 21.1422 5.68925   1
  -8   4   4 16.5400 4.99332   7
  -8   4   4 16.7011 3.30363   8
   7  -4  -4 170.677 16.7884   6
   7  -4  -4 143.234 14.1971  10
   7  -4  -4 134.352 15.7984   1
   7  -4  -4 155.272 14.2997  10
  -7   4   4 128.320 15.1924   7
  -7   4   4 110.294 13.5206   8
  -7   4   4 174.845 18.6105   3
   6  -4  -4 37.8747 6.77698   1
   6  -4  -4 42.6421 6.88287   6
   6  -4  -4 28.8487 3.75749   7
   6  -4  -4 21.8400 3.20707  10
  -6   4   4 22.4067 3.64023   8
  -6   4   4 19.0286 4.62346   7
  -6   4   4 24.2559 5.92381   3
   5  -4  -4 63.6106 7.51260   7
   5  -4  -4 64.3804 9.13125   1
   5  -4  -4 70.5066 7.52259  10
   5  -4  -4 56.2076 9.10708   4
   5  -4  -4 79.8058 9.79367   6
   5  -4  -4 72.6930 6.99580   2
   5  -4  -4 69.9301 7.40951  10
   5  -4  -4 60.9530 6.48049   9
   5  -4  -4 82.3623 6.70033   9
  -5  -4   4 61.2057 7.16126   2
  -5   4   4 67.6917 8.44106   7
  -5   4   4 48.4725 7.64244   5
   5   4  -4 68.9875 6.81477   6
   5   4  -4 67.6170 6.75236   6
   4  -4  -4 78.0325 8.72210   7
   4  -4  -4 81.6497 9.28491   1
   4  -4  -4 73.2691 7.48545   2
   4  -4  -4 69.3522 8.06625  10
   4  -4  -4 80.3213 9.68283   6
   4  -4  -4 73.6324 9.78098   4
   4  -4  -4 72.4309 7.20824   9
   4  -4  -4 82.6054 8.54718  10
  -4  -4   4 54.7798 7.45572   2
  -4   4   4 61.2079 8.35420   7
  -4   4   4 70.4598 7.93094   1
   4   4  -4 84.4759 7.17362   6
  -4   4   4 68.1268 8.14374   5
  -3  -4   4 25.1203 3.59718   2
   3  -4  -4 33.0639 3.67404   9
   3  -4  -4 33.0880 5.10989  10
   3  -4  -4 27.6650 4.29490  10
   3  -4  -4 40.5427 6.43828   4
  -3  -4   4 28.2934 2.87123   8
   3  -4  -4 30.5939 5.54592   6
   3  -4  -4 23.7282 4.78752   1
  -3   4   4 28.5386 4.40583   5
  -3   4   4 38.8176 4.98018   7
   3   4  -4 26.6804 3.27122   1
  -3   4   4 33.3321 4.29437   8
  -3   4   4 32.3615 4.53579   1
  -3   4   4 35.9255 4.52200   9
  -3   4   4 38.5938 4.57320   9
   3   4  -4 32.1121 3.39698   6
   2  -4  -4 7.55596 2.10490   2
   2  -4  -4 10.1209 2.34817   9
   2  -4  -4 21.4291 4.14176  10
  -2  -4   4 8.41559 1.88195   8
   2  -4  -4 9.45722 2.84354   6
  -2  -4   4 6.06481 2.52641   7
   2  -4  -4 4.99018 1.70180   9
   2  -4  -4 5.85553 2.19330  10
   2  -4  -4 3.37093 2.82714   4
   2   4  -4 5.13748 1.66884   1
  -2   4   4 6.92094 2.30707   9
  -2   4   4 3.26809 2.99185  10
  -2   4   4 5.35450 2.03789  10
  -2   4   4 2.80530 1.95977   1
  -2   4   4 8.53209 2.34030   5
  -2   4   4 5.93833 2.32719   7
   2   4  -4 4.90794 1.48264   6
   1  -4  -4 1.40775 1.45851   6
  -1  -4   4 2.12538 1.17480   9
  -1  -4   4 1.69263 2.08782   7
   1  -4  -4 2.28178 2.32275   4
   1  -4  -4 0.73734 1.42420   1
   1  -4  -4 0.57188 1.55796   2
   1  -4  -4 3.01664 2.12297   9
   1  -4  -4 2.89231 1.41448   9
   1  -4  -4 2.90938 1.52917  10
   1  -4  -4 0.18914 2.38643  10
  -1   4   4 1.08675 1.12395  10
  -1   4   4 -1.7549 1.79227  10
   1   4  -4 2.05469 1.07349   7
  -1   4   4 4.22727 1.72968   5
   1   4  -4 0.93024 1.13491   6
   1   4  -4 4.99414 1.67056   1
  -1   4   4 2.29955 2.10077   9
  -1   4   4 0.76797 1.49140   7
  -1   4   4 0.98961 1.47931   1
  -1   4   4 1.64690 1.28819   9
   0  -4  -4 247.494 26.3174   9
   0  -4  -4 258.874 27.4272   4
   0  -4   4 307.718 26.8169   2
   0  -4  -4 293.544 26.6176   2
   0  -4  -4 338.041 28.4522  10
   0  -4  -4 325.471 28.6707  10
   0  -4  -4 293.216 25.4424   1
   0  -4   4 295.779 26.8021   9
   0  -4  -4 290.022 26.1371   6
   0   4   4 296.750 28.0679  10
   0   4   4 246.686 26.0806   9
   0   4  -4 301.437 25.4410   1
   0   4   4 241.524 25.5119   1
   0   4  -4 307.949 29.3224   3
   0   4   4 281.718 25.6598   7
   0   4  -4 230.659 25.8759   6
   0   4  -4 284.499 27.5410  10
   0   4  -4 245.539 25.2544   7
   0   4   4 260.991 25.3145   5
   0   4  -4 262.815 27.6790  10
   0   4   4 257.820 28.7721  10
  -1  -4  -4 54.5914 6.26309   4
  -1  -4  -4 56.1288 6.33884   2
   1  -4   4 51.9484 6.05852   6
   1  -4   4 56.7538 6.23656   7
  -1  -4  -4 55.1380 6.44531  10
   1  -4   4 45.7300 6.03188   2
  -1  -4  -4 42.7287 5.40410   8
  -1  -4  -4 50.8217 6.35538  10
  -1  -4  -4 46.6160 5.80650   9
  -1  -4  -4 57.1403 6.04595   6
   1  -4   4 53.7977 6.44889  10
   1  -4   4 53.3759 6.73187   9
  -1   4  -4 51.0016 5.81947   7
  -1   4  -4 53.1810 6.50792   3
  -1   4  -4 51.6845 5.60769   5
   1   4   4 60.5505 5.73258   9
   1   4   4 53.9588 5.71573   5
   1   4   4 54.0893 7.12375  10
  -1   4  -4 49.9558 5.31447   9
   1   4   4 65.7741 6.98835   9
  -1   4  -4 42.4190 5.68690   1
   1   4   4 42.5374 5.94512  10
  -1   4  -4 57.3229 5.87899   9
  -1   4  -4 56.9355 6.01888   6
   1   4   4 53.5402 6.23184   1
  -1   4  -4 48.3362 6.42251  10
   1   4   4 55.9920 5.88849   7
   2  -4   4 17.4204 3.62692   6
   2  -4   4 28.2492 4.19957   1
  -2  -4  -4 20.6490 3.21369   8
   2  -4   4 29.2094 4.85526   9
   2  -4   4 28.1664 3.84493   2
   2  -4   4 26.2182 4.86136   8
  -2  -4  -4 24.5354 4.19968  10
   2  -4   4 27.0381 5.42591  10
  -2  -4  -4 19.5914 3.96538   4
  -2  -4  -4 19.4158 3.54677   9
   2  -4   4 20.1825 3.72293   7
   2  -4   4 20.7070 3.89516  10
  -2   4  -4 30.2073 4.12273   6
   2   4   4 27.6462 3.44921   9
   2   4   4 30.0397 4.98417  10
  -2   4  -4 40.6665 5.47202  10
  -2   4  -4 24.7956 4.25715   5
   2   4   4 26.1793 3.77694   9
   2   4   4 21.1366 3.60996  10
   2   4   4 27.7267 3.53720   5
   2   4   4 33.3860 4.06092   1
   2   4   4 23.9904 3.62923   7
  -2   4  -4 32.6658 3.36406   9
  -2   4  -4 20.8621 3.79547   7
  -2   4  -4 27.9942 3.81632  10
  -2   4  -4 23.0215 3.92502   1
   2   4   4 20.1584 3.90178   2
  -3  -4  -4 87.1842 8.11573   8
   3  -4   4 89.3221 9.33657   9
   3  -4   4 92.3496 8.80109   1
  -3  -4  -4 69.4287 9.21658   4
   3  -4   4 74.0485 8.51729   2
   3   4   4 74.6692 8.29645   1
  -3   4  -4 93.4317 8.36348   9
  -3   4  -4 76.7924 9.07934  10
  -3   4  -4 92.9383 10.1100   3
  -3   4  -4 70.0905 8.69016   1
   3   4   4 80.3329 8.13995   9
   3   4   4 83.7411 8.92717   2
  -3   4  -4 79.8472 8.97540   6
   3   4   4 79.4864 8.23412   7
   3   4   4 97.2635 9.20290  10
   3   4   4 81.5179 7.96227   9
  -3   4  -4 94.5970 9.55728   5
  -3   4  -4 92.3678 9.34278   7
   3   4   4 78.5662 8.07922   5
   4  -4   4 645.091 57.1381   7
   4  -4   4 658.857 57.0763   1
   4  -4   4 544.715 58.0175   2
  -4   4  -4 707.239 58.8823   9
  -4   4  -4 689.492 58.0447   5
  -4   4  -4 529.479 58.7308   6
   4   4   4 633.606 56.5868   1
   4   4   4 666.714 62.8027  10
  -4   4  -4 629.526 57.4424   1
   4   4   4 658.357 62.4604  10
   4   4   4 675.337 58.4445   2
  -4   4  -4 619.232 57.8994   7
   4   4   4 568.068 56.6818   7
   4   4   4 701.657 56.3199   5
   5  -4   4 163.589 16.2227   7
   5  -4   4 171.669 17.5267   9
  -5  -4  -4 159.940 15.6307   8
  -5  -4  -4 175.693 16.2708   7
   5  -4   4 160.899 16.4462   1
  -5   4  -4 182.744 17.6228   1
  -5   4  -4 167.599 16.4709   9
   5   4   4 189.938 16.1744   1
  -5   4  -4 170.540 17.1612   7
   6  -4   4 81.6800 9.12445   1
  -6  -4  -4 67.3263 9.74596   4
  -6  -4  -4 89.6300 8.68406   7
   6  -4   4 88.8483 8.73624   7
  -6  -4  -4 80.7131 7.99434   8
   6  -4   4 102.077 9.77849   9
  -6   4  -4 91.3311 9.80332   7
   6   4   4 66.4529 8.28911   1
  -6   4  -4 86.3267 10.9569   1
   7  -4   4 137.893 13.0556   7
   7  -4   4 123.584 12.6590   5
  -7  -4  -4 138.613 13.0843   7
   7  -4   4 115.921 13.2622   1
   7  -4   4 137.604 13.3936   9
  -7  -4  -4 135.370 14.9890   4
  -7  -4  -4 144.294 12.4775   8
   7   4   4 134.270 12.8404   1
  -7   4  -4 134.374 14.4514   5
  -7   4  -4 124.593 13.8136   7
   8  -4   4 588.872 60.1025  10
  -8  -4  -4 631.550 59.9001   4
   8  -4   4 603.014 56.2732   9
  -8  -4  -4 644.969 54.0946   8
   8  -4   4 568.731 54.2161   5
   8  -4   4 570.381 55.1038   1
  -8   4  -4 599.896 55.6745   5
   8   4   4 676.077 54.6508   1
  -8   4  -4 634.805 55.7488   7
   9  -4   4 79.3196 8.45105  10
  -9  -4  -4 74.7287 10.2021   4
  -9  -4  -4 79.3281 7.82776   8
   9  -4   4 83.8524 7.92177   5
   9  -4   4 87.9054 9.14091   1
  -9   4  -4 75.7502 9.06324   7
   9   4   4 67.3437 8.11588   1
  10  -4   4 76.1136 7.23478   5
 -10  -4  -4 81.7491 7.57828   8
  10  -4   4 74.4409 8.85187   6
  10  -4   4 59.2836 8.26013   1
 -10  -4  -4 63.2130 9.98472   4
 -10   4  -4 74.8052 10.5331   3
 -10   4  -4 56.9200 8.30126   7
  10   4   4 80.5547 7.81966   1
  11  -4   4 74.7587 9.07196   6
 -11  -4  -4 86.1808 8.01164   8
 -11  -4  -4 82.4441 10.4704   4
  11  -4   4 65.7331 8.71477   1
  11   4   4 81.2296 8.22252   1
 -11   4  -4 68.9038 8.88370   7
 -12  -4  -4 333.894 27.9239   8
  12  -4   4 310.061 28.8022   1
 -12  -4  -4 323.213 31.6854   4
 -12   4  -4 261.405 28.7206   7
  12  -5  -4 131.536 13.8913   1
 -12  -5   4 121.717 11.1841   8
  11  -5  -4 1.95365 3.30255   1
 -11  -5   4 2.03959 0.84444   8
 -11   5   4 -0.5408 3.60136   7
  10  -5  -4 238.289 22.4581   1
  10  -5  -4 206.199 22.5759   6
 -10   5   4 208.944 22.2964   7
   9  -5  -4 162.045 18.5330   1
   9  -5  -4 178.861 19.1892   6
  -9   5   4 172.297 18.2171   7
   8  -5  -4 218.142 22.5157   6
   8  -5  -4 213.682 20.6219  10
   8  -5  -4 200.960 21.6901   1
  -8   5   4 181.445 20.9501   7
  -8   5   4 227.422 24.9274   3
   7  -5  -4 39.3532 4.62839  10
   7  -5  -4 38.4392 4.65072  10
   7  -5  -4 34.4876 7.05535   1
   7  -5  -4 40.1334 7.47984   6
  -7   5   4 38.5582 6.62991   7
   6  -5  -4 484.762 40.3186   7
   6  -5  -4 507.684 43.3504   6
   6  -5  -4 431.888 40.4713   9
   6  -5  -4 463.951 43.5819  10
   6  -5  -4 458.487 43.6656  10
   6  -5  -4 415.147 41.5552   1
  -6   5   4 408.419 41.0670   7
  -6   5   4 360.073 40.4654   5
   5  -5  -4 377.555 35.4641   4
   5  -5  -4 405.733 33.1823   1
   5  -5  -4 322.058 34.4780  10
   5  -5  -4 325.486 31.9591   7
   5  -5  -4 406.704 34.2879   6
  -5  -5   4 326.798 30.2286   8
   5  -5  -4 371.471 31.9148   9
  -5   5   4 302.498 31.9527   5
  -5   5   4 343.479 32.7003   7
   5   5  -4 320.915 31.6203   6
   4  -5  -4 250.240 22.9383   7
   4  -5  -4 249.421 24.8826   4
  -4  -5   4 228.826 20.6761   8
   4  -5  -4 221.273 23.5686   6
   4  -5  -4 215.547 22.7233   1
   4  -5  -4 246.790 22.1914   9
   4  -5  -4 213.717 24.0395  10
   4  -5  -4 261.933 22.2581   2
  -4   5   4 231.230 22.4158   5
  -4   5   4 239.338 22.8569   7
  -4   5   4 231.641 22.3872   1
   3  -5  -4 116.975 13.7673   4
  -3  -5   4 115.324 10.7180   8
   3  -5  -4 113.722 11.8294   9
   3  -5  -4 123.353 13.3979  10
   3  -5  -4 113.333 12.4666   1
   3  -5  -4 114.561 13.0142   6
  -3   5   4 128.699 12.6784   7
  -3   5   4 110.533 12.0147   9
   3   5  -4 137.564 11.4562   6
  -3   5   4 115.067 12.3277   1
  -3   5   4 114.056 12.2035   5
  -3   5   4 121.666 12.0281   9
   2  -5  -4 387.514 43.6176   6
   2  -5  -4 457.195 42.7271   1
  -2  -5   4 454.329 42.7403   7
   2  -5  -4 491.884 44.1110   9
   2  -5  -4 494.477 43.2407   2
   2  -5  -4 416.185 46.1880   4
  -2  -5   4 494.154 41.9092   8
   2   5  -4 523.909 41.9884   1
  -2   5   4 392.928 43.9022   9
   2   5  -4 517.744 43.1184   6
  -2   5   4 503.289 43.3176   7
  -2   5   4 530.156 43.1358   1
   1  -5  -4 801.017 72.4390   6
   1  -5  -4 735.133 70.5028   1
   1  -5  -4 758.434 76.2353   4
   1  -5  -4 794.617 73.5209   9
  -1   5   4 843.451 73.5268   9
   1   5  -4 763.535 72.1108   6
  -1   5   4 746.980 71.2674   7
  -1   5   4 817.509 78.2947  10
  -1   5   4 817.751 70.6607   5
  -1   5   4 751.531 70.9210   1
   1   5  -4 899.945 70.4202   7
   0  -5  -4 415.102 37.5387   4
   0  -5  -4 367.882 34.6008   1
   0  -5  -4 428.536 34.9120   8
   0  -5  -4 366.257 35.5542   6
   0  -5  -4 398.226 36.4488   9
   0   5  -4 380.900 34.6558   7
   0   5   4 372.068 38.5561  10
   0   5  -4 333.094 35.4324   6
   0   5   4 458.535 39.4832  10
   0   5   4 350.237 35.1388   1
   0   5  -4 421.140 38.0401  10
   0   5  -4 373.921 37.7482  10
   0   5   4 406.566 35.3667   7
   0   5  -4 402.780 34.6158   1
   0   5   4 337.584 34.7533   5
   0   5   4 419.736 36.3403   9
   0   5  -4 346.897 34.1920   5
   1  -5   4 112.049 10.7648   7
  -1  -5  -4 86.2863 9.63090   8
   1  -5   4 111.978 10.6968   2
  -1  -5  -4 115.786 9.72747   1
  -1  -5  -4 87.6637 10.1969   4
  -1  -5  -4 105.949 10.4233   9
   1   5   4 93.8790 10.0175   7
   1   5   4 87.9964 9.80553   5
  -1   5  -4 108.754 10.8751  10
  -1   5  -4 95.6148 9.54494   5
  -1   5  -4 91.7159 10.9035   3
  -1   5  -4 101.009 9.69758   1
  -1   5  -4 108.349 9.73937   9
   1   5   4 101.474 11.3759  10
  -1   5  -4 87.0905 9.81460   6
   1   5   4 97.7685 10.7850  10
   1   5   4 81.4932 10.0005   1
  -1   5  -4 94.0825 9.35411   9
  -1   5  -4 89.8430 9.29593   9
  -1   5  -4 89.3032 10.1173  10
   1   5   4 112.781 10.2398   9
  -1   5  -4 100.454 9.74989   7
   1   5   4 103.261 9.98513   9
  -2  -5  -4 292.635 30.7235   8
  -2  -5  -4 285.521 32.9729   4
   2  -5   4 376.145 31.8473   7
   2  -5   4 302.879 31.9137   2
   2   5   4 360.339 31.9635   9
  -2   5  -4 345.663 31.2720   5
   2   5   4 404.829 31.8318   1
   2   5   4 366.089 31.9652   9
  -2   5  -4 306.764 31.7531   9
   2   5   4 322.666 34.3027  10
  -2   5  -4 351.552 34.0518  10
  -2   5  -4 394.375 31.2877   1
  -2   5  -4 383.233 31.6384   7
   2   5   4 323.462 30.9521   5
  -2   5  -4 369.582 35.1212  10
  -2   5  -4 362.090 32.0075   6
   2   5   4 312.323 31.2430   7
  -3  -5  -4 1207.64 109.752   8
   3  -5   4 1066.32 111.214   7
   3  -5   4 1282.16 115.158   9
   3  -5   4 1336.23 110.775   1
  -3   5  -4 1168.10 114.585   9
  -3   5  -4 1317.28 113.644   6
  -3   5  -4 1252.04 110.768   5
  -3   5  -4 1154.43 111.548   7
   3   5   4 1364.67 113.964   2
   3   5   4 1174.13 110.939   7
   3   5   4 1369.35 110.244   5
   3   5   4 1386.99 122.298  10
   3   5   4 1185.37 110.576   1
  -3   5  -4 1266.96 110.597   1
   4  -5   4 680.257 53.1975   1
   4  -5   4 565.008 53.0238   7
  -4  -5  -4 529.285 52.0186   8
  -4  -5  -4 561.795 56.5219   4
   4  -5   4 559.972 54.8573   9
  -4   5  -4 593.024 54.4237   9
  -4   5  -4 533.553 54.2048   6
  -4   5  -4 558.164 61.5618   3
  -4   5  -4 565.417 53.6801   7
   4   5   4 661.722 52.7104   1
  -4   5  -4 613.187 53.0932   1
   4   5   4 647.243 52.8520   7
   4   5   4 573.696 57.6578  10
   4   5   4 609.421 57.7407  10
   5  -5   4 28.4047 4.86689   1
  -5  -5  -4 26.2340 4.71973   4
   5  -5   4 24.7575 4.60176   9
   5  -5   4 25.5168 4.17811   7
  -5   5  -4 28.9253 5.16966   3
  -5   5  -4 24.0004 4.91577   7
   5   5   4 35.0488 3.68398   5
   5   5   4 29.9961 4.10502   1
  -5   5  -4 26.1922 4.99037   1
  -5   5  -4 26.0436 5.47682   5
  -5   5  -4 26.1357 3.69931   9
   6  -5   4 192.572 19.0236   7
  -6  -5  -4 199.823 18.3962   8
   6  -5   4 198.581 20.1997   6
   6  -5   4 200.470 20.0748   9
  -6  -5  -4 204.946 20.6799   4
   6  -5   4 183.247 19.3290   1
   6   5   4 197.041 18.7729   1
  -6   5  -4 249.351 20.8681   5
  -6   5  -4 218.483 20.6202   1
  -6   5  -4 195.713 22.4253   3
  -6   5  -4 185.796 19.6530   7
   7  -5   4 620.504 70.6382   6
  -7  -5  -4 661.359 73.7510   4
  -7  -5  -4 773.931 67.6647   8
   7  -5   4 757.055 68.7791   7
   7  -5   4 793.526 71.3243   9
  -7   5  -4 843.782 69.6025   7
  -7   5  -4 778.191 70.1902   1
   7   5   4 836.138 68.3735   1
  -7   5  -4 858.832 80.8147   3
  -7   5  -4 763.503 69.3539   5
   8  -5   4 507.335 49.6711   6
  -8  -5  -4 537.672 51.9826   4
   8  -5   4 554.179 47.2966   5
   8  -5   4 517.739 48.2515   1
   8  -5   4 595.103 47.9755   7
  -8  -5  -4 517.798 46.9980   8
  -8   5  -4 567.936 48.7000   5
  -8   5  -4 478.107 48.3012   7
  -8   5  -4 530.165 56.4803   3
   8   5   4 498.549 47.4488   1
  -9  -5  -4 10.0068 2.19326   8
   9  -5   4 8.87041 2.27675   5
   9  -5   4 10.4947 2.60215   7
  -9  -5  -4 11.7996 3.96186   4
   9  -5   4 13.4373 3.68121   1
  -9   5  -4 15.6572 4.63692   3
   9   5   4 7.96368 2.53673   1
  -9   5  -4 7.14596 3.44681   5
  -9   5  -4 10.6040 3.17070   7
  10  -5   4 58.3564 8.98165   1
  10  -5   4 90.3228 8.29680   5
 -10  -5  -4 96.6124 10.9816   4
 -10  -5  -4 91.8597 8.38538   8
  10   5   4 76.5140 8.61686   1
 -10   5  -4 80.6250 11.6135   3
 -10   5  -4 73.9809 9.23035   7
 -11  -5  -4 282.224 26.3505   4
 -11  -5  -4 235.414 22.7749   8
  11  -5   4 284.392 24.1473   1
  11   5   4 243.918 23.0609   1
  11   5   4 253.001 22.9968   1
 -11   5  -4 216.082 23.7590   7
 -12  -5  -4 269.287 24.1114   8
  12  -5   4 254.328 25.0282   1
 -12   5  -4 266.646 25.6497   7
  11  -6  -4 22.2464 5.41614   1
 -11  -6   4 23.4971 2.57322   8
 -11   6   4 22.8380 5.19881   7
  10  -6  -4 266.759 31.4209   6
 -10  -6   4 344.637 27.9019   8
 -10   6   4 309.443 30.7781   7
  -9  -6   4 15.6775 2.08493   8
  -9  -6   4 13.8027 1.60369   8
   9  -6  -4 18.6393 5.79153   6
   9  -6  -4 16.3625 5.27098   1
  -9   6   4 9.35008 3.80537   7
   8  -6  -4 152.551 19.2910   1
   8  -6  -4 200.451 18.7396  10
  -8  -6   4 183.400 16.4129   8
  -8  -6   4 204.642 16.6219   8
   8  -6  -4 176.904 20.3789   6
  -8   6   4 160.723 18.8987   7
   7  -6  -4 19.8550 5.38681   6
   7  -6  -4 15.5997 3.17946   7
  -7  -6   4 13.5417 1.91168   8
   7  -6  -4 14.9040 4.82264   1
  -7  -6   4 15.9489 1.78378   8
   7  -6  -4 17.0539 2.96491  10
  -7   6   4 13.9539 4.05083   7
  -6  -6   4 358.070 34.4881   8
   6  -6  -4 372.140 36.1378   9
   6  -6  -4 459.732 37.6982   1
  -6  -6   4 395.951 34.3674   8
   6  -6  -4 354.345 38.1223   6
   6  -6  -4 419.402 36.1625   7
  -6   6   4 406.327 36.7019   5
  -6   6   4 409.060 37.0153   7
   5  -6  -4 11.4958 4.05008   4
   5  -6  -4 11.1669 2.00860   9
   5  -6  -4 7.04297 3.43656   6
  -5  -6   4 9.47903 1.35591   8
   5  -6  -4 11.4296 3.35343   7
   5  -6  -4 10.2921 3.66748   1
  -5  -6   4 10.2467 1.82711   8
  -5   6   4 10.9860 3.48894   7
  -5   6   4 11.1197 3.59931   1
  -5   6   4 15.5977 4.01934   5
   4  -6  -4 642.985 56.8671   2
   4  -6  -4 647.659 56.3686   1
   4  -6  -4 561.616 57.3389   9
   4  -6  -4 665.496 60.8608   4
  -4  -6   4 575.256 54.6477   8
   4  -6  -4 571.582 57.8927   6
   4  -6  -4 643.518 56.7345   7
  -4   6   4 650.233 56.3318   5
  -4   6   4 675.783 56.5443   1
  -4   6   4 599.813 56.7651   7
   3  -6  -4 21.5137 4.36652   6
  -3  -6   4 18.8711 3.10412   8
   3  -6  -4 18.6877 3.33314   9
   3  -6  -4 20.4659 4.89977   4
   3  -6  -4 27.1419 4.56553   1
   3   6  -4 21.6687 3.17464   6
  -3   6   4 19.1859 3.22249   9
  -3   6   4 16.4386 4.19968   7
   3   6  -4 31.4952 3.33657   1
  -3   6   4 30.3980 5.15494   1
  -3   6   4 12.8649 3.78369   5
   2  -6  -4 156.770 16.4270   1
   2  -6  -4 160.891 17.0188   9
  -2  -6   4 156.033 16.0309   8
  -2  -6   4 146.796 16.2478   7
   2  -6  -4 162.854 18.1287   4
   2   6  -4 189.481 15.9056   1
  -2   6   4 198.840 17.4902   7
  -2   6   4 208.248 17.3019   5
  -2   6   4 179.015 16.7203   9
  -2   6   4 162.364 17.1705   1
   2   6  -4 184.426 16.3404   6
   1  -6  -4 63.2630 6.93380   1
  -1  -6   4 64.1532 7.35779   7
  -1  -6   4 73.8003 7.18850   8
   1  -6  -4 62.3189 7.44540   9
   1  -6  -4 70.3507 7.93840   4
  -1   6   4 55.0089 7.42987   5
  -1   6   4 72.7000 7.97427   7
   1   6  -4 61.9889 6.53192   1
   1   6  -4 59.5689 6.61845   6
  -1   6   4 59.3833 6.76824   9
  -1   6   4 70.6441 8.08941   1
   0  -6  -4 1405.05 113.352   1
   0  -6   4 1399.62 113.331   8
   0  -6  -4 1130.59 121.627   4
   0  -6   4 1474.87 115.147   7
   0   6  -4 1305.53 113.253   1
   0   6  -4 1330.78 116.373   6
   0   6  -4 1309.23 112.707   5
   0   6   4 1240.46 113.567   5
   0   6   4 1106.51 125.853  10
   0   6  -4 1393.39 113.911   7
   0   6   4 1356.93 114.838   7
   0   6  -4 1241.02 125.004  10
   0   6  -4 1266.75 125.160  10
   0   6   4 1249.03 114.163   1
   0   6   4 1120.00 117.863   9
   1  -6   4 42.2819 4.80891   8
  -1  -6  -4 32.0258 3.99842   1
  -1  -6  -4 33.9054 4.62242   8
   1  -6   4 29.3152 5.30410   7
  -1  -6  -4 30.3758 4.08272   4
   1   6   4 27.1208 4.68921   5
  -1   6  -4 35.2536 3.65678   9
  -1   6  -4 27.6379 3.89791   5
  -1   6  -4 35.6067 4.59778  10
   1   6   4 28.9678 3.85004   9
   1   6   4 31.9210 5.11592  10
  -1   6  -4 30.6985 4.25687   3
   1   6   4 37.6845 5.27177   1
  -1   6  -4 30.1885 4.04167   1
   1   6   4 26.5309 4.64056   7
  -1   6  -4 28.9099 3.34847   9
  -1   6  -4 33.8893 4.19080   6
  -1   6  -4 33.6227 4.21152   7
   1   6   4 31.3298 5.33756  10
  -1   6  -4 26.4332 3.72610  10
  -2  -6  -4 32.6533 4.70220   8
  -2  -6  -4 29.8516 4.13543   4
   2  -6   4 42.1858 5.91774   7
   2  -6   4 37.5490 5.03749   1
   2   6   4 31.4736 4.91255   7
  -2   6  -4 26.7204 4.18627   6
   2   6   4 38.2685 3.93941   9
  -2   6  -4 41.4036 5.59496  10
  -2   6  -4 33.6942 4.77780   5
  -2   6  -4 27.0639 3.68486   9
  -2   6  -4 39.6799 4.83533   7
  -2   6  -4 27.6468 4.16098  10
   2   6   4 31.3502 4.97513  10
   2   6   4 33.4761 5.06302   5
  -2   6  -4 32.5885 4.57929   1
   2   6   4 35.5910 5.11130  10
  -2   6  -4 23.8671 3.55439   9
   2   6   4 35.6173 3.84724   9
  -2   6  -4 26.0014 4.49108   3
   2   6   4 39.3660 5.39134   1
   3  -6   4 108.717 11.7117   1
  -3  -6  -4 103.598 11.7664   4
  -3  -6  -4 117.695 11.3623   8
   3  -6   4 132.533 12.3616   7
  -3   6  -4 88.4401 12.7749   3
  -3   6  -4 99.9173 11.7855   7
   3   6   4 131.040 11.9535   7
  -3   6  -4 125.684 12.0360   5
  -3   6  -4 119.553 11.3328   9
   3   6   4 122.778 12.0519   1
   3   6   4 113.011 12.3597  10
  -3   6  -4 114.187 11.5064   1
   3   6   4 116.414 12.0243  10
   3   6   4 137.508 12.1045   5
  -3   6  -4 118.190 11.8119   6
  -4  -6  -4 1029.89 105.033   4
   4  -6   4 1053.81 98.3870   1
   4  -6   4 1079.82 99.0264   7
  -4  -6  -4 1054.10 97.4694   8
   4   6   4 978.691 107.698  10
   4   6   4 1307.69 97.7519   5
   4   6   4 1202.14 107.751  10
  -4   6  -4 1043.08 101.706   9
   4   6   4 1136.51 98.3353   1
  -4   6  -4 1098.14 99.2955   7
  -4   6  -4 1225.71 98.4051   1
   5  -6   4 7.93803 2.56058   7
   5  -6   4 9.86351 2.76700   9
  -5  -6  -4 7.73572 2.48191   4
   5  -6   4 6.65167 2.71396   1
  -5  -6  -4 6.36770 1.96963   8
  -5   6  -4 4.07066 2.57516   3
   5   6   4 11.4143 2.72066   1
  -5   6  -4 11.7602 3.62460   5
  -5   6  -4 3.14755 2.61163   7
  -5   6  -4 12.8491 3.22694   1
  -5   6  -4 7.71433 2.08829   9
  -6  -6  -4 21.4915 3.67590   4
   6  -6   4 16.1499 3.89357   1
   6  -6   4 10.4673 2.82189   7
   6  -6   4 11.8157 3.29150   9
  -6  -6  -4 11.8857 2.53049   8
  -6   6  -4 11.2325 3.49366   3
  -6   6  -4 6.01350 2.90512   7
  -6   6  -4 12.5600 3.84382   5
   6   6   4 8.26770 2.65237   1
  -6   6  -4 11.9840 3.68099   1
   7  -6   4 125.291 13.9448   1
   7  -6   4 114.740 13.2577   7
  -7  -6  -4 123.635 12.7016   8
  -7  -6  -4 129.818 14.4973   4
  -7   6  -4 136.682 15.9595   3
   7   6   4 147.333 13.2865   1
  -7   6  -4 141.016 13.9772   7
  -7   6  -4 136.334 14.2653   5
  -7   6  -4 174.515 15.7614   1
  -8  -6  -4 531.582 48.8986   4
  -8  -6  -4 481.500 44.4381   8
   8  -6   4 461.518 45.2020   7
   8  -6   4 455.300 44.6080   5
  -8   6  -4 523.417 45.7990   7
  -8   6  -4 537.847 45.9303   5
  -8   6  -4 523.337 53.3544   3
   9  -6   4 4.47339 2.86115   1
  -9  -6  -4 4.23159 3.13818   4
  -9  -6  -4 4.49712 1.73631   8
   9  -6   4 2.20003 1.68780   5
   9  -6   4 4.35693 2.23088   7
  -9   6  -4 5.37062 3.07587   5
   9   6   4 5.93857 2.38125   1
  -9   6  -4 3.94195 3.48008   3
  -9   6  -4 2.95815 2.45664   7
  10  -6   4 12.9298 3.89653   1
  10  -6   4 14.8560 2.77473   5
 -10  -6  -4 14.1191 2.71648   8
 -10   6  -4 12.2153 3.31866   7
  10   6   4 13.4019 3.20184   1
  11  -6   4 126.852 11.2037   5
 -11  -6  -4 112.166 11.4046   8
  11  -6   4 106.365 12.2959   1
 -11   6  -4 115.461 12.3741   7
  11  -7  -4 56.1583 9.10168   1
 -11  -7   4 67.7716 6.17454   8
 -10  -7   4 208.430 17.9681   8
 -10   7   4 188.514 20.5893   7
   9  -7  -4 76.9190 10.8598   1
  -9  -7   4 75.5851 6.47029   8
  -9   7   4 48.2930 8.73236   7
  -8  -7   4 194.059 15.5396   8
   8  -7  -4 141.054 18.2546   1
  -8   7   4 157.186 18.0017   7
   7  -7  -4 104.009 10.5745   7
   7  -7  -4 102.398 12.1100   1
  -7  -7   4 95.3560 8.94820   8
  -7   7   4 104.548 11.8245   5
  -7   7   4 102.127 11.6741   7
  -6  -7   4 387.429 35.8611   8
   6  -7  -4 425.112 37.7199   7
   6  -7  -4 485.910 38.9149   1
  -6   7   4 412.717 38.3873   7
  -6   7   4 356.724 37.7808   5
   5  -7  -4 176.937 19.1670   4
   5  -7  -4 170.593 17.7817   1
   5  -7  -4 181.040 17.0738   9
   5  -7  -4 187.015 17.6901   7
  -5  -7   4 163.019 15.7654   8
  -5   7   4 168.051 17.8225   5
  -5   7   4 181.907 17.9865   1
  -5   7   4 156.970 17.8420   7
   5   7  -4 197.894 16.4851   1
  -4  -7   4 504.070 46.2570   8
   4  -7  -4 531.162 47.9109   1
   4  -7  -4 549.715 51.7963   4
   4  -7  -4 495.846 48.2608   7
   4  -7  -4 536.232 49.0989   9
  -4   7   4 544.514 48.3047   1
  -4   7   4 484.789 48.2929   7
  -4   7   4 567.271 48.2015   5
   3  -7  -4 109.297 13.5778   4
   3  -7  -4 103.745 12.2892   1
   3  -7  -4 147.240 12.9172   9
  -3  -7   4 120.651 11.3975   8
   3   7  -4 127.345 11.9522   6
  -3   7   4 131.393 12.1957   9
   3   7  -4 123.224 11.5734   1
  -3   7   4 113.834 13.0832   1
  -3   7   4 115.374 13.0739   7
  -3   7   4 113.459 12.9182   5
  -2  -7   4 691.588 60.8536   8
   2  -7  -4 689.831 64.3785   9
   2  -7  -4 715.770 66.2436   4
  -2  -7   4 626.131 61.5175   7
  -2   7   4 592.861 63.5038   9
   2   7  -4 788.021 62.8141   6
  -2   7   4 745.027 62.5947   1
  -2   7   4 734.298 62.8995   7
  -2   7   4 642.965 62.0308   5
   1  -7  -4 172.405 14.9095   4
  -1  -7   4 157.177 14.0518   7
   1  -7  -4 116.650 13.4879   1
  -1   7   4 161.052 13.9209   9
  -1   7   4 112.455 14.2605   5
  -1   7   4 133.942 14.8119   7
   1   7  -4 153.953 13.4498   1
  -1   7   4 146.919 14.8947   1
   1   7  -4 127.858 13.7207   6
   0  -7  -4 950.107 94.3276   4
   0  -7  -4 1167.68 87.9804   1
   0  -7   4 894.851 88.8474   7
   0   7  -4 1075.06 96.8677  10
   0   7   4 956.523 88.8683   1
   0   7  -4 885.129 90.1762   6
   0   7  -4 1048.47 96.7303  10
   0   7   4 844.796 88.2779   5
   0   7   4 890.950 89.2613   7
   0   7   4 1022.91 91.3083   9
   0   7  -4 1020.14 87.2839   5
   0   7  -4 1148.11 87.8688   1
   1  -7   4 129.474 11.4511   8
  -1  -7  -4 115.724 11.7939   4
   1  -7   4 117.348 12.1838   7
   1   7   4 101.742 11.9222   5
  -1   7  -4 130.430 10.8043   9
  -1   7  -4 113.654 10.6962   9
  -1   7  -4 125.583 11.3064   7
  -1   7  -4 126.367 11.5904   6
   1   7   4 109.477 12.9991  10
   1   7   4 118.388 12.2834   1
  -1   7  -4 99.1648 11.6497  10
   1   7   4 108.962 11.1387   9
  -1   7  -4 121.003 12.2488  10
   1   7   4 93.8615 12.0455   7
  -1   7  -4 117.438 11.0128   5
  -1   7  -4 102.274 11.0119   1
  -2  -7  -4 598.429 54.0741   4
   2  -7   4 511.759 51.9280   7
  -2   7  -4 554.333 50.5845   1
  -2   7  -4 591.255 56.4558  10
   2   7   4 649.803 51.3936   5
  -2   7  -4 548.923 52.1260   9
   2   7   4 536.382 55.7231  10
  -2   7  -4 613.330 52.2081   6
   2   7   4 480.686 56.1492  10
  -2   7  -4 567.802 51.1075   7
   2   7   4 602.039 51.4502   1
  -2   7  -4 550.077 58.8471   3
  -2   7  -4 561.483 50.6554   5
   2   7   4 596.815 51.8113   7
   3  -7   4 40.0345 5.61952   1
   3  -7   4 44.6741 6.17281   7
  -3  -7  -4 32.6460 4.44220   8
  -3  -7  -4 37.1462 4.51945   4
   3   7   4 42.6793 5.90995   1
  -3   7  -4 39.0297 5.27056   7
  -3   7  -4 29.2335 4.04422   9
  -3   7  -4 41.7941 4.96250   1
   3   7   4 39.7548 4.30252  10
  -3   7  -4 30.6166 3.97966   9
  -3   7  -4 34.9468 4.87575   6
   3   7   4 38.0420 5.10171   5
   3   7   4 30.9326 4.65681  10
  -3   7  -4 25.9635 4.67887   3
  -3   7  -4 28.9906 4.83652   5
   4  -7   4 839.982 71.2335   1
  -4  -7  -4 833.256 75.5091   4
   4  -7   4 866.660 71.9438   7
  -4  -7  -4 683.996 70.0356   8
  -4   7  -4 820.514 71.0213   5
   4   7   4 765.044 70.9884   1
  -4   7  -4 743.678 70.7304   1
  -4   7  -4 805.449 82.4634   3
  -4   7  -4 687.126 71.3068   7
  -4   7  -4 841.084 73.1927   9
   4   7   4 862.250 70.1678   5
   5  -7   4 107.348 11.7407   7
   5  -7   4 112.450 11.5249   9
  -5  -7  -4 119.687 10.9096   8
  -5  -7  -4 114.532 11.6767   4
   5  -7   4 108.489 11.7361   1
   5   7   4 114.725 11.4099   1
  -5   7  -4 116.780 11.9110   5
  -5   7  -4 97.4237 12.8010   3
  -5   7  -4 107.077 11.1551   9
  -5   7  -4 96.7408 11.5748   7
  -5   7  -4 131.982 11.9066   1
  -6  -7  -4 247.830 21.5198   8
  -6  -7  -4 246.978 23.3263   4
   6  -7   4 234.649 22.5050   1
   6  -7   4 211.498 22.1575   7
   6  -7   4 208.829 22.4901   9
  -6   7  -4 250.497 22.5410   7
   6   7   4 250.573 21.8625   1
  -6   7  -4 237.539 22.4425   1
  -6   7  -4 231.314 25.5504   3
  -6   7  -4 227.767 22.3659   9
  -6   7  -4 221.758 22.3577   5
  -7  -7  -4 2.34548 1.94824   8
   7  -7   4 3.01198 2.83238   1
   7  -7   4 7.28135 2.82987   7
  -7   7  -4 -0.5310 2.89242   1
  -7   7  -4 7.09678 3.15981   5
  -7   7  -4 5.60291 2.61760   3
   7   7   4 4.95236 2.39497   1
  -7   7  -4 5.18381 2.69473   7
   8  -7   4 321.945 29.5453   7
   8  -7   4 281.336 29.8141   1
  -8  -7  -4 339.670 28.8040   8
  -8   7  -4 320.179 29.7248   7
  -8   7  -4 313.863 34.5200   3
   8   7   4 325.224 29.1487   1
  -8   7  -4 309.655 29.7398   5
   9  -7   4 112.003 13.0927   5
  -9  -7  -4 155.140 13.2918   8
   9  -7   4 130.285 13.6166   7
   9  -7   4 137.995 14.3624   1
  -9   7  -4 151.888 14.1660   7
   9   7   4 136.936 13.5588   1
  -9   7  -4 141.225 14.3798   5
  10  -7   4 103.366 12.2624   1
  10  -7   4 107.983 11.2447   5
 -10  -7  -4 124.994 11.3813   8
 -10   7  -4 115.367 12.2242   7
  10   7   4 115.071 11.6133   1
 -10   7  -4 125.258 12.5662   5
 -11  -7  -4 6.11428 2.33012   8
  11  -7   4 6.62409 2.08426   5
  11  -7   4 2.36831 2.75442   1
 -10  -8   4 169.968 15.1299   8
   9  -8  -4 42.3211 7.52903   1
  -9  -8   4 50.4962 4.68555   8
  -9   8   4 49.0972 7.43462   7
   8  -8  -4 70.8199 9.96620   1
  -8  -8   4 75.1303 6.93588   8
  -8   8   4 81.5754 9.86502   7
  -8   8   4 79.8922 9.98773   5
   7  -8  -4 22.4304 5.29411   1
   7  -8  -4 32.2599 4.82681   7
  -7  -8   4 25.1169 2.70980   8
  -7   8   4 25.8690 5.34882   7
  -7   8   4 30.4248 5.81025   5
   6  -8  -4 255.821 22.5413   1
   6  -8  -4 245.367 21.8642   7
  -6  -8   4 202.569 19.8997   8
  -6   8   4 218.502 22.2660   7
  -6   8   4 229.415 22.2846   5
   5  -8  -4 21.6299 5.08235   4
   5  -8  -4 23.1827 4.73563   1
   5  -8  -4 21.7794 4.41259   7
  -5  -8   4 21.8492 2.66577   8
  -5   8   4 25.7598 5.33611   1
   5   8  -4 30.6748 3.84363   1
  -5   8   4 21.5019 4.87044   7
  -5   8   4 28.9357 5.48901   5
  -4  -8   4 236.180 22.3412   8
   4  -8  -4 257.665 23.8212   1
   4  -8  -4 231.169 24.1310   7
   4  -8  -4 256.857 25.4634   4
   4  -8  -4 249.597 24.4038   9
  -4   8   4 249.005 24.4509   7
  -4   8   4 203.046 23.8191   5
  -4   8   4 284.951 23.9531   9
  -4   8   4 296.648 24.8006   1
  -3  -8   4 14.3586 2.16489   8
   3  -8  -4 13.9378 3.32689   9
   3  -8  -4 11.0795 3.13199   4
   3  -8  -4 14.4675 3.31109   1
  -3   8   4 11.3984 3.55685   7
  -3   8   4 15.8467 2.73479   9
   3   8  -4 16.1188 2.68336   1
  -3   8   4 17.1754 4.40065   1
  -3   8   4 10.8894 3.62500   5
   2  -8  -4 263.280 22.5865   1
   2  -8  -4 226.885 23.9311   4
  -2  -8   4 223.755 21.7569   8
  -2  -8   4 237.683 22.0710   7
  -2   8   4 233.261 22.7478   9
  -2   8   4 277.329 23.8069   1
   2   8  -4 271.531 22.0472   1
   2   8  -4 216.919 22.5217   6
  -2   8   4 275.960 23.7548   7
  -2   8   4 219.509 23.0507   5
  -1  -8   4 9.95199 2.36644   7
  -1  -8   4 22.3547 2.82972   8
   1  -8  -4 14.5396 2.73091   1
   1  -8  -4 13.7007 2.80109   4
  -1   8   4 15.4829 3.91328   1
  -1   8   4 14.2440 3.75283   7
  -1   8   4 9.99290 3.39753   5
  -1   8   4 15.6368 2.37438   9
   1   8  -4 14.0112 2.49807   1
   1   8  -4 14.3447 2.45815   6
   0  -8   4 400.409 43.0628   7
   0  -8  -4 494.240 45.7594   4
   0   8   4 510.711 44.0105   7
   0   8  -4 463.949 43.7053   6
   0   8   4 485.578 43.8667   1
   0   8   4 452.714 43.2927   5
   0   8  -4 460.531 46.5214  10
   0   8   4 536.738 44.0863   9
   0   8  -4 530.975 46.5342  10
   0   8  -4 425.110 42.4719   1
   1  -8   4 -0.7887 1.57412   7
  -1  -8  -4 0.74874 1.36681   4
   1   8   4 0.27734 2.26170   7
  -1   8  -4 1.06375 1.32240   6
  -1   8  -4 0.13748 1.20109   5
  -1   8  -4 2.76196 1.58477  10
   1   8   4 4.45480 2.38592  10
  -1   8  -4 1.42208 1.54037   7
  -1   8  -4 3.26756 1.73442   1
   1   8   4 1.59022 1.10571   9
   1   8   4 1.91819 2.22522   5
  -1   8  -4 0.35681 0.93192  10
   1   8   4 3.97234 2.84975   1
  -2  -8  -4 115.150 11.9863   4
   2  -8   4 95.6331 12.2267   7
  -2   8  -4 128.944 11.7866   7
  -2   8  -4 118.408 12.8650  10
   2   8   4 109.367 12.1067  10
   2   8   4 135.462 12.6890   1
  -2   8  -4 132.600 11.9082   6
   2   8   4 103.558 12.7357  10
  -2   8  -4 137.097 11.7416   1
  -2   8  -4 122.233 11.5878   5
  -2   8  -4 103.297 11.1216   9
   2   8   4 140.306 12.4007   5
  -3  -8  -4 190.935 16.7912   4
   3  -8   4 168.908 17.2145   7
  -3   8  -4 167.246 16.0793   1
  -3   8  -4 163.446 16.1868   5
   3   8   4 149.861 16.9869  10
   3   8   4 180.910 16.1533   5
   3   8   4 174.254 16.8551  10
  -3   8  -4 179.105 16.3781   7
   3   8   4 182.656 16.8508   1
  -3   8  -4 138.238 16.2236   6
   4  -8   4 533.089 48.7921   7
  -4  -8  -4 491.835 46.9947   8
  -4   8  -4 542.466 47.8639   5
  -4   8  -4 519.525 55.3437   3
   4   8   4 543.599 48.0760   1
  -4   8  -4 562.969 47.7832   1
  -5  -8  -4 5.02315 1.65021   8
   5  -8   4 2.50349 2.42644   7
   5  -8   4 3.84769 2.57573   1
  -5   8  -4 6.21265 2.70213   5
  -5   8  -4 4.15615 2.34398   7
   5   8   4 1.98644 2.16443   1
  -5   8  -4 3.79834 2.20605   1
  -5   8  -4 3.18164 2.13293   3
  -6  -8  -4 11.0584 2.27981   8
   6  -8   4 12.9539 3.48982   1
   6  -8   4 10.8551 3.29246   7
  -6   8  -4 12.5800 3.12353   3
  -6   8  -4 13.3998 3.28908   1
   6   8   4 12.6448 2.97657   1
  -6   8  -4 9.54871 3.04137   7
  -6   8  -4 13.6533 3.45767   5
   7  -8   4 167.682 18.4777   1
  -7  -8  -4 175.091 17.2762   8
   7  -8   4 177.271 18.4186   7
   7   8   4 220.231 18.1640   1
  -7   8  -4 196.492 18.3544   7
  -7   8  -4 192.423 18.4045   5
   8  -8   4 392.907 38.2350   7
  -8  -8  -4 437.371 37.1370   8
  -8   8  -4 444.574 38.3006   7
  -8   8  -4 425.582 38.2074   5
   8   8   4 377.562 37.5781   1
   9  -8   4 2.22167 2.24971   7
   9  -8   4 3.29679 2.04388   5
   9  -8   4 1.99024 2.52535   1
  -9  -8  -4 1.41989 1.57813   8
   9   8   4 4.03107 2.37314   1
  -9   8  -4 1.92118 2.30755   7
  -9   8  -4 3.98397 2.63790   5
 -10  -8  -4 0.49176 1.55996   8
  10  -8   4 -0.6783 2.54847   1
  10  -8   4 3.74668 1.88317   5
 -10   8  -4 -0.4666 2.56210   5
   9  -9  -4 22.3334 5.09903   1
  -9  -9   4 25.3285 2.67345   8
  -9   9   4 20.7538 5.07212   5
   8  -9  -4 221.933 20.2070   1
  -8  -9   4 187.188 17.5464   8
  -8   9   4 189.891 19.9954   7
  -8   9   4 212.449 20.3178   5
  -7  -9   4 486.106 44.3086   8
   7  -9  -4 513.252 46.6319   1
   7  -9  -4 487.224 46.1931   7
  -7   9   4 461.564 46.7986   7
  -7   9   4 608.422 47.1880   5
   6  -9  -4 375.883 34.3242   7
  -6  -9   4 366.606 32.3768   8
  -6   9   4 361.709 34.5735   5
  -6   9   4 367.017 34.8559   7
   5  -9  -4 25.3970 5.01810   7
   5  -9  -4 42.1683 5.83714   1
  -5  -9   4 33.2242 3.56355   8
  -5   9   4 33.8881 5.94234   1
  -5   9   4 27.7166 5.64869   5
  -5   9   4 38.9348 6.15423   7
   5   9  -4 40.6301 4.78126   1
   4  -9  -4 312.140 27.3330   1
   4  -9  -4 294.619 27.4752   7
   4  -9  -4 275.822 28.7528   4
  -4  -9   4 286.807 25.9576   8
  -4   9   4 298.490 28.0733   7
  -4   9   4 273.831 27.8633   1
   4   9  -4 321.102 26.6358   1
  -4   9   4 272.101 27.7038   5
   3  -9  -4 541.753 56.6071   1
  -3  -9   4 661.408 55.8024   8
   3  -9  -4 611.620 57.0931   7
   3  -9  -4 640.675 60.7058   4
  -3   9   4 662.623 57.9931   7
  -3   9   4 616.414 57.6672   1
  -3   9   4 666.346 57.5203   5
   3   9  -4 675.131 56.2660   1
  -2  -9   4 700.563 60.1964   8
   2  -9  -4 762.754 65.3367   4
   2   9  -4 780.703 60.6584   1
  -2   9   4 570.389 61.2681   5
  -2   9   4 567.391 61.6217   1
  -2   9   4 694.822 62.1822   7
  -1  -9   4 30.7671 4.24107   7
  -1  -9   4 39.4921 4.33014   8
   1  -9  -4 49.0822 5.10614   4
  -1   9   4 44.5421 6.55290   1
  -1   9   4 30.3253 5.49995   5
  -1   9   4 39.4413 5.95228   7
   1   9  -4 40.0702 4.52024   6
   1   9  -4 31.6356 4.34805   1
   0  -9   4 297.845 29.2053   7
   0   9  -4 347.245 29.8785   6
   0   9   4 347.102 30.3444   7
   0   9   4 305.374 30.2041   1
   0   9  -4 348.460 29.0420   1
   0   9   4 278.460 29.6514   5
   1  -9   4 577.957 53.0911   7
  -1  -9  -4 629.230 56.2987   4
  -1   9  -4 560.015 52.3460   1
   1   9   4 564.257 52.9492   5
   1   9   4 631.515 58.7019  10
  -1   9  -4 577.973 53.8813   6
  -1   9  -4 567.163 52.0528   5
   1   9   4 539.442 53.3633   1
  -1   9  -4 643.699 57.5297  10
   2   9   4 756.017 74.5041   1
  -2   9  -4 781.317 73.6497   1
  -2   9  -4 847.392 81.7070  10
  -2   9  -4 856.868 74.3908   7
   2   9   4 810.774 73.9096   5
   2   9   4 894.958 81.2532  10
  -2   9  -4 872.500 75.8733   6
  -2   9  -4 829.852 73.4758   5
   3  -9   4 25.5695 4.83335   7
  -3   9  -4 31.0402 4.24905   1
   3   9   4 29.4609 5.12214   1
  -3   9  -4 31.1391 4.46084   5
  -3   9  -4 35.8389 4.72738   7
   4  -9   4 212.076 22.5742   7
  -4   9  -4 241.442 21.6945   1
  -4   9  -4 223.279 21.7960   5
   4   9   4 249.867 22.2848   1
  -4   9  -4 238.241 21.9635   7
  -5   9  -4 452.644 45.7479   7
  -5   9  -4 536.511 45.5503   1
  -5   9  -4 530.688 45.6944   5
   6  -9   4 526.790 47.9838   1
   6  -9   4 495.523 48.1075   7
   6   9   4 501.397 47.3377   1
  -6   9  -4 511.249 47.7196   7
  -6   9  -4 558.761 47.4909   1
  -6   9  -4 566.234 47.6435   5
   7  -9   4 17.6002 4.06827   1
  -7  -9  -4 17.3767 2.68210   8
   7  -9   4 14.5262 3.72320   7
   7   9   4 19.5255 3.75672   1
  -7   9  -4 25.8983 4.25243   1
  -7   9  -4 14.6329 3.42838   7
  -7   9  -4 17.2525 3.79031   5
   8  -9   4 89.2042 12.0636   1
  -8  -9  -4 119.265 10.8978   8
   8  -9   4 120.346 12.3933   7
  -8   9  -4 128.110 12.1410   7
  -8   9  -4 108.109 11.9754   5
   8   9   4 122.748 11.7789   1
  -9  -9  -4 323.724 27.4962   8
   9  -9   4 257.266 28.0223   5
   9   9   4 297.801 28.1151   1
  -9   9  -4 351.455 28.8083   5
   7 -10  -4 14.8420 3.69292   1
   7 -10  -4 13.9530 3.52317   7
  -7 -10   4 12.9251 1.72502   8
  -7  10   4 10.6500 3.89313   5
   6 -10  -4 3.66417 2.48754   7
  -6 -10   4 2.92282 0.91760   8
   6 -10  -4 0.08075 2.15649   1
  -6  10   4 4.46796 3.07088   5
  -6  10   4 3.90650 3.11389   7
   5 -10  -4 40.3544 6.02763   1
   5 -10  -4 44.7016 5.89489   7
  -5 -10   4 42.5302 4.34806   8
  -5  10   4 35.3572 6.31437   7
   5  10  -4 53.4136 5.35124   1
  -5  10   4 40.7067 6.59567   5
  -5  10   4 39.9570 6.72185   1
   4 -10  -4 21.1061 3.48919   4
   4 -10  -4 22.6676 3.82544   1
   4 -10  -4 17.9020 3.37281   7
  -4 -10   4 19.3669 2.44533   8
  -4  10   4 15.5020 4.10996   7
  -4  10   4 18.2913 4.35816   5
  -4  10   4 16.5380 4.57247   1
   4  10  -4 23.8677 3.29905   1
  -3 -10   4 1.45220 1.04733   8
   3 -10  -4 0.59115 1.62044   4
   3 -10  -4 2.98553 1.64244   7
   3  10  -4 0.34366 1.41992   1
  -3  10   4 3.54338 2.72755   5
  -3  10   4 4.53912 2.84786   7
  -3  10   4 3.22698 2.99108   1
   2 -10  -4 2.14845 1.72724   4
   2  10  -4 6.47953 1.75943   1
  -2  10   4 5.78060 2.98187   1
  -2  10   4 3.66929 2.60904   5
  -2  10   4 3.34101 2.59233   7
  -1 -10   4 4.90256 1.45772   7
  -1  10   4 6.08566 3.06723   1
  -1  10   4 5.56129 2.78957   5
   1  10  -4 5.54156 1.80430   1
  -1  10   4 5.48172 2.92381   7
   0 -10   4 0.97525 1.21517   7
   0  10   4 3.35659 2.39626   5
   0  10   4 1.02583 2.34404   1
   0  10  -4 0.90421 1.51480   1
   1 -10   4 47.7992 5.65340   7
  -1  10  -4 49.4501 5.63586   1
   1  10   4 58.0601 7.04498   1
   1  10   4 45.3467 6.21547   5
   2 -10   4 11.4297 2.70395   7
  -2  10  -4 10.6339 2.30410   5
  -2  10  -4 11.2624 2.49587   1
   2  10   4 13.7610 3.58986   1
   2  10   4 18.6660 3.14112   5
   3 -10   4 15.6510 3.45041   7
   3  10   4 17.9642 4.00690   1
  -3  10  -4 20.5524 3.25466   5
  -3  10  -4 20.6138 3.30440   1
   4 -10   4 27.6737 4.81299   7
  -4  10  -4 37.1749 4.88988   7
  -4  10  -4 29.9563 4.40326   1
   4  10   4 27.3287 4.79939   1
  -4  10  -4 34.6798 4.65403   5
   5 -10   4 73.5605 9.29165   7
  -5  10  -4 80.4600 8.55308   1
   5  10   4 78.9607 8.79521   1
  -5  10  -4 81.0209 8.67353   5
  -5  10  -4 83.8507 8.81456   7
   6 -10   4 43.5404 6.48106   7
  -6  10  -4 51.9640 6.12863   1
  -6  10  -4 48.8006 6.26631   7
  -6  10  -4 54.7146 6.33394   5
   6  10   4 41.2136 5.88596   1
   7 -10   4 34.1529 6.01778   7
  -7  10  -4 52.8441 6.27023   7
   7  10   4 38.4571 5.81332   1
  -7  10  -4 50.4854 6.15637   5
  -7  10  -4 47.0734 5.85769   1
  -5 -11   4 17.6223 2.26124   8
   5 -11  -4 16.1480 3.29998   7
  -5  11   4 18.3717 4.23922   5
  -5  11   4 15.6210 4.65891   1
   5  11  -4 22.0421 3.08516   1
  -5  11   4 15.6474 4.15833   7
  -4 -11   4 182.231 15.5653   8
   4 -11  -4 167.097 16.3922   7
  -4  11   4 157.839 17.3023   7
   4  11  -4 181.482 16.1415   1
  -4  11   4 175.729 17.3650   5
  -4  11   4 160.976 17.3882   1
   3 -11  -4 256.208 24.5958   7
  -3  11   4 228.489 25.3653   1
  -3  11   4 274.199 25.7353   7
  -3  11   4 257.080 25.3178   5
   3  11  -4 312.542 24.4299   1
   2 -11  -4 318.815 29.0490   7
  -2  11   4 329.138 29.9465   1
   2  11  -4 313.458 28.6358   1
  -2  11   4 306.378 29.5081   5
  -2  11   4 324.704 29.9981   7
  -1 -11   4 5.51370 1.52919   7
  -1  11   4 3.52651 2.27076   5
   1  11  -4 7.37949 1.91002   1
  -1  11   4 4.95116 2.62478   1
   0 -11   4 165.387 15.8032   7
   0  11   4 172.141 16.9029   1
   0  11  -4 168.679 15.7488   1
   0  11   4 176.022 16.3937   5
   1 -11   4 314.224 30.8823   7
  -1  11  -4 355.153 30.7126   1
   1  11   4 355.484 30.9067   5
   2 -11   4 362.184 31.7819   7
   2  11   4 349.200 32.3240   1
  -2  11  -4 336.085 31.3923   1
   3 -11   4 3.11637 1.85148   7
  -3  11  -4 0.83236 1.50182   1
  -3  11  -4 3.70456 1.77324   5
   3  11   4 4.87943 2.71425   1
   4 -11   4 168.411 17.0779   7
  -4  11  -4 196.855 16.8354   5
  -4  11  -4 197.250 16.8209   1
   4  11   4 146.552 17.1048   1
   5  11   4 306.141 31.5491   1
  -5  11  -4 367.583 31.4456   1
  -5  11  -4 363.526 31.4440   5
  -2  12   4 73.8566 9.15135   5
   2  12  -4 97.0260 8.70242   1
  -2  12   4 85.9284 9.79712   1
   1  12  -4 0.28387 1.43201   1
  -1  12   4 1.14582 1.87209   5
  -1  12   4 1.75303 2.46976   1
   0 -12   4 21.7192 2.99151   7
   0  12   4 18.2995 3.20873   5
   0  12   4 17.4755 3.91119   1
   0  12  -4 22.2701 3.19959   1
  -1  12  -4 5.60741 1.91199   1
   1  12   4 4.62828 2.64611   1
  -2  12  -4 143.597 14.2104   1
   2  12   4 160.073 15.0525   1
 -13   0   5 2.69166 1.81907   8
 -12   0   5 -0.1580 1.66698   8
 -11   0   5 0.50630 1.72646   8
  11   0  -5 1.70197 1.82623   6
  10   0  -5 -0.7849 1.53040   6
 -10   0   5 2.35718 1.63274   8
   9   0  -5 -0.4466 1.62299   6
  -9   0   5 3.24054 1.63783   8
   8   0  -5 1.14396 2.11089   6
  -8   0   5 0.82433 1.23045   8
   8   0  -5 1.09457 2.35413   1
  -7   0   5 3.62677 1.28778   8
   7   0  -5 4.37168 2.31751   6
   7   0  -5 2.69333 2.29629   1
  -7   0   5 3.58038 1.23748   8
   6   0  -5 3.61951 2.17064   6
  -6   0   5 3.32075 1.23379   8
   6   0  -5 5.05390 2.47683   1
  -6   0   5 2.78630 0.89271   8
   5   0  -5 11.0156 2.78816   6
  -5   0   5 3.49008 1.39989   7
  -5   0   5 2.45168 1.06567   8
  -5   0   5 0.78583 0.56080   8
   4   0  -5 8.18432 2.42890   4
   4   0  -5 3.09036 2.02726   6
  -4   0   5 1.72195 0.59710   8
  -4   0   5 5.48900 1.67762   8
  -4   0   5 1.90348 1.03702   7
   3   0  -5 5.93698 1.90579   6
  -3   0   5 4.91462 1.02496   7
  -3   0   5 2.60441 1.72867   8
  -2   0   5 3.07172 1.12511   7
  -2   0   5 5.45691 1.94915   9
  -2   0   5 4.86763 2.08597   8
   2   0  -5 4.70958 0.92387  10
   2   0  -5 4.80255 1.90902   6
   2   0  -5 4.75452 1.00948  10
  -1   0   5 2.43300 0.89008  10
  -1   0   5 1.91444 0.62411   2
   1   0  -5 2.05440 1.33904   6
   1   0  -5 4.11592 0.69750   2
   1   0  -5 4.59015 2.07250  10
  -1   0   5 2.52235 0.88396   7
  -1   0   5 4.21308 2.02564   8
   1   0  -5 2.14592 0.81045   9
  -1   0   5 1.25169 1.91334   9
   1   0  -5 1.59525 0.67567  10
   0   0  -5 3.06049 0.97484   2
   0   0   5 9.67018 3.35382   9
   0   0  -5 0.16744 0.89787  10
   0   0  -5 4.46418 1.79804   6
   0   0  -5 4.36558 2.17049   7
   0   0   5 5.90837 2.42733  10
   0   0  -5 2.09794 0.90318   9
   0   0  -5 7.96818 3.27192  10
   0   0  -5 15.9829 3.47780   9
   0   0   5 3.15064 1.04205   2
  -1   0  -5 4.86639 2.56164  10
   1   0   5 3.81573 0.99210  10
  -1   0  -5 1.19793 0.67293   9
   1   0   5 13.2119 3.12609  10
  -1   0  -5 1.30540 3.14642   9
   1   0   5 1.06909 0.69490   9
   1   0   5 3.81620 1.05572   7
  -1   0  -5 2.29967 0.85936   2
  -1   0  -5 1.14556 0.73291  10
   1   0   5 -0.1376 2.47772   9
  -1   0  -5 1.44986 1.73810   7
   1   0   5 3.04863 0.96039   2
  -2   0  -5 4.68920 2.97357   4
   2   0   5 2.39249 1.09679   2
   2   0   5 -0.1490 2.39798  10
   2   0   5 1.42093 0.91725   5
  -2   0  -5 1.18270 2.69756  10
  -2   0  -5 2.10617 1.84159   6
   2   0   5 0.46688 0.96658   7
  -2   0  -5 0.72776 1.00998   2
   2   0   5 11.4817 3.41241   9
  -2   0  -5 4.22534 3.47429   9
   2   0   5 0.79044 0.81959   9
   2   0   5 0.97498 0.87835  10
  -2   0  -5 1.91261 0.94805   9
   3   0   5 0.15402 0.98169   1
   3   0   5 0.77572 0.86195  10
   3   0   5 4.40297 1.00141   9
   3   0   5 12.0752 4.43576   9
  -3   0  -5 0.72437 1.02194   2
   3   0   5 8.33523 3.50271  10
  -3   0  -5 1.04265 0.84241  10
   3   0   5 4.64797 1.10806   5
  -3   0  -5 5.13927 2.41568   7
   3   0   5 1.92814 1.03343   7
  -3   0  -5 3.67392 2.35611   6
   3   0   5 1.77164 1.04619   2
  -3   0  -5 1.53705 0.89164   9
  -3   0  -5 0.44159 2.88580  10
   4   0   5 0.97595 1.02511   2
   4   0   5 0.99663 2.20092   9
   4   0   5 3.42558 0.99153   5
  -4   0  -5 0.07421 3.40926  10
  -4   0  -5 2.14346 2.37954   7
  -4   0  -5 0.83559 0.76617   8
  -4   0  -5 2.01441 0.96656   9
   4   0   5 1.16356 0.97711   7
  -4   0  -5 1.28111 1.10361   2
  -4   0  -5 1.32781 2.17693   6
  -4   0  -5 1.23955 0.78394  10
   4   0   5 0.58296 0.95838   1
   4   0   5 0.72372 0.71557  10
   4   0   5 -0.4716 3.38676  10
   4   0   5 3.19631 0.89720   9
   5   0   5 2.02702 1.30388   1
   5   0   5 1.17459 1.11582   2
   5   0   5 3.22016 3.64243  10
  -5   0  -5 1.70962 0.99384   8
   5   0   5 1.34794 1.00930   5
   5   0   5 5.56394 1.21957  10
  -5   0  -5 11.1046 3.31043   7
   5   0   5 3.64055 1.99511   9
  -5   0  -5 4.14034 1.27317   9
   5   0   5 1.50415 1.16443   1
   5   0   5 0.51965 0.97064   7
   5   0   5 1.26637 0.85364   9
   6   0   5 2.46154 1.01703  10
  -6   0  -5 5.39273 2.79145   7
   6   0   5 1.65541 0.96615   9
   6   0   5 2.50921 1.05560   7
   6   0   5 0.45310 1.19170   1
   6   0   5 0.74661 1.29243   1
   6   0   5 3.35767 1.07736   5
   6   0   5 2.50750 0.75300   9
   6   0   5 3.81938 3.51503  10
  -6   0  -5 1.27593 0.96961   8
  -7   0  -5 1.14574 2.36913   7
   7   0   5 2.68002 1.53634   1
  -7   0  -5 1.08246 1.06657   8
   7   0   5 0.32802 0.87280  10
   7   0   5 4.70260 1.24370   7
   7   0   5 1.00198 2.25471  10
   8   0   5 1.09606 0.78591  10
  -8   0  -5 4.37665 1.50455   8
   8   0   5 0.49479 1.10778  10
   8   0   5 1.69553 0.99749   5
  -8   0  -5 1.75347 2.45942   7
   8   0   5 -0.2746 1.41136   1
  -9   0  -5 -0.3164 2.24495   7
  -9   0  -5 5.93724 1.82968   8
   9   0   5 3.59686 1.91545   1
  10   0   5 2.70567 1.92764   1
 -10   0  -5 1.66639 1.63559   8
 -10   0  -5 -0.9710 2.28591   7
  11   0   5 3.34953 2.13446   1
  12   0   5 0.57702 2.04267   1
  13   0   5 2.18237 2.25966   1
 -13  -1   5 2.57824 1.51809   8
 -13   1   5 7.72846 2.62977   8
 -12  -1   5 18.8577 2.98485   8
 -12   1   5 29.0949 4.43978   8
 -11  -1   5 -0.3262 1.40862   8
  11  -1  -5 -0.1563 1.90691   6
 -11   1   5 3.01756 2.36992   8
  11   1  -5 1.75784 1.31580   6
  10  -1  -5 913.994 85.8491   6
  10  -1  -5 980.137 83.7419   1
  10   1  -5 927.411 85.1759   6
  -9  -1   5 3.79673 1.36058   8
   9  -1  -5 4.74978 2.67276   1
   9  -1  -5 2.53528 2.30468   6
   9   1  -5 3.52704 1.64401   6
  -9   1   5 1.94461 1.81553   8
  -8  -1   5 174.238 16.3444   8
   8  -1  -5 169.460 18.1516   1
   8  -1  -5 174.493 18.6626   6
  -8  -1   5 193.616 16.3317   8
  -8   1   5 194.016 17.0599   8
   7  -1  -5 18.1291 4.17451   6
   7  -1  -5 16.9033 4.17734   1
  -7  -1   5 16.1694 1.80755   8
  -7  -1   5 16.9391 1.75840   8
   7   1  -5 12.2641 2.61772   6
  -7   1   5 14.6190 2.70825   8
   6  -1  -5 3580.98 318.777   6
   6  -1  -5 4098.31 310.374   1
  -6   1   5 3165.92 311.090   7
   6   1  -5 3509.40 317.604   6
   6   1  -5 3201.32 308.896   1
  -6   1   5 3658.27 307.899   8
   5  -1  -5 9.92670 3.46191   6
  -5  -1   5 9.16907 1.26985   2
   5  -1  -5 9.58773 3.41188   1
   5   1  -5 6.31541 1.82110   6
  -5   1   5 6.23476 1.35551   8
  -5   1   5 8.55103 2.17818   8
  -5   1   5 4.85950 1.89069   7
  -5   1   5 9.74341 3.90785   3
   4  -1  -5 865.294 70.2406   1
   4  -1  -5 806.434 75.0722   4
   4  -1  -5 855.723 69.1610   7
  -4  -1   5 720.421 69.0416   7
  -4  -1   5 711.633 70.2601   2
   4  -1  -5 687.098 71.9658   6
  -4   1   5 788.078 71.8443   9
  -4   1   5 889.729 69.3215   8
  -4   1   5 787.130 69.6029   7
   4   1  -5 731.078 70.8307   6
   3  -1  -5 32.2123 3.36687  10
  -3  -1   5 30.8918 3.22853   2
   3  -1  -5 46.4596 5.89186   1
  -3  -1   5 27.7463 3.00102   8
  -3  -1   5 38.7185 3.53517   8
   3  -1  -5 49.7469 6.47181   4
  -3  -1   5 33.2558 3.42690   2
  -3  -1   5 36.7680 3.33655   7
   3  -1  -5 35.1636 5.70070   6
   3  -1  -5 32.8611 3.49864  10
  -3   1   5 29.0265 4.18763   8
   3   1  -5 32.2387 3.75615   6
  -3   1   5 46.1192 4.61726   9
  -3   1   5 30.9418 3.57827   7
  -2  -1   5 5755.19 537.506   2
   2  -1  -5 6149.49 563.948   4
   2  -1  -5 5834.98 537.250   2
   2  -1  -5 6939.19 581.612  10
   2  -1  -5 5396.91 545.953   9
  -2  -1   5 5643.87 522.185   8
   2  -1  -5 6147.10 546.057   9
  -2  -1   5 5042.79 522.066   8
  -2   1   5 5197.99 527.935   7
  -2   1   5 5585.62 522.375   8
  -2   1   5 6788.54 546.767   9
  -2   1   5 6744.03 582.043  10
  -2   1   5 6753.97 546.908   9
   1  -1  -5 61.4303 8.22451  10
   1  -1  -5 57.2542 6.82002  10
  -1  -1   5 81.3512 7.59071   9
   1  -1  -5 63.6219 6.33577   9
   1  -1  -5 67.8687 7.50522   6
  -1  -1   5 52.8337 6.62976   8
  -1  -1   5 72.3203 6.31067   2
   1  -1  -5 55.6823 6.92352   9
  -1  -1   5 62.1838 6.31054   7
   1  -1  -5 69.8560 6.26181   2
  -1   1   5 63.7326 6.37374   7
  -1   1   5 71.7653 8.32489   9
   1   1  -5 74.2553 6.74798  10
   1   1  -5 64.1512 6.69200   6
  -1   1   5 79.7441 9.26995  10
  -1   1   5 57.3225 7.48158   8
  -1   1   5 68.8341 6.95879  10
  -1   1   5 67.2046 6.49943   2
   1   1  -5 84.7200 7.52088  10
   0  -1   5 1019.66 92.2501  10
   0  -1  -5 1094.07 88.1331   9
   0  -1  -5 810.218 92.2022  10
   0  -1   5 909.931 83.3866   8
   0  -1  -5 1017.28 93.6286  10
   0  -1   5 1028.76 85.2615   2
   0  -1  -5 802.700 86.5460   9
   0  -1  -5 1103.05 85.3108   2
   0  -1   5 977.829 87.6226   9
   0  -1   5 816.738 92.6998  10
   0  -1  -5 930.579 86.1311   6
   0   1  -5 1005.59 86.5685   9
   0   1   5 871.134 88.0132   9
   0   1   5 1004.72 92.2841  10
   0   1   5 983.599 93.8497  10
   0   1  -5 1100.39 87.2062   9
   0   1   5 902.661 83.7668   7
   0   1  -5 802.357 85.7994   6
   0   1   5 855.187 85.2708   2
   1  -1   5 2.81668 2.37887   9
  -1  -1  -5 1.90621 0.75821   9
  -1  -1  -5 3.95558 1.70979   6
  -1  -1  -5 4.74161 2.65705  10
  -1  -1  -5 2.70150 0.99766   2
   1  -1   5 1.65713 0.91310   7
   1  -1   5 4.52565 1.10240  10
  -1  -1  -5 3.73367 1.06237  10
   1  -1   5 2.71560 2.32131  10
  -1  -1  -5 2.44872 2.72286   9
  -1  -1  -5 3.60574 1.75347   7
   1  -1   5 3.27954 0.91849   2
   1   1   5 0.85832 0.72156  10
   1   1   5 0.58867 2.68050   9
  -1   1  -5 0.97632 0.83481   2
   1   1   5 1.58278 0.85612   7
   1   1   5 1.81750 0.73833   9
  -1   1  -5 2.73940 0.80578   9
  -1   1  -5 1.71801 1.83224   9
  -1   1  -5 1.43460 0.83365  10
   1   1   5 1.50057 0.89721   2
  -1   1  -5 3.72602 2.45515  10
  -1   1  -5 2.92373 1.80676   6
   1   1   5 1.81143 0.76146  10
   1   1   5 2.09033 0.90526   5
  -1   1  -5 3.66169 2.08735   7
  -2  -1  -5 4982.77 455.119   2
   2  -1   5 4350.32 446.263   7
   2  -1   5 5137.63 492.171  10
   2  -1   5 5223.15 491.655  10
  -2  -1  -5 4946.96 461.903   9
   2  -1   5 4727.51 462.595   9
  -2  -1  -5 5767.53 491.595  10
  -2  -1  -5 5685.53 455.669   6
   2  -1   5 4862.83 461.524   9
  -2   1  -5 5577.58 462.016   9
   2   1   5 4896.94 491.914  10
  -2   1  -5 5657.45 446.880   7
   2   1   5 4821.41 446.381   7
  -2   1  -5 5747.04 455.593   2
   2   1   5 4315.21 454.840   2
  -2   1  -5 5063.93 455.755   6
  -2   1  -5 4362.60 461.855   9
  -2   1  -5 5534.10 492.284  10
  -2   1  -5 5386.00 492.540  10
   2   1   5 4950.52 461.328   9
   2   1   5 4371.88 491.145  10
   3  -1   5 236.280 22.4711  10
  -3  -1  -5 255.318 23.7319   4
  -3  -1  -5 236.601 23.8695  10
   3  -1   5 194.396 20.7983   2
   3  -1   5 223.603 20.5734   7
  -3  -1  -5 258.886 21.1270   9
   3  -1   5 255.361 20.3504   5
   3  -1   5 240.030 21.0002   9
  -3  -1  -5 221.862 21.2099   7
   3  -1   5 201.196 23.1508   9
   3  -1   5 192.815 20.2877   1
  -3  -1  -5 230.844 20.9638   2
  -3  -1  -5 216.220 21.7351   6
  -3  -1  -5 210.620 20.0840   8
   3  -1   5 220.833 24.4497  10
   3   1   5 228.426 20.1921   5
  -3   1  -5 278.885 25.2873  10
   3   1   5 257.542 24.5591  10
   3   1   5 189.452 20.9143   9
  -3   1  -5 235.663 21.0784   9
   3   1   5 236.372 23.1431   9
  -3   1  -5 227.732 22.5049  10
   3   1   5 198.635 20.8610   2
  -3   1  -5 230.182 22.1630   7
  -3   1  -5 232.280 22.2025   6
   3   1   5 228.932 22.3677  10
   3   1   5 254.371 20.4632   7
  -3   1  -5 193.645 20.8012   2
  -4  -1  -5 241.735 24.6844   4
  -4  -1  -5 267.756 22.5477   7
   4  -1   5 254.292 21.8639   2
   4  -1   5 255.416 21.8667   9
  -4  -1  -5 234.782 22.7982   6
   4  -1   5 267.839 26.2800  10
  -4  -1  -5 234.296 21.9035   2
  -4  -1  -5 253.231 25.1376  10
   4  -1   5 241.133 21.4517   7
   4  -1   5 209.629 23.3417   9
  -4  -1  -5 216.644 20.9417   8
   4  -1   5 237.954 21.2848   1
   4  -1   5 232.053 21.1043   5
  -4  -1  -5 204.610 21.8953   9
   4  -1   5 229.676 23.3445  10
  -4   1  -5 223.223 21.8113   2
   4   1   5 229.504 21.2133   7
  -4   1  -5 226.831 25.1684  10
   4   1   5 219.070 20.9655   5
   4   1   5 229.479 21.2441   1
   4   1   5 208.732 21.7854   2
   4   1   5 266.178 23.3239  10
  -4   1  -5 228.930 23.2839   7
  -4   1  -5 255.799 23.8967   6
   4   1   5 250.674 21.8406   9
  -4   1  -5 247.524 23.5331  10
   4   1   5 220.638 25.4161  10
   4   1   5 228.881 22.9206   9
   5  -1   5 27.3571 3.10294   9
   5  -1   5 24.3293 3.41080  10
   5  -1   5 28.1744 3.42545   1
   5  -1   5 41.7012 7.66012  10
  -5  -1  -5 27.1624 3.08191   8
   5  -1   5 32.8241 3.51821   7
   5  -1   5 21.3120 3.08452   5
   5  -1   5 27.8763 3.53409   2
  -5  -1  -5 33.7087 4.99893   7
   5  -1   5 30.7349 4.97257   9
   5   1   5 27.4169 3.51038   9
   5   1   5 29.4528 3.57123   2
  -5   1  -5 23.9748 3.32290   9
   5   1   5 25.5300 2.98703   5
  -5   1  -5 28.2133 5.51058   5
   5   1   5 27.8781 5.92152  10
  -5   1  -5 29.6961 3.18972   8
   5   1   5 27.7475 3.11705   7
   5   1   5 27.1381 3.22253  10
   5   1   5 20.5605 3.28887   1
  -5   1  -5 26.8956 5.21846   1
  -5   1  -5 29.0573 5.73252   7
   5   1   5 29.0838 2.94732   9
   6  -1   5 2849.56 255.650  10
   6  -1   5 2352.73 240.429   9
   6  -1   5 2916.50 230.867   1
  -6  -1  -5 2465.26 229.610   8
   6  -1   5 2637.03 232.188   7
   6  -1   5 2767.07 229.956   5
  -6   1  -5 2433.94 229.696   8
   6   1   5 3020.92 257.125  10
   6   1   5 2778.44 231.983   7
   6   1   5 2346.67 229.752   5
   6   1   5 2602.63 230.796   1
  -6   1  -5 2274.64 231.287   5
  -6   1  -5 2752.86 234.357   7
   6   1   5 2700.74 255.495  10
  -7  -1  -5 377.472 29.9374   8
   7  -1   5 396.140 29.9113   5
   7  -1   5 305.440 32.9808  10
   7  -1   5 308.060 30.2340   1
   7  -1   5 325.490 30.1832   7
  -7   1  -5 324.960 29.9583   8
   7   1   5 332.856 30.1828   1
   7   1   5 320.745 29.6148   5
   7   1   5 324.836 32.8124  10
  -7   1  -5 366.385 32.4605   7
   7   1   5 335.585 32.8167  10
   7   1   5 326.817 30.2306   1
   8  -1   5 2.69051 1.16821   5
  -8  -1  -5 2.77084 2.68404   7
   8  -1   5 17.3206 3.19511  10
   8  -1   5 3.60266 1.85113   1
  -8  -1  -5 6.34999 1.65874   8
   8  -1   5 1.67385 0.96013  10
   8   1   5 5.79153 1.10388   5
  -8   1  -5 1.98798 2.97141   7
  -8   1  -5 4.80394 1.73123   8
   8   1   5 2.74118 1.73856   1
   9  -1   5 42.1538 4.20517   5
   9  -1   5 40.8060 5.07614   1
   9  -1   5 36.8293 4.19916  10
   9  -1   5 44.8490 4.37035  10
  -9  -1  -5 44.9794 6.34196   7
  -9  -1  -5 44.2895 4.73150   8
   9   1   5 34.5870 4.86639   1
  -9   1  -5 33.3133 6.26097   7
 -10  -1  -5 894.161 76.7007   8
  10  -1   5 952.358 77.3410   1
  10   1   5 848.099 77.0693   1
 -10   1  -5 779.618 78.5463   7
 -11  -1  -5 382.278 33.0330   8
  11  -1   5 351.279 33.3314   1
  11   1   5 362.228 33.1734   1
  12  -1   5 25.5013 4.36504   1
  12   1   5 23.5525 3.81803   1
  13  -1   5 35.4163 5.05245   1
 -13  -1  -5 22.3415 5.87650   4
  13   1   5 29.0670 4.44223   1
 -13   2   5 91.3034 10.3069   8
  12  -2  -5 11.6632 3.40455   1
 -12  -2   5 10.0259 1.95965   8
 -12   2   5 16.4884 3.87847   8
  11  -2  -5 117.773 14.7512   6
  11  -2  -5 149.180 14.8783   1
 -11   2   5 172.476 15.1691   8
  11   2  -5 150.754 13.7650   6
  10  -2  -5 37.4173 6.36968   6
  10  -2  -5 39.9672 6.44335   1
 -10  -2   5 52.7115 4.66665   8
  10   2  -5 39.6008 4.80645   6
 -10   2   5 55.0792 6.67332   8
  -9  -2   5 311.127 24.2094   8
   9  -2  -5 289.357 27.1323   6
   9  -2  -5 257.762 26.3603   1
  -9  -2   5 262.222 24.2211   8
   9   2  -5 249.448 25.2048   6
   8  -2  -5 4.99836 3.54383   1
   8  -2  -5 6.21893 3.45719   6
   8   2  -5 4.57735 1.38413   6
  -8   2   5 5.94220 2.47373   8
   7  -2  -5 254.013 24.3244   1
   7  -2  -5 302.150 25.3243   6
   7   2  -5 255.093 22.4520   6
   7   2  -5 202.459 22.2683   6
  -7   2   5 234.861 23.2352   7
  -7   2   5 256.708 22.7247   8
   6  -2  -5 147.077 15.2048   1
   6  -2  -5 139.828 15.5257   6
  -6   2   5 155.841 13.8148   8
  -6   2   5 152.139 18.3525   3
  -6   2   5 118.200 13.7357   7
   5  -2  -5 600.888 60.8234   6
   5  -2  -5 770.731 63.7789   4
   5  -2  -5 648.000 58.6912   2
   5  -2  -5 597.383 59.1058   1
   5   2  -5 676.116 58.8944   6
  -5   2   5 595.303 58.4330   7
  -5   2   5 683.677 58.1746   8
   4  -2  -5 3.31130 0.74729   2
   4  -2  -5 0.88940 2.69307   1
   4  -2  -5 3.22955 1.02213  10
   4  -2  -5 3.19062 0.86446  10
   4  -2  -5 0.87341 2.27718   4
  -4  -2   5 2.59434 1.11004   2
   4  -2  -5 2.46062 3.00978   6
   4  -2  -5 2.50951 1.62474   7
  -4   2   5 1.09325 1.93904   8
  -4   2   5 6.07846 2.21625   9
   4   2  -5 2.81535 0.83187   6
  -4   2   5 2.77505 1.70690   7
   3  -2  -5 508.951 45.2977   4
   3  -2  -5 436.644 45.2053  10
   3  -2  -5 417.165 44.8459  10
   3  -2  -5 409.095 41.9157   9
   3  -2  -5 485.596 43.2205   6
   3  -2  -5 499.833 42.1942   1
   3  -2  -5 521.117 42.0004   9
   3  -2  -5 489.275 41.4608   2
  -3  -2   5 392.551 41.6914   2
   3  -2  -5 484.535 41.7221   2
  -3   2   5 445.333 41.2811   7
  -3   2   5 480.949 41.1590   8
   3   2  -5 432.792 41.5546   6
  -2  -2   5 213.302 18.9546   7
   2  -2  -5 202.935 19.4218   9
  -2  -2   5 185.291 18.6793   8
   2  -2  -5 258.889 22.1816  10
   2  -2  -5 228.833 19.7180   9
   2  -2  -5 227.311 21.9507   4
   2  -2  -5 196.575 19.3150   2
   2  -2  -5 243.581 21.0412   1
  -2  -2   5 218.052 18.6631   8
   2  -2  -5 207.454 20.8679  10
  -2  -2   5 219.096 19.7603   2
   2   2  -5 184.850 19.3545   6
  -2   2   5 229.692 19.3310   7
  -2   2   5 223.313 21.1352  10
  -2   2   5 184.739 20.4713   9
  -2   2   5 195.403 20.4058   9
  -2   2   5 194.033 19.3820   8
  -1  -2   5 541.742 44.7065   2
   1  -2  -5 459.494 45.1148   9
   1  -2  -5 554.924 44.5990   2
  -1  -2   5 477.508 43.4138   8
   1  -2  -5 470.535 45.7860   6
   1  -2  -5 431.164 49.3582  10
   1  -2  -5 458.485 48.1712  10
  -1  -2   5 508.638 45.4680   9
   1  -2  -5 432.538 45.9388   9
  -1  -2   5 487.871 43.7727   7
  -1   2   5 508.734 43.8682   7
  -1   2   5 524.423 49.8238  10
  -1   2   5 571.333 48.4070  10
  -1   2   5 497.688 46.6215   9
   1   2  -5 501.981 44.8493   6
   1   2  -5 432.426 43.8443   7
   0  -2   5 1.67094 1.11939   7
   0  -2  -5 0.44463 0.84042  10
   0  -2  -5 1.66408 0.93302   9
   0  -2  -5 0.12551 1.66631  10
   0  -2  -5 1.99858 1.08283   2
   0  -2   5 2.27984 1.59944   9
   0  -2   5 7.59017 1.51901   2
   0  -2   5 0.80953 1.39906   8
   0  -2  -5 5.58307 2.75314   9
   0  -2  -5 2.10862 2.00360   6
   0  -2  -5 1.01451 2.21674   4
   0  -2   5 2.35215 1.14645  10
   0   2   5 0.85668 0.85391   9
   0   2   5 2.05712 1.28213   2
   0   2  -5 1.00808 0.89593  10
   0   2   5 6.49960 3.08439  10
   0   2   5 6.52924 1.31376   7
   0   2   5 2.50300 1.01033   5
   0   2  -5 3.45964 1.65293   6
   0   2  -5 2.54708 1.64597   7
   0   2  -5 2.78240 0.75791   9
   0   2   5 3.80255 1.21708  10
   0   2  -5 1.41196 0.91024   9
   0   2  -5 2.65538 1.98448  10
   0   2   5 5.76629 2.85602   9
   1  -2   5 811.773 86.7103  10
  -1  -2  -5 926.523 81.8638   9
   1  -2   5 881.437 86.0999  10
   1  -2   5 1011.15 78.3909   7
  -1  -2  -5 968.244 80.9222   9
   1  -2   5 819.773 79.6432   2
   1  -2   5 819.328 81.8002   9
  -1  -2  -5 847.678 84.6948   4
  -1  -2  -5 914.900 86.1410  10
   1   2   5 797.611 87.2567  10
   1   2   5 877.266 79.7742   2
   1   2   5 949.617 78.1939   7
  -1   2  -5 914.710 80.7517   9
  -1   2  -5 764.487 86.6579  10
  -1   2  -5 918.862 81.3461   9
  -1   2  -5 790.453 80.3194   6
  -1   2  -5 988.930 86.0821  10
   1   2   5 907.744 82.4036   9
  -1   2  -5 877.872 79.6546   2
   1   2   5 896.980 77.4507   5
  -1   2  -5 819.287 78.9302   7
  -2  -2  -5 202.849 18.8166   7
  -2  -2  -5 193.849 19.2626   6
  -2  -2  -5 218.763 20.1576  10
   2  -2   5 182.899 20.3896   9
   2  -2   5 203.518 18.5906   2
  -2  -2  -5 205.671 21.2459   4
   2  -2   5 183.933 18.3279   7
   2  -2   5 189.040 21.5566  10
  -2  -2  -5 205.115 18.7003   2
  -2  -2  -5 196.893 21.0097  10
   2  -2   5 176.391 19.9806  10
  -2  -2  -5 210.499 18.8674   9
   2   2   5 208.931 18.7159   2
  -2   2  -5 161.723 20.6970  10
  -2   2  -5 236.134 19.7313   1
  -2   2  -5 229.770 18.6664   2
  -2   2  -5 228.098 20.0548  10
   2   2   5 175.938 18.1617   7
   2   2   5 188.409 21.3464  10
   2   2   5 216.862 20.0645  10
   2   2   5 205.480 18.1813   1
   2   2   5 219.176 18.7647   9
  -2   2  -5 203.423 18.7003   9
  -2   2  -5 200.150 19.3563   7
  -2   2  -5 169.579 19.4733   6
   2   2   5 180.180 17.9757   5
   2   2   5 197.152 20.4404   9
   3  -2   5 165.389 16.2898  10
  -3  -2  -5 161.912 15.3062   2
  -3  -2  -5 163.084 15.3474   9
   3  -2   5 161.872 14.7934   5
  -3  -2  -5 151.130 14.5100   8
   3  -2   5 172.866 15.0401   7
  -3  -2  -5 194.110 16.4841  10
   3  -2   5 165.976 14.8932   1
   3  -2   5 157.940 15.1073   2
  -3  -2  -5 160.918 15.9046   6
   3  -2   5 152.479 17.0906   9
   3  -2   5 153.278 18.4841  10
  -3  -2  -5 139.288 15.2617   7
   3  -2   5 154.240 15.1805   9
  -3  -2  -5 157.514 17.2014  10
   3   2   5 160.391 17.9861  10
   3   2   5 178.441 15.1504   9
   3   2   5 161.707 15.2552   2
  -3   2  -5 144.354 17.3725  10
  -3   2  -5 123.205 15.3403   5
  -3   2  -5 158.052 15.1438   2
   3   2   5 163.984 14.6176   5
   3   2   5 148.816 16.5727   9
  -3   2  -5 200.066 17.5731   9
  -3   2  -5 166.527 16.1245   7
   3   2   5 155.890 14.7708   1
  -3   2  -5 172.471 16.7055   6
   3   2   5 143.832 16.1642  10
   3   2   5 182.874 14.8884   7
  -3   2  -5 168.102 16.3777   1
  -3   2  -5 155.854 15.1709   9
   4  -2   5 6.76213 1.74790   7
  -4  -2  -5 5.33523 2.05585   7
   4  -2   5 8.01840 1.68885   5
   4  -2   5 7.80797 4.04856  10
   4  -2   5 4.24560 1.34391  10
   4  -2   5 4.96015 1.48513   2
   4  -2   5 6.75541 1.71726   1
   4  -2   5 6.44777 2.99546   9
  -4  -2  -5 7.51434 1.45128   8
   4  -2   5 9.23737 1.55766   9
  -4  -2  -5 6.87266 1.45423   9
  -4  -2  -5 2.63481 2.66724   4
   4   2   5 6.86666 1.61934  10
   4   2   5 8.64700 1.49224   5
   4   2   5 9.11282 1.35016   9
  -4   2  -5 5.51138 2.57874   6
  -4   2  -5 5.88694 2.58743   1
  -4   2  -5 6.85613 1.48821   9
  -4   2  -5 5.78331 1.71680  10
   4   2   5 9.24716 1.76346   1
   4   2   5 5.88329 1.45491   7
   4   2   5 3.40242 1.47593   2
  -4   2  -5 5.98786 3.32078  10
   4   2   5 6.33363 2.17688   9
   4   2   5 4.46424 3.30801  10
  -4   2  -5 4.45205 2.34139   5
  -4   2  -5 4.81893 2.52307   7
   5  -2   5 844.879 85.9667  10
  -5  -2  -5 978.947 83.0879   4
   5  -2   5 919.496 83.7633  10
   5  -2   5 831.345 76.1707   7
   5  -2   5 791.580 77.5505   2
  -5  -2  -5 795.173 76.6531   7
  -5  -2  -5 908.409 75.1857   8
   5  -2   5 912.258 79.9478   9
   5  -2   5 788.807 75.3553   5
   5   2   5 887.198 75.8788   7
  -5   2  -5 814.832 77.2596   7
   5   2   5 835.962 75.6083   1
   5   2   5 789.689 75.1312   5
  -5   2  -5 862.638 76.4880   5
   5   2   5 1006.42 85.2371  10
  -5   2  -5 879.244 75.2610   8
  -5   2  -5 861.233 78.7136   9
   5   2   5 764.790 83.4549  10
   5   2   5 836.909 83.5187  10
  -5   2  -5 943.410 76.9209   1
   5   2   5 819.166 77.7085   2
  -6  -2  -5 133.877 11.2311   8
   6  -2   5 118.351 12.3926  10
   6  -2   5 100.321 11.4407   1
   6  -2   5 139.177 11.7344   7
   6  -2   5 123.104 11.3414   5
  -6  -2  -5 119.183 14.2449   4
  -6  -2  -5 129.473 12.3554   7
   6  -2   5 147.461 15.8988  10
   6  -2   5 125.840 12.5288   9
   6   2   5 122.340 12.1207  10
  -6   2  -5 105.542 12.3421   5
   6   2   5 111.907 10.9443   5
   6   2   5 101.937 11.3838   1
  -6   2  -5 95.1266 12.8708   1
   6   2   5 126.518 11.1186   7
  -6   2  -5 110.804 12.5979   7
   6   2   5 142.060 13.1777  10
   7  -2   5 105.371 9.88700   7
  -7  -2  -5 131.955 11.0545   7
  -7  -2  -5 120.193 9.66677   8
   7  -2   5 103.637 9.93064   9
   7  -2   5 105.297 10.0396   1
   7  -2   5 89.3264 9.51111   5
  -7  -2  -5 102.087 12.7162   4
   7  -2   5 86.8568 10.3763  10
   7   2   5 103.297 9.19020   5
  -7   2  -5 78.5453 10.6986   7
   7   2   5 93.2737 9.86338   1
  -7   2  -5 95.1902 10.7666   5
   8  -2   5 4.75962 2.85159  10
   8  -2   5 2.60428 1.30715   5
   8  -2   5 3.57494 1.31073  10
   8  -2   5 2.50714 1.55200   7
  -8  -2  -5 3.15086 1.37177   8
   8  -2   5 4.16335 1.95319   1
  -8  -2  -5 2.50803 3.56205   4
  -8  -2  -5 3.17566 2.17993   7
   8   2   5 4.18789 1.84582   1
  -8   2  -5 0.85928 2.02679   7
   9  -2   5 433.152 37.1766   5
  -9  -2  -5 372.864 38.4276   7
  -9  -2  -5 466.746 37.4465   8
  -9  -2  -5 508.490 43.0467   4
   9  -2   5 462.411 41.5090  10
   9  -2   5 391.018 41.0477  10
   9  -2   5 339.197 37.7754   1
   9   2   5 427.009 37.8066   1
   9   2   5 405.070 37.6826   1
 -10  -2  -5 69.3066 7.03199   8
 -10  -2  -5 70.0542 10.0143   4
  10  -2   5 66.0016 7.69899   1
  10   2   5 80.0328 7.55479   1
 -10   2  -5 47.9391 7.98413   7
 -11  -2  -5 147.787 13.0673   8
  11  -2   5 130.699 13.5960   1
 -11  -2  -5 103.267 15.4975   4
  11   2   5 147.420 13.2294   1
 -12  -2  -5 3.83751 2.18538   8
 -12  -2  -5 -0.2223 3.12972   4
  12  -2   5 3.01080 2.43662   1
 -12   2  -5 1.19825 2.66398   7
  12   2   5 0.80594 1.96055   1
  13  -2   5 131.965 13.2602   1
 -13  -2  -5 115.620 15.1143   4
  13   2   5 137.621 12.8465   1
 -12  -3   5 214.544 20.3543   8
  12  -3  -5 207.723 21.9383   1
 -12   3   5 278.751 22.3212   8
  11  -3  -5 9.04156 3.51506   1
 -11  -3   5 8.39483 1.49402   8
  11  -3  -5 5.40760 3.08392   6
 -11   3   5 5.23898 2.85326   8
  10  -3  -5 682.374 59.5781   1
  10  -3  -5 626.398 60.9105   6
   9  -3  -5 66.2261 9.44350   1
   9  -3  -5 49.2818 8.65662   6
  -9   3   5 72.0497 7.62444   8
   8  -3  -5 725.509 69.1462   6
  -8   3   5 706.516 66.9688   7
  -8   3   5 771.603 65.5144   8
   7  -3  -5 61.7642 8.98493   1
   7  -3  -5 58.2968 9.06495   6
  -7   3   5 42.7948 6.84643   7
  -7   3   5 42.3208 5.93465   8
   6  -3  -5 1298.95 130.871  10
   6  -3  -5 1449.41 124.226   6
   6  -3  -5 1282.70 130.854  10
   6  -3  -5 1462.54 120.892   1
  -6   3   5 1300.87 118.796   8
   5  -3  -5 119.436 11.2033   7
   5  -3  -5 115.510 11.6547  10
   5  -3  -5 124.555 11.5691  10
   5  -3  -5 105.734 13.4296   4
   5  -3  -5 122.058 12.9626   1
   5  -3  -5 121.252 13.4154   6
  -5   3   5 94.8372 11.4846   7
  -5   3   5 103.731 11.5419   8
   4  -3  -5 1426.64 147.688  10
   4  -3  -5 1432.17 138.513   6
   4  -3  -5 1678.77 136.444   2
   4  -3  -5 1684.41 147.552  10
   4  -3  -5 1669.52 134.927   1
   4  -3  -5 1654.74 138.393   9
   4  -3  -5 1691.01 144.995   4
   4  -3  -5 1380.02 138.283   9
  -4   3   5 1436.90 133.214   8
   4   3  -5 1485.02 136.570   6
  -4   3   5 1448.66 134.586   7
  -4   3   5 1247.79 133.105   5
  -3  -3   5 62.3703 7.79061   2
   3  -3  -5 90.2499 7.96540   9
   3  -3  -5 98.5529 8.82108   2
   3  -3  -5 85.7634 9.61523   1
  -3  -3   5 86.8585 7.78671   7
   3  -3  -5 79.1717 7.70072   9
   3  -3  -5 74.7345 9.46604   6
   3  -3  -5 84.6263 8.50051  10
   3  -3  -5 73.2475 9.74223   4
   3  -3  -5 64.4050 8.94022  10
  -3   3   5 73.1434 8.94342  10
  -3   3   5 75.7109 8.14270   5
  -3   3   5 74.9553 8.30905   8
   3   3  -5 72.0658 7.74525   6
  -3   3   5 81.7685 8.42187   7
  -3   3   5 98.5938 9.38915   9
   2  -3  -5 1218.77 104.363   6
  -2  -3   5 1156.32 100.027   8
   2  -3  -5 1249.71 104.677   9
   2  -3  -5 1280.16 112.825  10
   2  -3  -5 1052.25 111.519  10
  -2  -3   5 1287.53 100.210   8
  -2  -3   5 1111.06 101.270   7
   2  -3  -5 1272.50 103.616   2
   2  -3  -5 1040.09 109.345   4
  -2   3   5 1102.49 105.620   9
  -2   3   5 970.542 101.548   7
  -2   3   5 1068.90 100.648   8
  -2   3   5 1101.50 100.641   5
   2   3  -5 1020.69 103.377   6
  -2   3   5 1201.88 112.751  10
  -2   3   5 1193.45 111.911  10
   1  -3  -5 61.3446 8.25666   6
   1  -3  -5 70.6923 7.26116   9
   1  -3  -5 80.6213 9.72511  10
  -1  -3   5 67.4459 7.85710   2
   1  -3  -5 61.3026 7.94370   1
   1  -3  -5 74.7960 7.60141   2
   1  -3  -5 88.6376 8.12474  10
   1  -3  -5 63.4162 9.06190   4
  -1  -3   5 60.7607 7.27230   9
  -1  -3   5 71.0516 7.31615   7
   1   3  -5 70.6797 7.92638   3
  -1   3   5 71.7881 7.30116   5
  -1   3   5 77.9834 7.51427   7
   1   3  -5 67.1620 7.21149   7
   1   3  -5 76.3427 7.70151   6
  -1   3   5 72.3755 9.06055   9
   1   3  -5 74.0792 7.61100   1
  -1   3   5 76.5405 8.15336  10
   0  -3  -5 1777.16 181.212  10
   0  -3   5 1832.17 167.189   2
   0  -3  -5 1777.27 167.072   2
   0  -3  -5 1970.67 168.774   6
   0  -3  -5 1957.20 169.627   9
   0  -3  -5 2120.45 171.078   9
   0  -3  -5 1919.08 171.095   9
   0  -3  -5 1769.33 180.582  10
   0   3   5 1681.03 162.382   5
   0   3   5 1543.08 181.409  10
   0   3   5 1635.15 170.398   9
   0   3   5 2123.28 180.824  10
   0   3  -5 1745.81 180.265  10
   0   3   5 1851.73 162.980   1
   0   3  -5 1770.25 167.871   6
   0   3  -5 1913.59 163.559   1
   0   3  -5 1763.80 180.540  10
   0   3   5 1704.89 169.538   9
   0   3   5 2128.12 167.743   2
   0   3  -5 2073.55 164.258   7
   0   3  -5 1985.06 190.663   3
  -1  -3  -5 1.99881 1.21920   9
  -1  -3  -5 3.92025 1.68985   2
  -1  -3  -5 0.83259 2.28757  10
   1  -3   5 3.24945 1.46096  10
   1  -3   5 3.66716 1.51713   2
  -1  -3  -5 6.62902 1.52402  10
  -1  -3  -5 3.02784 2.26894   6
  -1  -3  -5 3.75448 2.24254   4
   1  -3   5 3.00839 2.29868   9
   1  -3   5 3.17278 1.43526   7
  -1   3  -5 4.59533 1.20883   9
  -1   3  -5 1.83978 1.45777   9
  -1   3  -5 1.12366 1.21350  10
   1   3   5 3.74782 1.38259   5
   1   3   5 3.40166 1.44526   1
   1   3   5 1.72554 1.46667  10
   1   3   5 0.51373 0.96784   9
  -1   3  -5 2.05321 1.69416  10
   1   3   5 0.20315 2.43009   9
   1   3   5 4.34940 1.87955   2
   1   3   5 2.39201 2.86708  10
  -1   3  -5 1.04983 1.89457   6
  -1   3  -5 3.32157 1.67469   7
  -1   3  -5 1.66332 2.10233   1
   1   3   5 2.49552 1.23898   7
   2  -3   5 849.250 73.2964   9
   2  -3   5 821.785 69.7737   7
  -2  -3  -5 759.345 75.2814   4
   2  -3   5 754.056 76.5737  10
  -2  -3  -5 807.662 71.8895   9
  -2  -3  -5 885.317 71.1470   2
   2  -3   5 870.305 78.2359  10
  -2  -3  -5 778.296 76.5527  10
   2  -3   5 825.428 71.0159   2
  -2  -3  -5 682.834 68.5874   8
  -2   3  -5 884.974 72.7416   9
   2   3   5 714.847 68.7677   5
  -2   3  -5 721.019 71.7296   9
  -2   3  -5 823.891 69.9986   1
   2   3   5 818.822 69.5289   7
  -2   3  -5 648.419 69.8212   7
  -2   3  -5 774.685 77.2330  10
   2   3   5 636.998 77.3330  10
   2   3   5 868.429 76.6368  10
   2   3   5 760.370 71.0722   2
   2   3   5 744.959 71.6881   9
   2   3   5 907.106 73.2894   9
   2   3   5 762.476 69.0486   1
  -2   3  -5 739.721 71.7284   6
  -2   3  -5 772.264 76.4642  10
   3  -3   5 29.5671 3.93401   2
  -3  -3  -5 28.6312 4.37937   7
  -3  -3  -5 33.6245 3.86408   9
   3  -3   5 34.3859 4.12942   1
  -3  -3  -5 27.8959 5.27806   4
  -3  -3  -5 33.2117 5.59501  10
   3  -3   5 34.2978 4.24369  10
  -3  -3  -5 29.7713 3.59820   8
   3  -3   5 33.8708 4.25326   7
   3  -3   5 39.2836 6.53150   9
  -3   3  -5 46.9557 6.57761   9
   3   3   5 34.8409 4.40650   2
   3   3   5 31.6083 5.72785  10
  -3   3  -5 35.1737 5.31615   6
  -3   3  -5 30.2045 4.05862  10
   3   3   5 27.4532 3.89606   1
  -3   3  -5 30.9984 4.86536   7
   3   3   5 29.9314 4.01048  10
  -3   3  -5 27.6614 4.58102   5
  -3   3  -5 33.6386 3.76228   9
  -3   3  -5 37.4109 5.92051  10
   3   3   5 30.6991 3.63262   5
   3   3   5 35.3172 5.03421   9
  -3   3  -5 39.7093 5.51886   1
   3   3   5 32.2217 3.67900   9
   3   3   5 29.5855 3.77504   7
   4  -3   5 1269.23 128.205   9
   4  -3   5 1302.94 122.534   1
   4  -3   5 1512.67 123.394   7
   4  -3   5 1295.69 135.525  10
  -4  -3  -5 1362.65 132.396   4
  -4  -3  -5 1477.97 123.518   7
   4  -3   5 1259.85 125.367   2
  -4  -3  -5 1366.31 121.671   8
   4   3   5 1278.16 127.068   9
  -4   3  -5 1230.39 126.391   6
  -4   3  -5 1410.36 122.792   5
   4   3   5 1506.80 126.955   9
   4   3   5 1403.03 121.733   5
   4   3   5 1352.64 122.904   7
   4   3   5 1428.83 122.405   1
  -4   3  -5 1588.23 123.384   1
  -4   3  -5 1513.84 127.396   9
   4   3   5 1424.14 125.734   2
   4   3   5 1533.19 135.457  10
   4   3   5 1310.72 136.332  10
   5  -3   5 110.797 11.8343   5
   5  -3   5 133.770 12.2112   7
   5  -3   5 112.578 13.3283   9
  -5  -3  -5 110.041 12.2787   7
  -5  -3  -5 135.453 11.6791   8
  -5  -3  -5 132.053 14.2312   4
   5  -3   5 119.567 12.2677   1
   5  -3   5 126.285 13.0063  10
   5   3   5 126.473 11.5396   5
   5   3   5 137.679 12.0486   1
  -5   3  -5 114.707 12.7868   5
   5   3   5 119.592 11.6433   7
   5   3   5 143.179 14.0992  10
  -5   3  -5 136.385 12.3073   9
   5   3   5 134.606 12.7582  10
  -5   3  -5 112.448 12.8907   1
  -5   3  -5 110.008 12.8108   7
   6  -3   5 546.180 50.7646   9
   6  -3   5 541.445 48.4205   1
  -6  -3  -5 523.783 52.9886   4
   6  -3   5 484.656 48.3956   7
   6  -3   5 485.904 53.0479  10
  -6  -3  -5 595.289 47.6888   8
   6  -3   5 542.747 47.9067   5
  -6   3  -5 556.124 49.0027   5
   6   3   5 577.548 47.4923   5
  -6   3  -5 495.670 49.1705   7
   6   3   5 522.950 48.0952   1
  -6   3  -5 614.179 49.6292   1
  -7  -3  -5 50.6215 7.66554   4
  -7  -3  -5 36.0759 4.48704   8
  -7  -3  -5 44.1339 5.66479   7
   7  -3   5 43.7238 5.09603  10
   7  -3   5 40.5302 5.26484   9
   7  -3   5 43.7524 4.82622   5
   7  -3   5 36.8238 5.34727   1
   7  -3   5 43.8639 5.05764   7
  -7   3  -5 37.4942 6.00180   5
  -7   3  -5 39.4355 5.96984   7
   7   3   5 40.8838 4.99996   1
   8  -3   5 621.464 56.8287   9
  -8  -3  -5 686.990 61.0057   4
   8  -3   5 634.794 55.6521   1
  -8  -3  -5 619.040 55.9320   7
   8  -3   5 675.627 54.8348   5
   8  -3   5 644.266 55.5381   7
  -8  -3  -5 562.272 54.6640   8
   8  -3   5 611.655 60.7011  10
  -8   3  -5 533.203 56.0394   7
  -8   3  -5 618.118 55.8914   5
   9  -3   5 232.374 25.5665  10
   9  -3   5 240.048 24.0841   1
  -9  -3  -5 241.320 26.8752   4
   9  -3   5 283.632 23.2829   5
  -9  -3  -5 279.012 23.4125   8
   9   3   5 265.864 23.7743   1
  10  -3   5 386.978 31.9652   5
 -10  -3  -5 363.330 32.2112   8
 -10  -3  -5 324.089 36.2535   4
  10  -3   5 335.269 32.9746   1
  10   3   5 377.726 32.5395   1
  10   3   5 349.875 32.5421   1
 -11  -3  -5 65.3134 9.64095   4
 -11  -3  -5 63.7204 7.02578   8
  11  -3   5 63.4581 7.81908   1
  11   3   5 72.7746 7.48454   1
  12  -3   5 141.648 14.6530   1
 -12  -3  -5 149.447 16.8219   4
 -12  -3  -5 137.457 13.9265   8
  12   3   5 156.616 14.1830   1
 -12  -4   5 2.50210 0.93581   8
  12  -4  -5 3.78973 3.14487   1
  11  -4  -5 246.663 24.2224   1
  10  -4  -5 52.2309 8.58619   6
  10  -4  -5 70.5287 9.04322   1
 -10   4   5 60.9657 7.56814   8
   9  -4  -5 116.243 12.2824   1
   9  -4  -5 96.2032 11.7509   6
  -9   4   5 76.3220 10.3061   7
  -9   4   5 71.8711 8.85697   8
   8  -4  -5 8.58848 4.35944   6
   8  -4  -5 15.0165 5.28107   1
  -8   4   5 13.4688 3.03951   8
  -8   4   5 6.18626 3.20301   7
   7  -4  -5 757.275 75.4466  10
   7  -4  -5 849.774 71.6281   1
   7  -4  -5 734.689 73.0896   6
   7  -4  -5 779.085 75.4250  10
   6  -4  -5 270.129 25.5764   7
   6  -4  -5 274.687 27.4796  10
   6  -4  -5 329.115 27.9305   1
   6  -4  -5 261.682 27.5810  10
   6  -4  -5 307.034 28.6335   6
  -6   4   5 304.381 25.8656   8
  -6   4   5 244.394 26.3410   7
   5  -4  -5 122.250 12.3545  10
   5  -4  -5 137.568 12.4207   7
   5  -4  -5 122.762 14.4217   4
   5  -4  -5 108.707 13.1943   1
   5  -4  -5 144.642 14.3205   6
   5  -4  -5 119.962 11.1823   9
   5  -4  -5 113.519 12.4985  10
  -5   4   5 97.9707 12.2988   7
   5   4  -5 123.266 11.1031   6
  -5   4   5 108.047 12.0969   5
  -5   4   5 133.175 12.1379   8
   4  -4  -5 45.0928 5.04639  10
   4  -4  -5 39.5722 7.08552   4
   4  -4  -5 44.8999 7.12572   6
   4  -4  -5 46.7129 6.88917   1
   4  -4  -5 50.0213 4.79459   2
   4  -4  -5 38.8322 5.32182  10
  -4  -4   5 38.7861 4.59213   2
   4  -4  -5 39.4646 4.21813   9
   4   4  -5 32.6447 4.12205   1
   4   4  -5 36.7340 4.18429   6
  -4   4   5 44.1746 5.44195   5
  -4   4   5 42.6439 5.26738   8
  -4   4   5 49.1815 5.33059   1
  -4   4   5 44.7487 5.77762   7
   3  -4  -5 863.184 83.3607   6
  -3  -4   5 963.808 79.5705   8
   3  -4  -5 917.858 89.5780  10
  -3  -4   5 845.995 79.5436   8
   3  -4  -5 816.461 83.2734   9
   3  -4  -5 976.840 81.3820   1
   3  -4  -5 906.703 88.9501  10
  -3  -4   5 848.957 82.1971   2
   3  -4  -5 971.705 82.4775   2
   3   4  -5 1063.65 80.2032   1
   3   4  -5 808.164 82.2083   6
  -3   4   5 795.198 80.3210   5
  -3   4   5 998.674 80.7145   1
  -3   4   5 985.887 80.3742   8
  -3   4   5 900.289 81.2684   7
   2  -4  -5 548.893 48.2572   2
   2  -4  -5 522.883 48.4923   9
   2  -4  -5 453.708 52.5453  10
   2  -4  -5 596.367 51.9347  10
   2   4  -5 589.239 46.8165   1
  -2   4   5 553.313 47.4768   7
  -2   4   5 483.228 49.1915   9
  -2   4   5 445.736 46.7150   5
   2   4  -5 516.815 47.9678   6
  -2   4   5 532.909 47.0424   1
   1  -4  -5 358.082 29.3760   9
  -1  -4   5 328.366 28.7429   7
   1  -4  -5 318.909 29.2425   6
   1  -4  -5 335.506 30.0804   9
   1  -4  -5 298.418 28.4148   1
   1  -4  -5 326.935 29.4365   2
   1  -4  -5 292.003 31.4303   4
   1  -4  -5 277.653 32.2356  10
   1   4  -5 351.901 28.4102   1
  -1   4   5 313.654 28.2793   5
  -1   4   5 252.713 31.8689  10
  -1   4   5 261.847 28.3019   1
  -1   4   5 295.890 28.5544   7
  -1   4   5 348.784 31.4463  10
   1   4  -5 298.542 28.0288   7
  -1   4   5 321.560 30.2171   9
   0  -4  -5 55.3255 7.00728   6
   0  -4  -5 77.1986 7.60306  10
   0  -4  -5 66.1616 7.90031  10
   0  -4   5 69.5000 7.48766   2
   0  -4  -5 77.4279 7.07147   9
   0  -4  -5 62.6197 6.95731   1
   0  -4   5 65.2046 7.23826   9
   0  -4  -5 59.9434 7.69533   4
   0  -4  -5 65.8847 7.27976   2
   0  -4   5 77.1964 7.21894   7
   0   4   5 72.8700 7.60144  10
   0   4  -5 59.3387 6.96479  10
   0   4  -5 50.2883 6.68592  10
   0   4  -5 57.7784 7.39216   3
   0   4  -5 56.3825 6.83195   1
   0   4  -5 65.4731 6.59620   7
   0   4   5 61.9480 8.38164  10
   0   4   5 77.6042 8.06112   9
   0   4   5 63.4505 6.74571   9
   0   4   5 68.3283 6.87360   5
   0   4  -5 62.2442 7.03414   6
   0   4   5 64.2467 7.13187   1
   0   4   5 73.4006 7.04325   7
   1  -4   5 625.095 55.4240   2
  -1  -4  -5 647.979 53.4840   8
   1  -4   5 583.653 54.2953   7
   1  -4   5 660.298 56.8913   9
  -1  -4  -5 567.927 55.9533   9
  -1  -4  -5 645.664 55.7091   6
  -1  -4  -5 690.133 59.7225  10
  -1  -4  -5 502.976 59.6986  10
  -1  -4  -5 574.721 54.1014   1
  -1  -4  -5 575.597 57.9657   4
   1   4   5 617.558 55.7472   2
  -1   4  -5 599.090 54.1584   7
  -1   4  -5 642.948 55.5866   6
  -1   4  -5 503.132 53.8528   1
  -1   4  -5 555.928 62.7503   3
   1   4   5 684.588 54.2155   1
   1   4   5 586.500 60.3722  10
  -1   4  -5 598.802 59.2820  10
  -1   4  -5 611.631 55.7737   9
   1   4   5 654.549 54.2555   7
  -1   4  -5 614.070 59.6322  10
   1   4   5 604.680 59.5993  10
   1   4   5 674.641 56.8671   9
   1   4   5 526.388 53.5487   5
   2  -4   5 484.294 42.1693   1
   2  -4   5 427.052 43.0738   2
  -2  -4  -5 432.620 45.3356   4
   2  -4   5 471.222 42.3536   7
  -2  -4  -5 523.444 43.7319   9
  -2   4  -5 477.102 46.9353  10
  -2   4  -5 465.260 43.4013   6
  -2   4  -5 475.934 43.3612   9
  -2   4  -5 535.464 49.3268   3
  -2   4  -5 443.557 46.2575  10
   2   4   5 463.940 42.2074   7
   2   4   5 435.902 41.9709   1
  -2   4  -5 477.359 42.5084   7
  -2   4  -5 511.355 44.0722   9
   2   4   5 426.974 41.7027   5
   2   4   5 512.194 44.0391   9
  -2   4  -5 398.362 41.8650   5
  -2   4  -5 552.373 42.4616   1
   2   4   5 527.178 47.5015  10
   2   4   5 438.808 43.3226   2
   2   4   5 417.439 43.2830   9
   2   4   5 453.304 46.2894  10
  -3  -4  -5 443.314 49.2051   4
  -3  -4  -5 503.724 45.1368   8
   3  -4   5 510.814 45.8887   7
   3  -4   5 448.905 46.5970   2
   3  -4   5 547.175 45.8002   1
   3   4   5 431.554 46.7086   2
  -3   4  -5 523.014 45.8059   5
   3   4   5 485.946 50.0550  10
  -3   4  -5 583.515 50.5113  10
  -3   4  -5 453.146 46.9312   6
  -3   4  -5 571.967 47.1039   9
  -3   4  -5 587.917 51.5878  10
   3   4   5 481.668 45.6292   7
   3   4   5 551.093 46.9787   9
   3   4   5 463.863 45.0842   5
  -3   4  -5 544.272 46.3784   7
  -3   4  -5 451.109 45.7433   1
   3   4   5 583.459 47.5724   9
   3   4   5 523.614 45.4719   1
  -4  -4  -5 44.9142 4.48481   8
   4  -4   5 37.2961 4.79716   7
   4  -4   5 44.8030 5.30216   1
   4  -4   5 32.1859 5.19243   9
  -4  -4  -5 27.0406 5.34682   4
  -4   4  -5 44.0322 5.50032   1
  -4   4  -5 45.5582 5.74926   5
  -4   4  -5 34.1090 5.28400   7
   4   4   5 42.1621 4.32813   5
  -4   4  -5 37.0990 4.43551   9
   4   4   5 42.0455 4.44347   7
   4   4   5 27.3754 5.14634  10
   4   4   5 30.0397 4.56179   1
  -4   4  -5 37.9263 5.28847   6
   4   4   5 38.2115 4.68577  10
   5  -4   5 344.884 30.4782   7
  -5  -4  -5 270.724 32.7101   4
  -5  -4  -5 324.780 30.5116   7
  -5  -4  -5 335.614 29.6659   8
   5  -4   5 304.035 31.7496   9
  -5   4  -5 355.013 31.0101   7
   5   4   5 356.191 32.7478  10
  -5   4  -5 345.573 31.1481   9
  -5   4  -5 304.944 30.7383   5
   5   4   5 321.769 29.8798   7
   5   4   5 332.116 29.5638   5
   5   4   5 341.382 30.1565   1
   5   4   5 373.183 33.2790  10
  -5   4  -5 316.780 30.6888   1
   6  -4   5 306.967 29.0829   9
   6  -4   5 280.813 27.7754   1
  -6  -4  -5 311.209 26.9302   8
   6  -4   5 280.980 27.1911   5
  -6  -4  -5 305.991 30.3914   4
   6  -4   5 304.210 27.6067   7
  -6  -4  -5 293.732 27.6405   7
   6   4   5 292.271 27.3213   1
   6   4   5 346.940 26.7427   5
  -6   4  -5 292.574 28.2204   1
  -6   4  -5 314.867 28.2073   7
  -6   4  -5 244.923 27.8827   5
   7  -4   5 370.577 31.2731   9
   7  -4   5 334.988 29.4641   5
   7  -4   5 353.320 29.9989   7
  -7  -4  -5 334.383 29.1826   8
  -7  -4  -5 377.816 30.2178   7
  -7  -4  -5 266.598 32.6143   4
   7  -4   5 314.255 30.0848   1
  -7   4  -5 288.908 30.2860   7
  -7   4  -5 294.115 30.2887   5
   7   4   5 307.257 29.5999   1
   8  -4   5 12.9452 2.53587   5
   8  -4   5 11.3555 3.13595   1
  -8  -4  -5 11.0023 2.28386   8
  -8  -4  -5 13.4905 4.34468   4
   8  -4   5 12.3884 2.77372   7
  -8   4  -5 11.3803 3.21639   7
  -8   4  -5 7.11943 3.35910   5
   8   4   5 13.9495 2.89657   1
   9  -4   5 275.142 22.9882   5
   9  -4   5 248.984 23.8103   1
   9  -4   5 233.899 25.1880  10
  -9  -4  -5 263.998 26.6117   4
  -9  -4  -5 254.683 23.0050   8
   9  -4   5 251.429 23.7293   7
   9   4   5 247.426 23.3382   1
  -9   4  -5 246.944 24.1024   7
 -10  -4  -5 169.950 15.2723   8
  10  -4   5 158.184 16.1056   1
  10  -4   5 173.279 15.0383   5
 -10  -4  -5 183.591 18.5231   4
 -10   4  -5 137.384 16.0626   7
  10   4   5 152.853 15.4476   1
  11  -4   5 84.6013 9.93624   1
 -11  -4  -5 99.5909 11.9297   4
 -11  -4  -5 90.9970 9.06054   8
  11  -4   5 104.639 10.5265   6
  11   4   5 102.185 9.49278   1
 -11   4  -5 67.8770 9.60246   7
  11   4   5 83.9278 9.21574   1
 -12  -4  -5 3.27659 1.95783   8
 -12  -4  -5 6.72857 3.64341   4
  12  -4   5 2.17781 2.66355   1
 -12   4  -5 2.29224 2.23136   7
  12   4   5 1.42633 1.95334   1
  12  -5  -5 397.750 37.3665   1
  11  -5  -5 -1.4380 2.86160   1
  10  -5  -5 38.7262 7.07395   6
  10  -5  -5 38.2006 6.97698   1
 -10   5   5 29.3148 6.20677   7
   9  -5  -5 34.0013 7.42163   6
   9  -5  -5 38.1226 7.24485   1
  -9   5   5 25.9783 5.67617   7
   8  -5  -5 1388.46 124.457   1
   8  -5  -5 1386.03 128.050   6
   7  -5  -5 3.73119 3.94342   1
   7  -5  -5 5.10774 3.76662   6
   7  -5  -5 2.94773 1.26591  10
   7  -5  -5 5.86198 1.45482  10
  -7   5   5 3.86085 2.71381   7
   6  -5  -5 194.209 19.3974  10
   6  -5  -5 190.807 19.9522   1
   6  -5  -5 184.754 17.6801   9
   6  -5  -5 194.958 19.5535  10
   6  -5  -5 241.614 21.2609   6
   6  -5  -5 191.365 18.3533   7
  -6   5   5 173.596 19.1883   7
  -5  -5   5 90.6856 8.58271   8
   5  -5  -5 96.5049 12.3034   4
   5  -5  -5 95.3268 11.2133   1
   5  -5  -5 92.8885 11.6461   6
   5  -5  -5 93.1001 10.5807  10
   5  -5  -5 99.5503 9.31248   9
   5  -5  -5 109.409 10.6852   7
  -5   5   5 110.163 10.8511   5
  -5   5   5 99.4212 10.8712   7
   4  -5  -5 2576.17 203.055   6
  -4  -5   5 2157.34 194.326   8
   4  -5  -5 1931.02 217.304  10
   4  -5  -5 2294.60 203.689   9
   4  -5  -5 2319.54 211.962   4
   4  -5  -5 2315.41 197.007   1
   4  -5  -5 2217.75 200.840   2
  -4   5   5 2194.14 196.422   1
  -4   5   5 1979.35 197.804   7
   4   5  -5 2551.23 195.389   1
   4   5  -5 2300.11 200.779   6
  -4   5   5 1966.53 195.813   5
  -3  -5   5 23.3375 2.88862   8
   3  -5  -5 26.8493 3.22676   9
   3  -5  -5 17.4191 3.80284   1
   3  -5  -5 22.7633 4.96625   4
   3  -5  -5 21.5843 4.21086  10
   3  -5  -5 29.2696 3.53592   2
   3  -5  -5 16.1680 3.68578   6
  -3   5   5 22.8801 3.76265   9
  -3   5   5 24.1858 4.18116   1
   3   5  -5 20.6487 2.78541   1
   3   5  -5 17.7728 2.72388   6
  -3   5   5 27.1895 4.37999   7
  -3   5   5 21.7423 3.93149   5
   2  -5  -5 386.495 42.8820   4
   2  -5  -5 417.994 40.2770   6
   2  -5  -5 499.129 40.0616   2
   2  -5  -5 420.729 40.5083   9
  -2   5   5 469.606 40.9223   9
  -2   5   5 375.687 39.5895   7
   2   5  -5 439.154 39.6930   6
   2   5  -5 454.359 38.6997   1
  -2   5   5 438.284 39.2464   5
   1  -5  -5 83.3569 9.89361   4
   1  -5  -5 86.0000 8.90247   6
   1  -5  -5 76.4598 8.93490   9
  -1  -5   5 113.700 9.81211   7
   1  -5  -5 79.8985 8.65933   1
  -1   5   5 78.6777 8.77269   5
   1   5  -5 83.4534 8.52875   6
   1   5  -5 83.5752 8.38031   1
  -1   5   5 101.522 9.57896   9
  -1   5   5 88.0610 9.10173   7
  -1   5   5 77.4272 9.03179   1
   0  -5  -5 2187.68 213.944   9
   0  -5   5 2605.38 207.366   7
   0  -5  -5 2082.81 205.138   1
   0  -5  -5 2113.57 210.873   6
   0  -5  -5 2439.61 220.704   4
   0   5  -5 2229.14 206.222   7
   0   5   5 2515.14 204.907   5
   0   5  -5 2116.41 226.815  10
   0   5  -5 2275.20 239.658   3
   0   5   5 2562.18 206.870   7
   0   5   5 2167.15 205.553   1
   0   5   5 2593.32 214.376   9
   0   5  -5 2284.30 227.021  10
   0   5  -5 2559.47 210.890   6
   0   5  -5 2394.41 205.160   1
  -1  -5  -5 79.9263 9.02973   9
  -1  -5  -5 92.3198 9.33347   4
   1  -5   5 78.4388 9.18882   2
   1  -5   5 97.1964 9.37660   7
  -1  -5  -5 84.7047 8.57204   1
  -1  -5  -5 86.5876 8.49627   8
  -1   5  -5 87.9428 9.33080  10
  -1   5  -5 71.7245 8.07254   9
   1   5   5 82.2267 9.39593  10
  -1   5  -5 92.9213 8.65529   7
  -1   5  -5 100.210 8.42774   9
  -1   5  -5 82.4882 8.15943   9
  -1   5  -5 80.0149 8.90335  10
   1   5   5 75.9162 8.58260   5
   1   5   5 101.712 10.4404  10
   1   5   5 65.9031 8.62147   7
   1   5   5 101.212 9.23630   9
  -1   5  -5 85.0420 8.74513   6
  -1   5  -5 86.8650 8.62098   1
  -1   5  -5 81.1467 9.63317   3
   1   5   5 92.8580 9.26758   1
  -1   5  -5 79.9175 8.32747   5
   2  -5   5 396.549 30.2542   1
  -2  -5  -5 335.279 29.4344   8
   2  -5   5 273.851 30.5317   2
   2  -5   5 375.026 30.4689   7
  -2  -5  -5 316.954 31.7980   4
  -2  -5  -5 342.632 29.6470   1
   2   5   5 316.051 32.6720  10
  -2   5  -5 281.591 29.5937   1
  -2   5  -5 297.313 30.4309   6
   2   5   5 393.849 33.7445  10
   2   5   5 326.743 30.7352   9
   2   5   5 340.081 29.5812   5
  -2   5  -5 378.360 33.3306  10
  -2   5  -5 323.051 29.6010   5
  -2   5  -5 310.386 29.9791   7
   2   5   5 292.386 29.8320   7
  -2   5  -5 311.662 34.5577   3
  -2   5  -5 332.780 30.4269   9
  -2   5  -5 310.293 32.4950  10
  -3  -5  -5 6.71444 2.31426   4
   3  -5   5 14.2945 3.06247   1
   3  -5   5 8.73207 2.55720   9
   3  -5   5 8.35282 2.53947   7
  -3  -5  -5 8.80271 1.97081   8
   3   5   5 7.53565 2.95722  10
   3   5   5 8.85619 1.67352   9
  -3   5  -5 8.20432 2.32302   1
   3   5   5 11.9734 2.20001   9
  -3   5  -5 6.97842 2.28802   6
   3   5   5 6.86967 2.31414   1
  -3   5  -5 9.43277 3.30029  10
  -3   5  -5 10.2005 2.62604   7
   3   5   5 8.77046 2.14695   5
  -3   5  -5 7.71156 2.52668   5
  -3   5  -5 7.43835 2.46043   3
   3   5   5 12.0573 2.47142  10
   3   5   5 9.28788 2.14095   7
  -3   5  -5 7.99399 1.86109   9
  -4  -5  -5 1264.68 133.423   4
   4  -5   5 1390.45 125.091   7
   4  -5   5 1629.22 129.694   9
   4  -5   5 1434.82 124.550   1
  -4  -5  -5 1434.00 123.464   8
   4   5   5 1372.35 137.316  10
  -4   5  -5 1537.53 125.406   7
   4   5   5 1593.02 123.683   5
  -4   5  -5 1338.10 128.923   9
   4   5   5 1410.12 124.639   7
   4   5   5 1236.49 123.981   1
  -4   5  -5 1305.46 124.252   5
  -4   5  -5 1491.77 124.385   1
  -4   5  -5 1317.54 127.667   6
   4   5   5 1583.49 137.376  10
  -4   5  -5 1206.60 145.276   3
   5  -5   5 148.363 14.9156   7
  -5  -5  -5 117.880 15.8274   4
   5  -5   5 131.482 15.2700   9
   5  -5   5 167.272 15.3094   1
  -5  -5  -5 163.583 14.3995   8
  -5   5  -5 158.635 14.8214   9
  -5   5  -5 146.865 17.4324   3
  -5   5  -5 173.528 15.2133   1
  -5   5  -5 170.140 15.5883   5
   5   5   5 150.706 14.6993   1
  -5   5  -5 157.011 15.2313   7
   6  -5   5 70.0077 7.82392   7
   6  -5   5 59.6512 8.05346   1
  -6  -5  -5 66.3566 8.76537   4
  -6  -5  -5 67.8544 7.12849   8
   6  -5   5 71.9790 8.51776   9
  -6   5  -5 77.5817 8.36795   7
   6   5   5 74.7507 7.77576   1
  -6   5  -5 65.3661 9.33472   3
  -6   5  -5 69.1191 8.38802   1
  -6   5  -5 75.6383 8.73450   5
  -7  -5  -5 16.3798 4.11440   4
   7  -5   5 7.07519 3.06433   9
  -7  -5  -5 14.4711 2.59908   8
   7  -5   5 10.7447 3.24066   1
   7  -5   5 12.6592 2.86874   7
   7  -5   5 12.5724 2.73193   5
  -7   5  -5 13.0520 3.58753   5
  -7   5  -5 11.6575 4.06382   3
  -7   5  -5 10.0518 3.71928   1
  -7   5  -5 13.6747 3.34824   7
   7   5   5 12.7553 3.00880   1
  -8  -5  -5 457.608 42.4069   4
  -8  -5  -5 462.152 38.0507   8
   8  -5   5 411.348 38.1563   5
   8  -5   5 379.780 38.9080   1
   8  -5   5 456.052 38.8249   7
  -8   5  -5 401.186 39.0162   5
  -8   5  -5 432.695 45.8549   3
  -8   5  -5 403.157 39.1271   7
   8   5   5 420.118 38.4790   1
  -9  -5  -5 120.698 15.8461   4
  -9  -5  -5 157.313 13.7639   8
   9  -5   5 123.488 13.5909   5
   9  -5   5 153.323 14.1493   7
   9  -5   5 128.052 14.5356   1
  -9   5  -5 134.921 14.6122   5
   9   5   5 156.899 14.1887   1
  -9   5  -5 185.914 18.1634   3
  -9   5  -5 145.691 14.7073   7
 -10  -5  -5 4.30595 3.19113   4
  10  -5   5 -0.1416 2.72434   1
 -10  -5  -5 6.15126 2.04065   8
  10  -5   5 5.19169 1.97399   5
  10   5   5 0.96283 2.01121   1
 -10   5  -5 0.60230 2.27270   7
  11  -5   5 42.0296 4.40656   5
 -11  -5  -5 33.6349 4.64122   8
  11  -5   5 27.5222 5.22574   1
 -11  -5  -5 30.4270 6.43256   4
 -11   5  -5 36.9692 5.66037   7
  11   5   5 33.5815 4.87264   1
  11   5   5 34.5523 4.74490   1
 -12  -5  -5 155.752 18.4316   4
  12  -5   5 185.137 17.0084   1
 -12  -5  -5 165.214 15.9376   8
  11  -6  -5 51.3774 8.44158   1
 -11   6   5 64.4881 8.85818   7
  10  -6  -5 51.5899 8.42211   1
 -10   6   5 47.6809 7.75811   7
   9  -6  -5 4.49590 3.95275   1
   9  -6  -5 0.74970 4.13330   6
  -9   6   5 -0.2572 2.65734   7
  -8  -6   5 75.2603 6.70305   8
   8  -6  -5 81.4069 10.9159   6
  -8  -6   5 72.4141 6.65372   8
   8  -6  -5 78.8813 10.5532   1
  -8   6   5 62.8471 9.17638   7
   7  -6  -5 101.606 10.8118  10
   7  -6  -5 112.240 13.4381   6
  -7  -6   5 99.7950 9.10094   8
   7  -6  -5 105.209 12.5775   1
  -7   6   5 102.779 11.7320   7
   6  -6  -5 154.071 14.2322   7
   6  -6  -5 136.563 14.7377  10
  -6  -6   5 130.997 12.4450   8
   6  -6  -5 133.004 15.1638   1
   6  -6  -5 164.025 16.2770   6
   6  -6  -5 154.629 13.3157   9
  -6   6   5 139.034 14.8726   7
  -6   6   5 120.538 14.5398   5
  -5  -6   5 6.45164 0.93825   8
   5  -6  -5 3.13895 2.90864   6
   5  -6  -5 5.34373 3.17804   1
   5  -6  -5 0.50476 2.11401   7
   5  -6  -5 4.07846 3.39721   4
   5  -6  -5 3.27706 1.30738   9
  -5   6   5 7.32642 3.19711   7
  -5   6   5 6.63063 3.11740   5
   5   6  -5 6.94165 1.94645   6
   4  -6  -5 165.612 17.0324   1
   4  -6  -5 153.449 17.2764   6
   4  -6  -5 164.506 16.3794   9
   4  -6  -5 152.617 18.5033   4
  -4   6   5 181.050 17.0043   5
  -4   6   5 174.406 17.0938   1
   4   6  -5 171.199 15.9874   6
   4   6  -5 200.842 15.5691   1
  -4   6   5 148.292 17.0381   7
   3  -6  -5 106.195 11.8318   9
   3  -6  -5 141.970 14.3376   4
   3  -6  -5 90.5606 11.7559   1
   3  -6  -5 118.778 12.3312   6
   3   6  -5 126.640 11.0706   1
   3   6  -5 112.553 11.2702   6
  -3   6   5 145.123 12.2993   9
  -3   6   5 130.011 12.7441   1
  -3   6   5 125.586 12.4242   5
  -3   6   5 105.119 12.3732   7
   2  -6  -5 218.940 20.8355   9
  -2  -6   5 202.269 20.1038   7
   2  -6  -5 211.807 20.1405   1
   2  -6  -5 220.932 22.2638   4
  -2   6   5 209.909 20.6693   9
   2   6  -5 217.824 19.9155   6
  -2   6   5 228.759 20.8628   7
  -2   6   5 213.166 20.7766   1
  -2   6   5 210.550 20.4021   5
   1  -6  -5 3.93345 1.84038   9
   1  -6  -5 0.40648 1.31489   1
   1  -6  -5 3.01871 2.09805   4
  -1  -6   5 2.33246 2.00935   7
  -1   6   5 5.17679 2.27990   5
  -1   6   5 1.22504 1.52558   9
  -1   6   5 4.02791 2.36495   7
   1   6  -5 0.06507 1.04121   1
  -1   6   5 2.57755 2.23353   1
   1   6  -5 1.14510 1.10248   6
   0  -6   5 274.970 24.1811   7
   0  -6  -5 234.746 22.9302   1
   0  -6  -5 239.875 24.3633   9
   0  -6  -5 304.699 25.0502   4
   0  -6   5 230.952 23.1491   8
   0   6   5 253.775 23.9452   9
   0   6  -5 256.940 22.8076   7
   0   6  -5 225.288 22.7123   1
   0   6  -5 253.566 24.8211  10
   0   6   5 277.034 23.8599   7
   0   6   5 216.827 23.2391   5
   0   6  -5 283.110 23.4707   6
   0   6  -5 230.564 24.6786  10
   1  -6   5 137.039 12.3877   7
   1  -6   5 106.242 11.3029   8
  -1  -6  -5 125.758 11.6858   4
  -1  -6  -5 109.794 10.8395   1
  -1   6  -5 99.6384 12.1973   3
  -1   6  -5 107.001 11.7659  10
   1   6   5 122.928 11.2168   9
  -1   6  -5 119.203 10.7195   5
  -1   6  -5 126.335 11.1317   6
  -1   6  -5 113.264 11.4897  10
  -1   6  -5 117.054 10.5756   9
  -1   6  -5 126.333 11.0007   7
  -1   6  -5 87.4271 10.5955   1
   1   6   5 95.5248 11.5020   1
   1   6   5 100.810 12.1060  10
   1   6   5 99.1065 11.1753   5
  -1   6  -5 112.156 10.4791   9
   1   6   5 113.633 11.5557   7
  -2  -6  -5 193.872 20.9627   4
  -2  -6  -5 201.697 19.6854   8
   2  -6   5 246.522 20.9024   7
  -2   6  -5 202.128 20.1063   6
  -2   6  -5 244.300 22.1932  10
  -2   6  -5 211.872 20.0225   9
  -2   6  -5 239.616 20.1274   7
   2   6   5 225.763 20.2426   7
  -2   6  -5 197.803 22.7408   3
  -2   6  -5 215.865 19.9439   9
   2   6   5 219.423 20.4899   1
  -2   6  -5 201.503 19.5965   5
   2   6   5 199.526 19.8649   5
   2   6   5 229.371 20.2646   9
   2   6   5 200.034 21.8314  10
  -2   6  -5 198.150 19.6032   1
   3  -6   5 5.42264 2.42803   1
  -3  -6  -5 2.84825 1.72299   4
  -3  -6  -5 3.56354 1.65882   8
   3  -6   5 6.02650 2.56453   7
   3   6   5 1.51996 1.93727  10
  -3   6  -5 5.70975 2.25593   3
  -3   6  -5 3.13856 2.05927   7
  -3   6  -5 7.22426 2.09896   1
   3   6   5 3.14410 2.41282   1
  -3   6  -5 12.4314 2.78763   5
   3   6   5 6.18198 2.20950  10
   3   6   5 5.99429 2.13472   7
  -3   6  -5 6.63375 1.08645   9
  -3   6  -5 3.79693 1.80122   6
   3   6   5 2.58257 2.16996   5
   4  -6   5 251.439 23.1275   7
  -4  -6  -5 245.299 22.2862   8
   4  -6   5 233.969 22.9554   1
   4  -6   5 287.271 24.0593   9
  -4  -6  -5 220.702 23.9728   4
   4   6   5 222.715 22.6455   1
  -4   6  -5 241.332 23.4707   6
  -4   6  -5 216.956 26.2677   3
  -4   6  -5 281.950 23.1264   7
  -4   6  -5 250.036 23.0651   9
   4   6   5 255.413 24.3478  10
  -4   6  -5 240.951 22.5690   1
  -4   6  -5 219.783 22.7413   5
   4   6   5 243.138 24.4610  10
  -5  -6  -5 89.3968 10.4507   8
   5  -6   5 96.5042 11.0925   7
  -5  -6  -5 107.711 11.6730   4
   5  -6   5 117.321 11.2491   9
   5  -6   5 93.0035 11.1502   1
  -5   6  -5 132.415 11.5606   7
  -5   6  -5 101.167 10.8838   1
   5   6   5 129.445 11.1303   1
  -5   6  -5 90.2318 10.6839   9
  -5   6  -5 115.238 11.4899   5
   5   6   5 129.022 10.5320   5
  -5   6  -5 95.4320 12.6684   3
   6  -6   5 125.242 14.4557   9
   6  -6   5 149.811 14.7053   1
   6  -6   5 138.515 14.3690   7
  -6  -6  -5 140.198 15.2135   4
  -6  -6  -5 159.302 13.8233   8
   6   6   5 118.574 13.8934   1
  -6   6  -5 129.545 16.5318   3
  -6   6  -5 136.539 14.1318   9
  -6   6  -5 174.835 14.9925   5
  -6   6  -5 157.559 14.4411   1
  -6   6  -5 162.169 14.5784   7
  -7  -6  -5 8.06312 3.02306   4
   7  -6   5 7.35940 3.24411   1
   7  -6   5 14.7870 3.20712   7
  -7  -6  -5 12.6966 2.53039   8
  -7   6  -5 9.56943 3.44475   1
  -7   6  -5 9.71164 3.16656   5
  -7   6  -5 12.3837 3.82468   3
  -7   6  -5 10.6996 3.00882   7
   7   6   5 11.2923 2.99673   1
   8  -6   5 106.935 11.5542   5
   8  -6   5 106.668 11.8486   7
  -8  -6  -5 115.026 13.2997   4
  -8  -6  -5 123.683 11.4629   8
   8  -6   5 133.760 12.8645   1
   8   6   5 148.045 12.3261   1
  -8   6  -5 110.402 12.3533   5
  -8   6  -5 110.676 14.4497   3
  -8   6  -5 107.620 12.1253   7
   9  -6   5 68.7790 8.37051   5
  -9  -6  -5 87.2089 8.47683   8
   9  -6   5 86.9584 8.99877   7
   9  -6   5 71.5006 9.46664   1
  -9  -6  -5 85.1186 10.4546   4
   9   6   5 90.3259 9.06991   1
  -9   6  -5 92.9793 9.54564   7
  -9   6  -5 78.8808 9.41447   5
 -10  -6  -5 105.868 11.7995   4
 -10  -6  -5 91.4610 9.51064   8
  10  -6   5 97.1907 9.54394   5
  10  -6   5 79.8389 10.4453   1
 -10   6  -5 97.0178 10.4836   7
 -10   6  -5 103.553 10.7038   5
  10   6   5 90.6542 9.88713   1
  11  -6   5 6.82589 1.97513   5
  11  -6   5 0.88552 2.71797   1
 -11  -6  -5 6.31036 2.35384   8
  11   6   5 3.61316 2.41134   1
 -11   6  -5 7.38908 3.04978   7
 -10  -7   5 1.89815 0.77504   8
  10  -7  -5 4.42433 3.48251   1
 -10   7   5 3.03269 3.20243   7
  -9  -7   5 31.1893 2.92068   8
   9  -7  -5 25.5486 5.93641   1
  -9   7   5 23.4814 5.55218   7
   8  -7  -5 805.314 74.9591   1
  -8  -7   5 830.526 71.9169   8
  -8   7   5 833.501 74.8807   7
  -7  -7   5 8.29530 1.30276   8
   7  -7  -5 10.1736 2.93072   7
   7  -7  -5 12.0339 4.28926   1
  -7   7   5 8.07127 3.41278   7
  -7   7   5 8.85571 3.61703   5
  -6  -7   5 13.5209 1.85094   8
   6  -7  -5 13.9283 3.51748   7
   6  -7  -5 15.2862 4.29863   1
  -6   7   5 14.1172 4.07776   7
  -6   7   5 9.13614 3.62542   5
   5  -7  -5 81.1714 8.83023   7
   5  -7  -5 64.9724 9.59085   4
   5  -7  -5 73.5586 8.87908   1
  -5  -7   5 66.5491 6.80874   8
  -5   7   5 70.4757 8.81673   5
  -5   7   5 70.6441 8.92325   7
   4  -7  -5 1539.34 141.794   7
   4  -7  -5 1568.88 151.511   4
   4  -7  -5 1661.73 145.756   9
   4  -7  -5 1430.87 140.363   1
  -4  -7   5 1551.94 138.998   8
  -4   7   5 1439.99 140.406   5
   4   7  -5 1772.56 139.533   1
  -4   7   5 1723.52 142.080   7
   4   7  -5 1769.00 143.455   6
  -4   7   5 1406.65 140.880   1
  -3  -7   5 3.70332 1.60597   8
   3  -7  -5 -1.7852 1.78349   9
   3  -7  -5 1.81002 2.50305   4
   3  -7  -5 4.88897 2.08175   1
   3   7  -5 0.50153 1.17350   6
  -3   7   5 3.81133 2.71173   5
  -3   7   5 1.98940 1.54139   9
  -3   7   5 4.62912 2.87998   1
   3   7  -5 0.32712 1.14544   1
  -3   7   5 1.38269 2.48640   7
  -2  -7   5 44.6819 5.42775   8
   2  -7  -5 64.7976 6.05248   1
  -2  -7   5 43.9262 5.51189   7
   2  -7  -5 42.6122 6.30739   4
   2  -7  -5 48.3939 6.13096   9
   2   7  -5 50.1984 5.01112   1
  -2   7   5 48.9498 7.07413   1
   2   7  -5 52.8349 5.22245   6
  -2   7   5 42.4713 5.38209   9
  -2   7   5 43.3466 6.73829   7
  -2   7   5 34.3192 6.08046   5
   1  -7  -5 68.7255 6.55847   1
  -1  -7   5 64.9627 6.61335   8
   1  -7  -5 62.3229 7.20534   4
  -1  -7   5 47.0086 6.58428   7
   1   7  -5 58.3767 6.03719   1
  -1   7   5 78.7378 8.14151   1
   1   7  -5 58.8234 6.20612   6
  -1   7   5 50.6186 6.26234   9
  -1   7   5 60.7202 7.59399   7
  -1   7   5 51.9258 7.15959   5
   0  -7   5 2051.75 161.426   8
   0  -7   5 1924.93 163.540   7
   0  -7  -5 2090.93 161.936   1
   0   7   5 1598.45 162.528   1
   0   7   5 1925.95 168.453   9
   0   7  -5 1893.62 178.630  10
   0   7  -5 1585.60 161.518   1
   0   7  -5 1627.50 166.033   6
   0   7   5 1778.66 162.006   5
   0   7   5 1999.05 163.737   7
   0   7  -5 1797.33 178.695  10
  -1  -7  -5 13.0875 2.69947   4
   1  -7   5 18.7139 4.04982   7
  -1   7  -5 15.1893 2.46015   5
  -1   7  -5 13.9862 2.59113   7
  -1   7  -5 14.8641 2.59582   6
   1   7   5 16.3784 3.93851   1
  -1   7  -5 16.8521 2.77163   1
  -1   7  -5 15.2081 2.28377  10
   1   7   5 12.1479 2.32417   9
   1   7   5 20.1234 3.77697   7
  -1   7  -5 15.6906 2.58918  10
   1   7   5 10.9200 3.12082   5
   1   7   5 13.2916 3.26052  10
  -2  -7  -5 12.1013 2.51176   4
   2  -7   5 11.3680 3.64802   7
   2   7   5 14.0058 3.23501   7
   2   7   5 13.8815 2.93411  10
   2   7   5 12.6615 2.19058   9
  -2   7  -5 18.9557 3.04537   7
  -2   7  -5 10.3297 2.55694   3
  -2   7  -5 22.7793 3.46139  10
  -2   7  -5 14.3842 2.04308   9
  -2   7  -5 13.8138 2.51761   6
  -2   7  -5 9.17466 2.23958   1
   2   7   5 15.4565 3.65116   1
   2   7   5 13.4656 3.31351   5
   2   7   5 11.0172 2.92254  10
   3  -7   5 15.0963 3.80067   7
  -3  -7  -5 16.1937 2.88174   4
  -3   7  -5 18.9597 3.29627   7
  -3   7  -5 16.2078 3.13119   5
  -3   7  -5 11.5153 2.26147   9
   3   7   5 13.8380 3.11846  10
  -3   7  -5 15.3344 2.87168   6
   3   7   5 15.0264 3.47887   1
   3   7   5 19.9006 3.80632   5
   3   7   5 15.1048 2.78758  10
  -3   7  -5 14.8971 2.29550   9
  -3   7  -5 14.3244 2.73776   1
  -3   7  -5 11.9559 2.83883   3
   4  -7   5 1102.09 105.286   1
   4  -7   5 1161.56 106.190   7
  -4  -7  -5 1223.52 104.533   8
  -4  -7  -5 1267.64 112.445   4
   4   7   5 1203.45 115.557  10
  -4   7  -5 1326.16 105.893   7
  -4   7  -5 1220.87 104.861   1
  -4   7  -5 1101.69 108.786   9
  -4   7  -5 1051.22 104.740   5
   4   7   5 1299.85 115.533  10
   4   7   5 1092.35 105.214   1
  -5  -7  -5 65.1590 7.63997   4
  -5  -7  -5 74.2430 7.33384   8
   5  -7   5 59.5377 7.92280   1
   5  -7   5 62.6659 8.01795   7
   5   7   5 71.6583 7.71205   1
  -5   7  -5 58.3958 8.49969   3
  -5   7  -5 70.3862 7.75650   7
  -5   7  -5 63.8085 7.13556   9
  -5   7  -5 78.3914 7.69434   1
  -5   7  -5 60.4375 7.67125   5
  -6  -7  -5 23.5540 3.92065   8
  -6  -7  -5 25.6446 4.34851   4
   6  -7   5 22.4612 4.48097   7
   6  -7   5 21.3042 4.07274   9
   6  -7   5 35.8341 5.62434   1
  -6   7  -5 22.3543 3.84222   9
  -6   7  -5 27.3549 4.38283   7
  -6   7  -5 23.5068 4.34044   5
  -6   7  -5 29.4884 4.51226   1
  -6   7  -5 24.5464 4.92225   3
   6   7   5 27.3388 4.34233   1
   7  -7   5 0.43810 2.26484   1
  -7  -7  -5 -2.3399 1.97475   4
  -7  -7  -5 -0.8276 1.55313   8
   7  -7   5 2.35560 2.31082   7
  -7   7  -5 1.26881 2.06149   7
  -7   7  -5 -2.2825 2.34644   1
   7   7   5 4.22986 2.27242   1
  -7   7  -5 3.84764 2.45729   3
  -7   7  -5 -0.1896 2.07139   5
  -8  -7  -5 390.822 36.7997   8
  -8  -7  -5 449.233 40.3172   4
   8  -7   5 337.158 37.6502   1
   8  -7   5 375.995 37.5293   7
   8  -7   5 394.761 37.0621   5
  -8   7  -5 480.805 37.8619   5
  -8   7  -5 385.897 37.6053   7
   8   7   5 469.263 37.4309   1
  -9  -7  -5 97.0721 9.98894   8
   9  -7   5 86.2656 10.0007   5
   9  -7   5 95.8329 10.5137   7
   9  -7   5 115.302 11.5101   1
  -9   7  -5 99.2088 10.7885   7
  -9   7  -5 107.085 10.9531   5
   9   7   5 104.364 10.5416   1
  10  -7   5 67.1133 9.22581   1
  10  -7   5 78.0732 8.36179   5
 -10  -7  -5 78.6432 8.35796   8
 -10   7  -5 90.1118 9.33604   7
  10   7   5 80.3764 8.75546   1
 -10   7  -5 83.5116 9.31843   5
  -9  -8   5 101.338 8.91427   8
   9  -8  -5 107.865 12.4564   1
  -9   8   5 84.6783 11.3346   7
  -8  -8   5 52.4344 4.75456   8
   8  -8  -5 58.7986 8.21782   1
  -8   8   5 43.8011 7.86623   5
  -8   8   5 38.8115 7.17101   7
   7  -8  -5 62.1240 7.67149   7
  -7  -8   5 59.9677 5.72261   8
   7  -8  -5 64.2048 8.64092   1
  -7   8   5 63.0495 8.45368   7
  -7   8   5 61.6892 8.67403   5
   6  -8  -5 194.093 18.7257   7
   6  -8  -5 212.155 19.3201   1
  -6  -8   5 179.926 16.9359   8
  -6   8   5 181.741 19.1958   7
  -6   8   5 197.331 19.2843   5
   5  -8  -5 169.826 17.5872   1
   5  -8  -5 176.865 17.8778   7
  -5  -8   5 180.632 16.0708   8
   5  -8  -5 161.340 19.1080   4
  -5   8   5 188.816 18.3343   7
  -5   8   5 198.284 18.2988   5
  -4  -8   5 87.1193 8.76814   8
   4  -8  -5 95.8665 10.8110   7
   4  -8  -5 87.2274 9.99805   1
   4  -8  -5 109.731 11.3097   4
  -4   8   5 80.6986 10.6887   1
  -4   8   5 91.3060 10.7391   7
  -4   8   5 78.2525 10.4417   5
   4   8  -5 110.946 9.15018   1
   3  -8  -5 167.610 16.1076   9
  -3  -8   5 163.608 14.4169   8
   3  -8  -5 159.570 16.4072   4
   3  -8  -5 132.042 15.0050   1
  -3   8   5 165.046 15.2864   9
  -3   8   5 162.878 16.1951   7
   3   8  -5 163.091 14.8525   6
  -3   8   5 143.053 16.1006   1
  -3   8   5 139.673 15.7489   5
   3   8  -5 156.863 14.4034   1
   2  -8  -5 212.892 18.2072   1
  -2  -8   5 214.911 17.7361   8
  -2   8   5 179.670 18.8476   5
   2   8  -5 194.744 17.6215   1
  -2   8   5 194.996 18.3905   9
   2   8  -5 166.484 17.9649   6
  -2   8   5 187.240 19.2936   1
  -2   8   5 188.674 19.1476   7
  -1  -8   5 454.016 40.9499   8
  -1  -8   5 449.113 41.5969   7
   1  -8  -5 491.857 41.2813   1
   1  -8  -5 516.584 44.4156   4
  -1   8   5 392.200 41.7725   5
   1   8  -5 478.938 42.0961   6
  -1   8   5 467.698 42.5081   1
  -1   8   5 478.434 42.6861   9
   1   8  -5 422.975 40.9088   1
  -1   8   5 440.871 42.4277   7
   0  -8  -5 266.033 23.3179   4
   0  -8   5 208.545 22.0077   7
   0   8  -5 245.064 22.9616  10
   0   8  -5 253.111 22.9888  10
   0   8  -5 216.005 21.3367   1
   0   8   5 229.168 22.3488   5
   0   8   5 245.073 22.8462   1
   0   8   5 236.285 22.7273   7
   0   8   5 238.041 22.1003   9
   0   8  -5 204.588 21.8965   6
   1  -8   5 86.2902 10.5413   7
  -1  -8  -5 108.656 10.4706   4
   1   8   5 89.1911 10.7689   7
   1   8   5 100.789 11.4436  10
   1   8   5 109.131 9.80638   9
  -1   8  -5 93.6675 9.67937   1
   1   8   5 96.7419 10.5862   5
  -1   8  -5 113.506 10.3875  10
  -1   8  -5 92.2381 9.96805   6
  -1   8  -5 91.7490 10.1075  10
   1   8   5 100.563 11.0654   1
   2  -8   5 125.387 12.5716   7
  -2  -8  -5 128.235 12.0487   4
   2   8   5 112.020 12.2034   7
   2   8   5 121.963 11.9920   5
  -2   8  -5 117.593 10.9391   9
  -2   8  -5 100.903 11.1189   5
   2   8   5 110.185 12.3324   1
   2   8   5 105.382 12.7554  10
  -2   8  -5 141.456 12.7432  10
  -2   8  -5 133.572 11.6653   7
  -2   8  -5 106.298 11.5828   6
  -2   8  -5 101.601 11.1948   1
   3  -8   5 662.738 61.9793   7
  -3  -8  -5 738.897 64.7711   4
   3   8   5 730.072 66.5660  10
  -3   8  -5 657.968 70.4832   3
  -3   8  -5 584.485 62.0871   6
  -3   8  -5 708.740 60.4562   5
  -3   8  -5 733.621 61.1797   7
   3   8   5 626.125 66.8158  10
  -4  -8  -5 396.219 39.9493   4
  -4   8  -5 482.231 38.0932   7
  -4   8  -5 395.415 43.5318   3
  -4   8  -5 409.752 37.5493   5
   4   8   5 446.059 38.1241   1
  -4   8  -5 376.191 37.4014   1
   5  -8   5 31.0827 5.23153   1
  -5  -8  -5 29.7788 4.32246   4
   5  -8   5 20.5716 4.66849   7
  -5   8  -5 27.6533 4.56628   5
  -5   8  -5 27.6904 4.45074   7
  -5   8  -5 31.2354 4.55293   1
  -5   8  -5 29.8651 4.80289   3
   5   8   5 36.6001 5.03068   1
   6  -8   5 50.8244 6.63677   1
   6  -8   5 41.1716 6.15216   7
  -6  -8  -5 32.0101 4.82898   8
  -6   8  -5 47.5886 6.54034   3
  -6   8  -5 43.3898 5.82252   5
   6   8   5 38.9365 5.63316   1
  -6   8  -5 37.4127 5.45265   1
  -6   8  -5 45.5816 5.78968   7
   7  -8   5 349.505 32.1209   1
  -7  -8  -5 340.377 30.8080   8
   7  -8   5 280.320 31.7557   7
  -7   8  -5 363.814 31.5949   5
  -7   8  -5 364.630 31.5134   1
  -7   8  -5 335.301 31.6290   7
   7   8   5 360.224 31.4930   1
  -8  -8  -5 322.671 28.8411   8
   8  -8   5 343.464 30.2864   1
   8  -8   5 280.223 29.6068   7
   8   8   5 310.242 29.2321   1
  -8   8  -5 323.969 29.6796   7
  -8   8  -5 331.116 29.5018   5
   9  -8   5 14.0182 3.93893   1
  -9  -8  -5 12.1642 2.78456   8
   9  -8   5 9.47765 2.66887   5
   9  -8   5 10.1372 3.11281   7
  -9   8  -5 13.6074 3.52854   5
   9   8   5 9.18900 2.94591   1
  -9   8  -5 7.11022 2.73505   7
   8  -9  -5 304.639 26.6021   1
  -8  -9   5 263.523 23.9243   8
  -8   9   5 315.932 26.8597   5
  -8   9   5 224.299 26.1139   7
  -7  -9   5 17.0798 2.02523   8
   7  -9  -5 20.3951 3.95047   7
   7  -9  -5 16.1927 4.13123   1
  -7   9   5 13.8335 4.37907   7
  -7   9   5 11.2344 4.08578   5
   6  -9  -5 34.7726 6.08767   7
  -6  -9   5 48.8956 4.60283   8
   6  -9  -5 55.1664 6.86112   1
  -6   9   5 51.4839 7.33337   7
  -6   9   5 42.5445 6.99825   5
   5  -9  -5 24.9247 4.48175   1
   5  -9  -5 26.8873 4.82446   7
  -5  -9   5 26.1713 3.00028   8
   5  -9  -5 30.8501 4.83288   4
  -5   9   5 25.2831 5.17139   7
  -5   9   5 31.9994 5.70517   5
   4  -9  -5 258.010 25.1714   7
   4  -9  -5 249.327 24.7525   1
   4  -9  -5 286.263 26.6206   4
  -4  -9   5 234.219 23.6678   8
  -4   9   5 230.569 25.4654   7
  -4   9   5 292.766 25.6820   5
   4   9  -5 315.868 24.1392   1
  -4   9   5 266.965 25.8579   1
   3  -9  -5 26.9458 4.36793   1
  -3  -9   5 29.2115 3.57664   8
   3  -9  -5 32.1337 4.75859   4
   3   9  -5 36.0121 3.92539   1
  -3   9   5 29.5719 5.70055   1
  -3   9   5 27.7343 5.27921   7
  -3   9   5 33.1521 5.51792   5
   2  -9  -5 19.1281 3.03186   1
  -2  -9   5 14.9410 2.31780   8
   2  -9  -5 10.5627 2.82187   4
  -2   9   5 14.3606 4.23063   1
  -2   9   5 14.8825 3.81436   7
   2   9  -5 13.9547 2.34015   1
  -2   9   5 8.11334 3.23667   5
   2   9  -5 12.4288 2.24667   6
  -1  -9   5 28.1303 3.83715   7
  -1  -9   5 38.7329 3.99629   8
   1  -9  -5 32.9759 4.39097   4
  -1   9   5 20.5259 4.60007   5
  -1   9   5 21.0371 4.96340   1
   1   9  -5 30.9005 3.88884   6
  -1   9   5 26.1387 5.07801   7
   1   9  -5 33.9529 3.81372   1
   0  -9   5 191.080 18.2294   7
   0  -9  -5 211.443 19.2374   4
   0   9   5 203.547 18.7687   5
   0   9  -5 186.514 17.7188   1
   0   9   5 164.387 18.7646   7
   0   9  -5 197.402 18.2449   6
  -1  -9  -5 19.4775 3.13425   4
   1  -9   5 14.5555 3.18483   7
   1   9   5 11.2928 3.61350   1
   1   9   5 17.2853 3.67949   7
   1   9   5 14.1925 3.57443  10
  -1   9  -5 11.4065 2.46967   1
  -1   9  -5 16.4542 2.66494   6
   1   9   5 14.5475 3.43009   5
  -2  -9  -5 5.32634 1.84656   4
   2  -9   5 2.97194 2.23257   7
  -2   9  -5 2.89603 1.56317   5
  -2   9  -5 2.53837 1.62317   1
  -2   9  -5 1.04589 1.35644   6
   2   9   5 3.16050 2.30771   5
   2   9   5 5.11810 2.80793   1
   3  -9   5 12.1256 3.28405   7
   3   9   5 11.0863 2.96640   5
  -3   9  -5 10.0003 2.52984   1
  -3   9  -5 14.1490 2.67579   5
   3   9   5 11.9222 3.21290   1
  -3   9  -5 13.7472 2.86556   7
   4  -9   5 171.746 19.0926   7
  -4   9  -5 180.816 18.3840   7
   4   9   5 207.212 18.8950   1
  -4   9  -5 202.793 18.2548   5
  -4   9  -5 203.463 18.1904   1
   5  -9   5 3.80736 2.57032   7
  -5   9  -5 1.49886 2.03465   5
  -5   9  -5 1.45231 1.85333   1
  -5   9  -5 1.99228 1.96147   7
   5   9   5 2.27404 2.37699   1
   6  -9   5 1.57888 2.51261   7
  -6   9  -5 1.07808 2.01180   7
  -6   9  -5 0.12705 1.82670   1
  -6   9  -5 2.97181 2.23923   5
   6   9   5 0.50237 2.22204   1
   7  -9   5 3.31788 2.45810   1
   7  -9   5 -1.3960 2.13629   7
  -7   9  -5 -0.5947 1.80078   7
   7   9   5 0.12779 1.94106   1
  -7   9  -5 3.66569 2.40746   1
  -7   9  -5 0.89586 2.16645   5
   8  -9   5 105.642 12.7334   1
   8  -9   5 119.909 12.8553   7
  -8   9  -5 144.823 12.6092   5
  -8   9  -5 122.495 12.4632   7
   8   9   5 112.964 12.1710   1
   7 -10  -5 24.6731 4.79965   1
  -7 -10   5 27.3567 2.81478   8
   7 -10  -5 21.5624 4.50265   7
  -7  10   5 25.2795 5.41887   5
  -6 -10   5 54.5440 5.77676   8
   6 -10  -5 71.8653 7.93024   7
   6 -10  -5 55.8044 7.43530   1
  -6  10   5 82.5980 8.89908   5
  -6  10   5 69.4875 8.55367   7
   5 -10  -5 505.800 39.1999   1
   5 -10  -5 375.283 39.0129   7
  -5 -10   5 433.336 37.6152   8
  -5  10   5 439.915 39.9683   7
  -5  10   5 383.475 39.3379   5
  -4 -10   5 211.160 18.1859   8
   4 -10  -5 195.449 19.1035   1
   4 -10  -5 234.135 19.4631   7
   4 -10  -5 189.152 20.1874   4
  -4  10   5 170.476 19.8290   1
  -4  10   5 167.003 19.6550   5
   4  10  -5 226.930 18.6291   1
  -4  10   5 209.994 20.2382   7
   3 -10  -5 53.8871 6.27832   7
   3 -10  -5 57.1086 6.55454   4
  -3 -10   5 49.0715 5.36479   8
  -3  10   5 45.8458 7.38102   1
   3  10  -5 62.4752 5.72792   1
  -3  10   5 46.7267 7.26865   7
  -3  10   5 53.3159 7.34739   5
  -2 -10   5 97.5219 8.71912   8
   2 -10  -5 95.3483 9.65978   4
  -2  10   5 89.9908 10.0937   5
  -2  10   5 72.6381 9.96639   1
  -2  10   5 86.2708 10.2397   7
   2  10  -5 83.3914 8.61353   1
  -1 -10   5 330.637 34.8033   7
   1 -10  -5 419.811 37.5219   4
  -1  10   5 385.597 36.0295   7
  -1  10   5 373.567 35.6109   5
  -1  10   5 444.179 36.3553   1
   1  10  -5 391.646 34.6617   1
   0 -10   5 241.707 24.4724   7
   0  10   5 252.311 24.9983   5
   0  10   5 276.185 26.0288   7
   0  10  -5 297.063 24.3188   1
   0  10  -5 295.604 24.9667   6
   0  10   5 233.398 25.3801   1
   1 -10   5 108.800 11.3961   7
   1  10   5 137.849 12.0849   5
  -1  10  -5 110.466 11.3760   6
  -1  10  -5 114.899 11.1019   1
   1  10   5 113.080 12.4290   1
   2 -10   5 75.4179 8.71120   7
  -2  10  -5 85.1451 8.30784   1
  -2  10  -5 84.7948 8.58519   6
   2  10   5 81.7408 9.47397   1
   2  10   5 78.3456 8.71387   5
   3 -10   5 217.955 21.5927   7
  -3  10  -5 236.522 20.8308   5
  -3  10  -5 247.661 20.9272   1
   3  10   5 195.778 21.5338   1
   4  10   5 258.049 24.7925   1
  -4  10  -5 261.122 24.1566   1
  -4  10  -5 271.079 24.2229   5
   5 -10   5 111.035 13.5473   7
  -5  10  -5 145.439 13.0413   5
  -5  10  -5 146.898 13.3061   7
   5  10   5 125.598 13.2138   1
  -5  10  -5 128.669 12.8339   1
   6 -10   5 46.7825 7.16598   7
  -6  10  -5 60.2540 6.77631   7
   6  10   5 45.4550 6.57560   1
  -6  10  -5 62.4226 6.65293   5
  -6  10  -5 54.2142 6.52142   1
  -7  10  -5 129.620 11.9549   1
   7  10   5 106.178 12.0116   1
  -5 -11   5 72.3270 7.15262   8
  -5  11   5 92.8366 9.67251   5
  -4 -11   5 2.86870 1.12693   8
   4 -11  -5 2.65712 1.75164   7
   4  11  -5 4.02363 1.67724   1
  -4  11   5 2.53618 3.04834   1
  -4  11   5 4.63377 2.93792   5
  -4  11   5 5.77757 2.97250   7
   3 -11  -5 36.6989 4.92481   7
  -3  11   5 37.7356 6.01007   7
   3  11  -5 44.4908 4.62488   1
  -3  11   5 33.9590 5.79489   5
  -3  11   5 38.2087 6.12555   1
   2 -11  -5 321.043 27.3707   7
  -2  11   5 288.114 27.8294   5
  -2  11   5 311.908 28.3703   7
  -2  11   5 285.784 28.1049   1
   2  11  -5 283.695 26.7742   1
  -1 -11   5 34.5532 4.11476   7
  -1  11   5 29.8159 5.02464   5
  -1  11   5 28.5764 5.24224   1
   1  11  -5 38.0016 4.15609   1
   0 -11   5 13.2236 2.40128   7
   0  11  -5 13.0744 2.33636   1
   0  11   5 10.2991 2.90323   5
   0  11   5 13.2141 3.64905   1
   1 -11   5 42.3924 5.12095   7
   1  11   5 46.1990 5.63086   5
   1  11   5 40.1072 6.35172   1
  -1  11  -5 44.8511 5.10530   1
   2 -11   5 230.447 20.5696   7
   2  11   5 253.300 21.4148   1
  -2  11  -5 189.180 20.0765   1
   3 -11   5 0.32000 1.51086   7
  -3  11  -5 -0.6571 1.43094   1
   3  11   5 0.87565 2.37314   1
   4 -11   5 28.2682 4.66384   7
   4  11   5 36.3558 5.30737   1
  -4  11  -5 35.3230 4.46614   5
  -4  11  -5 32.2995 4.51010   1
  -5  11  -5 39.9399 4.91459   5
   5  11   5 29.8802 4.92451   1
  -5  11  -5 33.6990 4.67114   1
  -1  12   5 58.6417 7.09350   5
  -1  12   5 54.6064 7.63078   1
   1  12  -5 69.0206 6.55723   1
   0  12   5 147.220 12.8683   5
   0  12  -5 128.807 12.4468   1
   0  12   5 117.275 13.3259   1
  -1  12  -5 1.22993 1.50234   1
   1  12   5 -0.6220 2.44376   1
 -13   0   6 61.7133 6.81113   8
 -12   0   6 683.273 60.6592   8
  11   0  -6 34.8960 4.99058   6
 -11   0   6 40.1833 5.01433   8
  10   0  -6 64.0844 7.37523   6
   9   0  -6 91.2915 10.3496   6
  -9   0   6 99.1868 9.61539   8
   8   0  -6 1930.41 181.759   6
  -8   0   6 2225.65 175.755   8
   8   0  -6 1867.95 176.853   1
  -7   0   6 18.2290 2.48202   8
   7   0  -6 18.0330 3.71201   6
   7   0  -6 21.9595 3.95857   1
  -7   0   6 24.0602 3.21831   8
   6   0  -6 98.4742 9.53916   6
   6   0  -6 87.7200 9.21248   1
  -6   0   6 83.1029 8.01281   8
  -5   0   6 18.3372 2.82124   7
   5   0  -6 14.2292 3.36745   6
  -5   0   6 30.3490 3.80455   8
  -5   0   6 24.4557 2.38717   8
   5   0  -6 25.8438 3.83422   1
   4   0  -6 5018.44 430.786   6
   4   0  -6 4666.56 450.195   4
   4   0  -6 4586.95 419.098   1
  -4   0   6 4517.43 421.181   7
  -4   0   6 5144.43 417.011   8
  -3   0   6 17.8313 2.13224   8
   3   0  -6 26.9820 3.56404   6
  -3   0   6 24.2289 3.32721   8
   3   0  -6 21.8772 3.45810   4
  -3   0   6 21.1412 2.55107   7
   3   0  -6 24.4511 3.47110   1
   2   0  -6 113.006 11.8524   6
   2   0  -6 108.522 11.9165  10
   2   0  -6 116.014 12.0821  10
  -2   0   6 142.067 13.1895   9
  -2   0   6 115.565 11.1290   7
  -2   0   6 141.880 12.2662   8
  -1   0   6 47.1131 4.40942   2
   1   0  -6 46.2617 4.59861   9
  -1   0   6 40.3727 4.57777   7
   1   0  -6 48.0158 6.35982  10
  -1   0   6 46.9963 4.98776  10
   1   0  -6 47.3792 4.36047   9
   1   0  -6 45.1935 4.38899   2
   1   0  -6 37.5031 5.11206   6
  -1   0   6 45.7013 5.73899   8
   1   0  -6 48.0478 4.80035  10
  -1   0   6 42.1899 6.37729   9
   0   0  -6 7027.34 619.934  10
   0   0  -6 5812.05 581.822   9
   0   0   6 6585.94 619.267  10
   0   0   6 6662.94 556.617   8
   0   0   6 7073.95 582.740   9
   0   0  -6 5836.43 619.628  10
   0   0   6 6362.51 619.781  10
   0   0  -6 6359.80 562.107   7
   0   0  -6 5702.52 573.557   6
   0   0  -6 6911.46 572.758   2
   0   0   6 5854.55 572.525   2
  -1   0  -6 136.175 15.6382   7
  -1   0  -6 174.131 15.0701   2
   1   0   6 153.077 17.5467  10
   1   0   6 133.014 15.0359   2
  -1   0  -6 169.846 16.3234  10
   1   0   6 175.206 14.7812   5
  -1   0  -6 172.668 15.9162   6
   1   0   6 167.224 16.3528  10
   1   0   6 173.645 15.0075   7
   1   0   6 150.014 16.9564   9
  -1   0  -6 151.883 17.9164  10
  -1   0  -6 208.008 18.0672   9
  -2   0  -6 254.941 25.2384   9
  -2   0  -6 304.320 26.0594   6
  -2   0  -6 287.413 28.0497   4
  -2   0  -6 309.256 27.0361  10
  -2   0  -6 291.770 24.9722   2
   2   0   6 251.231 28.4832  10
   2   0   6 269.494 27.1738   9
   2   0   6 232.567 25.1590   9
  -2   0  -6 288.394 25.6822   7
  -2   0  -6 240.162 28.2860  10
   2   0   6 253.258 26.9266  10
   2   0   6 273.616 25.0000   2
   2   0   6 304.101 24.6822   7
  -2   0  -6 306.185 27.6187   9
   2   0   6 254.501 24.4111   1
   2   0   6 231.750 24.1983   5
  -3   0  -6 173.965 14.7271   7
   3   0   6 121.682 15.9546  10
  -3   0  -6 140.771 14.5324   6
  -3   0  -6 145.440 16.0956   4
   3   0   6 130.945 12.8646   1
  -3   0  -6 125.085 14.0331   1
  -3   0  -6 158.646 14.2704  10
   3   0   6 154.650 16.2890   9
   3   0   6 156.553 14.1716  10
   3   0   6 128.259 13.1492   2
   3   0   6 159.416 12.8116   5
   3   0   6 120.974 13.1429   9
  -3   0  -6 118.436 13.1927   9
  -4   0  -6 5087.39 493.081   4
   4   0   6 5308.57 478.021   9
   4   0   6 5790.15 509.329  10
   4   0   6 4751.88 469.395   2
  -4   0  -6 5365.88 458.646   1
  -4   0  -6 4644.83 476.461   9
   4   0   6 5479.93 456.712   5
  -4   0  -6 5888.17 471.408   6
  -4   0  -6 5325.29 455.146   8
  -4   0  -6 5234.85 461.396   7
   4   0   6 4921.10 457.093   1
  -4   0  -6 4676.55 506.906  10
   4   0   6 5539.57 507.448  10
  -5   0  -6 316.519 29.7023   8
   5   0   6 300.741 32.9505  10
   5   0   6 354.548 32.2256   9
   5   0   6 370.371 36.2029  10
   5   0   6 367.089 30.8729   2
   5   0   6 335.429 30.0901   1
   5   0   6 316.152 30.0598   7
   5   0   6 327.531 29.7364   5
   5   0   6 324.466 29.9919   1
  -5   0  -6 399.496 32.0228   7
  -5   0  -6 315.959 31.8162   1
   6   0   6 503.759 44.5356   9
   6   0   6 491.363 49.2647  10
   6   0   6 500.806 42.3075   5
   6   0   6 506.825 42.7532   7
   6   0   6 448.950 42.6908   1
  -6   0  -6 446.181 44.2636   7
  -6   0  -6 470.331 42.3248   8
   6   0   6 460.169 46.9043  10
  -7   0  -6 91.0806 9.07980   8
   7   0   6 86.7107 9.34725   1
   7   0   6 103.957 9.09247   7
   7   0   6 95.5319 9.76326  10
   7   0   6 93.8657 8.92688   5
  -7   0  -6 99.0218 11.0671   7
   8   0   6 2934.19 301.069  10
  -8   0  -6 2959.07 270.853   8
   8   0   6 3042.35 272.132   1
   8   0   6 3441.37 270.930   5
  -8   0  -6 3153.43 275.077   7
   9   0   6 235.712 21.6209   5
   9   0   6 274.162 22.6097   1
  -9   0  -6 219.632 23.4831   7
 -10   0  -6 240.272 26.8971   7
  10   0   6 325.773 26.3944   1
 -11   0  -6 40.3383 6.40666   7
  11   0   6 41.4707 5.48186   1
  12   0   6 1339.80 118.308   1
  13   0   6 119.414 12.2315   1
 -13  -1   6 3.62426 1.76360   8
 -13   1   6 7.32621 2.47359   8
 -12  -1   6 1.66511 1.48574   8
 -12   1   6 2.06250 1.98719   8
  11  -1  -6 10.3320 2.86344   6
 -11  -1   6 13.1781 2.39439   8
 -11   1   6 16.4025 3.55587   8
  11   1  -6 10.9986 2.29998   6
  10  -1  -6 7.08103 2.70189   6
  10  -1  -6 9.57938 2.98041   1
 -10  -1   6 5.22566 1.78598   8
  10   1  -6 5.31132 1.96572   6
 -10   1   6 12.4491 3.32253   8
   9  -1  -6 51.6337 8.29993   6
   9  -1  -6 62.4398 8.60119   1
  -9  -1   6 62.1851 6.22349   8
  -9   1   6 69.2486 7.42457   8
   9   1  -6 53.1249 6.53623   6
   8  -1  -6 -1.6739 2.54476   6
  -8  -1   6 1.77060 0.89474   8
   8  -1  -6 6.98951 3.55809   1
  -8  -1   6 1.54095 1.24374   8
   8   1  -6 2.30958 1.66631   6
  -8   1   6 -0.7494 1.99225   8
   7  -1  -6 4.52505 3.17628   1
  -7  -1   6 7.25645 1.40290   8
   7  -1  -6 6.07272 2.98148   6
  -7  -1   6 7.19093 1.02029   8
   7   1  -6 6.06954 1.81407   6
  -7   1   6 4.86226 2.29976   8
  -6  -1   6 13.6137 1.69351   8
  -6  -1   6 9.73670 1.25137   8
   6  -1  -6 13.0819 3.69801   6
   6  -1  -6 9.38546 3.51220   1
   6   1  -6 9.93197 2.25455   6
  -6   1   6 11.1602 2.56518   7
   6   1  -6 11.7592 2.35353   1
  -6   1   6 9.58420 2.71759   8
  -5  -1   6 131.373 12.1605   8
   5  -1  -6 132.466 13.8304   1
  -5  -1   6 120.736 11.8799   8
   5  -1  -6 145.180 14.6864   4
   5  -1  -6 121.691 14.0267   6
  -5   1   6 147.741 13.3982   8
   5   1  -6 147.841 12.8105   1
  -5   1   6 145.781 12.4604   8
   5   1  -6 125.294 12.9165   6
  -5   1   6 149.061 13.0877   7
  -4  -1   6 18.7811 2.30829   8
   4  -1  -6 30.7956 4.99697   6
   4  -1  -6 30.7198 4.54371   4
  -4  -1   6 25.0774 2.71943   7
   4  -1  -6 28.9423 4.89919   1
  -4  -1   6 30.1885 3.41943   8
   4  -1  -6 27.0512 2.84454   7
  -4   1   6 25.7434 2.74766   8
   4   1  -6 25.0276 3.26850   6
  -4   1   6 22.3165 3.76593   8
  -4   1   6 18.9574 3.08425   7
   3  -1  -6 31.9686 5.14292   6
  -3  -1   6 27.2357 3.22194   8
   3  -1  -6 44.6039 5.81198   1
  -3  -1   6 37.3739 3.61435   7
  -3  -1   6 40.1883 3.90581   8
   3  -1  -6 37.2531 3.73763  10
   3  -1  -6 36.7875 5.82314   4
   3  -1  -6 35.7257 3.56195  10
   3   1  -6 34.6796 3.95708   6
  -3   1   6 29.8250 3.74807   7
  -3   1   6 36.4268 4.48541   8
  -2  -1   6 17.4051 2.03986   2
   2  -1  -6 16.8799 1.97428   9
   2  -1  -6 17.6377 1.90569   9
  -2  -1   6 18.4938 2.40841   7
   2  -1  -6 18.5792 3.57888   1
  -2  -1   6 20.7912 2.85806   8
   2  -1  -6 15.9297 2.29530  10
  -2  -1   6 26.8838 3.70630   9
   2  -1  -6 19.3711 3.49567  10
   2  -1  -6 18.6215 4.07105   4
   2  -1  -6 17.5513 3.56656   6
   2  -1  -6 16.5489 1.87753   2
  -2   1   6 20.1335 2.57712   7
  -2   1   6 19.6922 3.86782   8
  -2   1   6 23.7736 4.14729   9
   2   1  -6 19.0550 2.71806   6
   1  -1  -6 91.7574 10.1877   1
   1  -1  -6 100.668 10.4214   6
   1  -1  -6 104.439 10.2285  10
  -1  -1   6 125.615 11.4371   9
   1  -1  -6 120.240 10.2489   9
   1  -1  -6 99.8290 9.44257   9
   1  -1  -6 105.035 9.32089   2
  -1  -1   6 100.067 9.47119   7
  -1  -1   6 98.5758 9.33413   2
   1  -1  -6 100.144 11.6596   4
  -1  -1   6 89.9809 9.78733   8
   1  -1  -6 112.707 11.8338  10
  -1   1   6 74.9101 10.2467   8
   1   1  -6 101.613 9.87749   6
  -1   1   6 103.072 11.1277   9
  -1   1   6 105.344 9.44989   7
  -1   1   6 83.2476 10.2169  10
   1   1  -6 100.152 10.0809  10
  -1   1   6 105.619 9.57394   2
   0  -1   6 120.394 11.5481   9
   0  -1  -6 109.460 10.5747  10
   0  -1   6 88.7484 10.1152   8
   0  -1  -6 97.2671 12.2807   4
   0  -1   6 102.348 9.64457   2
   0  -1  -6 107.171 12.4553  10
   0  -1  -6 103.930 9.79570   9
   0  -1   6 90.1838 10.4603  10
   0  -1  -6 98.7525 10.2404   1
   0  -1  -6 109.675 11.6084   9
   0  -1  -6 92.3562 10.5314   6
   0  -1   6 97.5519 9.73216   7
   0   1   6 98.4372 9.74318   2
   0   1   6 102.730 11.9867   9
   0   1  -6 113.630 12.3214  10
   0   1   6 118.260 9.64056   5
   0   1  -6 96.1980 10.1767   9
   0   1   6 95.6021 10.4985  10
   0   1  -6 95.1831 10.3600   7
   0   1  -6 101.843 10.3094   6
   0   1  -6 97.4188 10.3933  10
   0   1  -6 92.7174 9.68266   9
   0   1   6 128.955 13.2045  10
   0   1  -6 102.008 9.69797   2
  -1  -1  -6 343.386 30.0055  10
   1  -1   6 316.847 27.6285   2
   1  -1   6 282.209 30.8036  10
   1  -1   6 294.109 27.3347   7
   1  -1   6 320.944 29.5249   9
  -1  -1  -6 307.429 28.4610   6
   1  -1   6 301.402 29.9181  10
  -1  -1  -6 254.564 27.9423   9
  -1  -1  -6 348.381 28.2237   7
  -1  -1  -6 298.728 31.5066  10
   1  -1   6 307.678 26.9902   5
  -1  -1  -6 327.634 27.7094   2
  -1  -1  -6 328.755 31.1791   4
   1   1   6 264.071 29.8154  10
  -1   1  -6 290.460 27.7099   1
  -1   1  -6 327.050 27.9851   9
   1   1   6 266.711 27.9464   9
  -1   1  -6 254.703 27.8983   7
   1   1   6 269.156 29.8524   9
   1   1   6 307.062 26.9629   5
   1   1   6 331.474 27.7388   2
  -1   1  -6 270.822 31.0326  10
  -1   1  -6 297.029 28.3854   6
  -1   1  -6 355.333 27.6981   2
  -2  -1  -6 13.2941 2.26331   2
   2  -1   6 14.7152 4.22983   9
  -2  -1  -6 14.1774 2.42234  10
  -2  -1  -6 19.9566 4.83010  10
   2  -1   6 16.6287 2.30634   5
   2  -1   6 10.4159 2.23739  10
  -2  -1  -6 12.9425 2.14532   9
   2  -1   6 11.8655 2.24291   7
   2  -1   6 14.6076 2.23660   2
  -2  -1  -6 17.3164 3.46008   6
  -2  -1  -6 12.2548 4.65697   9
  -2  -1  -6 14.0881 4.50914   4
   2  -1   6 17.2993 4.44130  10
  -2  -1  -6 10.2090 2.97051   7
   2   1   6 12.8743 3.79463  10
   2   1   6 12.9110 2.21880  10
  -2   1  -6 12.8036 3.48009   9
  -2   1  -6 11.8288 3.21482   6
  -2   1  -6 13.0592 2.21347  10
  -2   1  -6 18.9237 4.43349   4
   2   1   6 12.3732 1.99354   9
   2   1   6 13.0020 2.19563   1
   2   1   6 7.14331 1.83564   5
   2   1   6 9.18968 1.97694   7
  -2   1  -6 15.8697 3.62126   1
  -2   1  -6 18.5709 5.01096  10
  -2   1  -6 7.68490 1.89512   2
   2   1   6 18.3046 4.49318   9
   2   1   6 14.7984 2.29892   2
  -2   1  -6 9.09414 3.22849   7
  -2   1  -6 11.4508 2.01915   9
   3  -1   6 34.6495 6.71671  10
  -3  -1  -6 35.9005 4.32639   9
   3  -1   6 36.5050 4.62909  10
   3  -1   6 46.7083 4.27620   9
  -3  -1  -6 40.9555 4.51381   2
   3  -1   6 41.6103 4.33734   5
   3  -1   6 35.6734 6.73645   9
  -3  -1  -6 35.8281 5.37908   6
  -3  -1  -6 43.7029 5.52257   7
  -3  -1  -6 41.6497 4.12765   8
  -3  -1  -6 51.4712 4.94011  10
   3  -1   6 36.2253 4.29194   1
   3  -1   6 40.2866 4.41971   2
  -3  -1  -6 54.2806 8.24267   4
  -3  -1  -6 43.1945 6.98604  10
   3  -1   6 42.7518 4.53085   7
  -3   1  -6 37.5039 4.39507   2
   3   1   6 38.4783 6.91986   9
   3   1   6 37.1488 4.46081   2
   3   1   6 35.1909 4.16572   9
  -3   1  -6 40.4317 5.91161   6
   3   1   6 41.1224 4.34644   1
   3   1   6 42.0567 4.59691  10
  -3   1  -6 37.4179 4.27051   9
   3   1   6 35.5800 4.14410   5
  -3   1  -6 38.3869 6.13475   1
   3   1   6 52.5522 8.21209  10
  -3   1  -6 39.5360 6.92084  10
   3   1   6 39.8835 4.29406   7
  -3   1  -6 40.4158 6.11871   9
  -3   1  -6 31.0270 5.97135   7
   4  -1   6 31.7191 3.87263   9
  -4  -1  -6 39.9433 3.89720   8
   4  -1   6 26.5205 4.17823  10
   4  -1   6 31.5999 4.14260   2
  -4  -1  -6 37.4276 5.50508   7
   4  -1   6 37.0972 4.03079   5
   4  -1   6 34.2174 7.77457  10
  -4  -1  -6 36.7282 5.88864   1
  -4  -1  -6 36.9678 6.82027   4
   4  -1   6 36.4264 4.22449   7
  -4  -1  -6 35.4624 4.12228   9
   4  -1   6 38.4594 6.82584   9
   4  -1   6 32.1378 4.07542   1
   4   1   6 35.3586 6.89850  10
   4   1   6 39.3633 3.92799   5
   4   1   6 32.2865 4.15716  10
  -4   1  -6 28.7783 5.91399   1
   4   1   6 37.3161 4.00044   7
   4   1   6 32.4844 4.24415   2
   4   1   6 35.7832 3.93265   9
   4   1   6 34.6893 4.15952   1
  -4   1  -6 34.4078 4.06895   9
  -4   1  -6 35.9781 6.17467   6
  -4   1  -6 37.1697 6.27647   7
   4   1   6 41.2837 6.36898   9
   5  -1   6 434.146 43.5393  10
   5  -1   6 484.978 37.0844   7
   5  -1   6 395.637 36.4740   5
   5  -1   6 357.418 39.1898   9
   5  -1   6 430.780 37.7595   2
   5  -1   6 352.565 36.6521   1
  -5  -1  -6 385.449 41.2968   4
  -5  -1  -6 427.387 38.1359   7
   5  -1   6 389.670 40.4728  10
  -5   1  -6 331.947 37.8699   1
  -5   1  -6 421.940 38.9991   7
   5   1   6 376.419 36.7086   7
   5   1   6 484.824 37.9035   9
   5   1   6 401.778 37.7038   2
   5   1   6 477.198 38.9153   9
   5   1   6 446.357 40.3913  10
  -5   1  -6 382.025 36.3948   8
   5   1   6 447.666 36.8799   1
   5   1   6 377.520 36.3367   5
   6  -1   6 2.33612 1.42640   7
   6  -1   6 2.81975 1.55709   1
   6  -1   6 4.10035 2.25650   9
  -6  -1  -6 5.08735 3.73728   4
  -6  -1  -6 6.34070 2.86656   7
  -6  -1  -6 2.97529 1.22557   8
   6  -1   6 3.44809 1.35847   5
   6  -1   6 5.06917 4.02440  10
   6  -1   6 2.92449 1.31633  10
   6   1   6 3.27615 3.69491  10
  -6   1  -6 2.77573 2.55014   1
   6   1   6 4.42205 1.26386  10
  -6   1  -6 9.10686 3.92009   7
   6   1   6 4.35160 1.19776   5
   6   1   6 4.20634 1.65777   1
   6   1   6 5.50759 1.04133   9
   6   1   6 4.53306 1.31649   7
   7  -1   6 49.5874 5.62484  10
   7  -1   6 48.6231 5.72342   1
   7  -1   6 52.8163 5.29968   5
  -7  -1  -6 60.2087 7.31209   7
   7  -1   6 52.6252 5.54339   7
   7  -1   6 48.1059 5.44235   9
  -7  -1  -6 45.9566 5.26921   8
   7  -1   6 76.5118 10.5966  10
   7   1   6 74.5867 7.72984  10
   7   1   6 46.3887 5.63008   1
   7   1   6 44.6694 5.43200  10
  -7   1  -6 47.6755 7.87701   7
   7   1   6 43.7624 5.48506   1
   7   1   6 54.9787 5.05288   5
   7   1   6 50.9894 5.17619   7
   8  -1   6 2.66687 1.23192   5
   8  -1   6 0.69722 1.27389   7
  -8  -1  -6 0.80112 1.30478   8
   8  -1   6 1.38814 1.15224  10
   8  -1   6 -0.2684 1.56942   1
  -8  -1  -6 2.14601 2.59742   7
   8  -1   6 4.84797 3.03564  10
  -8   1  -6 2.50029 2.93242   7
   8   1   6 1.59312 0.99441   5
   8   1   6 3.00425 0.86993  10
   8   1   6 2.77507 1.86556   1
   8   1   6 1.80779 1.72684   1
   8   1   6 3.57303 1.18221  10
  -9  -1  -6 220.291 19.2256   8
   9  -1   6 206.094 18.8154   5
   9  -1   6 215.510 19.5768   1
   9  -1   6 229.777 21.0805  10
   9  -1   6 197.160 20.6850  10
  -9  -1  -6 189.442 20.4323   7
  -9   1  -6 172.545 20.6411   7
   9   1   6 230.877 19.6490   1
 -10  -1  -6 3.02947 2.63254   7
  10  -1   6 1.95981 2.10092   1
 -10  -1  -6 4.41946 1.96265   8
  10   1   6 1.07098 1.92207   1
 -10   1  -6 2.85513 2.69140   7
 -11  -1  -6 49.9504 9.36546   4
  11  -1   6 76.4690 7.80188   1
  11   1   6 66.6523 7.48632   1
 -11   1  -6 68.0779 8.84407   7
  12  -1   6 12.8034 3.40594   1
 -12  -1  -6 12.4599 4.76664   4
  12   1   6 15.4692 3.14591   1
 -12   1  -6 13.6879 3.70358   7
  13  -1   6 51.2414 6.79573   1
 -13  -1  -6 51.2667 8.78392   4
  13   1   6 55.3951 6.56927   1
 -12  -2   6 216.489 19.4513   8
 -11  -2   6 57.5462 5.83049   8
  11  -2  -6 40.5643 7.15188   6
  11  -2  -6 57.0332 7.53874   1
 -11   2   6 77.8926 8.00136   8
  11   2  -6 62.8622 5.85921   6
  10  -2  -6 44.4217 7.24495   6
 -10  -2   6 59.9480 5.52125   8
  10  -2  -6 43.8163 7.16725   1
 -10   2   6 61.8291 7.29073   8
  10   2  -6 52.2557 5.52235   6
  -9  -2   6 75.7228 6.33075   8
  -9  -2   6 59.0193 6.30903   8
   9  -2  -6 51.3423 8.77880   1
   9  -2  -6 68.8911 9.32821   6
   9   2  -6 66.6660 6.72007   6
  -9   2   6 79.8713 8.23015   8
   8  -2  -6 1466.03 125.325   6
   8  -2  -6 1238.93 121.540   1
  -8   2   6 1537.70 120.376   8
   8   2  -6 1234.81 122.872   6
   7  -2  -6 87.1424 9.89954   1
   7  -2  -6 61.3728 9.45303   6
  -7   2   6 79.7314 8.43949   8
   7   2  -6 75.5693 7.18034   6
  -7   2   6 65.4870 8.28246   7
   6  -2  -6 410.871 38.3762   1
   6  -2  -6 432.804 39.6584   6
  -6   2   6 424.206 37.4334   8
  -6   2   6 395.823 37.4100   7
   6   2  -6 402.561 37.3051   6
   5  -2  -6 12.9793 4.28170   6
   5  -2  -6 22.0818 4.75966   1
   5  -2  -6 19.0682 4.62526   4
  -5   2   6 21.2822 3.45397   7
  -5   2   6 21.2450 3.84718   8
   5   2  -6 17.0860 2.28794   6
   4  -2  -6 3754.86 357.840   4
   4  -2  -6 4189.54 342.625   6
  -4  -2   6 3654.68 339.971   2
   4  -2  -6 3434.72 367.617  10
   4  -2  -6 3423.43 339.780   2
   4  -2  -6 3668.06 367.606  10
   4  -2  -6 4327.52 333.227   1
   4   2  -6 3780.64 340.745   6
  -4   2   6 3770.26 331.067   8
  -4   2   6 3989.09 334.413   7
   3  -2  -6 69.5505 7.43821  10
   3  -2  -6 70.6773 8.75272   6
   3  -2  -6 63.7846 8.69946   1
   3  -2  -6 66.5829 6.26688   2
  -3  -2   6 57.7780 6.02990   8
   3  -2  -6 63.1284 8.44601   4
  -3  -2   6 62.5219 6.27161   7
  -3  -2   6 51.3645 6.52350   2
   3  -2  -6 65.2048 6.09241   9
   3  -2  -6 65.8721 6.22587   2
   3  -2  -6 68.1793 6.14560   9
  -3  -2   6 55.9390 6.00654   8
  -3  -2   6 62.9108 6.67778   2
   3  -2  -6 70.5081 6.86799  10
   3   2  -6 66.5344 6.48544   6
  -3   2   6 90.6962 8.42128   9
  -3   2   6 75.7789 7.31367   8
  -3   2   6 80.8182 8.05464   9
  -3   2   6 67.0072 6.83723   7
   2  -2  -6 1411.08 108.917   1
   2  -2  -6 1075.34 111.440   9
  -2  -2   6 1115.83 107.894   7
  -2  -2   6 1152.92 106.860   8
   2  -2  -6 1081.53 116.529   4
   2  -2  -6 1417.21 120.148  10
   2  -2  -6 1376.66 109.809   2
   2  -2  -6 1355.60 111.823   6
  -2  -2   6 1183.10 106.627   8
   2  -2  -6 1257.93 111.716   9
   2  -2  -6 1031.58 118.775  10
  -2  -2   6 1320.96 109.996   2
  -2   2   6 1178.53 107.124   5
  -2   2   6 1140.89 119.028  10
   2   2  -6 1194.86 110.299   6
  -2   2   6 1329.46 107.931   8
   1  -2  -6 35.7438 4.24015   9
   1  -2  -6 50.9168 4.87262  10
   1  -2  -6 35.4855 5.72177   6
  -1  -2   6 40.9510 4.95553   9
  -1  -2   6 47.8559 4.57921   2
   1  -2  -6 43.4676 7.09823  10
  -1  -2   6 36.2088 4.55732   8
   1  -2  -6 34.5854 6.45099   4
   1  -2  -6 55.8573 6.19555   9
  -1  -2   6 35.9758 4.43253   7
   1  -2  -6 39.8906 5.93129   1
   1  -2  -6 47.9083 4.41376   2
   1   2  -6 39.1724 4.76483   6
  -1   2   6 36.3364 5.96232   8
  -1   2   6 40.0898 6.37872   9
   1   2  -6 37.4116 4.91745   7
   1   2  -6 48.5371 4.77158  10
  -1   2   6 48.1234 7.47669  10
   1   2  -6 34.1509 4.28366  10
  -1   2   6 38.3525 4.83077  10
   1   2  -6 44.4233 4.76307   1
  -1   2   6 42.5601 5.15892   2
  -1   2   6 39.3977 4.48349   7
  -1   2   6 44.2427 4.50422   5
   0  -2   6 5659.71 481.376   2
   0  -2  -6 5895.93 483.042   6
   0  -2   6 4940.64 519.893  10
   0  -2   6 5253.02 472.048   7
   0  -2  -6 4554.23 520.767  10
   0  -2  -6 5578.96 505.033   4
   0  -2  -6 4964.85 469.773   1
   0  -2   6 5283.68 489.106   9
   0  -2   6 5902.98 467.545   8
   0   2   6 5758.06 481.039   2
   0   2  -6 4839.19 488.322   9
   0   2  -6 5744.98 520.427  10
   0   2   6 5425.27 471.990   7
   0   2  -6 6061.77 469.480   1
   0   2   6 5602.73 520.043  10
   0   2   6 4576.86 489.632   9
   0   2  -6 5959.17 488.628   9
   0   2  -6 5368.21 520.745  10
   0   2  -6 4546.79 472.287   7
  -1  -2  -6 38.8468 5.39200  10
  -1  -2  -6 52.8228 5.22271   2
  -1  -2  -6 56.2220 5.15637   9
   1  -2   6 44.8953 5.47712  10
  -1  -2  -6 53.5227 7.78461   4
  -1  -2  -6 43.5912 6.55038   9
   1  -2   6 35.8038 6.18893  10
  -1  -2  -6 45.5984 5.93979   1
  -1  -2  -6 49.2254 6.12126   6
   1  -2   6 41.3389 5.01838   2
   1  -2   6 40.6012 6.22379   9
  -1  -2  -6 75.7441 9.25331  10
   1  -2   6 50.0715 5.23908   7
   1   2   6 54.4919 5.57998  10
   1   2   6 43.8008 5.24010   2
   1   2   6 54.3629 7.97779  10
  -1   2  -6 39.3884 5.94996   7
   1   2   6 43.7106 5.04817   7
   1   2   6 51.1613 5.10809   1
   1   2   6 51.0615 5.00809   5
  -1   2  -6 33.4010 5.61435   6
   1   2   6 56.6834 7.87309   9
  -1   2  -6 51.6816 5.70484   9
   1   2   6 47.0153 5.08560   9
  -1   2  -6 49.3691 5.92895   1
  -1   2  -6 50.8993 4.96744   9
  -1   2  -6 56.6588 5.23149   2
  -1   2  -6 48.1084 6.55884  10
  -1   2  -6 43.5310 5.32563  10
  -2  -2  -6 1492.53 134.341   4
  -2  -2  -6 1489.75 126.481   2
  -2  -2  -6 1375.70 123.960   1
   2  -2   6 1397.00 136.592  10
  -2  -2  -6 1335.67 128.293   9
   2  -2   6 1227.87 137.427  10
  -2  -2  -6 1379.81 127.391   6
   2  -2   6 1379.50 126.320   2
  -2  -2  -6 1398.84 124.742   7
  -2   2  -6 1437.31 136.533  10
   2   2   6 1462.31 122.842   5
  -2   2  -6 1468.76 127.618   6
  -2   2  -6 1354.15 124.232   1
  -2   2  -6 1493.57 129.166   9
   2   2   6 1357.89 128.234   9
  -2   2  -6 1628.62 128.267   9
   2   2   6 1256.77 123.967   7
   2   2   6 1524.48 138.289  10
  -2   2  -6 1376.89 126.322   2
   2   2   6 1426.51 126.451   2
   2   2   6 1353.34 129.903   9
  -2   2  -6 1458.79 125.372   7
   2   2   6 1354.58 136.549  10
   2   2   6 1268.79 123.199   1
  -3  -2  -6 216.603 17.4458   2
   3  -2   6 187.254 17.1403   2
  -3  -2  -6 173.649 16.4431   8
   3  -2   6 198.513 16.7824   5
  -3  -2  -6 200.465 17.3701   9
   3  -2   6 176.837 18.4189  10
  -3  -2  -6 179.677 19.6392  10
   3  -2   6 174.507 16.9577   7
   3  -2   6 176.661 19.2900   9
  -3  -2  -6 177.968 19.8934   4
   3  -2   6 158.714 20.1116  10
  -3  -2  -6 197.143 17.5899   7
  -3   2  -6 166.004 17.1442   9
  -3   2  -6 156.158 19.3321  10
   3   2   6 166.078 17.1266   9
  -3   2  -6 172.068 18.5184   9
   3   2   6 191.487 18.4001  10
   3   2   6 175.896 16.5072   5
   3   2   6 177.602 17.2283   2
   3   2   6 197.649 16.8493   7
  -3   2  -6 198.484 17.2361   2
  -3   2  -6 175.841 18.5087   6
   3   2   6 195.179 20.4971  10
   3   2   6 176.211 19.0560   9
  -3   2  -6 154.565 17.8855   7
  -3   2  -6 176.876 18.4264  10
   3   2   6 191.744 16.8086   1
  -4  -2  -6 3823.15 340.753   9
   4  -2   6 3809.96 326.236   5
   4  -2   6 3982.00 362.742  10
   4  -2   6 3550.91 327.128   1
  -4  -2  -6 3749.37 352.972   4
  -4   2  -6 3546.37 328.355   1
   4   2   6 3730.12 362.514  10
   4   2   6 3652.58 341.645   9
  -4   2  -6 3428.72 330.347   7
   4   2   6 3721.90 335.554   2
   4   2   6 4066.23 340.514   9
   4   2   6 3691.90 329.092   7
  -4   2  -6 4243.95 337.730   6
   4   2   6 3673.40 325.977   5
   4   2   6 3391.26 327.042   1
  -5  -2  -6 54.3491 5.51654   8
   5  -2   6 60.9762 6.28594  10
   5  -2   6 46.3160 5.84624   7
   5  -2   6 49.9540 5.86834   1
   5  -2   6 46.3094 7.55699   9
   5  -2   6 47.1791 5.66248   5
  -5  -2  -6 64.3011 9.30650   4
  -5  -2  -6 57.9549 6.79347   7
   5   2   6 54.9124 5.83232   1
   5   2   6 53.3347 5.95044   9
   5   2   6 59.5072 5.45077   9
  -5   2  -6 47.6402 7.44333   7
   5   2   6 70.7703 9.49344  10
   5   2   6 57.7445 5.46546   5
  -5   2  -6 46.2022 6.87806   1
   5   2   6 50.5894 5.53868   7
  -5   2  -6 53.5968 5.85251   9
   5   2   6 58.7893 6.09021  10
   6  -2   6 862.174 68.6164   5
   6  -2   6 842.710 69.4486   7
  -6  -2  -6 779.801 75.6946   4
   6  -2   6 895.204 72.6695   9
   6  -2   6 732.026 68.8790   1
  -6  -2  -6 907.388 70.2752   7
  -6  -2  -6 838.985 68.4501   8
  -6   2  -6 670.269 69.6401   1
   6   2   6 725.322 75.8013  10
   6   2   6 649.018 68.7705   1
  -6   2  -6 732.898 70.3406   7
   6   2   6 790.740 68.9293   7
   6   2   6 807.937 75.8558  10
  -6   2  -6 666.216 69.5109   5
   6   2   6 824.045 77.2877  10
   6   2   6 735.002 68.2601   5
   7  -2   6 126.119 11.5369   9
   7  -2   6 108.513 10.9192   1
   7  -2   6 117.820 10.9026   7
   7  -2   6 106.940 10.5464   5
   7  -2   6 105.412 11.5695  10
  -7  -2  -6 117.090 13.9346   4
  -7  -2  -6 121.056 10.6027   8
  -7  -2  -6 119.640 11.9108   7
  -7   2  -6 88.3455 11.6812   5
   7   2   6 106.207 10.9243   1
   7   2   6 119.048 11.2068  10
   7   2   6 102.378 10.1689   5
   7   2   6 128.171 11.8613  10
  -7   2  -6 80.0876 11.5630   7
   8  -2   6 1834.94 159.932   7
   8  -2   6 1594.15 159.021   1
   8  -2   6 1784.24 164.947   9
  -8  -2  -6 1779.33 172.701   4
   8  -2   6 2026.12 158.352   5
   8  -2   6 1702.05 175.856  10
  -8  -2  -6 1932.20 158.251   8
  -8  -2  -6 1846.73 160.853   7
   8   2   6 1786.24 159.070   1
  -9  -2  -6 71.6432 10.7996   4
   9  -2   6 78.4319 7.65343   5
   9  -2   6 81.4408 8.22500  10
  -9  -2  -6 82.9023 9.12501   7
   9  -2   6 73.7512 8.35918   1
  -9  -2  -6 76.1673 7.89385   8
   9  -2   6 88.7378 9.28298  10
  -9   2  -6 55.7486 8.69968   7
   9   2   6 79.0571 8.23262   1
   9   2   6 84.9547 8.38198   1
 -10  -2  -6 277.622 31.7088   4
 -10  -2  -6 313.148 27.7682   8
  10  -2   6 304.365 28.2956   1
  10  -2   6 338.364 27.3636   5
  10   2   6 282.443 28.0013   1
 -11  -2  -6 9.38390 4.35418   4
  11  -2   6 14.4221 3.40094   1
 -11  -2  -6 14.8932 2.93362   8
  11   2   6 11.9504 2.91295   1
 -11   2  -6 8.26231 3.16558   7
 -12  -2  -6 616.809 57.6494   4
  12  -2   6 618.930 52.6473   1
  12   2   6 523.066 52.0195   1
 -12  -3   6 6.88364 1.34838   8
  12  -3  -6 8.79767 3.25908   1
 -12   3   6 12.0426 3.72963   8
 -11  -3   6 190.182 17.3885   8
  11  -3  -6 205.914 19.5278   1
  10  -3  -6 7.25775 3.31610   6
  10  -3  -6 13.2630 4.10445   1
 -10   3   6 18.3164 4.02472   8
   9  -3  -6 251.738 24.9505   1
   9  -3  -6 241.532 25.4092   6
  -9   3   6 254.434 23.7279   8
   8  -3  -6 11.5496 4.43782   6
   8  -3  -6 12.3798 4.79114   1
  -8   3   6 14.9943 3.52638   8
  -8   3   6 10.6772 3.46132   7
   7  -3  -6 685.423 64.7525   6
   7  -3  -6 741.809 63.2854   1
  -7   3   6 649.220 61.5295   8
   6  -3  -6 82.0175 10.5925   6
   6  -3  -6 82.8095 10.2142   1
   6  -3  -6 89.6920 10.5633   4
  -6   3   6 66.8935 8.85579   7
  -6   3   6 87.0253 9.05672   8
   5  -3  -6 604.648 54.8515   1
   5  -3  -6 668.622 54.0789   7
   5  -3  -6 556.157 56.4376   6
   5  -3  -6 593.119 59.1090   4
   5  -3  -6 621.791 58.7626  10
   5  -3  -6 568.823 58.6397  10
   5   3  -6 588.396 54.3065   6
  -5   3   6 652.611 53.8776   8
  -5   3   6 560.960 54.1732   7
   4  -3  -6 4.52562 2.67792   6
   4  -3  -6 8.26810 3.50851   4
   4  -3  -6 6.32345 0.88360   9
   4  -3  -6 4.96097 1.67470  10
   4  -3  -6 5.21729 3.03287   1
   4  -3  -6 6.99269 1.01232   9
   4  -3  -6 6.14098 1.34904   2
   4  -3  -6 5.98902 1.43436  10
  -4   3   6 8.74861 2.38836   5
   4   3  -6 7.97867 1.49403   1
   4   3  -6 7.77986 1.42358   6
  -4   3   6 7.17444 2.38369   8
  -4   3   6 5.91224 2.30693   7
   3  -3  -6 1303.83 119.553  10
   3  -3  -6 1309.48 110.129   2
  -3  -3   6 1197.50 109.998   2
  -3  -3   6 1375.15 108.065   7
   3  -3  -6 1312.16 118.934  10
   3  -3  -6 1222.25 111.439   9
   3  -3  -6 1242.71 116.800   4
  -3  -3   6 1037.00 106.529   8
   3  -3  -6 1367.08 111.684   9
   3  -3  -6 1234.42 108.400   1
  -3   3   6 1169.08 108.448   7
  -3   3   6 1082.29 107.341   8
  -3   3   6 1307.89 112.764   9
   3   3  -6 1133.24 110.174   6
   3   3  -6 1149.77 107.194   1
  -3   3   6 1098.22 107.291   5
   2  -3  -6 317.188 27.2414   2
  -2  -3   6 314.820 27.6638   2
  -2  -3   6 301.582 26.7077   7
   2  -3  -6 312.965 27.3421   9
   2  -3  -6 317.214 27.9366   9
   2  -3  -6 292.537 29.2692  10
  -2  -3   6 286.305 26.2626   8
   2  -3  -6 334.790 28.6190   6
   2  -3  -6 271.592 29.9756   4
  -2  -3   6 297.163 26.2723   8
   2   3  -6 270.793 26.5267   1
  -2   3   6 307.292 26.9854   7
  -2   3   6 328.608 30.8735  10
  -2   3   6 280.436 26.5813   5
  -2   3   6 251.609 28.3163   9
  -2   3   6 317.636 29.9587  10
   2   3  -6 264.024 27.1993   6
  -2   3   6 250.496 26.9456   8
   1  -3  -6 934.356 86.9868   6
   1  -3  -6 1031.77 85.3842   2
   1  -3  -6 947.292 86.5560   9
   1  -3  -6 1000.23 92.2978  10
  -1  -3   6 933.999 83.8292   7
   1   3  -6 931.176 85.7655   6
  -1   3   6 835.727 83.1800   1
  -1   3   6 931.412 83.9247   7
  -1   3   6 978.109 92.4239  10
   1   3  -6 947.212 83.8248   7
  -1   3   6 890.492 83.0405   5
  -1   3   6 953.158 93.7930  10
  -1   3   6 953.796 87.8805   9
   1   3  -6 939.934 83.4984   1
   0  -3  -6 9.96064 3.03071   6
   0  -3  -6 9.34441 3.15585   9
   0  -3  -6 10.1444 1.77105   9
   0  -3  -6 18.1737 2.49634   2
   0  -3   6 8.94023 2.20777   2
   0  -3  -6 12.0201 3.06875  10
   0  -3   6 6.83664 2.06319   9
   0  -3   6 13.4183 2.41741   7
   0  -3  -6 12.1118 2.35347  10
   0  -3  -6 17.1928 4.05179   9
   0  -3  -6 10.7674 3.47099   1
   0  -3  -6 8.57997 3.05653   4
   0   3   6 8.96033 1.80345   9
   0   3  -6 12.9005 2.63349   7
   0   3   6 11.6966 2.07733   5
   0   3   6 7.61260 3.09086   9
   0   3   6 18.2157 2.87506  10
   0   3   6 2.48867 2.21143  10
   0   3  -6 8.50400 1.85545  10
   0   3   6 12.0128 2.07526   1
   0   3  -6 11.0360 2.79465   1
   0   3   6 12.1937 2.26764  10
   0   3   6 10.8362 2.13852   7
   0   3  -6 9.63403 2.55448   6
   0   3   6 9.28499 2.58526   2
   0   3  -6 10.0741 2.37896  10
   1  -3   6 1381.24 122.350   7
   1  -3   6 1293.64 127.197   9
  -1  -3  -6 1503.50 122.489   1
   1  -3   6 1270.48 134.476  10
   1  -3   6 1500.39 124.588   2
  -1  -3  -6 1446.09 125.801   6
  -1  -3  -6 1473.18 126.375   9
  -1  -3  -6 1469.56 134.579  10
  -1  -3  -6 1618.64 135.937  10
  -1   3  -6 1372.38 126.079   9
   1   3   6 1479.70 124.725   2
   1   3   6 1586.54 126.295   9
   1   3   6 1256.63 135.681  10
  -1   3  -6 1281.88 126.296   9
  -1   3  -6 1301.26 125.361   6
   1   3   6 1286.25 127.498   9
   1   3   6 1331.23 120.981   5
  -1   3  -6 1149.02 122.279   7
   1   3   6 1267.32 122.086   7
   1   3   6 1355.16 134.547  10
   1   3   6 1438.90 121.347   1
  -1   3  -6 1510.02 122.394   1
  -1   3  -6 1175.27 134.266  10
  -2  -3  -6 458.365 45.7706  10
  -2  -3  -6 430.963 43.1901   6
  -2  -3  -6 428.617 42.8636   9
  -2  -3  -6 379.148 46.3578  10
  -2  -3  -6 526.907 42.5307   2
  -2  -3  -6 544.698 46.2370   4
   2  -3   6 430.866 41.7344   7
   2  -3   6 439.208 45.8030  10
   2  -3   6 494.543 41.4134   1
   2  -3   6 527.479 44.6802   9
   2  -3   6 538.877 42.5632   2
  -2   3  -6 488.168 42.8042   9
  -2   3  -6 381.675 41.8326   7
  -2   3  -6 440.243 46.1722  10
   2   3   6 473.563 45.6813  10
  -2   3  -6 488.180 42.4662   2
  -2   3  -6 496.583 43.4588   6
  -2   3  -6 484.610 42.4183   1
   2   3   6 438.944 41.3112   1
   2   3   6 435.993 41.1007   5
   2   3   6 494.538 42.7636   9
   2   3   6 492.575 45.7514  10
   2   3   6 482.399 47.2138  10
   2   3   6 380.261 42.4084   2
   2   3   6 447.892 41.4827   7
   3  -3   6 686.732 59.0226   7
   3  -3   6 702.015 62.3598   9
  -3  -3  -6 608.342 63.8122   4
  -3  -3  -6 680.899 57.9791   8
   3  -3   6 664.104 59.8818   2
   3  -3   6 701.245 58.5504   1
  -3  -3  -6 627.749 59.3130   7
  -3  -3  -6 612.216 60.6988   9
   3   3   6 721.045 58.5447   1
  -3   3  -6 601.020 60.7632   6
   3   3   6 706.484 61.8360   9
   3   3   6 703.651 60.1521   2
  -3   3  -6 664.316 64.6012  10
   3   3   6 658.450 60.4389   9
  -3   3  -6 598.864 59.1311   1
   3   3   6 618.786 58.0415   5
  -3   3  -6 605.462 65.3884  10
   3   3   6 709.739 64.5992  10
   3   3   6 651.320 65.9871  10
  -3   3  -6 621.753 60.5551   9
   4  -3   6 52.3891 7.38030   9
  -4  -3  -6 37.9164 7.10163   4
   4  -3   6 49.2834 5.82678   7
   4  -3   6 51.1088 5.67775   2
  -4  -3  -6 49.9437 5.28845   8
   4  -3   6 51.3516 5.80553   1
  -4  -3  -6 43.2202 6.04254   7
   4  -3   6 59.0704 5.80004   5
  -4   3  -6 44.0416 6.24567   5
   4   3   6 50.8406 5.81958  10
   4   3   6 69.8783 8.40045  10
   4   3   6 48.7988 6.29624   9
   4   3   6 47.0222 5.23208   5
   4   3   6 54.2518 5.33640   9
   4   3   6 58.2520 5.48708   7
   4   3   6 49.5714 5.95767   2
  -4   3  -6 46.8729 6.85506   1
  -4   3  -6 46.9577 6.49120   7
  -4   3  -6 52.2689 5.57349   9
  -4   3  -6 51.2596 6.78201   6
   4   3   6 55.4496 5.77671   1
   5  -3   6 828.021 77.6755   9
   5  -3   6 941.788 74.2745   7
   5  -3   6 897.049 73.3940   5
  -5  -3  -6 745.015 80.1389   4
  -5  -3  -6 908.432 74.5955   7
  -5  -3  -6 873.244 72.9966   8
   5  -3   6 788.322 73.6582   1
  -5   3  -6 837.841 76.4235   9
   5   3   6 768.319 72.8887   5
  -5   3  -6 692.399 73.8825   5
  -5   3  -6 824.975 74.2937   1
   5   3   6 907.567 73.6770   1
   5   3   6 811.039 81.0627  10
   5   3   6 715.059 73.6154   7
   5   3   6 937.866 82.5300  10
  -6  -3  -6 426.619 35.4083   7
  -6  -3  -6 381.029 34.0708   8
  -6  -3  -6 411.590 38.7446   4
   6  -3   6 371.846 34.2559   5
   6  -3   6 356.596 36.5431   9
   6  -3   6 413.354 34.7960   7
   6   3   6 399.860 37.5320  10
   6   3   6 435.574 38.5672  10
   6   3   6 354.215 33.8102   5
  -6   3  -6 327.645 35.0711   1
  -6   3  -6 322.062 34.9482   5
   6   3   6 391.365 34.4976   1
   7  -3   6 291.038 25.2075   9
   7  -3   6 223.028 23.7211   7
  -7  -3  -6 304.828 24.5988   7
  -7  -3  -6 265.854 23.3269   8
  -7  -3  -6 254.850 27.0437   4
   7  -3   6 246.376 23.4252   5
   7  -3   6 244.716 23.8791   1
  -7   3  -6 207.297 24.0777   5
   7   3   6 252.743 23.7158   1
   7   3   6 285.126 22.9435   5
  -8  -3  -6 66.2733 7.61590   7
   8  -3   6 61.7941 6.87075  10
   8  -3   6 53.2309 6.97230   1
  -8  -3  -6 68.6196 6.53162   8
  -8  -3  -6 60.8026 9.43863   4
   8  -3   6 63.1924 6.53307   9
   8  -3   6 59.4683 6.40232   5
   8  -3   6 57.9692 6.62482   7
  -8   3  -6 50.0454 7.26575   7
  -8   3  -6 43.7830 7.31520   5
   8   3   6 69.2248 7.02704   1
   9  -3   6 284.382 28.4775   1
   9  -3   6 293.995 30.5789  10
  -9  -3  -6 314.505 27.8537   8
   9  -3   6 284.379 27.6344   5
  -9  -3  -6 324.035 32.2097   4
   9   3   6 364.742 28.4536   1
 -10  -3  -6 205.286 18.2660   8
 -10  -3  -6 175.982 21.4204   4
  10  -3   6 174.599 18.8329   1
  10  -3   6 202.873 17.9334   5
  10   3   6 186.076 18.5164   1
  10   3   6 223.414 18.6450   1
 -11  -3  -6 76.4767 11.1427   4
 -11  -3  -6 83.8965 8.61167   8
  11  -3   6 87.1346 9.48068   1
  11   3   6 82.4567 8.84332   1
  12  -3   6 27.6221 4.60210   1
 -12  -3  -6 27.8840 6.28237   4
  12   3   6 39.3244 4.75503   1
 -12   3  -6 18.8332 4.30210   7
  12  -4  -6 10.4166 3.59846   1
  11  -4  -6 36.8527 6.37626   1
  10  -4  -6 327.307 30.9322   6
  10  -4  -6 255.293 29.6612   1
 -10   4   6 360.869 30.1215   8
   9  -4  -6 61.4581 9.84126   6
   9  -4  -6 60.5757 9.73357   1
  -9   4   6 55.4996 8.65127   7
  -9   4   6 76.0912 8.21789   8
   8  -4  -6 161.074 17.8100   6
   8  -4  -6 149.836 17.1536   1
  -8   4   6 149.884 15.9841   7
  -8   4   6 157.194 15.4145   8
   7  -4  -6 23.6717 5.58982   1
   7  -4  -6 16.6258 5.50529   6
  -7   4   6 14.2507 3.45017   8
  -7   4   6 16.4011 4.05285   7
   6  -4  -6 1218.35 125.636   1
   6  -4  -6 1462.56 135.219   4
   6  -4  -6 1422.77 137.309  10
   6  -4  -6 1448.34 129.739   6
   6  -4  -6 1484.52 137.221  10
  -6   4   6 1424.28 124.237   8
   5  -4  -6 57.5814 9.22036   4
   5  -4  -6 73.1234 8.80129   6
   5  -4  -6 62.3381 7.27272   7
   5  -4  -6 65.3005 8.43518   1
   5  -4  -6 53.6559 6.74166  10
   5  -4  -6 69.2047 6.67693  10
   5   4  -6 54.8530 5.87928   6
  -5   4   6 60.5509 7.00348   8
  -5   4   6 59.2362 7.37403   7
  -4  -4   6 770.291 68.7310   8
   4  -4  -6 726.182 76.3083   4
   4  -4  -6 810.456 72.6554   6
   4  -4  -6 787.927 71.9446   9
  -4  -4   6 702.898 68.7065   8
   4  -4  -6 748.140 76.9015  10
   4  -4  -6 839.443 77.4097  10
   4  -4  -6 895.815 70.9414   1
  -4   4   6 755.173 69.6796   8
   4   4  -6 787.055 71.1949   6
  -4   4   6 766.754 70.5707   7
  -4   4   6 764.165 69.8595   5
   4   4  -6 893.024 69.5158   1
  -3  -4   6 8.75171 1.90048   8
   3  -4  -6 3.90968 2.37339   1
   3  -4  -6 8.58780 2.58816   2
  -3  -4   6 8.35154 1.60129   8
   3  -4  -6 5.36649 2.70824  10
   3  -4  -6 6.85712 1.51307   9
   3  -4  -6 6.20366 3.36250   4
   3  -4  -6 7.99539 1.99216  10
  -3  -4   6 5.74627 1.78840   2
   3  -4  -6 3.63365 2.06735   6
  -3   4   6 7.52340 2.38561   5
   3   4  -6 3.04346 1.75345   6
  -3   4   6 6.35316 2.30820   7
   3   4  -6 7.50190 2.36423   1
  -3   4   6 6.69510 2.13058   1
  -3   4   6 3.27356 2.27303   8
   2  -4  -6 2791.65 268.099   4
  -2  -4   6 2944.99 249.974   7
   2  -4  -6 3265.57 276.717  10
   2  -4  -6 2670.69 275.205  10
   2  -4  -6 2885.05 254.796   2
   2  -4  -6 3126.90 258.476   9
   2  -4  -6 2530.19 248.584   1
  -2   4   6 2866.77 250.164   7
   2   4  -6 2705.81 248.431   1
   2   4  -6 2506.40 255.151   6
  -2   4   6 2668.17 247.708   5
  -2   4   6 2973.23 259.393   9
  -2   4   6 2915.91 248.420   1
  -1  -4   6 19.2422 3.30510   7
   1  -4  -6 21.3551 3.61347   2
   1  -4  -6 16.1567 4.53035  10
  -1  -4   6 24.5746 4.12268   2
   1  -4  -6 13.9421 4.48275   4
   1  -4  -6 19.2585 2.85926   9
   1  -4  -6 15.8733 3.40328   6
   1  -4  -6 15.6201 3.26032   1
   1  -4  -6 23.7011 3.79572  10
   1   4  -6 20.1202 3.49678   6
  -1   4   6 22.6045 3.45857   7
   1   4  -6 23.0344 2.97552   7
  -1   4   6 19.4407 4.17974   9
  -1   4   6 22.1725 3.43677   1
  -1   4   6 21.6650 3.23849   5
   1   4  -6 16.6586 2.71716   3
   1   4  -6 24.2877 3.83023   1
   0  -4   6 1565.82 125.696   7
   0  -4  -6 1540.25 125.201   1
   0  -4   6 1363.93 128.051   2
   0  -4  -6 1243.57 128.524   6
   0  -4  -6 1554.22 138.928  10
   0  -4  -6 1277.53 134.302   4
   0   4   6 1434.76 124.872   1
   0   4  -6 1322.09 124.960   1
   0   4  -6 1318.28 125.243   7
   0   4  -6 1246.27 145.484   3
   0   4   6 1406.27 130.667   9
   0   4  -6 1631.75 137.888  10
   0   4   6 1447.57 139.536  10
   0   4  -6 1295.89 137.580  10
   0   4   6 1392.18 138.242  10
   0   4  -6 1544.31 128.541   6
   0   4   6 1523.44 125.670   7
  -1  -4  -6 86.5012 8.35291   9
  -1  -4  -6 84.3227 9.17351   4
  -1  -4  -6 77.7187 8.89044   1
   1  -4   6 69.9314 8.35385   2
   1  -4   6 76.4693 8.25757   7
   1   4   6 73.9814 8.82257  10
  -1   4  -6 89.6059 8.68021   1
  -1   4  -6 81.7983 7.76516   9
  -1   4  -6 74.5657 8.71352   6
   1   4   6 85.2189 8.24172   7
  -1   4  -6 62.9683 7.97646   7
  -1   4  -6 83.1179 9.39959   3
   1   4   6 96.7703 9.70092   9
  -1   4  -6 82.0772 8.85837  10
  -1   4  -6 80.8979 7.92819   9
  -1   4  -6 77.5814 8.58086  10
   1   4   6 72.6589 7.97896   5
   1   4   6 74.5807 8.76956   2
   1   4   6 74.4813 10.0764  10
   1   4   6 82.9757 8.27616   1
   2  -4   6 3135.13 257.630   2
  -2  -4  -6 2792.47 270.082   4
   2  -4   6 2733.54 262.412   9
  -2  -4  -6 2726.35 251.377   1
  -2  -4  -6 2837.18 249.839   8
   2  -4   6 3258.82 251.273   1
   2  -4   6 2724.65 252.738   7
  -2  -4  -6 3044.52 261.484   9
   2   4   6 2573.43 250.196   5
   2   4   6 2410.70 257.509   2
   2   4   6 2722.08 252.536   7
   2   4   6 3217.50 262.453   9
  -2   4  -6 2716.25 278.103  10
  -2   4  -6 2872.68 278.557  10
  -2   4  -6 3114.30 258.550   6
  -2   4  -6 3080.92 251.548   1
   2   4   6 3004.63 278.246  10
   2   4   6 2538.56 279.122  10
   2   4   6 2925.57 251.023   1
   3  -4   6 2.48893 2.18336   9
   3  -4   6 -1.2005 1.32878   7
   3  -4   6 0.64484 1.66785   1
   3  -4   6 2.67517 1.87927   2
  -3  -4  -6 1.02926 1.83807   1
  -3  -4  -6 2.46344 1.25889   8
  -3  -4  -6 1.42321 2.20646   4
   3   4   6 2.50591 1.51743   1
   3   4   6 1.10074 1.43245   7
  -3   4  -6 2.16675 1.94985   7
  -3   4  -6 1.43219 2.08724   1
  -3   4  -6 2.43397 2.50850  10
  -3   4  -6 0.06819 1.07647   9
   3   4   6 1.33178 1.34449   5
   3   4   6 2.98340 1.46640  10
   3   4   6 3.07451 2.28766   9
   3   4   6 2.27676 2.85140  10
  -3   4  -6 -1.1289 1.50871   5
   3   4   6 1.33334 1.92081   2
  -3   4  -6 -0.4605 1.63767   6
  -4  -4  -6 1140.74 104.192   8
   4  -4   6 1063.81 105.014   1
  -4  -4  -6 1079.71 113.241   4
   4  -4   6 1080.00 105.620   7
   4  -4   6 1392.61 110.140   9
   4   4   6 1054.59 104.806   1
   4   4   6 1273.84 104.249   5
  -4   4  -6 1108.62 108.920   9
   4   4   6 1239.52 108.818   9
   4   4   6 1340.92 115.903  10
   4   4   6 1302.45 108.626   9
  -4   4  -6 1300.50 108.310   6
  -4   4  -6 1175.34 105.306   1
  -4   4  -6 1004.09 104.840   5
   4   4   6 1184.34 105.248   7
   4   4   6 1276.97 117.061  10
   5  -4   6 78.9170 8.71478   1
  -5  -4  -6 94.2704 9.04867   7
   5  -4   6 66.2482 8.33816   7
  -5  -4  -6 87.4752 8.00337   8
   5  -4   6 76.5251 9.07102   9
  -5  -4  -6 76.5980 9.82629   4
   5   4   6 77.0552 8.43216  10
   5   4   6 85.4533 9.55717  10
  -5   4  -6 84.3096 8.97006   1
  -5   4  -6 77.4679 8.27176   9
  -5   4  -6 86.5786 9.04788   7
   5   4   6 71.9256 7.82099   7
   5   4   6 82.0864 7.73179   5
  -5   4  -6 83.0513 8.89688   5
   5   4   6 74.4622 8.37649   1
  -6  -4  -6 1598.28 151.297   4
   6  -4   6 1374.14 140.074   1
  -6  -4  -6 1555.09 139.008   8
   6  -4   6 1607.82 139.508   5
   6  -4   6 1361.64 146.162   9
   6  -4   6 1815.24 141.050   7
  -6   4  -6 1447.96 141.183   7
  -6   4  -6 1600.26 140.080   5
  -6   4  -6 1509.41 140.263   1
   6   4   6 1628.98 154.189  10
   6   4   6 1796.18 138.981   5
   6   4   6 1737.69 154.404  10
   7  -4   6 2.65802 2.30149   1
  -7  -4  -6 3.79754 3.15673   4
  -7  -4  -6 3.00788 1.54943   8
   7  -4   6 1.48113 2.32541   9
   7  -4   6 0.95233 1.56835   5
  -7  -4  -6 2.86638 2.22430   7
   7  -4   6 4.47498 2.09683   7
  -7   4  -6 3.13692 2.50960   5
   7   4   6 1.33394 1.86450   1
  -7   4  -6 1.01761 2.13972   7
  -7   4  -6 -2.0162 2.30907   1
   8  -4   6 467.514 44.7723   1
  -8  -4  -6 455.640 48.9146   4
   8  -4   6 473.346 44.0506   5
  -8  -4  -6 546.215 45.1311   7
   8  -4   6 452.464 44.6098   7
  -8  -4  -6 555.424 44.0112   8
   8   4   6 485.701 44.4749   1
  -8   4  -6 481.696 44.8534   5
  -8   4  -6 519.962 45.3297   7
   9  -4   6 18.3760 3.85231   1
   9  -4   6 15.1574 2.79556   5
  -9  -4  -6 16.2734 4.84012   4
   9  -4   6 16.7802 3.11414   7
  -9  -4  -6 16.1738 2.96665   8
  -9   4  -6 10.0428 3.20390   7
   9   4   6 16.2372 3.35426   1
  -9   4  -6 13.9310 3.62528   5
  10  -4   6 530.564 49.6680   5
 -10  -4  -6 535.876 55.4794   4
 -10  -4  -6 622.418 50.0513   8
  10  -4   6 551.769 50.7785   1
  10   4   6 595.821 50.4169   1
 -10   4  -6 525.864 51.0638   7
  11  -4   6 8.92038 3.36631   1
 -11  -4  -6 17.6407 5.01601   4
  11  -4   6 18.1091 2.66697   5
 -11  -4  -6 21.5816 3.39298   8
  11   4   6 15.2918 3.24490   1
  11   4   6 16.2202 3.40069   1
 -11   4  -6 13.9757 3.41643   7
 -12  -4  -6 127.668 15.7169   4
  12  -4   6 132.461 13.8623   1
 -12   4  -6 121.728 13.8343   7
  12   4   6 154.516 13.4461   1
  11  -5  -6 103.300 12.0300   1
  10  -5  -6 17.9034 5.11582   1
  10  -5  -6 16.7960 4.84899   6
 -10   5   6 19.0475 4.74402   7
   9  -5  -6 26.7283 6.44506   6
   9  -5  -6 31.2407 6.58462   1
  -9   5   6 27.8260 5.52306   7
   8  -5  -6 82.8978 11.5403   1
   8  -5  -6 106.699 12.4611   6
  -8   5   6 82.1337 10.3114   7
   7  -5  -6 585.039 60.0064  10
   7  -5  -6 581.577 56.7109   1
   7  -5  -6 631.726 60.1273  10
   7  -5  -6 676.260 58.9209   6
   6  -5  -6 70.1712 9.53330   4
   6  -5  -6 56.8083 7.01176  10
   6  -5  -6 64.8881 7.28209   7
   6  -5  -6 59.2929 6.82317  10
   6  -5  -6 54.8750 8.77863   1
   6  -5  -6 59.5527 9.44020   6
  -6   5   6 59.9227 7.98870   7
   6   5  -6 70.6329 6.30137   6
   5  -5  -6 104.619 11.7930   4
   5  -5  -6 76.1435 10.1358   1
   5  -5  -6 86.0107 9.67272  10
   5  -5  -6 106.572 10.2058   7
   5  -5  -6 85.3450 8.36345   9
  -5  -5   6 75.7477 7.80315   8
   5  -5  -6 109.732 11.0807   6
  -5   5   6 86.7681 9.96904   7
   5   5  -6 102.052 8.33117   6
  -5   5   6 68.3367 9.42222   5
   4  -5  -6 41.5142 6.07067   6
   4  -5  -6 43.4524 4.71456   9
   4  -5  -6 47.0663 6.43635   1
  -4  -5   6 42.3147 4.44217   8
   4  -5  -6 39.7732 6.06817  10
   4  -5  -6 50.7234 8.09510   4
  -4   5   6 46.9081 5.77306   1
   4   5  -6 48.0493 4.60560   6
   4   5  -6 43.6401 4.51494   1
  -4   5   6 38.8883 6.07860   7
  -4   5   6 43.3989 5.86917   5
   3  -5  -6 969.224 80.5304   9
   3  -5  -6 978.575 80.2570   6
   3  -5  -6 765.275 84.4002   4
  -3  -5   6 763.286 76.8494   8
  -3   5   6 755.708 78.4261   7
   3   5  -6 929.761 79.2925   6
  -3   5   6 860.028 77.6929   5
   3   5  -6 942.919 77.1938   1
  -3   5   6 906.146 77.9845   1
   2  -5  -6 153.829 15.6038   1
   2  -5  -6 142.547 15.8664   6
  -2  -5   6 175.528 15.8866   7
   2  -5  -6 208.650 17.0119   2
   2  -5  -6 175.304 15.8562   9
   2  -5  -6 122.203 17.4997   4
  -2   5   6 162.230 15.7931   1
   2   5  -6 148.869 15.4665   6
   2   5  -6 193.150 15.3228   1
  -2   5   6 141.333 15.5377   5
  -2   5   6 183.998 16.0978   7
   1  -5  -6 319.747 29.4526   9
   1  -5  -6 324.273 29.2041   6
  -1  -5   6 375.977 29.1528   7
   1  -5  -6 297.473 28.3342   1
   1  -5  -6 254.398 30.7972   4
  -1   5   6 361.918 30.2236   9
  -1   5   6 313.076 28.8301   7
  -1   5   6 267.700 28.4727   1
   1   5  -6 348.130 28.3082   1
   1   5  -6 276.526 28.8551   6
  -1   5   6 305.152 28.4333   5
   0  -5  -6 2.04277 1.63205   9
   0  -5  -6 3.01079 1.70057   1
   0  -5   6 2.73070 2.22762   2
   0  -5  -6 0.19741 1.83883   4
   0  -5   6 3.49990 2.14194   7
   0   5  -6 4.77180 1.98235   1
   0   5  -6 2.12781 0.89637  10
   0   5   6 5.79118 2.63499   9
   0   5  -6 1.94230 1.17183   3
   0   5  -6 2.64921 1.28834   7
   0   5  -6 1.80543 1.12247  10
   0   5   6 1.15857 1.69948   1
   0   5   6 4.31384 1.93715   5
   0   5   6 3.07593 1.86045   7
   0   5  -6 3.51051 1.67315   6
  -1  -5  -6 621.886 53.6863   1
  -1  -5  -6 608.856 55.8017   9
  -1  -5  -6 641.153 57.7480   4
   1  -5   6 657.408 54.3044   7
   1  -5   6 523.399 55.0903   2
  -1   5  -6 661.018 55.1188   6
   1   5   6 544.483 53.3030   5
  -1   5  -6 550.603 53.4930   1
  -1   5  -6 537.689 58.9113  10
   1   5   6 594.601 56.0350   9
  -1   5  -6 588.714 58.7812  10
  -1   5  -6 599.548 53.6851   7
  -1   5  -6 558.732 54.9534   9
   1   5   6 667.388 59.2603  10
  -1   5  -6 597.780 55.0258   9
   1   5   6 607.774 53.9337   1
   1   5   6 668.227 54.0494   7
   2  -5   6 291.237 30.9460   7
   2  -5   6 383.790 31.0769   1
  -2  -5  -6 329.844 32.9551   4
  -2  -5  -6 322.696 30.6077   1
  -2   5  -6 300.932 35.6463   3
   2   5   6 329.072 30.8165   7
   2   5   6 348.261 31.9839   9
   2   5   6 379.884 34.8297  10
   2   5   6 336.729 30.4952   5
  -2   5  -6 337.791 31.3751   9
  -2   5  -6 344.325 33.6230  10
  -2   5  -6 334.934 31.5364   6
  -2   5  -6 365.610 30.8697   1
  -2   5  -6 347.528 30.9276   7
  -2   5  -6 332.365 33.9690  10
  -3  -5  -6 334.096 33.2952   4
  -3  -5  -6 320.362 30.5418   8
   3  -5   6 339.112 31.2698   7
   3  -5   6 307.325 30.9980   1
   3   5   6 333.966 33.7653  10
   3   5   6 339.919 32.0035   9
  -3   5  -6 338.077 30.9889   1
   3   5   6 374.444 35.0717  10
   3   5   6 330.939 30.8581   7
   3   5   6 305.442 30.4459   5
  -3   5  -6 398.350 35.2819  10
  -3   5  -6 376.373 31.0675   5
  -3   5  -6 325.685 31.7129   6
   3   5   6 366.364 31.0225   1
  -3   5  -6 315.718 31.6267   9
  -3   5  -6 358.436 36.2113   3
  -4  -5  -6 21.9592 4.16091   4
  -4  -5  -6 15.1277 2.78018   8
   4  -5   6 13.1223 3.14082   7
   4  -5   6 20.2552 3.73406   9
   4  -5   6 16.6904 3.54302   1
   4   5   6 22.0104 3.26777  10
  -4   5  -6 21.4980 3.76557   7
  -4   5  -6 17.1273 3.97601   3
   4   5   6 19.2412 3.76940  10
   4   5   6 17.4204 2.83420   5
   4   5   6 18.9116 2.92709   7
  -4   5  -6 18.9508 3.61529   5
   4   5   6 16.7934 3.24922   1
  -4   5  -6 18.2158 3.39270   6
  -4   5  -6 15.6549 3.37267   1
  -4   5  -6 16.6747 2.69423   9
  -5  -5  -6 259.125 22.8958   8
  -5  -5  -6 229.644 25.3119   4
   5  -5   6 245.939 24.3855   9
   5  -5   6 259.196 23.7242   1
   5  -5   6 220.597 23.4885   7
   5   5   6 245.570 25.3633  10
  -5   5  -6 254.314 27.5130   3
   5   5   6 272.911 22.8029   5
   5   5   6 270.858 25.1722  10
   5   5   6 287.333 23.5561   1
  -5   5  -6 247.339 23.5150   5
  -5   5  -6 238.879 23.3682   1
  -5   5  -6 229.974 23.6794   9
  -5   5  -6 250.638 23.7974   7
  -6  -5  -6 362.771 37.8069   4
   6  -5   6 336.194 34.8897   7
   6  -5   6 376.092 36.3066   9
  -6  -5  -6 334.501 34.1421   8
   6  -5   6 401.385 35.2840   1
  -6   5  -6 372.927 35.7608   9
   6   5   6 381.346 34.7927   1
  -6   5  -6 371.775 40.9499   3
  -6   5  -6 457.068 35.3151   5
  -6   5  -6 415.509 35.0454   1
  -6   5  -6 414.448 35.4317   7
   7  -5   6 117.177 12.0805   9
   7  -5   6 113.641 11.7472   1
   7  -5   6 98.1403 10.8500   5
   7  -5   6 111.073 11.2685   7
  -7  -5  -6 100.988 10.6198   8
  -7  -5  -6 98.8381 12.6559   4
   7   5   6 129.459 11.5377   1
  -7   5  -6 101.789 11.5024   1
  -7   5  -6 109.171 13.5919   3
  -7   5  -6 105.440 11.5859   7
  -7   5  -6 129.672 11.8429   5
   8  -5   6 4.64561 2.03809   5
   8  -5   6 5.74744 2.43588   7
  -8  -5  -6 7.67535 3.59369   4
   8  -5   6 4.14039 2.55213   1
  -8  -5  -6 6.43735 2.09409   8
  -8   5  -6 2.69245 2.39796   5
  -8   5  -6 2.21393 2.22611   7
  -8   5  -6 9.06021 3.81251   3
   8   5   6 3.72266 2.39048   1
   9  -5   6 104.118 11.6092   1
  -9  -5  -6 119.935 10.7779   8
  -9  -5  -6 108.816 13.1018   4
   9  -5   6 90.9365 10.5694   5
   9  -5   6 96.4402 10.9587   7
  -9   5  -6 123.810 14.2644   3
  -9   5  -6 122.394 11.7641   7
  -9   5  -6 118.038 11.6561   5
   9   5   6 100.651 11.0815   1
 -10  -5  -6 253.310 19.6344   8
  10  -5   6 215.037 20.3255   1
  10  -5   6 198.839 19.1400   5
 -10  -5  -6 190.650 22.1073   4
 -10   5  -6 177.828 20.0294   5
 -10   5  -6 207.770 20.2053   7
  10   5   6 206.183 19.7375   1
 -11  -5  -6 5.96899 3.38987   4
  11  -5   6 5.40783 1.99120   5
  11  -5   6 5.05549 3.20124   1
 -11  -5  -6 9.04279 2.46774   8
  11   5   6 4.00994 2.48244   1
  11   5   6 4.50901 2.28002   1
 -11   5  -6 4.18451 2.49950   7
  11  -6  -6 1.99879 3.19322   1
 -11   6   6 5.12518 3.40356   7
  10  -6  -6 646.380 58.2068   1
 -10   6   6 616.593 57.9680   7
   9  -6  -6 42.8860 8.26055   6
   9  -6  -6 56.9265 8.83589   1
  -9   6   6 47.0117 7.25511   7
   8  -6  -6 -0.2265 3.48413   1
   8  -6  -6 12.4312 4.53852   6
  -8   6   6 6.33077 3.15775   7
   7  -6  -6 9.21548 3.99693   6
  -7  -6   6 4.71525 0.73890   8
   7  -6  -6 4.16472 3.47106   1
  -7   6   6 7.73878 3.09999   7
   6  -6  -6 1118.80 99.7528   9
   6  -6  -6 1199.80 105.460   4
   6  -6  -6 1191.41 106.849  10
   6  -6  -6 1068.75 97.6123   7
   6  -6  -6 1121.46 97.9974   1
  -6  -6   6 1003.86 95.2029   8
  -6   6   6 919.527 97.9730   7
  -6   6   6 1132.58 97.4354   5
   5  -6  -6 16.7591 3.91008   6
   5  -6  -6 20.7786 5.42653   4
   5  -6  -6 19.2348 2.59309   9
   5  -6  -6 22.3337 4.59029   7
   5  -6  -6 22.6094 4.51293   1
   5   6  -6 18.9044 2.64882   6
  -5   6   6 13.4558 3.68950   5
  -5   6   6 23.1867 4.69988   7
   4  -6  -6 9.14959 2.72433   6
   4  -6  -6 11.7689 3.03380   1
   4  -6  -6 12.4618 2.09205   9
   4  -6  -6 6.76536 3.73181   4
  -4   6   6 11.3198 3.41605   7
  -4   6   6 11.0551 3.17824   1
   4   6  -6 9.96930 1.69353   6
  -4   6   6 4.64635 2.69682   5
   3  -6  -6 63.4372 6.72746   9
   3  -6  -6 50.6825 6.88178   1
   3  -6  -6 49.5899 8.58200   4
   3  -6  -6 61.8307 7.11325   6
  -3   6   6 59.1540 7.48260   1
  -3   6   6 51.2912 7.42359   7
   3   6  -6 69.5262 6.13754   1
   3   6  -6 68.5463 6.22704   6
  -3   6   6 54.2008 7.27354   5
  -2  -6   6 1493.86 142.501   7
   2  -6  -6 1584.68 141.620   1
   2  -6  -6 1728.74 147.513   9
   2  -6  -6 1758.92 152.984   4
  -2   6   6 1514.78 141.511   5
   2   6  -6 1370.85 144.936   6
  -2   6   6 1678.75 143.089   7
  -2   6   6 1508.12 142.061   1
  -2   6   6 1799.33 147.643   9
   2   6  -6 1662.66 141.105   1
   1  -6  -6 8.76111 2.93223   4
   1  -6  -6 6.94005 2.47207   9
  -1  -6   6 8.07141 2.68664   7
   1  -6  -6 8.66756 2.09371   1
  -1   6   6 9.73774 2.63841   5
  -1   6   6 5.36996 2.58497   1
   1   6  -6 5.95646 1.78127   6
  -1   6   6 10.7782 2.95799   7
  -1   6   6 5.18000 2.09731   9
   1   6  -6 11.1194 2.06617   1
   0  -6  -6 35.4811 4.74861   9
   0  -6   6 41.3886 5.55271   7
   0  -6  -6 36.6766 4.24963   1
   0  -6  -6 31.6831 4.73442   4
   0   6  -6 26.3881 3.40993  10
   0   6   6 37.0863 4.69889   9
   0   6  -6 26.5754 3.86211   6
   0   6   6 28.4383 4.99981   1
   0   6   6 26.8161 4.63823   7
   0   6  -6 32.1905 3.98763   1
   0   6   6 25.5719 4.31377   5
   0   6  -6 32.4191 3.53097  10
  -1  -6  -6 100.948 9.08026   1
   1  -6   6 106.320 10.1671   7
  -1  -6  -6 93.9648 9.57550   4
   1  -6   6 75.3070 9.13052   8
  -1   6  -6 80.9141 9.28740  10
  -1   6  -6 76.8990 9.78966   3
  -1   6  -6 101.255 8.83496   7
  -1   6  -6 100.664 8.93896   1
   1   6   6 79.3663 9.94565  10
   1   6   6 78.9596 9.29596   7
   1   6   6 91.4787 9.63107   1
   1   6   6 84.4334 9.16144   5
   1   6   6 77.4005 9.04700   9
  -1   6  -6 88.0899 9.17154  10
  -1   6  -6 94.7979 9.12185   6
   2  -6   6 2194.65 169.954   7
  -2  -6  -6 1835.90 180.377   4
   2   6   6 2047.68 174.912   9
  -2   6  -6 1900.17 174.452   9
  -2   6  -6 1654.15 172.556   6
  -2   6  -6 1956.28 169.162   7
  -2   6  -6 1846.39 196.434   3
   2   6   6 1820.43 169.302   7
   2   6   6 1809.48 167.618   5
  -2   6  -6 1920.27 174.536   9
   2   6   6 1886.13 186.235  10
  -2   6  -6 2094.28 186.361  10
  -2   6  -6 1908.96 167.971   1
  -3  -6  -6 14.8492 3.12137   4
   3  -6   6 19.5822 3.86488   1
   3  -6   6 14.8077 3.47866   7
  -3   6  -6 17.3265 3.00335   1
  -3   6  -6 13.8878 2.94241   5
   3   6   6 12.4807 3.33804   1
  -3   6  -6 15.2761 2.96138   6
   3   6   6 19.8487 3.30795   5
   3   6   6 15.9332 3.22598  10
  -3   6  -6 20.9286 2.58564   9
  -3   6  -6 18.4647 3.27222   7
   3   6   6 11.8484 2.87275   7
  -3   6  -6 12.6811 3.22342   3
   3   6   6 22.0216 3.88701  10
   3   6   6 18.9438 2.71903   9
  -4  -6  -6 88.4871 10.0672   4
   4  -6   6 96.1271 10.0735   7
  -4  -6  -6 92.5489 9.36684   8
   4  -6   6 91.0272 9.96034   1
   4   6   6 96.1975 10.1207  10
  -4   6  -6 87.0671 9.74906   7
  -4   6  -6 83.0893 11.0748   3
   4   6   6 85.5134 9.69046   1
  -4   6  -6 81.9799 9.28795   9
  -4   6  -6 84.8084 9.34085   1
   4   6   6 102.287 10.2568  10
   4   6   6 110.019 9.55260   5
  -4   6  -6 96.8700 9.66195   5
   5  -6   6 64.1310 7.12038   9
   5  -6   6 39.0298 6.92441   7
  -5  -6  -6 65.0064 7.57339   4
  -5  -6  -6 62.7677 6.66475   8
   5  -6   6 55.5019 7.24165   1
  -5   6  -6 57.6882 6.82551   1
  -5   6  -6 57.1912 7.12024   7
   5   6   6 55.8360 7.03413   1
  -5   6  -6 54.9713 8.13842   3
   5   6   6 59.9051 6.54766  10
  -5   6  -6 69.9811 7.21468   5
  -5   6  -6 59.6467 6.55472   9
   5   6   6 62.0502 6.42486  10
  -6  -6  -6 1923.95 148.274   8
   6  -6   6 1688.03 155.188   9
   6  -6   6 1447.68 149.226   1
   6  -6   6 1769.31 150.280   7
  -6  -6  -6 1692.20 160.227   4
  -6   6  -6 1672.53 154.850   9
  -6   6  -6 1638.56 150.143   7
  -6   6  -6 1707.69 149.085   1
   6   6   6 1773.69 149.078   1
  -6   6  -6 1585.09 174.535   3
  -7  -6  -6 38.1023 6.00643   4
  -7  -6  -6 37.5919 4.66730   8
   7  -6   6 29.0217 5.32421   1
   7  -6   6 28.0808 4.73599   5
   7  -6   6 24.5477 4.70538   7
   7   6   6 39.0088 5.22162   1
  -7   6  -6 34.2472 5.23901   7
  -7   6  -6 30.0748 4.99573   1
  -7   6  -6 33.5759 6.19731   3
  -7   6  -6 45.5833 5.59549   5
   8  -6   6 71.6050 8.43111   5
  -8  -6  -6 90.4899 10.3205   4
  -8  -6  -6 81.2238 8.30904   8
   8  -6   6 76.2696 8.85583   7
   8  -6   6 75.7059 9.29422   1
   8   6   6 84.6654 9.03315   1
  -8   6  -6 81.2613 9.07539   7
  -8   6  -6 73.6516 10.7126   3
  -8   6  -6 88.4055 9.15691   5
  -9  -6  -6 47.8333 7.21269   4
   9  -6   6 43.4292 6.54129   1
  -9  -6  -6 35.8862 4.89621   8
   9  -6   6 39.3359 5.42060   7
   9  -6   6 30.5871 4.84996   5
   9   6   6 46.3357 5.86716   1
  -9   6  -6 42.4917 5.97287   5
  -9   6  -6 37.2037 5.73982   7
 -10  -6  -6 1056.87 91.0472   8
  10  -6   6 1056.27 92.2207   1
  10  -6   6 967.693 90.8674   5
 -10  -6  -6 1132.96 99.3342   4
 -10   6  -6 873.682 91.4741   5
  10   6   6 1119.99 91.7643   1
 -11  -6  -6 40.2451 6.74244   4
  11  -6   6 35.2782 5.91659   1
 -11  -6  -6 31.1806 4.74359   8
  11  -6   6 33.3735 4.47416   5
  11   6   6 45.1868 5.67038   1
  10  -7  -6 36.3015 6.91583   1
 -10  -7   6 37.6890 3.47769   8
 -10   7   6 29.7276 6.03243   7
   9  -7  -6 65.0592 8.92664   1
  -9  -7   6 50.1878 4.58825   8
   9  -7  -6 36.3454 7.43218   6
  -9   7   6 51.7890 7.59469   7
  -8  -7   6 79.8211 7.29563   8
   8  -7  -6 82.7714 10.5526   1
  -8   7   6 79.4408 9.96988   7
  -7  -7   6 27.1326 2.98456   8
   7  -7  -6 33.9039 6.17021   1
  -7   7   6 23.7430 5.11029   7
   6  -7  -6 40.5531 6.17865   1
   6  -7  -6 29.0480 5.20871   7
  -6  -7   6 34.5319 3.94013   8
   6  -7  -6 40.9142 6.88965   4
  -6   7   6 30.3991 5.85663   7
  -6   7   6 44.9816 6.93317   5
   5  -7  -6 58.4489 9.15060   4
   5  -7  -6 47.6806 7.09518   1
  -5  -7   6 48.9613 5.94046   8
   5  -7  -6 63.1718 7.90035   7
   5   7  -6 72.1625 6.15477   6
  -5   7   6 66.7355 8.18834   7
  -5   7   6 48.0163 7.62792   5
   4  -7  -6 220.772 21.9382   4
   4  -7  -6 168.698 19.1289   1
  -4  -7   6 206.175 18.5565   8
   4  -7  -6 229.671 19.4591   9
   4   7  -6 214.147 18.2501   1
   4   7  -6 207.086 18.7477   6
  -4   7   6 162.482 19.4135   5
  -4   7   6 189.849 20.0046   7
   3  -7  -6 18.3734 4.23009   4
   3  -7  -6 4.91261 2.12389   9
  -3  -7   6 4.95383 2.06983   8
   3  -7  -6 7.11268 2.40606   1
  -3   7   6 11.5973 3.72220   1
  -3   7   6 10.0258 3.10065   5
  -3   7   6 6.65834 2.93815   7
   3   7  -6 7.83357 1.67390   6
   3   7  -6 9.41009 1.73530   1
  -3   7   6 11.8608 2.56969   9
   2  -7  -6 45.9544 5.91831   9
  -2  -7   6 36.9592 5.27529   8
   2  -7  -6 42.6510 5.38701   1
   2  -7  -6 60.7619 6.80983   4
  -2   7   6 42.5137 6.24105   5
  -2   7   6 48.4312 6.55263   7
  -2   7   6 49.5098 6.91285   1
  -2   7   6 54.2848 5.52284   9
   2   7  -6 45.4619 4.82607   1
   2   7  -6 38.5777 4.79285   6
   1  -7  -6 116.590 11.6632   9
  -1  -7   6 97.8778 11.0378   7
   1  -7  -6 104.988 11.7750   4
  -1  -7   6 123.839 11.0519   8
   1  -7  -6 98.4543 10.5693   1
   1   7  -6 113.022 10.5184   6
   1   7  -6 105.703 10.2833   1
  -1   7   6 109.713 11.6138   7
  -1   7   6 109.192 11.3438   5
  -1   7   6 106.538 10.9619   9
  -1   7   6 107.015 11.7538   1
   0  -7  -6 306.261 29.4569   4
   0  -7   6 320.537 28.3095   7
   0  -7   6 310.732 27.6008   8
   0  -7  -6 295.450 27.3416   1
   0   7  -6 287.224 27.7922   6
   0   7  -6 306.879 29.3774  10
   0   7  -6 265.968 27.0544   1
   0   7   6 297.457 28.3370   9
   0   7   6 276.089 27.7557   5
   0   7   6 304.561 28.3109   7
   0   7  -6 299.837 29.4037  10
   0   7   6 370.079 28.7685   1
  -1  -7  -6 25.7685 3.80233   4
   1  -7   6 31.2261 4.91274   7
   1   7   6 21.1663 3.93587   5
   1   7   6 26.6999 3.45690   9
  -1   7  -6 21.5341 3.19093   6
  -1   7  -6 20.8326 3.22737   1
   1   7   6 21.6228 4.10242   7
  -1   7  -6 22.3176 2.96563  10
  -1   7  -6 20.3752 3.12755  10
   1   7   6 21.0613 4.28797   1
  -1   7  -6 25.4369 3.32059   7
  -2  -7  -6 50.2897 5.76681   4
   2  -7   6 52.8661 6.97415   7
  -2   7  -6 50.1167 5.62036   7
  -2   7  -6 44.6785 5.93275   3
  -2   7  -6 46.3222 5.39646   1
   2   7   6 50.6669 6.11387   5
  -2   7  -6 40.6314 4.77182   9
   2   7   6 50.1618 6.31483  10
   2   7   6 53.7982 5.45094   9
   2   7   6 45.4444 6.66019   1
   2   7   6 46.8208 6.21893   7
  -2   7  -6 44.9053 5.80984  10
  -2   7  -6 49.7708 5.47099   6
  -3  -7  -6 158.343 15.4557   4
   3  -7   6 165.202 15.7057   7
  -3   7  -6 141.681 14.5118   9
   3   7   6 140.739 15.9019  10
   3   7   6 172.561 14.9074   5
  -3   7  -6 140.979 14.3541   1
   3   7   6 149.984 15.1713   1
  -3   7  -6 129.721 16.5765   3
  -3   7  -6 146.148 14.4722   5
   3   7   6 161.217 14.9792   7
  -3   7  -6 138.297 14.4077   9
   3   7   6 168.912 15.8789  10
  -3   7  -6 169.258 14.8416   7
  -3   7  -6 162.544 14.8135   6
   4  -7   6 169.366 19.6004   1
  -4  -7  -6 206.525 20.5402   4
   4  -7   6 212.304 20.2513   7
   4   7   6 235.689 20.9237  10
  -4   7  -6 165.511 22.2739   3
  -4   7  -6 232.236 19.7908   7
   4   7   6 242.543 20.0913   1
  -4   7  -6 187.118 19.5320   9
  -4   7  -6 187.626 19.1712   1
  -4   7  -6 210.625 19.4149   5
   4   7   6 205.491 20.9975  10
   4   7   6 240.621 19.6646   5
   5  -7   6 64.3061 7.57849   1
   5  -7   6 56.3899 7.55457   7
  -5  -7  -6 64.1483 7.34045   4
  -5   7  -6 65.1830 7.28534   7
  -5   7  -6 59.9944 6.80017   1
  -5   7  -6 61.1041 8.23698   3
   5   7   6 52.5501 7.14388   1
  -5   7  -6 59.6191 7.05123   5
   6  -7   6 19.9623 4.36658   1
  -6  -7  -6 18.5573 3.46280   8
  -6  -7  -6 25.5214 4.16176   4
   6  -7   6 16.6610 4.02920   7
  -6   7  -6 29.1201 4.21327   5
  -6   7  -6 25.2556 3.84212   1
   6   7   6 19.6903 3.92903   1
  -6   7  -6 14.0206 3.49541   7
  -6   7  -6 20.8624 4.36031   3
  -7  -7  -6 91.8122 9.14199   8
  -7  -7  -6 81.4338 9.96560   4
   7  -7   6 80.6459 9.63890   7
   7  -7   6 80.6537 9.85321   1
  -7   7  -6 93.2403 9.44895   1
  -7   7  -6 75.5939 10.8113   3
  -7   7  -6 101.485 9.72548   7
   7   7   6 78.1144 9.28334   1
  -7   7  -6 94.0922 9.51861   5
   8  -7   6 46.2720 7.63045   1
   8  -7   6 55.6127 7.04643   5
  -8  -7  -6 72.6134 8.33655   4
   8  -7   6 65.6357 7.58389   7
  -8  -7  -6 61.2174 6.92592   8
  -8   7  -6 70.7100 7.65110   7
   8   7   6 52.0871 7.10240   1
  -8   7  -6 66.1782 7.48229   5
  -9  -7  -6 22.9680 3.87714   8
   9  -7   6 22.4064 4.21044   7
   9  -7   6 20.1278 4.58172   1
  -9  -7  -6 30.0876 5.26312   4
   9  -7   6 18.5960 3.65744   5
  -9   7  -6 29.6360 4.66488   7
  -9   7  -6 37.9799 5.24224   5
   9   7   6 25.9905 4.43227   1
  10  -7   6 3.84862 2.73906   1
 -10  -7  -6 5.33094 2.44050   8
  10  -7   6 4.98576 2.17724   5
 -10   7  -6 4.48424 2.49060   5
 -10   7  -6 4.77809 2.43930   7
  10   7   6 6.94092 2.74841   1
  -9  -8   6 2.24180 0.71974   8
   9  -8  -6 6.56818 3.76437   1
  -9   8   6 1.72807 2.62390   7
   8  -8  -6 1.43261 3.06908   1
  -8  -8   6 0.90858 0.64200   8
  -8   8   6 -2.1415 2.56080   7
   7  -8  -6 -0.4129 2.46404   1
  -7  -8   6 1.49278 0.81131   8
  -7   8   6 3.66866 3.28426   5
  -7   8   6 3.90779 3.04404   7
   6  -8  -6 470.170 42.8035   7
  -6  -8   6 447.321 40.8789   8
  -6   8   6 504.645 43.1505   5
  -6   8   6 448.749 43.2204   7
   5  -8  -6 0.12451 2.30759   7
  -5  -8   6 3.60600 1.17102   8
   5  -8  -6 1.69114 2.13003   1
   5  -8  -6 -2.4565 2.36492   4
  -5   8   6 1.44221 2.51749   7
  -5   8   6 2.61841 2.81975   5
  -4  -8   6 13.4321 2.21007   8
   4  -8  -6 10.2561 2.88472   1
   4  -8  -6 13.2160 3.75391   4
   4  -8  -6 10.2156 3.44330   7
   4   8  -6 12.4400 2.13586   6
  -4   8   6 13.2582 3.90970   7
  -4   8   6 13.6889 4.14789   1
   4   8  -6 14.4065 2.16122   1
  -4   8   6 9.25650 3.51085   5
   3  -8  -6 15.9305 3.81930   4
   3  -8  -6 12.8300 2.89685   1
  -3  -8   6 18.8242 2.70449   8
   3  -8  -6 17.0569 3.65732   9
  -3   8   6 13.8053 3.83605   5
   3   8  -6 15.2963 2.32798   6
  -3   8   6 14.6074 2.73370   9
  -3   8   6 16.7546 4.03797   7
  -3   8   6 14.8459 4.28225   1
   3   8  -6 14.3935 2.37089   1
   2  -8  -6 1201.71 94.3094   1
   2  -8  -6 1078.75 98.6986   9
   2  -8  -6 1128.89 101.441   4
  -2  -8   6 1074.86 93.6644   8
  -2   8   6 984.074 94.6849   5
   2   8  -6 947.358 96.3050   6
  -2   8   6 915.036 95.5142   7
  -2   8   6 1242.77 98.0144   9
  -2   8   6 1082.51 95.3802   1
   2   8  -6 1000.53 93.6949   1
   1  -8  -6 9.00453 2.21591   1
   1  -8  -6 9.12217 2.51676   4
  -1  -8   6 6.36177 2.21217   7
  -1  -8   6 8.68070 2.16062   8
  -1   8   6 13.3885 3.50269   7
  -1   8   6 4.51103 2.65905   5
  -1   8   6 8.99905 3.37806   1
   1   8  -6 8.46830 1.83571   1
  -1   8   6 7.85821 1.88637   9
   1   8  -6 7.26048 1.79280   6
   0  -8  -6 45.9475 5.30876   4
   0  -8   6 31.4178 5.24753   7
   0  -8   6 39.6857 4.75349   8
   0   8  -6 42.7049 4.46615   1
   0   8  -6 35.8970 4.49917   6
   0   8   6 28.7746 5.38141   5
   0   8   6 34.7792 5.73419   7
   0   8   6 40.2640 6.34834   1
   1  -8   6 80.5000 9.37911   7
  -1  -8  -6 86.7548 9.09305   4
   1   8   6 90.8441 9.84532   1
  -1   8  -6 76.6870 8.55081  10
  -1   8  -6 88.8943 8.35501   1
  -1   8  -6 85.5069 8.70134  10
  -1   8  -6 89.5555 8.64701   6
   1   8   6 85.4432 9.35644   5
   1   8   6 70.7279 9.31297   7
  -2  -8  -6 1375.22 122.532   4
   2  -8   6 1235.29 115.759   7
   2   8   6 1261.28 114.307   5
  -2   8  -6 1247.31 117.227   6
  -2   8  -6 1225.78 113.951   1
   2   8   6 1425.74 118.314   9
   2   8   6 1189.50 114.854   1
  -2   8  -6 1456.84 126.354  10
   2   8   6 1214.68 115.467   7
  -2   8  -6 1293.14 114.848   7
   3  -8   6 7.60061 3.13185   7
  -3  -8  -6 7.04888 2.12153   4
   3   8   6 6.35922 2.51932  10
  -3   8  -6 11.3397 2.64812   7
  -3   8  -6 6.54948 2.18525   5
   3   8   6 5.04517 2.86518   1
  -3   8  -6 7.91431 2.22244   3
   3   8   6 6.99161 2.53402   5
   3   8   6 6.40427 1.95522  10
  -3   8  -6 6.86009 2.04152   1
  -3   8  -6 10.5621 2.40756   6
  -4  -8  -6 32.9071 4.54193   4
   4  -8   6 24.1694 4.99533   7
   4   8   6 30.7298 4.96871   1
   4   8   6 43.4098 5.07507   5
  -4   8  -6 31.1307 4.81533   3
  -4   8  -6 22.5444 4.17551   5
  -4   8  -6 35.0651 4.47736   1
  -4   8  -6 35.4960 4.80026   7
  -5  -8  -6 131.856 13.2202   4
   5  -8   6 123.941 13.5103   7
  -5   8  -6 115.049 12.3847   1
   5   8   6 138.553 13.1678   1
  -5   8  -6 121.478 12.5409   5
  -5   8  -6 141.040 12.9154   7
  -5   8  -6 120.616 14.4981   3
   6  -8   6 822.173 73.6113   7
  -6  -8  -6 881.500 77.5372   4
   6  -8   6 688.756 72.6855   1
  -6   8  -6 768.874 84.6542   3
  -6   8  -6 804.707 72.2828   1
  -6   8  -6 867.180 72.3120   5
  -6   8  -6 860.929 72.9858   7
   6   8   6 803.868 72.6187   1
   7  -8   6 -1.8932 2.22576   7
   7  -8   6 1.80835 2.62714   1
  -7   8  -6 -0.5919 1.95258   7
  -7   8  -6 1.11830 2.00754   5
  -7   8  -6 2.51154 2.02120   1
   7   8   6 2.87223 2.45939   1
   8  -8   6 12.2992 3.36243   7
   8  -8   6 8.08324 2.71345   5
   8  -8   6 11.0446 3.57064   1
  -8   8  -6 11.0874 2.96357   7
  -8   8  -6 13.1950 3.09005   5
   8   8   6 8.68791 3.00083   1
   9  -8   6 51.2990 7.17045   5
   9  -8   6 63.5493 8.33298   1
   9  -8   6 67.5446 7.92776   7
  -9   8  -6 57.2688 7.43166   5
  -9   8  -6 79.4688 8.03043   7
   9   8   6 66.8925 7.58323   1
   8  -9  -6 93.3391 10.6327   1
  -8  -9   6 89.7572 8.22306   8
  -8   9   6 89.2276 10.9007   5
   7  -9  -6 69.0021 7.97241   1
  -7  -9   6 52.0766 5.31924   8
  -7   9   6 61.1375 8.15715   5
  -7   9   6 61.0182 8.21187   7
   6  -9  -6 27.2441 5.02411   1
   6  -9  -6 38.0745 5.58062   7
  -6  -9   6 29.9075 3.38403   8
  -6   9   6 49.7522 6.57521   7
  -6   9   6 41.9354 6.40803   5
   5  -9  -6 234.247 19.3701   1
   5  -9  -6 172.954 20.3107   4
  -5  -9   6 196.690 17.8111   8
   5  -9  -6 183.833 19.5120   7
  -5   9   6 212.118 20.0643   7
  -5   9   6 200.224 19.7905   5
   4  -9  -6 158.225 15.2273   7
   4  -9  -6 151.332 14.6957   1
   4  -9  -6 158.913 15.9160   4
  -4  -9   6 141.632 13.7085   8
  -4   9   6 136.104 15.3686   5
  -4   9   6 128.687 15.4181   7
   4   9  -6 179.418 14.0067   1
  -4   9   6 132.530 15.5719   1
   3  -9  -6 52.7859 6.30388   1
  -3  -9   6 57.5714 5.74434   8
   3  -9  -6 63.0620 7.11647   4
   3   9  -6 58.3453 5.72376   1
  -3   9   6 43.7447 7.11378   5
   3   9  -6 54.6951 5.83244   6
  -3   9   6 49.7615 7.80725   1
  -3   9   6 58.6089 7.76247   7
  -2  -9   6 60.7030 5.83112   8
   2  -9  -6 59.7770 6.90386   4
   2  -9  -6 59.1436 6.21276   1
  -2   9   6 42.8392 6.95116   5
  -2   9   6 44.1993 7.11280   7
   2   9  -6 50.5215 5.74325   6
   2   9  -6 58.8235 5.68655   1
  -2   9   6 47.6024 7.52523   1
  -1  -9   6 317.587 24.7446   8
  -1  -9   6 250.962 24.9881   7
   1  -9  -6 299.420 26.8005   4
  -1   9   6 224.163 25.3679   5
  -1   9   6 298.972 26.1896   7
   1   9  -6 269.929 25.2007   6
   1   9  -6 267.990 24.5493   1
  -1   9   6 239.325 25.9327   1
   0  -9  -6 185.858 16.1569   4
   0  -9   6 137.441 15.2365   7
   0   9  -6 143.768 14.6542   1
   0   9   6 160.975 16.0680   7
   0   9   6 124.990 15.3708   5
   0   9  -6 168.207 15.0969   6
   0   9   6 198.984 16.7329   1
  -1  -9  -6 46.8849 5.62586   4
   1  -9   6 36.4189 5.71231   7
  -1   9  -6 45.9567 5.17432   6
   1   9   6 43.1371 5.96355   5
   1   9   6 33.2399 5.90520   7
  -1   9  -6 51.8604 5.22822   1
   1   9   6 44.3403 6.65018   1
  -2  -9  -6 55.5206 6.63053   4
   2  -9   6 53.8840 7.20300   7
  -2   9  -6 57.5302 6.30405   1
   2   9   6 61.6669 7.00706   5
   2   9   6 53.5267 7.48773   1
  -2   9  -6 61.4297 6.46112   6
  -3  -9  -6 357.748 35.6201   4
  -3   9  -6 323.164 33.2015   1
   3   9   6 427.549 34.4647   1
   3   9   6 386.571 33.5455   5
   4  -9   6 119.470 14.1012   7
  -4  -9  -6 144.303 13.7527   4
  -4   9  -6 122.632 12.9154   1
  -4   9  -6 159.812 13.4884   7
  -4   9  -6 122.383 12.9429   5
   5  -9   6 30.4443 5.46034   7
  -5   9  -6 26.3923 4.25911   1
   5   9   6 34.1671 5.21746   1
  -5   9  -6 34.7535 4.74911   5
  -5   9  -6 46.1466 5.24673   7
   6  -9   6 14.9371 3.94334   7
  -6   9  -6 20.2660 3.62168   5
   6   9   6 20.9852 4.28253   1
  -6   9  -6 26.1306 3.78242   1
  -6   9  -6 26.3004 4.05456   7
   7  -9   6 284.846 27.4930   7
  -7   9  -6 274.972 26.4041   1
  -7   9  -6 285.362 26.5780   5
   7   9   6 306.726 26.8840   1
   8  -9   6 58.8704 8.18001   1
   8  -9   6 72.5206 8.31981   7
   8  -9   6 59.2004 7.71358   5
   8   9   6 71.2072 7.75007   1
  -8   9  -6 64.8189 7.60188   5
   7 -10  -6 0.64331 2.32439   1
  -7 -10   6 0.58828 0.77256   8
  -7  10   6 -0.2227 2.78765   5
  -6 -10   6 63.1124 6.40800   8
   6 -10  -6 69.1074 8.29774   7
   6 -10  -6 83.3991 8.30348   1
  -6  10   6 65.0470 8.72713   5
  -6  10   6 75.0726 9.09357   7
  -5 -10   6 10.8376 1.71289   8
   5 -10  -6 11.0419 2.75926   1
   5 -10  -6 11.6156 2.96739   7
   5 -10  -6 12.6125 2.98506   4
  -5  10   6 15.6583 4.02297   7
  -5  10   6 11.1300 3.64039   5
  -4 -10   6 56.3909 5.51910   8
   4 -10  -6 53.0758 6.35324   1
   4 -10  -6 57.3752 6.92540   4
   4 -10  -6 55.6521 6.65592   7
  -4  10   6 54.7080 7.56797   5
  -4  10   6 58.4065 7.77674   7
   4  10  -6 53.7547 5.69799   1
  -4  10   6 48.2380 7.61675   1
   3 -10  -6 25.8220 4.09959   4
  -3 -10   6 23.7405 3.02743   8
   3 -10  -6 28.6760 3.93059   7
   3  10  -6 23.5663 3.16731   1
  -3  10   6 20.1313 4.53596   5
  -3  10   6 22.9455 4.91038   1
  -3  10   6 20.8395 4.70687   7
   2 -10  -6 228.733 20.3538   4
  -2 -10   6 223.912 18.5862   8
  -2  10   6 185.807 19.8393   7
   2  10  -6 189.927 18.3860   1
  -2  10   6 173.801 19.8278   1
  -2  10   6 200.744 19.7363   5
  -1 -10   6 19.4824 3.12709   7
   1 -10  -6 32.4116 4.27912   4
  -1  10   6 20.6416 4.57361   1
  -1  10   6 20.0182 4.19068   5
   1  10  -6 21.2116 3.08059   6
   1  10  -6 27.5718 3.31568   1
  -1  10   6 18.3672 4.30873   7
   0 -10  -6 139.723 12.0446   4
   0 -10   6 112.423 11.2245   7
   0  10   6 118.008 11.9145   5
   0  10   6 121.089 12.5537   1
   0  10  -6 99.9690 11.0981   6
   0  10   6 112.377 12.1915   7
   0  10  -6 105.614 10.8297   1
  -1 -10  -6 132.777 11.5678   4
   1 -10   6 90.5731 10.8663   7
   1  10   6 92.5368 11.1152   5
   1  10   6 114.337 12.0672   1
  -1  10  -6 113.106 10.8862   6
  -1  10  -6 110.271 10.5342   1
   2 -10   6 182.053 18.9435   7
  -2  10  -6 218.413 18.3668   1
  -2  10  -6 199.257 18.8479   6
   2  10   6 192.009 18.6517   5
   2  10   6 193.522 19.4302   1
   3 -10   6 16.1535 3.68506   7
   3  10   6 26.3855 4.61796   1
  -3  10  -6 24.0208 3.48485   1
   4 -10   6 117.449 12.5383   7
   4  10   6 122.513 12.3838   1
  -4  10  -6 117.854 11.5847   1
   5 -10   6 126.043 14.0905   7
  -5  10  -6 135.147 13.1021   5
  -5  10  -6 159.344 13.1843   1
   5  10   6 119.963 13.4163   1
  -5  10  -6 128.212 13.2531   7
  -6  10  -6 77.7196 7.94317   5
  -6  10  -6 72.9286 7.76833   1
   6  10   6 62.3015 8.18133   1
  -6  10  -6 70.8583 8.02048   7
   7  10   6 21.3307 4.25918   1
  -7  10  -6 20.6597 3.79107   5
  -7  10  -6 20.0701 3.60803   1
   4 -11  -6 130.120 11.6861   4
  -4 -11   6 101.911 10.1086   8
   4  11  -6 106.549 10.3982   1
  -4  11   6 97.7692 12.0036   1
  -4  11   6 115.602 12.0544   5
   3 -11  -6 19.9080 3.35796   4
   3 -11  -6 13.8172 2.80778   7
   3  11  -6 15.3314 2.49509   1
  -3  11   6 16.6482 4.06516   7
  -3  11   6 14.0035 3.97649   1
  -3  11   6 12.1241 3.52838   5
   2  11  -6 16.7323 2.45444   1
  -2  11   6 8.66109 3.14269   5
  -2  11   6 16.1158 4.07153   1
  -2  11   6 17.5142 4.09350   7
   1  11  -6 185.333 17.2527   1
  -1  11   6 194.603 18.2754   5
  -1  11   6 185.888 18.6444   1
   0 -11   6 101.337 9.87324   7
   0  11  -6 106.446 9.78555   1
   0  11   6 90.4178 10.4657   5
   0  11   6 99.0919 11.1276   1
   1 -11   6 35.1522 4.53195   7
   1  11   6 34.4137 4.97596   5
   1  11   6 29.7009 5.39069   1
  -1  11  -6 39.6661 4.47963   1
   2 -11   6 10.8415 2.45775   7
   2  11   6 8.11779 3.02072   1
  -2  11  -6 8.10299 2.14507   1
   3 -11   6 137.305 13.1607   7
   3  11   6 130.125 13.4961   1
  -3  11  -6 128.863 12.6357   1
   4  11   6 97.1790 10.2593   1
  -4  11  -6 91.7726 9.48227   1
 -12   0   7 -1.0320 1.55992   8
 -11   0   7 1.26454 1.80310   8
  11   0  -7 1.36324 1.65268   6
  10   0  -7 0.66429 1.78558   6
 -10   0   7 -0.2010 1.64247   8
  -9   0   7 2.45041 1.95759   8
   9   0  -7 3.33696 2.02522   6
  -8   0   7 2.68800 2.09426   8
   8   0  -7 0.36639 1.76560   6
   7   0  -7 4.00299 2.27184   6
  -7   0   7 5.75389 2.50515   8
   7   0  -7 7.51220 2.48340   1
   6   0  -7 5.22188 2.14204   6
  -6   0   7 2.26575 0.97659   8
   6   0  -7 -1.9903 1.79452   1
  -6   0   7 1.77726 2.17067   8
   5   0  -7 7.15973 2.21817   6
  -5   0   7 1.63232 1.97499   8
   5   0  -7 5.29781 2.40951   1
  -4   0   7 0.45169 0.71507   8
   4   0  -7 2.40593 1.92723   1
  -4   0   7 0.31872 1.53346   8
  -4   0   7 0.93620 1.05377   7
   4   0  -7 2.11985 1.70871   6
   4   0  -7 -0.8117 1.54848   4
   3   0  -7 5.10260 2.20971   6
   3   0  -7 7.97994 2.24818   4
  -3   0   7 3.68306 1.45398   7
  -3   0   7 16.4255 3.33216   9
  -3   0   7 3.57440 1.12831   8
  -3   0   7 11.5792 3.01573   9
   3   0  -7 12.7827 2.70296   1
  -3   0   7 3.46566 2.39627   8
   2   0  -7 1.53500 1.50926   6
   2   0  -7 -0.2405 1.39828   1
  -2   0   7 1.18810 0.99153   7
  -2   0   7 2.77527 1.94452   8
   2   0  -7 1.50184 0.71157  10
  -2   0   7 4.84827 3.07781   9
   2   0  -7 1.62941 0.99761  10
   2   0  -7 4.78329 1.84974   4
   1   0  -7 7.19036 1.24922   9
  -1   0   7 1.48279 1.48839   7
   1   0  -7 6.04108 1.48802   9
   1   0  -7 3.54849 1.26159   2
   1   0  -7 11.4737 2.48127   6
  -1   0   7 2.78548 1.25320   2
   1   0  -7 2.58903 1.42273  10
  -1   0   7 6.94334 2.93340   8
   1   0  -7 4.79426 3.10590  10
  -1   0   7 7.59500 3.26662   9
   1   0  -7 7.34862 3.39775   4
   0   0   7 1.09392 0.87069   2
   0   0   7 -0.4295 1.84244   8
   0   0   7 4.06925 3.16224   9
   0   0  -7 1.88593 1.89793   9
   0   0  -7 0.87258 0.67249   9
   0   0  -7 1.64282 2.81989  10
   0   0  -7 1.13836 0.83192   2
   0   0  -7 1.97957 1.59221   1
   0   0   7 1.31384 1.05505   5
   0   0  -7 1.10700 2.08766   7
   0   0   7 2.36943 1.16597   7
   0   0   7 1.50473 0.98268  10
   0   0  -7 5.76046 3.33649   4
   0   0   7 4.48220 2.23863  10
   0   0  -7 2.79057 0.97795  10
   0   0  -7 3.19448 1.64450   6
  -1   0  -7 9.90926 4.33004  10
  -1   0  -7 1.08508 1.46809  10
   1   0   7 2.01555 1.40274   2
   1   0   7 5.58309 1.63120   5
  -1   0  -7 5.76115 1.53379   2
  -1   0  -7 1.45268 1.23360   9
  -1   0  -7 2.67830 2.60271   7
   1   0   7 9.83338 3.98222   9
  -1   0  -7 15.6836 4.36464   9
  -1   0  -7 11.9079 2.90332   1
  -1   0  -7 7.38914 4.16499   4
  -1   0  -7 14.7790 3.07700   6
   1   0   7 3.35650 1.67477   7
   1   0   7 8.61354 3.09400  10
   1   0   7 2.57238 1.61828  10
   2   0   7 1.67472 1.19738   1
  -2   0  -7 1.79201 2.63410   9
  -2   0  -7 1.27888 3.31013   4
   2   0   7 1.33284 2.67570   9
   2   0   7 1.82046 1.14720   2
   2   0   7 1.06862 1.19070   7
   2   0   7 6.05898 1.13944  10
  -2   0  -7 1.93300 2.28371   7
  -2   0  -7 0.36055 0.81560   9
  -2   0  -7 1.20618 1.01864  10
  -2   0  -7 -0.1174 0.97583   2
   2   0   7 2.82086 1.17414   5
  -2   0  -7 -0.8142 2.56466  10
  -2   0  -7 3.58400 2.25888   6
  -2   0  -7 3.53735 2.26200   1
   2   0   7 1.70797 1.05207  10
  -3   0  -7 4.67349 2.93525   6
  -3   0  -7 4.57151 1.55915   2
   3   0   7 0.54769 1.11497   9
  -3   0  -7 0.96601 1.21006   9
   3   0   7 3.71709 1.49704   2
  -3   0  -7 3.62341 3.78969   4
   3   0   7 0.70641 1.29124  10
   3   0   7 1.78589 1.38402   1
   3   0   7 4.67396 1.62187   7
   3   0   7 7.57996 3.71192  10
  -3   0  -7 -1.3491 2.46655   7
   3   0   7 16.9327 5.20692   9
  -3   0  -7 2.28564 3.31498  10
   3   0   7 0.12462 1.17279   5
  -4   0  -7 11.4059 3.73153   6
   4   0   7 -0.3685 1.05578   2
   4   0   7 1.02841 1.08390   7
   4   0   7 0.92706 1.05420  10
  -4   0  -7 2.14214 1.17488   9
  -4   0  -7 -0.0614 3.58372   4
   4   0   7 -3.3951 3.01255   9
   4   0   7 1.94836 1.38028   1
  -4   0  -7 7.06562 2.95646   7
   4   0   7 0.93914 3.01713  10
   4   0   7 2.71631 1.21241   5
  -4   0  -7 1.06295 2.76647   1
   4   0   7 2.34558 1.30442   1
   5   0   7 2.50496 1.42328   1
   5   0   7 1.08325 1.27664   7
   5   0   7 2.98433 1.24509  10
   5   0   7 3.15984 1.58447   1
   5   0   7 6.50349 3.30165   9
  -5   0  -7 6.38357 3.10505   7
   5   0   7 4.14903 1.35356   5
  -5   0  -7 2.25028 3.12156   1
   5   0   7 4.18388 5.03658  10
  -5   0  -7 13.8974 4.95364   4
  -6   0  -7 1.34682 2.72196   7
   6   0   7 0.50681 1.36537   1
   6   0   7 2.10874 1.18697   5
   6   0   7 1.41677 1.19553   7
   6   0   7 1.79064 1.18017  10
   6   0   7 2.21474 2.10914   9
   6   0   7 0.18996 1.40564   1
   6   0   7 6.52326 4.60502  10
   7   0   7 1.50773 3.21476  10
   7   0   7 0.89779 1.28946   7
   7   0   7 8.11759 1.54280   9
   7   0   7 3.47298 1.38026   5
   7   0   7 10.3155 1.83402  10
   7   0   7 0.85624 1.60674   1
  -7   0  -7 5.26705 3.09303   7
  -8   0  -7 3.96442 3.29627   7
   8   0   7 2.60782 2.83212  10
   8   0   7 1.46892 1.20660   5
   8   0   7 1.62616 1.16507  10
   8   0   7 1.43659 1.63705   1
   9   0   7 2.39903 1.20746   5
  -9   0  -7 -0.2143 2.49090   7
   9   0   7 1.31485 1.90270   1
  10   0   7 1.68420 2.06006   1
 -10   0  -7 0.61735 2.45362   7
 -11   0  -7 3.22368 2.60180   7
  11   0   7 -0.1326 2.04955   1
  12   0   7 0.30525 2.16692   1
 -12   0  -7 -1.4085 3.28903   4
 -12  -1   7 258.873 25.6030   8
 -12   1   7 317.038 26.3943   8
 -11  -1   7 6.39685 1.87251   8
  11  -1  -7 3.10995 1.90128   6
 -11   1   7 2.46929 2.23414   8
  11   1  -7 4.29383 1.59645   6
  10  -1  -7 44.0440 6.47930   6
 -10  -1   7 46.4510 5.37275   8
  10   1  -7 52.4087 5.61237   6
 -10   1   7 54.2135 6.40355   8
  -9  -1   7 141.882 14.4259   8
   9  -1  -7 167.446 15.8835   1
   9  -1  -7 153.270 16.1207   6
   9   1  -7 167.206 15.0449   6
   8  -1  -7 628.383 56.5499   1
  -8  -1   7 682.427 54.9487   8
   8  -1  -7 574.836 57.9725   6
  -8  -1   7 629.578 55.3031   8
   8   1  -7 607.281 57.0666   6
  -7  -1   7 3.28426 1.81948   8
   7  -1  -7 3.32784 2.56654   6
  -7  -1   7 4.76608 0.95921   8
   7  -1  -7 1.62770 2.54881   1
  -7   1   7 1.91775 2.34610   8
   7   1  -7 3.79360 1.71586   6
  -6  -1   7 215.101 17.0852   8
  -6  -1   7 176.554 16.3303   8
   6  -1  -7 180.274 18.0037   1
   6  -1  -7 142.340 18.1237   6
   6   1  -7 197.732 17.1475   1
  -6   1   7 231.842 18.2398   8
   6   1  -7 166.097 17.3853   6
   5  -1  -7 350.868 32.6378   1
   5  -1  -7 337.110 34.8845   4
   5  -1  -7 357.242 33.3634   6
  -5  -1   7 386.418 31.4272   8
   5   1  -7 370.421 32.4352   6
   5   1  -7 309.697 31.4837   1
  -5   1   7 351.627 31.9330   7
  -4  -1   7 706.148 54.6522   7
  -4  -1   7 567.074 53.7767   8
   4  -1  -7 545.812 59.0791   4
   4  -1  -7 583.756 56.8331   6
   4  -1  -7 606.604 55.5359   1
  -4  -1   7 608.342 54.1021   8
   4   1  -7 619.045 54.5465   1
   4   1  -7 673.885 56.0533   6
  -4   1   7 619.772 54.8301   8
  -4   1   7 614.434 54.8498   7
   3  -1  -7 96.6808 10.4877  10
  -3  -1   7 117.527 9.83688   7
   3  -1  -7 108.910 10.3443  10
   3  -1  -7 77.4157 11.2503   4
  -3  -1   7 92.5106 9.37501   8
  -3  -1   7 91.7204 9.73271   8
   3  -1  -7 117.184 11.2233   6
   3  -1  -7 94.9864 10.7898   1
   3   1  -7 99.1681 10.2089   6
   3   1  -7 115.792 10.0636   1
  -3   1   7 115.107 10.9887   8
  -3   1   7 109.645 10.0189   7
   2  -1  -7 494.308 44.9656   4
  -2  -1   7 457.678 41.0918   2
  -2  -1   7 394.378 40.4810   8
  -2  -1   7 476.354 42.6051   9
  -2  -1   7 517.749 40.7585   7
   2  -1  -7 425.952 40.9793   2
   2  -1  -7 477.671 44.5312  10
   2  -1  -7 475.223 41.3378   1
   2  -1  -7 432.675 45.4074  10
   2  -1  -7 453.904 42.3934   6
  -2  -1   7 415.054 39.9836   8
   2   1  -7 430.592 41.6990   6
  -2   1   7 474.562 40.7916   7
   2   1  -7 382.980 40.5228   1
  -2   1   7 519.646 42.0425   8
  -2   1   7 516.139 43.9177   9
   1  -1  -7 95.1858 12.1824   6
  -1  -1   7 114.858 11.9085   8
   1  -1  -7 88.8206 11.9395   1
   1  -1  -7 129.476 12.0319   9
   1  -1  -7 123.994 14.0821  10
   1  -1  -7 114.913 11.4318   9
   1  -1  -7 121.689 12.3719  10
  -1  -1   7 142.427 13.3196   9
  -1  -1   7 119.442 11.4724   7
  -1  -1   7 115.192 11.3185   2
   1  -1  -7 124.615 14.0024   4
   1  -1  -7 120.156 11.2385   2
   1   1  -7 127.412 11.6951   1
  -1   1   7 123.695 11.4265   7
  -1   1   7 115.481 12.4415  10
   1   1  -7 132.558 12.0162   6
  -1   1   7 110.586 11.2687   5
  -1   1   7 126.477 11.5513   2
   1   1  -7 121.868 12.2256  10
  -1   1   7 146.095 13.0734   8
  -1   1   7 117.485 13.1906   9
   0  -1   7 303.005 27.3812   9
   0  -1   7 307.607 25.6379   8
   0  -1  -7 280.383 29.2897  10
   0  -1   7 282.227 25.1647   7
   0  -1  -7 297.026 27.4896  10
   0  -1  -7 276.201 25.5298   1
   0  -1   7 280.321 25.3053   2
   0  -1  -7 315.748 26.3886   6
   0  -1  -7 245.541 28.3849   4
   0  -1  -7 264.617 25.6219   9
   0  -1  -7 285.464 25.2727   2
   0   1   7 248.814 27.6037   9
   0   1   7 249.036 24.9904   7
   0   1  -7 257.146 27.2877  10
   0   1  -7 264.866 25.5611   9
   0   1  -7 259.090 25.8649   9
   0   1  -7 274.159 25.3076   1
   0   1  -7 273.769 25.3179   2
   0   1   7 310.812 29.6354  10
   0   1  -7 279.296 29.0348  10
   0   1   7 259.278 25.3677   2
   0   1   7 327.798 27.1316   8
   0   1  -7 251.388 25.7512   7
   0   1  -7 288.508 26.0797   6
   0   1   7 278.951 24.8009   5
  -1  -1  -7 352.810 37.3564   9
   1  -1   7 441.025 39.1380   9
  -1  -1  -7 483.854 39.5701   9
  -1  -1  -7 371.964 36.7594   1
   1  -1   7 413.446 36.0301   5
  -1  -1  -7 421.049 39.9624  10
  -1  -1  -7 353.533 37.6576   6
  -1  -1  -7 431.334 41.2463   4
   1  -1   7 456.929 37.1613   8
   1  -1   7 448.019 39.9795  10
   1  -1   7 361.672 36.8399   2
   1  -1   7 362.954 40.8053  10
  -1  -1  -7 413.142 41.8451  10
  -1  -1  -7 452.971 36.9476   2
  -1  -1  -7 374.933 37.2652   7
  -1   1  -7 436.804 39.8381  10
  -1   1  -7 350.203 37.5926   6
   1   1   7 387.832 36.9130   2
  -1   1  -7 452.149 41.5948  10
   1   1   7 462.860 39.9734  10
  -1   1  -7 481.755 37.0634   1
  -1   1  -7 373.378 36.8111   2
  -1   1  -7 366.124 38.1679   9
   1   1   7 399.150 36.0492   1
   1   1   7 342.385 39.3396   9
  -1   1  -7 367.001 37.1481   7
   1   1   7 400.578 36.3034   7
  -1   1  -7 370.940 37.2987   9
   2  -1   7 695.977 59.1854   2
   2  -1   7 608.994 63.8836  10
  -2  -1  -7 661.866 58.5272   1
  -2  -1  -7 683.998 59.1720   2
  -2  -1  -7 558.538 63.7520   4
   2  -1   7 598.991 58.1928   7
  -2  -1  -7 625.177 58.9604   7
   2  -1   7 685.833 57.7232   1
   2  -1   7 693.152 57.6176   5
  -2  -1  -7 576.100 59.9500   9
  -2  -1  -7 663.363 65.8635  10
  -2  -1  -7 731.527 64.0592  10
   2   1   7 607.463 61.9679   9
  -2   1  -7 736.832 59.1781   2
  -2   1  -7 735.914 63.8586   4
  -2   1  -7 657.579 59.3371   7
  -2   1  -7 591.786 65.2577  10
   2   1   7 676.912 59.2106   2
   2   1   7 720.368 58.1379   7
  -2   1  -7 641.304 58.7652   1
  -2   1  -7 655.598 63.8653  10
   2   1   7 557.345 57.4447   5
   2   1   7 650.576 65.5843  10
  -2   1  -7 599.953 59.8836   9
   2   1   7 624.193 59.8962   9
   2   1   7 705.493 63.8912  10
   3  -1   7 18.3625 2.79483   2
   3  -1   7 19.5760 2.75085   5
   3  -1   7 21.4607 3.02866   7
  -3  -1  -7 28.4871 6.43562   4
  -3  -1  -7 13.1563 4.07950  10
   3  -1   7 20.9474 5.05749  10
   3  -1   7 16.6665 2.62837   9
  -3  -1  -7 20.0165 4.17888   6
  -3  -1  -7 15.7135 4.01257   1
   3  -1   7 16.5200 2.70594   1
   3  -1   7 16.0891 4.83317   9
  -3  -1  -7 17.4433 2.69728   9
   3  -1   7 12.1249 2.56398  10
  -3  -1  -7 14.4269 3.56098   7
   3   1   7 21.2549 2.58861   9
  -3   1  -7 18.6055 2.83185  10
  -3   1  -7 19.5206 4.46990   1
   3   1   7 18.5854 2.75756   7
   3   1   7 17.0959 2.83049   2
  -3   1  -7 16.7389 4.07363   9
   3   1   7 18.2117 2.87439   1
  -3   1  -7 24.7702 5.68301   4
  -3   1  -7 19.1262 4.36466   6
  -3   1  -7 20.7163 4.68988   7
   3   1   7 12.2234 4.77172   9
  -3   1  -7 25.0902 6.49106  10
   3   1   7 14.8871 5.31729  10
  -3   1  -7 18.6141 2.62168   9
   3   1   7 14.6720 2.68438  10
   3   1   7 15.5379 2.53297   5
  -4  -1  -7 100.174 8.99385   9
   4  -1   7 85.4053 11.6332   9
  -4  -1  -7 102.140 10.2493   7
   4  -1   7 78.1544 8.57623   1
  -4  -1  -7 91.7140 10.3647   1
  -4  -1  -7 82.1418 12.0126   4
   4  -1   7 104.767 8.92665   7
   4  -1   7 89.6376 8.92109   2
   4   1   7 91.1515 8.99339   2
   4   1   7 71.6898 8.55893   1
  -4   1  -7 82.7081 10.5194   1
   4   1   7 84.1265 8.41237   5
   4   1   7 67.7972 11.5486  10
  -4   1  -7 86.6826 8.81692   9
  -4   1  -7 96.7702 10.7395   6
   4   1   7 89.3491 9.25820  10
  -4   1  -7 93.2736 10.8537   7
   4   1   7 97.1225 11.5087   9
   4   1   7 85.6352 8.55323   7
   5  -1   7 486.904 49.3630  10
  -5  -1  -7 489.444 44.3142   8
  -5  -1  -7 417.179 45.6982   1
   5  -1   7 456.565 47.8070   9
  -5  -1  -7 513.448 50.1395   4
  -5  -1  -7 591.949 46.5775   7
   5  -1   7 547.401 44.4908   5
   5  -1   7 538.347 45.0482   7
  -5   1  -7 438.753 46.4434   1
   5   1   7 505.832 49.2071  10
   5   1   7 569.500 52.5964  10
   5   1   7 531.360 44.3748   5
   5   1   7 487.790 44.7801   1
   5   1   7 466.840 44.7514   7
   5   1   7 496.349 47.3250   9
  -5   1  -7 481.332 46.4273   9
  -5   1  -7 536.618 47.0327   7
   6  -1   7 653.425 54.7385   7
  -6  -1  -7 576.601 53.9467   8
   6  -1   7 573.822 59.9817  10
  -6  -1  -7 724.481 56.4001   7
  -6  -1  -7 539.374 60.2558   4
   6  -1   7 536.801 57.2815   9
   6  -1   7 670.253 54.1165   5
  -6   1  -7 655.901 56.7899   7
   6   1   7 538.403 59.8056  10
   6   1   7 611.991 53.9132   5
   6   1   7 601.579 54.4496   1
  -6   1  -7 598.892 55.7690   1
   6   1   7 668.672 56.6864   9
   6   1   7 589.907 54.4172   7
   6   1   7 691.521 62.6707  10
  -7  -1  -7 65.2211 11.3240   4
  -7  -1  -7 80.6016 9.65873   7
  -7  -1  -7 85.4476 8.00710   8
   7  -1   7 68.3653 8.50024  10
   7  -1   7 89.0336 8.19924   7
   7  -1   7 85.8605 8.33861   1
   7  -1   7 83.9007 8.60513   9
   7  -1   7 83.0314 7.91346   5
   7   1   7 70.3394 8.20737   1
   7   1   7 87.4059 10.7341  10
  -7   1  -7 91.0172 10.7757   7
   7   1   7 84.1687 8.27627   1
   7   1   7 83.5587 8.47065  10
   7   1   7 67.1073 7.75852   7
   7   1   7 87.2662 7.72434   5
  -8  -1  -7 40.5396 6.60080   7
  -8  -1  -7 29.9127 7.55321   4
   8  -1   7 37.9199 5.03605  10
   8  -1   7 36.0858 4.86828   7
   8  -1   7 54.6730 5.65282   1
   8  -1   7 55.9234 8.52238  10
   8  -1   7 48.4744 4.82188   5
   8   1   7 49.4513 5.52419   1
   8   1   7 43.2939 4.54062   5
   8   1   7 44.2647 4.88154  10
   8   1   7 47.7278 5.45084   1
   8   1   7 41.9147 4.77943  10
   8   1   7 47.6921 6.12283  10
  -8   1  -7 38.6730 7.02776   7
  -9  -1  -7 303.548 32.4395   4
  -9  -1  -7 322.703 29.4927   7
   9  -1   7 283.372 27.4662   5
   9  -1   7 308.751 28.2399   1
   9   1   7 351.102 28.3954   1
  -9   1  -7 284.024 29.5071   7
 -10  -1  -7 341.376 32.4116   7
  10  -1   7 357.471 31.4068   1
 -10  -1  -7 348.575 35.6970   4
 -10   1  -7 324.102 32.5301   7
 -11  -1  -7 22.0837 6.06798   4
 -11  -1  -7 28.7547 5.32043   7
  11  -1   7 29.8449 4.62266   1
 -11   1  -7 30.4207 5.64146   7
  11   1   7 34.2062 4.80701   1
 -12  -1  -7 19.1146 5.31030   4
  12  -1   7 18.1475 3.77580   1
  12   1   7 19.2196 3.55266   1
 -12   1  -7 13.5507 4.09637   7
 -12  -2   7 78.4487 7.36629   8
 -12   2   7 66.7110 8.47857   8
 -11  -2   7 29.8711 3.70120   8
  11  -2  -7 40.0089 5.60962   1
 -11   2   7 36.7029 5.51877   8
  10  -2  -7 10.8266 3.64862   6
 -10  -2   7 11.0042 1.85692   8
  10  -2  -7 15.8567 4.00700   1
 -10   2   7 19.9800 4.12115   8
   9  -2  -7 277.794 29.0787   1
   9  -2  -7 306.320 30.0539   6
  -9  -2   7 309.895 26.6959   8
  -9  -2   7 277.296 26.7363   8
  -9   2   7 326.613 28.4379   8
   9   2  -7 317.264 27.6088   6
   8  -2  -7 163.579 19.1859   6
   8  -2  -7 195.839 19.0248   1
  -8   2   7 186.474 18.1172   8
   8   2  -7 188.505 17.0566   6
   7  -2  -7 43.2779 7.33878   6
   7  -2  -7 45.9336 7.08477   1
  -7   2   7 41.2793 6.26792   8
   7   2  -7 46.3810 4.68260   6
   6  -2  -7 8.30584 3.50211   1
   6  -2  -7 5.35369 3.17450   6
  -6   2   7 9.13719 2.66671   7
  -6   2   7 6.79508 2.73153   8
   6   2  -7 8.22284 1.48989   6
  -5  -2   7 548.555 51.1370   8
   5  -2  -7 686.516 55.2818   6
   5  -2  -7 481.492 56.8297   4
   5  -2  -7 618.150 53.6694   1
  -5  -2   7 553.468 51.2618   8
  -5   2   7 559.115 52.7319   7
  -5   2   7 629.388 52.5632   8
   5   2  -7 599.162 53.0846   6
   5   2  -7 628.205 51.6705   1
   4  -2  -7 185.897 16.5814  10
   4  -2  -7 168.127 18.3992   4
  -4  -2   7 138.767 14.8855   8
  -4  -2   7 161.404 14.8879   8
   4  -2  -7 192.027 17.7934   6
   4  -2  -7 174.239 17.4861   1
   4  -2  -7 172.167 16.7043  10
   4   2  -7 153.659 15.2194   1
  -4   2   7 200.774 16.3371   8
   4   2  -7 162.774 15.6329   6
   3  -2  -7 113.622 13.0406   6
  -3  -2   7 124.497 11.1983   2
  -3  -2   7 119.489 11.0567   7
   3  -2  -7 123.230 10.8650   2
   3  -2  -7 130.586 13.7945   4
  -3  -2   7 100.823 11.1471   2
  -3  -2   7 103.733 10.9177   8
   3  -2  -7 142.800 13.3335   1
  -3  -2   7 108.684 10.6936   8
   3  -2  -7 113.553 12.5005  10
   3   2  -7 138.698 11.4520   6
   3   2  -7 139.351 11.1760   1
  -3   2   7 104.028 11.3854   7
  -3   2   7 116.006 12.0155   8
  -3   2   7 118.589 11.3045   5
  -2  -2   7 3.02508 1.50964   8
   2  -2  -7 2.62315 2.54228   1
  -2  -2   7 3.42471 1.07197   8
   2  -2  -7 2.30188 0.98210   2
   2  -2  -7 1.72105 0.81162   9
   2  -2  -7 6.23722 1.42362   9
   2  -2  -7 2.74607 2.36777  10
  -2  -2   7 1.93172 1.15247   2
  -2  -2   7 2.13999 1.30243   7
   2  -2  -7 1.82572 1.17590  10
   2  -2  -7 7.48388 3.70983   4
   2  -2  -7 1.99959 2.33164   6
  -2   2   7 5.61765 2.92603   8
   2   2  -7 4.06272 1.54031   1
  -2   2   7 3.59383 1.43466   5
  -2   2   7 1.14263 1.30840   7
   2   2  -7 1.31001 1.39188   6
  -2   2   7 4.71035 3.13838   9
   1  -2  -7 664.409 60.5749   4
   1  -2  -7 619.978 60.5669  10
   1  -2  -7 644.011 55.8980   2
  -1  -2   7 557.562 57.2506   9
   1  -2  -7 586.691 56.7029   9
   1  -2  -7 673.979 57.4204   6
   1  -2  -7 631.347 62.2331  10
  -1  -2   7 615.273 55.9589   2
  -1  -2   7 596.646 54.7709   8
  -1  -2   7 721.372 55.2649   7
   1  -2  -7 673.664 55.9747   1
   1   2  -7 688.594 56.5924   6
  -1   2   7 517.898 56.2046   2
  -1   2   7 626.838 55.1460   7
  -1   2   7 574.362 58.1512   9
   1   2  -7 676.092 60.4152  10
  -1   2   7 633.034 55.7098   8
  -1   2   7 595.059 60.6615  10
   1   2  -7 640.314 60.2154  10
  -1   2   7 509.061 61.9027  10
  -1   2   7 599.043 54.5988   5
   1   2  -7 558.710 54.9005   1
   0  -2  -7 142.185 16.2602   4
   0  -2  -7 137.792 13.5057   9
   0  -2  -7 156.713 14.5113   1
   0  -2   7 120.341 13.3598   2
   0  -2  -7 142.972 14.6680   6
   0  -2   7 158.748 13.5809   7
   0  -2   7 134.351 13.7058   8
   0  -2  -7 114.331 15.5645  10
   0  -2   7 112.635 14.1836   9
   0   2   7 137.683 13.7055   2
   0   2  -7 164.682 15.8920  10
   0   2   7 149.475 13.2972   1
   0   2   7 158.127 13.4916   7
   0   2   7 136.708 15.3852   9
   0   2  -7 144.094 14.0756   7
   0   2  -7 119.769 13.7038   1
   0   2  -7 142.531 14.1972   6
   0   2   7 172.423 14.7863  10
   0   2   7 146.304 13.2075   5
   0   2   7 161.416 16.6620  10
   0   2  -7 134.497 13.2941   9
   0   2  -7 145.592 14.3910  10
   1  -2   7 305.217 28.8092   7
  -1  -2  -7 325.075 30.2500   6
  -1  -2  -7 362.139 31.6767  10
   1  -2   7 320.427 31.4851  10
   1  -2   7 298.721 28.4227   5
  -1  -2  -7 351.374 33.4878  10
   1  -2   7 323.374 30.7915   9
   1  -2   7 286.093 29.0399   2
  -1  -2  -7 329.830 29.5341   9
  -1  -2  -7 374.566 31.3684   9
  -1   2  -7 304.939 29.2386   1
   1   2   7 298.645 31.4753  10
  -1   2  -7 369.032 30.2206   6
  -1   2  -7 301.028 29.1181   2
  -1   2  -7 330.558 29.3823   9
   1   2   7 288.327 33.0686  10
   1   2   7 332.792 29.3562   2
  -1   2  -7 287.897 31.3334  10
   1   2   7 372.444 29.6256   9
   1   2   7 303.246 31.6552   9
   1   2   7 348.089 28.4317   5
  -1   2  -7 296.501 29.4518   7
   1   2   7 272.554 28.4069   1
  -1   2  -7 272.124 29.7758   9
  -1   2  -7 290.135 32.3172  10
   2  -2   7 6.10431 1.67183   5
  -2  -2  -7 4.67547 1.70167  10
  -2  -2  -7 19.4451 3.54341   7
  -2  -2  -7 4.94984 3.70316   4
   2  -2   7 2.60393 1.67619  10
   2  -2   7 4.94108 1.60461   1
  -2  -2  -7 9.54931 3.20286  10
   2  -2   7 5.64714 1.59210   2
  -2  -2  -7 11.7592 2.91417   1
  -2  -2  -7 5.28648 2.49692   6
   2  -2   7 4.67585 1.68521   7
  -2  -2  -7 7.05371 1.66153   9
  -2  -2  -7 5.31308 1.73039   2
   2  -2   7 6.06535 3.08348   9
   2  -2   7 1.70986 2.44776  10
   2   2   7 4.72140 1.74166   2
  -2   2  -7 3.56982 2.01569   9
  -2   2  -7 2.14498 2.37830   1
   2   2   7 4.44036 1.75477  10
  -2   2  -7 10.9555 2.84577   4
  -2   2  -7 3.37289 1.52078  10
   2   2   7 4.13675 1.37481   9
   2   2   7 5.36080 1.63020   7
   2   2   7 15.3679 3.93500  10
   2   2   7 3.68378 1.54781   1
  -2   2  -7 6.17926 1.61691   2
  -2   2  -7 9.00611 2.83227  10
  -2   2  -7 7.32107 2.89083   6
   2   2   7 14.1031 4.45823   9
  -2   2  -7 3.78919 1.22369   9
  -2   2  -7 2.73773 2.72355   7
   2   2   7 3.80613 1.39939   5
  -3  -2  -7 443.776 42.3219   1
   3  -2   7 450.054 41.8035   7
  -3  -2  -7 424.098 43.0045   9
  -3  -2  -7 485.997 42.5134   7
  -3  -2  -7 511.602 41.1077   8
  -3  -2  -7 484.854 43.6453   6
   3  -2   7 439.250 41.4250   1
   3  -2   7 424.494 42.3691   2
   3  -2   7 447.058 41.3351   5
  -3  -2  -7 556.638 47.3323   4
   3  -2   7 523.295 45.5437   9
   3   2   7 398.295 47.4025  10
  -3   2  -7 460.397 42.8962   9
   3   2   7 522.164 41.2570   5
  -3   2  -7 474.587 45.8910  10
  -3   2  -7 470.789 42.9533   1
  -3   2  -7 435.917 42.9483   7
   3   2   7 516.888 45.8254  10
   3   2   7 403.028 41.5617   7
   3   2   7 518.210 45.1228   9
   3   2   7 498.962 41.5317   1
   3   2   7 406.974 42.4603   2
  -3   2  -7 443.750 43.7473   6
  -4  -2  -7 176.554 19.4714   1
   4  -2   7 223.816 18.8201   1
   4  -2   7 241.279 18.7898   5
   4  -2   7 207.983 21.5282   9
  -4  -2  -7 237.421 22.7066   4
  -4  -2  -7 185.900 18.3547   8
  -4  -2  -7 180.017 19.4878   7
   4  -2   7 212.820 19.2091   2
   4  -2   7 183.795 18.8524   7
   4   2   7 208.237 18.7270   1
  -4   2  -7 190.666 20.2993   1
   4   2   7 227.348 21.0806   9
   4   2   7 216.710 20.4584  10
  -4   2  -7 176.802 19.9344   7
   4   2   7 209.267 18.6773   7
   4   2   7 200.610 19.2606   2
   4   2   7 166.547 22.2937  10
   4   2   7 195.279 18.3462   5
  -4   2  -7 194.761 19.2300   9
  -4   2  -7 219.298 20.9715   6
   5  -2   7 258.359 28.1994   1
  -5  -2  -7 339.404 28.0587   8
   5  -2   7 299.236 28.1588   5
  -5  -2  -7 332.063 32.6627   4
  -5  -2  -7 371.287 29.6728   7
   5  -2   7 344.171 28.7043   7
   5  -2   7 297.336 30.9544   9
   5   2   7 282.993 27.8387   5
  -5   2  -7 305.178 29.5745   1
   5   2   7 320.790 33.3301  10
  -5   2  -7 282.228 29.7184   7
   5   2   7 329.316 31.0285  10
   5   2   7 326.328 29.8271   9
   5   2   7 345.325 28.3127   7
   5   2   7 276.043 28.2513   1
   6  -2   7 26.3176 3.63693   5
  -6  -2  -7 23.2478 6.02329   4
   6  -2   7 31.5544 5.33128   9
  -6  -2  -7 25.2453 3.42354   8
   6  -2   7 25.4775 3.76304   7
  -6  -2  -7 31.6253 5.08018   7
   6  -2   7 27.3227 3.87197   1
   6   2   7 23.2311 3.83555   1
  -6   2  -7 21.6618 4.96874   1
   6   2   7 29.3184 3.69396  10
  -6   2  -7 26.0605 5.16864   7
   6   2   7 30.3141 3.57700  10
   6   2   7 35.4276 6.32882  10
   6   2   7 25.1283 3.40364   7
   6   2   7 23.5027 3.18943   5
   7  -2   7 406.515 34.1011   5
  -7  -2  -7 406.763 35.6075   7
  -7  -2  -7 401.427 34.0944   8
   7  -2   7 344.449 34.3694   1
   7  -2   7 443.383 34.7014   7
  -7  -2  -7 393.335 39.0974   4
   7  -2   7 405.721 36.2405   9
   7   2   7 331.254 34.4011   1
   7   2   7 349.670 33.7562   5
   7   2   7 342.825 37.4151  10
   7   2   7 398.715 38.7625  10
   8  -2   7 319.955 26.0165   7
   8  -2   7 272.845 26.4128   9
  -8  -2  -7 309.803 25.6680   8
   8  -2   7 249.188 28.1211  10
  -8  -2  -7 294.065 29.9889   4
   8  -2   7 261.100 25.9055   1
  -8  -2  -7 330.329 27.2281   7
   8  -2   7 318.594 25.5741   5
   8   2   7 274.373 25.0875   5
   8   2   7 238.637 25.8024   1
   8   2   7 270.655 25.9540   1
  -9  -2  -7 114.118 16.5976   4
  -9  -2  -7 181.404 15.3767   7
   9  -2   7 138.859 14.0990   1
   9  -2   7 135.945 13.4366   5
   9   2   7 152.572 14.1786   1
   9   2   7 151.076 14.0808   1
 -10  -2  -7 12.3470 4.83065   4
  10  -2   7 14.2001 3.47096   1
 -10  -2  -7 21.0253 4.40746   7
  10  -2   7 20.4586 2.75800   5
 -10   2  -7 13.7647 3.72602   7
  10   2   7 22.0927 3.79559   1
 -11  -2  -7 225.296 23.6587   4
  11  -2   7 236.800 20.7644   1
 -11   2  -7 170.020 20.9228   7
  11   2   7 231.762 20.3598   1
 -12  -2  -7 178.867 21.0643   4
  12  -2   7 202.769 18.7886   1
  12   2   7 192.004 18.3336   1
  12  -3  -7 12.8670 3.93204   1
 -12  -3   7 20.2134 2.41752   8
 -12   3   7 17.6198 4.21851   8
  11  -3  -7 15.8260 4.04994   1
 -11  -3   7 16.0289 2.08179   8
 -11   3   7 30.1942 4.98187   8
  10  -3  -7 12.3739 4.02251   1
  10  -3  -7 10.2878 3.89406   6
 -10   3   7 13.9668 3.99482   8
   9  -3  -7 1.52165 3.41555   6
   9  -3  -7 7.52288 3.68947   1
  -9   3   7 11.5785 3.43988   8
   8  -3  -7 70.8300 8.77458   1
   8  -3  -7 43.6771 8.21994   6
  -8   3   7 52.2468 6.97749   8
   7  -3  -7 7.84620 3.84025   1
   7  -3  -7 6.31385 3.70763   6
  -7   3   7 6.98395 2.96786   7
  -7   3   7 8.35715 2.91750   8
   6  -3  -7 36.8196 6.64149   1
   6  -3  -7 41.0376 6.85219   6
   6  -3  -7 45.3673 7.68316   4
  -6   3   7 38.4645 5.66960   8
  -6   3   7 39.8033 5.81249   7
   6   3  -7 44.8096 4.28334   6
   5  -3  -7 13.8086 2.93248   7
   5  -3  -7 16.5284 2.36239  10
   5  -3  -7 14.8317 4.46074   4
   5  -3  -7 17.4786 2.17917  10
   5  -3  -7 18.7285 4.19928   1
   5  -3  -7 11.2157 3.70496   6
   5   3  -7 12.8448 2.03818   6
  -5   3   7 19.3577 3.49886   8
  -5   3   7 13.7409 3.22294   7
  -4  -3   7 114.868 11.5511   8
   4  -3  -7 141.383 13.0809  10
   4  -3  -7 125.793 13.6626   6
   4  -3  -7 128.815 13.2913  10
  -4  -3   7 129.372 11.6801   8
   4  -3  -7 105.725 14.5257   4
  -4   3   7 144.500 12.9492   8
  -4   3   7 133.384 12.7409   7
   4   3  -7 131.937 11.8642   1
   4   3  -7 126.673 12.1454   6
   3  -3  -7 2.07892 0.78106   9
  -3  -3   7 2.26182 1.15814   8
  -3  -3   7 2.13941 1.11916   8
   3  -3  -7 2.93711 1.12766   9
   3  -3  -7 5.02853 2.38196  10
  -3  -3   7 0.77397 1.30811   2
  -3  -3   7 1.38189 1.62699   2
   3  -3  -7 2.12197 1.25829  10
   3  -3  -7 2.26205 2.63514   6
   3  -3  -7 5.39242 3.43368   4
   3  -3  -7 2.52366 2.58373   1
  -3   3   7 1.50744 2.23561   8
  -3   3   7 2.56972 1.67805   5
   3   3  -7 4.11484 1.50739   6
   3   3  -7 3.21263 1.51992   1
  -3   3   7 1.05686 1.49464   7
  -2  -3   7 23.2337 3.07960   7
   2  -3  -7 18.1099 4.50395   6
  -2  -3   7 14.2194 2.77855   2
  -2  -3   7 11.8431 2.43956   8
   2  -3  -7 24.0338 5.00336   1
   2  -3  -7 9.96598 4.00273  10
   2  -3  -7 19.5413 3.00722   9
  -2  -3   7 15.2496 2.38578   8
   2  -3  -7 18.6653 2.89468  10
   2  -3  -7 11.1198 2.14147   9
   2  -3  -7 13.4672 4.50580   4
   2  -3  -7 19.4665 2.68289   2
  -2   3   7 12.7546 3.53819   8
  -2   3   7 15.4461 4.15497   9
   2   3  -7 17.3205 2.95267   1
  -2   3   7 11.0583 2.64990   7
  -2   3   7 22.4590 2.92034   1
   2   3  -7 13.4855 2.72817   6
   1  -3  -7 34.5055 7.02646   4
   1  -3  -7 59.6258 8.04514   6
   1  -3  -7 46.6907 5.49962  10
   1  -3  -7 45.2034 5.01853   2
   1  -3  -7 50.5911 7.09109   1
  -1  -3   7 41.8513 5.10313   2
  -1  -3   7 36.1930 5.13505   7
  -1  -3   7 48.5859 5.23977   8
   1  -3  -7 50.3144 4.91232   9
   1  -3  -7 47.2865 8.16328  10
  -1   3   7 44.1159 6.18856   8
  -1   3   7 46.9750 5.06684   1
  -1   3   7 58.0610 5.42290   7
   1   3  -7 41.1272 5.32025   1
  -1   3   7 40.5929 6.90921   9
   1   3  -7 36.0209 5.28151   6
   1   3  -7 40.0186 5.35466   3
   1   3  -7 56.4917 5.50691   7
  -1   3   7 51.6332 5.19598   5
   0  -3  -7 99.2100 11.5818  10
   0  -3  -7 107.983 9.89120   2
   0  -3  -7 75.3116 10.7852   6
   0  -3  -7 101.292 9.80736   9
   0  -3  -7 94.0121 10.6157  10
   0  -3   7 89.6838 9.82880   7
   0  -3   7 108.361 10.0069   2
   0  -3  -7 110.820 12.3741   9
   0  -3  -7 94.5722 11.8654   9
   0  -3  -7 118.862 11.5491   1
   0   3  -7 111.213 10.3479   7
   0   3   7 89.1929 10.6808  10
   0   3  -7 85.5929 10.1878  10
   0   3  -7 102.926 10.5171   6
   0   3   7 85.2467 11.1943   9
   0   3   7 109.334 9.86052   7
   0   3   7 87.0649 10.1561   2
   0   3   7 102.852 9.72008   5
   0   3  -7 100.537 10.6804  10
   0   3   7 112.769 10.8378  10
   0   3  -7 74.1188 9.99021   1
   1  -3   7 1.27242 1.53716   2
  -1  -3  -7 6.09785 1.68154   2
   1  -3   7 3.90978 2.15628   9
   1  -3   7 3.69051 1.76923   7
  -1  -3  -7 0.99716 2.80415  10
  -1  -3  -7 6.65372 2.96614   4
  -1  -3  -7 3.27984 1.30810   9
  -1  -3  -7 6.99388 2.93890   1
  -1  -3  -7 6.73908 2.59243   6
   1   3   7 4.92014 1.63304   1
  -1   3  -7 3.34114 1.75796  10
   1   3   7 1.82443 2.79182   9
  -1   3  -7 4.06551 2.36253   6
   1   3   7 6.29857 1.74675   5
   1   3   7 4.41932 1.88153   2
  -1   3  -7 4.00338 2.46721   1
  -1   3  -7 3.46158 1.36211  10
   1   3   7 3.84178 2.47730  10
   1   3   7 6.63128 2.07858  10
  -1   3  -7 4.71846 1.21045   9
  -1   3  -7 3.77183 1.49104   9
  -1   3  -7 5.29414 2.10552   7
   1   3   7 5.46641 1.62089   7
   2  -3   7 77.7532 8.46730   2
  -2  -3  -7 73.0530 9.50318   1
  -2  -3  -7 80.9232 10.7189   4
   2  -3   7 83.3162 8.62948   7
   2  -3   7 84.8960 8.33763   1
   2  -3   7 86.3175 10.3939   9
  -2  -3  -7 97.2680 8.62688   9
  -2  -3  -7 89.8366 9.96380   6
   2   3   7 81.7952 9.17417  10
  -2   3  -7 75.0425 8.24598   9
  -2   3  -7 67.5909 9.42391  10
  -2   3  -7 92.4820 9.86344   6
  -2   3  -7 68.0965 8.72548   7
   2   3   7 82.3207 8.28326   5
  -2   3  -7 72.7528 8.86300  10
   2   3   7 80.7168 8.26389   7
   2   3   7 83.9860 11.1697  10
   2   3   7 94.4291 10.7644   9
   2   3   7 96.8750 8.51243   1
   2   3   7 78.9038 8.77985   2
  -2   3  -7 90.6098 9.97204   1
  -2   3  -7 85.4093 9.05602   4
   2   3   7 83.6428 9.14479  10
  -3  -3  -7 35.3843 3.79204   8
  -3  -3  -7 34.9697 4.18348   9
   3  -3   7 30.9890 4.12539   1
   3  -3   7 28.2823 4.25350   7
  -3  -3  -7 33.8208 6.31658   4
   3  -3   7 39.1841 4.37579   5
  -3  -3  -7 28.9579 4.91859   1
   3  -3   7 32.5520 4.14829   2
   3  -3   7 37.8471 6.56389   9
  -3  -3  -7 31.6544 4.99179   7
   3   3   7 35.6476 4.33286  10
   3   3   7 41.2796 4.70146   2
   3   3   7 40.6247 4.64467  10
  -3   3  -7 23.1115 4.98874  10
   3   3   7 28.5617 4.15247   1
   3   3   7 33.9630 4.03805   7
   3   3   7 36.9223 6.71159  10
  -3   3  -7 30.8836 5.38169   1
  -3   3  -7 32.9276 3.86095   9
  -3   3  -7 22.6306 4.76875   6
   3   3   7 26.5787 5.43086   9
   3   3   7 28.6611 3.86570   5
  -3   3  -7 28.4948 4.69728   7
  -4  -3  -7 4.84821 1.55178   8
  -4  -3  -7 6.93235 2.53362   7
   4  -3   7 9.99223 2.38344   1
   4  -3   7 7.06723 3.38515   9
  -4  -3  -7 6.10350 3.31747   4
   4  -3   7 5.82253 2.13856   7
  -4  -3  -7 8.19608 2.77627   1
  -4   3  -7 4.85517 2.65006   6
   4   3   7 8.23701 1.87669  10
  -4   3  -7 7.34538 2.80357   1
  -4   3  -7 13.1327 3.19580   7
   4   3   7 9.28447 4.29744  10
   4   3   7 9.80409 2.20663  10
  -4   3  -7 5.16512 1.56535   9
   4   3   7 6.49944 2.11689   1
   4   3   7 6.39735 1.70988   5
   5  -3   7 16.1542 4.06625   9
  -5  -3  -7 23.6529 3.93708   7
  -5  -3  -7 10.5366 4.24750   4
  -5  -3  -7 16.2498 2.55751   8
   5  -3   7 14.9627 2.96584   7
   5  -3   7 16.8528 3.04861   1
   5  -3   7 14.8558 2.83665   5
  -5   3  -7 15.6631 2.59966   9
   5   3   7 20.0532 2.51672   9
   5   3   7 15.3872 4.36534  10
   5   3   7 16.7738 2.46100   5
   5   3   7 17.6625 2.69855   9
   5   3   7 15.3226 2.59953  10
   5   3   7 17.8200 3.11215   1
  -5   3  -7 9.71958 3.15707   7
  -5   3  -7 13.4710 3.55677   1
   5   3   7 16.3985 2.53832   7
  -6  -3  -7 348.289 26.6796   8
   6  -3   7 307.892 29.0213   9
   6  -3   7 348.346 26.9503   5
   6  -3   7 283.610 26.9883   1
  -6  -3  -7 289.535 30.6367   4
   6  -3   7 305.327 27.2094   7
   6   3   7 335.546 30.7925  10
   6   3   7 303.595 26.3089   5
   6   3   7 266.913 26.5930   7
  -6   3  -7 235.128 27.3620   1
  -6   3  -7 248.297 27.5843   7
   6   3   7 262.154 29.1051  10
   6   3   7 307.021 26.9894   1
  -7  -3  -7 36.9348 4.33623   8
   7  -3   7 35.6851 4.71530   7
   7  -3   7 38.5077 4.49018   5
   7  -3   7 34.5014 5.26585   9
   7  -3   7 26.2239 4.53390   1
  -7  -3  -7 30.1052 6.62253   4
  -7  -3  -7 39.9058 5.73951   7
   7   3   7 38.6154 4.77459  10
   7   3   7 35.3356 3.92849  10
  -7   3  -7 25.4692 4.86983   7
   7   3   7 31.0621 3.73946   5
   7   3   7 27.1322 4.56957   1
   8  -3   7 16.7139 2.79317   5
  -8  -3  -7 14.2555 4.99781   4
  -8  -3  -7 19.1435 3.87086   7
   8  -3   7 10.5199 2.98358   1
  -8  -3  -7 16.0105 2.78609   8
  -8   3  -7 10.4236 3.26324   7
   8   3   7 15.2929 3.33051   1
   9  -3   7 95.1036 10.2136   7
  -9  -3  -7 105.102 9.98754   8
   9  -3   7 93.8675 9.68011   5
  -9  -3  -7 100.398 13.1601   4
  -9  -3  -7 104.850 11.0748   7
   9  -3   7 106.726 10.6794   1
   9   3   7 96.1012 10.2858   1
  10  -3   7 243.760 22.2718   5
 -10  -3  -7 223.861 26.2586   4
  10  -3   7 255.953 23.3994   1
  10   3   7 266.707 22.9987   1
  10   3   7 234.636 22.9386   1
 -11  -3  -7 43.5646 8.04533   4
  11  -3   7 48.5771 6.43365   1
  11   3   7 41.1457 5.70173   1
 -12  -3  -7 10.8112 4.73685   4
  12  -3   7 21.4961 4.12169   1
  12   3   7 22.1442 3.68662   1
 -12   3  -7 8.34152 3.20910   7
  12  -4  -7 42.4306 6.48067   1
  11  -4  -7 97.8082 11.1535   1
  10  -4  -7 33.9309 6.06356   1
  10  -4  -7 27.8758 5.86536   6
   9  -4  -7 415.240 42.6561   6
   9  -4  -7 468.600 41.7041   1
  -9   4   7 441.170 40.1404   8
   8  -4  -7 275.641 24.6390   1
   8  -4  -7 248.317 25.0418   6
  -8   4   7 263.844 22.7761   8
  -8   4   7 189.993 23.0314   7
   7  -4  -7 234.399 25.7488   6
   7  -4  -7 312.092 25.7761   1
  -7   4   7 257.206 23.8297   8
  -7   4   7 230.988 24.3373   7
   6  -4  -7 99.1623 10.8925   1
   6  -4  -7 97.3400 8.98388  10
   6  -4  -7 98.1626 9.11432  10
   6  -4  -7 70.8079 11.1647   4
   6  -4  -7 79.9487 10.4686   6
  -6   4   7 67.8586 9.56832   7
   6   4  -7 88.8533 8.28873   6
  -6   4   7 70.4669 9.21296   8
   5  -4  -7 670.033 69.0687  10
   5  -4  -7 696.837 63.6514   7
  -5  -4   7 705.589 61.6495   8
   5  -4  -7 761.125 68.9669  10
   5  -4  -7 677.011 63.5848   1
   5  -4  -7 709.093 69.0300   4
  -5  -4   7 605.577 61.6552   8
   5  -4  -7 744.852 65.4602   6
  -5   4   7 747.084 62.9064   8
  -5   4   7 730.014 63.7079   7
   5   4  -7 732.987 63.8821   6
   4  -4  -7 954.567 82.3388   6
   4  -4  -7 757.310 86.4918   4
   4  -4  -7 738.462 87.7587  10
   4  -4  -7 796.962 81.7786   9
   4  -4  -7 969.684 87.5856  10
  -4  -4   7 994.634 78.4168   8
  -4   4   7 828.977 80.1480   7
  -4   4   7 953.596 79.4299   5
   4   4  -7 1001.58 79.1171   1
   4   4  -7 891.912 81.1352   6
  -4   4   7 958.685 79.5137   8
   3  -4  -7 277.942 31.3596   4
   3  -4  -7 290.976 28.6096   1
   3  -4  -7 298.745 29.3429   6
  -3  -4   7 270.749 27.4120   8
   3  -4  -7 334.084 28.5683   9
  -3  -4   7 334.777 27.7226   8
   3  -4  -7 351.300 30.8527  10
  -3   4   7 320.570 28.4771   7
   3   4  -7 327.259 28.0044   1
   3   4  -7 300.752 28.6003   6
  -3   4   7 273.129 27.8570   1
  -3   4   7 302.540 28.0594   5
   2  -4  -7 215.987 19.5133   9
   2  -4  -7 191.083 19.5748   1
  -2  -4   7 222.355 20.0720   2
   2  -4  -7 176.764 21.8126   4
   2  -4  -7 218.528 20.3765   6
  -2  -4   7 202.158 19.2177   7
   2  -4  -7 236.751 19.6230   2
   2   4  -7 221.087 19.7865   6
  -2   4   7 190.693 19.0518   5
   2   4  -7 211.773 19.3524   1
  -2   4   7 193.899 20.6797   9
  -2   4   7 180.451 18.9992   1
  -2   4   7 209.848 19.4205   7
   1  -4  -7 1029.94 93.4497   9
   1  -4  -7 1102.51 92.2552   2
  -1  -4   7 978.776 92.3498   2
  -1  -4   7 1073.22 90.6187   7
   1  -4  -7 926.000 90.5093   1
   1  -4  -7 954.506 100.659  10
  -1   4   7 944.998 89.6933   5
   1   4  -7 949.631 104.432   3
  -1   4   7 1028.73 89.9720   1
  -1   4   7 1073.45 94.6531   9
   1   4  -7 1029.52 92.7436   6
  -1   4   7 1129.19 90.7409   7
   0  -4  -7 1410.56 120.074   2
   0  -4   7 1367.88 117.925   7
   0  -4  -7 1398.94 121.749   9
   0  -4  -7 1345.45 117.858   1
   0  -4  -7 1537.47 121.637   6
   0  -4  -7 1103.16 126.027   4
   0  -4   7 1235.83 120.064   2
   0   4   7 1455.47 117.879   7
   0   4   7 1432.98 116.767   5
   0   4  -7 1189.50 117.478   1
   0   4  -7 1105.62 128.977  10
   0   4  -7 1240.69 136.513   3
   0   4  -7 1328.76 129.209  10
   0   4   7 1460.72 117.104   1
   0   4  -7 1436.41 117.641   7
   0   4  -7 1221.98 120.602   6
  -1  -4  -7 162.636 16.0429   4
  -1  -4  -7 152.371 15.4058   1
  -1  -4  -7 164.468 15.9783   6
  -1  -4  -7 179.345 14.9773   9
   1  -4   7 129.928 14.5730   7
   1  -4   7 136.386 14.7674   2
  -1   4  -7 151.106 14.4333   7
   1   4   7 154.474 16.0014   9
   1   4   7 147.735 14.4432   7
  -1   4  -7 143.832 15.4954  10
  -1   4  -7 142.693 15.2752   6
  -1   4  -7 160.713 16.7699   3
   1   4   7 161.985 14.4693   1
   1   4   7 186.139 16.1841  10
  -1   4  -7 138.212 15.5724  10
  -1   4  -7 145.663 14.2334   9
  -1   4  -7 143.432 14.3436   9
   1   4   7 161.118 15.3036   2
  -1   4  -7 125.644 14.8277   1
   1   4   7 163.683 14.3701   5
  -2  -4  -7 211.013 17.8689   9
   2  -4   7 153.123 17.4837   2
   2  -4   7 199.494 17.6983   7
  -2  -4  -7 160.169 17.7127   1
   2  -4   7 195.934 17.3697   1
  -2  -4  -7 204.755 19.3595   4
   2   4   7 179.460 18.8341  10
  -2   4  -7 204.974 17.9143   1
   2   4   7 182.955 17.2269   7
   2   4   7 191.240 17.9540   2
  -2   4  -7 165.502 18.0605   6
   2   4   7 191.168 17.0442   5
  -2   4  -7 209.335 18.8288  10
  -2   4  -7 161.537 18.9622  10
   2   4   7 187.975 17.2425   1
   2   4   7 209.712 19.4463   9
  -2   4  -7 163.768 17.3002   9
  -2   4  -7 155.512 17.2101   7
   3  -4   7 1023.81 89.1872   1
  -3  -4  -7 899.070 96.2339   4
   3  -4   7 1030.62 89.8423   7
   3  -4   7 1012.21 93.7406   9
  -3  -4  -7 936.201 89.3886   1
   3   4   7 1111.51 98.4858  10
   3   4   7 1095.92 93.4483   9
  -3   4  -7 1058.87 89.5811   1
   3   4   7 1114.98 89.5658   7
  -3   4  -7 1007.08 89.8617   7
   3   4   7 966.767 99.7007  10
   3   4   7 867.223 88.4101   5
  -3   4  -7 919.632 92.2483   9
  -3   4  -7 1006.04 98.9843  10
  -3   4  -7 1061.96 92.0408   6
  -4  -4  -7 813.829 81.7466   4
   4  -4   7 903.467 75.6900   1
  -4  -4  -7 905.016 74.8629   8
   4  -4   7 763.996 75.9358   7
   4  -4   7 875.140 79.2105   9
   4   4   7 829.340 75.3984   1
   4   4   7 832.915 78.5049   9
  -4   4  -7 828.717 78.1590   9
  -4   4  -7 845.269 76.2287   7
   4   4   7 971.427 83.2049  10
  -4   4  -7 902.809 75.8919   1
   4   4   7 830.792 74.8176   5
  -4   4  -7 741.709 77.7138   6
  -5  -4  -7 69.9458 8.17414   7
   5  -4   7 56.9860 7.35468   5
   5  -4   7 58.5364 7.54331   7
   5  -4   7 65.1138 7.76732   1
  -5  -4  -7 59.5481 8.95070   4
  -5  -4  -7 73.8367 7.10623   8
   5  -4   7 78.9064 8.83413   9
  -5   4  -7 80.9941 8.25256   5
   5   4   7 73.1003 6.88828   5
   5   4   7 78.2202 7.10632   7
  -5   4  -7 60.1273 7.20899   9
   5   4   7 67.6880 7.45404  10
   5   4   7 87.2827 9.22993  10
  -5   4  -7 52.2657 7.60213   1
  -5   4  -7 63.3799 7.91316   7
   5   4   7 77.4487 7.72376   1
   6  -4   7 39.1111 5.90823   1
  -6  -4  -7 43.4356 7.30100   4
   6  -4   7 36.0632 6.22873   9
   6  -4   7 48.3512 5.47572   5
  -6  -4  -7 46.8168 5.03809   8
  -6  -4  -7 41.4536 6.04800   7
   6  -4   7 36.3729 5.44434   7
   6   4   7 42.9683 6.24563  10
  -6   4  -7 49.6498 5.52670   9
  -6   4  -7 37.6606 5.84533   1
   6   4   7 44.9101 5.05525  10
  -6   4  -7 38.4930 5.97281   5
  -6   4  -7 33.9648 5.77598   7
   6   4   7 41.0390 5.57510   1
   6   4   7 50.0740 4.71382   5
   7  -4   7 553.971 54.8110   5
   7  -4   7 629.738 55.6191   7
   7  -4   7 665.257 57.9578   9
  -7  -4  -7 663.873 54.7319   8
  -7  -4  -7 682.437 60.8806   4
   7  -4   7 605.798 55.4951   1
  -7  -4  -7 735.653 56.2509   7
   7   4   7 675.172 55.3344   1
   7   4   7 589.426 54.2634   5
  -7   4  -7 522.205 55.7150   7
  -7   4  -7 580.933 55.4894   5
  -7   4  -7 525.872 55.3265   1
   8  -4   7 331.965 29.9070   1
  -8  -4  -7 331.751 30.0697   7
   8  -4   7 352.949 29.8331   7
  -8  -4  -7 339.984 29.1807   8
  -8  -4  -7 327.968 33.2317   4
   8  -4   7 308.857 29.1082   5
   8   4   7 327.475 29.6490   1
  -8   4  -7 276.075 29.6810   5
  -8   4  -7 293.575 29.8980   7
   9  -4   7 55.4005 7.05641   1
  -9  -4  -7 51.3203 6.03528   8
  -9  -4  -7 55.3954 7.17329   7
  -9  -4  -7 51.9990 8.78939   4
   9  -4   7 62.2585 6.65089   7
   9  -4   7 55.1454 6.05251   5
   9   4   7 49.6729 6.64213   1
  -9   4  -7 41.4107 6.68419   7
  10  -4   7 4.19837 1.84740   5
  10  -4   7 4.69737 2.72663   1
 -10  -4  -7 4.04308 3.66711   4
  10   4   7 1.05242 2.25600   1
 -10   4  -7 2.53676 2.09673   7
 -11  -4  -7 297.152 30.5448   4
  11  -4   7 320.323 27.5076   1
  11  -4   7 323.798 26.2116   5
  11   4   7 260.222 26.7067   1
  11   4   7 297.155 26.9273   1
 -11   4  -7 245.300 27.1725   7
 -12  -4  -7 175.034 17.7570   4
  12  -4   7 149.395 15.1956   1
  12   4   7 136.622 14.5439   1
  11  -5  -7 22.2577 4.96473   1
  10  -5  -7 271.265 26.6238   1
   9  -5  -7 49.3830 8.25976   6
   9  -5  -7 57.4871 8.69512   1
  -9   5   7 49.4184 7.55028   7
   8  -5  -7 30.3674 6.82668   6
   8  -5  -7 35.6662 6.79355   1
  -8   5   7 26.9089 5.44118   7
   7  -5  -7 44.2777 7.19617   6
   7  -5  -7 38.7798 4.30499  10
   7  -5  -7 36.8353 6.87760   1
  -7   5   7 34.5937 6.04778   7
  -6  -5   7 421.367 38.4884   8
   6  -5  -7 496.533 41.1177   1
   6  -5  -7 391.740 44.1335   4
   6  -5  -7 475.027 43.3469  10
  -6  -5   7 478.008 38.6819   8
   6  -5  -7 434.806 41.8527   6
   6  -5  -7 426.946 43.3742  10
  -6   5   7 375.619 40.5090   7
   6   5  -7 447.529 39.8126   6
   5  -5  -7 33.0392 5.27790   7
   5  -5  -7 31.6104 5.24203   6
  -5  -5   7 22.8743 3.01673   8
   5  -5  -7 25.9083 4.90221   1
   5  -5  -7 27.9468 4.14338  10
   5  -5  -7 29.0323 6.33563   4
   5  -5  -7 29.3792 2.93675   9
   5   5  -7 26.1748 3.08220   6
  -5   5   7 27.1087 4.78213   5
  -5   5   7 28.8222 5.02516   7
   4  -5  -7 210.502 22.4428   4
  -4  -5   7 205.077 18.5441   8
   4  -5  -7 200.795 19.2150   9
   4  -5  -7 205.268 20.1907   6
   4  -5  -7 247.568 21.7989  10
   4  -5  -7 167.596 19.5130   1
  -4   5   7 189.030 19.8165   7
  -4   5   7 214.637 19.6002   5
   4   5  -7 220.467 19.0955   6
   4   5  -7 196.215 18.5824   1
   3  -5  -7 13.3473 3.15088   6
   3  -5  -7 15.8265 2.49134   9
   3  -5  -7 14.5807 4.46599   4
   3  -5  -7 16.2076 3.27478   1
  -3   5   7 20.9103 3.58108   7
  -3   5   7 14.6491 3.08122   1
  -3   5   7 16.7568 3.33239   5
   3   5  -7 15.7185 2.60057   6
   3   5  -7 16.5074 2.69839   1
   2  -5  -7 388.595 44.4342   4
   2  -5  -7 404.147 41.4083   6
   2  -5  -7 432.681 40.3386   1
   2  -5  -7 491.577 41.6416   9
  -2  -5   7 481.395 40.7800   7
   2   5  -7 407.962 40.0417   1
   2   5  -7 478.256 41.2297   6
  -2   5   7 484.574 42.5776   9
  -2   5   7 466.144 40.3744   5
  -2   5   7 432.286 40.7410   7
   1  -5  -7 26.1043 3.71172   9
  -1  -5   7 28.1206 4.13159   7
   1  -5  -7 17.8937 4.32072   4
   1  -5  -7 19.9500 3.67233   1
   1  -5  -7 23.6753 3.86253   6
  -1  -5   7 29.1871 4.64850   2
  -1   5   7 24.4136 3.78004   5
   1   5  -7 23.1567 3.61360   1
   1   5  -7 24.3489 3.65162   6
  -1   5   7 18.4497 3.49197   7
  -1   5   7 22.7275 3.71469   1
  -1   5   7 19.8905 4.18462   9
   0  -5   7 622.963 54.3007   7
   0  -5   7 580.209 55.3906   2
   0  -5  -7 636.263 53.8889   1
   0  -5  -7 642.568 58.0527   4
   0  -5  -7 626.992 55.8416   9
   0   5   7 522.736 53.7068   1
   0   5  -7 494.817 54.9906   6
   0   5  -7 667.897 58.7282  10
   0   5  -7 577.101 53.5730   7
   0   5  -7 578.516 62.1253   3
   0   5   7 627.241 53.5817   5
   0   5   7 650.773 54.1687   7
   0   5  -7 594.982 53.7530   1
   1  -5   7 2.67976 1.83233   7
  -1  -5  -7 1.13658 1.73770   1
  -1  -5  -7 4.51119 2.29190   4
  -1  -5  -7 2.63963 1.55042   9
  -1   5  -7 1.18985 1.69080   1
  -1   5  -7 2.56709 1.76924   3
   1   5   7 1.28171 2.42253   9
   1   5   7 2.43718 1.64061   5
   1   5   7 2.41896 1.70721   7
   1   5   7 3.08487 1.99862   1
  -1   5  -7 0.77017 1.66099   6
  -1   5  -7 3.81741 1.22578  10
  -1   5  -7 2.59813 1.59602   7
  -1   5  -7 2.45481 1.48487  10
  -1   5  -7 2.70930 0.78914   9
  -1   5  -7 1.98206 0.80638   9
  -2  -5  -7 278.563 25.3318   1
   2  -5   7 238.652 25.4664   7
  -2  -5  -7 255.142 27.1101   4
   2   5   7 283.242 26.4296   9
  -2   5  -7 276.883 26.0590   6
   2   5   7 260.412 24.9589   5
  -2   5  -7 278.605 27.5585  10
   2   5   7 288.353 25.3498   7
  -2   5  -7 273.392 27.7626  10
  -2   5  -7 290.130 25.4411   1
  -2   5  -7 290.527 29.4371   3
  -2   5  -7 270.799 25.6018   9
   2   5   7 276.438 27.6345  10
   2   5   7 283.805 25.4158   1
  -2   5  -7 278.721 25.3595   7
   3  -5   7 218.700 24.3437   7
  -3  -5  -7 271.503 26.1503   4
   3  -5   7 229.436 24.1621   1
  -3   5  -7 244.522 24.5117   9
   3   5   7 235.293 24.1155   1
  -3   5  -7 278.502 24.3840   1
   3   5   7 233.907 26.1297  10
   3   5   7 296.937 25.3717   9
  -3   5  -7 307.027 24.5322   7
   3   5   7 261.322 23.7425   5
   3   5   7 277.562 24.1067   7
  -3   5  -7 307.584 28.5083   3
  -3   5  -7 254.713 24.8194   6
   4  -5   7 685.667 62.8259   7
  -4  -5  -7 630.470 66.9806   4
   4  -5   7 720.200 62.4658   1
   4   5   7 604.216 62.1416   1
  -4   5  -7 802.627 64.1876   6
   4   5   7 698.285 62.1965   7
  -4   5  -7 742.789 72.9895   3
   4   5   7 660.799 68.2526  10
  -4   5  -7 643.594 64.1747   9
   4   5   7 673.265 69.2324  10
  -4   5  -7 738.195 62.4273   1
   4   5   7 767.360 64.1357   9
  -4   5  -7 720.353 62.8045   7
   4   5   7 683.222 61.5497   5
   5  -5   7 13.2990 3.20772   1
  -5  -5  -7 11.8925 2.53665   8
   5  -5   7 9.40953 2.75714   7
  -5  -5  -7 11.2330 3.44721   4
   5  -5   7 12.1256 3.08232   9
  -5   5  -7 10.2038 2.93134   7
  -5   5  -7 9.23423 2.89994   5
   5   5   7 11.3656 2.36007  10
   5   5   7 7.25021 2.84651  10
  -5   5  -7 16.1385 3.25958   1
  -5   5  -7 11.1277 2.32206   9
   5   5   7 11.3813 2.86834   1
   5   5   7 13.5523 2.35149   5
   6  -5   7 88.3201 10.7865   7
   6  -5   7 90.1938 10.9975   1
  -6  -5  -7 84.1775 12.0060   4
  -6  -5  -7 97.7369 10.2969   8
   6  -5   7 111.033 11.5365   9
  -6   5  -7 104.642 11.1093   5
  -6   5  -7 108.540 10.8135   9
   6   5   7 106.666 10.0898   5
  -6   5  -7 114.603 10.9798   1
   6   5   7 110.132 10.7748  10
  -6   5  -7 106.297 11.1959   7
   6   5   7 119.840 11.1203  10
   6   5   7 110.883 11.0073   1
  -7  -5  -7 378.798 38.4516   4
   7  -5   7 314.778 35.0279   7
  -7  -5  -7 388.866 34.4966   8
   7  -5   7 397.160 35.4348   1
   7  -5   7 387.282 34.7854   5
  -7   5  -7 409.351 35.3875   5
  -7   5  -7 409.864 35.6012   7
  -7   5  -7 367.736 35.0581   1
   7   5   7 409.754 35.2916   1
   8  -5   7 388.381 38.1719   5
  -8  -5  -7 453.143 38.2097   8
   8  -5   7 412.690 38.9489   1
  -8  -5  -7 405.623 42.3622   4
   8  -5   7 404.031 38.7528   7
  -8   5  -7 409.129 38.8268   5
  -8   5  -7 442.975 39.1670   7
   8   5   7 483.069 38.8664   1
   9  -5   7 -0.2025 2.37067   1
   9  -5   7 1.76450 2.18267   7
   9  -5   7 3.86642 2.05540   5
  -9  -5  -7 9.29156 4.06660   4
  -9   5  -7 3.89708 3.48635   3
  -9   5  -7 2.22141 2.20674   7
   9   5   7 4.54458 2.78716   1
  -9   5  -7 4.80395 2.67270   5
  10  -5   7 21.4212 4.39478   1
 -10  -5  -7 28.5959 5.76514   4
  10  -5   7 15.8513 2.99971   5
  10   5   7 16.0173 3.60487   1
 -10   5  -7 14.8236 3.48958   7
  11  -5   7 248.017 23.3336   1
  11  -5   7 235.451 22.0302   5
 -11  -5  -7 271.778 25.9075   4
  11   5   7 245.950 22.8024   1
 -11   5  -7 216.789 23.0115   7
  11   5   7 247.290 22.7022   1
  11  -6  -7 6.80488 3.68767   1
  10  -6  -7 76.3016 9.82620   1
 -10   6   7 65.9791 9.24201   7
   9  -6  -7 133.364 14.0223   6
   9  -6  -7 124.109 13.7017   1
  -9   6   7 92.2567 12.3780   7
   8  -6  -7 458.020 37.2119   1
   8  -6  -7 405.884 37.7504   6
  -8   6   7 315.732 35.9002   7
   7  -6  -7 36.0075 6.21585   1
   7  -6  -7 33.0269 6.12089   6
  -7  -6   7 31.2669 3.04331   8
  -7   6   7 28.8628 5.60603   7
   6  -6  -7 190.744 16.9110   6
   6  -6  -7 171.353 16.3665   1
   6  -6  -7 154.608 16.3763  10
   6  -6  -7 162.040 15.8146   7
   6  -6  -7 142.287 17.8537   4
  -6   6   7 131.762 16.0176   7
   5  -6  -7 108.610 10.1961   9
   5  -6  -7 93.2993 13.0567   4
   5  -6  -7 94.6537 11.2925   6
   5  -6  -7 97.5152 11.3208   1
   5  -6  -7 117.025 12.0004   7
   5   6  -7 105.106 9.98274   6
  -5   6   7 109.820 11.5532   5
  -5   6   7 123.161 12.0125   7
   4  -6  -7 676.679 59.4477   9
   4  -6  -7 634.094 63.3710   4
   4  -6  -7 648.889 59.4250   6
   4  -6  -7 604.663 57.8820   1
  -4   6   7 610.735 57.8996   5
   4   6  -7 638.493 58.4038   6
   4   6  -7 690.688 56.8855   1
  -4   6   7 639.035 58.6640   7
   3  -6  -7 75.7881 8.50569   6
   3  -6  -7 72.1139 8.29727   1
   3  -6  -7 91.9274 8.22224   9
   3  -6  -7 63.7195 9.88990   4
  -3   6   7 80.9220 8.76297   1
  -3   6   7 77.3100 8.68000   5
  -3   6   7 84.4263 9.06106   7
   3   6  -7 76.9938 7.58867   1
   3   6  -7 73.2235 7.68655   6
   2  -6  -7 323.333 32.9010   1
   2  -6  -7 360.965 34.2165   9
   2  -6  -7 377.135 36.4619   4
  -2   6   7 375.924 33.2726   5
   2   6  -7 356.537 32.6244   1
  -2   6   7 404.519 33.6128   1
   2   6  -7 357.510 33.4514   6
  -2   6   7 391.037 34.6649   9
  -2   6   7 345.074 33.6587   7
   1  -6  -7 103.134 10.1300   9
   1  -6  -7 91.8605 10.8664   4
  -1  -6   7 102.450 10.3013   7
   1  -6  -7 88.2115 9.61653   1
  -1   6   7 95.4790 10.1518   7
   1   6  -7 102.292 9.64843   6
  -1   6   7 83.2003 9.75563   5
   1   6  -7 96.0368 9.44692   1
  -1   6   7 98.9001 10.3805   9
   0  -6   7 749.152 65.3571   7
   0  -6  -7 718.550 69.3456   4
   0  -6  -7 667.013 64.2662   1
   0  -6  -7 733.573 67.1274   9
   0   6   7 761.710 65.0255   7
   0   6  -7 654.810 70.3070  10
   0   6  -7 706.261 64.1903   1
   0   6  -7 744.065 70.3631  10
   0   6  -7 784.072 65.9920   6
   0   6   7 647.797 64.6097   1
   0   6   7 782.866 64.4013   5
   0   6   7 745.546 67.3002   9
  -1  -6  -7 129.690 13.5504   4
   1  -6   7 147.194 13.5602   7
  -1  -6  -7 117.526 12.5713   1
  -1   6  -7 116.957 12.2728   7
  -1   6  -7 128.515 12.8135   6
  -1   6  -7 128.969 12.5701   1
  -1   6  -7 127.071 14.1813   3
   1   6   7 123.516 13.0566   1
   1   6   7 146.728 12.8609   5
  -1   6  -7 117.335 13.1722  10
   1   6   7 143.516 13.2603   9
   1   6   7 145.657 13.0321   7
  -1   6  -7 134.304 13.3374  10
   2  -6   7 486.204 46.3346   7
  -2  -6  -7 514.623 48.9842   4
  -2   6  -7 556.806 50.3395  10
   2   6   7 493.439 50.2775  10
   2   6   7 449.492 45.8733   1
  -2   6  -7 515.667 46.8123   6
  -2   6  -7 501.367 46.7136   9
  -2   6  -7 531.785 53.1459   3
   2   6   7 473.985 47.2232   9
   2   6   7 537.224 45.4852   5
  -2   6  -7 492.835 46.7659   9
  -2   6  -7 579.885 45.8927   7
   2   6   7 548.595 46.0561   7
  -2   6  -7 439.127 45.4231   1
   3  -6   7 89.7516 10.7591   7
  -3  -6  -7 102.192 10.9878   4
  -3   6  -7 83.6759 9.86810   9
   3   6   7 114.682 10.6223   9
   3   6   7 102.919 11.0725  10
  -3   6  -7 106.569 10.5760   6
   3   6   7 96.9997 10.0383   5
   3   6   7 105.642 10.7982   1
   3   6   7 103.121 10.3112   7
  -3   6  -7 100.329 11.9883   3
  -3   6  -7 105.384 10.2930   1
  -3   6  -7 121.993 10.5838   7
  -4  -6  -7 418.461 40.5124   4
   4  -6   7 339.742 37.7913   1
   4   6   7 454.520 37.7500   7
   4   6   7 439.810 37.3604   5
  -4   6  -7 396.132 44.1246   3
  -4   6  -7 409.143 37.6259   1
  -4   6  -7 465.557 38.2113   7
  -4   6  -7 431.184 38.7801   9
   4   6   7 444.920 38.1293   1
   4   6   7 377.483 41.5161  10
   4   6   7 407.307 41.2810  10
  -5  -6  -7 77.6671 9.75366   4
   5  -6   7 105.117 9.95928   1
   5  -6   7 70.8836 9.30550   7
   5   6   7 96.2071 9.31599  10
  -5   6  -7 62.3645 10.3190   3
   5   6   7 100.781 8.79813   5
  -5   6  -7 89.1035 9.16711   5
  -5   6  -7 83.4921 9.23910   7
   5   6   7 77.3600 9.18198   1
   5   6   7 89.0020 9.43436  10
  -5   6  -7 79.6487 8.70847   9
  -5   6  -7 77.7351 8.80142   1
  -6  -6  -7 400.569 39.7531   4
   6  -6   7 445.317 37.4585   1
   6  -6   7 441.278 38.2738   9
  -6   6  -7 385.768 36.6249   1
   6   6   7 364.659 36.7551   1
  -6   6  -7 416.427 37.8571   9
  -6   6  -7 429.578 43.3755   3
  -6   6  -7 352.707 36.9508   7
   7  -6   7 106.292 11.1290   7
   7  -6   7 94.7274 10.6718   5
   7  -6   7 118.410 11.7934   1
  -7  -6  -7 96.2777 11.9588   4
  -7   6  -7 128.635 13.5433   3
  -7   6  -7 121.426 11.3212   5
  -7   6  -7 87.4674 10.8169   7
  -7   6  -7 92.7733 10.6513   1
   7   6   7 106.262 11.0633   1
   8  -6   7 173.677 18.2036   7
   8  -6   7 237.854 19.2275   1
  -8  -6  -7 199.350 20.2296   4
   8  -6   7 147.328 17.6168   5
  -8   6  -7 200.640 22.1113   3
  -8   6  -7 205.339 18.5212   7
  -8   6  -7 195.985 18.3895   5
   8   6   7 176.126 18.2199   1
   9  -6   7 26.2113 4.24833   7
   9  -6   7 21.9752 3.77204   5
   9  -6   7 25.6345 4.86020   1
  -9  -6  -7 27.1891 5.65718   4
  -9   6  -7 23.0422 4.31715   7
  -9   6  -7 25.1454 4.55185   5
   9   6   7 24.5859 4.54256   1
 -10  -6  -7 185.248 20.6321   4
  10  -6   7 181.372 17.8900   5
  10  -6   7 197.834 19.0820   1
 -10   6  -7 191.839 18.6815   7
 -10   6  -7 228.201 18.9940   5
  10   6   7 174.705 18.4925   1
  11  -6   7 93.2151 9.76246   5
 -11  -6  -7 99.2889 12.2890   4
  11  -6   7 100.658 11.1298   1
  11   6   7 107.740 10.7195   1
  10  -7  -7 331.575 29.4079   1
 -10   7   7 268.429 29.2862   7
  -9  -7   7 9.35103 1.23960   8
   9  -7  -7 16.4356 4.84473   1
  -9   7   7 8.48879 3.67347   7
  -8  -7   7 32.8465 3.36888   8
   8  -7  -7 30.4626 6.09883   1
  -8   7   7 32.6556 6.03830   7
  -7  -7   7 103.047 10.0379   8
   7  -7  -7 111.777 12.2579   1
  -7   7   7 120.268 12.4321   7
   6  -7  -7 320.113 28.8212   7
   6  -7  -7 328.546 28.9027   1
   6  -7  -7 277.800 31.2992   4
  -6   7   7 325.288 29.3747   7
  -6   7   7 268.993 28.7328   5
   5  -7  -7 0.06217 2.97060   4
   5  -7  -7 3.18567 2.56614   7
   5  -7  -7 3.09345 2.34016   1
  -5   7   7 4.39855 2.72603   5
   5   7  -7 2.38188 1.15343   6
  -5   7   7 -0.6885 2.24575   7
   4  -7  -7 162.558 14.8649   1
   4  -7  -7 145.601 17.0339   4
   4   7  -7 145.997 14.0080   6
  -4   7   7 131.291 15.0013   5
   4   7  -7 156.259 13.6782   1
  -4   7   7 163.025 15.6619   7
  -4   7   7 138.963 15.2446   1
   3  -7  -7 82.4585 9.62704   4
   3  -7  -7 74.0725 7.89275   9
   3  -7  -7 81.7341 7.99424   1
  -3   7   7 63.4396 8.60253   7
  -3   7   7 70.2151 8.61022   1
   3   7  -7 72.8370 7.12917   6
   3   7  -7 68.1871 6.98760   1
  -3   7   7 61.9055 8.28002   5
   2  -7  -7 224.202 21.6162   1
   2  -7  -7 261.571 24.0275   4
   2  -7  -7 225.880 22.5582   9
   2   7  -7 225.613 21.6830   6
   2   7  -7 258.506 21.2457   1
  -2   7   7 221.173 22.1255   5
  -2   7   7 214.791 22.3410   1
  -2   7   7 219.079 22.4674   7
  -2   7   7 251.891 22.5601   9
  -1  -7   7 40.1202 5.30838   7
   1  -7  -7 46.0254 5.83368   4
   1  -7  -7 32.7968 5.06059   9
   1  -7  -7 36.1615 4.64543   1
  -1  -7   7 36.4401 4.96826   8
   1   7  -7 41.3030 4.29712   6
   1   7  -7 27.5582 4.03015   1
  -1   7   7 40.2542 5.86911   1
  -1   7   7 32.1001 5.32558   7
  -1   7   7 36.6831 4.77671   9
  -1   7   7 36.1189 5.36676   5
   0  -7   7 322.279 33.4031   7
   0  -7  -7 416.491 32.8881   1
   0  -7  -7 376.803 35.2967   4
   0   7  -7 374.135 33.3592   6
   0   7  -7 329.910 32.4210   1
   0   7   7 296.378 32.8247   5
   0   7   7 383.976 33.5959   7
   0   7   7 371.277 33.9900   9
   0   7   7 392.171 33.6668   1
   1  -7   7 3.04608 2.61099   7
  -1  -7  -7 3.88813 1.95734   4
   1   7   7 0.99030 1.47664   9
  -1   7  -7 1.37113 1.07456  10
   1   7   7 2.29939 1.90379   5
   1   7   7 5.29708 2.69240   1
  -1   7  -7 2.65808 1.11557  10
  -1   7  -7 1.73865 1.33596   3
  -1   7  -7 0.02410 1.22597   1
  -1   7  -7 2.12632 1.45796   6
   1   7   7 0.36415 2.00647   7
  -2  -7  -7 140.661 13.4683   4
   2  -7   7 143.487 13.7552   7
   2   7   7 143.591 13.4804   1
  -2   7  -7 131.708 12.4966   7
   2   7   7 119.646 12.6728   5
   2   7   7 136.742 12.7652   9
  -2   7  -7 119.869 12.5972   6
  -2   7  -7 128.076 12.0456   9
  -2   7  -7 116.728 14.1349   3
   2   7   7 129.776 13.0640   7
  -2   7  -7 122.874 13.4365  10
  -2   7  -7 132.001 12.4189   1
   3  -7   7 210.120 19.8831   7
  -3  -7  -7 192.945 20.0803   4
  -3   7  -7 183.334 18.9169   9
  -3   7  -7 192.361 18.8715   9
   3   7   7 184.905 19.0205   7
  -3   7  -7 197.472 19.1371   6
  -3   7  -7 232.290 19.0976   7
   3   7   7 192.068 20.6634  10
  -3   7  -7 209.416 18.7379   1
   3   7   7 200.403 18.8768   5
   3   7   7 240.642 19.7533   1
   4  -7   7 419.199 43.3325   7
  -4  -7  -7 502.890 45.5236   4
   4   7   7 492.161 46.7135  10
  -4   7  -7 448.363 42.7520   7
   4   7   7 464.261 46.6818  10
  -4   7  -7 434.576 49.5618   3
   4   7   7 544.576 43.2584   1
   5  -7   7 32.1208 5.28460   7
  -5  -7  -7 31.5096 4.58252   4
   5  -7   7 23.2341 4.65189   1
  -5   7  -7 21.1206 3.66936   1
  -5   7  -7 22.0883 4.49627   3
   5   7   7 27.9716 4.67888   1
   5   7   7 36.2657 4.50379   5
  -5   7  -7 21.6543 3.90608   5
  -5   7  -7 19.5770 3.89730   7
  -6  -7  -7 69.7965 8.26997   4
   6  -7   7 59.6726 8.21518   7
   6  -7   7 70.8686 8.44362   1
  -6   7  -7 65.2489 7.76922   7
   6   7   7 62.7013 7.91791   1
  -6   7  -7 63.8014 9.06443   3
  -6   7  -7 78.7325 7.97367   5
  -6   7  -7 68.9714 7.54084   1
   7  -7   7 242.668 23.2740   1
   7  -7   7 216.489 22.5481   5
   7  -7   7 241.401 23.0946   7
  -7  -7  -7 234.365 24.3247   4
  -7   7  -7 211.763 22.6086   7
   7   7   7 244.165 22.7395   1
  -7   7  -7 270.977 22.6001   1
  -7   7  -7 262.025 22.7586   5
   8  -7   7 317.711 31.7476   7
   8  -7   7 374.447 32.2921   1
   8  -7   7 310.461 31.1869   5
  -8   7  -7 366.833 31.7881   7
  -8   7  -7 356.114 31.5228   5
   8   7   7 330.401 31.5035   1
   9  -7   7 13.7174 3.46433   7
   9  -7   7 12.8292 3.07319   5
  -9  -7  -7 19.2337 4.45646   4
   9  -7   7 16.2167 4.32674   1
  -9   7  -7 13.8066 3.53685   5
  -9   7  -7 17.5598 3.55187   7
   9   7   7 13.7931 3.61717   1
  10  -7   7 18.1129 4.47354   1
 -10  -7  -7 34.8313 5.60342   4
  10  -7   7 24.7502 4.03118   5
  10   7   7 26.0544 4.58439   1
   9  -8  -7 1.89850 2.96199   1
  -9  -8   7 1.22199 0.65758   8
   8  -8  -7 220.264 21.0250   1
  -8  -8   7 204.699 18.5168   8
  -8   8   7 208.963 20.9936   7
   7  -8  -7 395.904 36.9005   1
  -7  -8   7 370.527 34.8265   8
  -7   8   7 374.153 37.1872   7
  -7   8   7 468.833 37.4834   5
   6  -8  -7 374.193 35.2777   1
   6  -8  -7 351.103 38.2848   4
   6  -8  -7 408.630 35.6773   7
  -6  -8   7 381.172 33.7354   8
  -6   8   7 377.478 35.9629   7
  -6   8   7 396.224 35.8224   5
   5  -8  -7 2.67357 2.31713   1
   5  -8  -7 3.10823 2.98747   4
   5  -8  -7 -0.9774 2.46303   7
  -5  -8   7 4.80706 1.49138   8
   5   8  -7 1.52188 1.17020   6
  -5   8   7 3.83232 2.91438   7
  -5   8   7 -2.4174 2.34905   5
  -4  -8   7 184.898 16.1245   8
   4  -8  -7 175.710 18.5764   4
   4  -8  -7 159.776 16.5855   1
  -4   8   7 191.811 17.8566   1
  -4   8   7 183.160 17.6369   5
  -4   8   7 165.873 17.6798   7
   4   8  -7 163.440 16.1502   6
   3  -8  -7 544.171 45.9971   1
  -3  -8   7 524.791 45.6085   8
   3  -8  -7 486.204 49.8583   4
  -3   8   7 469.691 47.0600   7
  -3   8   7 512.462 47.9596   9
  -3   8   7 495.194 46.6074   5
   3   8  -7 570.463 45.3664   1
  -3   8   7 522.327 47.0689   1
   3   8  -7 470.716 46.5508   6
  -2  -8   7 511.438 47.8778   8
   2  -8  -7 556.705 50.4375   9
   2  -8  -7 538.922 51.9414   4
   2  -8  -7 541.613 48.1336   1
  -2   8   7 505.144 49.2102   7
   2   8  -7 522.368 47.5860   1
  -2   8   7 609.472 49.4422   1
   2   8  -7 531.287 48.9478   6
  -1  -8   7 4.07464 2.08607   7
   1  -8  -7 3.79852 2.18012   4
   1  -8  -7 4.74648 1.90653   1
  -1  -8   7 8.47715 2.19553   8
  -1   8   7 4.28455 2.58407   7
  -1   8   7 1.98628 2.27553   5
   1   8  -7 1.13588 1.27096   1
  -1   8   7 4.22981 2.83548   1
   1   8  -7 2.92855 1.38668   6
   0  -8   7 122.481 13.3847   7
   0   8   7 129.455 13.8522   1
   0   8   7 126.045 13.3798   5
   0   8  -7 141.200 12.8924   6
   0   8  -7 129.750 12.5448   1
   0   8   7 148.189 13.8749   7
   1  -8   7 337.467 34.7620   7
  -1  -8  -7 353.299 36.4130   4
   1   8   7 367.991 34.9222   1
   1   8   7 343.413 34.3141   5
   1   8   7 409.148 35.0105   7
  -1   8  -7 409.146 34.7995   6
  -1   8  -7 408.513 36.8601  10
  -1   8  -7 370.199 33.8213   1
  -2  -8  -7 690.803 65.7725   4
   2  -8   7 700.528 62.6650   7
   2   8   7 651.047 62.0134   1
   2   8   7 729.075 61.6825   5
   2   8   7 723.598 62.2562   7
  -2   8  -7 647.663 62.8241   6
  -3  -8  -7 3.88076 1.92787   4
   3  -8   7 5.51919 2.84260   7
   3   8   7 3.21743 2.51282   1
  -3   8  -7 5.77260 2.04904   7
  -3   8  -7 3.86380 1.75431   1
  -3   8  -7 2.78237 1.63381   6
   3   8   7 2.04195 2.16678   5
  -3   8  -7 6.49418 2.06603   3
   4  -8   7 156.547 17.3849   7
  -4  -8  -7 150.230 17.3202   4
   4   8   7 208.424 16.6149   5
   4   8   7 178.145 17.0215   1
  -4   8  -7 169.715 18.8616   3
  -4   8  -7 144.667 16.0295   1
  -4   8  -7 209.754 16.7947   7
   5  -8   7 189.161 21.8620   7
  -5  -8  -7 252.415 22.5685   4
  -5   8  -7 192.379 24.3080   3
   5   8   7 197.596 21.4804   1
  -5   8  -7 256.904 21.2041   5
  -5   8  -7 226.726 20.8688   1
  -5   8  -7 257.416 21.4576   7
  -6  -8  -7 727.132 62.8020   4
   6  -8   7 588.983 59.5543   7
   6   8   7 732.060 59.1120   1
  -6   8  -7 560.826 58.2559   1
  -6   8  -7 670.934 59.0128   7
  -6   8  -7 651.309 58.4252   5
   7  -8   7 2.53862 2.43287   7
  -7  -8  -7 3.17765 2.23595   4
   7  -8   7 6.40326 2.86135   1
  -7   8  -7 2.25365 2.14631   1
   7   8   7 2.80415 2.40355   1
  -7   8  -7 2.26118 2.02823   5
  -7   8  -7 4.89158 2.38456   7
   8  -8   7 154.447 15.9781   1
   8  -8   7 123.104 15.0933   5
  -8  -8  -7 173.335 16.5164   4
   8  -8   7 158.885 15.8443   7
   8   8   7 126.907 15.1212   1
  -8   8  -7 180.924 15.5556   7
  -8   8  -7 177.869 15.4386   5
   9  -8   7 124.681 12.3162   7
   9  -8   7 123.752 12.5766   1
   9  -8   7 95.7491 11.4447   5
   9   8   7 120.690 11.9624   1
   8  -9  -7 6.92535 3.15662   1
  -8  -9   7 6.01612 1.10813   8
  -8   9   7 2.14687 2.96801   5
   7  -9  -7 21.1123 4.36147   1
  -7  -9   7 22.4132 2.58394   8
  -7   9   7 27.2772 5.28995   7
  -7   9   7 30.2893 5.61893   5
   6  -9  -7 98.1180 10.6794   7
   6  -9  -7 106.935 10.5663   1
  -6  -9   7 91.5343 8.85324   8
  -6   9   7 82.8754 10.9317   5
  -6   9   7 109.079 11.4378   7
   5  -9  -7 16.1507 3.85853   7
   5  -9  -7 9.90833 3.54091   4
  -5  -9   7 14.0335 2.05236   8
   5  -9  -7 9.29084 2.74641   1
  -5   9   7 16.4061 4.12545   7
  -5   9   7 18.2899 4.27323   5
  -4  -9   7 3.45370 1.31262   8
   4  -9  -7 1.70700 2.13614   7
   4  -9  -7 2.29581 1.86195   1
   4  -9  -7 1.31052 2.19426   4
  -4   9   7 -0.0534 2.31550   5
  -4   9   7 -0.2050 2.28901   7
  -4   9   7 1.84214 2.71342   1
   4   9  -7 2.08993 1.28745   1
   4   9  -7 5.11001 1.35805   6
   3  -9  -7 17.4529 3.79079   4
   3  -9  -7 22.1793 3.53078   1
  -3  -9   7 22.9325 3.05536   8
  -3   9   7 18.2041 4.20591   5
   3   9  -7 20.1413 2.80204   6
  -3   9   7 19.7192 4.33470   7
  -3   9   7 22.1725 4.88816   1
   3   9  -7 18.5597 2.68015   1
   2  -9  -7 80.9285 7.81071   4
  -2  -9   7 61.1768 6.47731   8
   2  -9  -7 56.2267 6.71927   1
  -2   9   7 44.4193 7.55976   5
   2   9  -7 55.2874 6.29153   6
  -2   9   7 67.7703 8.37261   1
   2   9  -7 68.3905 6.37656   1
  -2   9   7 62.6095 8.15802   7
  -1  -9   7 25.5457 3.92579   7
   1  -9  -7 32.3931 4.24861   4
  -1  -9   7 22.7323 3.43921   8
   1   9  -7 20.8806 3.14042   1
  -1   9   7 25.1995 5.01411   1
  -1   9   7 23.6178 4.67505   7
  -1   9   7 17.7461 4.15884   5
   1   9  -7 24.5218 3.31318   6
   0  -9   7 4.57787 2.21639   7
   0  -9  -7 6.18674 2.28566   4
   0   9  -7 6.37316 1.70620   6
   0   9   7 3.36194 2.42685   5
   0   9  -7 2.38634 1.50277   1
   0   9   7 8.29343 3.10383   7
   0   9   7 10.2598 3.35230   1
   1  -9   7 8.02331 2.63021   7
  -1  -9  -7 10.1970 2.57674   4
   1   9   7 12.4491 3.73270   1
   1   9   7 8.52792 3.04861   7
   1   9   7 6.65570 2.74684   5
  -1   9  -7 7.86131 2.09221   1
  -1   9  -7 10.1531 2.13796   6
   2  -9   7 9.06303 3.01768   7
  -2  -9  -7 2.56747 1.83297   4
  -2   9  -7 3.32473 1.63202   6
   2   9   7 4.08346 2.67144   1
   2   9   7 6.99695 2.52830   5
  -2   9  -7 4.57781 1.84331   1
  -3  -9  -7 20.5136 3.25352   4
   3  -9   7 10.3285 3.40436   7
   3   9   7 12.8273 3.50740   1
   3   9   7 19.3937 3.38244   5
  -3   9  -7 11.9895 2.62708   1
   4  -9   7 37.2620 6.44002   7
  -4  -9  -7 48.3969 5.50270   4
  -4   9  -7 52.2009 5.60757   7
  -4   9  -7 37.4060 5.63098   3
   4   9   7 37.9948 6.00924   1
  -4   9  -7 37.1261 5.08589   1
  -5  -9  -7 5.38740 2.19503   4
   5  -9   7 2.17296 2.61755   7
  -5   9  -7 1.67294 1.79883   1
   5   9   7 1.95686 2.48238   1
  -5   9  -7 2.94817 2.17902   7
   6  -9   7 13.4813 4.01925   7
  -6   9  -7 15.4886 3.16803   1
   6   9   7 15.6743 3.79325   1
  -6   9  -7 15.2696 3.29665   7
   7  -9   7 15.7813 4.16211   7
  -7   9  -7 29.6220 4.27845   7
   7   9   7 19.3571 4.07604   1
  -7   9  -7 26.7024 3.94033   1
   8  -9   7 60.1348 8.28358   5
   8   9   7 88.9582 8.68262   1
  -6 -10   7 245.321 24.3659   8
   6 -10  -7 301.339 26.2820   7
  -6  10   7 304.148 26.6890   5
   5 -10  -7 21.3666 3.75683   7
   5 -10  -7 26.2346 3.91816   1
   5 -10  -7 21.8731 4.00967   4
  -5 -10   7 18.7322 2.55949   8
  -5  10   7 21.9836 4.74207   5
  -5  10   7 21.4194 4.67037   7
   4 -10  -7 288.189 28.5042   4
   4 -10  -7 304.273 26.9729   7
  -4 -10   7 258.989 25.6325   8
   4 -10  -7 305.314 26.4847   1
  -4  10   7 280.354 27.5196   7
   4  10  -7 277.585 25.7708   1
  -4  10   7 322.093 27.4974   5
   3 -10  -7 447.197 40.0692   4
   3 -10  -7 344.523 37.1867   1
  -3 -10   7 422.906 36.5895   8
  -3  10   7 442.742 38.4556   1
   3  10  -7 388.662 36.6049   1
  -3  10   7 432.127 38.4492   7
  -3  10   7 423.748 37.9764   5
   2 -10  -7 629.904 54.4159   4
  -2  10   7 479.873 51.4452   7
  -2  10   7 586.928 51.7284   1
   2  10  -7 562.453 50.0469   1
   1 -10  -7 28.7439 4.03150   4
   1  10  -7 21.3671 2.99541   1
  -1  10   7 22.7743 4.40011   7
   1  10  -7 19.5125 3.00964   6
  -1  10   7 17.9763 3.97364   5
  -1  10   7 24.9995 4.83997   1
   0 -10   7 311.072 28.4273   7
   0  10  -7 304.429 27.8433   1
   0  10   7 329.188 29.4344   1
   0  10   7 310.481 28.6560   5
   0  10  -7 310.150 28.6275   6
   0  10   7 295.182 29.0647   7
   1 -10   7 527.386 48.4535   7
  -1  10  -7 483.168 47.5780   1
   1  10   7 592.035 48.2785   5
  -1  10  -7 550.272 49.0088   6
   1  10   7 532.703 48.9056   1
   2 -10   7 557.476 50.7351   7
   2  10   7 603.184 50.1390   5
  -2  10  -7 524.605 49.7183   1
   2  10   7 569.136 50.8547   1
  -2  10  -7 547.497 51.1518   6
   3 -10   7 16.3650 3.54576   7
   3  10   7 11.8337 3.38464   1
   3  10   7 15.5129 3.06764   5
  -3  10  -7 13.9825 2.74056   1
   4 -10   7 178.289 18.2186   7
   4  10   7 182.392 17.9307   1
  -4  10  -7 187.569 17.1752   1
   5 -10   7 390.526 41.7530   7
  -5  10  -7 486.951 40.5896   1
   5  10   7 468.853 41.2705   1
  -6  10  -7 432.544 35.8933   1
   6  10   7 357.795 36.2825   1
   4 -11  -7 71.8806 8.29449   4
  -4 -11   7 78.5746 7.06755   8
   4  11  -7 68.6545 7.16018   1
  -4  11   7 70.0969 8.74332   5
   3 -11  -7 1.87661 1.88954   4
  -3  11   7 -0.4108 2.31953   5
   3  11  -7 2.13491 1.31258   1
  -3  11   7 -2.0062 2.55273   1
  -3  11   7 1.41122 2.63764   7
   2 -11  -7 52.0838 6.11284   4
  -2  11   7 57.8339 7.08478   7
  -2  11   7 49.8216 7.05242   1
   2  11  -7 40.0454 5.06097   1
  -2  11   7 50.1649 6.67119   5
   1 -11  -7 12.3454 2.84641   4
  -1  11   7 12.8848 3.33095   5
  -1  11   7 11.9138 3.73896   1
   1  11  -7 15.9850 2.48512   1
   0 -11   7 32.7745 4.10142   7
   0  11   7 27.3908 5.29293   1
   0  11  -7 30.3368 3.89864   1
   0  11   7 29.5637 4.70789   5
   1 -11   7 33.8733 4.28575   7
  -1  11  -7 28.9860 3.94908   1
   1  11   7 33.5209 5.43219   1
   1  11   7 28.3449 4.53706   5
   2 -11   7 62.5361 8.05961   7
   2  11   7 72.1534 8.11928   5
  -2  11  -7 92.2956 8.01519   1
   2  11   7 85.3288 9.25460   1
   3  11   7 1.66439 2.57386   1
  -3  11  -7 -0.2122 1.56126   1
   4  11   7 4.56956 2.65378   1
  -4  11  -7 3.69838 1.92256   1
 -12   0   8 14.4388 2.97336   8
 -11   0   8 3.93539 1.88434   8
  11   0  -8 7.25905 2.35298   6
 -10   0   8 1194.55 115.995   8
  10   0  -8 1450.00 119.823   6
   9   0  -8 158.136 13.8296   6
  -9   0   8 118.588 13.1232   8
  -8   0   8 129.302 12.6241   8
   8   0  -8 128.408 12.9296   6
  -7   0   8 6.69426 2.19141   8
   7   0  -8 4.83867 2.51949   1
   7   0  -8 5.49580 2.24166   6
   6   0  -8 3313.85 281.948   1
   6   0  -8 3013.20 289.645   6
  -6   0   8 3320.04 280.573   8
  -5   0   8 398.735 34.0423   8
   5   0  -8 376.072 34.4395   1
   5   0  -8 340.337 35.2285   6
   5   0  -8 407.439 37.1138   4
   4   0  -8 367.291 38.5110   4
   4   0  -8 419.943 37.0993   6
   4   0  -8 382.015 36.0139   1
  -4   0   8 409.807 35.7972   7
  -4   0   8 416.241 35.8620   8
   3   0  -8 43.5838 5.03172   6
   3   0  -8 26.8486 4.60995   4
   3   0  -8 40.7053 5.02849   1
  -3   0   8 43.5478 5.10267   8
  -3   0   8 39.9284 4.28589   7
  -2   0   8 5989.75 508.049   2
   2   0  -8 5478.87 496.194   1
  -2   0   8 5605.78 494.416   8
  -2   0   8 5860.76 499.298   7
   2   0  -8 5413.17 549.784  10
  -1   0   8 392.946 39.1370   7
   1   0  -8 474.030 40.2415   9
  -1   0   8 409.585 39.6315   2
  -1   0   8 507.484 42.6268   9
   1   0  -8 412.084 42.5591   4
  -1   0   8 450.276 38.9015   5
   1   0  -8 428.932 39.5956   2
   1   0  -8 451.123 42.8618  10
   1   0  -8 446.532 40.0868   9
   1   0  -8 435.645 40.5429   6
  -1   0   8 428.604 39.8660   8
   0   0   8 655.396 55.2018   8
   0   0   8 642.008 55.2440   2
   0   0  -8 546.972 55.9962   6
   0   0   8 579.463 58.1786   9
   0   0   8 562.082 53.8405   5
   0   0  -8 651.561 56.0118   9
   0   0   8 518.727 59.7842  10
   0   0  -8 676.435 62.0682  10
   0   0  -8 650.013 54.7065   1
   0   0  -8 664.585 55.1995   2
   0   0  -8 600.774 56.7014   9
   0   0   8 529.640 54.3734   7
   0   0  -8 665.348 59.7421  10
  -1   0  -8 273.152 25.8876   6
   1   0   8 281.804 27.5494   9
   1   0   8 264.941 24.6578   7
   1   0   8 299.869 24.4371   5
   1   0   8 330.896 26.5945   8
   1   0   8 271.039 24.9563   2
  -1   0  -8 220.860 24.9141   1
  -1   0  -8 291.320 29.3406  10
  -1   0  -8 250.739 26.8926  10
  -1   0  -8 265.601 24.8458   2
   1   0   8 256.713 28.3561  10
  -1   0  -8 253.424 25.6772   7
   1   0   8 262.966 24.4365   1
  -1   0  -8 271.910 25.1813   9
  -1   0  -8 338.079 29.0261   4
   2   0   8 4475.24 422.773   2
  -2   0  -8 5257.38 457.267  10
  -2   0  -8 4886.48 444.991   4
   2   0   8 4752.43 411.184   5
  -2   0  -8 4907.27 429.551   9
  -2   0  -8 4248.79 416.173   7
   2   0   8 4704.91 412.319   1
  -2   0  -8 4656.67 422.709   2
  -2   0  -8 4473.50 413.197   1
  -2   0  -8 4177.80 424.586   6
   2   0   8 5286.46 457.286  10
  -3   0  -8 347.858 30.2267   9
  -3   0  -8 343.804 31.4631   6
   3   0   8 337.249 29.8708   2
   3   0   8 273.161 32.2576   9
  -3   0  -8 362.071 31.0320   7
  -3   0  -8 307.170 30.4603   1
   3   0   8 343.838 32.3360  10
   3   0   8 338.311 28.9837   5
   3   0   8 298.449 29.2510   7
  -3   0  -8 291.524 33.4093   4
   3   0   8 301.434 29.0574   1
   4   0   8 430.342 37.8709  10
   4   0   8 354.400 34.1599   1
  -4   0  -8 467.208 36.4765   7
  -4   0  -8 336.391 35.4987   1
   4   0   8 384.349 34.3813   7
   4   0   8 321.951 33.8614   5
   4   0   8 413.117 34.2626   1
  -4   0  -8 360.650 35.4742   9
  -4   0  -8 392.407 39.7458   4
   4   0   8 368.968 35.0180   2
   4   0   8 409.508 38.5138   9
  -5   0  -8 209.151 20.0582   7
   5   0   8 198.656 18.0828   1
   5   0   8 190.372 19.7451  10
  -5   0  -8 221.909 22.8147   4
   5   0   8 183.318 17.8087   5
  -5   0  -8 196.173 20.1467   1
   5   0   8 204.324 18.0949   7
   5   0   8 179.948 20.3821   9
  -6   0  -8 2442.78 207.482   7
   6   0   8 2133.30 204.363   1
   6   0   8 2541.01 226.363  10
  -6   0  -8 2128.75 221.885   4
   6   0   8 2486.08 203.647   5
   6   0   8 2235.24 205.488   7
   6   0   8 2428.00 204.508   1
   6   0   8 2227.22 213.635   9
   7   0   8 385.562 34.2873   5
  -7   0  -8 414.317 36.8030   7
   7   0   8 388.783 34.8211   1
   7   0   8 395.821 34.6489   7
   7   0   8 334.356 37.8983  10
  -7   0  -8 392.010 40.2077   4
   7   0   8 404.410 36.0729   9
  -8   0  -8 171.543 20.0045   4
  -8   0  -8 155.067 17.4151   7
   8   0   8 195.329 16.0936   1
   8   0   8 168.502 15.3159   5
   8   0   8 151.165 16.7719  10
   9   0   8 7.12344 1.70817   5
  -9   0  -8 4.08252 3.35592   7
  -9   0  -8 6.79831 4.70111   4
   9   0   8 5.19411 2.27188   1
 -10   0  -8 778.882 72.2694   7
  10   0   8 823.342 70.9676   1
 -10   0  -8 779.899 78.1798   4
 -11   0  -8 396.339 36.5112   7
  11   0   8 438.180 35.5593   1
 -11   0  -8 317.143 39.3933   4
 -12   0  -8 42.1915 6.53179   7
  12   0   8 40.8844 5.59839   1
 -12   0  -8 36.1365 7.35377   4
 -12  -1   8 4.39211 1.72850   8
 -12   1   8 1.46092 2.05278   8
 -11  -1   8 40.5436 4.79426   8
 -11   1   8 33.2221 5.26358   8
  11   1  -8 45.0660 4.62472   6
 -10  -1   8 4.20708 1.77304   8
  10  -1  -8 4.84747 2.58965   6
 -10   1   8 1.37899 1.97859   8
  10   1  -8 4.56099 1.72310   6
  -9  -1   8 81.7344 8.89339   8
   9  -1  -8 87.6057 10.0738   1
   9  -1  -8 83.8317 10.0844   6
  -9   1   8 87.8107 9.64218   8
   9   1  -8 109.965 9.27933   6
   8  -1  -8 -0.6585 2.27759   1
  -8  -1   8 2.45213 1.54886   8
   8  -1  -8 0.24383 2.13926   6
  -8   1   8 -0.0345 2.08422   8
   8   1  -8 1.28623 1.47209   6
  -7  -1   8 138.214 13.4103   8
   7  -1  -8 143.858 14.6791   1
   7  -1  -8 126.493 14.6399   6
  -7  -1   8 149.029 12.9955   8
  -7   1   8 170.845 14.4692   8
   7   1  -8 141.544 13.8538   6
   6  -1  -8 28.5126 4.88907   1
   6  -1  -8 30.8458 4.88440   6
  -6  -1   8 25.9331 2.76887   8
  -6  -1   8 20.2411 3.11140   8
  -6   1   8 33.0500 4.57210   8
   6   1  -8 28.1069 3.71318   6
   6   1  -8 28.5918 3.81123   1
  -5  -1   8 250.948 22.0589   8
   5  -1  -8 242.608 23.3229   1
   5  -1  -8 251.763 25.0641   4
  -5  -1   8 216.386 21.7068   8
   5  -1  -8 214.320 23.6336   6
  -5   1   8 268.922 22.7599   7
   5   1  -8 238.487 22.3961   1
   5   1  -8 266.041 23.0052   6
  -5   1   8 279.051 23.0046   8
   4  -1  -8 10.8324 3.01720   6
  -4  -1   8 8.39239 1.76874   8
   4  -1  -8 9.77323 2.99277   1
   4  -1  -8 7.12510 2.73238   4
  -4  -1   8 8.62583 1.41868   8
   4   1  -8 9.44003 2.11922   6
  -4   1   8 10.6901 2.13085   7
   4   1  -8 12.1224 2.48363   4
  -4   1   8 15.3460 3.42062   8
   4   1  -8 13.5764 2.48419   1
   3  -1  -8 335.838 31.6722  10
   3  -1  -8 288.042 31.8296   4
  -3  -1   8 287.984 28.5700   8
   3  -1  -8 304.344 30.6742   6
   3  -1  -8 343.793 30.0262   1
  -3  -1   8 305.060 29.0864   8
   3  -1  -8 301.965 31.8014  10
   3   1  -8 353.604 29.2523   1
  -3   1   8 368.105 29.4739   7
   3   1  -8 362.873 30.0665   6
   2  -1  -8 310.183 28.7171  10
   2  -1  -8 289.265 26.1936   1
   2  -1  -8 276.864 26.7021   6
  -2  -1   8 294.449 25.7090   8
   2  -1  -8 256.915 27.5745  10
  -2  -1   8 253.779 25.3597   7
   2  -1  -8 307.261 25.3643   2
  -2  -1   8 263.157 25.4538   2
  -2   1   8 334.484 26.8702   8
  -2   1   8 286.973 25.4962   7
   2   1  -8 248.279 25.4488   1
   2   1  -8 274.552 26.1611   6
  -2   1   8 270.543 25.1822   5
   1  -1  -8 335.954 30.7058   1
   1  -1  -8 330.770 31.6005   6
  -1  -1   8 293.609 30.3634   2
  -1  -1   8 290.871 30.3784   8
   1  -1  -8 379.134 34.8643  10
   1  -1  -8 347.483 30.2875   2
   1  -1  -8 304.535 30.7646   9
  -1  -1   8 358.757 30.2425   7
  -1  -1   8 301.382 32.1485   9
   1  -1  -8 405.323 34.3811   4
   1  -1  -8 349.757 32.9386  10
  -1   1   8 403.593 31.6451   8
  -1   1   8 336.839 30.1503   7
  -1   1   8 323.207 30.5647   2
   1   1  -8 325.847 30.2520   1
   1   1  -8 352.679 32.8378  10
  -1   1   8 295.982 32.5701   9
   1   1  -8 362.281 31.2027   6
  -1   1   8 311.226 29.8359   5
   0  -1  -8 3.96817 2.26280   1
   0  -1  -8 9.47584 3.29949   9
   0  -1   8 1.61486 1.28755  10
   0  -1   8 2.29347 1.31455   5
   0  -1  -8 0.75757 1.85701   6
   0  -1   8 8.32878 2.70439   8
   0  -1   8 5.55124 2.82113   9
   0  -1  -8 3.32064 3.77820  10
   0  -1  -8 2.83707 1.12632   2
   0  -1   8 2.29862 1.36666   7
   0  -1  -8 -0.1736 3.23540   4
   0  -1   8 2.14164 1.15655   2
   0  -1  -8 1.56283 0.92266   9
   0  -1  -8 2.70660 1.29859  10
   0   1   8 4.52474 1.42588   2
   0   1  -8 4.05884 2.71042   7
   0   1   8 1.11636 1.22142   7
   0   1   8 0.24782 1.12629   1
   0   1  -8 1.41650 1.30972   9
   0   1  -8 3.86810 3.37618  10
   0   1  -8 2.76459 2.08185   4
   0   1   8 10.5919 4.33292   8
   0   1  -8 8.31004 2.39109   1
   0   1   8 3.27247 1.39631   5
   0   1   8 5.44068 3.82549   9
   0   1  -8 2.26461 1.15303  10
   0   1   8 8.73177 3.55841  10
   0   1  -8 5.64075 1.39515   2
   0   1  -8 4.15347 1.02658   9
   0   1   8 2.58816 1.38992  10
   0   1  -8 0.81546 1.63347   6
  -1  -1  -8 374.219 32.5003   2
   1  -1   8 348.570 36.3754  10
  -1  -1  -8 379.279 32.8029   1
  -1  -1  -8 405.345 35.3529  10
   1  -1   8 388.466 32.6259   2
  -1  -1  -8 347.645 37.4531  10
   1  -1   8 359.835 34.8095   9
  -1  -1  -8 379.034 36.5343   4
  -1  -1  -8 375.100 35.3672   9
  -1  -1  -8 309.780 33.1977   7
   1  -1   8 412.846 33.0933   8
  -1  -1  -8 367.941 33.6328   6
  -1   1  -8 363.273 37.0431  10
  -1   1  -8 359.426 35.1069  10
  -1   1  -8 329.998 33.5690   9
   1   1   8 372.118 32.6408   2
   1   1   8 381.996 35.8519   9
   1   1   8 328.716 31.7637   1
   1   1   8 328.250 32.0305   7
   1   1   8 359.557 37.3597  10
  -1   1  -8 313.652 32.9995   7
  -1   1  -8 385.810 32.7867   1
  -1   1  -8 321.136 32.8262   9
  -1   1  -8 354.023 33.4851   6
  -1   1  -8 338.256 35.3353   4
  -1   1  -8 313.434 32.4384   2
   2  -1   8 361.430 33.2614   5
  -2  -1  -8 430.468 34.2100   2
  -2  -1  -8 382.519 38.3394   4
   2  -1   8 370.859 33.7321   7
   2  -1   8 337.216 33.2691   1
  -2  -1  -8 396.689 39.3121  10
  -2  -1  -8 354.436 35.1856   6
  -2  -1  -8 405.581 34.8406   7
   2  -1   8 299.630 36.0084   9
  -2  -1  -8 354.748 34.5549   9
   2  -1   8 344.075 34.1253   2
  -2   1  -8 386.905 34.8752   7
   2   1   8 391.894 33.6155   7
  -2   1  -8 366.026 38.6652  10
   2   1   8 335.649 36.7878   9
   2   1   8 360.728 33.3617   1
   2   1   8 403.355 36.8848  10
   2   1   8 325.810 34.1131   2
  -2   1  -8 434.851 37.7278   4
  -2   1  -8 392.796 36.8572  10
  -2   1  -8 356.951 34.0826   2
  -2   1  -8 389.007 35.5179   6
  -2   1  -8 441.910 34.8492   1
  -2   1  -8 354.331 34.4527   9
  -3  -1  -8 180.771 18.5824   1
  -3  -1  -8 175.300 18.6890   7
   3  -1   8 179.132 17.3606   1
   3  -1   8 175.035 17.2947   5
  -3  -1  -8 200.444 19.1352   6
   3  -1   8 195.560 20.7233   9
  -3  -1  -8 153.116 20.7241   4
   3  -1   8 200.827 17.9180   2
  -3   1  -8 226.349 19.2431   1
  -3   1  -8 201.578 20.6546   4
  -3   1  -8 191.273 19.2194   6
   3   1   8 173.537 19.0173  10
   3   1   8 166.938 20.1497   9
   3   1   8 183.716 17.2553   5
  -3   1  -8 226.264 19.8249   7
   3   1   8 220.353 18.0337   2
   3   1   8 184.147 17.4457   1
  -3   1  -8 193.609 17.9544   9
   4  -1   8 56.2362 6.95197   1
  -4  -1  -8 68.2787 11.2908   4
  -4  -1  -8 73.7737 9.05968   1
  -4  -1  -8 68.3909 7.22434   9
   4  -1   8 67.4966 7.22030   2
   4  -1   8 71.4194 7.25363   7
   4  -1   8 66.1173 6.91314   5
   4  -1   8 87.0216 11.0673   9
  -4  -1  -8 69.9319 8.87446   7
  -4   1  -8 83.0989 9.67183   7
   4   1   8 74.8067 7.55838  10
   4   1   8 76.1930 7.44873   2
   4   1   8 70.3537 7.01014   7
   4   1   8 67.1207 7.13800   1
  -4   1  -8 69.0426 9.77440   4
  -4   1  -8 66.2238 8.98312   6
   4   1   8 83.2505 10.4890   9
   4   1   8 63.3043 6.81566   5
  -4   1  -8 66.6149 7.15247   9
  -4   1  -8 67.3796 9.13647   1
  -5  -1  -8 122.394 15.4581   4
   5  -1   8 129.227 11.6914   5
   5  -1   8 124.001 11.9543   7
  -5  -1  -8 147.443 13.7883   7
  -5  -1  -8 124.194 13.4731   1
   5  -1   8 109.594 11.7525   1
   5  -1   8 136.602 14.7141   9
  -5   1  -8 135.154 14.2278   7
   5   1   8 105.696 11.6124   7
   5   1   8 111.009 13.4723   9
  -5   1  -8 136.831 14.6166   1
   5   1   8 113.945 11.8675   1
   5   1   8 131.845 12.7603  10
  -5   1  -8 117.217 12.1382   9
   5   1   8 137.321 11.6200   5
  -6  -1  -8 140.529 14.6342   7
   6  -1   8 146.719 14.8593   9
   6  -1   8 108.482 12.8186   1
   6  -1   8 132.325 12.7242   5
  -6  -1  -8 134.496 16.4072   4
   6  -1   8 128.764 12.9589   7
   6   1   8 137.651 12.6074   5
  -6   1  -8 165.445 15.7455   7
  -6   1  -8 129.553 14.6439   1
   6   1   8 134.515 13.8758  10
   6   1   8 152.435 13.1974   1
   6   1   8 129.884 13.8845   9
   6   1   8 148.286 12.8073   7
   7  -1   8 73.4308 7.83517   9
   7  -1   8 65.2906 7.27036  10
   7  -1   8 54.8918 6.91334   1
  -7  -1  -8 60.8736 10.1899   4
  -7  -1  -8 81.4196 9.10274   7
   7  -1   8 65.0608 6.87951   7
   7  -1   8 71.9618 6.76493   5
   7   1   8 70.7839 6.68927   7
   7   1   8 56.6671 6.99222  10
   7   1   8 88.5158 10.4757  10
   7   1   8 57.2776 6.42056   5
   7   1   8 56.5895 6.90350   1
   7   1   8 64.9432 7.15206   1
  -7   1  -8 73.4348 9.69490   7
   8  -1   8 161.618 14.0626   7
   8  -1   8 160.023 14.1264   9
   8  -1   8 143.702 13.7666   5
  -8  -1  -8 145.068 17.8810   4
  -8  -1  -8 148.154 15.7074   7
   8  -1   8 156.888 14.4569   1
   8  -1   8 147.231 15.1481  10
  -8   1  -8 144.790 16.1537   7
   8   1   8 143.772 14.9527  10
   8   1   8 137.809 14.2851   1
   8   1   8 139.297 13.5723   5
  -9  -1  -8 19.2230 6.02479   4
  -9  -1  -8 28.1520 5.38806   7
   9  -1   8 23.9339 3.40697   5
   9  -1   8 29.9833 4.30460   1
   9   1   8 27.6526 4.22645   1
  -9   1  -8 22.6068 5.33898   7
   9   1   8 25.2040 3.17328   5
 -10  -1  -8 30.4985 5.54283   7
  10  -1   8 32.1973 3.77478   5
 -10  -1  -8 24.2829 6.45922   4
  10  -1   8 34.4732 4.81494   1
  10   1   8 33.6770 4.76552   1
 -10   1  -8 24.1925 5.46664   7
 -11  -1  -8 2.63327 2.80991   7
 -11  -1  -8 6.67053 4.18862   4
  11  -1   8 7.52456 2.67798   1
 -11   1  -8 10.6780 3.83257   7
  11   1   8 8.75335 2.92857   1
 -12  -1  -8 55.3529 9.17777   4
  12  -1   8 67.4522 7.36041   1
 -12   1  -8 43.8811 7.44869   7
  12   1   8 57.4128 6.85848   1
 -12  -2   8 178.942 15.2331   8
 -12   2   8 149.248 15.9473   8
  11  -2  -8 10.0612 3.34704   1
 -11  -2   8 14.7144 2.24157   8
 -11   2   8 12.3381 3.14963   8
  10  -2  -8 704.940 71.6493   6
 -10  -2   8 701.670 68.1591   8
  10  -2  -8 847.884 70.1619   1
 -10   2   8 878.133 69.4888   8
   9  -2  -8 5.46334 3.47587   1
  -9  -2   8 3.73426 1.27683   8
   9  -2  -8 2.96260 2.90475   6
  -9  -2   8 3.06053 1.14855   8
  -9   2   8 2.50463 2.39836   8
   9   2  -8 3.39109 1.08520   6
   8  -2  -8 454.533 41.9565   6
  -8  -2   8 381.032 38.8136   8
  -8  -2   8 458.375 38.6692   8
   8  -2  -8 444.061 40.8655   1
  -8   2   8 513.241 40.4344   8
   8   2  -8 423.646 40.0233   6
  -7  -2   8 5.39263 1.29033   8
  -7  -2   8 5.42501 1.00661   8
   7  -2  -8 6.74480 3.14405   6
   7  -2  -8 7.88427 3.61403   1
   7   2  -8 7.28651 1.54018   6
  -7   2   8 9.09485 3.00437   8
   6  -2  -8 1888.97 188.122   1
  -6  -2   8 1964.32 185.583   8
  -6  -2   8 2171.02 185.549   8
   6  -2  -8 2016.55 193.254   6
  -6   2   8 2368.67 188.752   7
   6   2  -8 2362.51 191.817   6
  -5  -2   8 11.0141 1.54379   8
   5  -2  -8 8.47273 3.34490   6
   5  -2  -8 18.3194 4.42516   1
   5  -2  -8 11.2812 3.57250   4
   5   2  -8 7.96531 1.76798   6
  -5   2   8 8.90303 2.94442   8
  -5   2   8 14.2240 2.81251   7
   5   2  -8 10.9748 2.00666   1
  -4  -2   8 638.768 62.8415   8
  -4  -2   8 711.040 62.6473   8
   4  -2  -8 760.058 69.6225  10
   4  -2  -8 659.677 69.3523   4
   4  -2  -8 810.212 66.6333   6
   4  -2  -8 695.080 64.6209   1
   4   2  -8 777.345 63.3017   1
   4   2  -8 689.157 64.9380   6
  -4   2   8 711.608 64.0344   7
   3  -2  -8 4.34955 1.21408  10
   3  -2  -8 7.16442 2.95085   6
   3  -2  -8 2.30776 1.90892  10
  -3  -2   8 3.17686 1.07882   8
   3  -2  -8 2.15940 2.98716   4
  -3  -2   8 4.07505 1.50819   7
   3  -2  -8 5.82954 3.07301   1
  -3  -2   8 6.05999 1.75439   8
  -3   2   8 3.09864 1.65937   7
   3   2  -8 4.20184 1.61600   1
  -3   2   8 2.90291 2.47221   8
   3   2  -8 3.77870 1.53118   6
   2  -2  -8 3602.18 371.703  10
  -2  -2   8 3452.12 334.238   8
   2  -2  -8 4204.64 349.321   9
   2  -2  -8 3766.05 343.520   2
   2  -2  -8 4071.22 346.065   6
  -2  -2   8 3343.54 343.592   2
   2  -2  -8 4284.18 336.779   1
   2  -2  -8 3346.47 349.029   9
  -2  -2   8 3899.26 337.665   7
  -2   2   8 4177.06 337.764   7
   2   2  -8 3647.12 344.903   6
  -2   2   8 4009.24 335.656   8
   2   2  -8 4204.11 392.172   3
   2   2  -8 3507.77 335.450   1
  -2   2   8 4034.69 334.650   5
  -1  -2   8 28.0675 3.66224   7
  -1  -2   8 32.4918 4.21256   8
   1  -2  -8 36.3285 4.50039   9
   1  -2  -8 24.2279 3.16899   9
   1  -2  -8 35.9480 3.91565  10
   1  -2  -8 35.9190 5.49775   1
  -1  -2   8 25.0603 3.26474   2
   1  -2  -8 32.3016 6.22562  10
   1  -2  -8 31.0119 5.25225   6
   1  -2  -8 25.8019 5.81281   4
   1   2  -8 24.6359 3.22577  10
  -1   2   8 28.0161 3.70291   7
  -1   2   8 27.2270 3.51535   1
   1   2  -8 29.2160 4.06237   6
   1   2  -8 25.6435 3.37575  10
  -1   2   8 26.4521 3.97390   2
  -1   2   8 28.0580 3.67415   5
  -1   2   8 37.2429 5.99876   8
   1   2  -8 22.9906 3.92785   1
  -1   2   8 27.4074 5.17251   9
   0  -2   8 729.025 68.1526   8
   0  -2  -8 632.587 70.5302   6
   0  -2   8 785.743 68.5094   7
   0  -2  -8 769.020 70.4574   9
   0  -2  -8 795.351 68.8802   1
   0  -2  -8 718.268 74.8325   4
   0  -2   8 885.836 67.8809   5
   0  -2  -8 864.017 69.5296   2
   0  -2   8 802.513 69.4454   2
   0  -2  -8 896.282 75.3069  10
   0  -2  -8 667.754 76.2748  10
   0   2   8 761.962 68.4101   7
   0   2   8 808.665 67.7222   5
   0   2   8 687.902 67.7979   1
   0   2   8 807.061 69.7836   2
   0   2   8 842.878 69.5652   8
   0   2  -8 771.784 69.0696   7
   0   2  -8 756.536 74.9351  10
   0   2  -8 755.451 68.5149   1
   0   2  -8 674.570 70.1860   6
   0   2  -8 674.300 70.1776   9
   0   2  -8 776.180 70.1773   9
   0   2   8 675.851 72.0505   9
   0   2  -8 883.334 76.0847  10
  -1  -2  -8 12.7889 2.67442  10
   1  -2   8 7.72761 3.10248   9
   1  -2   8 9.99640 2.23440   7
   1  -2   8 13.7392 2.21558   2
  -1  -2  -8 5.74344 2.89124   1
  -1  -2  -8 14.7568 2.41212   2
  -1  -2  -8 11.6741 4.76966  10
  -1  -2  -8 8.46871 1.77703   9
  -1  -2  -8 7.21816 3.62720   4
  -1  -2  -8 11.0538 3.15648   6
   1  -2   8 6.77511 1.97954   5
  -1   2  -8 9.62525 3.31138  10
  -1   2  -8 13.2411 3.32219   6
  -1   2  -8 11.8803 3.24188   7
  -1   2  -8 11.0628 3.18436   1
  -1   2  -8 8.71416 1.63271   9
   1   2   8 8.42068 1.96492   5
  -1   2  -8 10.2602 2.04600   2
   1   2   8 9.42675 2.08654   1
   1   2   8 7.66482 2.11677   2
   1   2   8 13.7210 4.43637   9
  -1   2  -8 12.2357 2.16192  10
  -1   2  -8 6.64446 2.11423   9
   1   2   8 8.67857 2.00891   7
  -1   2  -8 12.9739 2.87470   4
   2  -2   8 3383.99 342.063   9
  -2  -2  -8 4078.47 340.617   9
   2  -2   8 3787.95 335.203   2
  -2  -2  -8 3165.83 327.646   1
  -2  -2  -8 4330.96 337.321   6
  -2  -2  -8 3646.54 330.235   7
   2  -2   8 3253.39 326.794   1
  -2  -2  -8 3681.43 353.412   4
   2  -2   8 4191.23 326.246   5
   2   2   8 3353.09 362.396  10
  -2   2  -8 3575.70 362.364  10
   2   2   8 3701.59 342.660   9
  -2   2  -8 4132.73 330.536   7
  -2   2  -8 3569.25 363.218  10
  -2   2  -8 3976.56 351.832   4
   2   2   8 3469.56 325.980   5
   2   2   8 3533.79 329.055   7
  -2   2  -8 3913.04 337.165   6
   2   2   8 3765.61 335.347   2
  -2   2  -8 3766.14 328.042   1
   2   2   8 3886.96 327.008   1
  -2   2  -8 4042.78 340.476   9
  -3  -2  -8 314.323 31.0696   4
   3  -2   8 281.173 26.2387   1
  -3  -2  -8 314.741 27.5246   7
  -3  -2  -8 322.389 27.5777   1
   3  -2   8 275.294 26.8390   2
   3  -2   8 247.772 26.5019   7
   3  -2   8 286.977 29.4433   9
  -3   2  -8 293.270 27.8180   1
   3   2   8 245.887 25.9475   5
   3   2   8 330.773 28.9895  10
  -3   2  -8 277.452 28.9006   4
  -3   2  -8 324.065 28.5077   6
   3   2   8 248.652 26.1874   1
  -3   2  -8 264.233 27.8375   7
   3   2   8 318.860 27.0959   2
  -3   2  -8 293.204 27.0387   9
  -3   2  -8 280.755 30.1148  10
   3   2   8 324.507 26.4850   7
   3   2   8 299.891 29.3444   9
   4  -2   8 386.556 39.5478   1
   4  -2   8 502.025 43.7333   9
  -4  -2  -8 471.145 40.9637   7
   4  -2   8 413.305 39.5282   5
   4  -2   8 454.762 40.1196   7
   4   2   8 423.248 39.6273   1
  -4   2  -8 420.257 42.2022   6
   4   2   8 504.965 43.7841  10
   4   2   8 503.643 43.3028   9
   4   2   8 443.864 39.2959   5
  -4   2  -8 481.137 41.8528   1
   4   2   8 370.988 39.6404   7
  -4   2  -8 465.870 41.4383   7
  -4   2  -8 430.648 41.0551   9
   5  -2   8 16.8759 2.95505   1
  -5  -2  -8 19.8919 4.38768   7
   5  -2   8 16.4090 2.86113   5
  -5  -2  -8 17.1802 5.52790   4
   5  -2   8 19.0211 4.57770   9
   5  -2   8 13.9628 3.01197   7
   5   2   8 19.0489 2.62656   5
   5   2   8 17.0390 3.85376   9
   5   2   8 23.8588 3.16674  10
  -5   2  -8 15.6456 4.40022   7
   5   2   8 15.2350 2.97512   1
  -5   2  -8 15.8019 4.33929   1
  -5   2  -8 20.6784 3.07117   9
   5   2   8 17.4922 2.75435   7
   6  -2   8 2096.46 177.413   5
  -6  -2  -8 1831.73 192.984   4
   6  -2   8 2161.56 178.104   1
  -6  -2  -8 2339.32 180.417   7
   6  -2   8 2001.44 186.626   9
   6  -2   8 2017.90 179.159   7
   6   2   8 2124.75 185.210   9
   6   2   8 2118.83 199.461  10
   6   2   8 2024.44 178.100   1
   6   2   8 1907.04 178.767   7
  -6   2  -8 1982.70 180.377   7
   6   2   8 1743.08 177.011   5
   6   2   8 2016.53 196.884  10
  -7  -2  -8 443.959 40.6835   7
   7  -2   8 467.457 41.5673   9
   7  -2   8 450.638 39.5817   7
  -7  -2  -8 430.733 44.4934   4
   7  -2   8 452.704 39.0257   5
   7  -2   8 402.952 39.3100   1
   7   2   8 417.582 42.9352  10
   7   2   8 462.717 39.5666   1
   7   2   8 419.601 38.7408   5
  -7   2  -8 404.040 40.6370   7
   7   2   8 456.642 42.9759  10
  -8  -2  -8 144.125 18.0724   4
  -8  -2  -8 163.820 16.0307   7
   8  -2   8 139.373 14.2246   5
   8  -2   8 149.035 14.7364   1
   8  -2   8 151.780 14.5868   7
   8   2   8 148.166 14.8062   1
   8   2   8 173.661 14.9661   1
   8   2   8 165.548 13.9649   5
  -8   2  -8 132.718 15.6728   7
   9  -2   8 20.5800 2.97884   5
   9  -2   8 19.6035 3.58879   1
  -9  -2  -8 23.2029 4.79231   7
  -9  -2  -8 18.6224 5.85351   4
   9   2   8 15.2714 3.38071   1
   9   2   8 16.0196 3.41346   1
  -9   2  -8 13.1863 3.91487   7
 -10  -2  -8 632.653 65.1637   4
  10  -2   8 634.963 59.0779   1
  10  -2   8 717.563 58.2365   5
 -10  -2  -8 635.882 60.0424   7
  10   2   8 660.320 59.0409   1
  11  -2   8 338.037 28.6358   1
 -11  -2  -8 260.930 31.6925   4
  11   2   8 309.527 28.2134   1
 -12  -2  -8 47.0007 8.47163   4
  12  -2   8 50.2734 6.58988   1
  12   2   8 49.3503 6.17910   1
 -12   2  -8 36.6772 6.50884   7
 -12  -3   8 3.99630 1.05503   8
  12  -3  -8 1.76810 2.69316   1
 -12   3   8 -0.5379 1.95253   8
  11  -3  -8 124.215 16.2677   1
 -11  -3   8 189.498 14.7130   8
 -11   3   8 153.796 15.9834   8
  10  -3  -8 16.4739 4.50168   6
 -10  -3   8 20.0791 2.35020   8
 -10  -3   8 18.6105 2.36475   8
  10  -3  -8 20.5921 5.10175   1
 -10   3   8 19.3434 4.05869   8
   9  -3  -8 153.737 18.4558   6
   9  -3  -8 192.407 18.6038   1
  -9   3   8 173.312 16.9276   8
   8  -3  -8 6.58596 3.62435   6
   8  -3  -8 5.78826 3.75183   1
  -8   3   8 4.61577 2.56184   8
   7  -3  -8 351.270 36.9982   1
   7  -3  -8 425.383 38.5170   6
   7   3  -8 427.363 36.0390   6
  -7   3   8 340.725 36.5000   7
  -7   3   8 433.519 36.4953   8
   6  -3  -8 58.8100 8.26494   6
   6  -3  -8 63.4462 8.67776   1
   6  -3  -8 62.2046 9.13128   4
  -6  -3   8 54.1604 5.38964   8
  -6  -3   8 61.1871 5.57007   8
   6   3  -8 64.4794 5.96030   6
  -6   3   8 58.8161 7.25108   7
  -6   3   8 60.7960 7.21392   8
   5  -3  -8 393.729 39.6529   1
   5  -3  -8 415.155 42.7709   4
   5  -3  -8 436.806 41.6430  10
   5  -3  -8 472.697 41.2399   6
   5  -3  -8 450.881 41.7471  10
  -5  -3   8 438.751 37.5638   8
  -5   3   8 438.645 38.9637   7
   5   3  -8 372.232 38.7957   6
   4  -3  -8 5.73088 3.54401   6
   4  -3  -8 12.6946 4.11583   1
   4  -3  -8 6.34229 1.47956  10
   4  -3  -8 7.73373 4.12790   4
  -4  -3   8 6.62872 1.49575   8
  -4  -3   8 5.43629 1.49074   8
   4  -3  -8 5.02859 1.69885  10
  -4   3   8 12.3189 3.00307   8
   4   3  -8 4.48302 1.55313   6
  -4   3   8 2.99783 1.97914   7
   4   3  -8 4.91734 1.62064   1
   3  -3  -8 960.860 73.7686   1
   3  -3  -8 779.850 79.1567  10
  -3  -3   8 755.656 71.2367   8
   3  -3  -8 761.323 79.9642  10
   3  -3  -8 881.010 74.2932   9
   3  -3  -8 727.264 74.0623   9
   3  -3  -8 694.747 78.3839   4
  -3  -3   8 849.442 71.1121   8
  -3   3   8 953.720 72.5848   8
   3   3  -8 848.087 71.7227   1
  -3   3   8 804.033 72.4245   7
  -3   3   8 855.648 71.7124   5
   3   3  -8 717.649 73.5209   6
  -2  -3   8 165.811 17.2671   2
   2  -3  -8 207.979 19.4262   6
   2  -3  -8 194.345 18.8556   1
  -2  -3   8 172.027 16.9106   8
   2  -3  -8 167.540 19.9667   4
  -2  -3   8 168.535 17.0446   7
   2  -3  -8 176.261 20.0605  10
   2  -3  -8 205.711 18.7386  10
   2  -3  -8 170.468 17.1649   9
  -2   3   8 177.469 17.2680   7
  -2   3   8 196.359 18.4020   8
  -2   3   8 173.783 17.0140   5
   2   3  -8 186.509 17.6356   6
  -2   3   8 195.558 17.0211   1
   2   3  -8 218.068 17.3601   1
   1  -3  -8 656.812 69.6920  10
  -1  -3   8 698.907 62.9125   8
   1  -3  -8 711.827 65.2542   9
   1  -3  -8 623.252 71.2630  10
  -1  -3   8 754.940 64.6051   2
   1  -3  -8 721.708 66.0311   6
   1  -3  -8 712.784 64.3761   1
  -1  -3   8 762.489 63.5850   7
  -1   3   8 640.789 62.8982   1
  -1   3   8 722.395 66.9209   9
   1   3  -8 701.429 73.3091   3
   1   3  -8 697.827 63.3293   1
  -1   3   8 697.539 63.5141   7
   1   3  -8 777.435 65.1218   6
  -1   3   8 774.972 63.0067   5
   0  -3  -8 3.97239 2.85999   6
   0  -3  -8 5.63888 1.64288   2
   0  -3   8 3.09241 1.68878   2
   0  -3  -8 5.14249 1.46870   9
   0  -3  -8 5.86125 2.77196  10
   0  -3  -8 2.13382 2.81660   4
   0  -3  -8 5.55130 3.06940   1
   0  -3   8 3.07480 1.76493   7
   0   3  -8 3.33826 2.09673   6
   0   3   8 5.12017 1.68116   7
   0   3   8 4.34019 2.51273   9
   0   3   8 1.03383 1.44270   5
   0   3  -8 2.27152 1.20761  10
   0   3   8 3.14170 1.52171   1
   0   3  -8 2.60516 2.24822   7
   0   3   8 3.03387 1.89022   2
   0   3  -8 5.86645 2.49919   1
   0   3  -8 3.87926 1.64904  10
  -1  -3  -8 744.252 84.5215   4
  -1  -3  -8 950.370 79.2388   1
  -1  -3  -8 973.379 81.4526   6
   1  -3   8 1029.81 78.0880   5
   1  -3   8 823.111 78.6536   7
  -1  -3  -8 964.320 80.0566   2
   1  -3   8 837.422 79.9182   2
  -1   3  -8 942.489 80.9720   9
   1   3   8 826.049 82.5676   9
   1   3   8 824.267 78.4377   7
   1   3   8 773.978 77.7417   5
  -1   3  -8 914.468 80.9604   6
  -1   3  -8 849.369 78.8507   1
   1   3   8 921.678 80.2729   2
  -1   3  -8 814.753 78.8475   7
   1   3   8 810.000 77.9417   1
  -1   3  -8 961.930 86.2293  10
  -1   3  -8 933.274 80.8125   9
  -1   3  -8 872.039 86.6293  10
   2  -3   8 267.163 29.1512   2
  -2  -3  -8 358.574 30.2835   1
  -2  -3  -8 373.853 32.6992   4
   2  -3   8 330.605 28.5990   1
   2  -3   8 304.250 28.6600   5
  -2  -3  -8 359.538 29.7638   9
   2  -3   8 288.457 28.9316   7
  -2   3  -8 307.567 30.7687   4
  -2   3  -8 331.741 30.5169   6
   2   3   8 285.809 28.6050   1
  -2   3  -8 261.457 29.1175   7
   2   3   8 337.407 29.6986   2
   2   3   8 311.892 28.5433   5
  -2   3  -8 260.333 31.7722  10
  -2   3  -8 309.672 29.4297   9
  -2   3  -8 330.137 29.9549   1
  -2   3  -8 343.293 31.5159  10
   2   3   8 351.383 31.8588   9
   2   3   8 354.439 28.8328   7
   3  -3   8 517.156 55.6084   2
   3  -3   8 591.899 54.9552   7
   3  -3   8 638.910 54.3941   5
  -3  -3  -8 555.808 55.0822   1
  -3  -3  -8 696.398 56.6452   9
   3  -3   8 680.679 58.5167   9
   3  -3   8 530.541 54.2446   1
  -3  -3  -8 706.687 60.9270   4
  -3   3  -8 678.591 58.8167   4
  -3   3  -8 542.695 61.1687  10
   3   3   8 647.980 54.5648   1
   3   3   8 736.786 58.6472   9
  -3   3  -8 545.617 55.5512   1
   3   3   8 632.903 56.0564   2
  -3   3  -8 602.963 56.3209   9
   3   3   8 660.060 54.6798   7
   3   3   8 553.411 54.0821   5
  -3   3  -8 543.299 56.8637   6
   4  -3   8 27.7217 4.18728   1
  -4  -3  -8 35.2530 6.64339   4
   4  -3   8 33.5363 6.12952   9
  -4  -3  -8 33.0756 5.30560   7
   4  -3   8 28.5809 4.41007   7
   4  -3   8 30.4027 4.38163   5
  -4  -3  -8 28.7061 5.11402   1
  -4   3  -8 24.1523 5.00381   1
  -4   3  -8 27.4210 5.37646   6
   4   3   8 34.6538 4.32151  10
   4   3   8 37.7912 6.00763   9
  -4   3  -8 34.5641 4.12499   9
   4   3   8 39.6273 4.67447  10
  -4   3  -8 34.2337 5.17528   7
   4   3   8 31.9930 4.03287   7
   4   3   8 41.4504 4.70153   1
   4   3   8 27.2513 3.98586   5
  -5  -3  -8 570.213 57.9911   4
  -5  -3  -8 524.666 53.3819   7
   5  -3   8 551.010 52.3308   5
   5  -3   8 683.753 53.2333   7
   5  -3   8 607.531 55.8545   9
   5  -3   8 559.667 52.5105   1
   5   3   8 666.014 52.1307   5
   5   3   8 611.534 59.6763  10
   5   3   8 587.427 52.5049   7
   5   3   8 665.099 57.8731  10
   5   3   8 554.266 52.5660   1
  -5   3  -8 581.786 54.4670   9
  -5   3  -8 523.604 53.4462   7
   5   3   8 542.264 54.7071   9
   6  -3   8 332.220 27.3846   7
   6  -3   8 292.460 26.9409   1
  -6  -3  -8 286.281 27.8438   7
   6  -3   8 267.793 29.0184   9
  -6  -3  -8 237.117 30.3318   4
   6  -3   8 278.838 26.7239   5
   6   3   8 277.920 26.5634   7
   6   3   8 285.688 29.1787  10
   6   3   8 313.347 26.3305   5
   6   3   8 350.743 31.5896  10
   6   3   8 296.861 27.0390   1
  -6   3  -8 319.613 27.8923   1
  -6   3  -8 283.695 27.8034   7
  -7  -3  -8 313.258 31.0947   4
  -7  -3  -8 331.079 28.0849   7
   7  -3   8 341.741 27.2304   1
   7  -3   8 317.483 28.7181   9
   7  -3   8 273.881 26.5668   5
   7  -3   8 265.605 26.9986   7
  -7   3  -8 247.156 27.3934   1
   7   3   8 301.662 26.1490   5
   7   3   8 298.644 27.0941   1
  -7   3  -8 233.194 27.4466   7
   7   3   8 307.378 28.9411  10
   8  -3   8 55.4572 5.98165   7
   8  -3   8 44.7387 5.98215   1
   8  -3   8 46.7325 5.44216   5
  -8  -3  -8 43.6544 6.87504   7
  -8  -3  -8 46.3521 8.66060   4
   8   3   8 49.2381 4.98334   5
   8   3   8 44.2625 6.06348   1
  -8   3  -8 37.2082 6.32686   7
   9  -3   8 283.605 24.7160   7
  -9  -3  -8 255.175 28.5086   4
   9  -3   8 298.369 24.2884   5
  -9  -3  -8 244.805 25.4514   7
   9  -3   8 268.254 25.0092   1
   9   3   8 262.615 24.8360   1
   9   3   8 239.710 24.6953   1
 -10  -3  -8 150.906 19.0678   4
  10  -3   8 146.644 16.2622   1
  10  -3   8 173.995 15.4528   5
 -10  -3  -8 142.425 16.5608   7
  10   3   8 200.354 16.4719   1
  10   3   8 173.126 16.1489   1
  11  -3   8 117.296 9.78016   5
  11  -3   8 99.4445 10.9581   1
 -11  -3  -8 103.358 13.2552   4
  11   3   8 102.324 10.5633   1
 -11   3  -8 73.9944 10.5708   7
 -12  -3  -8 32.8423 6.75965   4
  12  -3   8 25.9582 4.92742   1
  12   3   8 35.5615 4.97490   1
  11  -4  -8 9.66009 3.64188   1
  10  -4  -8 240.144 23.6672   1
   9  -4  -8 14.8987 4.33054   6
   9  -4  -8 17.2683 4.72729   1
  -9   4   8 10.7778 3.14252   8
   8  -4  -8 877.744 82.0552   6
   8  -4  -8 987.471 80.1988   1
  -8   4   8 862.041 79.8554   7
  -8   4   8 829.927 78.6522   8
   7  -4  -8 4.32120 3.21023   6
   7  -4  -8 5.89744 3.37605   1
  -7   4   8 1.11381 2.43193   7
  -7   4   8 2.62069 2.41358   8
  -6  -4   8 602.115 57.0390   8
   6  -4  -8 551.893 60.3628   6
   6  -4  -8 740.971 63.5606  10
   6  -4  -8 611.560 64.0408   4
   6  -4  -8 611.889 59.0678   1
  -6  -4   8 650.135 56.9941   8
   6  -4  -8 730.248 63.4714  10
  -6   4   8 540.125 58.8361   7
   6   4  -8 692.250 58.9925   6
  -6   4   8 740.339 58.4899   8
   5  -4  -8 63.8483 7.39180   7
   5  -4  -8 54.3108 9.08930   4
   5  -4  -8 53.2992 6.46238  10
   5  -4  -8 42.8101 7.26795   1
   5  -4  -8 64.7132 6.39501  10
   5  -4  -8 57.1354 7.60476   6
  -5  -4   8 68.6289 5.89550   8
  -5  -4   8 53.5586 5.59762   8
   5   4  -8 60.5746 6.04705   6
  -5   4   8 40.3745 6.75689   7
  -5   4   8 62.9066 7.18216   8
  -4  -4   8 1573.49 135.936   8
   4  -4  -8 1716.41 151.983  10
   4  -4  -8 1564.27 141.865   9
   4  -4  -8 1418.62 141.381   6
   4  -4  -8 1475.76 137.675   1
  -4  -4   8 1582.39 136.036   8
   4  -4  -8 1746.10 149.222   4
   4   4  -8 1492.26 136.714   1
  -4   4   8 1629.07 136.845   5
   4   4  -8 1614.64 140.501   6
  -4   4   8 1318.92 137.944   7
  -3  -4   8 7.74408 1.83223   8
   3  -4  -8 5.54944 1.37297   9
   3  -4  -8 7.95393 2.87896   1
   3  -4  -8 8.83142 3.05565  10
   3  -4  -8 10.3902 3.97995   4
   3  -4  -8 6.76915 2.02071  10
   3  -4  -8 5.46179 2.70701   6
  -3   4   8 10.5632 2.55729   5
   3   4  -8 8.23960 2.26102   6
  -3   4   8 8.80669 2.46721   7
   3   4  -8 7.23017 2.31707   1
   2  -4  -8 1040.38 93.3112   1
   2  -4  -8 899.085 100.612   4
   2  -4  -8 1176.61 96.2133   6
  -2  -4   8 1185.35 93.4041   7
   2  -4  -8 1144.51 95.8301   9
  -2  -4   8 936.403 94.7129   2
  -2   4   8 1062.74 93.2156   7
  -2   4   8 1052.15 92.3510   1
  -2   4   8 1006.76 92.2533   5
   2   4  -8 953.375 94.9621   6
  -1  -4   8 11.1732 2.91930   7
   1  -4  -8 10.5093 2.36925   2
   1  -4  -8 6.63561 3.62243   4
   1  -4  -8 8.20788 1.78821   9
  -1  -4   8 7.52942 2.22167   2
   1  -4  -8 6.83317 3.19293   1
   1  -4  -8 7.77983 3.71100   6
   1   4  -8 6.72604 1.50610   3
  -1   4   8 7.44658 2.14493   1
   1   4  -8 7.04302 2.56910   6
  -1   4   8 8.09932 2.96081   9
  -1   4   8 7.13870 2.21520   7
  -1   4   8 5.95525 2.07435   5
   1   4  -8 5.11416 2.50408   1
   0  -4  -8 1716.20 157.557   9
   0  -4   8 1746.72 152.769   7
   0  -4   8 1606.27 155.264   2
   0  -4  -8 1463.48 163.137   4
   0  -4  -8 1916.38 157.250   6
   0   4   8 1777.70 151.456   1
   0   4   8 1538.49 158.520   9
   0   4  -8 1555.42 167.138  10
   0   4  -8 1783.28 167.323  10
   0   4   8 1936.02 151.101   5
   0   4  -8 1958.63 156.412   6
   0   4  -8 1815.35 152.237   7
   0   4  -8 1600.17 176.794   3
  -1  -4  -8 54.3938 7.44773   1
   1  -4   8 56.5521 6.35135   2
   1  -4   8 61.8903 6.79504   7
  -1  -4  -8 49.4494 7.20853   4
  -1  -4  -8 55.0127 6.20939   9
   1   4   8 59.2063 6.13984   5
   1   4   8 59.5024 7.76976   9
  -1   4  -8 47.6679 7.06270   6
  -1   4  -8 59.3806 6.33713  10
  -1   4  -8 57.2519 5.49100   9
  -1   4  -8 52.1116 6.16660   7
  -1   4  -8 52.4195 6.44619  10
   1   4   8 53.4408 6.70778   2
  -1   4  -8 50.3124 5.48511   9
   1   4   8 58.3892 6.28636   7
   1   4   8 53.0219 6.21496   1
  -1   4  -8 63.4148 7.40430   1
   2  -4   8 1065.47 89.2417   7
  -2  -4  -8 1030.56 89.2769   1
  -2  -4  -8 941.937 95.4312   4
  -2  -4  -8 1052.37 91.9291   9
   2  -4   8 911.676 88.2208   1
  -2   4  -8 964.641 91.2861   6
  -2   4  -8 1012.58 88.8974   7
   2   4   8 903.662 88.2312   1
   2   4   8 1114.28 93.2444   9
  -2   4  -8 1030.64 97.8493  10
   2   4   8 1021.99 88.7985   7
   2   4   8 1084.38 87.9637   5
  -2   4  -8 899.983 97.4353  10
   2   4   8 1136.07 90.9358   2
  -2   4  -8 817.623 88.6724   1
   3  -4   8 45.9121 5.81118   1
  -3  -4  -8 53.4539 7.47507   4
   3  -4   8 53.2273 6.23693   7
  -3  -4  -8 45.3953 6.42172   1
   3   4   8 56.1720 7.57200   9
   3   4   8 48.7105 5.81877   1
   3   4   8 44.3226 5.90178  10
  -3   4  -8 45.1913 6.28983   1
  -3   4  -8 54.8514 6.21654   7
  -3   4  -8 45.6321 5.28549   9
   3   4   8 48.0897 5.37171   5
   3   4   8 58.4032 5.80853   7
  -3   4  -8 37.8887 6.25009   6
   4  -4   8 1380.97 115.726   9
  -4  -4  -8 1224.68 119.181   4
   4  -4   8 1315.55 111.047   7
   4  -4   8 1122.56 109.762   5
   4  -4   8 1297.99 110.294   1
   4   4   8 1171.96 110.438   7
   4   4   8 1390.66 110.259   1
   4   4   8 1333.94 121.655  10
  -4   4  -8 1157.55 114.204   9
   4   4   8 1191.15 109.332   5
  -4   4  -8 1322.10 111.205   7
  -4   4  -8 1071.27 113.374   6
   5  -4   8 144.714 12.8320   5
   5  -4   8 127.988 13.8483   9
   5  -4   8 113.866 12.8657   7
   5  -4   8 125.372 12.9759   1
  -5  -4  -8 125.109 13.5340   7
  -5  -4  -8 101.829 14.3791   4
  -5   4  -8 141.201 13.2956   1
   5   4   8 143.508 12.5259   9
  -5   4  -8 121.425 13.1489   7
   5   4   8 141.805 13.4285  10
   5   4   8 143.943 12.4004   7
   5   4   8 120.664 14.7953  10
   5   4   8 118.942 12.0635   5
   5   4   8 122.410 12.7662   1
  -5   4  -8 121.009 12.7319   9
  -6  -4  -8 389.537 37.7336   7
   6  -4   8 431.971 37.3264   7
   6  -4   8 372.338 37.0447   1
   6  -4   8 349.661 38.7144   9
  -6  -4  -8 389.657 40.8407   4
   6  -4   8 464.570 36.9585   5
  -6   4  -8 387.966 37.4950   7
   6   4   8 441.512 41.5082  10
   6   4   8 405.453 40.0085  10
  -6   4  -8 449.249 37.5271   1
   6   4   8 401.300 37.0815   1
  -6   4  -8 392.000 38.0420   9
   6   4   8 414.933 36.1355   5
   7  -4   8 96.5265 11.5218   1
   7  -4   8 103.608 11.4942   7
  -7  -4  -8 112.801 13.8124   4
  -7  -4  -8 139.779 12.5572   7
   7  -4   8 102.769 11.1785   5
   7   4   8 110.479 10.4494   5
   7   4   8 123.757 11.7265   1
  -7   4  -8 106.300 11.8378   1
   7   4   8 122.719 11.8775  10
  -7   4  -8 106.986 11.7922   7
   8  -4   8 606.827 55.7944   7
   8  -4   8 612.697 55.7240   1
   8  -4   8 653.558 55.0697   5
  -8  -4  -8 704.835 56.4955   7
  -8   4  -8 521.985 55.8635   7
   8   4   8 614.393 55.6089   1
   9  -4   8 108.047 11.6609   5
  -9  -4  -8 131.062 15.2164   4
   9  -4   8 137.161 12.3712   7
   9  -4   8 126.108 12.7975   1
  -9  -4  -8 129.332 13.0264   7
  -9   4  -8 102.954 12.4768   7
   9   4   8 123.709 12.5368   1
  10  -4   8 83.8411 7.90540   5
  10  -4   8 77.0631 8.94454   1
 -10  -4  -8 73.0638 10.7502   4
  10   4   8 81.1081 8.68779   1
 -10   4  -8 60.5961 8.49304   7
  10   4   8 73.4913 8.58910   1
  11  -4   8 63.6645 6.37640   5
  11  -4   8 57.2773 7.47095   1
 -11  -4  -8 56.3054 9.51128   4
  11   4   8 71.1576 7.51839   1
 -11   4  -8 46.3020 6.98102   7
  11   4   8 58.6571 7.14535   1
  11  -5  -8 85.6554 10.2809   1
  10  -5  -8 61.3070 8.75059   1
   9  -5  -8 44.0475 7.05303   6
   9  -5  -8 34.9549 6.52275   1
  -9   5   8 29.6311 5.71945   7
   8  -5  -8 24.8541 5.41793   1
   8  -5  -8 26.5631 5.62819   6
  -8   5   8 14.4707 4.27378   7
   7  -5  -8 196.330 19.4103   1
   7  -5  -8 194.620 19.6846   6
  -7   5   8 184.628 19.1007   7
   6  -5  -8 74.9144 7.53492  10
   6  -5  -8 58.3962 8.54291   1
   6  -5  -8 59.4169 10.1765   4
  -6  -5   8 79.6390 6.76070   8
   6  -5  -8 75.6172 8.85044   6
   6  -5  -8 70.7403 7.68686  10
  -6  -5   8 60.7136 6.58071   8
   6   5  -8 70.1259 6.71755   6
  -6   5   8 73.6358 8.74887   7
   5  -5  -8 81.7594 11.9935   4
  -5  -5   8 105.876 8.91563   8
   5  -5  -8 75.2635 10.1013   1
   5  -5  -8 92.6022 10.5200   6
   5  -5  -8 99.7465 10.2556  10
   5  -5  -8 98.3697 8.70535   9
   5  -5  -8 109.233 10.8643   7
  -5  -5   8 73.2792 8.70202   8
  -5   5   8 98.1187 10.5256   7
   5   5  -8 94.1680 8.99813   6
   4  -5  -8 1.57172 2.29490   1
   4  -5  -8 6.50182 2.48373   6
   4  -5  -8 1.89347 3.42252   4
   4  -5  -8 0.96604 0.93723   9
   4  -5  -8 1.97717 2.42985  10
   4   5  -8 1.12048 1.54012   1
   4   5  -8 1.07248 1.30582   6
  -4   5   8 -0.6945 1.93245   7
  -4   5   8 1.72189 1.98549   5
   3  -5  -8 314.339 27.6417   1
   3  -5  -8 283.594 30.6927   4
   3  -5  -8 270.517 28.2272   6
   3  -5  -8 284.377 27.6611   9
   3   5  -8 334.395 27.1776   1
   3   5  -8 265.406 27.5704   6
  -3   5   8 315.433 27.2518   1
  -3   5   8 312.690 27.3943   5
  -3   5   8 296.082 27.6878   7
  -2  -5   8 66.0702 7.03733   7
   2  -5  -8 61.3302 9.35974   4
   2  -5  -8 48.9086 6.88421   6
  -2  -5   8 69.0471 7.43843   2
   2  -5  -8 58.1365 6.26232   9
   2  -5  -8 50.9065 6.70673   1
  -2   5   8 52.4698 6.44567   1
   2   5  -8 61.6284 6.73874   6
  -2   5   8 54.3647 6.78840   7
   2   5  -8 66.6393 6.75574   1
  -2   5   8 51.6078 6.51898   5
   1  -5  -8 141.492 15.1118   1
   1  -5  -8 134.982 15.5364   6
   1  -5  -8 178.650 15.4533   9
  -1  -5   8 156.510 15.7028   2
  -1  -5   8 172.245 15.4443   7
   1   5  -8 175.163 15.2674   1
  -1   5   8 156.328 14.9400   5
  -1   5   8 179.176 16.5281   9
   1   5  -8 140.102 15.3223   6
  -1   5   8 129.282 14.7700   1
  -1   5   8 164.050 15.2223   7
   0  -5   8 9.81870 2.82569   7
   0  -5  -8 13.2560 3.28358   4
   0  -5  -8 8.03325 2.06701   9
   0  -5  -8 9.22752 2.87949   1
   0   5  -8 11.1857 1.67804  10
   0   5  -8 10.9005 2.20329   3
   0   5   8 9.81925 3.36226   9
   0   5  -8 8.17167 2.61242   6
   0   5   8 13.9497 2.96751   1
   0   5   8 8.41517 2.34395   5
   0   5  -8 7.13476 2.51399   1
   0   5   8 12.5527 2.63345   7
   0   5  -8 8.65320 1.48091  10
   1  -5   8 285.594 27.9418   7
  -1  -5  -8 289.189 29.8124   4
  -1  -5  -8 331.887 28.5920   9
  -1  -5  -8 298.141 27.6844   1
  -1   5  -8 273.961 29.6626  10
   1   5   8 330.257 29.4163   9
   1   5   8 294.501 27.6206   7
  -1   5  -8 286.211 27.2763   7
  -1   5  -8 310.490 31.7543   3
  -1   5  -8 294.065 27.6968   1
   1   5   8 302.341 27.2996   5
  -1   5  -8 335.011 28.5900   6
  -1   5  -8 286.576 29.7346  10
   1   5   8 294.019 27.5814   1
  -2  -5  -8 127.059 12.7853   1
   2  -5   8 134.626 13.0700   7
  -2  -5  -8 130.272 13.6068   4
  -2   5  -8 126.494 12.1958   9
  -2   5  -8 137.268 13.1901   6
  -2   5  -8 123.193 12.7334   1
  -2   5  -8 113.325 12.3068   7
  -2   5  -8 114.885 13.3774  10
  -2   5  -8 124.525 13.4814  10
   2   5   8 119.813 12.5228   7
   2   5   8 120.872 12.2533   5
  -2   5  -8 146.704 14.6330   3
   2   5   8 144.484 13.5429   9
   2   5   8 129.937 12.7428   1
   3  -5   8 128.891 12.6175   1
  -3  -5  -8 132.120 13.6721   4
   3  -5   8 124.303 12.8249   7
  -3   5  -8 136.128 12.7322   1
   3   5   8 103.956 11.8863   5
  -3   5  -8 106.873 12.6997   6
   3   5   8 119.031 13.1991  10
   3   5   8 137.681 12.7742   1
  -3   5  -8 134.828 14.6020   3
  -3   5  -8 132.385 12.5307   7
   3   5   8 127.865 12.3631   7
   3   5   8 152.476 13.6239   9
  -3   5  -8 116.901 12.1775   9
   4  -5   8 0.77584 1.87467   7
  -4  -5  -8 0.65418 2.19497   4
   4  -5   8 1.16618 1.91943   1
   4   5   8 1.20507 1.51734   7
  -4   5  -8 0.76360 1.30491   9
  -4   5  -8 3.15600 1.99307   6
   4   5   8 0.82324 1.42413   5
   4   5   8 2.34058 2.01282   1
  -4   5  -8 -0.1227 1.74755   1
   4   5   8 1.51631 2.00565   9
   4   5   8 1.53308 1.56674  10
  -4   5  -8 0.71749 1.91513   7
   5  -5   8 206.952 21.2729   1
   5  -5   8 194.591 21.2390   7
  -5  -5  -8 197.228 23.0563   4
   5  -5   8 231.776 22.3000   9
   5  -5   8 209.681 21.0569   5
   5   5   8 228.119 20.7200   7
  -5   5  -8 245.853 21.5708   7
   5   5   8 226.501 22.5399  10
   5   5   8 252.447 20.5374   5
   5   5   8 233.618 21.2942   1
  -5   5  -8 210.671 21.3258   9
  -5   5  -8 235.546 21.3284   1
   5   5   8 248.407 23.7436  10
   6  -5   8 246.854 22.9968   1
   6  -5   8 267.998 23.8913   9
  -6  -5  -8 254.708 25.1564   4
   6  -5   8 227.000 22.8051   7
   6  -5   8 249.053 22.5584   5
  -6   5  -8 221.201 22.7901   7
   6   5   8 247.977 24.1019  10
  -6   5  -8 236.345 23.0247   9
   6   5   8 231.589 21.7651   5
   6   5   8 269.319 24.9339  10
  -6   5  -8 217.704 22.5256   1
   6   5   8 229.806 22.6903   1
   7  -5   8 59.2250 7.43512   1
   7  -5   8 75.7225 7.45875   7
  -7  -5  -8 56.2786 8.98130   4
   7  -5   8 74.8922 7.23420   5
   7   5   8 54.4700 7.32272   1
  -7   5  -8 47.9925 6.92587   1
  -7   5  -8 51.2961 7.09028   7
  -8  -5  -8 19.9440 5.21922   4
   8  -5   8 14.1538 3.74380   1
   8  -5   8 12.0271 3.18788   7
   8  -5   8 16.0204 3.22831   5
  -8   5  -8 12.3278 3.24383   7
   8   5   8 18.2437 3.95108   1
   9  -5   8 103.217 11.6823   1
   9  -5   8 97.1160 11.1954   7
   9  -5   8 101.603 10.8431   5
  -9  -5  -8 127.546 13.8104   4
   9   5   8 121.136 11.7682   1
  -9   5  -8 113.670 11.5986   7
 -10  -5  -8 207.741 20.9461   4
  10  -5   8 169.575 18.3794   1
  10  -5   8 188.157 17.4682   5
  10   5   8 213.784 18.4517   1
 -10   5  -8 165.315 18.1754   7
  11  -5   8 29.1911 5.23033   1
 -11  -5  -8 29.3826 6.40637   4
  11  -5   8 31.4351 4.21950   5
  11   5   8 25.3962 4.61451   1
  11   5   8 34.1200 4.94282   1
  10  -6  -8 23.1058 5.22488   1
 -10   6   8 18.7171 4.81781   7
   9  -6  -8 6.80684 3.87678   1
  -9   6   8 5.71163 3.47712   7
  -8  -6   8 962.086 89.6760   8
   8  -6  -8 1110.96 95.0682   6
   8  -6  -8 1045.79 92.5761   1
  -8   6   8 1018.91 92.7299   7
   7  -6  -8 12.4042 3.68886   6
   7  -6  -8 21.4005 4.74241   1
  -7   6   8 11.8981 3.80417   7
   6  -6  -8 42.4813 6.06590  10
   6  -6  -8 42.1590 8.14971   4
   6  -6  -8 53.1317 7.26294   1
   6  -6  -8 45.6753 6.66712   6
   6   6  -8 49.8025 4.81711   6
  -6   6   8 54.3156 7.32949   7
   5  -6  -8 3.76934 3.31858   4
   5  -6  -8 5.18349 2.90717   7
   5  -6  -8 3.52520 2.67623   6
   5  -6  -8 4.21136 2.49843   1
  -5   6   8 2.43638 2.38648   5
  -5   6   8 5.40125 2.96216   7
   5   6  -8 4.22482 1.18118   6
   4  -6  -8 1880.08 164.602   1
   4  -6  -8 1997.82 170.585   9
   4  -6  -8 1722.56 177.959   4
  -4   6   8 1653.72 165.745   7
   4   6  -8 1996.93 168.216   6
  -4   6   8 1839.42 164.256   5
   4   6  -8 1949.15 163.684   1
   3  -6  -8 24.0876 3.46701   9
   3  -6  -8 24.4809 3.78147   1
   3  -6  -8 14.0225 4.78702   4
   3   6  -8 22.6642 3.12670   1
  -3   6   8 17.7540 3.72258   1
   3   6  -8 20.6056 2.91258   6
  -3   6   8 15.8662 3.73711   7
  -3   6   8 19.6796 3.86564   5
   2  -6  -8 36.7104 6.71176   4
   2  -6  -8 41.8976 5.18098   9
   2  -6  -8 30.3097 5.05147   1
  -2   6   8 51.6853 5.86439   5
  -2   6   8 41.4191 5.80785   7
   2   6  -8 39.1137 4.90986   1
   2   6  -8 51.1421 5.08194   6
  -2   6   8 51.7478 5.92973   1
   1  -6  -8 52.4565 6.77885   4
   1  -6  -8 51.1610 5.80112   9
  -1  -6   8 48.3107 6.24362   7
   1  -6  -8 35.8555 5.37076   1
  -1   6   8 51.3453 6.47827   9
   1   6  -8 42.5600 5.29563   1
  -1   6   8 42.1201 5.77624   7
   1   6  -8 51.6854 5.51746   6
  -1   6   8 40.2121 5.63548   5
  -1   6   8 43.1429 5.81812   1
   0  -6  -8 2008.25 212.548   9
   0  -6  -8 2386.47 219.582   4
   0  -6   8 2093.02 205.766   7
   0  -6  -8 2441.32 204.269   1
   0   6   8 2311.38 204.350   1
   0   6  -8 2570.97 209.792   6
   0   6  -8 2268.13 204.038   1
   0   6   8 2370.71 203.710   5
   0   6  -8 2156.45 238.084   3
   0   6   8 2522.94 205.761   7
   0   6   8 2453.82 213.180   9
  -1  -6  -8 22.5713 3.88991   4
  -1  -6  -8 19.2273 3.48056   1
   1  -6   8 19.2369 4.01919   7
   1   6   8 20.7382 3.54865   5
  -1   6  -8 22.3147 3.47222   6
  -1   6  -8 19.5779 3.34557   3
   1   6   8 25.0662 4.14673   1
  -1   6  -8 18.2235 3.49073   1
  -1   6  -8 18.8724 2.88422  10
   1   6   8 21.6638 3.82462   7
  -1   6  -8 20.1453 2.94079  10
   1   6   8 19.7242 3.71439   9
  -1   6  -8 23.2229 3.19446   7
   2  -6   8 13.8482 3.50360   7
  -2  -6  -8 12.2112 3.00441   1
  -2  -6  -8 14.6374 3.18299   4
  -2   6  -8 10.1464 1.70395   9
  -2   6  -8 14.5379 2.85298   6
   2   6   8 13.5541 2.77193   5
   2   6   8 17.0945 3.57000   1
  -2   6  -8 15.1542 3.06440   3
   2   6   8 12.5317 2.96529   7
  -2   6  -8 20.5803 2.98427   7
  -2   6  -8 13.9798 2.92640   1
  -2   6  -8 11.4433 1.82941   9
   2   6   8 11.0160 2.63946   9
  -3  -6  -8 152.913 15.7034   4
   3  -6   8 137.355 15.2351   7
   3   6   8 184.194 15.3828   9
  -3   6  -8 157.654 14.7097   7
   3   6   8 169.043 15.2998   1
  -3   6  -8 150.639 14.9863   6
  -3   6  -8 144.514 16.9935   3
   3   6   8 147.246 14.6254   7
  -3   6  -8 154.501 14.6949   1
   3   6   8 129.476 14.2353   5
   3   6   8 146.738 15.6673  10
  -4  -6  -8 1711.65 162.560   4
   4  -6   8 1915.97 151.856   1
   4  -6   8 1453.78 152.530   7
  -4   6  -8 1630.15 157.036   9
  -4   6  -8 1807.29 151.318   1
   4   6   8 1795.83 152.061   7
  -4   6  -8 1617.46 177.077   3
   4   6   8 1735.66 150.506   5
   4   6   8 1626.10 167.160  10
  -4   6  -8 1897.29 152.447   7
   5  -6   8 46.6061 7.66128   7
  -5  -6  -8 69.8308 8.45513   4
   5  -6   8 60.6917 8.03676   1
   5   6   8 67.8861 8.26570  10
   5   6   8 70.4251 7.60464  10
  -5   6  -8 69.9203 7.53999   1
   5   6   8 69.3454 7.10933   5
   5   6   8 77.0037 8.12787   1
  -5   6  -8 68.3167 9.16975   3
  -5   6  -8 73.6638 7.83555   7
   6  -6   8 7.12123 2.63562   5
  -6  -6  -8 2.85110 2.62273   4
   6  -6   8 1.87871 2.27235   7
   6  -6   8 0.40008 2.07289   1
  -6   6  -8 6.30204 3.27132   3
   6   6   8 3.54537 1.97225   5
  -6   6  -8 3.20650 2.16585   1
  -6   6  -8 1.00187 1.93390   7
   6   6   8 4.53743 2.57833   1
   7  -6   8 67.4882 8.59848   7
  -7  -6  -8 80.9962 9.77173   4
   7  -6   8 63.8321 8.23397   5
   7  -6   8 55.9341 8.59804   1
  -7   6  -8 87.2126 8.53481   1
  -7   6  -8 74.7120 10.2858   3
   7   6   8 82.4684 8.86367   1
  -7   6  -8 90.8106 8.74981   7
   8  -6   8 723.160 69.9238   7
   8  -6   8 776.024 70.0055   1
  -8  -6  -8 811.702 75.4040   4
   8   6   8 766.443 69.6104   1
  -8   6  -8 816.747 70.0592   7
   9  -6   8 216.781 18.4176   1
   9  -6   8 147.097 16.9119   5
   9  -6   8 185.270 17.6739   7
  -9  -6  -8 197.668 19.7631   4
   9   6   8 175.308 17.7136   1
  -9   6  -8 176.552 17.5273   7
  10  -6   8 5.12200 2.90471   1
  10  -6   8 1.22554 1.74691   5
 -10  -6  -8 0.74159 3.03518   4
  10   6   8 2.43410 2.74485   1
 -10   6  -8 0.40763 2.03679   7
  -9  -7   8 17.0601 2.09789   8
   9  -7  -8 26.5536 5.63045   1
  -9   7   8 20.8968 4.78059   7
   8  -7  -8 60.6866 8.46375   1
  -8   7   8 51.0788 7.70989   7
   7  -7  -8 -0.2208 2.46631   1
  -7   7   8 1.57609 2.89499   7
   6  -7  -8 20.6745 5.40517   4
   6  -7  -8 21.8798 4.25527   1
   6   7  -8 20.6961 2.58217   6
  -6   7   8 17.2447 4.45518   7
  -6   7   8 16.5022 4.38033   5
   5  -7  -8 9.28314 2.96959   1
   5  -7  -8 8.71032 3.89833   4
   5  -7  -8 10.2929 3.46212   7
  -5   7   8 10.8857 3.53150   7
   5   7  -8 10.0732 1.72764   6
  -5   7   8 11.0463 3.33406   5
   4  -7  -8 170.285 16.4918   1
   4  -7  -8 160.859 19.1526   4
  -4   7   8 161.814 16.8491   5
   4   7  -8 176.441 15.9371   6
   4   7  -8 183.942 15.6062   1
  -4   7   8 157.181 17.1309   7
   3  -7  -8 19.3579 4.58801   4
   3  -7  -8 13.3545 2.99357   1
   3   7  -8 14.6508 2.38682   1
  -3   7   8 11.6156 3.48376   7
  -3   7   8 22.1549 4.11465   5
  -3   7   8 27.7996 4.55456   1
   3   7  -8 16.8042 2.39817   6
   2  -7  -8 123.052 12.3404   1
   2  -7  -8 125.306 13.8859   4
   2  -7  -8 135.084 12.8534   9
   2   7  -8 114.280 12.0473   6
  -2   7   8 113.498 12.6740   5
  -2   7   8 123.007 12.9965   1
  -2   7   8 144.262 12.9724   9
   2   7  -8 121.577 11.8134   1
  -2   7   8 140.966 13.2766   7
   1  -7  -8 5.13324 1.77380   9
   1  -7  -8 10.6751 3.17490   4
  -1  -7   8 4.52751 2.41750   7
   1  -7  -8 10.6187 2.46393   1
  -1   7   8 5.89185 2.72118   7
   1   7  -8 6.45689 1.81691   6
  -1   7   8 8.26878 2.39390   9
  -1   7   8 7.94391 2.60893   5
  -1   7   8 5.45806 2.57845   1
   1   7  -8 5.19061 1.76351   1
   0  -7  -8 200.615 18.1034   4
   0  -7   8 180.123 17.2659   7
   0  -7   8 179.747 16.8656   8
   0  -7  -8 173.057 16.5593   1
   0   7   8 167.363 17.1021   1
   0   7  -8 189.377 16.8184   6
   0   7   8 141.677 16.5579   5
   0   7   8 163.887 17.0349   9
   0   7  -8 173.874 16.2920   1
   0   7   8 182.012 17.1953   7
  -1  -7  -8 18.4763 3.44767   4
  -1  -7  -8 16.6804 3.28992   1
   1  -7   8 17.6045 3.91907   7
   1   7   8 15.5662 3.40658   7
   1   7   8 10.4635 3.18740   1
   1   7   8 15.1763 3.04030   9
  -1   7  -8 14.5616 2.80957   6
   1   7   8 14.6897 3.13396   5
  -1   7  -8 14.5704 2.30867  10
  -1   7  -8 23.3460 3.23733   1
  -1   7  -8 16.9212 2.38807  10
  -1   7  -8 19.1403 2.92199   3
  -2  -7  -8 204.044 20.9490   4
   2  -7   8 231.093 20.8248   7
  -2   7  -8 216.723 21.1372  10
  -2   7  -8 252.565 19.6085   7
   2   7   8 214.056 20.0291   7
   2   7   8 191.111 19.5483   5
  -2   7  -8 191.878 19.8847   6
   2   7   8 232.299 20.3427   1
  -2   7  -8 203.795 22.4231   3
  -2   7  -8 173.679 19.2735   1
   3  -7   8 10.0538 3.44970   7
  -3  -7  -8 12.3798 2.84208   4
   3   7   8 9.97175 2.42911  10
  -3   7  -8 8.21255 2.50981   3
   3   7   8 11.3272 3.40938   1
  -3   7  -8 8.90098 2.34701   1
   3   7   8 18.8486 3.25195   7
   3   7   8 12.3626 2.73514   5
  -3   7  -8 6.30816 2.17704   6
  -3   7  -8 5.64237 2.22900   7
   4  -7   8 59.6371 8.12180   7
  -4  -7  -8 68.5650 7.44286   4
  -4   7  -8 55.8939 6.91462   7
  -4   7  -8 62.7268 6.80639   1
   4   7   8 65.3648 7.32407  10
  -4   7  -8 48.8605 7.82399   3
   4   7   8 61.0403 7.87743   1
   4   7   8 64.5531 6.88525   5
   5  -7   8 2.53615 2.63322   7
  -5  -7  -8 0.75385 1.93127   4
  -5   7  -8 1.18651 1.85667   7
   5   7   8 0.14530 1.92845   5
  -5   7  -8 2.00288 1.83253   1
  -5   7  -8 1.68105 2.12430   3
   5   7   8 3.55114 2.84371   1
   6  -7   8 92.5167 11.4176   7
   6  -7   8 89.7526 11.2847   1
  -6  -7  -8 111.890 11.8274   4
  -6   7  -8 128.921 11.2455   7
  -6   7  -8 111.227 13.2286   3
   6   7   8 89.5010 11.1211   1
  -6   7  -8 112.376 10.8217   1
  -7  -7  -8 21.6316 4.32309   4
   7  -7   8 18.0008 4.15820   7
   7  -7   8 20.4135 4.02511   5
   7  -7   8 17.2553 4.27462   1
  -7   7  -8 21.0599 3.75822   7
   7   7   8 21.7281 4.34165   1
  -7   7  -8 19.4939 3.50969   1
   8  -7   8 8.27508 3.14094   7
  -8  -7  -8 14.2666 3.91549   4
   8  -7   8 10.2047 2.97594   5
   8  -7   8 11.7057 3.94011   1
  -8   7  -8 11.7233 2.92948   7
   8   7   8 11.9006 3.37628   1
   9  -7   8 8.42521 3.42439   1
  -9  -7  -8 7.64110 3.62877   4
   9  -7   8 7.37552 2.79234   5
   9  -7   8 9.99111 3.02674   7
  -9   7  -8 9.44214 2.76367   7
   9   7   8 9.66495 3.41619   1
  -8  -8   8 459.473 44.4022   8
   8  -8  -8 550.978 46.8200   1
  -8   8   8 538.459 47.1437   7
  -7  -8   8 2.98863 1.15375   8
   7  -8  -8 2.35335 2.72092   1
  -7   8   8 1.88347 2.87959   7
   6  -8  -8 10.0002 3.00599   1
  -6  -8   8 10.3869 1.92151   8
   6  -8  -8 8.39654 3.17974   7
   6  -8  -8 11.9044 4.41091   4
  -6   8   8 5.03011 3.28643   5
  -6   8   8 5.10405 3.00814   7
   5  -8  -8 96.3217 11.4888   7
   5  -8  -8 92.8197 12.3624   4
   5  -8  -8 105.411 10.7317   1
  -5  -8   8 109.075 9.98946   8
   5   8  -8 103.115 9.74709   6
  -5   8   8 104.416 11.6973   7
  -5   8   8 93.3482 11.3549   5
  -4  -8   8 754.175 69.5591   8
   4  -8  -8 927.817 76.4523   4
   4  -8  -8 904.760 70.3430   1
   4   8  -8 843.901 69.4154   1
  -4   8   8 707.071 71.2819   7
   4   8  -8 726.948 71.2934   6
  -4   8   8 663.935 70.4139   5
   3  -8  -8 0.19106 2.56892   4
   3  -8  -8 1.04999 1.67311   1
  -3  -8   8 -0.1837 1.51045   8
   3   8  -8 1.20891 1.09206   6
  -3   8   8 4.71493 2.51690   5
  -3   8   8 1.11108 2.28653   7
  -3   8   8 2.71889 2.67029   1
   3   8  -8 3.69844 1.37524   1
   2  -8  -8 25.7004 4.39690   4
   2  -8  -8 16.9061 3.20873   1
  -2  -8   8 23.9419 3.76917   8
  -2   8   8 21.2086 4.26288   7
   2   8  -8 18.6589 2.81934   1
  -2   8   8 20.5701 4.03396   5
   2   8  -8 21.8335 2.93671   6
  -2   8   8 18.0408 4.33329   1
   1  -8  -8 136.365 13.1120   4
  -1  -8   8 122.408 12.0020   8
  -1  -8   8 102.776 12.0503   7
   1  -8  -8 126.366 11.8493   1
   1   8  -8 121.935 11.6407   6
  -1   8   8 113.641 12.3559   5
  -1   8   8 122.689 12.7292   7
   1   8  -8 120.727 11.4017   1
  -1   8   8 113.180 12.7690   1
   0  -8  -8 862.587 78.9915   4
   0  -8   8 787.060 74.2515   7
   0   8  -8 764.238 73.0356   1
   0   8   8 901.030 73.7602   5
   0   8   8 838.920 74.4962   7
   0   8  -8 819.003 75.0441   6
   1  -8   8 38.2623 5.88053   7
  -1  -8  -8 38.0008 5.25993   4
   1   8   8 45.0276 6.37177   1
  -1   8  -8 35.9162 4.66405   1
   1   8   8 40.3701 5.62787   5
  -1   8  -8 40.7338 4.73175   6
   1   8   8 38.0355 5.72102   7
   2  -8   8 24.5487 4.59911   7
  -2  -8  -8 15.4712 3.23040   4
   2   8   8 18.0820 3.98221   1
  -2   8  -8 16.5992 2.90345   6
  -2   8  -8 15.7463 2.92387   1
  -2   8  -8 17.6810 3.02617   3
   2   8   8 20.5471 3.83192   7
   2   8   8 16.6161 3.26306   5
   3  -8   8 70.8959 8.56594   7
  -3  -8  -8 75.0897 7.40309   4
   3   8   8 50.3695 6.89107   5
  -3   8  -8 69.0892 6.91682   7
   3   8   8 60.9148 7.76713   1
  -3   8  -8 61.2671 6.81308   6
  -3   8  -8 52.0075 7.41400   3
  -3   8  -8 59.8570 6.69122   1
   4  -8   8 468.756 49.3635   7
  -4  -8  -8 530.184 51.6237   4
  -4   8  -8 550.408 56.1262   3
   4   8   8 629.828 49.1726   1
  -4   8  -8 468.382 47.8786   1
   4   8   8 583.003 48.1162   5
  -5  -8  -8 91.4545 9.93053   4
   5  -8   8 81.9414 10.4842   7
   5   8   8 70.5099 9.84367   1
  -5   8  -8 90.5563 10.9134   3
  -5   8  -8 95.1222 9.48096   7
  -5   8  -8 95.5629 9.18252   1
   6  -8   8 3.96330 2.72787   7
  -6   8  -8 6.97050 2.28652   1
  -6   8  -8 6.06221 2.36639   7
   6   8   8 4.36619 2.84054   1
   7  -8   8 10.4159 3.38991   5
   7  -8   8 14.3630 3.90115   7
  -7  -8  -8 19.3050 3.78378   4
   7   8   8 11.5699 3.61668   1
  -7   8  -8 20.3617 3.37886   1
  -7   8  -8 18.5131 3.43886   7
   8  -8   8 174.431 18.9986   5
   8  -8   8 188.408 19.5829   7
   8  -8   8 197.289 19.7556   1
  -8   8  -8 229.721 19.2325   7
   8   8   8 203.541 19.2771   1
   7  -9  -8 62.3393 7.93507   1
  -7  -9   8 64.9906 6.28390   8
  -7   9   8 79.6974 9.13078   5
   6  -9  -8 5.66209 2.85545   7
   6  -9  -8 1.00987 2.64685   4
  -6  -9   8 2.37589 1.06613   8
   6  -9  -8 3.72417 2.47444   1
  -6   9   8 1.56725 2.49183   7
  -6   9   8 -1.0173 2.63095   5
  -5  -9   8 212.117 20.4033   8
   5  -9  -8 233.646 23.5727   4
   5  -9  -8 198.867 21.8570   7
   5  -9  -8 255.129 21.4711   1
  -5   9   8 212.436 22.2332   7
  -5   9   8 264.465 22.4908   5
   4  -9  -8 220.026 20.3315   7
   4  -9  -8 225.409 19.7518   1
  -4  -9   8 186.975 18.9706   8
   4  -9  -8 222.409 21.6922   4
   4   9  -8 215.123 19.4303   6
   4   9  -8 220.637 18.9286   1
  -4   9   8 192.314 20.6010   7
  -4   9   8 189.604 20.3660   5
   3  -9  -8 75.0945 8.59208   1
   3  -9  -8 93.9577 9.87158   4
  -3  -9   8 87.4540 8.33357   8
  -3   9   8 79.5844 9.91471   1
  -3   9   8 88.0359 9.96428   7
   3   9  -8 91.0238 8.11489   1
   3   9  -8 71.9807 8.08841   6
  -3   9   8 86.0174 9.73684   5
   2  -9  -8 5.40451 2.04992   1
   2  -9  -8 4.69130 2.39605   4
  -2  -9   8 4.44605 1.78763   8
   2   9  -8 2.43735 1.37847   1
  -2   9   8 2.59169 2.55661   7
  -2   9   8 3.13092 2.47560   5
  -2   9   8 4.44006 2.92194   1
   2   9  -8 5.72011 1.47897   6
   1  -9  -8 250.471 21.5531   4
   1   9  -8 230.594 19.4600   1
  -1   9   8 195.920 20.8230   1
   1   9  -8 194.366 19.9156   6
  -1   9   8 189.196 20.3805   5
  -1   9   8 213.088 20.9055   7
   0  -9   8 269.066 27.9131   7
   0  -9  -8 303.696 29.5828   4
   0   9   8 343.977 28.7898   1
   0   9   8 266.250 27.8922   5
   0   9  -8 337.781 28.0205   6
   0   9  -8 324.553 27.1715   1
   0   9   8 256.324 28.2082   7
  -1  -9  -8 79.4803 9.22448   4
   1  -9   8 69.8750 9.08418   7
  -1   9  -8 90.5889 8.36451   1
  -1   9  -8 91.1587 8.63622   6
   1   9   8 99.3782 10.0226   1
   1   9   8 65.5674 8.91830   5
   1   9   8 84.9775 9.51799   7
   2  -9   8 5.35464 2.79681   7
  -2  -9  -8 5.84261 2.15985   4
   2   9   8 6.63549 2.50374   5
   2   9   8 6.87377 2.99784   1
  -2   9  -8 7.65549 2.02776   1
  -2   9  -8 9.19732 2.20308   6
  -3  -9  -8 171.363 15.7964   4
   3  -9   8 142.018 15.7704   7
   3   9   8 138.746 14.6873   5
   3   9   8 156.736 15.5295   1
  -3   9  -8 155.474 14.5138   1
   4  -9   8 265.645 27.6644   7
  -4  -9  -8 324.294 28.1700   4
   4   9   8 312.608 26.1632   5
   4   9   8 237.282 26.7029   1
  -4   9  -8 279.449 26.1014   1
  -5  -9  -8 70.6705 8.22345   4
   5  -9   8 59.3816 8.96357   7
  -5   9  -8 84.5621 8.02861   7
  -5   9  -8 64.4873 7.52743   1
   5   9   8 72.7740 8.79117   1
   6  -9   8 6.44909 3.32680   7
  -6  -9  -8 8.11017 2.65136   4
  -6   9  -8 7.28506 2.44607   7
   6   9   8 4.59519 2.90140   1
  -6   9  -8 4.66575 2.18786   1
   7  -9   8 81.5581 11.1839   7
   7  -9   8 91.3742 10.4853   5
  -7   9  -8 108.176 9.99782   7
  -7   9  -8 87.5648 9.59249   1
   7   9   8 93.0595 10.2738   1
   6 -10  -8 124.708 10.9856   1
  -6 -10   8 94.3478 9.47630   8
  -5 -10   8 30.8214 3.42869   8
   5 -10  -8 31.2140 4.74801   7
   5 -10  -8 31.6570 4.44035   1
   5 -10  -8 27.6023 4.88983   4
  -5  10   8 23.6371 5.22201   7
  -5  10   8 31.0194 5.61509   5
   4 -10  -8 52.3095 6.88532   1
   4 -10  -8 67.0834 7.53726   7
   4 -10  -8 62.8478 7.77847   4
  -4 -10   8 60.3678 6.26826   8
   4  10  -8 76.4324 6.43258   1
  -4  10   8 61.0251 8.16061   7
  -4  10   8 53.4517 7.84418   5
   3 -10  -8 98.7413 10.9022   4
   3 -10  -8 88.4204 9.89160   1
  -3 -10   8 95.8777 9.47256   8
  -3  10   8 95.7603 10.9078   5
  -3  10   8 103.164 11.3045   7
   3  10  -8 111.190 9.45651   1
  -3  10   8 97.0012 11.3379   1
   2 -10  -8 125.112 13.0722   4
   2  10  -8 130.631 11.5810   1
  -2  10   8 115.552 12.7906   5
  -2  10   8 108.880 13.1793   1
  -2  10   8 128.112 13.2037   7
   1 -10  -8 16.6318 3.24527   4
  -1  10   8 14.0196 3.59190   7
   1  10  -8 11.3664 2.29707   1
  -1  10   8 12.2446 3.27135   5
  -1  10   8 15.5482 4.03179   1
   0 -10  -8 93.3073 9.77204   4
   0 -10   8 78.3218 9.23743   7
   0  10   8 92.8282 9.78651   5
   0  10  -8 96.1856 8.88422   1
   0  10   8 94.2853 10.4600   1
   0  10   8 77.8731 9.89272   7
   1 -10   8 41.6479 5.50487   7
  -1 -10  -8 42.0832 5.30348   4
   1  10   8 43.7280 6.45384   1
   1  10   8 24.3587 4.89456   5
  -1  10  -8 40.4948 4.73316   6
  -1  10  -8 40.9354 4.77633   1
   2 -10   8 60.9002 8.93726   7
  -2  10  -8 93.0014 8.75776   6
   2  10   8 87.5594 8.90013   5
   2  10   8 97.6769 9.91208   1
  -2  10  -8 79.3295 8.41991   1
  -3 -10  -8 2.43756 1.79915   4
   3 -10   8 1.94739 2.42866   7
   3  10   8 4.75627 2.89872   1
  -3  10  -8 2.58390 1.88472   1
   3  10   8 2.72694 1.99001   5
   4 -10   8 43.0808 6.67576   7
   4  10   8 58.0256 6.88662   1
  -4  10  -8 43.5077 5.58739   1
   5  10   8 0.87417 2.55771   1
  -5  10  -8 5.27640 2.12560   1
   3 -11  -8 61.9693 7.10558   4
   3  11  -8 55.3250 5.91646   1
  -3  11   8 56.6420 7.82951   1
  -3  11   8 59.6278 7.52763   5
   2 -11  -8 8.21625 2.53880   4
  -2  11   8 3.37735 2.64108   5
   2  11  -8 6.23353 1.71505   1
  -2  11   8 5.39113 3.05242   7
  -2  11   8 7.68877 3.18180   1
   1 -11  -8 192.432 17.2510   4
  -1  11   8 169.577 16.5586   5
  -1  11   8 184.854 17.2591   1
  -1  11   8 161.411 16.8495   7
   1  11  -8 146.422 15.4251   1
   0 -11   8 51.5450 6.12828   7
   0 -11  -8 68.0086 6.91679   4
   0  11   8 49.3134 6.77688   5
   0  11   8 51.7417 7.41081   1
   0  11  -8 56.3527 5.94349   1
   1 -11   8 71.6404 7.72947   7
  -1  11  -8 65.8228 7.31203   1
   1  11   8 74.2391 8.75696   1
   1  11   8 83.7049 8.23192   5
  -2  11  -8 6.41665 1.94248   1
   2  11   8 10.3673 2.61502   5
   2  11   8 2.32978 2.72297   1
  -3  11  -8 130.991 13.2579   1
   3  11   8 156.114 14.5071   1
 -12   0   9 0.12403 1.45709   8
 -11   0   9 1.96114 1.53890   8
 -10   0   9 0.14340 1.43840   8
  10   0  -9 0.39724 1.90698   6
   9   0  -9 2.69603 2.09386   6
  -9   0   9 2.24800 1.63696   8
  -8   0   9 0.34099 1.42850   8
   8   0  -9 2.99077 1.91534   6
   7   0  -9 4.44378 2.00019   6
  -7   0   9 1.16860 1.51993   8
   7   0  -9 3.30229 2.20784   1
  -6   0   9 1.33526 1.51997   8
   6   0  -9 3.95822 2.17788   1
   6   0  -9 4.15707 2.09333   6
   5   0  -9 9.74435 2.71821   1
  -5   0   9 1.53298 1.68057   8
   5   0  -9 5.18385 2.33398   4
   5   0  -9 5.46373 2.11991   6
   4   0  -9 3.07717 2.02043   1
  -4   0   9 0.88054 1.29084   7
   4   0  -9 4.47634 2.03311   4
  -4   0   9 -0.4134 1.65396   8
   4   0  -9 4.09500 1.87088   6
  -3   0   9 4.36109 1.57407   7
  -3   0   9 1.14534 1.81491   8
   3   0  -9 0.64595 1.47390   4
   3   0  -9 6.18677 2.26233   6
   3   0  -9 3.18861 2.12339   1
   2   0  -9 1.38363 1.88809   1
   2   0  -9 3.79621 2.04421   6
   2   0  -9 1.88215 0.84370  10
   2   0  -9 4.31069 1.28377  10
   2   0  -9 1.83636 1.81957   4
  -2   0   9 0.34633 1.21937   7
  -2   0   9 1.27322 1.98741   8
  -1   0   9 4.35630 2.60659   8
   1   0  -9 3.89920 1.00397   9
  -1   0   9 5.05211 1.62659   7
   1   0  -9 5.56206 3.32442  10
  -1   0   9 6.25754 1.70079   5
   1   0  -9 5.40365 0.89553   9
   1   0  -9 2.97650 1.11992  10
  -1   0   9 3.80694 1.18512   2
   1   0  -9 2.65534 2.13842   1
   1   0  -9 2.82151 1.08191   2
   1   0  -9 7.22807 2.40235   6
   1   0  -9 -0.7174 1.76501   4
   0   0  -9 -1.6077 3.33961  10
   0   0  -9 3.21369 1.95957   1
   0   0  -9 1.94287 0.89733   9
   0   0   9 1.73504 1.38168   5
   0   0   9 2.78240 1.43019   7
   0   0  -9 3.05167 2.13101   6
   0   0   9 1.08664 1.02919   2
   0   0  -9 0.60926 2.61520   4
   0   0   9 3.51202 2.98278   8
   0   0   9 5.83450 4.17959   9
   0   0  -9 1.60482 1.06640   2
   0   0  -9 0.41270 1.19910  10
   0   0  -9 3.57251 1.78932   9
   1   0   9 2.48048 1.25704   2
   1   0   9 5.63430 3.78101   9
  -1   0  -9 14.9220 4.87030  10
  -1   0  -9 9.63575 2.82732   1
  -1   0  -9 9.03704 3.36728   7
   1   0   9 1.68061 2.94917   8
  -1   0  -9 3.82069 1.35462   2
   1   0   9 4.20695 1.58555   1
  -1   0  -9 2.01586 3.93334   4
  -1   0  -9 0.06142 1.05703  10
   1   0   9 2.94955 1.51453   7
  -1   0  -9 5.59208 2.37678   6
   1   0   9 6.99126 1.72723   5
  -1   0  -9 0.79387 0.94639   9
   2   0   9 3.26049 3.00725   9
   2   0   9 0.75026 1.36350   7
  -2   0  -9 1.57439 3.84831   4
  -2   0  -9 3.41752 2.56326   1
  -2   0  -9 0.81646 2.34263   6
  -2   0  -9 2.42740 3.06244  10
   2   0   9 1.11440 1.33970   1
   2   0   9 3.54657 1.50753   5
   2   0   9 -0.1160 1.15107   2
  -2   0  -9 1.65453 2.72892   7
  -3   0  -9 11.2728 3.70895   7
  -3   0  -9 2.22297 1.20203   9
   3   0   9 1.42257 1.26354   5
   3   0   9 1.87448 1.49768   7
   3   0   9 0.64617 1.29155   2
   3   0   9 1.88056 1.37919   1
  -3   0  -9 7.17301 3.27187   1
   3   0   9 1.20574 1.29951   1
  -3   0  -9 3.16864 4.31888   4
  -3   0  -9 3.44755 2.78523   6
   3   0   9 0.85458 3.76337   9
   4   0   9 5.42364 3.89539   9
  -4   0  -9 5.23442 3.34766   1
  -4   0  -9 5.90166 4.50451   4
   4   0   9 0.94607 1.34618   1
   4   0   9 2.12670 1.44435   7
  -4   0  -9 2.14774 1.39671   9
  -4   0  -9 3.96197 3.02809   7
   4   0   9 2.41420 1.54865   1
   4   0   9 0.15021 1.30005   5
   5   0   9 0.01836 1.44657   1
   5   0   9 1.93225 1.40661   5
  -5   0  -9 9.26786 5.42865   4
  -5   0  -9 1.72545 2.85835   7
  -5   0  -9 4.15996 3.34902   1
   5   0   9 0.78872 1.51653   1
   5   0   9 1.93373 1.42605   7
   5   0   9 3.51356 3.42250   9
  -6   0  -9 -1.4714 3.45330   1
  -6   0  -9 2.35227 3.13964   7
   6   0   9 0.95734 1.28979   5
  -6   0  -9 -0.3718 4.68040   4
   6   0   9 -0.4011 1.62628   1
   6   0   9 0.10472 2.76479   9
   6   0   9 1.49662 1.54261   7
  -7   0  -9 5.17234 5.00433   4
   7   0   9 2.17375 2.06092   9
   7   0   9 3.12484 1.48602   5
   7   0   9 3.43617 1.60025  10
   7   0   9 0.66723 1.68440   1
   7   0   9 2.51378 1.60297   7
  -7   0  -9 2.61071 3.36430   7
   8   0   9 1.32333 1.88078   1
  -8   0  -9 -0.6050 3.02274   7
   8   0   9 1.47046 1.64148   7
  -8   0  -9 1.08773 4.10635   4
   8   0   9 0.00578 1.39366   5
   8   0   9 2.59042 1.31049  10
  -9   0  -9 4.92926 4.40727   4
  -9   0  -9 6.61262 3.58798   7
   9   0   9 0.08636 1.32272   5
   9   0   9 2.42435 2.10601   1
  10   0   9 0.72343 2.10733   1
 -10   0  -9 4.02687 4.06320   4
 -10   0  -9 -0.4659 2.63392   7
 -11   0  -9 1.42967 2.72722   7
  11   0   9 0.98908 2.22624   1
 -11   0  -9 1.51897 3.75750   4
  12   0   9 1.42096 2.30912   1
 -12   0  -9 -1.2279 2.51008   7
 -12   0  -9 -1.0420 3.18984   4
 -12  -1   9 431.491 33.5444   8
 -12   1   9 318.139 33.8059   8
 -11  -1   9 124.465 10.5220   8
 -11   1   9 93.8960 10.7745   8
  10  -1  -9 4.20369 2.18044   6
 -10  -1   9 2.45390 1.39045   8
 -10   1   9 0.19282 1.66327   8
  10   1  -9 0.77629 1.39192   6
   9  -1  -9 2.00513 2.08440   6
  -9  -1   9 2.69874 1.25056   8
   9  -1  -9 1.54831 2.72543   1
   9   1  -9 2.72363 1.56393   6
  -9   1   9 2.49369 1.90473   8
   8  -1  -9 1110.27 95.6273   6
   8  -1  -9 1037.53 93.1492   1
  -8  -1   9 960.669 91.7182   8
  -8   1   9 1059.99 92.3812   8
   8   1  -9 1076.98 94.8403   6
   7  -1  -9 115.927 14.1485   6
   7  -1  -9 154.414 14.3612   1
  -7  -1   9 136.877 12.9052   8
   7   1  -9 148.490 13.5984   6
  -7   1   9 151.460 13.7473   8
   6  -1  -9 106.022 10.9866   6
  -6  -1   9 90.0869 9.34739   8
   6  -1  -9 107.568 10.8032   1
   6   1  -9 96.7599 10.0077   6
  -6   1   9 109.726 10.2657   8
   6   1  -9 104.981 9.95104   1
   5  -1  -9 51.3058 6.37361   6
   5  -1  -9 50.4520 6.45607   1
   5  -1  -9 52.8374 6.81359   4
  -5  -1   9 42.6316 4.98839   8
   5   1  -9 46.4596 5.43212   1
   5   1  -9 43.7406 5.45484   6
  -5   1   9 49.9938 6.06804   8
  -5   1   9 49.8039 5.56994   7
   4  -1  -9 2128.27 222.686   6
   4  -1  -9 2382.66 216.783   1
  -4  -1   9 2425.81 215.332   8
  -4   1   9 2418.08 217.525   7
   4   1  -9 2577.37 216.162   1
   4   1  -9 2555.62 222.199   6
  -4   1   9 2773.94 216.104   8
  -3  -1   9 108.223 11.6328   8
   3  -1  -9 125.848 12.4941   1
   3  -1  -9 128.545 12.0234  10
   3  -1  -9 114.393 12.1777  10
  -3  -1   9 126.107 11.5196   7
   3  -1  -9 144.683 12.8662   6
  -3   1   9 143.671 13.0918   8
  -3   1   9 113.700 11.6738   7
   3   1  -9 109.831 11.6802   1
   3   1  -9 114.858 11.9563   6
  -2  -1   9 518.149 46.5650   8
   2  -1  -9 469.805 46.7997   1
  -2  -1   9 497.337 46.3454   7
   2  -1  -9 562.919 50.7020   4
   2  -1  -9 518.098 51.3595  10
   2  -1  -9 529.922 48.1436   6
   2  -1  -9 460.665 50.5767  10
  -2   1   9 587.330 47.1906   8
  -2   1   9 540.963 46.1021   5
   2   1  -9 492.283 46.3331   1
   2   1  -9 541.842 47.6664   6
  -2   1   9 528.482 46.4577   7
   1  -1  -9 95.2476 9.21455  10
   1  -1  -9 88.2654 8.41224   9
   1  -1  -9 105.820 11.5754  10
  -1  -1   9 82.5034 8.73048   7
   1  -1  -9 117.592 12.0504   4
   1  -1  -9 81.0957 9.61941   6
  -1  -1   9 90.5882 9.49479   8
  -1  -1   9 80.9143 8.44840   2
   1  -1  -9 81.1386 8.29478   2
   1  -1  -9 82.5398 9.40919   1
   1  -1  -9 81.2699 8.83879   9
   1   1  -9 82.3686 9.03686  10
  -1   1   9 96.6819 8.72414   5
   1   1  -9 96.7873 9.73010  10
   1   1  -9 94.2577 9.14212   1
  -1   1   9 90.5434 10.3626   8
  -1   1   9 92.2960 8.76902   2
  -1   1   9 89.3305 8.72229   7
   1   1  -9 85.0155 9.30852   6
   0  -1  -9 3870.45 346.360   2
   0  -1  -9 4100.94 374.771  10
   0  -1  -9 3610.11 376.587  10
   0  -1  -9 4054.51 348.451   6
   0  -1   9 3615.52 337.570   8
   0  -1   9 3773.94 340.422   7
   0  -1   9 3451.06 337.127   5
   0  -1  -9 3372.56 351.940   9
   0  -1   9 4004.96 346.556   2
   0   1  -9 3871.64 351.873   9
   0   1  -9 3724.85 338.592   1
   0   1  -9 3658.41 341.515   7
   0   1  -9 4145.80 346.515   2
   0   1   9 4059.70 346.616   2
   0   1   9 3687.43 338.021   1
   0   1  -9 3782.21 348.085   6
   0   1  -9 3947.73 376.169  10
   0   1   9 3968.66 340.368   7
   0   1   9 3756.05 337.185   5
   0   1   9 3917.15 354.320   9
   0   1  -9 4247.45 374.686  10
   0   1   9 4402.83 339.329   8
   1  -1   9 89.1681 8.50070   7
  -1  -1  -9 96.5460 9.71829   6
  -1  -1  -9 81.1710 11.3242   4
  -1  -1  -9 86.0611 8.17899   9
  -1  -1  -9 73.8854 9.02539   1
  -1  -1  -9 99.0693 8.20689   2
   1  -1   9 94.1925 10.9290   9
  -1  -1  -9 99.1122 12.3707  10
   1  -1   9 87.8346 8.33194   2
   1  -1   9 84.0721 8.10370   1
   1  -1   9 79.8548 8.17452   5
   1   1   9 68.7588 8.15772   7
   1   1   9 85.6572 8.35126   2
  -1   1  -9 83.5859 9.32492   6
  -1   1  -9 68.3149 9.47668   4
  -1   1  -9 74.7899 8.70808  10
  -1   1  -9 76.4665 7.99429   9
  -1   1  -9 77.2119 9.42429   7
  -1   1  -9 80.1869 8.14187   2
  -1   1  -9 95.8867 9.39509   1
   1   1   9 83.6627 12.4472   9
   1   1   9 83.0222 8.17754   5
   1   1   9 72.5557 8.07566   1
  -1   1  -9 88.6391 11.5443  10
   2  -1   9 642.994 59.1207   1
   2  -1   9 775.953 59.1760   5
  -2  -1  -9 600.703 60.0490   1
  -2  -1  -9 671.444 61.9395   6
   2  -1   9 703.007 60.6840   2
  -2  -1  -9 614.103 61.3788   9
   2  -1   9 668.104 59.7275   7
  -2  -1  -9 614.594 60.7190   7
   2  -1   9 610.901 63.1975   9
  -2  -1  -9 664.746 66.0002   4
  -2   1  -9 659.810 61.3304   9
   2   1   9 651.504 59.1918   1
   2   1   9 721.992 60.7278   2
  -2   1  -9 650.823 61.9593   6
  -2   1  -9 692.712 60.9234   7
   2   1   9 641.857 63.9463   9
  -2   1  -9 670.407 60.3857   1
   2   1   9 614.486 58.9483   5
   2   1   9 638.160 59.5414   7
  -2   1  -9 787.804 67.8394  10
  -2   1  -9 738.445 64.9197   4
   3  -1   9 70.4177 9.72074   9
  -3  -1  -9 72.2934 6.77598   9
  -3  -1  -9 64.5572 8.26211   6
   3  -1   9 56.7066 6.50111   5
   3  -1   9 58.5219 6.54927   1
   3  -1   9 58.1441 6.69868   2
   3  -1   9 63.0083 6.85203   7
  -3  -1  -9 41.6546 7.65310   7
  -3  -1  -9 77.4569 8.54638   1
  -3  -1  -9 62.6072 10.3670   4
   3   1   9 72.8588 6.60250   5
   3   1   9 68.4826 6.73459   7
  -3   1  -9 61.4010 8.33505   1
  -3   1  -9 60.1548 6.55908   9
  -3   1  -9 54.5702 8.25057   6
   3   1   9 54.3168 9.20302   9
   3   1   9 58.8347 6.63267   1
  -3   1  -9 76.5507 9.12845   7
   3   1   9 69.6417 6.88839   2
  -3   1  -9 65.0492 8.81797   4
  -4  -1  -9 3035.74 282.981   1
  -4  -1  -9 3478.38 285.109   7
   4  -1   9 3586.37 280.796   5
  -4  -1  -9 3612.41 293.358   9
   4  -1   9 3066.82 281.510   1
   4  -1   9 3354.80 296.027   9
   4  -1   9 3356.76 283.519   7
  -4   1  -9 2862.68 303.694   4
   4   1   9 3249.34 295.636   9
  -4   1  -9 3096.93 285.109   7
   4   1   9 2830.63 281.511   1
   4   1   9 3290.54 280.657   5
  -4   1  -9 2912.73 293.157   9
  -4   1  -9 3269.70 283.400   1
   5  -1   9 64.5471 6.56252   5
   5  -1   9 48.1990 6.44977   1
  -5  -1  -9 59.7162 8.87024   1
   5  -1   9 63.2901 9.47013   9
  -5  -1  -9 51.4545 10.6965   4
  -5  -1  -9 70.7775 8.94802   7
   5  -1   9 55.4409 6.63596   7
   5   1   9 67.8418 6.57517   7
  -5   1  -9 70.9282 6.94769   9
   5   1   9 55.9306 6.70622   1
  -5   1  -9 56.1096 8.84429   7
   5   1   9 62.3424 6.36411   5
  -5   1  -9 69.4162 9.45770   4
  -5   1  -9 68.4215 9.64527   1
   5   1   9 70.7610 9.19490   9
  -6  -1  -9 265.726 28.2854   7
   6  -1   9 310.439 29.3688   9
   6  -1   9 341.095 26.6906   5
   6  -1   9 291.259 26.8995   7
  -6  -1  -9 305.054 31.8187   4
   6   1   9 298.360 29.2499  10
  -6   1  -9 289.019 28.7689   1
   6   1   9 319.857 28.6050   9
   6   1   9 293.486 26.4030   5
   6   1   9 277.631 26.8489   1
  -6   1  -9 231.750 30.3038   4
   6   1   9 328.273 26.7562   7
  -6   1  -9 327.432 29.4196   7
   6   1   9 233.822 26.6637   1
   7  -1   9 40.7117 5.45625   5
  -7  -1  -9 51.3861 7.67991   7
   7  -1   9 52.1300 5.83855   7
   7  -1   9 45.5534 6.70226   9
   7  -1   9 46.6720 5.91474   1
  -7  -1  -9 47.0027 9.34804   4
   7   1   9 62.1901 6.20680   1
  -7   1  -9 51.2500 8.41697   7
   7   1   9 47.4355 6.07103   1
   7   1   9 49.8999 5.43024   5
  -7   1  -9 41.1281 8.47606   4
   7   1   9 52.2501 5.62544   7
   7   1   9 57.4561 5.96638   9
   7   1   9 55.4116 6.01254  10
   8  -1   9 1812.86 158.161   5
  -8  -1  -9 1615.05 172.865   4
   8  -1   9 2046.70 159.228   1
  -8  -1  -9 2073.67 161.607   7
   8  -1   9 1760.19 159.647   7
   8   1   9 1645.59 175.527  10
  -8   1  -9 1624.13 161.463   7
   8   1   9 1932.11 159.133   1
   8   1   9 1754.70 157.957   5
  -9  -1  -9 44.1826 9.06246   4
   9  -1   9 59.9134 6.63583   1
   9  -1   9 48.4661 5.59200   5
  -9  -1  -9 63.8697 8.10723   7
  -9   1  -9 40.6574 8.39191   4
   9   1   9 50.8664 5.40163   5
   9   1   9 60.1798 6.60485   1
  -9   1  -9 40.7415 7.58449   7
 -10  -1  -9 62.9124 11.4456   4
  10  -1   9 79.0016 8.77969   1
 -10  -1  -9 66.8966 9.74763   7
  10  -1   9 99.4342 8.06112   5
 -10   1  -9 60.7631 9.89783   7
  10   1   9 82.9742 8.83252   1
  11  -1   9 50.7835 6.01065   1
 -11  -1  -9 38.2956 7.74437   4
 -11  -1  -9 53.5253 7.18500   7
 -11   1  -9 26.0141 6.58010   4
  11   1   9 46.0567 5.90296   1
 -11   1  -9 30.5014 6.21065   7
  12  -1   9 735.975 62.2175   1
 -12  -1  -9 593.119 67.8043   4
 -12  -1  -9 643.624 62.9339   7
  12   1   9 779.972 62.1325   1
 -12  -2   9 1.54519 0.98790   8
 -12   2   9 2.47263 1.88465   8
 -11  -2   9 235.843 20.0436   8
 -11   2   9 209.239 21.0001   8
  10  -2  -9 8.85519 3.63847   1
  10  -2  -9 10.3369 3.57092   6
 -10  -2   9 11.9277 1.63370   8
 -10   2   9 8.49390 2.79140   8
   9  -2  -9 133.987 14.7814   6
   9  -2  -9 135.934 14.7714   1
  -9  -2   9 125.063 12.5280   8
   9   2  -9 164.017 13.0972   6
  -9   2   9 133.074 13.7717   8
   8  -2  -9 0.97161 2.76556   1
  -8  -2   9 2.82158 0.84788   8
   8  -2  -9 1.39659 2.69433   6
  -8   2   9 1.25142 2.13293   8
   8   2  -9 1.59644 1.23973   6
  -7  -2   9 528.616 46.4296   8
  -7  -2   9 513.179 46.4413   8
   7  -2  -9 476.772 49.4481   6
   7  -2  -9 567.876 48.6990   1
   7   2  -9 524.803 48.1428   6
  -7   2   9 581.596 47.8192   8
   6  -2  -9 176.702 18.0633   6
   6  -2  -9 161.729 19.0509   4
   6  -2  -9 178.945 17.8215   1
  -6  -2   9 163.100 15.7526   8
  -6  -2   9 190.141 15.9010   8
  -6   2   9 167.529 17.0011   7
   6   2  -9 172.526 16.5669   6
  -6   2   9 213.484 17.4469   8
  -5  -2   9 229.692 22.6581   8
   5  -2  -9 271.040 24.9555   6
   5  -2  -9 286.444 24.4791   1
   5  -2  -9 227.470 25.7193   4
   5   2  -9 261.656 22.9513   1
  -5   2   9 241.136 23.5096   7
   5   2  -9 266.731 23.5173   6
   4  -2  -9 4.46903 2.99710   1
   4  -2  -9 4.25195 2.74406   6
   4  -2  -9 2.28665 0.81490  10
  -4  -2   9 5.03943 1.57785   8
   4  -2  -9 3.03254 1.00066  10
   4  -2  -9 4.41162 2.98099   4
  -4   2   9 5.06893 2.90537   8
   4   2  -9 4.86464 1.73356   1
   4   2  -9 1.67087 1.45510   6
  -4   2   9 6.25997 2.12891   7
   3  -2  -9 745.922 77.3230  10
   3  -2  -9 832.623 76.9096  10
  -3  -2   9 705.945 69.6184   8
   3  -2  -9 740.338 72.8241   6
   3  -2  -9 688.663 70.7295   1
  -3  -2   9 803.099 70.2088   7
   3  -2  -9 910.414 77.0017   4
   3   2  -9 850.404 69.8690   1
  -3   2   9 824.586 70.4355   7
   3   2  -9 800.094 71.7898   6
  -2  -2   9 560.372 53.1181   7
   2  -2  -9 572.075 53.8712   1
   2  -2  -9 623.721 54.3966   9
   2  -2  -9 714.105 59.0719   4
   2  -2  -9 650.688 54.5954   9
   2  -2  -9 568.336 58.1484  10
  -2  -2   9 592.633 52.8680   8
   2  -2  -9 615.210 55.3048   6
  -2   2   9 566.005 52.6616   5
  -2   2   9 560.123 53.1417   7
   2   2  -9 599.776 54.4075   6
   2   2  -9 537.089 52.8299   1
   1  -2  -9 426.024 39.2182   4
   1  -2  -9 398.129 36.3308   6
   1  -2  -9 396.830 39.8689  10
  -1  -2   9 357.430 34.5385   7
   1  -2  -9 400.705 35.4709   1
  -1  -2   9 383.956 34.7867   2
  -1  -2   9 331.880 34.4176   8
   1  -2  -9 361.261 35.1776   9
   1   2  -9 393.107 34.6461   1
  -1   2   9 319.924 34.0730   1
  -1   2   9 442.184 35.9733   8
  -1   2   9 377.854 35.1897   2
  -1   2   9 429.366 34.2417   5
  -1   2   9 359.157 34.4946   7
   1   2  -9 422.726 35.6426   6
   1   2  -9 370.944 37.3339  10
   0  -2  -9 2.31714 2.52986   6
   0  -2  -9 2.78267 1.17440   9
   0  -2  -9 2.76206 1.67505  10
   0  -2   9 2.44560 1.66354   7
   0  -2   9 1.31683 1.21631   2
   0  -2  -9 -2.5427 1.98764   1
   0  -2  -9 3.44498 1.41522   2
   0  -2  -9 5.11809 2.98786  10
   0  -2   9 2.61028 1.53046   5
   0  -2  -9 5.56042 4.26987   4
   0  -2   9 0.90928 1.90957   8
   0   2  -9 1.36833 1.14079  10
   0   2  -9 4.19891 2.56083   7
   0   2  -9 1.52904 1.84123   6
   0   2   9 1.82193 1.47262   5
   0   2  -9 3.28719 2.30457   1
   0   2   9 4.70342 1.77035   7
   0   2   9 2.68476 1.52143   1
   0   2  -9 5.63720 2.37397  10
   0   2   9 1.03385 3.01018   9
   0   2   9 4.31759 2.00910   2
  -1  -2  -9 471.180 49.2765   9
   1  -2   9 602.174 47.5645   1
  -1  -2  -9 633.033 50.4030   6
   1  -2   9 549.414 48.6562   2
   1  -2   9 546.720 48.2372   7
  -1  -2  -9 496.467 48.7382   1
  -1   2  -9 519.572 53.4653  10
   1   2   9 474.062 51.4299   9
  -1   2  -9 520.849 52.4635  10
  -1   2  -9 470.184 48.3344   1
   1   2   9 536.598 47.9575   7
  -1   2  -9 443.852 48.5682   7
   1   2   9 542.223 47.6211   1
   1   2   9 518.972 47.4317   5
  -1   2  -9 595.605 49.9632   6
   1   2   9 578.315 48.9915   2
  -1   2  -9 551.921 51.3041   4
  -1   2  -9 480.018 49.1027   9
  -1   2  -9 627.111 48.7975   2
  -2  -2  -9 693.610 55.9901   9
   2  -2   9 558.395 55.0747   2
  -2  -2  -9 503.400 54.6285   1
  -2  -2  -9 641.163 56.5852   6
   2  -2   9 643.105 58.0331   9
   2  -2   9 677.916 54.6094   7
  -2  -2  -9 669.567 60.4633   4
   2  -2   9 524.685 53.6623   5
   2  -2   9 548.287 53.6904   1
  -2   2  -9 652.414 55.5434   7
   2   2   9 619.854 53.6856   5
   2   2   9 550.834 55.1730   2
   2   2   9 572.656 58.2090   9
  -2   2  -9 584.421 55.7327   9
   2   2   9 516.844 53.7429   1
  -2   2  -9 652.293 56.5845   6
  -2   2  -9 597.482 60.4309  10
   2   2   9 651.872 54.2703   7
  -2   2  -9 615.684 59.5047  10
  -2   2  -9 711.378 55.3163   1
   3  -2   9 336.629 33.0733   2
   3  -2   9 424.507 32.9943   7
  -3  -2  -9 295.187 33.3777   7
  -3  -2  -9 361.583 37.3449   4
  -3  -2  -9 349.003 33.5201   1
   3  -2   9 357.996 35.7599   9
   3  -2   9 368.214 32.3414   5
   3  -2   9 385.177 32.3988   1
  -3   2  -9 389.240 34.3031   7
   3   2   9 337.259 32.0641   5
   3   2   9 362.212 32.3261   1
  -3   2  -9 314.942 34.2811   6
  -3   2  -9 341.139 33.2714   9
   3   2   9 304.280 35.2731   9
  -3   2  -9 366.724 33.9357   1
   3   2   9 401.924 33.3305   2
   3   2   9 398.001 32.5976   7
  -3   2  -9 345.753 35.4332   4
   4  -2   9 39.9925 5.09979   1
   4  -2   9 42.2346 5.36664   7
   4  -2   9 35.0432 4.98672   5
  -4  -2  -9 41.8030 6.90444   1
   4  -2   9 47.3937 8.17351   9
  -4  -2  -9 41.3826 8.48300   4
  -4  -2  -9 44.8418 6.56275   7
   4   2   9 48.8403 5.15972   7
   4   2   9 53.3682 8.21259   9
   4   2   9 43.7652 4.91180   5
  -4   2  -9 44.3958 5.00085   9
  -4   2  -9 44.6117 7.01027   7
  -4   2  -9 60.5907 8.74910   1
  -4   2  -9 49.1815 6.88162   4
   4   2   9 43.8310 5.30435   1
   5  -2   9 203.783 21.8644   1
  -5  -2  -9 276.449 26.8907   4
   5  -2   9 213.692 22.0944   7
  -5  -2  -9 257.274 23.5659   7
   5  -2   9 257.586 21.9520   5
   5  -2   9 276.548 25.3248   9
  -5   2  -9 236.372 23.6663   7
  -5   2  -9 217.292 23.6285   1
   5   2   9 261.736 22.2333   1
   5   2   9 255.408 24.0192  10
   5   2   9 263.464 24.1143   9
  -5   2  -9 229.856 24.6835   4
   5   2   9 211.552 21.7880   7
   5   2   9 242.663 21.5579   5
  -5   2  -9 219.880 22.5945   9
   6  -2   9 235.772 25.5127   9
   6  -2   9 286.465 23.0779   5
   6  -2   9 241.961 23.1923   1
   6  -2   9 272.841 23.4416   7
  -6  -2  -9 236.146 24.5112   7
  -6  -2  -9 257.999 27.5711   4
   6   2   9 228.745 23.2761   1
  -6   2  -9 209.582 25.8561   4
  -6   2  -9 281.616 24.8131   1
   6   2   9 248.436 22.9941   7
   6   2   9 266.799 24.2695   9
  -6   2  -9 248.634 24.8054   7
   6   2   9 243.515 22.6885   5
   6   2   9 255.838 25.2056  10
   7  -2   9 166.048 16.2153   5
  -7  -2  -9 175.227 17.9761   7
   7  -2   9 191.541 16.7289   1
   7  -2   9 175.637 17.9051   9
   7  -2   9 160.780 16.5236   7
  -7  -2  -9 151.153 19.9285   4
   7   2   9 146.012 16.5288   1
   7   2   9 188.460 16.2243   7
  -7   2  -9 157.491 17.8440   7
   7   2   9 175.842 16.0095   5
   7   2   9 177.869 17.6648  10
   7   2   9 199.411 17.7494  10
   8  -2   9 85.2033 8.49916   5
   8  -2   9 88.2655 8.98934   1
   8  -2   9 84.6569 8.78967   7
  -8  -2  -9 68.0798 11.8760   4
  -8  -2  -9 95.5643 10.5675   7
   8   2   9 86.0447 9.13763   1
   8   2   9 113.522 10.8384  10
   8   2   9 77.8324 8.89176   1
  -8   2  -9 65.4725 9.84918   7
   8   2   9 76.3463 8.08000   5
  -9  -2  -9 113.822 15.9945   4
   9  -2   9 125.095 12.1685   5
  -9  -2  -9 158.684 14.5223   7
   9  -2   9 123.600 12.7657   1
   9   2   9 144.391 13.0734   1
   9   2   9 125.512 12.8468   1
  -9   2  -9 109.172 13.6150   7
 -10  -2  -9 98.2805 13.5087   4
 -10  -2  -9 112.080 11.7992   7
  10  -2   9 95.6350 9.59594   5
  10  -2   9 106.397 10.6215   1
  10   2   9 88.3423 10.3101   1
 -11  -2  -9 31.2381 6.97545   4
  11  -2   9 37.7332 5.42038   1
 -11  -2  -9 33.7256 5.68075   7
 -11   2  -9 23.8402 5.16715   7
 -11   2  -9 19.1925 5.29670   4
  11   2   9 41.6426 5.25491   1
 -12  -2  -9 37.1163 7.74331   4
  12  -2   9 40.0745 6.14090   1
  12   2   9 46.7867 6.05179   1
  11  -3  -9 71.4771 10.4076   1
 -11  -3   9 104.700 8.61173   8
 -11   3   9 91.1863 10.0538   8
 -10  -3   9 101.431 8.89946   8
  10  -3  -9 88.4935 11.7428   1
 -10   3   9 99.2497 10.5182   8
   9  -3  -9 55.1981 9.12188   1
   9  -3  -9 52.9121 8.62363   6
  -9  -3   9 65.2677 5.87121   8
  -9  -3   9 59.5219 5.68593   8
  -9   3   9 78.9620 7.96138   8
   8  -3  -9 376.046 35.5427   1
  -8  -3   9 351.919 32.5875   8
   8  -3  -9 408.703 36.2727   6
  -8  -3   9 344.972 32.5204   8
  -8   3   9 413.247 34.3467   8
   7  -3  -9 226.417 21.7412   6
  -7  -3   9 192.713 18.4748   8
  -7  -3   9 187.472 18.4676   8
   7  -3  -9 213.851 21.4205   1
   7   3  -9 212.719 19.2358   6
  -7   3   9 216.771 20.3152   7
  -7   3   9 258.476 20.4522   8
   6  -3  -9 368.974 35.3913   6
  -6  -3   9 325.353 32.1527   8
   6  -3  -9 370.754 34.7816   1
   6  -3  -9 363.489 37.1576   4
  -6  -3   9 358.580 32.1034   8
   6   3  -9 406.597 33.3766   6
  -6   3   9 367.623 33.6806   7
   5  -3  -9 19.7792 5.14193   1
   5  -3  -9 21.3933 4.94664   6
   5  -3  -9 22.4384 5.62246   4
   5  -3  -9 23.5935 2.77308  10
  -5  -3   9 19.0296 2.77881   8
   5  -3  -9 25.7177 2.56087  10
  -5  -3   9 17.6457 2.59579   8
   5   3  -9 20.0431 2.96605   6
  -5   3   9 26.1796 4.06265   7
  -5   3   9 27.4530 4.66188   8
   4  -3  -9 841.674 75.7701  10
   4  -3  -9 866.877 70.6372   1
  -4  -3   9 757.231 68.3417   8
   4  -3  -9 726.885 72.0519   6
   4  -3  -9 826.363 75.9092   4
   4  -3  -9 752.503 75.9536  10
   4   3  -9 714.563 70.4747   6
   4   3  -9 822.175 68.7008   1
  -4   3   9 704.297 69.4711   7
   3  -3  -9 118.967 11.1773  10
   3  -3  -9 109.594 12.4396   1
  -3  -3   9 91.5211 10.1906   8
   3  -3  -9 115.247 13.4703   4
   3  -3  -9 128.053 13.0853   6
   3  -3  -9 107.417 10.0271   9
   3  -3  -9 80.2017 11.7195  10
   3  -3  -9 115.673 10.2448   9
   3   3  -9 116.425 10.5991   1
  -3   3   9 94.5486 10.6971   7
   3   3  -9 106.646 10.6790   6
  -3   3   9 123.961 12.0314   8
  -3   3   9 98.9857 10.5187   5
  -2  -3   9 983.100 81.1431   7
   2  -3  -9 885.123 88.9873  10
   2  -3  -9 1015.58 90.7631  10
   2  -3  -9 955.976 84.2960   6
   2  -3  -9 849.656 81.8458   1
   2  -3  -9 867.861 83.3590   9
  -2  -3   9 852.944 80.2465   8
   2  -3  -9 972.044 88.6060   4
   2   3  -9 840.547 82.8778   6
   2   3  -9 899.232 80.7373   1
  -2   3   9 933.586 80.4735   1
  -2   3   9 1003.93 82.3805   8
  -2   3   9 906.966 80.4380   5
  -2   3   9 840.677 81.1390   7
  -1  -3   9 31.4551 4.53226   8
  -1  -3   9 30.2095 4.27391   7
  -1  -3   9 30.2991 3.99367   2
   1  -3  -9 29.9814 6.83376   4
   1  -3  -9 27.8975 3.61204   9
   1  -3  -9 30.1870 7.22523  10
   1  -3  -9 30.2861 5.68471   1
   1  -3  -9 34.8067 5.98839   6
   1   3  -9 36.7781 4.92160   6
  -1   3   9 29.4095 4.26478   7
  -1   3   9 29.2550 4.30698   5
  -1   3   9 32.5851 4.10824   1
   1   3  -9 33.2318 4.33815   3
   1   3  -9 31.2396 4.75791   1
   0  -3  -9 1173.84 94.8178   6
   0  -3  -9 1094.82 91.9698   1
   0  -3   9 1072.37 92.8513   2
   0  -3   9 938.352 91.4344   7
   0  -3  -9 1126.19 94.1788   9
   0   3   9 1000.10 91.2460   7
   0   3   9 1040.32 93.2646   2
   0   3   9 958.799 90.5871   1
   0   3   9 904.855 90.3998   5
   0   3  -9 944.068 100.177  10
   0   3  -9 1140.26 91.4436   1
   0   3  -9 949.301 99.9943  10
   0   3  -9 1059.29 93.8211   6
   1  -3   9 8.65917 2.21980   5
  -1  -3  -9 4.55490 2.95331   6
  -1  -3  -9 6.99416 3.48959   1
   1  -3   9 7.49022 2.00261   2
  -1  -3  -9 5.62796 1.65328   9
  -1  -3  -9 5.38048 3.14341   4
   1  -3   9 7.05929 2.33222   7
   1   3   9 7.48735 3.53651   9
   1   3   9 7.35482 2.40140   2
   1   3   9 7.00172 1.98667   1
  -1   3  -9 6.92797 2.85409   6
  -1   3  -9 7.16932 3.05838   1
  -1   3  -9 7.82220 1.79957  10
  -1   3  -9 7.84230 1.56248   9
  -1   3  -9 6.58397 2.30373  10
  -1   3  -9 7.88195 2.43742   7
   1   3   9 6.89370 2.03718   5
  -1   3  -9 6.54288 1.43258   9
   1   3   9 5.54648 1.88954   7
  -2  -3  -9 1267.31 116.551   1
   2  -3   9 1482.22 116.405   7
  -2  -3  -9 1344.28 125.348   4
   2  -3   9 1360.22 115.195   1
   2  -3   9 1148.29 118.000   2
   2  -3   9 1294.20 115.054   5
   2   3   9 1231.28 115.888   7
  -2   3  -9 1236.81 116.422   7
  -2   3  -9 1388.25 119.592   6
   2   3   9 1242.96 121.744   9
   2   3   9 1483.67 115.081   5
   2   3   9 1397.98 118.542   2
   2   3   9 1260.27 115.271   1
  -2   3  -9 1248.31 116.392   1
  -2   3  -9 1348.97 127.630  10
  -2   3  -9 1260.71 127.987  10
  -2   3  -9 1253.12 119.631   9
  -3  -3  -9 137.971 11.7350   9
  -3  -3  -9 136.602 15.1419   4
   3  -3   9 118.262 11.6470   7
   3  -3   9 116.471 11.2785   1
  -3  -3  -9 126.345 12.8533   1
   3  -3   9 94.2946 11.1967   5
   3   3   9 118.604 14.0075   9
  -3   3  -9 129.925 13.4906   1
  -3   3  -9 120.989 12.5722   4
   3   3   9 107.698 11.2267   7
   3   3   9 128.197 11.5805   1
   3   3   9 101.323 11.0542   5
  -3   3  -9 109.643 11.2667   9
  -3   3  -9 100.970 12.8437   6
   4  -3   9 1000.28 92.6754   9
   4  -3   9 955.321 87.1430   5
   4  -3   9 1051.71 88.2078   7
  -4  -3  -9 929.026 88.1289   1
  -4  -3  -9 1058.81 89.0757   7
  -4  -3  -9 1080.77 96.2497   4
   4  -3   9 1051.68 87.4118   1
  -4   3  -9 816.737 88.2540   1
  -4   3  -9 971.781 88.5299   7
   4   3   9 897.470 86.8069   5
   4   3   9 1074.15 87.7191   7
   4   3   9 998.277 87.5043   1
  -4   3  -9 1031.49 90.7080   9
  -4   3  -9 895.188 91.0951   6
  -4   3  -9 941.648 94.1215   4
   4   3   9 1043.95 92.3305   9
  -5  -3  -9 64.6725 10.0386   4
  -5  -3  -9 59.2667 7.83952   7
   5  -3   9 59.4894 8.45251   9
   5  -3   9 57.3064 7.04794   7
   5  -3   9 62.2212 6.86374   5
   5  -3   9 56.7454 6.66379   1
  -5   3  -9 55.9075 7.51099   7
   5   3   9 75.2656 7.19097   1
  -5   3  -9 46.6024 7.58650   1
   5   3   9 59.2345 6.29699   5
   5   3   9 60.2160 6.88939  10
   5   3   9 58.5382 6.32188   7
   5   3   9 64.4188 7.65435   9
  -5   3  -9 57.7095 6.55967   9
   6  -3   9 1166.88 99.6541   1
  -6  -3  -9 1132.99 101.145   7
   6  -3   9 1048.71 100.325   7
  -6  -3  -9 1109.72 108.838   4
   6  -3   9 1141.42 99.2415   5
   6  -3   9 1117.98 104.952   9
  -6   3  -9 1030.13 100.257   1
   6   3   9 1306.61 109.974  10
  -6   3  -9 933.430 100.665   7
   6   3   9 1028.96 98.7821   5
   6   3   9 1180.08 99.8783   1
   6   3   9 1233.48 99.8496   7
   6   3   9 1182.65 103.117   9
   7  -3   9 29.5707 4.49453   7
   7  -3   9 27.5600 4.58633   1
  -7  -3  -9 36.4989 5.82294   7
  -7  -3  -9 38.1411 7.49931   4
   7  -3   9 27.7280 4.19981   5
   7   3   9 35.2823 5.12206   1
   7   3   9 31.0351 3.89435  10
   7   3   9 30.2607 5.84041  10
  -7   3  -9 31.5469 5.65158   1
   7   3   9 31.6496 3.74737   5
  -7   3  -9 19.8378 4.59688   7
  -8  -3  -9 750.561 69.5387   7
   8  -3   9 761.006 67.7685   5
   8  -3   9 691.242 68.3175   1
   8  -3   9 817.757 68.7113   7
  -8  -3  -9 810.853 75.6507   4
   8   3   9 814.414 68.5924   1
   8   3   9 733.829 67.3049   5
   9  -3   9 22.3036 3.94220   1
  -9  -3  -9 19.5099 6.03857   4
   9  -3   9 18.9802 3.28283   7
   9  -3   9 13.6919 2.86574   5
  -9  -3  -9 18.5125 4.50361   7
  -9   3  -9 9.91930 3.35324   7
   9   3   9 16.8383 3.67773   1
   9   3   9 20.5215 3.95614   1
  10  -3   9 610.563 52.7229   1
 -10  -3  -9 676.298 53.6942   7
  10  -3   9 570.745 51.5747   5
 -10  -3  -9 589.455 58.2344   4
  10   3   9 494.631 52.1804   1
  10   3   9 572.249 52.4261   1
 -11  -3  -9 3.92370 4.06763   4
  11  -3   9 1.87596 2.67824   1
  11  -3   9 2.22940 1.69155   5
  11   3   9 3.35406 2.57873   1
 -11   3  -9 3.39930 2.54371   7
  11  -4  -9 142.051 15.1873   1
  10  -4  -9 202.326 20.9855   1
   9  -4  -9 59.6246 9.30013   1
   9  -4  -9 70.5274 9.56778   6
   8  -4  -9 -0.5422 2.79782   6
   8  -4  -9 -1.0297 2.84277   1
  -8   4   9 -1.4462 2.37362   7
  -7  -4   9 209.411 18.2211   8
  -7  -4   9 193.929 18.2454   8
   7  -4  -9 182.863 20.4079   1
   7  -4  -9 219.930 21.1722   6
  -7   4   9 180.417 19.9369   7
   7   4  -9 227.838 18.8579   6
   6  -4  -9 290.586 29.0524   6
  -6  -4   9 257.498 26.3446   8
   6  -4  -9 305.947 31.2729   4
  -6  -4   9 310.543 26.4144   8
   6  -4  -9 302.267 28.4698   1
  -6   4   9 305.578 27.9764   7
   6   4  -9 316.336 27.2872   6
   5  -4  -9 78.3364 7.35016  10
   5  -4  -9 59.3547 8.53462   1
   5  -4  -9 75.1571 9.14004   6
   5  -4  -9 59.7440 7.38842  10
  -5  -4   9 60.2602 6.64286   8
   5  -4  -9 77.4636 10.3679   4
   5   4  -9 72.8844 7.13008   6
  -5   4   9 68.7848 8.01846   7
   4  -4  -9 7.16660 4.20699   4
   4  -4  -9 6.56169 3.50318   6
   4  -4  -9 10.3811 2.10639  10
   4  -4  -9 11.9279 3.53878   1
  -4  -4   9 7.83764 1.87358   8
   4  -4  -9 8.09186 2.56974  10
   4   4  -9 11.4553 2.60702   1
  -4   4   9 4.42318 2.35038   7
   4   4  -9 10.3491 2.32187   6
   3  -4  -9 260.961 27.7293  10
   3  -4  -9 254.290 27.9802   4
   3  -4  -9 224.800 25.2858   1
  -3  -4   9 263.669 24.1034   8
   3  -4  -9 325.719 27.0036   6
   3  -4  -9 300.394 24.6822   9
   3   4  -9 232.059 24.9055   6
  -3   4   9 252.444 24.7754   7
  -3   4   9 282.468 24.6106   5
   3   4  -9 260.666 24.4653   1
   2  -4  -9 180.233 23.4919   4
   2  -4  -9 215.044 22.0631   1
   2  -4  -9 269.076 23.6156   6
   2  -4  -9 236.704 24.3312  10
   2  -4  -9 220.055 20.6879   9
  -2  -4   9 235.534 20.9046   7
   2   4  -9 222.091 21.2035   6
   2   4  -9 204.737 20.7002   1
  -2   4   9 225.366 20.7964   7
  -2   4   9 211.797 20.4249   1
   1  -4  -9 40.9316 4.89950   9
   1  -4  -9 30.6444 7.29226   4
   1  -4  -9 58.5765 8.39051   1
  -1  -4   9 44.8204 5.34628   2
   1  -4  -9 67.4259 8.35988   6
  -1   4   9 47.7898 5.38446   1
   1   4  -9 37.4030 5.77690   6
   1   4  -9 45.7228 5.97652   1
  -1   4   9 46.4967 5.35874   5
  -1   4   9 37.7510 6.53681   9
  -1   4   9 38.0111 5.28466   7
   0  -4   9 2.63802 1.72792   2
   0  -4  -9 -0.5321 2.64153   6
   0  -4  -9 0.68141 2.47894   4
   0  -4  -9 2.09419 2.92906   1
   0  -4   9 -0.1050 1.83178   7
   0  -4  -9 2.68477 1.54755   9
   0   4  -9 -1.3448 2.16087   1
   0   4   9 0.92851 1.62641   7
   0   4  -9 1.80314 1.50084   7
   0   4   9 3.74898 2.61028   9
   0   4  -9 4.82381 2.72467   6
   0   4   9 2.21433 1.67755   5
   0   4  -9 1.88915 1.07312  10
   0   4   9 3.93844 1.93254   1
   0   4  -9 1.36301 1.09996  10
   1  -4   9 387.952 41.6246   2
  -1  -4  -9 525.618 42.3949   9
  -1  -4  -9 517.854 42.3977   1
   1  -4   9 510.481 41.6058   7
  -1  -4  -9 432.247 44.4767   4
   1   4   9 502.888 40.9462   1
   1   4   9 423.577 42.1276   2
  -1   4  -9 494.752 42.9267   6
  -1   4  -9 418.822 41.4874   9
  -1   4  -9 461.452 44.8178  10
   1   4   9 432.319 40.9987   7
  -1   4  -9 444.906 41.5032   9
   1   4   9 453.241 40.6175   5
  -1   4  -9 419.820 40.8876   7
  -1   4  -9 431.142 44.6430  10
   1   4   9 447.605 43.5713   9
  -1   4  -9 448.773 41.8857   1
   2  -4   9 167.854 17.0914   5
  -2  -4  -9 212.384 17.6514   9
  -2  -4  -9 189.511 18.4277   1
   2  -4   9 155.300 17.2754   7
  -2  -4  -9 196.977 19.2934   4
  -2   4  -9 160.409 17.0310   7
  -2   4  -9 170.018 16.9360   9
   2   4   9 175.753 16.7600   5
  -2   4  -9 164.219 18.4874  10
   2   4   9 194.782 17.0874   1
   2   4   9 190.826 17.0774   7
   2   4   9 193.459 19.0115   9
  -2   4  -9 188.557 18.0989   1
  -2   4  -9 167.998 18.1111   6
   3  -4   9 26.5259 4.53244   5
  -3  -4  -9 30.1017 5.82231   4
   3  -4   9 30.7170 4.57972   1
   3  -4   9 29.8496 4.66051   7
  -3  -4  -9 27.9565 5.20541   1
  -3   4  -9 33.1564 5.34789   6
  -3   4  -9 33.2527 4.73886   7
   3   4   9 26.2786 5.81782   9
   3   4   9 26.3592 4.26394   1
   3   4   9 33.8968 4.42945   7
  -3   4  -9 31.7194 5.47369   1
  -3   4  -9 29.8856 3.74457   9
  -4  -4  -9 32.4294 6.59007   4
   4  -4   9 38.8998 5.28190   1
   4  -4   9 34.6879 5.41135   7
   4  -4   9 46.9505 5.43407   5
   4   4   9 36.0374 4.73342   7
   4   4   9 39.0028 4.59544   5
  -4   4  -9 34.6174 5.88631   1
  -4   4  -9 32.8355 5.27679   7
  -4   4  -9 37.4835 4.61022   9
   4   4   9 42.9169 5.37293   1
   4   4   9 41.8269 6.10605   9
   4   4   9 36.1963 5.02226  10
   5  -4   9 574.467 52.7306   9
   5  -4   9 557.376 50.4169   7
   5  -4   9 469.598 49.6249   5
   5  -4   9 575.917 50.2151   1
  -5  -4  -9 550.396 54.8153   4
   5   4   9 583.721 51.7616   9
  -5   4  -9 589.984 50.5249   1
   5   4   9 531.538 49.7779   7
   5   4   9 534.916 50.0293   1
   5   4   9 589.423 54.7494  10
  -5   4  -9 607.742 50.7187   7
  -5   4  -9 554.420 51.5656   9
   5   4   9 520.051 49.1976   5
   6  -4   9 165.843 17.6104   1
  -6  -4  -9 173.642 18.4683   7
   6  -4   9 148.199 18.4610   9
  -6  -4  -9 156.525 20.0058   4
   6  -4   9 220.173 17.7153   5
   6  -4   9 149.992 17.5569   7
   6   4   9 205.322 17.8607   1
  -6   4  -9 178.212 17.9334   7
   6   4   9 206.285 20.5451  10
   6   4   9 185.037 16.8183   5
   6   4   9 196.509 18.5484  10
  -6   4  -9 172.986 17.9443   1
  -6   4  -9 206.759 17.9638   9
  -7  -4  -9 48.8633 8.22066   4
   7  -4   9 38.9572 5.87428   7
   7  -4   9 49.9935 5.81060   5
   7  -4   9 50.0836 6.21760   1
  -7  -4  -9 48.2835 6.96042   7
  -7   4  -9 45.2314 6.40939   1
   7   4   9 41.9264 4.75034   5
   7   4   9 49.7164 6.25966   1
  -7   4  -9 30.8823 5.63270   7
   8  -4   9 36.8995 5.51655   7
   8  -4   9 39.0821 5.31964   5
  -8  -4  -9 47.9309 8.24644   4
   8  -4   9 49.9048 6.22118   1
  -8  -4  -9 39.2816 6.28084   7
  -8   4  -9 29.7634 5.34529   7
   8   4   9 54.7997 6.50829   1
  -9  -4  -9 415.089 41.4214   4
   9  -4   9 421.015 37.1122   7
   9  -4   9 404.902 37.3317   1
   9  -4   9 381.223 36.3635   5
  -9  -4  -9 438.486 37.9935   7
  -9   4  -9 358.664 37.2495   7
   9   4   9 427.589 37.3000   1
  10  -4   9 156.075 15.2750   5
 -10  -4  -9 172.595 19.1087   4
  10  -4   9 190.011 16.6856   1
 -10  -4  -9 173.095 16.8377   7
 -10   4  -9 142.691 16.0487   7
  10   4   9 136.882 15.7749   1
  10   4   9 185.782 16.3562   1
 -11  -4  -9 86.1794 10.9940   4
  11  -4   9 65.0732 7.11722   5
  11  -4   9 72.1875 8.48520   1
  11   4   9 62.9203 8.02979   1
  10  -5  -9 258.817 25.4301   1
   9  -5  -9 57.8490 8.11487   6
   9  -5  -9 51.9850 8.18064   1
  -9   5   9 55.6075 7.99487   7
  -8  -5   9 6.21720 1.17519   8
   8  -5  -9 6.14338 3.49387   1
   8  -5  -9 11.0473 3.74906   6
  -8  -5   9 7.44296 1.44934   8
  -8   5   9 8.07408 3.38811   7
   7  -5  -9 6.31366 3.29079   6
   7  -5  -9 4.31008 3.07481   1
  -7  -5   9 8.96046 1.61272   8
  -7  -5   9 5.34085 1.29169   8
   7  -5  -9 4.15635 3.71322   4
  -7   5   9 1.72306 2.83315   7
   7   5  -9 6.99057 1.11085   6
   6  -5  -9 733.455 78.2245   4
   6  -5  -9 890.822 78.0945  10
  -6  -5   9 834.699 70.3199   8
   6  -5  -9 831.225 72.1593   1
   6  -5  -9 826.221 74.0254   6
   6   5  -9 771.340 72.3360   6
  -6   5   9 695.713 72.1042   7
   5  -5  -9 43.9183 5.67532  10
   5  -5  -9 52.3797 6.66499   1
   5  -5  -9 44.3413 6.55488   6
   5  -5  -9 54.5177 8.80970   4
  -5  -5   9 46.2023 4.96329   8
   5   5  -9 40.7771 4.96288   6
  -5   5   9 44.4546 6.36842   7
   4  -5  -9 88.4851 10.2269   6
   4  -5  -9 88.4307 8.63884   9
   4  -5  -9 96.7833 12.4147   4
   4  -5  -9 92.6683 10.6553  10
   4  -5  -9 88.6931 9.94655   1
  -4   5   9 88.1596 9.78269   7
  -4   5   9 85.0908 9.55477   5
   4   5  -9 95.4953 9.22062   6
   4   5  -9 87.3153 9.09031   1
   3  -5  -9 48.6028 8.79484   4
   3  -5  -9 62.9256 7.32825   1
   3  -5  -9 48.6899 7.06620   6
   3  -5  -9 53.2116 5.91103   9
   3   5  -9 64.6694 6.72189   6
   3   5  -9 68.4108 6.90555   1
  -3   5   9 59.0000 6.97223   7
  -3   5   9 50.0450 6.61071   5
   2  -5  -9 1431.03 142.977   9
   2  -5  -9 1533.85 142.233   6
   2  -5  -9 1632.72 138.389   1
   2  -5  -9 1597.31 149.839   4
   2   5  -9 1674.29 141.742   6
   2   5  -9 1661.57 138.100   1
  -2   5   9 1442.05 137.397   5
  -2   5   9 1498.16 138.750   7
  -2   5   9 1620.16 137.735   1
   1  -5  -9 41.2512 4.94893   9
  -1  -5   9 41.4202 5.87090   7
   1  -5  -9 47.4944 5.97456   1
   1  -5  -9 23.9429 5.86440   4
   1   5  -9 39.5204 5.61184   6
   1   5  -9 38.9395 5.73797   1
  -1   5   9 38.7001 5.31037   1
  -1   5   9 41.8347 5.25454   5
  -1   5   9 40.9234 6.28841   9
  -1   5   9 46.5777 5.48272   7
   0  -5   9 249.612 25.3631   7
   0  -5  -9 292.871 27.3358   4
   0  -5  -9 297.209 25.7224   9
   0  -5  -9 210.203 25.0145   1
   0   5   9 288.593 24.8224   5
   0   5  -9 280.509 25.9240   6
   0   5  -9 254.296 26.3392  10
   0   5   9 296.964 26.8934   9
   0   5   9 250.021 25.0026   7
   0   5   9 308.788 25.1551   1
   0   5  -9 286.686 25.3673   1
   0   5  -9 241.258 28.2112   3
  -1  -5  -9 91.5385 10.8594   1
  -1  -5  -9 98.8808 11.8868   4
  -1  -5  -9 106.853 10.9293   9
   1  -5   9 109.750 11.3229   7
   1   5   9 92.1774 11.7755   9
  -1   5  -9 104.021 11.1323   1
  -1   5  -9 125.932 10.5289   7
   1   5   9 99.0900 10.9002   1
   1   5   9 120.761 10.7722   5
  -1   5  -9 104.401 10.9912  10
   1   5   9 99.8456 10.7788   7
  -1   5  -9 122.143 11.1169  10
  -1   5  -9 93.5704 11.9439   3
  -1   5  -9 95.4928 11.2767   6
   2  -5   9 1632.54 143.994   7
  -2  -5  -9 1496.43 142.997   1
   2   5   9 1790.70 143.637   7
  -2   5  -9 1512.23 142.913   1
  -2   5  -9 1504.84 143.305   7
  -2   5  -9 1495.29 147.728   9
   2   5   9 1782.71 149.303   9
  -2   5  -9 1644.69 157.680  10
  -2   5  -9 1722.81 166.869   3
   3  -5   9 24.6296 4.80461   7
  -3  -5  -9 38.3052 5.84142   4
   3   5   9 39.5191 4.89666   7
  -3   5  -9 28.7921 4.50795   7
   3   5   9 36.0277 5.72286   9
   3   5   9 33.5746 4.97432   1
  -3   5  -9 37.4761 5.58354   6
   3   5   9 40.8485 4.60355   5
  -3   5  -9 29.9779 4.02737   9
  -3   5  -9 31.1276 5.02629   1
  -3   5  -9 39.6665 5.76042   3
   4  -5   9 264.078 27.1611   5
   4  -5   9 317.162 27.5042   1
  -4  -5  -9 286.948 29.6750   4
   4  -5   9 271.359 27.5336   7
  -4   5  -9 284.499 27.6370   9
   4   5   9 348.590 28.6003   9
   4   5   9 297.869 26.6859   5
   4   5   9 277.235 27.2920   1
   4   5   9 296.650 29.5283  10
   4   5   9 289.601 27.0605   7
  -4   5  -9 265.725 27.3094   1
  -4   5  -9 346.246 27.6648   7
   5  -5   9 90.0089 10.6106   7
  -5  -5  -9 104.717 12.0442   4
   5  -5   9 95.9287 10.4216   5
   5  -5   9 104.858 10.7583   1
  -5   5  -9 82.8840 10.3600   7
   5   5   9 99.6587 10.5919  10
   5   5   9 105.005 9.75616   5
  -5   5  -9 102.867 10.1137   9
  -5   5  -9 98.8293 10.5665   1
   5   5   9 114.747 10.8261   1
   5   5   9 99.8857 9.97779   7
   6  -5   9 1100.58 95.0899   1
   6  -5   9 1025.22 95.3405   7
   6  -5   9 1250.48 99.0559   9
   6  -5   9 952.315 94.2795   5
  -6  -5  -9 1116.12 102.595   4
  -6   5  -9 894.855 94.5302   1
   6   5   9 1060.35 93.6911   5
   6   5   9 1249.11 105.253  10
   6   5   9 1063.67 94.8718   1
  -6   5  -9 1172.87 95.5785   7
  -6   5  -9 893.431 98.0328   9
   7  -5   9 17.9319 3.61791   7
   7  -5   9 15.6690 3.83005   1
   7  -5   9 15.3304 3.42832   5
  -7  -5  -9 19.6713 5.10127   4
  -7   5  -9 15.2491 3.58890   1
  -7   5  -9 17.1325 3.69659   7
   7   5   9 26.5216 4.47687   1
   7   5   9 22.0556 2.87453   5
   8  -5   9 147.159 14.9221   7
   8  -5   9 132.708 14.3550   5
   8  -5   9 167.536 15.3015   1
  -8  -5  -9 130.364 16.8290   4
  -8   5  -9 150.249 14.9463   7
   8   5   9 166.519 15.3646   1
   9  -5   9 56.6328 7.45556   1
   9  -5   9 61.2360 7.14085   7
  -9  -5  -9 53.8258 8.92026   4
   9  -5   9 44.9935 6.32065   5
  -9   5  -9 56.5447 6.98453   7
   9   5   9 66.2033 7.60569   1
 -10  -5  -9 559.077 49.6169   4
  10  -5   9 453.133 43.9283   5
  10  -5   9 490.381 45.0769   1
  10   5   9 547.397 45.0161   1
 -10   5  -9 439.038 44.8284   7
  10  -6  -9 80.0931 10.2697   1
 -10   6   9 84.1338 10.2556   7
   9  -6  -9 0.15802 2.84895   1
  -9   6   9 3.84003 2.73655   7
   8  -6  -9 70.4915 9.02919   6
   8  -6  -9 65.0517 8.81498   1
  -8   6   9 58.5453 8.52859   7
   7  -6  -9 94.9848 13.5377   4
   7  -6  -9 120.758 12.4966   1
   7  -6  -9 118.472 12.6469   6
   7   6  -9 115.704 10.2545   6
  -7   6   9 92.1002 12.0856   7
   6  -6  -9 163.899 19.7584   4
   6  -6  -9 186.271 17.5068   1
   6  -6  -9 177.889 17.7088   6
  -6   6   9 154.316 17.3805   7
   6   6  -9 177.671 15.9520   6
   5  -6  -9 -0.0899 2.58867   7
   5  -6  -9 4.78410 2.57022   6
   5  -6  -9 8.34484 2.96720   1
   5  -6  -9 -0.2742 3.04826   4
  -5   6   9 0.84327 2.45736   7
   5   6  -9 2.65405 1.18118   6
  -5   6   9 10.6032 3.16471   5
   4  -6  -9 91.2844 9.68856   6
   4  -6  -9 66.4879 11.3721   4
   4  -6  -9 84.1503 9.19602   1
   4   6  -9 80.8323 8.18461   1
  -4   6   9 87.0683 9.32476   5
   4   6  -9 82.2327 8.30843   6
  -4   6   9 92.6436 9.73479   7
   3  -6  -9 102.760 14.9118   4
   3  -6  -9 131.529 13.0467   1
   3  -6  -9 134.543 12.7537   9
   3   6  -9 153.573 12.5657   1
   3   6  -9 118.806 12.5483   6
  -3   6   9 127.776 13.3141   7
  -3   6   9 133.128 13.1640   5
   2  -6  -9 263.942 23.0898   9
   2  -6  -9 192.448 24.7455   4
   2  -6  -9 245.990 22.5971   1
   2   6  -9 204.676 22.5950   6
  -2   6   9 252.567 22.5821   1
  -2   6   9 240.442 22.6000   5
   2   6  -9 285.335 22.4288   1
   1  -6  -9 13.0314 3.67970   4
   1  -6  -9 10.4413 2.68935   1
  -1  -6   9 14.4132 3.53203   7
  -1   6   9 9.68795 2.77692   5
   1   6  -9 15.5227 2.98673   1
   1   6  -9 9.27614 2.47152   6
  -1   6   9 15.3517 3.35366   7
  -1   6   9 8.78429 2.85318   9
  -1   6   9 8.40906 2.69560   1
   0  -6  -9 109.367 12.1353   9
   0  -6   9 123.433 12.6036   7
   0  -6  -9 126.228 13.0452   4
   0  -6  -9 104.678 11.7084   1
   0   6   9 120.838 11.9422   1
   0   6  -9 123.449 11.7782   1
   0   6   9 141.965 13.0607   9
   0   6   9 114.707 11.9380   7
   0   6  -9 110.672 11.8566   6
   0   6   9 105.868 11.6243   5
  -1  -6  -9 156.532 15.2789   1
  -1  -6  -9 187.370 16.8564   4
   1  -6   9 171.293 16.3074   7
   1   6   9 178.436 15.8282   1
   1   6   9 146.369 15.4283   7
   1   6   9 139.724 16.0441   9
  -1   6  -9 160.080 17.2469   3
   1   6   9 146.263 15.1776   5
  -1   6  -9 144.545 15.9346  10
  -1   6  -9 161.962 15.4147   1
  -1   6  -9 168.970 15.9951  10
  -2  -6  -9 257.383 20.4243   1
  -2  -6  -9 253.663 21.9504   4
   2  -6   9 181.794 20.6027   7
   2   6   9 190.032 19.7542   5
  -2   6  -9 234.051 20.7283   6
   2   6   9 228.171 20.6951   1
  -2   6  -9 207.981 19.6685   9
  -2   6  -9 223.425 21.5303  10
   2   6   9 224.111 20.2748   7
  -2   6  -9 197.004 20.0585   1
  -2   6  -9 171.750 22.8586   3
   2   6   9 193.714 20.6617   9
  -2   6  -9 231.991 19.9178   7
   3  -6   9 13.5272 3.68739   7
  -3  -6  -9 21.8179 3.90144   4
   3   6   9 12.3482 3.64584   1
  -3   6  -9 14.8872 2.48080   9
  -3   6  -9 23.2906 3.43332   7
   3   6   9 14.2345 3.07340   7
  -3   6  -9 15.4700 3.64554   3
  -3   6  -9 16.8116 3.39494   1
   3   6   9 16.0706 3.26010   9
   3   6   9 19.9483 3.22134   5
  -3   6  -9 19.6227 3.45375   6
   4  -6   9 89.6211 11.3081   7
  -4  -6  -9 101.176 11.7917   4
   4   6   9 117.846 10.8468   7
   4   6   9 97.3556 11.2704  10
  -4   6  -9 110.402 12.9521   3
   4   6   9 120.499 10.5825   5
  -4   6  -9 94.0657 10.8093   1
  -4   6  -9 113.098 10.9975   7
   4   6   9 117.473 11.4527   1
  -5  -6  -9 156.239 16.1514   4
   5  -6   9 139.239 14.9643   5
   5  -6   9 115.166 14.9633   7
   5  -6   9 149.443 15.2251   1
   5   6   9 161.322 14.2133   5
   5   6   9 153.063 15.1441   1
  -5   6  -9 154.508 17.5244   3
  -5   6  -9 147.910 14.6892   1
  -5   6  -9 179.568 15.1542   7
   6  -6   9 136.901 14.1587   7
   6  -6   9 133.344 13.7761   5
  -6  -6  -9 166.038 15.4432   4
   6  -6   9 111.292 13.8231   1
  -6   6  -9 154.976 16.5473   3
   6   6   9 121.472 13.7956   1
  -6   6  -9 137.433 13.7942   7
  -6   6  -9 140.123 13.5274   1
   7  -6   9 9.16891 2.94842   7
   7  -6   9 7.64429 2.55293   5
  -7  -6  -9 9.59951 3.72856   4
   7  -6   9 7.70015 3.03424   1
   7   6   9 4.06824 2.82577   1
  -7   6  -9 8.94081 2.81487   7
  -7   6  -9 6.11933 2.64815   1
   8  -6   9 43.5485 6.26861   5
   8  -6   9 47.1375 6.61678   7
  -8  -6  -9 53.2351 8.11610   4
   8  -6   9 55.2373 7.19686   1
   8   6   9 62.0256 7.26048   1
  -8   6  -9 50.0147 6.56725   7
  -9  -6  -9 118.763 13.1571   4
   9  -6   9 121.325 12.1025   1
   9  -6   9 111.095 11.4909   7
   9  -6   9 86.5903 10.6678   5
  -9   6  -9 121.571 11.4718   7
   9   6   9 93.9443 11.4623   1
  10  -6   9 101.927 10.3145   1
  10  -6   9 68.4726 8.40475   5
 -10  -6  -9 88.6614 10.8998   4
  10   6   9 81.3961 9.53108   1
  -9  -7   9 15.0079 2.11823   8
   9  -7  -9 23.8394 5.03878   1
  -9   7   9 17.5708 4.41661   7
   8  -7  -9 52.5740 7.31154   1
  -8   7   9 35.6952 6.52463   7
   7  -7  -9 16.4966 4.16119   1
  -7   7   9 14.2887 4.11838   7
   6  -7  -9 586.435 70.5902   4
   6  -7  -9 851.005 65.3669   1
   6   7  -9 757.130 65.3825   6
  -6   7   9 683.217 65.7526   7
   5  -7  -9 20.7533 3.72714   1
   5  -7  -9 21.4943 4.56161   7
   5  -7  -9 18.6434 5.52836   4
  -5   7   9 17.3053 4.04106   5
   5   7  -9 16.3819 2.32093   6
  -5   7   9 20.9721 4.35232   7
   4  -7  -9 9.29042 2.58664   1
   4  -7  -9 4.82043 3.77982   4
   4   7  -9 5.67268 1.60795   1
  -4   7   9 8.10733 3.00553   5
   4   7  -9 7.15123 1.55724   6
  -4   7   9 5.83154 2.94940   7
   3  -7  -9 88.9674 11.5945   4
   3  -7  -9 87.3171 9.91719   1
   3   7  -9 109.624 9.43898   1
  -3   7   9 97.8801 10.5130   1
  -3   7   9 95.8529 10.4376   5
   3   7  -9 88.2020 9.48069   6
  -3   7   9 116.138 11.0456   7
   2  -7  -9 1511.74 123.184   4
   2  -7  -9 1260.20 113.817   1
   2   7  -9 1222.83 113.382   1
  -2   7   9 1398.02 115.183   7
   2   7  -9 1107.96 116.428   6
  -2   7   9 1258.21 113.838   5
  -2   7   9 1303.53 114.204   1
   1  -7  -9 37.5294 5.71586   4
   1  -7  -9 44.5415 5.15871   9
  -1  -7   9 31.7236 5.23964   7
   1  -7  -9 37.1695 4.73270   1
  -1   7   9 27.2949 4.84674   1
  -1   7   9 33.0435 5.25841   7
  -1   7   9 33.6996 5.02040   5
   1   7  -9 36.3014 4.38446   1
   1   7  -9 30.4295 4.20846   6
  -1   7   9 28.5530 4.83345   9
   0  -7   9 14.6656 3.66003   7
   0  -7  -9 10.7295 3.22431   4
   0  -7  -9 15.8563 3.16047   1
   0   7   9 12.1219 2.96310   5
   0   7  -9 12.5296 2.67048   1
   0   7   9 13.1608 3.31807   7
   0   7   9 12.5383 2.67133   9
   0   7   9 16.2460 3.56115   1
   0   7  -9 10.9841 2.44101   6
  -1  -7  -9 208.153 18.1578   4
  -1  -7  -9 201.885 16.7057   1
   1  -7   9 193.814 17.9232   7
  -1   7  -9 152.351 17.2348  10
   1   7   9 184.690 17.1028   7
   1   7   9 190.066 17.2470   1
  -1   7  -9 149.102 16.3329   1
   1   7   9 176.975 16.7257   5
  -1   7  -9 152.104 16.7447   6
   2  -7   9 1299.10 129.979   7
  -2  -7  -9 1496.59 137.897   4
  -2   7  -9 1491.46 131.930   6
  -2   7  -9 1570.22 128.394   1
   2   7   9 1487.28 128.975   1
  -2   7  -9 1365.39 141.594  10
   2   7   9 1400.09 127.994   5
   2   7   9 1557.85 129.487   7
  -2   7  -9 1439.00 149.781   3
  -3  -7  -9 57.6830 6.72644   4
   3  -7   9 51.1002 7.47721   7
  -3   7  -9 49.6396 6.79701   3
   3   7   9 52.5065 6.34753   7
   3   7   9 63.6499 7.48803   1
  -3   7  -9 51.5276 5.98405   7
  -3   7  -9 44.0621 5.92756   6
   3   7   9 44.7626 5.91069   5
  -3   7  -9 50.6726 5.98081   1
   4  -7   9 26.3855 5.14801   7
  -4  -7  -9 24.3754 4.35840   4
   4   7   9 26.8564 5.01588   1
  -4   7  -9 29.5526 4.15612   1
   4   7   9 29.2059 4.08568   5
  -4   7  -9 27.6705 4.07825   7
  -4   7  -9 26.5245 4.70670   3
  -5  -7  -9 184.550 19.2488   4
   5  -7   9 145.138 18.4296   7
  -5   7  -9 183.726 21.0977   3
   5   7   9 194.869 18.5882   1
   5   7   9 197.565 17.5657   5
  -5   7  -9 204.042 18.1502   7
  -5   7  -9 200.321 17.8388   1
   6  -7   9 778.572 81.3591   7
  -6  -7  -9 978.412 86.6858   4
   6   7   9 984.125 81.0390   1
  -6   7  -9 909.595 80.3502   1
  -6   7  -9 877.984 80.9765   7
   7  -7   9 34.0229 5.60758   1
   7  -7   9 20.9939 4.60273   7
   7  -7   9 22.8355 4.61542   5
  -7   7  -9 30.7605 4.43563   1
   7   7   9 42.9259 5.83540   1
  -7   7  -9 35.3606 4.87167   7
   8  -7   9 7.56633 3.15079   7
  -8  -7  -9 10.6675 3.69745   4
   8  -7   9 17.3021 4.22630   1
   8  -7   9 15.6287 3.43512   5
   8   7   9 12.1046 3.45819   1
  -8   7  -9 13.6227 3.15120   7
   9  -7   9 130.688 12.8446   7
   9  -7   9 113.242 12.8660   1
   9  -7   9 103.962 11.9711   5
  -9  -7  -9 145.699 14.0046   4
   9   7   9 110.843 12.4710   1
   8  -8  -9 106.144 11.2789   1
  -8  -8   9 96.1055 9.08123   8
  -7  -8   9 1.42037 1.29614   8
   7  -8  -9 1.45998 2.44629   1
  -7   8   9 2.76906 2.85199   7
  -6  -8   9 104.471 10.0757   8
   6  -8  -9 112.356 11.1301   1
   6  -8  -9 86.0371 12.8348   4
  -6   8   9 117.224 12.1633   7
  -6   8   9 101.842 11.7901   5
   5  -8  -9 240.545 24.8766   7
  -5  -8   9 241.034 23.3513   8
   5  -8  -9 253.306 26.8411   4
   5  -8  -9 268.215 24.0294   1
   5   8  -9 291.666 23.6070   6
  -5   8   9 246.216 24.8582   7
  -5   8   9 235.439 24.4853   5
  -4  -8   9 254.560 23.5365   8
   4  -8  -9 245.693 23.8171   1
   4  -8  -9 253.157 26.4388   4
   4   8  -9 260.119 23.0217   1
  -4   8   9 241.233 24.6692   7
   4   8  -9 251.937 23.6335   6
  -4   8   9 298.094 24.7097   5
   3  -8  -9 9.32661 3.52107   4
  -3  -8   9 0.21622 1.90652   8
   3  -8  -9 3.58532 1.94463   1
  -3   8   9 3.51160 2.74444   5
  -3   8   9 6.48637 3.10993   1
   3   8  -9 3.97019 1.52977   1
  -3   8   9 7.63369 3.04974   7
   3   8  -9 4.69204 1.33141   6
  -2  -8   9 190.965 18.8678   8
   2  -8  -9 233.755 19.0516   1
  -2   8   9 235.026 19.9425   1
   2   8  -9 187.600 18.2786   1
  -2   8   9 180.045 19.2077   5
   2   8  -9 199.684 18.7271   6
  -2   8   9 188.104 19.6062   7
   1  -8  -9 362.356 35.1029   4
   1  -8  -9 370.456 32.4293   1
  -1  -8   9 310.858 32.3145   8
   1   8  -9 414.682 32.1026   1
   1   8  -9 335.229 32.7413   6
  -1   8   9 347.813 32.7332   5
  -1   8   9 372.312 33.1601   1
  -1   8   9 335.143 33.1502   7
   0  -8  -9 398.093 36.7261   4
   0  -8   9 370.230 34.6906   7
   0  -8  -9 307.669 33.8353   1
   0   8   9 390.378 34.7271   1
   0   8   9 351.112 34.6684   7
   0   8   9 372.950 34.2852   5
   0   8  -9 382.318 34.5360   6
   0   8  -9 424.228 33.7712   1
  -1  -8  -9 24.9315 4.34835   4
   1  -8   9 26.3767 4.85031   7
  -1   8  -9 24.8552 3.70151   1
   1   8   9 31.2117 5.08357   1
   1   8   9 31.2162 4.81411   7
  -1   8  -9 28.6867 3.84394   6
   1   8   9 22.8983 4.23671   5
  -2  -8  -9 130.206 13.0285   4
   2  -8   9 123.125 13.3918   7
   2   8   9 126.712 12.6212   7
   2   8   9 145.570 13.1966   1
  -2   8  -9 111.024 12.0328   6
   2   8   9 109.882 12.1465   5
  -2   8  -9 120.760 11.8649   1
   3  -8   9 290.275 28.5724   7
  -3  -8  -9 328.400 29.0865   4
  -3   8  -9 245.312 31.0240   3
   3   8   9 311.800 27.1145   5
  -3   8  -9 306.180 26.9598   1
   3   8   9 297.791 27.9628   1
  -4  -8  -9 340.448 31.7400   4
   4  -8   9 308.144 30.8688   7
   4   8   9 321.772 29.3359   5
  -4   8  -9 286.312 29.2596   1
  -4   8  -9 355.371 29.6784   7
   4   8   9 324.384 30.4322   1
  -4   8  -9 320.592 34.2503   3
   5  -8   9 28.3469 5.59869   7
  -5  -8  -9 34.3555 5.20942   4
  -5   8  -9 47.5103 5.24054   7
   5   8   9 38.1180 4.83907   5
   5   8   9 26.0926 5.40623   1
  -5   8  -9 30.0909 4.60068   1
   6  -8   9 15.8603 4.09818   7
   6  -8   9 18.7335 4.26347   5
  -6  -8  -9 25.3131 4.10348   4
  -6   8  -9 13.2733 2.93399   1
   6   8   9 15.2021 4.01512   1
  -6   8  -9 17.1775 3.34645   7
   7  -8   9 172.972 19.0028   7
   7  -8   9 152.046 18.3554   5
  -7  -8  -9 224.195 19.7936   4
  -7   8  -9 204.624 18.0701   1
  -7   8  -9 191.063 18.2513   7
   8  -8   9 117.446 13.8164   5
  -8  -8  -9 160.343 15.1581   4
   8   8   9 140.619 14.2113   1
   7  -9  -9 1.98913 2.41618   1
  -7  -9   9 0.01892 0.96207   8
  -7   9   9 2.08048 2.73958   5
   6  -9  -9 61.6080 8.99747   4
   6  -9  -9 80.5806 8.14759   1
  -6  -9   9 67.4144 6.71220   8
  -6   9   9 62.8524 8.67373   5
  -6   9   9 73.2808 8.99945   7
  -5  -9   9 15.2425 2.40815   8
   5  -9  -9 14.6399 3.20467   1
   5  -9  -9 18.3319 4.23513   4
   5  -9  -9 13.4884 3.71164   7
  -5   9   9 11.6343 3.78034   5
  -5   9   9 13.9996 3.92562   7
   4  -9  -9 30.1428 5.30112   4
  -4  -9   9 22.4597 3.37626   8
   4  -9  -9 22.3926 3.94790   1
  -4   9   9 18.8007 4.45741   5
  -4   9   9 28.9167 5.12838   7
   4   9  -9 27.6991 3.42265   1
   3  -9  -9 12.9527 3.42454   4
   3  -9  -9 12.7916 2.69798   1
  -3  -9   9 9.87292 2.27554   8
  -3   9   9 9.89864 3.48827   1
  -3   9   9 11.0848 3.38748   5
   3   9  -9 10.2174 1.93848   1
   3   9  -9 9.87941 2.00205   6
  -3   9   9 7.54105 3.17100   7
  -2  -9   9 120.798 11.2297   8
   2  -9  -9 139.609 12.6862   4
   2  -9  -9 108.877 11.2753   1
   2   9  -9 113.302 10.7254   1
  -2   9   9 96.1901 11.8975   5
   2   9  -9 107.205 11.0116   6
  -2   9   9 101.522 12.1603   7
  -2   9   9 130.807 12.6712   1
   1  -9  -9 17.3219 3.40230   4
   1   9  -9 15.6159 2.51559   6
  -1   9   9 15.0179 3.56991   5
  -1   9   9 19.2653 4.33256   1
  -1   9   9 9.09264 3.19839   7
   1   9  -9 13.5403 2.38677   1
   0  -9  -9 47.7783 6.39401   4
   0  -9   9 43.2629 6.43186   7
   0   9  -9 54.0787 5.54649   1
   0   9   9 49.1330 6.55382   5
   0   9  -9 52.5368 5.61417   6
   0   9   9 41.8630 6.73012   1
   0   9   9 50.9024 6.89127   7
   1  -9   9 56.7920 7.34051   7
  -1  -9  -9 55.6436 6.95559   4
  -1   9  -9 58.7384 6.22111   1
   1   9   9 52.4541 6.98239   5
   1   9   9 59.6077 7.47162   7
  -1   9  -9 53.2660 6.24272   6
   1   9   9 67.9180 7.79624   1
   2  -9   9 163.958 18.8374   7
  -2  -9  -9 202.445 19.3990   4
  -2   9  -9 213.543 17.9365   1
   2   9   9 190.866 18.8867   1
  -2   9  -9 184.074 18.3096   6
   2   9   9 190.748 18.3491   5
  -3  -9  -9 108.912 10.2480   4
   3  -9   9 79.4027 10.6651   7
   3   9   9 101.006 9.71475   5
  -3   9  -9 84.4124 9.15695   1
   3   9   9 80.0119 10.1866   1
  -4  -9  -9 80.0288 8.16465   4
   4  -9   9 67.4926 9.36312   7
   4   9   9 67.9901 8.65541   1
  -4   9  -9 65.5508 7.37565   1
   4   9   9 64.9608 7.46285   5
  -5  -9  -9 88.6145 9.54552   4
   5  -9   9 86.4827 10.5243   7
  -5   9  -9 76.6696 8.64441   1
   5   9   9 84.0501 9.83023   1
   6  -9   9 283.522 27.4716   5
   6  -9   9 285.038 27.8899   7
  -6  -9  -9 314.478 28.6140   4
  -6   9  -9 263.652 26.3248   1
   6   9   9 260.275 27.0902   1
  -6   9  -9 317.859 26.7734   7
  -7  -9  -9 62.1303 7.45895   4
   7  -9   9 54.1053 7.58141   5
   7   9   9 53.3891 7.39017   1
  -7   9  -9 58.5315 6.83367   1
  -5 -10   9 285.892 26.8883   8
   5 -10  -9 305.530 27.8373   1
   5 -10  -9 313.272 30.1680   4
   5 -10  -9 294.141 28.6307   7
  -5  10   9 321.136 28.6605   5
   4 -10  -9 182.703 17.9832   1
  -4 -10   9 173.808 17.3270   8
   4 -10  -9 194.421 18.5022   7
   4 -10  -9 213.475 19.7624   4
  -4  10   9 199.373 18.9602   5
  -4  10   9 194.337 19.1595   7
   3 -10  -9 95.9026 9.33805   4
  -3 -10   9 77.8742 7.78908   8
   3 -10  -9 86.9730 8.39430   1
  -3  10   9 60.0819 8.80181   5
   3  10  -9 78.6636 7.58428   1
  -3  10   9 62.6462 9.04983   7
   2 -10  -9 13.5400 3.26836   4
  -2  10   9 8.96517 3.34721   7
  -2  10   9 12.1492 3.49996   5
  -2  10   9 20.3468 4.56645   1
   2  10  -9 15.7641 2.44751   1
   1 -10  -9 461.454 40.7431   4
   1  10  -9 390.303 37.3526   1
  -1  10   9 420.249 38.8441   7
  -1  10   9 380.742 38.1876   5
  -1  10   9 451.008 38.9226   1
   0 -10   9 265.981 25.8055   7
   0 -10  -9 328.746 27.4560   4
   0  10   9 288.028 25.9343   5
   0  10  -9 236.912 24.9606   1
   0  10   9 272.939 26.3418   1
   0  10   9 278.607 26.3440   7
   1 -10   9 30.7055 5.19878   7
  -1 -10  -9 37.6048 5.28062   4
   1  10   9 42.8635 6.15249   1
  -1  10  -9 37.0120 4.56449   1
   1  10   9 36.3546 5.26925   5
   2 -10   9 2.80346 2.22851   7
  -2 -10  -9 4.46845 2.32743   4
   2  10   9 6.32133 2.41664   5
   2  10   9 7.25747 2.98951   1
  -2  10  -9 3.41463 1.84112   1
  -3 -10  -9 454.467 39.7051   4
   3 -10   9 371.775 37.9536   7
   3  10   9 357.601 37.5874   1
   3  10   9 481.531 36.9776   5
  -3  10  -9 372.235 36.7142   1
  -4  10  -9 358.767 33.6685   1
   4  10   9 391.962 34.8196   1
  -5 -10  -9 9.10919 2.90318   4
   5  10   9 6.01582 3.32993   1
  -5  10  -9 5.72073 2.30156   1
   1 -11  -9 57.0227 6.77464   4
  -1  11   9 54.1208 7.24990   1
  -1  11   9 64.0913 7.14028   5
   1  11  -9 47.2714 5.57107   1
   0 -11  -9 241.869 22.5127   4
   0  11  -9 219.427 20.5420   1
   0  11   9 228.519 21.9156   1
   0  11   9 214.300 21.2812   5
  -1 -11  -9 9.68470 2.66304   4
  -1  11  -9 8.79262 2.11607   1
   1  11   9 5.75790 2.55461   5
   1  11   9 5.10852 3.16255   1
 -11   0  10 9.96208 2.16612   8
 -10   0  10 4.54530 1.69772   8
  10   0 -10 8.26467 2.36719   6
  -9   0  10 19.3698 3.05842   8
   9   0 -10 23.7519 3.79040   6
   8   0 -10 580.391 57.5487   6
  -8   0  10 675.679 55.6240   8
   7   0 -10 37.5654 5.31659   6
   7   0 -10 43.3125 5.44016   1
  -7   0  10 39.4864 4.73465   8
   6   0 -10 17.0835 3.16327   6
   6   0 -10 17.6159 3.39879   1
  -6   0  10 13.2090 2.69853   8
   5   0 -10 15.1600 3.38826   4
   5   0 -10 11.5609 2.90957   6
  -5   0  10 12.6275 2.78957   8
   5   0 -10 18.5700 3.50121   1
   4   0 -10 1658.23 146.356   6
  -4   0  10 1799.74 143.039   7
   4   0 -10 1584.54 142.421   1
   4   0 -10 1422.13 152.554   4
   3   0 -10 7.65724 2.50536   6
   3   0 -10 9.26889 2.68040   1
  -3   0  10 6.68917 1.97757   7
   3   0 -10 8.09612 2.30313   4
  -3   0  10 8.87448 2.67323   8
  -2   0  10 87.0073 9.48035   8
  -2   0  10 97.7823 8.72682   7
   2   0 -10 73.0896 9.16995   4
   2   0 -10 86.3720 9.25748   1
   2   0 -10 77.5002 8.81741  10
   2   0 -10 104.131 9.64494   6
   1   0 -10 4.77350 2.25115   4
   1   0 -10 7.24910 2.53333   1
  -1   0  10 3.88597 1.74940   7
   1   0 -10 4.85872 2.63603  10
   1   0 -10 5.28086 1.40482  10
  -1   0  10 8.85770 2.07234   5
   1   0 -10 4.88918 2.35022   6
  -1   0  10 6.98288 2.96744   8
   0   0  10 2198.08 191.978   5
   0   0 -10 2096.22 207.338   4
   0   0 -10 2141.55 193.116   1
   0   0 -10 2446.46 213.190  10
   0   0 -10 2214.07 200.093   9
   0   0  10 2133.94 197.137   2
   0   0  10 2444.83 193.855   7
   0   0 -10 2203.73 197.036   2
   0   0 -10 1896.67 198.380   6
   0   0  10 2150.78 193.054   8
  -1   0 -10 274.466 29.0445   1
   1   0  10 316.256 28.8536   2
  -1   0 -10 254.022 29.7136   6
   1   0  10 300.650 28.5254   7
   1   0  10 320.110 28.3192   5
  -1   0 -10 308.195 31.9582   4
  -1   0 -10 321.591 33.8400  10
  -1   0 -10 304.776 29.1037   9
  -1   0 -10 352.517 28.8699   2
   1   0  10 358.238 28.4026   1
  -1   0 -10 329.115 30.5043   7
  -2   0 -10 494.529 43.9695   4
   2   0  10 481.358 38.7015   5
  -2   0 -10 398.194 39.9393   9
   2   0  10 447.711 39.0286   7
   2   0  10 450.711 39.5636   2
  -2   0 -10 395.938 40.6918   6
  -2   0 -10 446.980 39.9460   1
  -2   0 -10 435.430 40.5119   7
   2   0  10 407.705 38.6096   1
   2   0  10 388.487 38.5535   1
   3   0  10 3.34062 1.63041   5
  -3   0 -10 4.66078 4.17878   4
   3   0  10 3.55798 4.21561   9
  -3   0 -10 3.31437 1.45883   9
  -3   0 -10 3.24308 2.99021   1
   3   0  10 2.54285 1.58586   7
   3   0  10 4.40884 1.80188   1
   3   0  10 2.63739 1.55322   1
  -3   0 -10 6.58401 3.50691   7
  -3   0 -10 5.07427 3.10290   6
   3   0  10 1.52925 1.74403   2
  -4   0 -10 1282.82 104.962   7
   4   0  10 1206.34 101.857   5
   4   0  10 1263.03 102.858   7
  -4   0 -10 1032.27 106.222   9
   4   0  10 1225.67 109.393   9
   4   0  10 1104.81 102.193   1
  -4   0 -10 1091.87 112.365   4
  -4   0 -10 1179.51 103.941   1
   4   0  10 1074.33 102.067   1
  -5   0 -10 771.381 65.8886   4
   5   0  10 623.030 57.7367   1
  -5   0 -10 645.352 59.9075   7
  -5   0 -10 571.473 59.4529   1
   5   0  10 643.989 57.8224   1
   5   0  10 667.226 58.0341   7
   6   0  10 560.456 62.4570   9
  -6   0 -10 601.853 61.1374   1
   6   0  10 749.546 59.5089   7
  -6   0 -10 709.257 67.1400   4
   6   0  10 578.590 58.7393   5
   6   0  10 741.123 59.4190   1
  -6   0 -10 723.898 61.5835   7
  -7   0 -10 12.1006 5.70616   4
   7   0  10 2.48521 1.77520   7
   7   0  10 5.35073 2.31449   1
  -7   0 -10 1.20521 2.97265   7
   7   0  10 4.28580 1.77823   5
   8   0  10 212.997 19.0898   5
   8   0  10 206.508 19.6485   1
  -8   0 -10 163.758 20.8811   7
   8   0  10 244.389 19.4759   7
  -8   0 -10 182.259 23.5463   4
   9   0  10 641.976 56.6106   1
   9   0  10 638.930 55.8097   5
  -9   0 -10 672.442 63.4688   4
  -9   0 -10 576.384 58.1146   7
  10   0  10 353.708 35.1856   1
 -10   0 -10 359.153 36.3791   7
 -10   0 -10 378.129 39.9043   4
  10   0  10 432.511 34.3544   5
 -11   0 -10 6.54075 4.06847   4
 -11   0 -10 10.9010 4.07002   7
  11   0  10 7.47761 2.87162   1
 -11  -1  10 34.8811 3.79034   8
 -11   1  10 31.1686 4.44815   8
 -10  -1  10 11.2253 1.76138   8
  10   1 -10 7.74054 1.77285   6
 -10   1  10 5.66350 2.12323   8
  -9  -1  10 33.0514 3.70109   8
   9  -1 -10 33.8924 5.04058   6
   9  -1 -10 46.3484 5.72952   1
   9   1 -10 35.2934 4.23019   6
  -9   1  10 27.7555 4.42452   8
  -8  -1  10 25.6255 3.14331   8
   8  -1 -10 29.1208 4.78498   1
   8  -1 -10 29.2377 4.64652   6
  -8   1  10 29.3958 4.10993   8
   8   1 -10 26.2935 3.72913   6
   7  -1 -10 128.735 12.0184   1
  -7  -1  10 97.5602 10.4640   8
   7  -1 -10 111.166 11.9310   6
   7   1 -10 124.621 11.2850   6
  -7   1  10 115.608 11.2821   8
   6  -1 -10 0.50711 2.27546   6
  -6  -1  10 0.54233 1.25307   8
   6  -1 -10 1.26190 2.35846   1
   6  -1 -10 4.51466 2.60199   4
  -6   1  10 3.72482 2.12579   8
   6   1 -10 1.96422 1.66448   6
   6   1 -10 0.62260 1.79625   1
   5  -1 -10 63.0156 8.32372   4
  -5  -1  10 62.1260 7.06705   8
   5  -1 -10 70.0811 8.24759   6
   5  -1 -10 82.4378 8.35580   1
  -5   1  10 72.4217 7.48152   7
   5   1 -10 61.7671 7.23765   6
   5   1 -10 71.3989 7.22449   1
  -5   1  10 66.3032 7.68557   8
  -4  -1  10 40.1129 4.87763   8
   4  -1 -10 39.1331 5.76044   1
   4  -1 -10 31.1327 5.54862   4
   4  -1 -10 42.2802 5.81646   6
   4   1 -10 40.6379 5.03413   1
   4   1 -10 34.3195 4.85144   6
  -4   1  10 43.6102 4.93539   7
  -4   1  10 46.1958 6.41352   8
   3  -1 -10 134.351 13.3246  10
   3  -1 -10 129.275 13.4481  10
  -3  -1  10 140.193 13.1893   8
  -3  -1  10 145.803 12.8275   7
   3  -1 -10 111.102 13.4483   1
   3  -1 -10 135.397 13.9229   6
  -3   1  10 157.698 14.0358   8
   3   1 -10 130.817 13.0885   1
   3   1 -10 136.923 13.3747   6
  -3   1  10 130.810 12.9973   7
   2  -1 -10 8.77234 1.65927  10
  -2  -1  10 7.43275 1.95134   7
   2  -1 -10 8.05800 2.91466   1
   2  -1 -10 12.9745 2.66215  10
   2  -1 -10 6.80302 2.82430   4
  -2  -1  10 8.32842 2.76581   8
   2  -1 -10 5.73596 2.52287   6
  -2   1  10 4.70357 2.81563   8
  -2   1  10 4.66745 1.84602   7
   2   1 -10 9.31888 2.55376   1
   2   1 -10 9.25232 2.54772   6
   1  -1 -10 177.542 20.2673   6
   1  -1 -10 206.190 21.8549   4
   1  -1 -10 204.880 19.5824   9
  -1  -1  10 177.499 19.1253   7
  -1  -1  10 218.573 19.9534   8
   1  -1 -10 203.281 19.1899   9
   1  -1 -10 229.344 20.7579  10
   1  -1 -10 212.407 20.0547   1
  -1   1  10 204.701 19.1682   7
   1   1 -10 229.617 20.2003   6
  -1   1  10 242.833 20.9248   8
  -1   1  10 242.479 19.1871   5
   1   1 -10 192.194 19.4245   1
   1   1 -10 197.766 20.5374  10
   1   1 -10 188.582 20.8149  10
   0  -1 -10 85.1161 10.5818   4
   0  -1  10 77.0990 7.27506   7
   0  -1  10 60.7077 6.75632   2
   0  -1  10 64.5669 6.91668   5
   0  -1 -10 60.8928 7.23861  10
   0  -1 -10 66.6225 6.64892   9
   0  -1  10 67.6116 8.16893   8
   0  -1 -10 70.8294 10.5194  10
   0  -1 -10 70.5779 8.29774   6
   0  -1 -10 56.2385 7.92759   1
   0   1 -10 62.1773 7.62920   1
   0   1  10 66.7274 6.90967   1
   0   1  10 71.2387 6.98024   2
   0   1  10 71.6882 7.07023   7
   0   1 -10 69.7111 7.23268  10
   0   1 -10 55.0998 7.41847   4
   0   1 -10 66.9062 6.47894   9
   0   1 -10 60.4063 6.64352   9
   0   1  10 79.3043 10.6321   8
   0   1 -10 62.0139 7.73915   6
   0   1 -10 64.8706 6.76167   9
   0   1 -10 72.5585 8.84226  10
   0   1  10 72.0029 7.00046   5
   0   1 -10 68.6244 6.79213   2
  -1  -1 -10 38.1461 5.97104   6
  -1  -1 -10 32.0385 5.48275   1
  -1  -1 -10 38.9065 4.19039   2
  -1  -1 -10 36.4387 4.17325   9
   1  -1  10 42.2046 6.20771   8
   1  -1  10 34.5656 4.41310   2
  -1  -1 -10 37.5239 8.23076  10
   1  -1  10 27.8287 4.19236   1
   1  -1  10 40.5814 4.60861   5
   1  -1  10 35.4886 4.70750   7
  -1  -1 -10 47.9360 8.53097   4
  -1   1 -10 38.1809 4.00135   9
  -1   1 -10 32.7283 4.19967   2
   1   1  10 37.1286 4.43816   2
  -1   1 -10 37.7388 5.73641   4
  -1   1 -10 34.4181 5.55097   1
   1   1  10 37.1661 4.55515   7
   1   1  10 32.1731 7.52241   9
  -1   1 -10 41.3533 5.96517   6
   1   1  10 34.6926 4.44759   5
  -1   1 -10 33.7775 4.48779  10
  -1   1 -10 43.3571 7.36829  10
   1   1  10 40.0423 4.53512   1
  -1   1 -10 37.9250 6.09497   7
  -2  -1 -10 1.55512 2.54203   1
  -2  -1 -10 5.38594 4.31316   4
   2  -1  10 4.89173 1.76765   2
   2  -1  10 5.98857 1.87492   1
   2  -1  10 4.54995 1.79224   5
   2  -1  10 2.53446 1.84002   7
  -2  -1 -10 4.39009 3.29907   7
  -2  -1 -10 8.83221 3.14363   6
  -2  -1 -10 8.38996 1.76818   9
  -2   1 -10 6.20219 1.43220   9
  -2   1 -10 7.82846 3.41729   4
   2   1  10 5.64824 1.91425   1
   2   1  10 2.50985 1.59973   5
  -2   1 -10 6.46190 2.84800   1
   2   1  10 3.35531 1.66781   7
  -2   1 -10 2.64813 2.73829   7
   2   1  10 6.88755 2.03544   2
  -2   1 -10 9.20120 3.87878  10
  -2   1 -10 7.07533 3.21141   6
   2   1  10 3.84629 4.16594   9
  -3  -1 -10 360.143 30.4584   1
  -3  -1 -10 345.143 29.6958   9
  -3  -1 -10 298.257 33.5318   4
   3  -1  10 345.990 29.0731   7
   3  -1  10 325.575 28.5612   5
   3  -1  10 306.058 28.6147   1
   3  -1  10 310.981 32.2569   9
  -3  -1 -10 316.007 30.4630   7
  -3   1 -10 312.537 30.5977   7
   3   1  10 343.073 32.6582   9
  -3   1 -10 335.923 31.0294   6
   3   1  10 314.929 28.7204   1
   3   1  10 298.395 28.4478   5
  -3   1 -10 260.739 31.7310   4
  -3   1 -10 349.720 30.4510   1
   3   1  10 263.848 28.6955   7
  -3   1 -10 313.167 29.5168   9
   4  -1  10 106.702 13.0996   9
  -4  -1 -10 117.039 14.3687   4
  -4  -1 -10 112.653 11.8892   7
  -4  -1 -10 99.4382 11.6458   1
   4  -1  10 92.5362 9.39741   5
   4  -1  10 83.3458 9.50893   7
   4  -1  10 110.703 9.65795   1
  -4  -1 -10 101.393 9.74389   9
   4   1  10 100.719 13.3110   9
  -4   1 -10 117.312 12.1974   7
  -4   1 -10 80.7462 11.2114   1
   4   1  10 85.0711 9.50110   1
   4   1  10 81.9157 9.34464   7
  -4   1 -10 97.4556 9.61732   9
  -4   1 -10 80.5001 11.6440   4
   4   1  10 89.1458 9.25433   5
  -5  -1 -10 8.38656 3.81590   1
   5  -1  10 7.07287 2.12600   1
   5  -1  10 4.24805 3.92794   9
   5  -1  10 3.51891 1.67781   5
   5  -1  10 5.42173 2.12470   7
  -5  -1 -10 6.20874 3.62832   7
  -5  -1 -10 4.30185 5.08898   4
   5   1  10 6.53227 1.95782   7
   5   1  10 4.81131 2.10339   1
  -5   1 -10 4.31428 3.72362   1
   5   1  10 3.90030 1.62670   5
  -5   1 -10 12.9861 4.55520   7
  -5   1 -10 5.15931 1.72100   9
  -5   1 -10 3.83928 3.72312   4
   5   1  10 2.36510 4.02657   9
   6  -1  10 1.62486 1.55721   5
   6  -1  10 7.52055 2.20010   7
  -6  -1 -10 1.44946 3.28911   7
   6  -1  10 1.07923 1.79283   1
  -6  -1 -10 3.88553 4.90731   4
   6  -1  10 -0.1701 3.26101   9
   6   1  10 1.26720 2.96453   9
   6   1  10 2.05010 1.53960   5
   6   1  10 2.85664 2.05774   1
   6   1  10 0.47239 1.57334   7
  -6   1 -10 5.82485 3.98065   4
   6   1  10 0.80550 1.68367   1
  -6   1 -10 -0.8679 2.94671   7
  -6   1 -10 4.74206 3.75080   1
   7  -1  10 188.583 17.1540   7
   7  -1  10 181.247 16.9107   5
  -7  -1 -10 189.437 21.8536   4
  -7  -1 -10 178.542 19.0470   7
   7  -1  10 174.150 17.2007   1
   7   1  10 177.914 16.7398   5
   7   1  10 184.711 17.4065   1
  -7   1 -10 197.665 19.7074   7
   7   1  10 208.411 17.4518   1
  -7   1 -10 171.761 20.4519   4
   7   1  10 159.813 16.8786   7
   8  -1  10 82.9117 8.48179   1
  -8  -1 -10 74.4971 9.91193   7
   8  -1  10 61.0584 7.52516   5
  -8  -1 -10 87.6191 12.9508   4
   8  -1  10 76.1375 7.91051   7
  -8   1 -10 60.3668 9.95454   7
   8   1  10 83.1574 7.57008   5
   8   1  10 86.5410 8.50334   1
  -8   1 -10 56.5507 10.4614   4
   9  -1  10 13.2121 2.55401   5
  -9  -1 -10 10.0940 3.97226   7
   9  -1  10 8.62641 2.97858   1
  -9  -1 -10 14.2868 5.83855   4
  -9   1 -10 9.56614 4.46323   4
   9   1  10 13.5331 3.18765   1
  -9   1 -10 14.3755 4.33297   7
   9   1  10 13.9217 2.42932   5
  10  -1  10 0.32664 2.16001   1
 -10  -1 -10 -1.7236 2.58719   7
 -10  -1 -10 1.11973 4.16512   4
  10  -1  10 2.29700 1.63229   5
  10   1  10 3.71061 2.58689   1
 -10   1 -10 0.36361 2.97936   4
 -10   1 -10 0.65453 3.03081   7
 -11  -1 -10 38.4172 8.16430   4
 -11  -1 -10 32.3718 6.33978   7
  11  -1  10 54.5855 6.21212   1
 -11   1 -10 36.0870 6.66231   7
  11   1  10 48.5587 6.15313   1
 -11   1 -10 35.8236 7.21188   4
 -11  -2  10 0.43035 0.91241   8
 -11   2  10 -0.4603 1.73837   8
  10  -2 -10 5.02996 3.27329   1
 -10  -2  10 8.76322 1.44580   8
  10   2 -10 11.3885 1.63471   6
 -10   2  10 7.31625 2.61302   8
  -9  -2  10 23.0229 2.66164   8
   9  -2 -10 23.8787 4.92523   1
   9  -2 -10 24.7890 4.49859   6
   9   2 -10 25.5096 3.03134   6
  -9   2  10 18.5669 3.80760   8
   8  -2 -10 506.714 50.4281   1
  -8  -2  10 509.858 48.8085   8
  -8   2  10 586.430 49.9379   8
   8   2 -10 620.454 50.6197   6
  -7  -2  10 15.0614 2.17832   8
   7  -2 -10 13.4461 3.83616   1
   7  -2 -10 16.3153 4.04348   6
   7   2 -10 15.8928 2.50183   6
  -7   2  10 16.1369 3.42039   8
  -6  -2  10 0.91365 1.29707   8
   6  -2 -10 4.78153 3.21029   4
   6  -2 -10 3.69997 2.73057   6
   6  -2 -10 1.46049 2.66750   1
   6   2 -10 10.1091 1.85466   6
  -6   2  10 10.3816 3.03859   8
  -6   2  10 5.05056 2.36005   7
   5  -2 -10 51.5100 7.06983   1
   5  -2 -10 52.0328 7.13657   6
  -5  -2  10 44.4978 4.95609   8
   5  -2 -10 41.0306 6.77393   4
   5   2 -10 38.0272 5.13242   6
   5   2 -10 47.2054 5.19185   1
  -5   2  10 50.6891 6.49943   8
   4  -2 -10 619.317 65.0880   4
   4  -2 -10 648.739 60.8595   1
  -4  -2  10 690.119 59.6017   8
   4  -2 -10 682.165 62.6117   6
   4  -2 -10 683.150 65.4313  10
   4  -2 -10 700.200 65.5041  10
   4   2 -10 631.951 61.3653   6
  -4   2  10 791.586 61.1321   8
  -4   2  10 650.165 60.4360   7
   4   2 -10 651.705 59.7288   1
  -3  -2  10 105.917 10.6711   8
   3  -2 -10 115.821 12.0047   6
   3  -2 -10 108.941 11.7352   1
   3  -2 -10 112.855 12.9412   4
  -3  -2  10 95.4832 10.3486   7
   3  -2 -10 103.690 10.8199  10
   3  -2 -10 96.7184 11.2621  10
   3   2 -10 120.429 10.6318   1
  -3   2  10 104.178 10.6099   7
   3   2 -10 116.160 10.8764   6
   2  -2 -10 39.1539 4.20599   9
   2  -2 -10 48.3453 4.97830  10
  -2  -2  10 39.5236 5.07849   7
  -2  -2  10 47.9426 5.50087   8
   2  -2 -10 46.6929 8.11275   4
   2  -2 -10 43.5005 4.55847   9
   2  -2 -10 57.4509 7.85159  10
   2  -2 -10 42.9456 6.50563   6
   2  -2 -10 37.5780 6.23760   1
  -2   2  10 33.4633 4.98607   7
   2   2 -10 40.3789 5.31593   1
   2   2 -10 37.3501 5.27150   6
  -2   2  10 42.5268 5.11547   5
  -2   2  10 53.6530 7.92823   8
   1  -2 -10 52.3405 5.99615  10
   1  -2 -10 55.6485 9.29812   4
  -1  -2  10 55.7413 6.02989   7
  -1  -2  10 50.9930 6.31756   8
   1  -2 -10 48.8645 6.80738   1
   1  -2 -10 45.3425 5.21286   9
   1  -2 -10 80.1461 11.1497  10
   1  -2 -10 60.0766 7.54028   6
   1   2 -10 55.9543 6.35651   1
  -1   2  10 50.7754 5.72030   1
   1   2 -10 49.2653 5.47494  10
  -1   2  10 49.0281 5.91470   7
  -1   2  10 53.5576 5.80943   5
   1   2 -10 48.6563 6.30536   6
   0  -2  10 403.391 38.3951   7
   0  -2 -10 405.505 40.0677   6
   0  -2  10 418.502 38.6821   2
   0  -2 -10 443.250 43.8923  10
   0  -2 -10 433.497 43.5308   4
   0  -2  10 458.379 38.6651   8
   0  -2 -10 411.632 39.1269   1
   0  -2 -10 426.643 39.0956   9
   0   2  10 419.494 37.9124   1
   0   2  10 434.298 38.3187   7
   0   2 -10 411.191 41.9671  10
   0   2 -10 438.468 41.5695  10
   0   2 -10 508.212 39.5395   7
   0   2 -10 410.615 38.6762   1
   0   2  10 380.762 39.1736   2
   0   2 -10 378.441 39.5000   6
   0   2  10 426.754 37.8248   5
  -1  -2 -10 364.542 31.4151   9
   1  -2  10 341.876 31.0761   2
  -1  -2 -10 337.765 32.5480   6
   1  -2  10 311.053 30.3728   5
   1  -2  10 300.261 30.8340   7
   1   2  10 341.973 30.4015   1
  -1   2 -10 348.886 33.3896  10
  -1   2 -10 394.354 31.2151   9
   1   2  10 360.891 30.7500   7
  -1   2 -10 349.352 32.2624   6
   1   2  10 316.620 33.7494   9
  -1   2 -10 269.141 31.0626   1
  -1   2 -10 352.037 34.3643  10
  -1   2 -10 329.605 31.6511   7
   1   2  10 330.725 31.2758   2
   1   2  10 303.739 30.2379   5
   2  -2  10 56.9821 6.98062   1
  -2  -2 -10 84.1628 9.41807   6
   2  -2  10 67.6302 7.58901   7
   2  -2  10 79.7148 7.47228   5
  -2  -2 -10 69.6404 7.27696   9
   2  -2  10 59.3292 7.16460   2
  -2  -2 -10 69.1191 8.69128   1
  -2  -2 -10 56.3945 9.85859   4
  -2   2 -10 58.8043 8.50124  10
  -2   2 -10 58.4719 8.46961   6
   2   2  10 73.7106 7.29175   1
   2   2  10 71.7496 7.57783   2
  -2   2 -10 73.8230 9.08827   7
  -2   2 -10 65.8640 8.57105   1
  -2   2 -10 66.2133 8.31391   4
   2   2  10 75.7534 7.41484   7
   2   2  10 70.2388 10.6529   9
   2   2  10 71.2083 7.22857   5
  -2   2 -10 73.4445 7.04329   9
   3  -2  10 14.2443 2.95195   7
  -3  -2 -10 19.1902 4.60644   1
  -3  -2 -10 13.3435 2.64328   9
   3  -2  10 12.2111 2.65616   5
   3  -2  10 11.0569 2.57777   1
  -3  -2 -10 16.2504 4.48691   7
  -3  -2 -10 11.1777 5.22795   4
   3   2  10 15.0977 4.69872   9
  -3   2 -10 16.3050 4.50977   1
   3   2  10 12.2523 2.71248   1
  -3   2 -10 17.3411 4.11715   4
   3   2  10 15.1697 2.81455   7
  -3   2 -10 11.8512 3.96817   6
   3   2  10 14.4816 2.60839   5
  -3   2 -10 13.1218 2.31543   9
  -3   2 -10 15.2470 4.12217   7
  -4  -2 -10 134.778 16.1001   1
   4  -2  10 167.667 14.5409   5
   4  -2  10 138.632 14.3793   1
  -4  -2 -10 165.275 16.1591   7
  -4  -2 -10 148.712 18.6998   4
   4  -2  10 163.454 17.8333   9
   4  -2  10 131.678 14.5672   7
   4   2  10 173.670 17.6401   9
  -4   2 -10 136.156 15.8328   7
  -4   2 -10 166.615 16.8548   1
   4   2  10 130.129 14.2988   7
  -4   2 -10 167.962 14.7582   9
  -4   2 -10 155.541 16.5714   4
   4   2  10 158.114 14.2101   5
   4   2  10 153.341 14.6334   1
  -5  -2 -10 548.137 48.1874   4
   5  -2  10 399.586 41.0538   1
  -5  -2 -10 511.126 43.1017   7
   5  -2  10 451.391 41.4892   7
   5  -2  10 414.408 44.5557   9
   5  -2  10 437.542 40.9230   5
   5   2  10 469.177 40.7071   5
  -5   2 -10 466.571 45.2452   4
   5   2  10 498.349 41.4324   1
  -5   2 -10 408.905 42.9035   1
   5   2  10 469.441 44.3192   9
  -5   2 -10 499.032 42.6555   9
   5   2  10 434.580 41.1642   7
  -5   2 -10 429.632 42.7438   7
   6  -2  10 31.9742 4.88660   1
   6  -2  10 49.3068 5.04921   5
   6  -2  10 39.5598 7.25405   9
   6  -2  10 38.0059 5.15922   7
  -6  -2 -10 28.1220 7.67617   4
  -6  -2 -10 42.1475 6.95598   7
  -6   2 -10 33.0380 6.44090   1
   6   2  10 40.9503 4.76471   7
   6   2  10 36.0639 5.49452   9
  -6   2 -10 33.6622 6.52691   7
   6   2  10 39.1137 4.52714   5
  -6   2 -10 39.3920 6.95885   4
   6   2  10 30.1679 4.98446   1
  -7  -2 -10 1.16617 2.80510   7
   7  -2  10 5.28356 2.21983   7
   7  -2  10 7.78930 2.52844   1
   7  -2  10 4.67288 1.95543   5
  -7  -2 -10 2.75747 4.48233   4
  -7   2 -10 3.68799 3.50495   4
   7   2  10 7.83345 2.34729  10
   7   2  10 7.09478 2.56780   1
   7   2  10 5.94333 1.80812   5
  -7   2 -10 4.08039 2.90735   7
   7   2  10 8.18655 2.07409   7
   8  -2  10 30.7380 4.34400   5
  -8  -2 -10 33.6811 7.89860   4
   8  -2  10 35.5077 4.88499   1
  -8  -2 -10 31.2890 6.12545   7
   8  -2  10 36.8111 4.74428   7
   8   2  10 43.1856 5.35510   1
  -8   2 -10 25.9229 5.48740   7
  -8   2 -10 23.4020 6.04314   4
   8   2  10 30.3796 4.76746   1
   8   2  10 31.3353 4.06276   5
   9  -2  10 354.850 30.8746   5
   9  -2  10 340.717 31.4629   1
  -9  -2 -10 292.529 35.7725   4
  -9  -2 -10 398.497 33.2867   7
  -9   2 -10 279.532 34.5493   4
   9   2  10 347.636 30.4840   5
   9   2  10 351.977 31.6033   1
   9   2  10 362.494 31.6500   1
 -10  -2 -10 18.1192 5.92098   4
 -10  -2 -10 27.1137 5.11184   7
  10  -2  10 18.0452 3.00929   5
  10  -2  10 14.7884 3.60715   1
 -10   2 -10 15.4820 4.23477   7
 -10   2 -10 18.1437 4.82501   4
  10   2  10 23.1271 4.24765   1
  11  -2  10 26.7087 4.52338   1
 -11  -2 -10 18.6750 5.73071   4
 -11  -2 -10 24.5697 5.01026   7
 -11   2 -10 17.3436 4.85738   4
  11   2  10 28.2327 4.44501   1
 -11   2 -10 13.4947 4.10072   7
  11  -3 -10 54.4583 8.50500   1
 -11  -3  10 78.8464 6.77610   8
 -11   3  10 71.6527 8.19974   8
  10  -3 -10 11.0863 4.01831   1
 -10  -3  10 12.1174 1.68879   8
 -10   3  10 9.42564 2.96036   8
   9  -3 -10 285.876 32.2086   1
   9  -3 -10 356.823 33.2782   6
  -9  -3  10 355.518 30.1218   8
  -9   3  10 357.567 31.5006   8
   8  -3 -10 168.376 19.0399   6
   8  -3 -10 186.180 18.9610   1
  -8  -3  10 172.337 16.5018   8
  -8   3  10 176.882 17.8621   8
   8   3 -10 206.215 17.0036   6
  -7  -3  10 167.637 16.0447   8
   7  -3 -10 158.071 18.2827   6
   7  -3 -10 148.723 17.9052   1
   7   3 -10 192.191 16.6450   6
  -7   3  10 224.416 18.0195   8
  -7   3  10 179.852 17.5614   7
  -6  -3  10 11.8845 2.19890   8
   6  -3 -10 16.6922 4.44282   6
   6  -3 -10 15.1365 4.76110   4
   6  -3 -10 18.7119 4.59457   1
  -6   3  10 14.1022 3.38040   7
  -6   3  10 19.3362 4.39342   8
   6   3 -10 16.5533 2.48362   6
   5  -3 -10 688.656 60.1191   4
   5  -3 -10 543.250 56.8330   6
   5  -3 -10 649.141 55.8376   1
  -5  -3  10 572.480 53.7563   8
  -5   3  10 589.982 54.9747   7
   5   3 -10 632.565 55.4955   6
   5   3 -10 605.367 54.0537   1
   4  -3 -10 427.416 46.1522  10
   4  -3 -10 449.267 47.0415   4
   4  -3 -10 437.172 43.5314   1
   4  -3 -10 539.072 46.0287  10
   4  -3 -10 463.035 44.7457   6
  -4  -3  10 413.162 41.7392   8
  -4   3  10 447.611 42.6212   7
   4   3 -10 442.135 43.0622   6
  -4   3  10 538.558 43.5744   8
   4   3 -10 542.357 42.1594   1
  -3  -3  10 261.070 28.3371   8
   3  -3 -10 324.327 28.8703   9
   3  -3 -10 332.638 31.2559  10
   3  -3 -10 330.794 31.0691   6
   3  -3 -10 324.093 30.3001   1
   3  -3 -10 335.973 33.0726   4
   3  -3 -10 358.170 28.9614   9
   3   3 -10 271.721 29.2821   6
  -3   3  10 287.936 28.9642   7
   3   3 -10 323.617 28.7689   1
  -2  -3  10 2.97257 1.87706   8
   2  -3 -10 4.14437 4.18968   4
   2  -3 -10 8.47940 3.58707   6
   2  -3 -10 5.69183 3.37709   1
   2  -3 -10 9.41926 3.34858  10
   2  -3 -10 3.85503 1.17419   9
  -2  -3  10 7.98817 2.14886   7
   2   3 -10 4.96949 2.21546   6
   2   3 -10 3.55917 2.08689   1
  -2   3  10 6.06987 2.22892   5
  -2   3  10 3.37196 1.92866   7
  -1  -3  10 831.986 79.9681   8
   1  -3 -10 905.630 88.3175   4
   1  -3 -10 864.191 82.9250   9
   1  -3 -10 928.755 83.6226   6
  -1  -3  10 928.066 80.7907   7
   1  -3 -10 1010.27 91.1293  10
   1  -3 -10 855.211 81.3007   1
   1   3 -10 1003.92 82.8192   6
  -1   3  10 910.060 79.9776   1
  -1   3  10 805.819 79.8581   5
   1   3 -10 943.671 80.6201   1
  -1   3  10 897.883 80.6459   7
   0  -3  10 707.851 64.7186   7
   0  -3  10 738.964 65.4620   2
   0  -3 -10 638.987 70.4681   4
   0  -3 -10 685.163 65.1057   1
   0  -3 -10 825.090 66.4051   9
   0  -3 -10 772.360 67.1911   6
   0   3 -10 672.937 70.4347  10
   0   3 -10 761.413 64.7709   7
   0   3  10 707.469 63.9692   1
   0   3  10 701.954 68.0433   9
   0   3  10 697.246 64.4401   7
   0   3  10 770.781 64.0425   5
   0   3 -10 764.985 64.8203   1
   0   3 -10 717.241 70.4083  10
   0   3 -10 636.248 66.2557   6
  -1  -3 -10 264.547 27.8885   6
  -1  -3 -10 257.636 27.3086   1
   1  -3  10 328.762 26.6394   7
  -1  -3 -10 270.976 29.1168   4
   1  -3  10 248.053 25.8725   5
  -1  -3 -10 321.153 26.8068   9
   1  -3  10 288.072 26.4398   2
   1   3  10 296.087 25.9476   5
  -1   3 -10 264.632 28.6267  10
  -1   3 -10 255.780 26.3447   7
   1   3  10 294.064 26.8860   2
  -1   3 -10 296.505 26.2810   9
   1   3  10 301.819 26.1332   7
  -1   3 -10 287.206 28.2552  10
  -1   3 -10 319.696 27.7648   6
  -1   3 -10 250.762 26.7888   1
   1   3  10 262.321 25.8613   1
  -2  -3 -10 5.02603 3.48763   4
  -2  -3 -10 8.17214 2.03730   9
   2  -3  10 6.25602 2.27939   5
  -2  -3 -10 14.5812 4.47320   1
   2  -3  10 2.82746 1.92874   7
  -2   3 -10 8.65686 3.43242   6
  -2   3 -10 2.18131 2.12486  10
   2   3  10 15.5706 4.69030   9
   2   3  10 5.27268 2.10548   1
  -2   3 -10 6.44885 1.59136   9
   2   3  10 5.21289 2.05555   5
   2   3  10 5.54893 2.04027   7
  -2   3 -10 8.45890 3.44010   1
  -2   3 -10 7.36618 2.62164   7
   3  -3  10 748.813 61.2942   5
   3  -3  10 608.276 61.8038   7
   3  -3  10 725.062 61.2213   1
  -3  -3 -10 749.836 63.7265   9
  -3  -3 -10 698.530 62.7139   1
  -3   3 -10 661.390 64.1258   6
   3   3  10 664.579 61.4935   7
  -3   3 -10 650.049 63.2864   9
   3   3  10 787.463 66.0530   9
   3   3  10 711.541 60.9928   5
  -3   3 -10 688.065 62.8600   1
   3   3  10 642.716 61.2853   1
  -3   3 -10 627.319 62.0107   7
   4  -3  10 721.742 66.1850   5
   4  -3  10 760.120 66.3062   1
   4  -3  10 756.423 67.0194   7
  -4  -3 -10 754.999 68.0219   7
  -4   3 -10 753.229 71.5621   4
   4   3  10 725.328 65.8574   5
   4   3  10 704.541 66.4160   7
  -4   3 -10 750.524 68.6737   9
   4   3  10 822.611 66.5060   1
   4   3  10 845.122 70.9742   9
  -4   3 -10 667.471 67.1916   7
  -4   3 -10 692.669 67.6444   1
  -5  -3 -10 141.690 16.9202   4
   5  -3  10 138.775 13.2423   1
   5  -3  10 122.549 13.4298   7
   5  -3  10 152.984 15.7980   9
   5  -3  10 140.873 13.2488   5
  -5  -3 -10 127.226 14.4764   7
  -5   3 -10 147.549 14.9474   4
  -5   3 -10 151.839 13.5320   9
   5   3  10 146.344 12.9578   7
   5   3  10 129.615 13.4097   1
   5   3  10 137.499 14.5905   9
  -5   3 -10 126.243 14.4133   1
   5   3  10 125.941 12.7653   5
  -5   3 -10 98.0203 13.6383   7
   6  -3  10 11.8987 2.85533   5
   6  -3  10 18.4746 4.82204   9
   6  -3  10 13.1226 3.07195   7
  -6  -3 -10 12.0354 5.12321   4
   6  -3  10 11.5784 2.95704   1
  -6  -3 -10 17.7445 4.52099   7
  -6   3 -10 14.2686 4.12819   1
   6   3  10 14.5931 2.61450   5
   6   3  10 14.6471 2.60996   7
   6   3  10 12.8627 2.62168  10
   6   3  10 16.9712 3.64957   1
  -6   3 -10 15.8003 4.17214   4
  -6   3 -10 12.9148 2.61491   9
  -6   3 -10 14.0713 3.65806   7
   7  -3  10 360.607 32.6990   7
   7  -3  10 422.503 32.7957   1
  -7  -3 -10 341.081 33.6364   7
   7  -3  10 331.260 32.0849   5
  -7  -3 -10 390.753 37.2412   4
   7   3  10 330.859 31.7022   5
  -7   3 -10 349.512 33.2548   1
   7   3  10 336.879 32.7276   1
   8  -3  10 415.588 40.3394   1
   8  -3  10 451.720 40.4458   7
  -8  -3 -10 413.661 45.1671   4
   8  -3  10 422.478 39.7917   5
  -8  -3 -10 518.386 41.8742   7
   8   3  10 451.539 40.5415   1
   8   3  10 472.893 39.4136   5
  -8   3 -10 407.172 40.9956   7
  -9  -3 -10 41.1137 8.25217   4
  -9  -3 -10 47.8247 6.88535   7
   9  -3  10 35.3949 4.82082   5
   9  -3  10 41.9862 5.89498   1
   9  -3  10 36.2446 5.10003   7
   9   3  10 44.2222 5.92084   1
  -9   3 -10 24.0818 5.06233   7
  -9   3 -10 29.9108 6.05589   4
   9   3  10 40.7121 5.57736   1
  10  -3  10 10.7967 3.31122   1
 -10  -3 -10 8.27643 4.67881   4
 -10  -3 -10 9.40193 3.77799   7
  10  -3  10 9.74412 2.37735   5
  10   3  10 7.88133 3.06319   1
 -10   3 -10 10.6422 3.19758   7
 -10   3 -10 9.75908 3.73944   4
  10   3  10 9.59391 3.34779   1
 -11  -3 -10 163.741 16.4078   7
  11  -3  10 147.271 14.5290   5
 -11  -3 -10 154.379 18.5093   4
  11  -3  10 168.045 15.9485   1
  11   3  10 168.711 15.7031   1
 -11   3 -10 139.636 17.1147   4
  11  -4 -10 16.4973 4.42618   1
  10  -4 -10 222.911 23.7919   1
 -10  -4  10 240.340 20.8647   8
   9  -4 -10 0.04384 3.76167   1
  -9  -4  10 0.87481 1.04024   8
   9  -4 -10 -0.2953 3.08507   6
   8  -4 -10 55.2792 8.72827   1
  -8  -4  10 49.1221 5.09359   8
  -8   4  10 57.8569 7.62930   7
   7  -4 -10 27.8793 5.81574   6
   7  -4 -10 19.3171 5.29335   4
   7  -4 -10 18.4618 5.22667   1
  -7  -4  10 19.0236 2.57928   8
  -7   4  10 16.5700 4.18566   7
   7   4 -10 17.6201 2.51691   6
  -6  -4  10 238.503 22.9307   8
   6  -4 -10 284.256 27.7322   4
   6  -4 -10 264.523 26.0994   6
   6  -4 -10 291.757 25.5406   1
   6   4 -10 246.345 23.6341   6
  -6   4  10 244.946 24.1970   7
   5  -4 -10 8.00455 4.10881   1
   5  -4 -10 7.85107 1.85475  10
   5  -4 -10 8.83468 1.62176  10
  -5  -4  10 8.48133 2.01708   8
   5  -4 -10 7.72333 4.03281   4
   5  -4 -10 2.94163 3.39226   6
   5   4 -10 7.15837 2.10041   6
  -5   4  10 7.47200 2.82923   7
   4  -4 -10 18.7395 5.45616   4
   4  -4 -10 12.8417 3.09055  10
   4  -4 -10 13.1233 4.70888   1
   4  -4 -10 19.3496 5.13196   6
  -4  -4  10 18.7189 2.89815   8
   4  -4 -10 16.6987 2.82321  10
   4   4 -10 18.8622 3.31251   1
   4   4 -10 20.8954 3.33667   6
  -4   4  10 15.8883 3.41789   7
   3  -4 -10 7.77179 1.35124   9
   3  -4 -10 3.49678 3.53772   6
   3  -4 -10 3.58123 4.03441   4
   3  -4 -10 8.93392 4.10424   1
  -3  -4  10 5.65004 1.99936   8
   3  -4 -10 6.19838 2.89788  10
  -3   4  10 5.40370 2.39926   5
  -3   4  10 3.49577 2.24863   7
   3   4 -10 5.26376 2.26808   6
   3   4 -10 6.71156 2.55964   1
   2  -4 -10 121.469 18.2913   4
  -2  -4  10 157.577 15.9228   7
   2  -4 -10 199.516 18.1462   1
   2  -4 -10 196.125 18.3922   6
   2  -4 -10 180.003 15.6273   9
  -2   4  10 168.680 15.9834   7
   2   4 -10 154.265 15.9372   1
  -2   4  10 165.072 15.7120   5
   2   4 -10 145.311 16.1377   6
   1  -4 -10 43.2383 4.69527   9
   1  -4 -10 33.6823 6.89862   1
  -1  -4  10 43.1557 5.71422   7
   1  -4 -10 48.1209 7.77225   6
   1  -4 -10 28.0462 7.10283   4
   1   4 -10 41.4685 5.89105   6
   1   4 -10 48.9033 6.05120   1
  -1   4  10 34.9499 4.98619   5
  -1   4  10 31.0497 4.97111   7
  -1   4  10 40.1263 5.12410   1
   0  -4 -10 9.45727 2.19325   9
   0  -4  10 10.9800 3.17242   7
   0  -4 -10 21.6921 4.68141   1
   0  -4  10 17.8810 2.93072   2
   0  -4 -10 8.87148 3.72991   4
   0   4  10 7.56934 3.54884   9
   0   4 -10 6.57052 3.08623   1
   0   4  10 10.5695 2.69224   7
   0   4 -10 7.96980 1.74927  10
   0   4  10 10.2132 2.57418   1
   0   4  10 16.6454 2.94603   5
   0   4 -10 10.2459 1.70543  10
  -1  -4 -10 -0.7799 2.89653   1
   1  -4  10 6.63124 2.68510   7
  -1  -4 -10 4.33125 3.04913   4
  -1  -4 -10 3.55200 1.89476   9
   1   4  10 9.17215 2.61886   2
  -1   4 -10 4.91929 1.77466  10
  -1   4 -10 6.67068 1.80100  10
   1   4  10 7.36067 2.31848   7
   1   4  10 6.53996 2.15972   5
  -1   4 -10 5.32699 3.15035   1
  -1   4 -10 2.68852 1.78694   7
   1   4  10 3.19599 3.06600   9
   1   4  10 5.95553 2.15118   1
  -1   4 -10 3.61385 2.70336   6
   2  -4  10 75.2552 8.40550   5
   2  -4  10 63.3484 8.41569   7
  -2  -4 -10 67.0151 10.0180   1
  -2  -4 -10 88.3283 10.1053   4
  -2  -4 -10 82.5407 8.31531   9
   2   4  10 63.3022 7.98885   7
  -2   4 -10 68.7503 9.30341   6
   2   4  10 87.0179 8.14577   5
  -2   4 -10 82.0637 9.61315   1
  -2   4 -10 70.5177 7.53129   9
   2   4  10 79.3141 9.94499   9
  -2   4 -10 65.0549 8.03578   7
  -2   4 -10 91.2453 8.92951  10
   2   4  10 78.7823 8.19835   1
  -3  -4 -10 127.245 13.5931   4
   3  -4  10 119.038 11.7609   7
  -3  -4 -10 107.592 12.3800   1
   3  -4  10 120.015 11.5240   5
  -3   4 -10 87.9131 11.8498   1
  -3   4 -10 103.901 12.3116   6
  -3   4 -10 103.217 11.3164   7
   3   4  10 120.051 11.3891   1
  -3   4 -10 105.987 10.7705   9
   3   4  10 119.050 13.3419   9
   3   4  10 110.344 11.1674   7
   3   4  10 110.439 10.8757   5
   4  -4  10 21.1079 4.20065   5
   4  -4  10 33.0389 4.87726   1
  -4  -4 -10 33.3513 6.50695   4
   4  -4  10 32.5838 4.91690   7
   4   4  10 33.9659 6.07525   9
  -4   4 -10 28.2624 4.75168   7
  -4   4 -10 34.6638 4.23191   9
   4   4  10 32.5563 4.77144   1
   4   4  10 33.2119 4.41435   7
  -4   4 -10 23.7423 5.06863   1
   5  -4  10 34.7380 5.17470   5
   5  -4  10 41.3134 5.68499   1
   5  -4  10 25.3592 5.00720   7
  -5  -4 -10 35.9277 6.95878   4
  -5   4 -10 31.8054 5.57896   1
   5   4  10 36.5011 4.47760   5
   5   4  10 34.6171 5.29157   1
   5   4  10 38.2836 5.42846   9
  -5   4 -10 42.9431 4.95686   9
  -5   4 -10 44.0464 5.74855   7
   5   4  10 33.2919 4.63812   7
   6  -4  10 41.7993 6.13513   7
   6  -4  10 43.9123 7.06343   9
  -6  -4 -10 38.1742 7.59587   4
   6  -4  10 41.6459 6.15103   1
   6  -4  10 35.8758 5.65037   5
   6   4  10 47.4266 6.36255   1
   6   4  10 41.2720 5.23835   7
  -6   4 -10 39.5457 6.44256   1
  -6   4 -10 46.2184 5.48701   9
   6   4  10 46.3406 5.14883   5
  -6   4 -10 44.9648 6.72071   4
   6   4  10 45.6823 5.52236  10
  -6   4 -10 60.4599 6.75642   7
  -7  -4 -10 195.579 18.8063   7
   7  -4  10 178.045 17.2147   5
   7  -4  10 158.901 17.4584   7
   7  -4  10 202.856 17.8632   1
  -7  -4 -10 176.498 20.4351   4
  -7   4 -10 148.751 17.5035   7
   7   4  10 202.630 16.5845   5
   7   4  10 182.061 17.7693   1
  -7   4 -10 170.975 17.7585   1
   8  -4  10 27.2835 4.28069   5
  -8  -4 -10 24.7512 6.36627   4
   8  -4  10 31.1584 5.02871   1
  -8  -4 -10 37.9016 6.18824   7
   8  -4  10 26.7679 4.51874   7
   8   4  10 27.4521 4.99492   1
  -8   4 -10 18.7403 4.08389   7
   9  -4  10 47.5899 6.17042   7
   9  -4  10 46.5060 6.59849   1
  -9  -4 -10 48.2355 7.29820   7
   9  -4  10 38.6199 5.51395   5
  -9  -4 -10 41.5390 8.36546   4
  -9   4 -10 46.7817 6.46133   7
   9   4  10 55.8606 6.88700   1
 -10  -4 -10 21.5450 4.49975   7
 -10  -4 -10 17.4616 5.35530   4
  10  -4  10 7.66389 2.58895   5
  10  -4  10 23.3888 4.43723   1
  10   4  10 12.9883 3.59610   1
 -10   4 -10 12.1587 3.45505   7
  10   4  10 19.2232 4.00197   1
  10  -5 -10 58.9324 8.81481   1
  -9  -5  10 333.256 26.8938   8
   9  -5 -10 249.432 28.9703   1
   8  -5 -10 170.035 17.8401   6
  -8  -5  10 169.910 15.1418   8
  -8   5  10 156.911 17.0957   7
   7  -5 -10 1.45629 3.03412   1
  -7  -5  10 3.21967 1.41829   8
   7  -5 -10 2.46525 3.59439   4
   7  -5 -10 2.78051 3.06754   6
   7   5 -10 3.90949 1.04766   6
  -7   5  10 1.44735 2.42496   7
   6  -5 -10 229.778 23.3423   4
   6  -5 -10 219.455 20.3807   1
   6  -5 -10 161.474 20.3804   6
  -6  -5  10 222.661 18.7813   8
   6   5 -10 196.290 19.0827   6
  -6   5  10 214.849 20.2352   7
   5  -5 -10 558.863 54.2778  10
   5  -5 -10 552.600 54.3522  10
   5  -5 -10 534.103 51.5557   6
   5  -5 -10 543.351 55.0816   4
   5  -5 -10 517.532 50.1091   1
   5   5 -10 562.507 50.3519   6
  -5   5  10 585.373 50.3003   7
   4  -5 -10 335.046 37.5731  10
   4  -5 -10 299.743 34.2762   1
   4  -5 -10 376.338 35.6075   6
   4  -5 -10 426.786 38.9022   4
   4  -5 -10 364.106 34.2395   9
   4   5 -10 378.687 34.5501   6
   4   5 -10 397.165 33.9396   1
  -4   5  10 412.032 34.2195   5
  -4   5  10 388.066 34.5422   7
   3  -5 -10 16.6765 5.59354   4
   3  -5 -10 25.1461 4.82523   1
   3  -5 -10 23.8532 4.81632   6
   3  -5 -10 25.7797 3.24217   9
   3   5 -10 29.2084 4.39914   6
  -3   5  10 22.2737 4.16545   7
  -3   5  10 35.5111 4.68460   5
   3   5 -10 31.1328 4.71736   1
   2  -5 -10 289.706 31.8333   4
   2  -5 -10 317.436 28.7516   1
   2  -5 -10 296.937 29.3961   6
   2  -5 -10 325.670 28.4082   9
  -2   5  10 322.761 27.9807   5
  -2   5  10 301.369 28.1711   7
   2   5 -10 311.119 28.8452   6
   2   5 -10 285.679 28.2230   1
  -2   5  10 272.577 27.7529   1
  -1  -5  10 620.775 58.2275   7
   1  -5 -10 684.596 59.3874   9
  -1   5  10 703.985 57.3366   5
  -1   5  10 649.718 57.4259   1
   1   5 -10 678.074 57.9783   1
   1   5 -10 571.979 59.0435   6
  -1   5  10 579.302 57.7159   7
   0  -5 -10 714.968 61.0751   1
   0  -5  10 696.784 61.2676   7
   0  -5 -10 750.749 62.5888   9
   0  -5 -10 604.465 65.1884   4
   0   5 -10 616.175 60.7255   1
   0   5  10 698.348 60.7969   7
   0   5 -10 687.951 62.3864   6
   0   5  10 665.712 60.4384   1
   0   5  10 670.406 60.1577   5
   0   5  10 635.554 63.4651   9
  -1  -5 -10 155.969 16.0074   4
  -1  -5 -10 148.770 14.8562   1
   1  -5  10 147.856 14.8487   7
  -1  -5 -10 159.596 14.6128   9
   1   5  10 140.078 14.1268   5
  -1   5 -10 139.562 16.0561   3
  -1   5 -10 141.197 15.0914   6
  -1   5 -10 137.258 14.7649  10
   1   5  10 131.472 15.4523   9
   1   5  10 145.042 14.3121   7
  -1   5 -10 167.582 15.0694   1
  -1   5 -10 141.823 14.7880  10
  -2  -5 -10 170.898 16.0697   4
   2  -5  10 115.193 14.4420   7
  -2  -5 -10 140.952 14.9977   1
   2  -5  10 146.865 14.5379   5
   2   5  10 130.490 13.9647   5
  -2   5 -10 137.903 13.5836   9
   2   5  10 149.316 15.5259   9
  -2   5 -10 150.838 15.1769   6
  -2   5 -10 158.257 14.1087   7
   2   5  10 154.457 14.4536   1
  -2   5 -10 168.583 16.5942   3
  -2   5 -10 128.511 14.9735  10
  -2   5 -10 137.927 14.6757   1
   2   5  10 153.666 14.2915   7
   3  -5  10 321.220 33.7752   7
   3  -5  10 309.524 33.3117   5
  -3  -5 -10 366.104 36.3211   4
   3   5  10 441.247 35.5585   9
  -3   5 -10 364.380 33.8410   1
  -3   5 -10 330.076 33.8752   9
   3   5  10 357.887 33.5213   1
   3   5  10 365.574 33.0542   5
  -3   5 -10 354.216 34.6436   6
  -3   5 -10 393.160 33.5979   7
   3   5  10 436.426 33.6792   7
   4  -5  10 621.101 61.5933   5
  -4  -5 -10 734.455 66.9649   4
   4  -5  10 588.189 62.2588   7
  -4   5 -10 754.375 62.2779   7
   4   5  10 729.434 61.2095   5
   4   5  10 683.676 61.8316   7
  -4   5 -10 745.906 62.2141   1
   4   5  10 671.272 61.8810   1
   5  -5  10 113.317 12.4512   1
  -5  -5 -10 106.003 13.5607   4
   5  -5  10 112.346 12.2055   5
   5  -5  10 103.727 12.3194   7
   5   5  10 122.413 11.8550   7
   5   5  10 120.902 12.6290  10
  -5   5 -10 110.294 12.3957   1
   5   5  10 146.039 12.7806   1
  -5   5 -10 134.379 12.5123   7
   5   5  10 129.733 11.6188   5
   6  -5  10 22.4719 4.33980   5
  -6  -5 -10 29.1727 5.98682   4
   6  -5  10 25.4257 4.77606   1
   6  -5  10 25.5104 4.51478   7
  -6   5 -10 20.8524 4.32971   1
  -6   5 -10 27.5057 4.58925   7
   6   5  10 27.6102 4.74067   1
   6   5  10 28.3986 3.69106   5
   7  -5  10 167.102 19.5283   5
   7  -5  10 204.760 20.1985   1
  -7  -5 -10 229.119 22.7396   4
   7  -5  10 188.166 20.0732   7
   7   5  10 229.919 18.9904   5
   7   5  10 255.626 20.5913   1
  -7   5 -10 194.965 20.0022   7
  -7   5 -10 204.620 19.9321   1
   8  -5  10 504.323 41.8428   1
   8  -5  10 453.247 41.0024   5
  -8  -5 -10 498.571 45.8183   4
   8  -5  10 401.969 41.5038   7
   8   5  10 481.977 41.8726   1
  -8   5 -10 404.335 41.4515   7
   9  -5  10 14.0997 3.40973   7
   9  -5  10 9.59666 2.74034   5
  -9  -5 -10 9.11527 4.29508   4
   9  -5  10 11.9035 3.56256   1
  -9   5 -10 14.8757 3.40720   7
   9   5  10 10.7948 3.82112   1
 -10  -5 -10 6.24558 3.98501   4
  10  -5  10 5.17765 2.31700   5
  10  -5  10 5.81240 3.23882   1
  10   5  10 2.99068 3.07361   1
   9  -6 -10 -1.0843 2.58676   1
  -9   6  10 6.04895 3.17433   7
   8  -6 -10 52.7268 7.26932   1
  -8   6  10 38.2381 6.62111   7
   7  -6 -10 187.314 20.3608   4
   7  -6 -10 169.044 17.8483   1
   7  -6 -10 178.816 18.3109   6
  -7   6  10 193.443 18.2879   7
   7   6 -10 175.524 16.3819   6
   6  -6 -10 712.779 59.9734   1
   6  -6 -10 660.158 61.5233   6
   6  -6 -10 630.186 65.5729   4
   6   6 -10 650.322 59.9786   6
   5  -6 -10 35.0740 5.34296   6
   5  -6 -10 31.3826 5.13467   1
   5  -6 -10 31.4180 6.97866   4
   5   6 -10 30.2679 3.76403   6
  -5   6  10 34.7153 5.54015   7
   4  -6 -10 14.0890 5.41892   4
   4  -6 -10 19.4164 3.93268   1
   4   6 -10 18.4863 2.92855   6
   4   6 -10 25.6830 3.37054   1
  -4   6  10 19.5770 3.94631   5
  -4   6  10 20.3105 3.97967   7
   3  -6 -10 190.200 17.1109   1
   3  -6 -10 165.944 19.4826   4
   3   6 -10 176.621 16.5926   6
  -3   6  10 182.976 17.0778   7
  -3   6  10 165.364 16.7368   5
   3   6 -10 157.300 16.1651   1
   2  -6 -10 733.647 65.4302   1
   2  -6 -10 664.422 67.3699   9
  -2   6  10 753.526 65.2425   5
   2   6 -10 755.021 66.8284   6
   2   6 -10 759.530 65.1499   1
  -2   6  10 696.978 65.8006   7
  -2   6  10 759.052 65.2705   1
   1  -6 -10 240.914 21.2026   9
   1  -6 -10 229.151 22.7942   4
   1  -6 -10 204.693 20.6873   1
  -1  -6  10 201.991 21.2981   7
   1   6 -10 224.314 21.0431   6
  -1   6  10 233.729 20.9606   7
  -1   6  10 237.389 20.6948   5
  -1   6  10 203.085 20.5152   1
   1   6 -10 189.751 20.3947   1
   0  -6 -10 29.8998 4.39151   9
   0  -6 -10 23.8082 4.82681   4
   0  -6 -10 25.0399 4.37718   1
   0  -6  10 26.3154 5.09492   7
   0   6  10 29.0382 4.47775   5
   0   6 -10 26.9388 4.36581   6
   0   6  10 26.3480 4.40831   7
   0   6  10 22.3977 4.42778   1
   0   6  10 33.6500 5.51640   9
   0   6 -10 30.8911 4.52456   1
   1  -6  10 42.0130 6.95978   7
  -1  -6 -10 45.2337 6.21356   1
  -1  -6 -10 62.9232 7.35459   4
   1   6  10 66.2037 7.51966   9
   1   6  10 62.2399 6.95550   1
   1   6  10 53.1064 6.30461   5
  -1   6 -10 49.5616 5.55957  10
  -1   6 -10 64.0517 6.83757   1
   1   6  10 57.8197 6.61820   7
  -1   6 -10 41.6691 6.34089   3
  -1   6 -10 50.6815 5.64364  10
  -1   6 -10 47.6008 6.46526   6
  -2  -6 -10 348.663 35.0663   4
  -2  -6 -10 363.116 32.7128   1
   2  -6  10 341.237 33.2664   7
  -2   6 -10 306.482 33.2477   6
  -2   6 -10 340.080 35.1494  10
  -2   6 -10 396.410 32.4501   7
   2   6  10 358.196 32.9659   1
   2   6  10 396.093 32.8022   7
   2   6  10 309.341 32.0885   5
  -2   6 -10 391.690 32.7677   1
  -2   6 -10 362.030 37.6076   3
   3  -6  10 365.149 37.1662   7
  -3  -6 -10 376.863 39.2351   4
  -3   6 -10 378.418 37.5250   6
   3   6  10 427.511 36.7097   7
  -3   6 -10 417.552 36.7632   1
   3   6  10 470.180 37.1877   1
  -3   6 -10 435.472 36.6206   7
   3   6  10 398.817 36.1575   5
  -3   6 -10 353.252 42.3941   3
   4  -6  10 80.3394 11.0887   7
  -4  -6 -10 109.919 11.8827   4
   4  -6  10 91.6611 11.0867   5
   4   6  10 91.6415 11.1025   1
  -4   6 -10 116.359 12.8712   3
   4   6  10 118.755 10.5094   5
  -4   6 -10 94.5052 10.7970   1
  -4   6 -10 126.761 11.0148   7
   4   6  10 106.095 10.6716   7
  -5  -6 -10 1.11351 2.34854   4
   5  -6  10 -1.1587 2.09756   7
   5  -6  10 2.75432 2.52288   5
  -5   6 -10 3.73210 2.29501   7
  -5   6 -10 2.80083 2.02981   1
   5   6  10 1.86996 2.37146   1
   5   6  10 3.46849 1.79327   5
  -5   6 -10 2.61762 2.67303   3
  -6  -6 -10 45.3416 7.23805   4
   6  -6  10 36.8288 6.21319   5
   6  -6  10 38.9367 6.49000   7
   6  -6  10 51.7680 7.01882   1
  -6   6 -10 66.9374 8.41854   3
  -6   6 -10 41.9646 5.95276   1
   6   6  10 56.8349 5.58216   5
   6   6  10 55.3604 6.92103   1
  -6   6 -10 45.1146 6.26931   7
  -7  -6 -10 297.172 31.9000   4
   7  -6  10 301.946 29.6406   7
   7  -6  10 343.020 29.9714   1
   7  -6  10 252.429 28.9355   5
  -7   6 -10 378.521 29.6642   7
  -7   6 -10 315.168 29.0972   1
   7   6  10 331.679 29.5908   1
   8  -6  10 179.336 18.2035   7
  -8  -6 -10 229.361 20.4541   4
   8  -6  10 151.466 17.5073   5
   8  -6  10 162.713 18.1230   1
  -8   6 -10 213.516 18.1101   7
   8   6  10 181.304 18.1955   1
   9  -6  10 3.86636 2.53384   7
  -9  -6 -10 1.41452 3.14574   4
   9  -6  10 1.16124 2.55812   1
   9  -6  10 0.41186 1.99324   5
  -9   6 -10 2.63151 2.23205   7
   9   6  10 5.90876 3.23658   1
   8  -7 -10 118.046 13.1552   1
  -8   7  10 125.413 13.5028   7
   7  -7 -10 77.8281 8.23759   1
   7  -7 -10 53.3767 9.28626   4
   7   7 -10 59.4293 5.86094   6
  -7   7  10 55.5248 8.17093   7
   6  -7 -10 299.789 33.3082   4
   6  -7 -10 345.043 29.9696   1
   6   7 -10 311.357 29.1012   6
  -6   7  10 324.326 30.3636   7
   5  -7 -10 10.1793 4.67099   4
   5  -7 -10 20.5089 3.95265   1
   5  -7 -10 16.7652 4.45316   7
  -5   7  10 14.2424 3.83054   5
   5   7 -10 17.0956 2.36463   6
  -5   7  10 15.2744 4.06755   7
   4  -7 -10 133.790 18.0771   4
   4  -7 -10 173.005 15.8189   1
  -4   7  10 162.090 15.9838   5
   4   7 -10 171.696 14.8101   1
   4   7 -10 146.958 15.0517   6
  -4   7  10 170.330 16.3835   7
   3  -7 -10 56.3814 9.52460   4
   3  -7 -10 92.5698 8.68217   1
   3   7 -10 70.3034 7.77404   6
   3   7 -10 82.1141 7.83093   1
  -3   7  10 73.8672 8.69524   5
  -3   7  10 91.5936 9.38366   7
   2  -7 -10 443.340 39.6174   4
   2  -7 -10 422.344 36.1523   1
  -2   7  10 386.144 36.2459   1
  -2   7  10 364.914 36.5887   7
   2   7 -10 400.654 35.6847   1
   2   7 -10 387.996 36.5274   6
  -2   7  10 378.587 36.1424   5
   1  -7 -10 65.8743 7.38817   1
  -1  -7  10 57.7676 7.92415   7
   1  -7 -10 65.0147 8.45866   4
   1   7 -10 73.3327 7.15487   6
  -1   7  10 60.0880 7.50448   5
  -1   7  10 61.5743 7.56917   1
  -1   7  10 62.1023 7.77785   7
   1   7 -10 62.0543 6.96404   1
   0  -7 -10 288.241 27.7201   4
   0  -7 -10 263.810 25.3992   1
   0  -7  10 286.287 26.5492   7
   0   7  10 279.836 25.8972   7
   0   7 -10 251.934 25.2324   1
   0   7  10 293.588 25.9189   1
   0   7  10 278.921 25.5592   5
   0   7 -10 268.835 25.8732   6
  -1  -7 -10 167.532 17.8132   4
   1  -7  10 150.969 17.5027   7
  -1  -7 -10 180.193 16.4825   1
  -1   7 -10 162.902 16.7322   6
   1   7  10 168.389 16.9969   1
   1   7  10 189.579 16.9960   7
   1   7  10 183.110 16.6512   5
  -1   7 -10 171.517 16.4454   1
   2  -7  10 444.591 39.4911   7
  -2  -7 -10 469.349 41.0684   4
  -2   7 -10 374.571 37.9737   1
  -2   7 -10 400.723 41.3344  10
   2   7  10 389.223 37.8705   5
   2   7  10 480.675 39.0274   1
  -2   7 -10 381.074 43.9231   3
   2   7  10 465.216 38.6374   7
  -2   7 -10 415.158 39.0827   6
   3  -7  10 94.6376 11.5276   7
  -3  -7 -10 94.7118 11.3252   4
   3   7  10 120.684 10.8979   7
  -3   7 -10 89.5272 10.6416   6
  -3   7 -10 106.826 10.6168   1
   3   7  10 137.250 12.0735   1
   3   7  10 109.061 10.4618   5
  -3   7 -10 89.7364 11.8856   3
  -4  -7 -10 270.028 26.8120   4
   4  -7  10 282.408 26.1072   7
   4   7  10 287.173 24.6696   5
   4   7  10 310.045 25.9343   1
  -4   7 -10 226.418 28.8184   3
  -4   7 -10 253.656 24.7859   1
   5  -7  10 181.016 18.7116   7
   5  -7  10 150.694 18.1108   5
  -5  -7 -10 174.616 19.0450   4
   5   7  10 198.837 17.4055   5
  -5   7 -10 213.193 18.0005   7
  -5   7 -10 186.200 21.0360   3
   5   7  10 190.634 18.5050   1
   6  -7  10 311.824 27.9202   5
   6  -7  10 276.629 28.1527   7
  -6  -7 -10 280.233 29.4463   4
   6   7  10 287.455 27.8116   1
  -6   7 -10 318.824 27.2825   1
  -7  -7 -10 61.3044 8.23828   4
   7  -7  10 55.0734 7.89833   7
  -7   7 -10 62.4380 7.23634   1
   7   7  10 60.1272 7.96709   1
  -7   7 -10 69.6946 7.63912   7
  -8  -7 -10 204.579 21.0594   4
   8  -7  10 217.153 20.0624   1
   8  -7  10 156.631 19.3757   7
  -8   7 -10 232.737 19.4431   7
   8   7  10 193.393 19.4887   1
   7  -8 -10 16.6121 3.78915   1
  -7  -8  10 10.8453 2.27957   8
  -7   8  10 15.0468 4.30786   7
   6  -8 -10 179.233 23.2129   4
   6  -8 -10 246.959 20.8906   1
  -6   8  10 235.195 21.4365   5
  -6   8  10 198.450 21.3120   7
   5  -8 -10 1.44009 2.74458   7
   5  -8 -10 4.21581 2.27248   1
   5  -8 -10 1.94014 3.20995   4
  -5   8  10 6.88435 2.81270   7
  -5   8  10 2.34561 2.54493   5
   4  -8 -10 29.2625 5.95278   4
   4  -8 -10 37.6805 5.03077   1
   4   8 -10 33.5790 3.88429   6
  -4   8  10 34.4408 5.70841   5
  -4   8  10 36.6206 5.71811   7
   3  -8 -10 12.4542 3.85127   4
   3  -8 -10 7.90864 2.49472   1
  -3   8  10 11.5184 3.42315   5
   3   8 -10 10.2059 1.93898   6
  -3   8  10 13.2093 3.51066   7
   3   8 -10 12.9045 2.20476   1
   2  -8 -10 239.810 23.1057   1
  -2   8  10 269.076 23.8359   1
  -2   8  10 239.062 23.5283   5
  -2   8  10 230.958 23.8471   7
   2   8 -10 239.507 23.1237   6
   2   8 -10 275.368 22.7077   1
   1  -8 -10 8.85625 2.64506   1
   1  -8 -10 6.80984 2.84590   4
  -1  -8  10 4.32193 2.42090   8
   1   8 -10 4.36729 1.78541   1
  -1   8  10 8.67014 2.99355   7
   1   8 -10 4.04269 1.70091   6
  -1   8  10 5.03946 2.68554   1
  -1   8  10 7.20529 2.69870   5
   0  -8 -10 143.554 14.9411   4
   0  -8 -10 132.839 13.5669   1
   0   8  10 153.089 14.4636   1
   0   8 -10 148.248 13.6985   6
   0   8  10 117.254 13.8086   5
   0   8  10 146.024 14.4705   7
   0   8 -10 142.933 13.3808   1
  -1  -8 -10 4.26856 2.24006   4
   1  -8  10 5.83277 3.24150   7
  -1   8 -10 4.87068 1.91639   6
   1   8  10 4.51402 2.77857   1
  -1   8 -10 4.75276 1.94092   1
   1   8  10 4.30261 2.32810   5
   1   8  10 7.25747 2.83646   7
   2  -8  10 200.760 20.3531   7
  -2  -8 -10 199.722 20.4040   4
  -2   8 -10 181.696 18.7269   1
   2   8  10 217.656 20.0563   1
  -2   8 -10 210.691 19.3017   6
   2   8  10 220.787 19.6407   7
   2   8  10 188.919 19.0330   5
   3  -8  10 85.7970 10.0703   7
  -3  -8 -10 84.6065 8.90255   4
  -3   8 -10 59.4576 8.81979   3
   3   8  10 73.5568 9.32188   1
  -3   8 -10 85.1238 8.20402   1
   3   8  10 81.2593 8.37284   5
  -4  -8 -10 197.496 20.5361   4
   4  -8  10 175.437 20.2515   7
  -4   8 -10 196.138 18.9683   1
   4   8  10 222.358 20.2151   1
   4   8  10 219.758 19.0372   5
   5  -8  10 2.68355 2.85967   7
  -5  -8 -10 2.95893 2.28403   4
   5  -8  10 2.69913 3.10133   5
   5   8  10 0.91671 2.00059   5
  -5   8 -10 0.03978 1.85574   7
  -5   8 -10 2.20178 1.95773   1
   5   8  10 -0.4910 2.67688   1
   6  -8  10 86.1977 10.8398   5
   6  -8  10 88.0640 11.2792   7
  -6  -8 -10 109.741 11.0783   4
  -6   8 -10 90.8914 9.89076   1
  -6   8 -10 111.752 10.3180   7
   6   8  10 89.1179 10.8433   1
   7  -8  10 143.570 17.5010   7
  -7  -8 -10 189.101 18.1711   4
  -7   8 -10 203.350 16.9875   7
  -7   8 -10 179.128 16.5620   1
   7   8  10 143.885 17.0376   1
  -6  -9  10 296.594 28.4546   8
   6  -9 -10 338.687 29.6337   1
   6  -9 -10 318.823 32.2883   4
  -6   9  10 334.418 30.2875   5
   5  -9 -10 6.61720 2.49195   1
  -5  -9  10 8.79184 2.08564   8
   5  -9 -10 10.7990 3.70234   4
   5  -9 -10 8.70000 3.40044   7
  -5   9  10 5.51786 3.14159   7
  -5   9  10 10.1825 3.51380   5
   4  -9 -10 144.222 16.0286   4
  -4  -9  10 135.099 13.8721   8
   4  -9 -10 164.593 14.4801   1
  -4   9  10 151.033 15.4265   7
  -4   9  10 143.819 15.1494   5
   3  -9 -10 350.385 32.7119   4
   3  -9 -10 341.624 29.9109   1
  -3  -9  10 308.240 29.5737   8
  -3   9  10 327.285 30.5361   5
   3   9 -10 343.475 29.2155   1
  -3   9  10 283.928 30.6609   7
  -2  -9  10 412.591 44.2956   8
   2  -9 -10 539.149 44.7744   1
   2  -9 -10 506.554 48.2504   4
  -2   9  10 471.902 45.1038   5
   2   9 -10 508.030 44.1388   1
  -2   9  10 549.827 45.6369   1
  -2   9  10 500.661 45.7118   7
   1  -9 -10 9.31755 2.83563   4
  -1   9  10 9.96419 3.21600   7
  -1   9  10 7.18693 2.83637   5
   1   9 -10 7.06325 1.95096   1
  -1   9  10 6.08124 3.27805   1
   1   9 -10 6.73522 1.73930   6
   0  -9  10 145.687 17.9351   7
   0  -9 -10 178.884 18.9674   4
   0   9  10 203.232 18.5874   1
   0   9 -10 195.230 17.6640   6
   0   9  10 188.471 18.0371   5
   0   9 -10 188.364 17.2454   1
   0   9  10 204.418 18.5634   7
   1  -9  10 380.774 37.4806   7
  -1  -9 -10 384.300 39.2392   4
  -1   9 -10 375.148 37.1628   6
   1   9  10 373.876 36.6838   5
   1   9  10 479.685 37.7301   1
  -1   9 -10 384.003 36.2398   1
   1   9  10 479.816 37.6204   7
   2  -9  10 419.626 44.5204   7
  -2  -9 -10 518.885 46.8165   4
   2   9  10 441.396 43.5438   5
  -2   9 -10 552.178 44.6399   6
  -2   9 -10 479.926 43.3333   1
   2   9  10 480.049 44.4154   1
   3  -9  10 8.50958 3.58113   7
  -3  -9 -10 7.09529 2.45060   4
  -3   9 -10 5.90921 2.10554   1
   3   9  10 7.12431 2.58531   5
   3   9  10 8.91349 3.49154   1
  -4  -9 -10 171.415 16.8669   4
   4  -9  10 154.935 17.1986   7
   4   9  10 166.197 15.6289   5
   4   9  10 167.949 16.7871   1
  -4   9 -10 158.278 15.5340   1
  -5  -9 -10 412.602 38.7607   4
   5  -9  10 400.145 37.7101   7
   5   9  10 352.394 36.7107   1
  -5   9 -10 421.182 35.9761   1
   6  -9  10 378.409 41.8449   5
  -6  -9 -10 503.740 44.4651   4
   6   9  10 474.267 42.0345   1
  -6   9 -10 463.327 41.1102   1
   4 -10 -10 5.10158 2.75553   4
   4 -10 -10 6.02932 2.26733   1
  -4 -10  10 8.05179 1.85135   8
  -4  10  10 5.21992 3.05786   5
   3 -10 -10 1.08326 2.16016   4
   3 -10 -10 2.98154 1.97186   1
  -3 -10  10 3.26160 1.66003   8
   3  10 -10 0.89014 1.24923   1
  -3  10  10 1.35268 2.68127   7
  -3  10  10 3.30371 2.83862   5
   2 -10 -10 1.08395 2.18105   4
  -2  10  10 1.17032 2.57581   7
  -2  10  10 3.46625 3.05924   1
   2  10 -10 3.64198 1.56978   1
  -2  10  10 0.31884 2.39257   5
   1 -10 -10 0.37992 1.90184   4
  -1  10  10 2.42852 2.42763   5
   1  10 -10 1.56019 1.46219   1
  -1  10  10 2.84192 2.70363   7
  -1  10  10 0.88932 2.57676   1
   0 -10 -10 6.59876 2.42629   4
   0  10  10 6.08309 3.02059   7
   0  10  10 1.15654 2.26397   5
   0  10 -10 5.66789 1.84387   1
   0  10  10 7.98796 3.32683   1
   1 -10  10 0.11256 2.22514   7
  -1 -10 -10 0.16973 1.92740   4
   1  10  10 2.20774 2.23171   5
  -1  10 -10 1.04124 1.63961   1
   1  10  10 -4.3307 2.49608   1
   2 -10  10 1.18602 2.24960   7
  -2 -10 -10 2.82567 2.19878   4
  -2  10 -10 1.72220 1.75005   1
   2  10  10 1.99117 2.16530   5
   2  10  10 4.57607 3.14813   1
   3 -10  10 9.05504 3.68222   7
  -3 -10 -10 7.68641 2.50807   4
   3  10  10 6.39877 2.43537   5
   3  10  10 9.91890 3.62530   1
  -3  10 -10 8.06184 2.20177   1
  -4 -10 -10 7.72509 2.69251   4
  -4  10 -10 6.28782 2.32731   1
   4  10  10 6.25859 3.46780   1
 -11   0  11 0.73911 1.41311   8
 -10   0  11 2.88949 1.53454   8
   9   0 -11 1.52309 1.98078   6
  -9   0  11 1.32271 1.41552   8
   8   0 -11 -0.6201 1.80359   6
  -8   0  11 2.05527 1.53751   8
  -7   0  11 3.90801 1.73389   8
   7   0 -11 5.76283 2.25568   6
   7   0 -11 4.50155 2.39381   1
  -6   0  11 1.49470 1.79416   8
   6   0 -11 3.57978 2.25348   1
   6   0 -11 4.18355 2.13367   6
   5   0 -11 5.90578 2.45106   1
   5   0 -11 2.96659 2.15285   6
  -5   0  11 -0.0472 1.84345   8
  -4   0  11 1.21027 1.65874   7
   4   0 -11 2.10116 2.08681   1
   4   0 -11 1.07952 1.94416   6
  -4   0  11 1.84310 2.11998   8
  -3   0  11 3.20462 1.79317   7
   3   0 -11 3.87158 2.21889   6
   3   0 -11 1.83658 2.25157   1
  -3   0  11 0.39642 2.06847   8
   3   0 -11 -0.5664 1.64614   4
   2   0 -11 2.02097 2.23044   1
  -2   0  11 0.33994 2.40499   8
  -2   0  11 2.74401 1.63850   7
   2   0 -11 3.89915 1.81334   4
   2   0 -11 3.96646 1.21189  10
   2   0 -11 15.8950 3.30496   6
   2   0 -11 3.62875 1.20380  10
  -1   0  11 4.55745 1.81266   7
   1   0 -11 0.72325 2.17623   6
   1   0 -11 1.46906 1.10036  10
   1   0 -11 3.22163 1.96908  10
   1   0 -11 3.70895 2.05370   4
   1   0 -11 7.02142 2.69168   1
  -1   0  11 1.35894 2.71686   8
   0   0 -11 2.93372 1.39958  10
   0   0  11 3.66731 1.75122   5
   0   0 -11 2.90459 1.02028   9
   0   0 -11 3.97555 2.44042   1
   0   0 -11 2.84089 2.39566   6
   0   0 -11 3.14622 2.48120   4
   0   0  11 5.13888 3.49180   8
   0   0 -11 3.12374 3.22280  10
   0   0  11 5.28472 1.99048   7
   1   0  11 0.87119 1.49447   5
  -1   0 -11 12.0542 3.80853   4
  -1   0 -11 1.11998 2.58065   6
   1   0  11 1.52733 1.76333   1
  -1   0 -11 0.79583 1.05302   9
   1   0  11 8.84933 1.93250   2
   1   0  11 0.81548 1.51855   1
   1   0  11 2.13477 1.58371   7
  -1   0 -11 4.57752 4.11681  10
  -1   0 -11 6.21735 2.76879   1
   2   0  11 1.59684 1.51875   1
  -2   0 -11 0.74901 1.23086   9
  -2   0 -11 1.68747 3.06343   4
   2   0  11 4.64066 1.83042   5
   2   0  11 0.50415 1.58536   7
  -2   0 -11 4.30414 3.17474   1
  -2   0 -11 6.19551 3.31307   7
   2   0  11 -0.4503 1.57383   2
   2   0  11 3.13130 1.82746   1
  -2   0 -11 0.74404 2.68119   6
   3   0  11 -3.7706 4.09156   9
   3   0  11 1.78533 1.71826   5
  -3   0 -11 3.33280 3.30955   1
  -3   0 -11 -1.2441 2.65910   7
   3   0  11 3.23296 1.85858   1
  -3   0 -11 -0.1084 1.22163   9
   3   0  11 2.15389 1.62686   1
  -3   0 -11 0.80193 3.67834   4
   3   0  11 2.38168 1.73784   7
  -4   0 -11 1.18751 3.41034   1
   4   0  11 2.18938 1.66848   7
   4   0  11 0.48710 1.47564   5
   4   0  11 1.02228 1.76034   1
  -4   0 -11 3.07324 4.18698   4
  -4   0 -11 0.64662 1.34569   9
   4   0  11 -0.0860 1.67399   1
  -4   0 -11 0.62813 3.02930   7
   4   0  11 2.86255 3.96537   9
   5   0  11 1.26186 1.82316   1
   5   0  11 2.35955 1.96194   1
   5   0  11 3.25823 3.55879   9
  -5   0 -11 -1.0294 3.26617   4
  -5   0 -11 4.56108 3.54647   1
  -5   0 -11 -0.2857 3.22633   7
   5   0  11 0.17296 1.44080   5
   5   0  11 -0.4272 1.50030   7
   6   0  11 1.52260 1.64370   5
   6   0  11 1.16483 1.89202   1
  -6   0 -11 3.89486 3.84828   1
   6   0  11 0.77367 1.65048   7
  -6   0 -11 3.06120 4.19071   4
   6   0  11 -6.7320 3.09212   9
  -6   0 -11 0.90243 3.45763   7
  -7   0 -11 4.92776 4.85652   4
   7   0  11 1.01980 2.05636   1
  -7   0 -11 -0.9260 3.18352   7
   7   0  11 0.14337 1.60446   7
   7   0  11 0.60967 1.59601   5
   8   0  11 1.97458 1.65902   5
  -8   0 -11 -0.1790 4.40847   4
   8   0  11 -0.8628 1.82981   1
   8   0  11 3.19306 1.98979   7
  -8   0 -11 0.70333 3.15901   7
  -9   0 -11 -0.8875 3.16517   7
  -9   0 -11 1.49400 3.88866   4
   9   0  11 2.79891 2.56221   1
   9   0  11 0.54761 1.68076   5
  10   0  11 -0.6623 2.16491   1
  10   0  11 -0.4976 1.57292   5
 -10   0 -11 -0.7799 2.84429   7
 -10   0 -11 -2.2893 3.41884   4
 -11   0 -11 -2.0716 3.20292   4
 -11   0 -11 0.08445 2.64407   7
  11   0  11 0.22829 2.41395   1
 -11  -1  11 2.11373 1.27175   8
 -11   1  11 2.65538 1.85767   8
 -10  -1  11 1144.22 106.099   8
 -10   1  11 1287.76 106.768   8
   9  -1 -11 132.685 14.1447   1
   9  -1 -11 136.588 14.1407   6
  -9  -1  11 140.337 12.7836   8
  -9   1  11 141.831 13.4583   8
   9   1 -11 138.642 13.3772   6
   8  -1 -11 230.206 21.1291   1
   8  -1 -11 186.867 21.3065   6
  -8  -1  11 222.579 19.9573   8
  -8   1  11 225.999 20.6173   8
   8   1 -11 237.225 20.8781   6
  -7  -1  11 7.68642 2.12000   8
   7  -1 -11 14.6415 3.56826   1
   7  -1 -11 12.7176 3.28622   6
  -7   1  11 12.1283 2.87158   8
   7   1 -11 14.1204 2.64339   6
   6  -1 -11 2139.39 195.450   1
   6  -1 -11 1961.25 200.637   6
  -6  -1  11 2147.80 194.105   8
   6  -1 -11 2368.56 210.076   4
   6   1 -11 2304.32 194.869   1
  -6   1  11 2490.41 194.654   8
   6   1 -11 2139.79 200.214   6
  -5  -1  11 189.056 17.7909   8
   5  -1 -11 163.628 19.5144   4
   5  -1 -11 193.855 18.6785   1
   5  -1 -11 172.491 18.7727   6
   5   1 -11 186.439 18.3486   6
   5   1 -11 231.619 18.2213   1
  -5   1  11 221.472 18.7848   8
  -5   1  11 179.436 18.1001   7
  -4  -1  11 498.621 43.4402   8
   4  -1 -11 416.684 44.0295   1
   4  -1 -11 513.334 45.3724   6
  -4   1  11 535.086 44.3415   8
  -4   1  11 455.742 43.7471   7
   4   1 -11 485.646 43.6893   1
   4   1 -11 497.320 44.7841   6
  -3  -1  11 51.6874 5.67834   7
   3  -1 -11 34.5698 6.12718   4
   3  -1 -11 47.5350 5.23473  10
   3  -1 -11 53.2732 5.17567  10
  -3  -1  11 51.9208 6.28446   8
   3  -1 -11 36.3390 6.36549   6
   3  -1 -11 59.9925 6.88000   1
  -3   1  11 47.8894 6.84776   8
   3   1 -11 53.8173 6.23394   6
   3   1 -11 52.0150 6.12705   1
  -3   1  11 54.0475 6.07589   7
   2  -1 -11 2595.97 276.701   4
  -2  -1  11 3252.57 259.068   7
   2  -1 -11 3239.96 284.770  10
   2  -1 -11 2917.75 265.207   6
  -2  -1  11 2873.92 257.076   8
   2  -1 -11 3082.37 258.111   1
  -2   1  11 3004.41 257.455   8
   2   1 -11 2870.67 257.610   1
   2   1 -11 2573.94 264.698   6
  -1  -1  11 263.539 24.6473   8
   1  -1 -11 262.812 24.8635   1
   1  -1 -11 258.556 23.9646   9
   1  -1 -11 291.384 25.5699   6
   1  -1 -11 283.553 25.8591  10
  -1  -1  11 218.805 23.7987   7
  -1   1  11 278.081 25.3706   8
  -1   1  11 242.406 23.6460   5
   1   1 -11 266.521 25.6638  10
   1   1 -11 244.682 24.1913   1
  -1   1  11 245.446 23.8901   7
   1   1 -11 270.366 25.0243   6
   0  -1 -11 547.129 65.4323   4
   0  -1 -11 690.331 68.7218  10
   0  -1  11 717.004 60.4753   7
   0  -1 -11 714.524 61.0518   1
   0  -1 -11 707.038 62.6734   6
   0  -1  11 612.265 60.6255   8
   0  -1 -11 613.807 61.8139   9
   0   1  11 696.773 59.8124   5
   0   1 -11 691.326 61.6675   9
   0   1 -11 693.661 65.9309  10
   0   1 -11 596.194 61.6756   9
   0   1  11 755.791 59.9961   1
   0   1 -11 713.096 62.3266   6
   0   1 -11 640.043 60.5278   1
   0   1 -11 722.513 66.8196  10
   0   1  11 680.986 60.2982   7
   1  -1  11 30.4164 4.05059   5
   1  -1  11 30.0941 3.98319   2
   1  -1  11 31.4803 4.34626   7
  -1  -1 -11 37.2390 5.78527   1
  -1  -1 -11 25.0985 7.22269   4
  -1  -1 -11 25.5369 3.48138   9
  -1  -1 -11 32.2448 5.79596   6
  -1   1 -11 23.0101 4.51063   4
  -1   1 -11 28.8381 5.63486   7
  -1   1 -11 27.9986 5.68196  10
  -1   1 -11 30.2944 5.24750   6
  -1   1 -11 29.2085 5.47597   1
   1   1  11 22.4288 3.83178   5
   1   1  11 28.1740 4.00293   7
   1   1  11 30.3627 4.19117   1
  -1   1 -11 28.4655 3.31329   9
  -2  -1 -11 3302.72 267.245   6
   2  -1  11 2846.96 258.410   1
  -2  -1 -11 2615.34 279.456   4
   2  -1  11 2940.76 260.352   7
  -2  -1 -11 2825.70 262.084   7
  -2  -1 -11 2756.94 259.573   1
   2  -1  11 2683.19 257.687   5
  -2  -1 -11 3016.51 269.067   9
   2   1  11 3069.54 257.835   5
  -2   1 -11 2958.76 266.988   6
  -2   1 -11 2915.20 268.849   9
  -2   1 -11 2540.20 278.038   4
   2   1  11 3105.38 260.240   7
  -2   1 -11 3228.91 259.981   1
   2   1  11 3131.29 272.370   9
   2   1  11 3252.50 265.138   2
  -3  -1 -11 342.920 36.2230   4
  -3  -1 -11 374.819 32.1686   9
   3  -1  11 373.571 31.0043   5
  -3  -1 -11 323.591 32.5657   1
   3  -1  11 386.219 31.1577   1
  -3  -1 -11 348.023 33.2496   7
   3  -1  11 322.061 31.2923   7
  -3   1 -11 358.325 33.4954   6
   3   1  11 363.591 31.3006   7
  -3   1 -11 342.688 33.0899   7
  -3   1 -11 317.698 31.8929   9
   3   1  11 313.755 30.7932   5
  -3   1 -11 378.324 32.8920   1
   3   1  11 344.313 35.0512   9
  -3   1 -11 303.362 34.2343   4
   3   1  11 292.663 30.9219   1
  -4  -1 -11 471.039 45.3015   9
   4  -1  11 464.105 43.4244   5
   4  -1  11 486.520 43.9964   7
   4  -1  11 447.593 47.9109   9
  -4  -1 -11 619.832 51.1427   4
   4  -1  11 435.760 43.5376   1
  -4   1 -11 498.441 48.4081   4
  -4   1 -11 437.990 45.3551   1
   4   1  11 533.119 48.4866   9
   4   1  11 438.256 43.5965   1
  -4   1 -11 527.217 45.2460   9
  -4   1 -11 547.370 46.3351   7
   4   1  11 494.326 43.8344   7
   5  -1  11 2.63194 4.52796   9
   5  -1  11 2.26742 1.79175   5
   5  -1  11 1.43130 1.83496   7
  -5  -1 -11 2.25401 5.48218   4
  -5  -1 -11 3.89826 3.55172   1
  -5  -1 -11 2.42959 3.22317   7
   5  -1  11 3.74428 2.07889   1
   5   1  11 1.00856 1.78843   1
  -5   1 -11 4.10483 3.75885   7
  -5   1 -11 -0.4568 1.28772   9
  -5   1 -11 2.87462 3.73086   1
   5   1  11 1.34310 1.64399   7
  -5   1 -11 0.60304 3.05521   4
   5   1  11 1.92199 1.68101   5
   5   1  11 -0.1491 1.77511   1
   5   1  11 2.61969 3.61713   9
  -6  -1 -11 1914.01 180.211   7
   6  -1  11 2150.97 177.412   1
   6  -1  11 1807.02 176.641   5
   6  -1  11 1723.46 185.910   9
  -6  -1 -11 2344.95 194.897   4
   6  -1  11 2127.05 178.496   7
   6   1  11 2219.88 176.688   5
  -6   1 -11 1772.28 179.257   1
  -6   1 -11 1963.81 180.474   7
  -6   1 -11 2070.33 192.363   4
   6   1  11 2167.52 178.328   7
   6   1  11 1996.66 177.390   1
   6   1  11 1981.04 177.497   1
   7  -1  11 376.515 31.5658   1
  -7  -1 -11 343.265 33.4355   7
  -7  -1 -11 392.926 37.9371   4
   7  -1  11 400.703 31.5592   7
   7  -1  11 383.071 31.1722   5
  -7   1 -11 296.825 35.3737   4
   7   1  11 345.636 31.2869   7
   7   1  11 311.794 31.3954   1
   7   1  11 310.842 30.8411   5
   7   1  11 326.337 31.5047   1
  -7   1 -11 293.209 33.2731   7
   8  -1  11 220.224 21.5431   5
  -8  -1 -11 238.804 23.8704   7
   8  -1  11 220.071 21.7729   7
   8  -1  11 257.666 22.3118   1
  -8  -1 -11 220.204 26.7537   4
   8   1  11 213.423 22.0701   1
  -8   1 -11 267.645 24.5710   7
  -8   1 -11 217.314 25.4945   4
   8   1  11 262.428 21.4940   5
   9  -1  11 8.30266 2.96073   1
  -9  -1 -11 6.83184 4.72652   4
  -9  -1 -11 2.60496 3.60355   7
   9  -1  11 5.38641 2.05958   5
  -9   1 -11 13.0415 4.60979   7
  -9   1 -11 3.41931 3.82853   4
   9   1  11 9.40235 2.17706   5
   9   1  11 4.38872 2.51683   1
  10  -1  11 1081.05 86.7831   1
  10  -1  11 979.886 85.6706   5
 -10  -1 -11 1051.92 88.4770   7
 -10   1 -11 779.953 87.9173   7
 -11  -1 -11 202.454 23.7011   4
 -11  -1 -11 219.932 21.4898   7
 -11   1 -11 208.198 22.8079   4
 -11  -2  11 132.966 12.0078   8
 -11   2  11 127.834 12.9220   8
  10  -2 -11 58.1085 7.81722   1
 -10  -2  11 62.5441 6.09979   8
 -10   2  11 64.7719 7.31019   8
  -9  -2  11 44.0016 4.96479   8
   9  -2 -11 45.7062 6.75895   1
   9  -2 -11 46.4745 6.56020   6
  -9   2  11 57.8580 6.45910   8
   9   2 -11 51.6416 5.21033   6
   8  -2 -11 49.3388 7.35876   1
  -8  -2  11 53.0638 5.76227   8
   8  -2 -11 48.4161 7.13861   6
   8   2 -11 58.4655 6.03464   6
  -8   2  11 68.8264 7.12005   8
  -7  -2  11 239.953 20.9156   8
   7  -2 -11 221.638 22.7274   6
   7  -2 -11 205.439 22.1419   1
  -7   2  11 259.684 22.0021   8
   7   2 -11 224.741 21.5427   6
  -6  -2  11 125.597 12.3335   8
   6  -2 -11 123.851 14.0115   6
   6  -2 -11 121.394 13.7181   1
   6  -2 -11 122.868 14.7113   4
   6   2 -11 145.319 12.8924   6
  -6   2  11 143.127 13.4516   8
   5  -2 -11 38.9687 6.41162   1
   5  -2 -11 40.5444 6.19512   6
   5  -2 -11 30.8746 5.92565   4
  -5  -2  11 37.2175 4.74109   8
   5   2 -11 47.5993 5.07813   1
  -5   2  11 39.0893 5.48598   7
  -5   2  11 48.0987 6.24033   8
   5   2 -11 37.2446 4.96794   6
   4  -2 -11 79.3847 10.4049   4
  -4  -2  11 86.8360 9.14113   8
   4  -2 -11 88.4314 10.3712   6
   4  -2 -11 93.7378 10.3897   1
   4   2 -11 86.1091 9.23139   6
  -4   2  11 73.3360 9.25830   7
   4   2 -11 97.6053 9.13313   1
  -4   2  11 113.409 10.7515   8
   3  -2 -11 148.985 17.0809   4
   3  -2 -11 176.184 15.8036  10
   3  -2 -11 133.149 16.0740   6
   3  -2 -11 150.955 16.1564  10
   3  -2 -11 158.696 16.2302   1
  -3  -2  11 175.642 15.2272   7
  -3  -2  11 143.661 15.1558   8
  -3   2  11 167.779 15.2586   7
   3   2 -11 139.448 15.3483   6
   3   2 -11 166.321 15.1653   1
   2  -2 -11 134.138 11.2521   9
   2  -2 -11 128.924 13.3200   6
  -2  -2  11 98.9962 11.5894   7
   2  -2 -11 105.989 13.2093  10
   2  -2 -11 126.615 14.5112   4
   2  -2 -11 117.734 11.0807   9
  -2  -2  11 101.617 11.8713   8
   2  -2 -11 117.497 12.7180   1
   2  -2 -11 134.654 12.3263  10
  -2   2  11 154.819 14.0855   8
  -2   2  11 94.5678 11.6002   7
   2   2 -11 121.099 12.2251   6
   2   2 -11 121.830 12.0092   1
   1  -2 -11 132.080 13.2279   6
  -1  -2  11 114.204 11.7227   7
   1  -2 -11 159.326 15.7865  10
   1  -2 -11 130.483 12.8997   1
  -1  -2  11 100.205 11.9431   8
   1  -2 -11 103.710 14.5787   4
   1  -2 -11 114.286 11.2298   9
   1   2 -11 107.310 12.2223   6
  -1   2  11 104.141 11.6342   7
   1   2 -11 128.800 12.2336   1
  -1   2  11 132.906 11.6443   5
   1   2 -11 115.267 11.8044  10
   0  -2 -11 64.6057 8.52007   6
   0  -2 -11 62.9723 8.88579   1
   0  -2 -11 63.3147 10.7307   4
   0  -2  11 63.0966 7.17768   7
   0  -2 -11 67.3838 6.46834   9
   0  -2  11 65.7405 7.78233   8
   0   2 -11 54.6639 6.67159  10
   0   2 -11 60.7991 7.74481   1
   0   2 -11 66.5375 8.00309   6
   0   2  11 61.5959 7.00223   7
   0   2  11 61.6629 6.72616   1
   0   2  11 70.8198 6.88906   5
   0   2 -11 51.3089 7.01894  10
  -1  -2 -11 52.0199 9.34433   4
  -1  -2 -11 48.3059 7.87189   1
   1  -2  11 61.7978 7.03972   7
  -1  -2 -11 57.0959 8.07940   6
   1  -2  11 56.7292 6.43639   2
   1  -2  11 61.7546 6.66545   5
  -1  -2 -11 64.4856 6.35304   9
  -1   2 -11 63.7948 6.02274   9
  -1   2 -11 59.8218 7.96154   6
   1   2  11 48.5314 6.35628   5
  -1   2 -11 67.0340 8.27190   7
   1   2  11 64.2518 6.62008   1
  -1   2 -11 47.4928 7.39269  10
  -1   2 -11 69.5653 6.81269  10
  -1   2 -11 48.1819 7.61142   1
   1   2  11 49.8414 6.49348   7
  -2  -2 -11 62.8544 8.16569   1
   2  -2  11 53.0246 6.13292   5
  -2  -2 -11 51.3163 5.94993   9
   2  -2  11 62.9326 6.76148   7
  -2  -2 -11 45.6587 8.61868   4
   2  -2  11 49.9694 6.00133   1
   2   2  11 51.0566 6.04332   5
  -2   2 -11 60.2651 7.85558   1
  -2   2 -11 61.2380 5.75337   9
  -2   2 -11 50.1682 7.58500   6
  -2   2 -11 42.1719 7.05417  10
   2   2  11 64.6554 10.0900   9
   2   2  11 44.1404 6.00718   7
  -2   2 -11 49.4232 7.62640   7
   2   2  11 56.6176 6.23126   1
   3  -2  11 279.769 23.1272   7
  -3  -2 -11 245.418 26.9989   4
  -3  -2 -11 248.025 23.2899   9
   3  -2  11 233.252 22.5215   5
   3  -2  11 248.735 22.6126   1
  -3  -2 -11 277.534 24.6126   1
   3   2  11 231.070 25.7898   9
  -3   2 -11 249.748 24.1623   7
  -3   2 -11 269.212 25.0680   4
   3   2  11 224.567 22.3070   5
  -3   2 -11 222.940 24.1029   1
  -3   2 -11 238.851 23.0139   9
   3   2  11 232.304 22.6741   7
   3   2  11 254.059 22.7316   1
  -3   2 -11 215.202 24.4119   6
   4  -2  11 17.3832 3.41372   7
   4  -2  11 15.9244 5.02116   9
  -4  -2 -11 19.6667 5.34783   1
   4  -2  11 15.6028 3.18623   5
   4  -2  11 26.4145 3.86649   1
  -4  -2 -11 17.6258 4.76309   7
  -4  -2 -11 19.0224 6.35788   4
   4   2  11 22.2285 3.19818   5
   4   2  11 19.4582 3.22483   7
  -4   2 -11 18.4299 3.04356   9
  -4   2 -11 13.1523 4.24587   7
   4   2  11 16.9620 3.55669   1
  -4   2 -11 19.2853 5.16509   1
   4   2  11 22.4394 5.94658   9
  -4   2 -11 17.1465 4.71982   4
  -5  -2 -11 32.4450 7.09439   1
  -5  -2 -11 48.2775 7.72722   7
   5  -2  11 57.4257 5.90146   5
  -5  -2 -11 50.1553 10.2390   4
   5  -2  11 54.8707 9.12627   9
   5  -2  11 40.6643 5.87018   7
   5  -2  11 34.7776 5.56890   1
   5   2  11 42.4561 5.51489   7
  -5   2 -11 59.4700 8.11702   7
   5   2  11 52.1690 8.42509   9
   5   2  11 48.7871 5.36641   5
  -5   2 -11 53.5154 8.02738   4
   5   2  11 46.4166 6.11377   1
  -5   2 -11 47.8608 8.77688   1
  -5   2 -11 50.4689 5.63021   9
   6  -2  11 41.3929 7.85367   9
  -6  -2 -11 53.8364 8.03542   7
   6  -2  11 44.6003 5.66162   5
   6  -2  11 45.4211 5.92873   1
  -6  -2 -11 40.9775 9.31666   4
   6  -2  11 40.3818 5.79033   7
   6   2  11 47.9721 5.32184   5
  -6   2 -11 42.3331 7.57709   1
   6   2  11 47.1011 5.54199   7
  -6   2 -11 34.0914 6.79486   7
   6   2  11 58.4180 6.35826   1
  -6   2 -11 45.4903 7.81314   4
   7  -2  11 234.875 20.5315   7
  -7  -2 -11 229.459 25.0001   4
   7  -2  11 214.233 20.3839   1
  -7  -2 -11 220.200 22.0951   7
   7  -2  11 226.956 20.1370   5
  -7   2 -11 175.889 21.4557   7
   7   2  11 242.526 20.1462   7
   7   2  11 192.857 20.4191   1
   7   2  11 197.406 19.7425   5
  -7   2 -11 232.708 23.4341   4
   7   2  11 212.246 20.5651   1
   8  -2  11 6.40620 2.64243   1
  -8  -2 -11 8.43239 4.11273   7
   8  -2  11 5.08676 2.19934   5
  -8  -2 -11 12.0845 5.81976   4
   8  -2  11 7.39875 2.37053   7
  -8   2 -11 5.58713 3.60110   4
  -8   2 -11 6.26438 3.17259   7
   8   2  11 5.17991 2.70117   1
   8   2  11 7.55321 2.07761   5
   8   2  11 5.41401 2.67461   1
  -9  -2 -11 99.9240 11.0780   7
   9  -2  11 80.0934 8.52718   5
  -9  -2 -11 66.7933 12.4464   4
   9  -2  11 89.7029 9.26386   1
   9  -2  11 88.8917 8.97454   7
   9   2  11 83.1519 8.16478   5
  -9   2 -11 87.3858 11.2098   4
  -9   2 -11 61.4442 9.62858   7
   9   2  11 87.9670 9.43733   1
 -10  -2 -11 50.8712 7.75721   7
  10  -2  11 57.1525 5.66092   5
 -10  -2 -11 34.7426 8.38842   4
  10  -2  11 50.2042 6.52397   1
 -10   2 -11 44.7408 7.73848   4
  10   2  11 46.2251 6.41998   1
 -10   2 -11 32.6882 6.43225   7
  11  -2  11 94.0866 9.91819   1
  11  -2  11 86.5124 8.52371   5
 -11  -2 -11 65.0564 12.0138   4
 -11   2 -11 73.3072 10.9319   4
  11   2  11 100.385 9.81935   1
 -10  -3  11 402.056 37.3478   8
  10  -3 -11 381.246 39.0862   1
 -10   3  11 495.269 38.8064   8
   9  -3 -11 48.3164 7.52533   1
  -9  -3  11 49.2130 5.17469   8
  -9   3  11 57.6427 6.91199   8
  -8  -3  11 492.656 41.6395   8
   8  -3 -11 435.379 43.4449   1
   8  -3 -11 446.999 44.4952   6
  -8   3  11 527.595 43.1101   8
   8   3 -11 453.806 42.7928   6
   7  -3 -11 -2.0020 2.63030   4
   7  -3 -11 2.29253 3.04737   1
  -7  -3  11 -0.0151 1.23125   8
   7  -3 -11 4.77810 2.65883   6
   7   3 -11 1.42341 1.36350   6
  -7   3  11 3.10433 2.40800   8
   6  -3 -11 1069.12 97.3863   1
   6  -3 -11 1105.42 100.010   6
   6  -3 -11 1026.72 104.525   4
  -6  -3  11 1139.38 95.5010   8
  -6   3  11 1074.29 97.0959   7
   6   3 -11 1101.48 98.4420   6
   5  -3 -11 73.9862 9.07193   1
  -5  -3  11 61.3551 6.89449   8
   5  -3 -11 60.9596 9.12206   6
   5  -3 -11 50.7038 8.95748   4
  -5   3  11 69.7579 7.81661   7
   5   3 -11 61.8434 7.06359   6
  -5   3  11 81.4698 8.91706   8
   5   3 -11 70.2446 7.11079   1
   4  -3 -11 1358.68 131.263   6
   4  -3 -11 1369.70 137.507   4
   4  -3 -11 1413.18 139.702  10
   4  -3 -11 1277.48 127.688   1
   4  -3 -11 1493.62 139.545  10
  -4  -3  11 1509.23 126.057   8
   4   3 -11 1541.82 130.036   6
  -4   3  11 1581.02 127.828   7
   4   3 -11 1356.50 126.492   1
   3  -3 -11 3.05142 1.86223  10
  -3  -3  11 5.23130 2.26168   8
   3  -3 -11 -0.0446 3.76712   4
   3  -3 -11 1.96229 1.39620  10
   3  -3 -11 2.16707 3.23179   6
   3  -3 -11 3.68494 3.15614   1
   3   3 -11 2.05327 1.99343   1
   3   3 -11 1.65349 1.92282   6
  -3   3  11 1.89411 2.02827   7
   2  -3 -11 1950.59 180.121   4
   2  -3 -11 1911.36 171.633   9
  -2  -3  11 1766.02 164.954   8
   2  -3 -11 1922.39 166.971   1
   2  -3 -11 2002.49 184.861  10
   2  -3 -11 2024.77 171.463   6
  -2  -3  11 1662.17 166.538   7
   2   3 -11 1631.90 170.144   6
  -2   3  11 1868.65 166.721   7
   2   3 -11 2114.80 165.932   1
  -2   3  11 1880.75 165.161   5
   1  -3 -11 35.4409 8.35857   4
  -1  -3  11 36.5270 5.47782   8
   1  -3 -11 36.5702 4.42369   9
  -1  -3  11 37.7711 5.47223   7
   1  -3 -11 32.3983 6.33241   6
   1  -3 -11 36.1011 6.33273   1
   1   3 -11 43.0912 5.93475   6
   1   3 -11 44.4780 6.06891   1
  -1   3  11 44.8652 5.38159   5
  -1   3  11 42.4409 5.26643   7
  -1   3  11 44.3504 5.48445   1
   0  -3  11 2064.41 172.074   7
   0  -3 -11 1792.41 177.143   9
   0  -3 -11 1860.57 185.385   4
   0  -3 -11 2062.09 176.708   6
   0  -3 -11 1836.03 171.683   1
   0   3  11 2202.29 170.550   1
   0   3  11 1941.46 170.109   5
   0   3 -11 1851.94 171.095   1
   0   3 -11 2005.17 188.367  10
   0   3  11 1934.92 171.599   7
   0   3 -11 1784.49 188.263  10
  -1  -3 -11 6.63189 1.88939   9
  -1  -3 -11 9.40148 3.94527   1
  -1  -3 -11 4.93925 3.58227   4
   1  -3  11 6.74122 2.66421   7
   1   3  11 4.56015 2.03361   7
   1   3  11 13.1604 4.28333   9
  -1   3 -11 5.73600 1.27195   9
  -1   3 -11 4.86345 2.47559   7
  -1   3 -11 5.36401 2.97325   6
  -1   3 -11 9.22764 2.36925  10
  -1   3 -11 7.74351 3.50138   1
   1   3  11 8.51571 2.26395   1
   1   3  11 5.67675 2.14218   5
  -1   3 -11 6.88955 1.94464  10
  -1   3 -11 6.02312 1.22966   9
  -2  -3 -11 1806.06 148.522   4
  -2  -3 -11 1749.85 138.374   1
  -2  -3 -11 1429.89 141.984   9
   2  -3  11 1554.46 137.842   7
   2  -3  11 1564.06 136.375   5
   2   3  11 1462.89 136.107   5
   2   3  11 1397.04 136.460   1
  -2   3 -11 1431.34 141.556   9
  -2   3 -11 1800.75 138.267   1
  -2   3 -11 1574.92 137.792   7
  -2   3 -11 1388.74 151.368  10
   2   3  11 1546.69 137.380   7
  -3  -3 -11 23.8840 5.90808   4
   3  -3  11 21.9162 3.62631   1
  -3  -3 -11 24.5166 3.52020   9
   3  -3  11 22.2975 3.94929   7
  -3  -3 -11 20.7534 5.47719   1
   3  -3  11 21.3316 3.83840   5
   3   3  11 17.0155 3.28932   7
   3   3  11 20.8628 3.65622   1
   3   3  11 18.8906 3.31848   5
  -3   3 -11 15.1548 4.75666   1
  -3   3 -11 18.7063 3.93752   7
   3   3  11 13.7403 5.65517   9
  -3   3 -11 16.0854 5.02802   6
  -3   3 -11 17.3810 2.90620   9
   4  -3  11 1159.85 94.5371   1
  -4  -3 -11 1219.79 104.474   4
  -4  -3 -11 1042.95 95.8066   1
   4  -3  11 903.454 95.1122   7
   4  -3  11 1102.41 94.2711   5
  -4   3 -11 1085.50 97.9204   9
   4   3  11 1083.24 100.192   9
   4   3  11 1100.31 94.6395   1
   4   3  11 1073.96 93.9613   5
  -4   3 -11 943.698 95.8279   1
   4   3  11 1117.89 94.8584   7
  -4   3 -11 979.681 95.4809   7
   5  -3  11 41.1030 5.46812   7
  -5  -3 -11 41.1704 8.50999   4
   5  -3  11 29.2302 6.81249   9
   5  -3  11 38.0411 5.28525   1
   5  -3  11 34.8457 4.97751   5
  -5  -3 -11 30.3605 6.19757   7
  -5   3 -11 27.9195 5.48276   7
  -5   3 -11 36.6700 4.78440   9
   5   3  11 36.9827 4.71196   7
  -5   3 -11 36.7589 6.31546   4
   5   3  11 33.8514 4.58773   5
   5   3  11 35.3342 5.38357   1
  -5   3 -11 40.0091 6.62251   1
   6  -3  11 788.892 68.8175   1
   6  -3  11 688.387 68.3895   5
  -6  -3 -11 794.904 70.7384   7
   6  -3  11 811.327 69.4013   7
  -6  -3 -11 779.837 76.2672   4
  -6   3 -11 649.412 69.6962   7
  -6   3 -11 732.919 69.7897   1
   6   3  11 724.865 68.1056   5
  -6   3 -11 831.489 71.4957   9
   6   3  11 884.047 69.3376   1
   6   3  11 734.443 68.7324   7
  -6   3 -11 857.563 74.7513   4
  -7  -3 -11 36.6697 6.45843   7
   7  -3  11 32.0373 4.54025   5
   7  -3  11 27.9070 4.61598   7
   7  -3  11 35.9204 5.14028   1
  -7  -3 -11 26.0523 7.17805   4
  -7   3 -11 31.2370 5.90918   1
   7   3  11 28.6584 4.08653   5
  -7   3 -11 37.3518 6.34225   4
   7   3  11 32.7139 5.42084   1
  -7   3 -11 23.9497 5.25593   7
  -8  -3 -11 322.988 27.6806   7
   8  -3  11 262.773 26.0349   1
   8  -3  11 261.137 25.4934   5
   8  -3  11 266.131 25.9417   7
  -8  -3 -11 233.463 29.5780   4
   8   3  11 306.445 26.3993   1
   8   3  11 313.597 25.1701   5
  -8   3 -11 292.564 28.8653   4
  -8   3 -11 244.358 26.5742   7
   9  -3  11 63.0900 7.32745   7
   9  -3  11 70.6724 7.98926   1
  -9  -3 -11 70.1527 9.18545   7
  -9  -3 -11 62.9687 10.5443   4
   9  -3  11 61.7144 7.07904   5
   9   3  11 65.1504 7.84425   1
  -9   3 -11 71.8562 9.37874   4
   9   3  11 61.2176 7.92594   1
  -9   3 -11 48.1052 7.86058   7
  10  -3  11 266.042 25.9308   1
  10  -3  11 269.172 24.9617   5
 -10  -3 -11 288.728 26.8952   7
 -10  -3 -11 265.181 29.4872   4
  10   3  11 297.570 26.0284   1
 -10   3 -11 258.558 28.1748   4
  10  -4 -11 18.1466 5.21659   1
 -10  -4  11 24.7741 3.06435   8
   9  -4 -11 266.922 28.0111   1
  -9  -4  11 298.422 25.6654   8
   8  -4 -11 15.2274 4.70908   6
  -8  -4  11 11.1133 2.12161   8
   8  -4 -11 14.2648 4.78804   1
   8   4 -11 12.9714 1.91359   6
  -7  -4  11 186.960 17.1641   8
   7  -4 -11 188.923 19.5808   1
   7  -4 -11 186.835 19.8482   6
   7  -4 -11 202.700 21.0484   4
  -7   4  11 180.284 18.4601   7
   7   4 -11 187.415 17.5146   6
   6  -4 -11 100.210 11.6038   6
   6  -4 -11 72.7387 11.8299   4
   6  -4 -11 93.4679 11.4633   1
  -6  -4  11 96.8584 8.91841   8
  -6   4  11 82.9979 10.0052   7
   6   4 -11 91.1169 9.09232   6
   5  -4 -11 542.627 48.7526   6
   5  -4 -11 470.618 49.5586  10
   5  -4 -11 484.458 47.2612   1
  -5  -4  11 538.645 45.2054   8
   5  -4 -11 504.263 51.1122   4
  -5   4  11 495.113 46.2430   7
   5   4 -11 528.188 46.6370   6
   4  -4 -11 45.4612 6.27404  10
   4  -4 -11 48.0786 5.78830  10
   4  -4 -11 50.7153 8.13272   1
  -4  -4  11 52.8696 5.85044   8
   4  -4 -11 52.5663 9.34682   4
   4  -4 -11 50.7644 8.27544   6
   4   4 -11 51.4483 6.21880   6
   4   4 -11 59.6165 6.37810   1
  -4   4  11 51.3554 6.62683   7
  -3  -4  11 377.647 32.9230   8
   3  -4 -11 356.549 37.5950   4
   3  -4 -11 314.280 33.3861   9
   3  -4 -11 343.075 37.0577  10
   3  -4 -11 390.520 35.8268   6
   3  -4 -11 392.422 35.0919   1
   3   4 -11 370.555 33.2348   1
  -3   4  11 362.628 33.5161   7
   3   4 -11 367.155 34.0110   6
  -3   4  11 394.581 33.3032   5
   2  -4 -11 228.303 23.2192   1
   2  -4 -11 190.466 24.6997   4
  -2  -4  11 203.441 21.4265   7
   2  -4 -11 292.223 24.2210   6
   2  -4 -11 227.617 21.2765   9
   2   4 -11 220.093 21.9641   6
   2   4 -11 205.672 21.4613   1
  -2   4  11 265.371 21.7710   7
   1  -4 -11 375.055 39.1410   6
   1  -4 -11 420.764 37.6508   9
   1  -4 -11 423.843 42.0686   4
  -1  -4  11 390.810 37.1965   7
   1  -4 -11 484.023 38.7774   1
  -1   4  11 425.735 37.1319   7
  -1   4  11 433.587 36.7151   5
  -1   4  11 361.665 36.4660   1
   1   4 -11 343.819 37.0322   1
   1   4 -11 410.135 38.1057   6
   0  -4 -11 83.1031 11.1676   4
   0  -4 -11 92.9702 9.13575   9
   0  -4 -11 94.5394 11.0185   1
   0  -4  11 97.5839 9.97709   7
   0   4 -11 99.8287 10.5012   6
   0   4 -11 105.690 10.4746   3
   0   4 -11 80.2024 10.1215   1
   0   4  11 88.2004 9.24287   5
   0   4  11 87.4133 9.36890   7
   0   4 -11 75.9247 8.86043  10
   0   4  11 82.5386 9.13560   1
   1  -4  11 528.417 45.8982   7
  -1  -4 -11 511.389 46.6356   9
  -1  -4 -11 557.613 47.1367   1
  -1  -4 -11 526.566 49.6677   4
   1   4  11 474.868 48.0509   9
   1   4  11 518.425 45.0878   1
  -1   4 -11 533.231 47.2950   6
   1   4  11 526.711 44.9649   5
  -1   4 -11 433.939 49.2025  10
  -1   4 -11 490.294 49.2106  10
   1   4  11 444.081 45.2389   7
  -1   4 -11 454.029 45.0573   7
  -1   4 -11 565.790 46.5237   1
  -2  -4 -11 369.260 32.3989   4
  -2  -4 -11 377.016 31.2106   1
   2  -4  11 320.944 29.1892   5
   2  -4  11 337.346 29.7060   7
  -2   4 -11 280.606 31.5682  10
  -2   4 -11 298.183 29.0088   7
   2   4  11 362.346 28.9564   5
  -2   4 -11 287.776 29.1746   9
   2   4  11 293.682 29.0684   7
  -2   4 -11 390.976 31.4400   6
   2   4  11 255.694 28.7262   1
   2   4  11 305.608 31.2486   9
  -2   4 -11 299.832 30.2532   1
  -3  -4 -11 181.727 19.2317   4
   3  -4  11 180.203 16.9459   5
   3  -4  11 191.184 17.3848   7
  -3  -4 -11 186.916 18.2669   1
   3   4  11 165.221 16.3417   5
   3   4  11 158.613 16.6736   1
  -3   4 -11 196.592 18.4284   6
  -3   4 -11 179.155 16.8916   7
  -3   4 -11 171.600 16.4578   9
  -3   4 -11 145.594 17.5960   1
   3   4  11 169.497 18.6637   9
   3   4  11 166.681 16.6920   7
  -4  -4 -11 117.201 13.6078   4
   4  -4  11 115.845 11.2118   1
   4  -4  11 92.2713 11.2706   7
   4  -4  11 120.457 11.3108   5
  -4   4 -11 87.6026 10.9198   7
  -4   4 -11 121.295 12.2320   1
   4   4  11 92.4287 10.8886   1
  -4   4 -11 114.854 10.6127   9
   4   4  11 93.2924 10.3027   5
   4   4  11 108.319 10.7359   7
   5  -4  11 346.206 35.1642   7
   5  -4  11 340.360 34.6375   5
  -5  -4 -11 358.028 38.8212   4
   5  -4  11 395.596 35.0564   1
  -5   4 -11 397.552 35.6405   1
  -5   4 -11 366.736 35.2367   7
   5   4  11 426.919 35.0688   1
   5   4  11 351.549 34.0407   5
   5   4  11 437.627 34.7166   7
   6  -4  11 201.698 22.0576   5
  -6  -4 -11 256.405 26.0139   4
   6  -4  11 198.168 22.4825   7
   6  -4  11 248.453 22.6701   1
   6   4  11 253.234 22.8361   1
  -6   4 -11 284.505 23.3873   1
  -6   4 -11 235.554 22.8675   7
   6   4  11 230.819 21.6019   5
   6   4  11 248.865 22.0112   7
  -7  -4 -11 109.601 12.9998   4
   7  -4  11 101.726 10.4324   1
   7  -4  11 82.0924 9.73091   5
   7  -4  11 87.9413 10.1164   7
   7   4  11 91.2571 9.15887   5
   7   4  11 104.231 10.6842   1
  -7   4 -11 100.896 11.9493   4
  -7   4 -11 77.9219 10.1930   7
  -7   4 -11 95.0854 10.5966   1
   8  -4  11 99.5039 10.6168   7
  -8  -4 -11 100.140 11.8382   7
  -8  -4 -11 83.5664 12.9162   4
   8  -4  11 94.6366 10.1270   5
   8  -4  11 89.3572 10.6868   1
   8   4  11 102.599 9.41600   5
  -8   4 -11 93.0278 10.7383   7
  -8   4 -11 105.671 11.8988   4
   8   4  11 101.312 11.0720   1
   9  -4  11 125.073 12.3619   5
  -9  -4 -11 126.111 14.1103   7
   9  -4  11 132.411 12.8730   7
  -9  -4 -11 99.5624 15.1819   4
   9  -4  11 138.922 13.4112   1
  -9   4 -11 106.896 12.8137   7
   9   4  11 134.039 13.3069   1
  -9   4 -11 130.306 14.3537   4
  10  -4  11 121.047 12.8053   5
  10  -4  11 132.456 13.9754   1
 -10  -4 -11 142.888 16.5908   4
 -10  -4 -11 140.380 14.7555   7
 -10   4 -11 123.742 14.8720   4
  10   4  11 151.312 13.9424   1
  10   4  11 125.575 13.7613   1
  10  -5 -11 51.7497 8.58376   1
   9  -5 -11 -2.0960 3.47678   1
  -9  -5  11 1.66824 1.42147   8
   8  -5 -11 930.113 88.4651   1
  -8  -5  11 1110.05 86.3738   8
  -8   5  11 889.826 88.4122   7
   7  -5 -11 43.5298 6.82030   1
   7  -5 -11 35.0887 7.44545   4
  -7  -5  11 37.4701 4.36470   8
   7  -5 -11 30.1819 6.09943   6
  -7   5  11 35.8565 5.95357   7
   7   5 -11 36.0871 3.99663   6
   6  -5 -11 102.008 13.9804   4
  -6  -5  11 130.196 10.5163   8
   6  -5 -11 97.1898 11.9997   1
   6  -5 -11 92.8346 12.1065   6
   6   5 -11 104.617 10.4397   6
  -6   5  11 98.2476 11.4359   7
   5  -5 -11 33.1993 7.23731   4
   5  -5 -11 30.1756 3.87761  10
   5  -5 -11 26.3351 5.54111   6
   5  -5 -11 26.7221 5.41836   1
  -5   5  11 22.8123 4.45688   7
   5   5 -11 28.9824 4.02415   6
   4  -5 -11 1622.04 141.171   6
   4  -5 -11 1462.31 136.921   1
   4  -5 -11 1412.99 150.744  10
   4  -5 -11 1623.10 148.421   4
  -4   5  11 1553.58 137.292   7
   4   5 -11 1628.01 136.272   1
   4   5 -11 1520.31 139.688   6
   3  -5 -11 67.5705 8.80263   6
   3  -5 -11 52.4972 9.79810   4
   3  -5 -11 64.1129 8.54231   1
   3   5 -11 67.6615 7.99365   1
   3   5 -11 74.2151 7.97483   6
  -3   5  11 56.7529 7.59933   7
   2  -5 -11 183.465 20.6629   4
   2  -5 -11 140.034 17.6076   1
   2  -5 -11 167.161 16.7341   9
  -2   5  11 177.265 17.1280   7
   2   5 -11 177.495 17.5100   1
  -2   5  11 190.748 17.0127   5
   2   5 -11 194.810 17.7835   6
   1  -5 -11 83.5342 7.85409   9
   1  -5 -11 72.2662 9.36280   1
   1  -5 -11 63.0507 9.61504   4
  -1  -5  11 72.6657 9.03918   7
  -1   5  11 68.9331 8.12179   5
  -1   5  11 85.8717 8.36881   1
   1   5 -11 58.8058 8.59522   1
   1   5 -11 68.2723 8.74458   6
  -1   5  11 67.7420 8.26478   7
   0  -5  11 1900.02 166.927   7
   0  -5 -11 2059.07 171.778   9
   0  -5 -11 1915.17 166.169   1
   0  -5 -11 1620.42 177.906   4
   0   5  11 1930.29 165.249   1
   0   5  11 1730.89 166.180   7
   0   5  11 1875.18 164.791   5
   0   5 -11 1972.08 165.973   1
  -1  -5 -11 127.778 14.0315   4
  -1  -5 -11 135.257 13.6842   1
  -1  -5 -11 127.854 12.5888   9
   1  -5  11 127.506 13.1283   7
   1   5  11 128.310 12.4863   7
  -1   5 -11 117.764 12.5051  10
   1   5  11 128.360 13.7421   9
   1   5  11 132.588 12.5675   1
   1   5  11 127.747 12.3093   5
  -1   5 -11 140.172 13.5280   6
  -1   5 -11 105.323 12.3901  10
  -1   5 -11 98.6200 12.6915   1
  -1   5 -11 119.110 13.7446   3
  -2  -5 -11 178.327 19.7897   1
   2  -5  11 158.536 19.3786   7
  -2  -5 -11 236.748 21.4967   4
  -2   5 -11 221.819 18.8832   7
   2   5  11 208.494 19.1642   7
   2   5  11 205.382 19.2031   1
  -2   5 -11 225.860 22.1440   3
   2   5  11 173.616 20.2790   9
  -2   5 -11 177.758 20.0009   6
  -2   5 -11 238.316 20.0933   1
  -2   5 -11 190.305 20.2612  10
   2   5  11 189.064 18.8300   5
  -3  -5 -11 57.9069 7.73205   1
   3  -5  11 49.2000 7.00273   5
   3  -5  11 57.3687 7.45855   7
  -3  -5 -11 62.6190 8.08876   4
   3   5  11 43.4701 6.75103   1
   3   5  11 61.6309 6.63107   5
   3   5  11 64.8924 6.94455   7
  -3   5 -11 57.7063 6.70459   7
  -3   5 -11 51.9258 7.65167   6
  -3   5 -11 53.8967 7.32382   1
  -4  -5 -11 1330.82 126.903   4
   4  -5  11 1150.06 117.304   5
   4  -5  11 1245.30 118.623   7
  -4   5 -11 1438.49 118.230   1
   4   5  11 1247.68 116.882   5
  -4   5 -11 1466.72 118.524   7
   4   5  11 1437.71 118.180   7
  -5  -5 -11 185.675 20.7619   4
   5  -5  11 207.770 19.2309   7
   5  -5  11 151.101 18.4277   5
  -5   5 -11 184.114 18.9699   1
  -5   5 -11 201.573 18.9664   7
   5   5  11 211.629 18.1252   5
   5   5  11 200.794 19.0498   1
   5   5  11 212.473 18.4728   7
   6  -5  11 120.415 14.3749   5
   6  -5  11 128.076 14.8218   7
   6  -5  11 155.010 15.1574   1
  -6  -5 -11 165.818 16.9783   4
   6   5  11 169.926 15.0961   1
  -6   5 -11 142.244 14.7305   7
   6   5  11 150.007 13.7959   5
  -6   5 -11 148.079 14.8628   1
   7  -5  11 13.8827 3.83623   1
   7  -5  11 12.9977 3.48116   7
  -7  -5 -11 12.6136 4.58914   4
   7  -5  11 15.7712 3.50958   5
   7   5  11 13.9394 3.71768   1
   7   5  11 16.4887 2.66525   5
  -7   5 -11 14.7315 3.52016   7
  -7   5 -11 16.6298 3.77326   1
   8  -5  11 717.002 61.5442   1
   8  -5  11 672.557 61.5449   7
  -8  -5 -11 668.684 66.7756   4
  -8   5 -11 664.295 61.5005   7
   9  -5  11 212.316 19.8377   1
   9  -5  11 178.591 18.8147   5
   9  -5  11 191.634 19.3791   7
  -9  -5 -11 210.381 22.3145   4
   9   5  11 209.571 19.9988   1
  -9   5 -11 211.746 19.5724   7
   9  -6 -11 2.69281 3.24476   1
  -9   6  11 5.71705 3.39475   7
   8  -6 -11 4.93813 3.40492   1
  -8   6  11 6.67829 2.98137   7
   7  -6 -11 4.53308 3.06305   1
   7  -6 -11 2.59059 3.87736   4
   7  -6 -11 2.17401 2.66702   6
   7   6 -11 4.23274 1.01550   6
  -7   6  11 5.27970 2.88342   7
   6  -6 -11 39.1849 6.17986   1
   6  -6 -11 41.2952 6.34981   6
   6  -6 -11 33.4234 7.75262   4
   6   6 -11 41.6679 4.45818   6
  -6   6  11 47.1171 6.67380   7
   5  -6 -11 8.13795 3.12962   6
   5  -6 -11 2.11184 2.56004   1
   5  -6 -11 1.01948 3.52998   4
   5   6 -11 2.47878 1.31003   6
  -5   6  11 4.67144 2.80845   7
   4  -6 -11 1.28140 4.01187   4
   4  -6 -11 0.54396 2.35715   1
   4   6 -11 -0.0335 1.66537   1
  -4   6  11 0.99988 2.27864   7
  -4   6  11 -0.8109 1.88437   5
   4   6 -11 -0.2443 1.45640   6
   3  -6 -11 1.84632 3.95308   4
   3  -6 -11 4.08325 2.70521   1
  -3   6  11 4.39848 2.59807   7
   3   6 -11 3.97932 2.02406   6
  -3   6  11 2.35773 2.30110   5
   3   6 -11 0.91469 1.87434   1
   2  -6 -11 39.2609 6.02156   1
   2  -6 -11 28.3032 6.50557   4
  -2   6  11 41.0862 5.85768   7
   2   6 -11 43.0339 5.49834   6
   2   6 -11 35.8972 5.32260   1
  -2   6  11 43.1014 5.62695   5
   1  -6 -11 1.88341 2.36567   1
   1  -6 -11 7.69933 3.36697   4
  -1  -6  11 0.65780 2.62616   7
   1   6 -11 1.40308 2.18054   1
  -1   6  11 3.95869 2.35437   5
  -1   6  11 6.54339 2.57295   1
  -1   6  11 0.08739 2.13487   7
   1   6 -11 1.67396 2.15262   6
   0  -6 -11 11.8888 3.16708   1
   0  -6 -11 13.3925 3.80905   4
   0  -6  11 9.58906 3.59176   7
   0  -6 -11 14.6108 3.28438   9
   0   6 -11 8.99700 3.10983   1
   0   6  11 12.5129 3.78006   9
   0   6 -11 9.64483 2.94200   6
   0   6  11 14.0650 3.21769   5
   0   6  11 10.3075 3.00585   1
   0   6  11 12.5632 3.21392   7
  -1  -6 -11 1.99378 2.69714   4
  -1  -6 -11 1.36884 2.10738   1
   1  -6  11 6.37416 2.94507   7
  -1   6 -11 1.98270 2.24959   6
   1   6  11 6.08390 2.82173   1
  -1   6 -11 2.94191 1.13547  10
  -1   6 -11 4.24748 2.49624   1
   1   6  11 3.66658 2.36470   7
   1   6  11 7.14285 2.50931   5
  -2  -6 -11 22.4372 4.62139   4
   2  -6  11 18.6045 4.30834   7
  -2  -6 -11 22.4892 4.20137   1
  -2   6 -11 18.0558 3.91307   1
  -2   6 -11 16.5766 3.68228   6
   2   6  11 19.6056 3.66207   7
  -2   6 -11 14.9506 3.70993   3
   2   6  11 20.9044 3.62304   5
  -2   6 -11 21.0484 3.14842  10
   2   6  11 18.7315 4.09469   1
   3  -6  11 5.56981 2.89679   7
  -3  -6 -11 2.99144 2.65269   4
   3  -6  11 5.25758 2.73347   5
  -3   6 -11 0.62273 2.08028   1
  -3   6 -11 0.62056 1.76679   7
   3   6  11 0.28198 1.76028   5
  -3   6 -11 5.88333 2.57662   3
   3   6  11 4.85158 2.75924   1
  -3   6 -11 3.96814 2.48397   6
   3   6  11 2.71001 2.13369   7
  -4  -6 -11 23.1126 4.73410   4
   4  -6  11 30.2993 5.27635   5
   4  -6  11 27.5939 5.06119   7
   4   6  11 31.6950 4.27283   5
  -4   6 -11 25.8456 4.64044   1
  -4   6 -11 31.7826 4.58074   7
   4   6  11 28.6683 4.34221   7
   4   6  11 28.7836 5.13095   1
  -4   6 -11 30.2807 5.37943   3
   5  -6  11 3.08752 2.58822   5
   5  -6  11 2.89498 2.50708   7
  -5  -6 -11 4.02274 2.94098   4
   5   6  11 4.23230 2.90498   1
   5   6  11 2.56824 1.91689   5
  -5   6 -11 10.5660 2.89574   7
  -5   6 -11 6.75389 2.75337   1
  -5   6 -11 12.6367 3.63633   3
   6  -6  11 3.77460 2.65178   7
   6  -6  11 0.72387 2.29368   5
  -6  -6 -11 6.73813 3.14713   4
  -6   6 -11 5.58965 2.48572   7
   6   6  11 8.98078 3.26894   1
   6   6  11 3.45604 1.87043   5
  -6   6 -11 7.95776 2.76399   1
   7  -6  11 4.63278 3.05177   1
   7  -6  11 4.20383 2.68450   5
   7  -6  11 4.28359 2.84412   7
  -7  -6 -11 8.55805 3.69107   4
   7   6  11 8.87091 3.37304   1
  -7   6 -11 7.57115 2.73626   1
  -7   6 -11 8.48193 2.85195   7
  -8  -6 -11 16.5397 4.71774   4
   8  -6  11 22.5845 4.63603   1
   8  -6  11 18.9872 4.06924   7
   8  -6  11 18.4705 3.80675   5
  -8   6 -11 24.2859 4.17218   7
   8   6  11 21.3437 4.57247   1
   9  -6  11 9.74585 2.92114   5
   9  -6  11 9.33485 3.20217   7
   9  -6  11 20.6812 4.58503   1
  -9  -6 -11 10.5055 4.21223   4
   9   6  11 13.0127 4.04093   1
   8  -7 -11 664.875 60.2987   1
   7  -7 -11 25.3348 4.76725   1
   7  -7 -11 27.1971 6.36799   4
  -7   7  11 27.8943 5.30373   7
   6  -7 -11 29.2009 5.09444   1
   6  -7 -11 32.5561 7.10254   4
  -6   7  11 32.7236 5.48058   7
   5  -7 -11 60.9450 11.3096   4
   5  -7 -11 83.9822 9.50084   1
  -5   7  11 86.6184 9.70725   5
  -5   7  11 69.0700 9.60616   7
   5   7 -11 96.0158 8.27868   6
   4  -7 -11 682.078 60.6379   1
   4  -7 -11 687.907 66.7042   4
   4   7 -11 705.114 59.7905   1
  -4   7  11 662.987 60.6021   5
   4   7 -11 649.705 61.2662   6
  -4   7  11 663.293 61.2613   7
   3  -7 -11 29.2882 4.65893   1
   3  -7 -11 19.5913 5.24951   4
  -3   7  11 27.2182 5.02323   7
  -3   7  11 33.7056 5.05833   5
   3   7 -11 30.4014 3.99993   1
   3   7 -11 31.3144 3.93863   6
   2  -7 -11 59.9392 7.95427   4
   2  -7 -11 48.2559 6.33255   1
   2   7 -11 43.4870 5.70561   6
   2   7 -11 62.7792 6.05833   1
  -2   7  11 47.2690 6.79081   7
  -2   7  11 46.5823 6.50398   5
   1  -7 -11 111.751 11.5284   4
   1  -7 -11 90.3203 9.85151   1
  -1   7  11 88.6532 10.1879   7
  -1   7  11 95.8078 10.0878   5
   1   7 -11 87.7819 9.61520   6
  -1   7  11 92.4462 10.1388   1
   1   7 -11 89.6129 9.52360   1
   0  -7 -11 813.139 70.5427   1
   0  -7  11 799.646 71.8686   7
   0   7  11 790.708 71.2501   7
   0   7 -11 743.090 72.2650   6
   0   7  11 852.613 71.0865   1
   0   7  11 700.874 70.3700   5
   0   7 -11 851.849 70.6092   1
   1  -7  11 37.9038 6.24921   7
  -1  -7 -11 42.7742 5.23992   1
  -1  -7 -11 31.8012 5.54227   4
   1   7  11 32.5873 5.20543   5
  -1   7 -11 34.9698 4.96606   6
  -1   7 -11 31.8507 4.96362   1
   1   7  11 33.8499 5.50451   1
   1   7  11 33.3601 5.35892   7
   2  -7  11 53.4684 7.82418   7
  -2  -7 -11 51.2016 6.85361   4
   2   7  11 58.3995 6.87726   7
  -2   7 -11 45.8575 6.31393   6
  -2   7 -11 50.1689 6.35714   1
   2   7  11 62.4343 7.40445   1
   2   7  11 44.3522 6.12129   5
   3  -7  11 33.4014 6.11602   7
  -3  -7 -11 41.3248 5.84550   4
  -3   7 -11 37.2857 5.20251   1
  -3   7 -11 31.9643 5.46547   3
   3   7  11 35.5543 5.83755   1
   3   7  11 29.7787 4.91446   7
   3   7  11 42.7409 5.17028   5
   4  -7  11 599.226 62.2433   5
  -4  -7 -11 709.587 66.5879   4
   4  -7  11 653.121 63.0218   7
  -4   7 -11 770.781 62.0035   1
  -4   7 -11 716.611 62.1032   7
   5  -7  11 57.3093 8.36530   5
  -5  -7 -11 73.8895 8.29674   4
   5  -7  11 46.7413 7.93006   7
  -5   7 -11 63.6454 7.33153   1
   5   7  11 70.5817 8.54502   1
   5   7  11 62.7930 6.95623   5
  -5   7 -11 69.9205 7.50155   7
   6  -7  11 21.2263 4.59351   5
   6  -7  11 28.1733 5.17722   7
  -6  -7 -11 29.5221 5.05483   4
   6   7  11 29.9838 3.97215   5
   6   7  11 27.6857 5.24054   1
  -6   7 -11 27.0116 4.42464   7
  -6   7 -11 25.3171 4.21993   1
  -7  -7 -11 12.5794 3.86594   4
   7  -7  11 8.79603 3.39856   7
   7  -7  11 6.98461 3.14989   5
   7   7  11 7.13766 3.27318   1
  -7   7 -11 14.2264 3.17931   1
  -7   7 -11 12.4657 3.12991   7
   8  -7  11 399.004 38.9244   5
   8   7  11 456.537 39.4760   1
   7  -8 -11 17.9928 4.06734   1
   6  -8 -11 2.93902 2.48314   1
   6  -8 -11 3.31466 3.84088   4
  -6   8  11 2.04593 2.52453   7
  -6   8  11 6.21315 3.24423   5
   5  -8 -11 137.061 18.2639   4
   5  -8 -11 181.571 16.4254   1
  -5   8  11 184.893 17.1605   7
  -5   8  11 159.517 16.6764   5
   4  -8 -11 30.8427 5.95676   4
   4  -8 -11 30.4328 4.67041   1
  -4   8  11 33.5217 5.44364   7
  -4   8  11 27.5158 5.28263   5
   3  -8 -11 71.1144 8.25935   1
   3  -8 -11 98.0607 10.2562   4
   3   8 -11 79.1174 7.56528   1
   3   8 -11 69.1987 7.56605   6
  -3   8  11 81.2372 9.22406   7
  -3   8  11 67.1688 8.69395   5
   2  -8 -11 1.32000 2.72369   4
   2  -8 -11 0.71731 1.97271   1
   2   8 -11 1.89923 1.51382   6
   2   8 -11 4.11101 1.71272   1
  -2   8  11 2.73636 2.57381   7
  -2   8  11 -1.3819 2.02557   5
   1  -8 -11 133.823 13.6688   4
   1  -8 -11 117.448 11.9996   1
  -1   8  11 129.929 12.8805   7
   1   8 -11 117.220 11.8158   6
   1   8 -11 112.957 11.5524   1
  -1   8  11 119.491 12.4220   5
  -1   8  11 116.612 12.5936   1
   0  -8 -11 80.3829 8.13454   1
   0  -8 -11 74.4918 9.09573   4
   0  -8  11 72.1763 9.21467   7
   0   8  11 75.8589 8.94372   7
   0   8  11 74.6583 8.52199   5
   0   8 -11 75.5859 7.96468   6
   0   8  11 76.4404 8.99070   1
   0   8 -11 69.0038 7.78246   1
   1  -8  11 176.568 18.0809   7
  -1  -8 -11 187.189 18.4006   4
   1   8  11 181.643 17.2103   5
   1   8  11 194.301 17.9004   1
   1   8  11 219.808 17.9073   7
  -1   8 -11 145.494 16.5669   1
  -1   8 -11 161.382 17.0687   6
   2  -8  11 12.6113 4.13771   7
  -2  -8 -11 12.9932 3.34538   4
   2   8  11 12.7384 3.80581   1
   2   8  11 20.4758 3.88811   7
  -2   8 -11 15.1027 3.08302   6
   2   8  11 13.0253 3.20436   5
  -2   8 -11 15.1044 3.01595   1
  -3  -8 -11 49.8371 5.94261   4
   3  -8  11 38.0383 6.61914   7
   3   8  11 46.9569 6.64656   1
  -3   8 -11 30.4304 4.93733   1
   3   8  11 39.7653 5.39510   5
   4  -8  11 142.694 15.3362   7
  -4  -8 -11 128.145 14.7617   4
   4  -8  11 144.322 15.1607   5
   4   8  11 125.144 14.6304   1
   4   8  11 146.734 13.6997   5
  -4   8 -11 154.997 13.8287   1
   5  -8  11 140.148 16.5333   7
  -5  -8 -11 172.070 16.7227   4
   5  -8  11 139.517 16.1853   5
  -5   8 -11 138.974 15.0994   1
   5   8  11 188.941 15.1588   5
   5   8  11 157.556 16.3252   1
   6  -8  11 13.5520 4.31688   7
   6  -8  11 16.1308 4.41470   5
  -6  -8 -11 19.8249 4.05537   4
  -6   8 -11 14.1588 3.17297   7
  -6   8 -11 13.3148 3.08452   1
   6   8  11 18.0512 4.27285   1
   7  -8  11 15.2316 4.04893   5
  -7  -8 -11 12.1938 3.65154   4
  -7   8 -11 13.2949 3.05331   1
   7   8  11 11.7876 3.81792   1
  -5  -9  11 29.9892 4.07293   8
   5  -9 -11 32.9269 4.70718   1
   5  -9 -11 29.3842 5.65399   4
  -5   9  11 27.4006 5.29515   5
   4  -9 -11 386.862 34.7787   4
  -4  -9  11 341.524 31.2671   8
   4  -9 -11 327.322 31.5728   1
  -4   9  11 351.191 32.3303   5
  -4   9  11 328.037 32.5441   7
   3  -9 -11 3.79337 2.14017   1
  -3  -9  11 1.59935 2.06622   8
   3  -9 -11 2.36494 2.75985   4
  -3   9  11 1.31201 2.45177   5
   3   9 -11 3.12717 1.46997   1
  -3   9  11 2.37864 2.84739   7
  -2  -9  11 123.197 11.8483   8
   2  -9 -11 97.2458 11.4888   1
   2  -9 -11 120.828 12.8887   4
  -2   9  11 125.649 12.3826   5
   2   9 -11 113.218 11.0592   1
  -2   9  11 125.463 12.7156   7
   1  -9 -11 59.3334 7.07007   4
   1   9 -11 50.6532 5.70288   1
  -1   9  11 45.6150 6.79636   5
  -1   9  11 42.3313 6.82826   7
  -1   9  11 61.3289 7.41718   1
   0  -9  11 328.281 37.5211   7
   0  -9 -11 403.658 39.8515   4
   0   9 -11 428.108 36.6545   1
   0   9  11 409.931 37.8486   1
   0   9  11 473.945 38.0904   7
   0   9  11 408.588 37.2663   5
  -1  -9 -11 1.14690 2.07554   4
   1  -9  11 -0.9563 2.63047   7
   1   9  11 2.62089 2.55332   7
   1   9  11 0.00140 2.67573   1
  -1   9 -11 3.71212 1.88875   1
   1   9  11 1.67564 2.19366   5
  -2  -9 -11 91.3621 10.0771   4
   2  -9  11 95.1293 10.6469   7
  -2   9 -11 80.1717 9.05875   1
   2   9  11 97.8719 9.71677   5
   2   9  11 87.2607 10.4373   1
   3  -9  11 42.5130 7.14794   7
  -3  -9 -11 53.5506 6.35900   4
   3   9  11 55.1732 7.50801   1
  -3   9 -11 43.8194 5.64716   1
   3   9  11 41.2579 5.91197   5
   4  -9  11 207.643 22.4093   7
  -4  -9 -11 253.508 22.7512   4
  -4   9 -11 190.140 20.7651   1
   4   9  11 240.034 21.0196   5
   4   9  11 238.011 22.1585   1
  -5  -9 -11 1.64621 2.22036   4
   5  -9  11 0.72711 2.76093   5
   5   9  11 0.64723 2.90090   1
  -5   9 -11 0.57843 1.75160   1
   2 -10 -11 5.37855 2.76033   4
  -2  10  11 3.30907 2.57106   5
   2  10 -11 6.85437 1.77107   1
   1 -10 -11 93.1934 10.8700   4
   1  10 -11 104.736 9.68606   1
  -1  10  11 98.3624 10.8167   5
  -1  10  11 95.4351 11.1184   7
  -1  10  11 102.587 11.3175   1
   0 -10 -11 110.807 10.7573   4
   0  10 -11 99.2326 9.42492   1
   0  10  11 73.6623 10.0909   5
   0  10  11 94.9338 10.8034   7
   0  10  11 97.1374 11.0593   1
  -1 -10 -11 71.5513 8.46685   4
   1 -10  11 62.5178 8.50502   7
   1  10  11 81.7639 9.31995   1
   1  10  11 75.0893 8.30950   5
  -1  10 -11 67.0060 7.29752   1
  -2 -10 -11 9.73058 2.80224   4
  -2  10 -11 3.14651 1.85332   1
   2  10  11 5.23057 3.12201   1
   2  10  11 4.43581 2.38690   5
 -10   0  12 67.9434 7.03501   8
  -9   0  12 8.58141 2.12719   8
  -8   0  12 727.474 64.8460   8
   8   0 -12 740.761 67.0986   6
   7   0 -12 291.147 27.4963   6
   7   0 -12 307.822 26.9238   1
  -7   0  12 275.040 26.5462   8
   6   0 -12 7.45145 2.56514   6
   6   0 -12 10.9287 2.97838   1
  -6   0  12 12.9574 3.10379   8
  -5   0  12 26.9197 4.55860   8
   5   0 -12 27.5564 4.57319   1
   5   0 -12 29.0817 4.53023   6
   4   0 -12 1785.34 186.178   6
   4   0 -12 1923.99 181.264   1
  -4   0  12 2293.60 182.383   7
  -4   0  12 2239.78 180.769   8
   3   0 -12 346.052 33.5894   6
   3   0 -12 331.802 32.8289   1
  -3   0  12 365.664 32.9174   8
  -3   0  12 376.297 32.5253   7
  -2   0  12 57.8421 6.55861   7
   2   0 -12 73.0784 7.69236   1
  -2   0  12 58.1854 7.66260   8
   2   0 -12 64.2241 7.66579   6
   2   0 -12 45.6217 6.71628   4
  -1   0  12 376.307 33.2255   7
   1   0 -12 305.983 35.2710   4
   1   0 -12 309.616 33.4376   1
   1   0 -12 414.631 34.8622   6
   1   0 -12 332.109 36.2703  10
  -1   0  12 442.549 34.5205   8
   1   0 -12 391.388 35.8619  10
   0   0 -12 2608.23 241.758  10
   0   0 -12 2604.51 226.866   9
   0   0 -12 2418.54 219.227   1
   0   0 -12 2502.15 225.450   6
   0   0 -12 2156.91 234.793   4
   0   0  12 2347.59 219.807   7
   0   0 -12 2785.96 243.323  10
  -1   0 -12 260.229 22.5451   6
   1   0  12 225.963 20.5206   5
   1   0  12 204.804 20.6113   7
  -1   0 -12 216.588 20.7332   9
  -1   0 -12 260.379 22.0898   1
  -1   0 -12 181.690 22.4745   4
  -2   0 -12 193.394 19.5349   6
   2   0  12 208.708 17.6910   5
  -2   0 -12 157.496 18.8053   1
   2   0  12 191.562 17.5117   1
   2   0  12 173.645 17.4916   1
   2   0  12 189.798 17.7768   7
  -2   0 -12 184.168 19.8258   7
  -2   0 -12 173.589 20.0201   4
  -2   0 -12 193.495 17.7931   9
   3   0  12 916.623 72.4135   5
   3   0  12 892.224 72.5252   1
  -3   0 -12 854.640 74.4261   1
  -3   0 -12 705.786 78.9446   4
   3   0  12 856.289 73.0589   7
  -3   0 -12 811.997 74.8147   7
  -3   0 -12 736.904 75.1304   9
   3   0  12 760.084 72.4428   1
   4   0  12 1765.08 149.390   5
  -4   0 -12 1542.84 152.703   7
   4   0  12 1876.52 150.858   7
  -4   0 -12 1541.00 155.793   9
  -4   0 -12 1924.35 152.105   1
   4   0  12 1516.38 158.565   9
  -4   0 -12 1641.25 162.572   4
   4   0  12 1622.59 149.759   1
   4   0  12 1874.07 149.963   1
  -5   0 -12 83.5126 12.5997   1
   5   0  12 107.799 10.8304   7
  -5   0 -12 89.8469 12.8112   7
   5   0  12 118.727 14.6234   9
  -5   0 -12 114.234 11.5049   9
  -5   0 -12 118.490 14.2862   4
   5   0  12 111.831 10.9770   1
   6   0  12 153.988 16.6590   1
   6   0  12 168.078 16.4327   5
  -6   0 -12 175.707 19.2613   1
  -6   0 -12 209.838 21.1533   4
   6   0  12 189.213 16.7747   7
  -6   0 -12 168.603 19.0251   7
  -7   0 -12 541.623 52.2895   4
   7   0  12 585.995 46.1177   7
   7   0  12 450.001 45.3684   5
   7   0  12 463.307 45.8615   1
  -7   0 -12 527.513 48.3317   7
  -8   0 -12 742.682 78.1834   4
  -8   0 -12 741.103 72.5982   7
   8   0  12 806.366 70.5494   1
   8   0  12 803.447 69.8833   5
   8   0  12 834.243 70.6224   7
  -9   0 -12 63.7588 11.3847   4
   9   0  12 87.1795 8.88331   1
  -9   0 -12 58.8719 9.94864   7
   9   0  12 75.9637 7.73411   5
  10   0  12 104.714 11.1045   1
  10   0  12 118.242 10.1173   5
 -10   0 -12 90.9137 12.2930   7
 -10   0 -12 75.9259 12.9302   4
 -10  -1  12 49.3373 5.28970   8
 -10   1  12 47.7238 5.67747   8
  -9  -1  12 1.31977 1.47525   8
  -9   1  12 7.55125 2.27503   8
  -8  -1  12 2.59264 1.78167   8
   8  -1 -12 5.18901 2.62092   6
   8  -1 -12 8.52996 2.99214   1
  -8   1  12 7.66206 2.29474   8
   8   1 -12 5.03880 1.90202   6
   7  -1 -12 91.4117 11.0306   6
  -7  -1  12 117.987 10.5272   8
   7  -1 -12 114.961 11.3681   1
   7   1 -12 103.208 10.6683   6
  -7   1  12 98.8022 10.6924   8
   6  -1 -12 48.4368 6.66778   6
   6  -1 -12 40.5177 6.68403   1
  -6  -1  12 54.1241 6.14021   8
   6   1 -12 59.7069 6.46941   1
  -6   1  12 51.0498 6.62295   8
   6   1 -12 57.7315 6.38365   6
   5  -1 -12 4.36639 2.61540   4
   5  -1 -12 3.69481 2.73560   1
   5  -1 -12 5.82010 2.75059   6
  -5  -1  12 3.62722 2.10493   8
   5   1 -12 4.26646 2.37993   1
   5   1 -12 16.4806 3.04399   6
  -5   1  12 6.83401 2.84074   8
   4  -1 -12 23.5070 4.57324   1
   4  -1 -12 24.7195 4.46987   4
   4  -1 -12 16.9509 4.09426   6
  -4  -1  12 21.4711 4.02267   8
  -4   1  12 27.9334 4.14761   7
  -4   1  12 27.1059 5.00214   8
   4   1 -12 26.7593 4.21276   1
   4   1 -12 26.0974 4.20014   6
   3  -1 -12 118.914 12.0238   1
  -3  -1  12 102.586 11.0878   7
   3  -1 -12 128.439 12.4208   6
  -3  -1  12 107.420 11.6535   8
   3   1 -12 105.521 11.6851   6
  -3   1  12 118.123 12.3259   8
   3   1 -12 111.293 11.4736   1
  -3   1  12 111.973 11.4517   7
   2  -1 -12 31.7580 3.82922  10
  -2  -1  12 27.4638 4.20965   7
   2  -1 -12 27.5495 5.30417   1
   2  -1 -12 30.2623 5.36673   6
  -2  -1  12 33.4078 5.50024   8
   2  -1 -12 32.9258 4.37013  10
   2  -1 -12 40.2607 5.39224   4
   2   1 -12 26.7072 4.81748   6
  -2   1  12 27.8323 4.46898   7
   2   1 -12 32.5279 4.97006   1
  -2   1  12 33.7431 5.98910   8
  -1  -1  12 49.3734 6.79038   8
   1  -1 -12 37.2231 6.13951   1
   1  -1 -12 35.7926 5.98785   4
   1  -1 -12 41.8488 6.68497  10
   1  -1 -12 40.4948 4.60914  10
  -1  -1  12 34.9913 4.84716   7
   1  -1 -12 38.5912 3.73689   9
   1  -1 -12 31.9803 6.04809   6
   1   1 -12 28.4991 5.17718   1
   1   1 -12 37.5541 5.66219   6
  -1   1  12 35.8608 4.85525   5
  -1   1  12 28.9671 4.71353   7
   1   1 -12 27.3391 4.28805  10
   1   1 -12 40.5119 4.30550  10
   0  -1 -12 35.5284 6.03705   6
   0  -1 -12 55.9866 9.78541  10
   0  -1 -12 33.1066 5.90905   1
   0  -1 -12 29.4302 6.18253   4
   0  -1  12 32.8467 4.92816   7
   0  -1 -12 37.0105 3.99157   9
   0   1 -12 32.8468 5.61012   1
   0   1 -12 29.8590 5.22150  10
   0   1 -12 37.5855 4.47818  10
   0   1 -12 34.3258 5.78578   6
   0   1  12 35.7978 4.79239   7
   0   1  12 34.0671 4.70817   5
  -1  -1 -12 36.9779 7.75026   4
  -1  -1 -12 44.4468 7.27807   6
   1  -1  12 52.8728 6.06638   5
  -1  -1 -12 53.9411 7.76855   1
  -1  -1 -12 50.6990 5.45589   9
   1  -1  12 43.8021 6.02715   7
   1   1  12 60.5580 6.17892   5
  -1   1 -12 48.7571 7.22866  10
  -1   1 -12 50.4365 6.64927   4
  -1   1 -12 60.5239 7.62992   1
  -1   1 -12 48.1137 5.25827   9
  -1   1 -12 60.3382 7.67426   6
   1   1  12 47.0608 5.90731   1
   1   1  12 49.2744 5.94699   7
  -1   1 -12 41.0340 7.73784   7
   2  -1  12 37.8601 5.59469   7
  -2  -1 -12 42.8121 5.04936   9
  -2  -1 -12 56.3001 7.83491   1
   2  -1  12 39.3640 5.28008   1
  -2  -1 -12 37.3329 7.75568   4
   2  -1  12 44.8815 5.47867   5
  -2   1 -12 46.0166 4.88655   9
   2   1  12 53.5240 5.71344   5
  -2   1 -12 43.1881 7.03550   1
   2   1  12 40.5837 5.37216   1
   2   1  12 41.3847 5.44499   7
  -2   1 -12 38.1203 6.38696   4
  -2   1 -12 47.1577 7.32281   7
  -2   1 -12 40.6674 7.35343   6
   3  -1  12 74.6323 8.26697   5
  -3  -1 -12 91.2952 12.9651   4
   3  -1  12 73.0052 8.47084   7
  -3  -1 -12 91.7049 10.7614   1
  -3  -1 -12 82.2731 8.32181   9
   3  -1  12 68.9096 8.14279   1
  -3  -1 -12 72.2255 11.0969   7
  -3   1 -12 82.8716 10.5606   7
   3   1  12 68.5290 8.25082   1
  -3   1 -12 74.4531 10.2360   1
   3   1  12 75.7868 12.3827   9
  -3   1 -12 87.5690 8.17411   9
   3   1  12 90.2391 8.38895   5
  -3   1 -12 63.6171 9.60972   4
   3   1  12 79.8825 8.39175   7
  -4  -1 -12 10.1294 2.58765   9
  -4  -1 -12 12.6062 4.74242   7
   4  -1  12 10.1384 2.67075   5
   4  -1  12 11.7525 5.15913   9
  -4  -1 -12 13.0853 6.16049   4
   4  -1  12 11.7092 2.88963   7
  -4  -1 -12 6.54720 4.34980   1
   4  -1  12 10.4249 2.69415   1
   4   1  12 11.1424 2.50639   7
   4   1  12 16.1920 6.13641   9
   4   1  12 9.82717 2.63593   1
  -4   1 -12 4.67567 3.73270   1
   4   1  12 9.67231 2.51687   5
  -4   1 -12 3.89099 3.85399   7
  -4   1 -12 12.7383 4.30584   4
  -4   1 -12 11.2357 2.35136   9
  -5  -1 -12 32.1229 6.75997   1
   5  -1  12 32.1556 4.65788   5
   5  -1  12 32.7313 7.82435   9
  -5  -1 -12 40.9990 9.74344   4
   5  -1  12 32.0140 4.65687   7
   5  -1  12 25.6751 4.37133   1
  -5  -1 -12 44.2623 7.55107   7
  -5   1 -12 32.4026 6.84031   4
   5   1  12 27.9514 4.59728   1
   5   1  12 37.8888 7.66551   9
  -5   1 -12 31.2927 7.38221   1
   5   1  12 30.6787 4.49859   5
   5   1  12 31.9622 4.83854   1
  -5   1 -12 33.0541 7.03673   7
   5   1  12 38.3662 4.73397   7
  -5   1 -12 42.8339 4.91610   9
  -6  -1 -12 97.7462 11.8910   7
   6  -1  12 88.9231 9.36571   5
   6  -1  12 97.9226 9.66588   1
   6  -1  12 96.0609 9.56445   7
  -6  -1 -12 126.515 15.8097   4
   6   1  12 96.1404 9.73618   1
   6   1  12 96.1276 9.45150   7
  -6   1 -12 85.1495 12.6099   1
   6   1  12 75.0946 9.52378   1
   6   1  12 79.4129 9.06855   5
  -6   1 -12 85.2738 12.0019   7
  -6   1 -12 96.3348 12.4760   4
  -7  -1 -12 24.4967 6.37101   7
   7  -1  12 41.2475 5.42264   1
  -7  -1 -12 44.1813 9.87445   4
   7  -1  12 42.2098 5.23395   7
   7  -1  12 33.8352 4.78337   5
   7   1  12 39.3152 4.77656   5
  -7   1 -12 24.4723 6.68355   7
   7   1  12 38.2312 4.94566   7
  -7   1 -12 35.2692 7.48088   4
   7   1  12 31.6742 5.19205   1
  -8  -1 -12 3.96435 3.53276   7
   8  -1  12 0.62489 1.79701   5
   8  -1  12 -0.4603 2.10335   1
   8  -1  12 0.81126 2.11505   7
  -8  -1 -12 4.77620 5.33132   4
   8   1  12 3.73447 2.46149   1
  -8   1 -12 1.40193 4.17457   4
  -8   1 -12 4.89567 4.04069   7
   8   1  12 2.21005 1.72394   5
  -9  -1 -12 38.1707 7.07046   7
  -9  -1 -12 34.5311 8.59727   4
   9  -1  12 36.8090 4.81897   5
   9  -1  12 38.3127 5.40800   1
  -9   1 -12 27.7825 6.98828   4
  -9   1 -12 36.3006 7.21717   7
   9   1  12 35.3390 4.60913   5
   9   1  12 35.4366 5.47091   1
 -10  -1 -12 70.8328 10.4367   7
  10  -1  12 91.5798 9.54569   1
 -10  -1 -12 84.7361 13.4902   4
  10  -1  12 81.4142 8.45926   5
 -10   1 -12 87.6489 11.0243   7
  10   1  12 88.4263 9.49378   1
 -10   1 -12 77.6673 11.7709   4
  10  -2 -12 11.1165 3.34506   1
 -10  -2  12 10.7235 2.22830   8
 -10   2  12 24.5242 3.83129   8
  -9  -2  12 23.8699 3.34274   8
   9  -2 -12 23.1695 4.55052   1
  -9   2  12 27.1735 4.31745   8
   8  -2 -12 362.586 31.8933   1
   8  -2 -12 317.218 32.3801   6
  -8  -2  12 346.049 30.4726   8
  -8   2  12 338.078 31.2352   8
   8   2 -12 338.808 31.3564   6
  -7  -2  12 21.3460 3.32776   8
   7  -2 -12 19.3526 4.40014   1
   7  -2 -12 18.6340 4.28895   6
  -7   2  12 26.0261 4.39996   8
   7   2 -12 25.4926 3.59959   6
  -6  -2  12 33.4310 4.08633   8
   6  -2 -12 25.5638 5.52474   4
   6  -2 -12 21.8990 4.87012   6
   6  -2 -12 28.0169 5.31824   1
  -6   2  12 28.1972 4.97722   8
   6   2 -12 27.9130 4.03669   6
   5  -2 -12 11.4571 3.34314   6
  -5  -2  12 5.11586 2.09926   8
   5  -2 -12 6.26270 2.95552   4
   5  -2 -12 6.30918 3.20446   1
  -5   2  12 8.15837 3.36323   8
   5   2 -12 6.23836 2.29718   6
  -5   2  12 5.12420 2.46611   7
   5   2 -12 10.1553 2.62087   1
  -4  -2  12 921.130 73.1514   8
   4  -2 -12 881.292 76.0552   6
   4  -2 -12 752.024 73.9506   1
   4  -2 -12 711.641 78.7867   4
   4   2 -12 780.742 75.0137   6
   4   2 -12 831.028 73.0532   1
  -4   2  12 881.546 73.8884   7
   3  -2 -12 7.22857 3.32313   4
  -3  -2  12 11.8942 3.01761   8
   3  -2 -12 6.39795 3.33055   1
   3  -2 -12 8.31916 1.67456  10
   3  -2 -12 5.12751 1.95209  10
   3  -2 -12 8.90897 3.65999   6
  -3   2  12 10.0388 4.36096   8
   3   2 -12 10.7363 2.80051   6
   3   2 -12 9.65911 2.77540   1
  -3   2  12 9.67483 2.71593   7
   2  -2 -12 67.1508 7.89270   1
   2  -2 -12 59.9454 7.99343   6
  -2  -2  12 57.6381 6.71773   7
   2  -2 -12 71.1354 6.50952  10
  -2  -2  12 52.9765 7.06165   8
   2  -2 -12 52.8762 8.53440   4
   2  -2 -12 49.2858 7.24208  10
   2   2 -12 45.3192 6.71076   1
   2   2 -12 56.4262 6.96540   6
  -2   2  12 45.8678 6.48589   7
   1  -2 -12 18.6190 5.31846   4
   1  -2 -12 18.8499 2.34858   9
  -1  -2  12 15.4952 3.71074   8
   1  -2 -12 19.5568 6.36777  10
   1  -2 -12 17.3555 4.37485   6
  -1  -2  12 11.5971 3.03102   7
   1  -2 -12 11.4949 3.96732   1
   1   2 -12 12.8738 3.58972   1
   1   2 -12 15.0628 2.14623  10
   1   2 -12 12.5395 3.40499   6
   1   2 -12 11.7523 2.00158  10
  -1   2  12 20.6542 3.36640   5
  -1   2  12 18.2700 3.37995   7
   0  -2  12 1368.91 124.982   8
   0  -2 -12 1262.79 125.786   1
   0  -2 -12 1449.76 129.499   6
   0  -2  12 1403.19 125.705   7
   0  -2 -12 1436.42 129.334   9
   0   2 -12 1477.73 137.535  10
   0   2  12 1530.60 124.367   5
   0   2 -12 1419.72 125.541   1
   0   2 -12 1489.96 129.025   6
   0   2 -12 1348.06 137.711  10
   0   2  12 1354.62 125.526   7
   1  -2  12 11.1069 3.11353   7
   1  -2  12 20.4771 3.48030   5
  -1  -2 -12 13.2813 4.37191   6
  -1  -2 -12 15.3916 5.73759   4
  -1  -2 -12 16.1949 2.61597   9
  -1  -2 -12 17.2831 4.66750   1
  -1   2 -12 12.8623 3.51664  10
   1   2  12 14.1065 3.14348   7
  -1   2 -12 17.5972 4.39343   1
   1   2  12 17.1808 3.18216   5
  -1   2 -12 17.4463 2.39290   9
   1   2  12 15.7153 3.15173   1
  -1   2 -12 17.7476 4.64686   6
  -1   2 -12 18.2530 4.25364   7
  -2  -2 -12 140.737 11.8972   9
  -2  -2 -12 120.633 14.7443   4
   2  -2  12 118.500 11.7219   5
   2  -2  12 116.662 12.1613   7
  -2  -2 -12 129.509 13.6717   1
  -2   2 -12 114.727 12.7322   7
  -2   2 -12 124.449 13.2608   1
  -2   2 -12 119.705 11.4047   9
   2   2  12 97.3127 11.5400   1
   2   2  12 103.212 11.4955   5
  -2   2 -12 99.9339 12.9801   6
   2   2  12 116.668 14.9590   9
   2   2  12 125.972 11.9212   7
   3  -2  12 89.6682 8.67090   5
  -3  -2 -12 73.1255 10.4834   1
   3  -2  12 91.3729 8.79406   1
  -3  -2 -12 91.0907 12.0534   4
  -3  -2 -12 84.5794 8.58191   9
   3  -2  12 72.3600 8.80929   7
   3   2  12 78.1572 8.62069   7
  -3   2 -12 74.1766 9.73821   7
   3   2  12 68.9113 11.3027   9
  -3   2 -12 88.7793 8.34233   9
   3   2  12 80.8017 8.67114   1
  -3   2 -12 78.9904 11.3189   1
   3   2  12 72.4680 8.29895   5
  -3   2 -12 57.2488 9.96592   6
   4  -2  12 1515.34 134.482   7
   4  -2  12 1547.75 133.082   5
  -4  -2 -12 1700.89 146.634   4
  -4  -2 -12 1401.65 135.305   1
   4  -2  12 1349.76 133.342   1
  -4  -2 -12 1574.23 136.489   7
   4   2  12 1563.02 132.863   5
  -4   2 -12 1445.74 135.234   1
   4   2  12 1490.16 141.303   9
   4   2  12 1518.06 133.620   1
   4   2  12 1390.95 134.143   7
  -4   2 -12 1473.81 135.353   7
  -4   2 -12 1484.58 138.608   9
  -4   2 -12 1775.74 144.432   4
  -5  -2 -12 34.6628 7.08291   1
   5  -2  12 33.1930 4.77512   5
   5  -2  12 30.8183 4.75007   1
  -5  -2 -12 33.6012 8.72423   4
  -5  -2 -12 31.2084 6.72327   7
   5  -2  12 32.1717 6.89876   9
   5  -2  12 28.9318 4.83383   7
   5   2  12 35.5516 4.56198   5
  -5   2 -12 40.1129 6.85866   4
  -5   2 -12 28.3644 5.89347   7
  -5   2 -12 35.7045 4.58256   9
   5   2  12 37.4269 4.87323   7
  -5   2 -12 35.6889 7.59940   1
   5   2  12 34.3940 5.23113   1
   6  -2  12 146.622 16.2789   5
   6  -2  12 174.642 16.7814   7
   6  -2  12 175.685 16.7144   1
  -6  -2 -12 234.505 23.1265   4
  -6  -2 -12 193.617 18.9822   7
  -6   2 -12 172.307 19.1706   4
   6   2  12 180.605 16.5187   7
  -6   2 -12 151.403 18.2053   1
   6   2  12 166.796 16.1631   5
   6   2  12 188.550 17.0013   1
  -6   2 -12 158.515 17.9201   7
   7  -2  12 120.969 12.2522   5
  -7  -2 -12 129.142 16.9266   4
  -7  -2 -12 135.279 14.6611   7
   7  -2  12 126.880 12.5901   1
   7  -2  12 125.151 12.5646   7
   7   2  12 112.345 11.9216   5
  -7   2 -12 89.5050 13.3064   7
   7   2  12 125.175 12.7234   1
  -7   2 -12 130.370 15.2153   4
   7   2  12 136.077 12.2511   7
   7   2  12 139.420 13.0017   1
   8  -2  12 1061.15 89.2485   7
   8  -2  12 904.204 88.1883   5
  -8  -2 -12 1072.49 91.1803   7
  -8  -2 -12 1015.63 98.2213   4
   8  -2  12 1058.72 88.9812   1
   8   2  12 993.125 89.1213   1
   8   2  12 928.035 88.9103   1
   8   2  12 971.005 88.0706   5
  -8   2 -12 1026.91 96.8974   4
   9  -2  12 33.7156 4.67288   7
   9  -2  12 21.3705 3.95053   5
  -9  -2 -12 34.0308 8.17670   4
  -9  -2 -12 51.3371 7.49693   7
   9  -2  12 33.4987 5.22545   1
  -9   2 -12 38.8728 7.10750   4
   9   2  12 36.1811 4.18101   5
  -9   2 -12 24.2588 5.35903   7
   9   2  12 28.5880 5.12494   1
  10  -2  12 132.483 12.4693   1
 -10  -2 -12 135.410 13.9102   7
  10  -2  12 105.600 11.2586   5
 -10  -2 -12 121.476 15.6990   4
  10   2  12 103.417 12.0762   1
 -10   2 -12 115.327 14.2204   4
  10  -3 -12 63.2004 8.92776   1
 -10  -3  12 75.8396 7.16284   8
 -10   3  12 72.6167 8.62466   8
   9  -3 -12 51.6928 8.61315   1
  -9  -3  12 71.3282 7.00340   8
  -9   3  12 85.1668 8.57088   8
   8  -3 -12 9.97287 3.55561   6
   8  -3 -12 5.26883 3.39047   1
  -8  -3  12 10.4038 2.17296   8
  -8   3  12 7.77002 3.04367   8
   8   3 -12 10.8993 1.96024   6
   7  -3 -12 308.450 35.6092   6
   7  -3 -12 358.178 37.4251   4
   7  -3 -12 355.654 35.0151   1
  -7  -3  12 368.450 33.4346   8
  -7   3  12 443.158 34.9057   8
   7   3 -12 402.892 34.3701   6
   6  -3 -12 156.478 17.2984   1
   6  -3 -12 169.046 18.6366   4
   6  -3 -12 166.387 17.7393   6
  -6  -3  12 162.871 15.7892   8
   6   3 -12 184.452 16.2460   6
  -6   3  12 164.807 16.5532   7
  -5  -3  12 167.390 15.2936   8
   5  -3 -12 154.829 16.9724   6
   5  -3 -12 143.394 16.5816   1
  -5   3  12 167.857 15.9982   7
   5   3 -12 176.237 15.7101   6
   5   3 -12 146.592 15.2703   1
   4  -3 -12 4.46296 2.96726   6
   4  -3 -12 5.25171 1.33540  10
   4  -3 -12 1.53535 3.15664   1
  -4  -3  12 4.55944 2.09596   8
   4  -3 -12 6.38092 3.46014   4
   4  -3 -12 5.78388 1.55591  10
   4   3 -12 4.34699 2.17198   6
  -4   3  12 5.38745 2.21661   7
   4   3 -12 6.35305 2.54906   1
  -3  -3  12 624.054 57.7284   8
   3  -3 -12 752.034 61.0543   6
   3  -3 -12 691.446 64.1850   4
   3  -3 -12 689.795 63.4089  10
   3  -3 -12 609.237 59.1932   1
  -3   3  12 620.063 58.3985   7
   3   3 -12 616.891 59.5168   6
   3   3 -12 595.439 57.9785   1
   2  -3 -12 353.611 31.5681   9
  -2  -3  12 326.351 31.3814   8
   2  -3 -12 305.310 35.6089   4
   2  -3 -12 350.255 33.5612   6
   2  -3 -12 376.299 32.7457   1
   2  -3 -12 384.976 36.0187  10
  -2  -3  12 339.642 31.5791   7
  -2   3  12 342.801 31.3888   5
   2   3 -12 314.945 32.3057   6
   2   3 -12 318.118 31.5531   1
  -2   3  12 356.803 31.7373   7
  -1  -3  12 267.588 24.1822   7
   1  -3 -12 269.278 25.1148   1
   1  -3 -12 218.752 23.8139   9
   1  -3 -12 281.407 25.9095   6
   1  -3 -12 237.738 27.9450   4
   1   3 -12 284.863 25.0312   6
  -1   3  12 251.435 23.7892   5
  -1   3  12 263.713 23.9672   7
   1   3 -12 247.670 24.2778   1
   0  -3 -12 4.08952 4.72149   4
   0  -3 -12 8.09114 3.56280   6
   0  -3 -12 9.21863 4.11654   1
   0  -3  12 8.91318 2.93495   7
   0  -3 -12 5.10706 1.74978   9
   0   3 -12 7.40407 3.24625   1
   0   3 -12 5.80554 1.60495  10
   0   3  12 5.41784 2.31315   7
   0   3  12 3.71378 2.22942   5
   0   3 -12 3.45012 2.43940   6
   0   3 -12 4.34365 1.33731  10
   0   3  12 3.30399 2.06018   1
  -1  -3 -12 567.257 66.5457   4
  -1  -3 -12 661.806 62.8810   9
  -1  -3 -12 713.606 62.5223   1
   1  -3  12 708.184 61.8035   7
   1   3  12 717.578 60.7959   1
  -1   3 -12 624.902 61.1886   7
  -1   3 -12 671.830 66.9986  10
   1   3  12 669.443 60.6804   5
  -1   3 -12 678.425 63.4153   6
  -1   3 -12 646.105 61.8622   1
   1   3  12 751.489 61.2968   7
  -1   3 -12 747.039 66.8503  10
   2  -3  12 559.016 45.3665   7
  -2  -3 -12 493.358 45.9174   9
  -2  -3 -12 571.125 46.4330   1
   2  -3  12 531.660 44.5564   5
  -2  -3 -12 471.178 49.0224   4
  -2   3 -12 532.779 46.9823   6
   2   3  12 486.687 48.0173   9
   2   3  12 503.195 44.6672   7
  -2   3 -12 436.380 45.2976   9
   2   3  12 437.212 44.1410   5
  -2   3 -12 564.590 46.2003   1
  -2   3 -12 404.341 44.7055   7
   2   3  12 512.792 44.3984   1
  -2   3 -12 468.001 49.0798  10
  -3  -3 -12 198.832 21.6741   1
  -3  -3 -12 228.566 20.5539   9
  -3  -3 -12 229.301 23.3202   4
   3  -3  12 231.699 20.0884   5
   3  -3  12 222.324 20.4725   7
  -3   3 -12 229.874 22.1983   6
  -3   3 -12 183.705 20.2818   7
   3   3  12 209.208 19.9799   1
   3   3  12 187.294 22.1723   9
   3   3  12 201.904 19.6722   5
  -3   3 -12 223.799 21.8828   1
  -3   3 -12 187.723 19.9098   9
   3   3  12 221.480 19.9748   7
  -4  -3 -12 38.9624 7.95099   4
  -4  -3 -12 29.7282 6.64865   1
   4  -3  12 19.5286 3.90226   5
   4  -3  12 30.3360 4.56958   1
   4  -3  12 25.3232 4.47070   7
  -4   3 -12 30.8723 5.05763   7
   4   3  12 18.5104 3.56538   5
   4   3  12 23.7120 4.24917   1
  -4   3 -12 22.4869 5.90135   1
   4   3  12 29.8197 6.88591   9
   4   3  12 24.5382 3.87813   7
   5  -3  12 420.179 41.4689   5
   5  -3  12 431.706 41.5896   1
  -5  -3 -12 556.462 48.4954   4
   5  -3  12 471.467 42.1501   7
   5   3  12 465.259 41.2907   5
   5   3  12 543.185 41.7736   7
  -5   3 -12 399.280 42.3170   7
  -5   3 -12 422.061 42.9736   1
   5   3  12 460.359 41.9939   1
  -6  -3 -12 457.693 43.8887   7
   6  -3  12 456.381 42.2882   7
  -6  -3 -12 509.341 47.9129   4
   6  -3  12 465.894 41.6779   5
   6  -3  12 505.220 42.0280   1
   6   3  12 458.147 41.3332   5
  -6   3 -12 420.153 42.8769   1
  -6   3 -12 411.148 42.6570   7
   6   3  12 449.968 41.6763   7
   6   3  12 497.047 42.4498   1
   7  -3  12 99.6111 10.1940   1
   7  -3  12 96.7752 9.86593   5
  -7  -3 -12 72.6700 13.2465   4
  -7  -3 -12 95.2761 11.9358   7
   7  -3  12 91.2635 10.1168   7
  -7   3 -12 103.287 11.4491   1
  -7   3 -12 90.7170 11.7060   4
   7   3  12 104.312 9.43410   5
   7   3  12 91.6963 10.4894   1
  -7   3 -12 72.1243 10.4267   7
  -8  -3 -12 35.3528 6.95210   7
   8  -3  12 35.9325 5.07391   5
   8  -3  12 34.5141 5.46837   1
  -8  -3 -12 41.3760 8.61955   4
   8  -3  12 39.2868 5.55369   7
   8   3  12 42.2040 6.20463   1
  -8   3 -12 26.4633 5.49619   7
  -8   3 -12 40.2969 6.96843   4
   8   3  12 39.1473 5.94715   1
   8   3  12 37.3431 4.58063   5
  -9  -3 -12 206.293 26.2338   4
  -9  -3 -12 241.377 24.1994   7
   9  -3  12 232.955 22.1742   5
   9  -3  12 277.668 22.7276   7
   9  -3  12 228.853 22.8465   1
   9   3  12 279.194 23.1643   1
  -9   3 -12 246.097 25.2690   4
  -9   3 -12 190.273 22.9343   7
   9   3  12 245.730 23.1086   1
  10  -3  12 292.947 26.2082   1
 -10  -3 -12 304.938 27.7947   7
  10  -3  12 242.676 24.9853   5
 -10  -3 -12 270.470 29.7127   4
  10   3  12 265.064 25.9853   1
 -10   3 -12 293.173 28.6020   4
   9  -4 -12 42.4732 7.45449   1
  -9  -4  12 48.3141 5.15623   8
  -8  -4  12 17.7219 2.80691   8
   8  -4 -12 16.8343 4.86027   1
   8   4 -12 18.0593 2.52462   6
   7  -4 -12 5.13281 3.94248   4
   7  -4 -12 -0.9444 3.32149   6
  -7  -4  12 1.37817 1.61547   8
   7  -4 -12 2.09313 3.22858   1
  -7   4  12 -0.5733 2.46701   7
   7   4 -12 0.52302 1.47691   6
   6  -4 -12 292.654 28.9795   1
   6  -4 -12 261.848 29.4079   6
  -6  -4  12 303.581 26.9965   8
   6  -4 -12 316.715 31.5112   4
   6   4 -12 306.370 27.7090   6
  -6   4  12 301.976 28.0987   7
   5  -4 -12 27.3545 7.08034   4
   5  -4 -12 40.2433 6.99257   1
   5  -4 -12 33.6596 6.39320   6
  -5  -4  12 31.6938 4.52203   8
  -5   4  12 32.6736 5.23072   7
   5   4 -12 35.7562 4.82424   6
   4  -4 -12 71.4012 10.2262   6
   4  -4 -12 82.1210 11.5879   4
   4  -4 -12 75.2463 10.1650   1
   4  -4 -12 76.7622 8.01111  10
  -4  -4  12 66.0858 7.85053   8
  -4   4  12 67.5415 8.54396   7
   4   4 -12 73.6263 8.34639   6
   4   4 -12 82.8503 8.43183   1
   3  -4 -12 30.0317 6.54032   1
   3  -4 -12 28.3007 6.28712   6
   3  -4 -12 28.2499 7.13485   4
  -3  -4  12 25.9298 4.44593   8
   3  -4 -12 36.0776 5.46928  10
   3   4 -12 33.9207 5.12155   1
  -3   4  12 32.7971 4.94902   7
   3   4 -12 28.6927 4.73255   6
   2  -4 -12 570.560 48.4788   6
   2  -4 -12 549.674 47.2151   1
   2  -4 -12 517.027 51.2563   4
  -2   4  12 484.483 45.0999   5
   2   4 -12 447.780 45.4477   1
   2   4 -12 474.751 46.6024   6
   1  -4 -12 18.5025 5.04507   1
  -1  -4  12 21.9885 4.36388   7
   1  -4 -12 19.2914 6.66146   4
   1  -4 -12 16.9987 5.54792   6
   1  -4 -12 18.2363 2.82113   9
   1   4 -12 22.0669 4.30790   6
   1   4 -12 21.1197 4.45421   1
  -1   4  12 19.2040 3.67369   5
  -1   4  12 14.1227 3.41866   7
   0  -4 -12 193.754 22.2852   4
   0  -4 -12 232.663 21.4016   1
   0  -4  12 204.331 20.0921   7
   0  -4 -12 232.616 19.7200   9
   0   4 -12 189.686 19.9336  10
   0   4  12 178.240 19.0713   1
   0   4  12 228.658 19.6898   7
   0   4 -12 186.219 20.3566   6
   0   4 -12 206.905 20.3365   1
   0   4 -12 186.484 19.9646  10
   0   4  12 232.695 19.4401   5
  -1  -4 -12 51.1423 8.36080   4
  -1  -4 -12 51.3798 5.97143   9
  -1  -4 -12 58.0324 9.00272   1
   1  -4  12 47.5840 7.23719   7
   1   4  12 49.2661 6.23492   5
   1   4  12 49.7883 6.31468   7
  -1   4 -12 53.6299 8.06252   1
  -1   4 -12 53.3825 7.67086   6
   1   4  12 47.1087 8.19775   9
   1   4  12 58.2039 6.45798   1
  -1   4 -12 47.2254 5.85219  10
  -1   4 -12 43.3654 5.72350  10
  -2  -4 -12 643.697 66.3503   4
   2  -4  12 757.278 61.2602   5
   2  -4  12 763.096 62.1814   7
  -2  -4 -12 757.267 63.2756   9
   2   4  12 589.801 61.1591   7
  -2   4 -12 629.837 62.2442   1
   2   4  12 759.061 60.8329   5
  -2   4 -12 645.682 62.3228   9
  -2   4 -12 666.117 67.0105  10
   2   4  12 619.328 64.4313   9
  -2   4 -12 600.472 61.0300   7
   2   4  12 679.264 60.9475   1
  -2   4 -12 764.429 64.0736   6
  -3  -4 -12 10.5043 4.17918   4
  -3  -4 -12 9.42940 4.23769   1
   3  -4  12 11.9701 3.52753   7
   3  -4  12 9.37170 3.13626   5
   3   4  12 7.69703 4.09965   9
  -3   4 -12 9.28055 3.82089   6
   3   4  12 10.4524 3.17345   1
  -3   4 -12 6.96981 2.67841   7
   3   4  12 9.84943 2.65566   5
  -3   4 -12 11.9337 4.31048   1
   3   4  12 12.9052 3.01978   7
   4  -4  12 414.698 34.1563   7
   4  -4  12 330.319 33.2120   5
  -4  -4 -12 401.415 37.4079   4
  -4   4 -12 332.296 33.3630   7
   4   4  12 360.678 32.6879   5
   4   4  12 334.654 33.0860   7
   4   4  12 375.486 33.2993   1
  -4   4 -12 366.192 34.3117   1
   5  -4  12 36.6425 5.75522   5
   5  -4  12 40.0395 6.22612   7
  -5  -4 -12 38.9189 7.71137   4
   5  -4  12 46.0476 6.66481   1
   5   4  12 43.3162 5.29685   5
   5   4  12 49.6074 6.42105   1
   5   4  12 45.6442 5.64224   7
  -5   4 -12 46.3465 7.15986   1
  -5   4 -12 40.9699 6.18122   7
   6  -4  12 612.111 57.5430   5
  -6  -4 -12 654.697 63.8496   4
   6  -4  12 641.932 57.9786   1
   6  -4  12 558.588 58.0988   7
  -6   4 -12 700.417 58.6222   1
   6   4  12 632.620 58.0794   1
   6   4  12 691.024 57.6986   7
   6   4  12 658.529 56.9721   5
  -6   4 -12 637.883 58.4161   7
  -7  -4 -12 3.11117 3.96000   4
   7  -4  12 1.50404 2.46410   7
   7  -4  12 2.15596 2.22847   5
   7  -4  12 1.66836 2.74852   1
   7   4  12 1.93408 3.17752   1
  -7   4 -12 3.86296 3.17645   1
  -7   4 -12 3.68562 2.65042   7
   7   4  12 1.64755 1.80115   5
   8  -4  12 241.770 23.8955   7
  -8  -4 -12 259.205 27.4837   4
   8  -4  12 239.930 24.0527   1
   8  -4  12 210.588 23.2585   5
  -8   4 -12 260.369 24.2771   7
   8   4  12 262.666 22.8128   5
   8   4  12 305.186 24.7364   1
  -9  -4 -12 24.7984 6.59742   4
   9  -4  12 29.6753 4.68659   5
   9  -4  12 34.8435 5.34465   7
   9  -4  12 39.9647 5.95821   1
   9   4  12 38.8048 6.09207   1
  -9   4 -12 32.6737 5.34922   7
   9   4  12 27.4553 5.40343   1
  -9  -5  12 43.6411 4.90354   8
   9  -5 -12 39.1284 7.68462   1
  -8  -5  12 68.2419 6.41313   8
   8  -5 -12 49.5120 8.93141   1
  -8   5  12 47.2323 7.75312   7
   7  -5 -12 234.083 23.1706   6
  -7  -5  12 221.057 19.7787   8
   7  -5 -12 224.754 24.1034   4
   7  -5 -12 209.957 22.2055   1
   7   5 -12 204.810 19.9136   6
  -7   5  12 211.106 21.0486   7
   6  -5 -12 216.220 23.2811   1
   6  -5 -12 233.732 24.3990   6
  -6  -5  12 249.404 21.3707   8
   6  -5 -12 240.906 25.8372   4
   6   5 -12 221.977 21.6720   6
  -6   5  12 228.952 22.3964   7
   5  -5 -12 95.6092 10.9739   1
   5  -5 -12 86.5480 12.0665   4
   5  -5 -12 83.8252 11.2908   6
   5   5 -12 73.3638 8.58989   6
  -5   5  12 83.1436 9.55441   7
   4  -5 -12 86.8284 12.8868   4
   4  -5 -12 79.8903 10.9941   1
   4  -5 -12 103.207 12.1256   6
   4   5 -12 86.2048 9.71627   6
  -4   5  12 81.2540 9.92083   7
   4   5 -12 104.141 10.0655   1
   3  -5 -12 492.723 41.4852   6
   3  -5 -12 378.622 42.9893   4
   3  -5 -12 382.978 39.5998   1
  -3   5  12 424.203 38.7660   7
   3   5 -12 419.266 39.4909   6
  -3   5  12 434.218 38.4434   5
   2  -5 -12 554.203 60.1677   4
   2  -5 -12 601.148 55.6214   1
  -2   5  12 620.083 54.0132   5
   2   5 -12 675.128 54.8734   1
  -2   5  12 552.799 54.4349   7
   2   5 -12 601.861 55.8353   6
  -1  -5  12 43.6949 6.69293   7
   1  -5 -12 39.9280 7.75490   4
   1  -5 -12 52.1744 7.89093   1
  -1   5  12 50.0233 6.67384   1
  -1   5  12 44.9179 6.16510   7
   1   5 -12 37.9696 6.35925   6
   1   5 -12 38.2836 6.57355   1
  -1   5  12 43.8505 5.93864   5
   0  -5 -12 73.4911 9.39554   1
   0  -5  12 56.0873 8.25393   7
   0  -5 -12 53.7075 8.85666   4
   0   5  12 60.4878 7.40146   7
   0   5 -12 66.9425 8.36084   1
   0   5  12 53.6831 7.10612   5
   0   5 -12 60.7574 8.10398   6
   0   5  12 64.4361 7.33868   1
   1  -5  12 600.017 54.1926   7
  -1  -5 -12 699.223 55.3301   1
  -1  -5 -12 576.927 57.7668   4
  -1  -5 -12 541.152 54.9399   9
   1   5  12 646.463 53.1171   5
  -1   5 -12 536.322 53.8129   1
   1   5  12 605.933 53.2639   1
   1   5  12 562.878 53.4337   7
  -1   5 -12 593.298 55.2469   6
   1   5  12 578.607 56.1606   9
  -2  -5 -12 808.743 67.5889   1
  -2  -5 -12 754.776 71.9649   4
   2  -5  12 700.087 67.1721   7
  -2   5 -12 644.772 72.4975  10
   2   5  12 753.510 66.4212   1
  -2   5 -12 749.513 77.2075   3
   2   5  12 726.779 66.6131   7
   2   5  12 814.735 66.1123   5
  -2   5 -12 733.012 67.0041   1
  -2   5 -12 749.801 68.8196   6
   3  -5  12 5.63301 3.01420   5
  -3  -5 -12 5.76041 3.27527   4
  -3  -5 -12 1.22867 3.24055   1
   3  -5  12 1.84943 2.63374   7
  -3   5 -12 2.03342 2.81685   1
   3   5  12 7.42632 2.63667   7
   3   5  12 9.84486 3.14970   1
  -3   5 -12 6.28611 2.95341   6
  -3   5 -12 1.41628 1.96407   7
   3   5  12 1.19721 1.90898   5
  -4  -5 -12 4.33261 2.96920   4
   4  -5  12 5.70092 2.66530   5
   4  -5  12 2.94049 2.58274   7
   4   5  12 4.51307 2.25066   7
  -4   5 -12 6.14031 2.41258   7
   4   5  12 2.68743 2.59575   1
  -4   5 -12 6.50238 3.07164   1
   4   5  12 1.97335 2.08066   5
  -5  -5 -12 389.958 38.6463   4
   5  -5  12 319.552 35.0722   5
   5  -5  12 342.382 35.7113   7
   5   5  12 421.491 35.5754   1
   5   5  12 425.626 34.7011   5
   5   5  12 381.829 35.0155   7
  -5   5 -12 390.068 35.4935   7
  -5   5 -12 402.722 35.7810   1
   6  -5  12 372.950 36.6423   5
   6  -5  12 349.824 37.1388   7
  -6  -5 -12 412.612 40.5907   4
   6   5  12 416.876 36.0319   5
  -6   5 -12 443.936 37.2799   7
  -6   5 -12 415.340 37.2028   1
   6   5  12 401.761 37.1373   1
   7  -5  12 4.50078 2.55605   5
   7  -5  12 2.35931 2.71850   1
  -7  -5 -12 4.95872 3.78937   4
   7  -5  12 4.97230 2.84995   7
   7   5  12 0.48604 2.76598   1
   7   5  12 5.30153 2.00213   5
  -7   5 -12 4.94464 2.57070   7
  -7   5 -12 5.03555 2.69418   1
   8  -5  12 3.39780 2.33637   5
  -8  -5 -12 2.15164 3.75703   4
   8  -5  12 8.76149 3.01779   7
   8  -5  12 7.81217 3.25491   1
   8   5  12 2.26694 2.96633   1
  -8   5 -12 8.25317 3.01267   7
   9  -5  12 125.640 12.4512   7
   9  -5  12 97.9594 11.7268   5
   9  -5  12 137.157 13.0261   1
  -9  -5 -12 126.395 14.8326   4
   9   5  12 115.643 12.8603   1
   8  -6 -12 14.6030 4.35811   1
  -8   6  12 17.9030 4.37258   7
   7  -6 -12 -0.8668 3.67772   4
   7  -6 -12 0.29862 2.67358   1
  -7   6  12 0.34624 2.60126   7
   6  -6 -12 388.179 37.7968   6
   6  -6 -12 337.247 40.2438   4
   6  -6 -12 413.936 36.8463   1
  -6   6  12 399.244 36.7183   7
   6   6 -12 411.620 35.9364   6
   5  -6 -12 78.5777 8.98648   1
   5  -6 -12 62.8679 10.7526   4
  -5   6  12 61.8838 8.26636   7
   5   6 -12 68.9604 7.19950   6
   4  -6 -12 5.90156 4.81206   4
   4  -6 -12 3.33722 2.89113   1
  -4   6  12 12.9190 3.42992   7
   4   6 -12 3.84302 2.11457   1
   4   6 -12 3.64782 1.94916   6
  -4   6  12 5.86347 2.83097   5
   3  -6 -12 23.1163 4.92893   1
   3  -6 -12 23.5333 6.42763   4
  -3   6  12 29.3265 4.76399   5
   3   6 -12 24.5729 4.16097   1
  -3   6  12 22.2736 4.37887   7
   3   6 -12 20.6547 3.73835   6
   2  -6 -12 835.174 83.3290   1
   2  -6 -12 799.043 89.9830   4
   2   6 -12 883.961 85.0359   6
  -2   6  12 1043.53 83.7874   7
   2   6 -12 958.871 82.9765   1
  -2   6  12 1061.48 82.9888   5
  -1  -6  12 21.9815 4.69306   7
   1  -6 -12 16.7479 4.63698   4
   1  -6 -12 18.5466 4.04804   1
  -1   6  12 16.2951 3.62692   1
   1   6 -12 11.7586 3.32859   6
  -1   6  12 16.5761 3.63099   5
   1   6 -12 13.8121 3.70569   1
  -1   6  12 14.3712 3.65864   7
   0  -6  12 26.4757 5.38999   7
   0  -6 -12 29.8266 5.54377   4
   0  -6 -12 22.6045 4.38741   1
   0   6 -12 19.4886 4.21255   6
   0   6 -12 26.6896 4.71664   1
   0   6  12 21.3048 4.09818   1
   0   6  12 27.4541 4.37599   5
   0   6  12 21.6214 4.22132   7
  -1  -6 -12 156.218 17.0344   4
  -1  -6 -12 168.391 15.9515   1
   1  -6  12 144.862 16.2562   7
   1   6  12 148.215 15.6256   1
   1   6  12 167.939 15.4135   5
  -1   6 -12 144.737 15.9055   6
  -1   6 -12 155.890 15.7792   1
   1   6  12 164.662 15.5922   7
  -2  -6 -12 1214.69 119.449   4
  -2  -6 -12 1240.07 111.150   1
  -2   6 -12 1358.20 114.359   6
   2   6  12 1341.34 111.317   1
   2   6  12 1265.39 111.517   7
   2   6  12 1167.18 110.323   5
  -2   6 -12 1069.63 129.309   3
  -2   6 -12 1380.49 111.327   1
  -3  -6 -12 2.12545 2.72927   4
   3  -6  12 0.98395 2.81579   7
   3   6  12 0.59866 2.48358   1
   3   6  12 2.50206 2.20525   7
   3   6  12 3.84857 2.20516   5
  -3   6 -12 1.52172 2.52513   1
  -3   6 -12 1.33556 2.32325   3
   4  -6  12 9.81818 3.21215   5
   4  -6  12 9.30418 3.28421   7
  -4  -6 -12 6.92543 3.13934   4
  -4   6 -12 5.98098 3.22968   3
  -4   6 -12 11.3800 3.46656   1
   4   6  12 9.15944 3.45366   1
   4   6  12 17.0172 3.14189   7
  -4   6 -12 12.0486 2.85861   7
   4   6  12 14.3022 2.91404   5
   5  -6  12 264.986 25.9822   7
   5   6  12 269.437 24.6792   5
  -5   6 -12 289.669 25.4415   7
   5   6  12 266.082 25.7541   1
  -5   6 -12 258.952 25.4509   1
   6  -6  12 697.628 75.5892   7
  -6  -6 -12 887.690 80.9634   4
   6   6  12 873.421 74.0555   5
  -6   6 -12 864.886 75.3581   7
  -6   6 -12 824.943 74.9236   1
   6   6  12 881.995 75.2759   1
  -7  -6 -12 3.79756 3.07877   4
   7  -6  12 2.80663 2.82274   7
   7  -6  12 2.73884 2.58151   5
   7   6  12 2.15179 2.67580   1
  -7   6 -12 1.47689 2.45231   1
   7   6  12 2.85028 1.89017   5
  -7   6 -12 6.44613 2.70367   7
   8  -6  12 3.32044 3.50827   1
  -8  -6 -12 0.63198 3.13879   4
   8  -6  12 -0.0217 2.56314   7
   8  -6  12 2.50529 2.38036   5
  -8   6 -12 0.80144 2.11389   7
   8   6  12 4.47259 2.90929   1
   7  -7 -12 19.4061 5.72713   4
   7  -7 -12 25.6619 5.01349   1
  -7   7  12 27.4334 5.09252   7
   6  -7 -12 68.6292 11.9256   4
   6  -7 -12 91.9666 10.0084   1
  -6   7  12 89.4596 10.1313   7
   5  -7 -12 116.261 17.2343   4
   5  -7 -12 173.607 15.5199   1
  -5   7  12 154.453 15.5456   7
   4  -7 -12 230.322 20.7911   1
   4  -7 -12 198.727 23.5709   4
  -4   7  12 213.072 20.6278   5
   4   7 -12 199.889 19.9725   6
  -4   7  12 232.747 21.1410   7
   3  -7 -12 26.2172 6.10556   4
   3  -7 -12 37.5266 5.54126   1
   3   7 -12 35.7522 4.56727   6
   3   7 -12 40.2708 4.82571   1
  -3   7  12 46.0689 6.07659   5
  -3   7  12 35.1219 5.84199   7
   2  -7 -12 90.1246 10.8935   4
   2  -7 -12 74.3647 9.19044   1
   2   7 -12 79.7358 8.72434   1
  -2   7  12 91.7246 9.76047   7
   2   7 -12 77.6154 8.76180   6
  -2   7  12 98.7075 9.70335   5
   1  -7 -12 122.953 12.1499   1
   1  -7 -12 148.311 14.2182   4
   1   7 -12 112.002 12.0016   6
  -1   7  12 130.276 12.5752   7
  -1   7  12 129.787 12.5443   1
   1   7 -12 101.153 11.7359   1
  -1   7  12 100.430 12.0181   5
   0  -7  12 203.788 22.5094   7
   0  -7 -12 253.285 23.9041   4
   0  -7 -12 229.973 21.6286   1
   0   7  12 233.736 21.8240   5
   0   7 -12 218.431 22.0442   6
   0   7 -12 203.010 21.5236   1
   0   7  12 246.585 22.2411   7
   0   7  12 259.438 22.2283   1
  -1  -7 -12 25.0552 4.54593   1
   1  -7  12 33.5314 6.12830   7
  -1  -7 -12 29.3514 5.34278   4
   1   7  12 26.9167 4.97415   1
  -1   7 -12 35.9453 4.93860   6
   1   7  12 29.2020 4.83394   7
   1   7  12 29.9870 4.72432   5
  -1   7 -12 23.2890 4.30154   1
   2  -7  12 117.765 12.7647   7
  -2  -7 -12 132.411 12.6620   4
   2   7  12 111.229 11.7204   7
  -2   7 -12 113.578 11.5173   1
   2   7  12 110.686 11.3317   5
  -2   7 -12 107.418 11.6304   6
   2   7  12 84.1762 11.5784   1
  -3  -7 -12 69.7386 8.80749   4
   3  -7  12 59.6752 9.17105   7
   3   7  12 82.5978 8.46846   7
   3   7  12 79.0099 9.22031   1
   3   7  12 59.5499 7.71308   5
  -3   7 -12 79.3755 8.36770   1
  -4  -7 -12 227.388 23.8565   4
   4  -7  12 193.710 22.5128   5
   4  -7  12 210.309 23.0251   7
   4   7  12 259.509 21.8127   5
  -4   7 -12 238.131 22.1868   1
   4   7  12 276.993 23.2850   1
   5  -7  12 16.1808 4.21582   5
   5  -7  12 19.3289 4.58554   7
  -5  -7 -12 26.4683 4.76206   4
  -5   7 -12 23.9008 4.03894   7
  -5   7 -12 22.1165 4.02989   1
   5   7  12 24.8042 5.01710   1
   5   7  12 27.5301 3.81765   5
   6  -7  12 99.9095 12.6700   5
   6  -7  12 105.669 13.0776   7
  -6  -7 -12 143.973 13.7509   4
  -6   7 -12 146.506 12.6392   7
  -6   7 -12 95.4620 11.9469   1
   6   7  12 121.921 13.0658   1
   6   7  12 134.227 11.8415   5
   7  -7  12 57.1569 8.12334   5
  -7  -7 -12 82.5736 9.24047   4
   7   7  12 70.1133 8.60830   1
  -7   7 -12 68.8707 7.79258   7
  -7   7 -12 57.4272 7.55788   1
   6  -8 -12 187.823 17.8707   1
   6  -8 -12 169.881 20.4309   4
   5  -8 -12 31.5898 4.95617   1
   5  -8 -12 21.4027 5.80545   4
  -5   8  12 38.9606 5.77455   5
  -5   8  12 28.6786 5.46735   7
   4  -8 -12 10.8627 4.18521   4
   4  -8 -12 17.2643 3.55403   1
  -4   8  12 11.8877 3.78451   5
  -4   8  12 13.1404 3.84016   7
   3  -8 -12 86.6617 10.4510   4
   3  -8 -12 71.2033 8.71746   1
  -3   8  12 88.4692 9.70143   7
   3   8 -12 85.2393 8.02463   1
  -3   8  12 66.4746 8.99534   5
   2  -8 -12 313.561 30.9687   1
   2  -8 -12 382.700 34.0669   4
   2   8 -12 330.086 30.4780   1
  -2   8  12 313.806 31.2120   5
  -2   8  12 359.262 31.8773   7
   1  -8 -12 31.4785 5.52695   4
   1  -8 -12 26.9030 4.33265   1
  -1   8  12 24.3885 4.66317   5
   1   8 -12 34.5339 4.31763   1
  -1   8  12 27.7776 5.04098   7
  -1   8  12 26.0988 4.86771   1
   0  -8 -12 0.26567 1.90987   1
   0  -8  12 -2.3421 2.28608   7
   0  -8 -12 1.76906 2.58462   4
   0   8  12 0.88889 2.48614   1
   0   8 -12 2.53328 2.03145   6
   0   8  12 1.74376 2.29179   5
   0   8  12 3.41850 2.76940   7
   0   8 -12 3.40311 2.05351   1
   1  -8  12 144.584 16.4784   7
  -1  -8 -12 180.199 17.0889   4
  -1   8 -12 154.009 15.3652   1
   1   8  12 194.731 16.6687   1
  -1   8 -12 163.488 15.8299   6
   1   8  12 152.908 16.0849   7
   1   8  12 141.533 15.5797   5
   2  -8  12 380.653 35.8041   7
  -2  -8 -12 372.299 37.0683   4
   2   8  12 378.782 34.4446   5
   2   8  12 401.632 35.0881   7
  -2   8 -12 357.294 35.2153   6
   2   8  12 424.330 35.4021   1
  -2   8 -12 345.066 34.2372   1
   3  -8  12 17.4360 4.69478   7
  -3  -8 -12 17.3133 3.66750   4
  -3   8 -12 16.4633 3.33314   1
   3   8  12 16.0495 4.23049   1
   3   8  12 17.3269 3.45348   5
  -4  -8 -12 32.9196 5.06222   4
   4  -8  12 27.6043 5.79597   7
   4   8  12 32.0745 4.52418   5
   4   8  12 38.9046 6.16007   1
  -4   8 -12 23.2102 4.21880   1
  -5  -8 -12 190.919 19.4702   4
   5  -8  12 178.037 18.9709   5
   5  -8  12 182.358 19.3589   7
  -5   8 -12 163.965 17.7219   1
   5   8  12 179.289 18.8559   1
   5   8  12 225.633 17.7956   5
  -6  -8 -12 328.409 30.9946   4
   6  -8  12 312.109 29.5337   5
   6   8  12 304.548 29.3719   1
  -6   8 -12 295.869 28.4608   1
   4  -9 -12 458.641 39.7333   1
   4  -9 -12 442.090 43.1744   4
  -4  -9  12 434.734 39.2719   8
  -4   9  12 410.537 40.0463   5
  -3  -9  12 1.54199 2.18210   8
   3  -9 -12 -0.5981 1.90069   1
   3  -9 -12 0.18181 2.59522   4
   3   9 -12 1.98794 1.48135   1
  -3   9  12 1.32775 2.44589   5
  -3   9  12 -0.8754 2.57834   7
   2  -9 -12 14.1447 3.86691   4
   2  -9 -12 17.4446 3.28936   1
  -2   9  12 17.0585 3.88943   5
   2   9 -12 20.0175 2.91667   1
  -2   9  12 11.0267 3.55250   7
   1  -9 -12 296.878 27.6630   4
  -1   9  12 295.629 25.9580   5
  -1   9  12 275.916 26.2828   7
   1   9 -12 244.396 24.8926   1
  -1   9  12 272.994 26.3920   1
   0  -9 -12 444.669 43.0954   4
   0   9 -12 433.675 39.5320   1
   0   9  12 377.152 40.4995   1
   0   9  12 461.321 40.2336   5
   0   9  12 492.289 40.9728   7
   1  -9  12 3.43333 2.94853   7
  -1  -9 -12 1.62600 2.28064   4
  -1   9 -12 0.59542 1.74164   1
   1   9  12 3.05786 2.72827   7
   1   9  12 3.07769 3.11414   1
   1   9  12 1.41035 2.38261   5
  -2  -9 -12 27.3838 4.40712   4
   2  -9  12 20.6022 4.70300   7
   2   9  12 24.3078 4.12111   5
  -2   9 -12 23.8967 3.71312   1
   2   9  12 18.8313 4.68792   1
  -3  -9 -12 264.591 23.7700   4
   3  -9  12 205.670 23.0447   7
   3   9  12 264.364 22.0654   5
   3   9  12 210.212 22.6993   1
  -3   9 -12 221.081 21.7333   1
  -4  -9 -12 388.476 38.7636   4
  -4   9 -12 356.621 35.8974   1
   4   9  12 434.184 36.0325   5
   4   9  12 417.892 37.1160   1
 -10   0  13 2.23036 1.70645   8
  -9   0  13 10.4806 2.54584   8
  -8   0  13 0.36863 1.84065   8
   8   0 -13 -0.1470 1.98073   6
   7   0 -13 5.81066 2.54104   6
  -7   0  13 3.04557 2.08023   8
   7   0 -13 3.78353 2.40939   1
  -6   0  13 4.58337 2.56378   8
   6   0 -13 1.52782 1.92823   6
   6   0 -13 -1.8774 2.19821   1
   5   0 -13 1.79806 2.39233   6
  -5   0  13 2.55894 2.43235   8
   5   0 -13 4.29883 2.63280   1
  -4   0  13 6.28378 2.40049   7
   4   0 -13 -0.5172 2.18831   6
   4   0 -13 2.75871 2.68149   1
  -4   0  13 1.78728 2.50444   8
   3   0 -13 0.43795 2.46836   1
  -3   0  13 5.39455 2.28619   7
  -3   0  13 2.27942 2.69084   8
   3   0 -13 8.52527 3.02803   6
   2   0 -13 2.39464 1.10605  10
  -2   0  13 2.77194 2.88578   8
   2   0 -13 0.88402 0.89556  10
   2   0 -13 2.24160 2.69405   6
   2   0 -13 0.00563 2.17051   1
  -2   0  13 1.21269 1.94686   7
  -1   0  13 1.34834 1.84791   7
   1   0 -13 7.59208 2.48525   4
   1   0 -13 -1.3939 2.45425   6
   1   0 -13 2.34169 2.83451   1
   1   0 -13 1.08286 1.78471  10
   0   0  13 1.23256 1.93161   7
   0   0 -13 1.36004 2.32326   4
   0   0 -13 4.89310 3.01480  10
   0   0 -13 -0.2176 2.17428   6
   0   0 -13 5.38663 1.16515   9
   0   0 -13 1.34577 2.48016   1
   0   0  13 2.87300 1.76829   5
   1   0  13 3.27278 1.98889   5
  -1   0 -13 4.63402 3.09116   6
  -1   0 -13 3.78901 3.14462   1
   1   0  13 -0.2721 1.90868   7
  -1   0 -13 2.50456 2.81549   4
  -1   0 -13 1.95301 1.18077   9
   2   0  13 -1.5969 1.56482   5
   2   0  13 0.43346 1.76641   1
   2   0  13 0.73311 1.79541   1
   2   0  13 -0.2170 1.88461   7
  -2   0 -13 1.89898 1.30779   9
  -2   0 -13 -0.5669 3.23364   1
  -2   0 -13 5.56004 3.34207   4
  -2   0 -13 -0.7674 3.28933   6
   3   0  13 0.27137 1.85555   1
  -3   0 -13 0.24210 1.25881   9
  -3   0 -13 5.08413 3.49637   4
   3   0  13 0.85037 1.72427   5
  -3   0 -13 -1.0491 3.26130   7
  -3   0 -13 0.25789 3.61875   1
   3   0  13 1.09833 1.94296   7
   3   0  13 1.76590 2.09543   1
  -4   0 -13 3.33832 1.73459   9
   4   0  13 0.10252 1.72673   5
   4   0  13 1.57757 1.98881   7
  -4   0 -13 13.2423 5.03205   1
   4   0  13 2.77140 2.16294   1
   4   0  13 4.88040 4.18261   9
  -4   0 -13 9.88321 4.61415   7
  -4   0 -13 3.30901 3.56285   4
  -5   0 -13 -0.0770 1.56968   9
  -5   0 -13 1.23435 3.74568   4
  -5   0 -13 0.58217 3.43550   1
   5   0  13 2.68056 2.26505   1
   5   0  13 3.91870 2.11830   5
  -5   0 -13 -0.6903 3.25277   7
   5   0  13 -0.2052 1.81404   7
  -6   0 -13 3.91047 4.09093   7
  -6   0 -13 0.99005 4.03438   4
   6   0  13 1.82617 1.95718   5
   6   0  13 -0.1753 2.00113   1
   6   0  13 1.27016 1.96226   7
  -6   0 -13 1.35623 4.11833   1
  -7   0 -13 1.45907 3.40415   7
   7   0  13 0.56063 2.27166   1
  -7   0 -13 1.58987 4.53871   4
   7   0  13 2.45625 2.11727   5
   7   0  13 1.93102 2.12018   7
   8   0  13 2.18822 2.57867   1
  -8   0 -13 1.65646 4.68803   4
  -8   0 -13 6.47195 4.33826   7
   8   0  13 0.54347 1.69564   5
   8   0  13 0.67650 2.05809   7
   9   0  13 1.97261 1.90531   5
   9   0  13 2.91080 2.54074   1
  -9   0 -13 0.26217 3.99579   4
  -9   0 -13 -1.4070 3.24244   7
  10   0  13 3.13539 2.67661   1
 -10   0 -13 0.23224 3.89999   4
  10   0  13 1.67783 1.77561   5
 -10  -1  13 1.36501 1.71039   8
 -10   1  13 4.61723 2.08239   8
  -9  -1  13 37.5328 4.90744   8
  -9   1  13 45.0639 5.41891   8
  -8  -1  13 867.161 70.1282   8
   8  -1 -13 718.046 72.7781   6
   8  -1 -13 778.782 70.9416   1
  -8   1  13 825.368 70.4376   8
   8   1 -13 770.600 72.1814   6
   7  -1 -13 171.672 17.8935   6
   7  -1 -13 167.070 17.5486   1
  -7  -1  13 197.499 17.0907   8
  -7   1  13 205.554 17.5319   8
   7   1 -13 161.604 17.3543   6
  -6  -1  13 20.7669 3.79836   8
   6  -1 -13 25.1129 4.61259   6
   6  -1 -13 23.2036 4.57836   1
   6   1 -13 25.0457 4.08914   1
   6   1 -13 23.0152 3.95857   6
  -6   1  13 25.4516 4.46568   8
  -5  -1  13 85.7268 9.11486   8
   5  -1 -13 73.6392 9.35903   1
   5  -1 -13 83.5797 9.79284   6
   5   1 -13 98.7378 9.35822   1
   5   1 -13 68.7597 8.99689   6
  -5   1  13 104.075 10.1242   8
  -4  -1  13 1032.05 94.1583   8
   4  -1 -13 1101.27 97.4132   6
   4  -1 -13 1052.79 94.7553   1
   4   1 -13 1034.33 96.9321   6
  -4   1  13 961.484 94.7882   7
  -4   1  13 1181.08 94.8061   8
   4   1 -13 1099.46 94.4558   1
   3  -1 -13 354.564 32.7232   6
  -3  -1  13 294.844 30.9894   7
   3  -1 -13 288.159 31.5863   1
  -3  -1  13 371.467 31.6364   8
  -3   1  13 350.526 31.9838   8
  -3   1  13 331.845 31.3232   7
   3   1 -13 356.315 32.2338   6
   3   1 -13 377.884 31.4637   1
  -2  -1  13 33.0919 6.13560   8
   2  -1 -13 46.9853 4.98905  10
   2  -1 -13 61.2647 7.71012   1
   2  -1 -13 34.9353 6.05224   4
   2  -1 -13 35.5299 5.21899  10
  -2  -1  13 47.0869 5.62815   7
   2  -1 -13 65.4632 7.56067   6
   2   1 -13 44.9734 6.32015   6
   2   1 -13 39.0876 6.16143   1
  -2   1  13 40.8764 5.70376   7
   1  -1 -13 69.1329 9.07187  10
   1  -1 -13 56.3124 8.76470   4
   1  -1 -13 80.2780 7.99700  10
  -1  -1  13 69.9033 7.90345   7
   1  -1 -13 81.6936 9.47186   1
   1  -1 -13 67.6481 9.19176   6
  -1  -1  13 92.3047 9.71334   8
  -1   1  13 78.4185 8.22134   7
   1   1 -13 82.1978 9.10241   6
   1   1 -13 71.7716 8.85651   1
   1   1 -13 64.9757 7.72483  10
   1   1 -13 73.6381 7.67688  10
   0  -1  13 768.652 72.8491   7
   0  -1 -13 757.992 74.5996   9
   0  -1 -13 826.837 75.7162   6
   0  -1 -13 939.763 82.0965  10
   0  -1 -13 877.548 73.7287   1
   0   1 -13 808.446 73.3039   1
   0   1 -13 733.888 75.0501   6
   0   1 -13 745.825 79.9759  10
   0   1  13 873.089 72.3607   5
   0   1 -13 879.778 79.6672  10
   0   1  13 782.318 72.8886   7
   1  -1  13 360.877 32.0984   7
  -1  -1 -13 334.994 32.3495   9
   1  -1  13 359.505 31.7826   5
  -1  -1 -13 391.359 34.3571   6
  -1  -1 -13 361.346 33.2648   1
  -1   1 -13 317.528 33.5235   6
   1   1  13 362.391 31.9754   7
   1   1  13 331.085 31.6320   5
  -1   1 -13 353.265 32.1512   9
  -1   1 -13 312.218 32.8433   1
  -1   1 -13 344.674 35.3551  10
  -2  -1 -13 6.87973 3.99387   1
   2  -1  13 13.8998 3.08738   7
   2  -1  13 13.9478 3.19768   5
  -2  -1 -13 13.1751 4.63946   4
  -2  -1 -13 11.6128 2.46121   9
  -2   1 -13 15.0625 2.33097   9
  -2   1 -13 17.9914 4.64191   1
  -2   1 -13 21.9871 4.89821   6
   2   1  13 13.3081 3.02467   1
   2   1  13 14.9112 3.14507   7
  -2   1 -13 19.4486 5.26590   7
   2   1  13 10.8550 3.03392   5
   3  -1  13 20.4380 3.58092   1
   3  -1  13 18.0146 3.51963   7
  -3  -1 -13 19.1971 3.07695   9
  -3  -1 -13 12.9901 5.26155   1
  -3  -1 -13 16.2768 5.24383   4
   3  -1  13 13.6351 3.22051   5
  -3   1 -13 24.2236 5.65537   7
  -3   1 -13 16.7464 2.78714   9
  -3   1 -13 17.3684 4.26150   4
  -3   1 -13 16.2856 4.86133   1
   3   1  13 19.3810 3.46856   7
   3   1  13 19.2968 3.44436   5
   3   1  13 20.4670 3.61889   1
  -4  -1 -13 427.773 41.6111   4
   4  -1  13 430.537 36.5392   5
   4  -1  13 340.512 36.3070   1
   4  -1  13 404.332 36.8061   7
  -4  -1 -13 447.522 37.8974   9
  -4  -1 -13 418.448 39.3690   7
  -4  -1 -13 348.946 38.3336   1
   4   1  13 358.775 36.3885   1
  -4   1 -13 334.156 38.1079   1
   4   1  13 415.243 36.3751   5
  -4   1 -13 358.872 40.1385   4
   4   1  13 438.951 36.7297   1
  -4   1 -13 457.985 39.3506   7
  -4   1 -13 408.205 37.6235   9
   4   1  13 393.082 41.1376   9
   4   1  13 450.195 36.8165   7
  -5  -1 -13 360.972 33.8773   7
   5  -1  13 332.946 31.1812   5
  -5  -1 -13 332.024 36.3841   4
   5  -1  13 365.626 31.3794   1
  -5  -1 -13 328.668 33.5345   1
   5  -1  13 352.347 31.5282   7
  -5   1 -13 292.059 34.6533   4
   5   1  13 338.943 31.4112   7
   5   1  13 376.573 31.4968   1
   5   1  13 316.592 31.3981   1
  -5   1 -13 346.462 33.8096   1
   5   1  13 371.241 31.1803   5
  -5   1 -13 318.985 33.7129   7
   6  -1  13 10.3023 2.74221   7
   6  -1  13 7.09461 2.84691   1
  -6  -1 -13 5.99893 5.66669   4
  -6  -1 -13 8.56394 4.45958   7
   6  -1  13 9.65714 2.64372   5
  -6   1 -13 1.65367 3.52585   4
   6   1  13 7.85970 2.78874   1
  -6   1 -13 9.83803 5.08977   1
   6   1  13 9.52480 2.93323   1
   6   1  13 10.0332 2.62960   7
  -6   1 -13 9.45296 4.91314   7
   6   1  13 6.39279 2.30483   5
  -7  -1 -13 0.36275 4.70298   4
   7  -1  13 5.89016 2.67302   1
   7  -1  13 3.77392 2.16951   7
  -7  -1 -13 4.09799 3.88758   7
   7  -1  13 3.65392 1.95446   5
  -7   1 -13 3.36438 3.86035   4
   7   1  13 4.16327 2.29555   7
   7   1  13 4.21742 2.12559   5
   7   1  13 5.49199 2.65552   1
  -7   1 -13 6.45623 4.46443   7
  -8  -1 -13 248.379 23.8678   4
   8  -1  13 171.984 17.8491   1
   8  -1  13 170.825 17.3142   5
   8  -1  13 168.919 17.5585   7
  -8  -1 -13 157.663 19.3909   7
   8   1  13 192.199 17.2852   5
  -8   1 -13 223.272 21.8422   4
   8   1  13 204.559 18.2114   1
  -8   1 -13 169.701 19.9104   7
  -9  -1 -13 345.188 32.6723   7
   9  -1  13 340.601 30.1284   5
  -9  -1 -13 349.553 35.9961   4
   9  -1  13 308.995 30.6890   1
  -9   1 -13 308.523 32.5304   7
   9   1  13 360.484 30.0952   5
   9   1  13 316.522 30.7792   1
  -9   1 -13 324.707 34.8262   4
 -10  -1 -13 30.0917 7.37367   4
  10  -1  13 25.7635 3.92564   5
  10  -1  13 33.1368 5.16032   1
  10   1  13 37.4779 5.46196   1
 -10   1 -13 20.5918 6.21417   4
  10   1  13 27.1691 3.87620   5
 -10  -2  13 4.66801 1.94258   8
 -10   2  13 6.12465 2.50499   8
   9  -2 -13 139.114 15.7123   1
  -9  -2  13 165.588 14.6907   8
  -9   2  13 160.989 15.4922   8
  -8  -2  13 95.0134 8.90804   8
   8  -2 -13 81.3668 10.0727   1
   8   2 -13 80.6104 9.03222   6
  -8   2  13 97.2321 9.88927   8
   7  -2 -13 113.384 13.1185   6
  -7  -2  13 112.909 11.8904   8
   7  -2 -13 135.336 13.4697   1
   7   2 -13 130.621 12.3677   6
  -7   2  13 128.816 12.8385   8
   6  -2 -13 3.97716 2.57096   6
   6  -2 -13 4.08229 2.91888   4
   6  -2 -13 2.51650 2.92619   1
  -6  -2  13 0.87080 1.79828   8
   6   2 -13 1.86593 2.02991   6
  -6   2  13 -0.0414 2.50872   8
   5  -2 -13 184.741 23.8396   4
  -5  -2  13 264.659 22.2132   8
   5  -2 -13 228.373 23.0001   1
   5  -2 -13 268.448 23.7817   6
   5   2 -13 222.216 22.4894   6
  -5   2  13 253.845 22.6423   7
   5   2 -13 239.618 22.0350   1
   4  -2 -13 362.749 31.7051   1
   4  -2 -13 293.946 33.2471   4
   4  -2 -13 294.242 32.2219   6
  -4  -2  13 345.161 30.8657   8
   4   2 -13 372.569 30.8974   1
   4   2 -13 342.524 31.5543   6
  -4   2  13 334.077 31.1834   7
   3  -2 -13 146.030 15.0040   1
   3  -2 -13 144.388 15.3551   6
   3  -2 -13 117.729 15.2779   4
   3  -2 -13 132.085 14.5541  10
  -3  -2  13 133.424 14.2795   8
   3  -2 -13 162.893 14.4164  10
  -3   2  13 155.855 14.3732   7
   3   2 -13 125.687 14.3697   6
   3   2 -13 164.541 14.5128   1
   2  -2 -13 8.39081 3.36164   4
  -2  -2  13 6.45864 2.35288   7
   2  -2 -13 9.86203 2.00384  10
   2  -2 -13 4.45352 3.55774   1
  -2  -2  13 11.2551 3.33066   8
   2  -2 -13 11.9577 2.05889  10
   2  -2 -13 7.56806 3.45330   6
  -2   2  13 6.47653 2.63216   7
   2   2 -13 4.45790 2.68680   6
   2   2 -13 5.93731 2.91199   1
   1  -2 -13 334.431 38.1251   1
  -1  -2  13 404.573 37.5274   7
  -1  -2  13 352.431 37.5500   8
   1  -2 -13 467.171 39.7781   6
   1  -2 -13 413.617 37.7104   9
   1  -2 -13 444.921 42.4834  10
   1   2 -13 427.318 38.8160   6
  -1   2  13 459.116 37.2754   5
   1   2 -13 372.963 37.7426   1
  -1   2  13 420.954 37.5167   7
   0  -2 -13 470.259 47.5194   6
   0  -2 -13 443.024 49.8815   4
   0  -2  13 455.852 45.4740   7
   0  -2 -13 589.421 46.9167   1
   0  -2 -13 539.220 46.2700   9
   0   2  13 505.367 45.5280   7
   0   2  13 480.226 44.8839   5
   0   2 -13 516.790 47.3052   6
   0   2 -13 507.617 49.1302  10
   0   2 -13 453.590 49.2033  10
   0   2 -13 567.203 46.3092   1
  -1  -2 -13 157.375 17.6732   4
  -1  -2 -13 138.901 13.0161   9
  -1  -2 -13 140.292 14.8932   1
   1  -2  13 122.692 13.4200   7
  -1   2 -13 125.015 14.1061  10
  -1   2 -13 109.073 14.0029   1
  -1   2 -13 149.237 14.9438   6
   1   2  13 133.652 13.3529   7
  -1   2 -13 130.916 12.3766   9
  -1   2 -13 127.922 14.0830   7
   1   2  13 138.215 13.0632   5
   1   2  13 129.084 13.0611   1
  -2  -2 -13 4.66159 1.91431   9
  -2  -2 -13 2.15720 3.30584   1
   2  -2  13 6.06467 2.44671   5
   2  -2  13 4.71023 2.67167   7
  -2  -2 -13 4.77602 4.12573   4
   2   2  13 3.71680 2.30083   1
  -2   2 -13 4.40911 3.44997   1
  -2   2 -13 6.20479 1.71330   9
   2   2  13 5.79569 2.37234   5
  -2   2 -13 3.95896 3.04606   7
  -2   2 -13 2.72338 3.19915   6
   2   2  13 5.55633 2.31648   7
   3  -2  13 298.257 29.9361   5
  -3  -2 -13 388.344 31.2393   9
  -3  -2 -13 326.560 34.3813   4
   3  -2  13 293.298 30.3799   7
  -3  -2 -13 363.816 32.4509   1
  -3   2 -13 310.522 31.8082   1
   3   2  13 324.889 33.8569   9
  -3   2 -13 336.331 31.2679   7
   3   2  13 314.542 30.3227   7
   3   2  13 315.633 30.1955   1
   3   2  13 342.049 29.9210   5
   4  -2  13 345.190 32.7513   7
   4  -2  13 410.764 32.5239   5
  -4  -2 -13 341.362 34.7475   1
  -4  -2 -13 437.070 38.3053   4
   4  -2  13 317.770 32.3091   1
  -4  -2 -13 363.722 33.8021   9
  -4   2 -13 348.960 34.4370   1
   4   2  13 353.304 32.5650   1
   4   2  13 343.283 32.0158   5
  -4   2 -13 346.656 33.6055   7
   4   2  13 323.503 32.4604   7
  -5  -2 -13 95.1157 14.9883   4
  -5  -2 -13 91.1122 13.2195   1
   5  -2  13 91.8816 10.2871   7
   5  -2  13 104.808 10.3411   1
   5  -2  13 73.9400 9.73025   5
  -5  -2 -13 99.4998 13.1103   7
  -5   2 -13 80.6878 11.2207   7
   5   2  13 108.054 9.89153   5
  -5   2 -13 114.223 13.4288   1
  -5   2 -13 104.398 12.1538   4
   5   2  13 92.0864 9.99028   7
   5   2  13 109.178 10.5644   1
   6  -2  13 51.2118 6.98765   7
  -6  -2 -13 56.3227 9.52014   7
   6  -2  13 48.8461 6.69775   5
  -6  -2 -13 81.4041 12.9583   4
   6  -2  13 63.1821 7.22037   1
  -6   2 -13 61.8874 9.24790   4
  -6   2 -13 43.7033 8.57272   1
   6   2  13 47.1978 6.39269   5
   6   2  13 63.3332 7.47618   1
   6   2  13 68.9819 6.99480   7
  -6   2 -13 49.7580 8.06628   7
   6   2  13 75.9403 7.70911   1
  -7  -2 -13 231.842 24.1499   4
  -7  -2 -13 179.947 19.9337   7
   7  -2  13 174.807 17.5572   5
   7  -2  13 171.083 17.7591   7
   7  -2  13 185.648 17.8728   1
   7   2  13 187.965 17.3996   5
   7   2  13 215.367 18.3027   1
  -7   2 -13 135.652 18.5933   7
   7   2  13 197.725 17.6393   7
  -7   2 -13 214.329 21.1327   4
   7   2  13 174.848 18.1303   1
  -8  -2 -13 165.418 17.8638   7
  -8  -2 -13 154.638 20.2853   4
   8  -2  13 170.091 15.4878   5
   8  -2  13 148.328 15.7416   1
   8  -2  13 164.026 15.6338   7
   8   2  13 161.553 15.2033   5
   8   2  13 158.146 16.0807   1
   8   2  13 190.432 16.4024   1
  -8   2 -13 121.905 16.4924   7
  -8   2 -13 166.527 18.5636   4
  -9  -2 -13 44.2947 9.43635   4
   9  -2  13 44.6460 5.76070   7
   9  -2  13 41.4864 5.86207   1
   9  -2  13 34.2871 5.03366   5
  -9  -2 -13 32.2014 6.91237   7
  -9   2 -13 28.7199 6.03531   7
  -9   2 -13 45.3932 7.81508   4
   9   2  13 45.5560 6.32252   1
   9   2  13 39.5870 4.87655   5
  10  -2  13 94.9602 9.44125   1
 -10  -2 -13 65.3354 11.8906   4
  10  -2  13 67.5880 8.01878   5
 -10   2 -13 81.8464 11.0302   4
  10   2  13 78.8786 9.12748   1
  -9  -3  13 17.9975 2.87118   8
   9  -3 -13 14.3611 4.22935   1
  -8  -3  13 188.351 18.2864   8
   8  -3 -13 216.138 20.0769   1
   7  -3 -13 25.4314 5.19115   1
  -7  -3  13 20.9911 3.49849   8
   7  -3 -13 14.6053 4.40126   6
   7  -3 -13 22.5305 5.09242   4
   7   3 -13 22.9972 3.36379   6
  -6  -3  13 263.724 21.7858   8
   6  -3 -13 226.140 24.6269   4
   6  -3 -13 229.823 23.4908   6
   6  -3 -13 229.372 23.1026   1
  -6   3  13 242.664 22.4564   7
   6   3 -13 212.415 22.1231   6
  -5  -3  13 4.54123 2.35411   8
   5  -3 -13 12.7872 4.18809   1
   5  -3 -13 4.04097 2.98519   6
   5  -3 -13 3.94589 3.06235   4
  -5   3  13 4.61714 2.72164   7
   5   3 -13 5.69979 2.59393   1
   5   3 -13 6.06251 2.31656   6
   4  -3 -13 172.919 22.4812   4
  -4  -3  13 230.962 20.4075   8
   4  -3 -13 208.233 21.6932   1
   4  -3 -13 240.295 22.3945   6
   4   3 -13 226.778 20.5770   1
   4   3 -13 213.734 20.9006   6
  -3  -3  13 4.78233 2.36526   8
   3  -3 -13 5.35778 1.58514  10
   3  -3 -13 1.37659 2.27839  10
   3  -3 -13 6.76888 3.79785   1
   3  -3 -13 8.53355 3.83814   4
   3  -3 -13 5.30114 3.42097   6
   3   3 -13 4.20457 2.56456   1
   3   3 -13 4.16966 2.42959   6
  -3   3  13 1.00384 2.23191   7
   2  -3 -13 219.737 18.5490   9
  -2  -3  13 167.134 19.1043   7
   2  -3 -13 205.778 21.4492  10
   2  -3 -13 214.901 20.4418   1
   2  -3 -13 195.669 20.7994   6
  -2  -3  13 229.341 19.5719   8
   2  -3 -13 221.330 22.9328   4
   2   3 -13 181.546 19.7743   6
  -2   3  13 196.371 19.4121   7
   2   3 -13 174.602 19.3128   1
   1  -3 -13 53.5998 8.72883   1
  -1  -3  13 50.3445 7.14863   7
   1  -3 -13 51.7530 8.80373   6
   1  -3 -13 70.3190 11.3730   4
   1   3 -13 58.2369 7.84582   6
  -1   3  13 65.3766 7.26618   7
   1   3 -13 58.2445 7.76415   1
  -1   3  13 58.5614 7.12373   5
   0  -3  13 221.405 20.6658   7
   0  -3 -13 239.034 24.9370   4
   0  -3 -13 220.853 21.9565   1
   0  -3 -13 213.444 20.2150   9
   0   3 -13 215.137 21.4375   6
   0   3 -13 215.754 21.1431  10
   0   3  13 200.866 20.1567   7
   0   3  13 226.260 20.2329   5
   0   3 -13 183.469 20.9615  10
   0   3 -13 225.387 21.1197   1
   1  -3  13 68.6991 8.38445   7
  -1  -3 -13 66.2818 10.9721   4
  -1  -3 -13 69.4514 7.29536   9
  -1  -3 -13 63.1454 9.81735   1
   1   3  13 72.4161 7.69983   1
  -1   3 -13 60.4619 7.44121  10
  -1   3 -13 65.0268 7.53208  10
  -1   3 -13 48.8738 8.58023   1
  -1   3 -13 66.6763 9.05683   6
   1   3  13 71.7606 7.74918   7
   1   3  13 77.1690 7.91439   5
  -2  -3 -13 110.955 10.0287   9
  -2  -3 -13 93.8422 12.0648   1
  -2  -3 -13 83.2447 12.0569   4
   2  -3  13 89.7271 10.0172   5
   2  -3  13 96.1232 10.5938   7
   2   3  13 81.9576 9.76725   5
  -2   3 -13 88.5622 10.1000   7
   2   3  13 99.0670 12.2951   9
  -2   3 -13 98.8296 10.7590  10
  -2   3 -13 88.4410 11.6353   6
   2   3  13 86.5463 9.83874   1
  -2   3 -13 111.100 11.9742   1
   2   3  13 90.0104 9.89988   7
   3  -3  13 247.286 23.5117   5
   3  -3  13 235.193 23.7875   7
  -3  -3 -13 252.097 24.0485   9
  -3  -3 -13 254.777 25.6953   1
  -3  -3 -13 285.417 27.1267   4
   3   3  13 216.146 25.6578   9
   3   3  13 237.183 23.4210   7
  -3   3 -13 247.325 25.2564   1
  -3   3 -13 250.961 23.9252   7
   3   3  13 248.160 23.5409   1
   3   3  13 279.582 23.4170   5
   4  -3  13 149.945 15.1784   7
  -4  -3 -13 134.930 17.0124   1
  -4  -3 -13 165.121 18.2791   4
   4  -3  13 145.654 14.7352   5
  -4   3 -13 153.808 15.3998   7
  -4   3 -13 165.164 17.3052   1
   4   3  13 149.710 14.6498   7
   4   3  13 137.510 14.9014   1
   4   3  13 154.647 14.5727   5
   5  -3  13 201.749 18.2182   1
   5  -3  13 165.800 18.2232   7
  -5  -3 -13 215.922 22.7342   4
   5  -3  13 189.544 18.0297   5
   5   3  13 223.161 18.7952   1
  -5   3 -13 169.811 19.5085   1
   5   3  13 185.142 17.6954   5
  -5   3 -13 151.102 18.3725   7
   5   3  13 196.687 17.8636   7
   6  -3  13 7.93796 3.01575   7
   6  -3  13 8.74642 3.12137   1
   6  -3  13 9.40994 2.88511   5
  -6  -3 -13 17.8321 6.73590   4
   6   3  13 7.41758 2.46893   5
  -6   3 -13 8.83232 3.38618   7
   6   3  13 13.1328 2.76598   7
  -6   3 -13 5.11107 3.48136   1
   6   3  13 7.65901 3.24819   1
   7  -3  13 242.671 21.7275   7
  -7  -3 -13 228.113 25.6528   4
   7  -3  13 183.691 20.9540   5
   7  -3  13 242.613 21.6555   1
  -7  -3 -13 228.361 23.5779   7
  -7   3 -13 208.448 22.2415   1
   7   3  13 242.078 20.8534   5
  -7   3 -13 211.820 22.0683   7
   7   3  13 244.913 21.9975   1
   8  -3  13 44.2647 7.12080   1
  -8  -3 -13 66.5582 9.88525   7
   8  -3  13 65.7318 7.41189   7
  -8  -3 -13 64.9740 10.6268   4
   8  -3  13 50.4582 6.85797   5
   8   3  13 46.2801 7.40703   1
   8   3  13 67.4896 7.85635   1
  -8   3 -13 71.6488 9.51385   4
  -8   3 -13 45.5167 7.36784   7
   8   3  13 67.3363 6.47955   5
  -9  -3 -13 140.714 18.9326   4
   9  -3  13 152.306 15.1910   5
  -9  -3 -13 162.378 17.6576   7
   9  -3  13 159.415 15.5097   7
   9  -3  13 192.304 16.3779   1
   9   3  13 143.457 14.7694   5
   9   3  13 162.653 16.2346   1
   9   3  13 149.682 15.9938   1
  -9   3 -13 170.951 18.1092   4
  -9  -4  13 312.325 25.3475   8
   9  -4 -13 230.104 26.8968   1
  -8  -4  13 334.463 28.5677   8
   8  -4 -13 288.582 30.3336   1
   7  -4 -13 12.5974 4.48224   1
   7  -4 -13 14.4338 4.56442   6
  -7  -4  13 22.1444 3.42944   8
   7  -4 -13 18.3437 5.26669   4
  -7   4  13 23.2320 4.50238   7
   7   4 -13 18.9676 3.02483   6
   6  -4 -13 8.51076 3.87113   1
  -6  -4  13 5.12446 2.26280   8
   6  -4 -13 10.7719 4.44201   4
   6  -4 -13 6.44118 3.93153   6
  -6   4  13 8.85087 3.25508   7
   6   4 -13 8.83896 2.40384   6
  -5  -4  13 233.658 22.8781   8
   5  -4 -13 251.969 26.6162   4
   5  -4 -13 262.773 25.3830   6
   5  -4 -13 252.594 24.8862   1
  -5   4  13 237.517 23.6074   7
   5   4 -13 257.743 23.6631   6
  -4  -4  13 348.294 32.7179   8
   4  -4 -13 325.035 35.0274   6
   4  -4 -13 319.880 34.3645   1
   4  -4 -13 355.089 37.6162   4
   4   4 -13 416.676 33.2759   1
   4   4 -13 387.090 33.9052   6
  -4   4  13 350.831 33.5020   7
   3  -4 -13 21.6760 5.48788   1
   3  -4 -13 11.6227 3.94569  10
   3  -4 -13 14.8341 5.64478   4
   3  -4 -13 11.6506 4.90631   6
  -3   4  13 11.9102 3.35120   7
   3   4 -13 16.8198 3.99224   1
   3   4 -13 20.0132 3.79020   6
   2  -4 -13 20.4093 5.42466   1
   2  -4 -13 14.4639 5.96773   4
   2  -4 -13 12.5106 4.44325   6
   2   4 -13 12.4189 3.61009   1
  -2   4  13 15.0336 3.45056   5
   2   4 -13 10.8213 3.30431   6
  -2   4  13 11.2796 3.32460   7
   1  -4 -13 229.806 20.4082   1
  -1  -4  13 164.565 18.6267   7
   1  -4 -13 202.586 22.6939   4
  -1   4  13 198.074 18.3125   5
   1   4 -13 197.867 19.3045   6
  -1   4  13 186.347 18.4953   7
   1   4 -13 168.644 18.7999   1
   0  -4 -13 286.986 32.7850   4
   0  -4 -13 335.749 31.1365   1
   0  -4  13 287.036 29.7351   7
   0   4 -13 278.680 30.2800   6
   0   4  13 298.718 28.9535   1
   0   4 -13 327.555 30.1117   1
   0   4  13 333.895 29.0468   5
   0   4  13 363.529 29.5333   7
  -1  -4 -13 10.7721 4.81660   1
  -1  -4 -13 12.5034 4.77809   4
   1  -4  13 21.7052 4.51521   7
   1   4  13 11.6801 3.17880   7
  -1   4 -13 11.5581 2.45542  10
  -1   4 -13 13.6195 4.52493   1
  -1   4 -13 14.9396 2.59949  10
   1   4  13 10.6222 3.10978   1
   1   4  13 16.5141 3.46568   5
  -1   4 -13 13.8992 4.54727   6
   2  -4  13 4.23630 2.67973   7
  -2  -4 -13 2.63490 2.15409   9
  -2  -4 -13 4.63872 4.31662   1
  -2  -4 -13 -0.4521 3.36414   4
   2   4  13 4.47361 2.50149   1
   2   4  13 5.21833 2.55876   7
  -2   4 -13 4.18071 1.78236  10
   2   4  13 5.89624 3.45813   9
  -2   4 -13 -1.0225 3.18723   6
  -2   4 -13 1.33243 2.15144   7
  -2   4 -13 4.37257 3.98129   1
   2   4  13 5.12080 2.50017   5
   3  -4  13 162.622 17.7525   7
   3  -4  13 195.935 17.6622   5
  -3  -4 -13 172.683 19.2092   1
  -3  -4 -13 191.028 19.7318   4
   3   4  13 193.907 17.3554   1
   3   4  13 162.427 17.1448   7
   3   4  13 184.052 16.9697   5
  -3   4 -13 185.645 18.8601   1
  -3   4 -13 152.027 17.0064   7
   4  -4  13 331.701 30.1203   5
   4  -4  13 353.390 30.7794   7
  -4  -4 -13 349.341 33.6362   4
   4   4  13 324.739 30.1172   1
   4   4  13 334.057 29.5095   5
  -4   4 -13 292.240 30.0126   7
   4   4  13 297.250 29.8351   7
  -4   4 -13 315.897 31.1122   1
  -5  -4 -13 24.6008 6.32575   4
   5  -4  13 17.8431 4.27798   7
   5  -4  13 15.1444 3.98475   5
  -5   4 -13 19.3636 4.09012   7
   5   4  13 20.9331 3.66602   7
   5   4  13 23.1042 4.42962   1
   5   4  13 20.7932 3.49994   5
  -5   4 -13 22.0859 5.02485   1
   6  -4  13 43.7480 6.52390   7
   6  -4  13 48.4662 6.79016   1
   6  -4  13 37.6271 6.08616   5
  -6  -4 -13 68.8304 9.82414   4
   6   4  13 51.1174 6.02683   7
  -6   4 -13 46.9813 7.26220   1
   6   4  13 45.3551 5.58204   5
  -6   4 -13 44.6939 6.54646   7
   6   4  13 49.6515 7.16122   1
   7  -4  13 178.184 18.5032   5
   7  -4  13 236.431 19.5377   1
   7  -4  13 160.646 18.7781   7
  -7  -4 -13 198.795 22.1064   4
   7   4  13 213.138 19.5387   1
  -7   4 -13 185.568 19.3585   1
   7   4  13 188.038 18.0131   5
  -7   4 -13 209.628 19.3573   7
   8  -4  13 275.692 26.7860   1
   8  -4  13 253.589 25.9906   5
  -8  -4 -13 257.440 29.9233   4
   8  -4  13 295.656 26.6923   7
   8   4  13 320.163 25.5655   5
   8   4  13 307.679 27.0973   1
  -8   4 -13 250.427 26.6282   7
  -9  -4 -13 26.8164 6.55352   4
   9  -4  13 19.7873 3.86234   5
   9  -4  13 27.7723 5.02297   1
   9  -4  13 22.3722 4.06924   7
   9   4  13 20.2618 4.63058   1
   9   4  13 16.3150 4.30920   1
   8  -5 -13 22.6021 6.00356   1
  -8  -5  13 37.3136 4.50061   8
  -8   5  13 30.5222 5.60382   7
   7  -5 -13 17.7257 5.76786   4
   7  -5 -13 10.6053 4.70135   1
  -7   5  13 12.8845 3.85778   7
   6  -5 -13 460.980 44.9670   4
   6  -5 -13 397.857 41.9669   6
   6  -5 -13 482.007 41.6474   1
  -6   5  13 432.455 40.1460   7
   6   5 -13 419.769 39.9243   6
   5  -5 -13 25.4309 6.88856   4
   5  -5 -13 25.1703 6.59149   6
   5  -5 -13 24.9185 5.99067   1
   5   5 -13 22.3739 3.91438   6
  -5   5  13 29.2978 4.99776   7
   4  -5 -13 33.2003 7.01056   1
   4  -5 -13 23.8148 5.91053   6
   4  -5 -13 28.5736 7.34668   4
   4   5 -13 22.5489 4.20086   6
  -4   5  13 21.5822 4.57431   7
   4   5 -13 28.9949 4.87220   1
   3  -5 -13 10.2944 4.90519   1
   3  -5 -13 15.3446 5.58312   4
   3   5 -13 10.1164 3.26005   6
  -3   5  13 12.7636 3.41293   5
  -3   5  13 8.95976 3.18085   7
   3   5 -13 11.9975 3.77750   1
   2  -5 -13 669.854 53.8075   1
   2  -5 -13 486.710 57.4677   4
   2   5 -13 550.912 53.2132   6
  -2   5  13 501.119 51.9099   7
  -2   5  13 648.832 51.7608   5
   2   5 -13 585.442 52.2497   1
   1  -5 -13 61.6190 9.66750   1
   1  -5 -13 57.6932 9.94208   4
  -1  -5  13 64.3874 8.92291   7
   1   5 -13 62.9901 8.40717   6
  -1   5  13 63.1864 7.64712   5
  -1   5  13 61.7820 7.72503   7
   1   5 -13 58.0688 8.55917   1
   0  -5 -13 1.88547 3.30495   4
   0  -5  13 -0.7667 2.79367   7
   0  -5 -13 1.98820 3.78925   1
   0   5  13 1.00112 2.14766   5
   0   5 -13 0.07913 2.79827   6
   0   5  13 2.56370 2.40324   7
   0   5  13 4.15059 2.47825   1
   0   5 -13 -1.1806 2.90304   1
   1  -5  13 12.5667 4.03465   7
  -1  -5 -13 13.6474 5.32884   1
  -1  -5 -13 7.63255 3.84126   4
   1   5  13 9.79580 3.05731   1
  -1   5 -13 4.90121 3.51300   1
  -1   5 -13 3.94824 3.25639   6
   1   5  13 4.97533 2.63416   7
   1   5  13 6.46918 2.66708   5
  -2  -5 -13 434.853 42.0387   4
  -2  -5 -13 386.422 39.4297   1
   2  -5  13 356.719 38.9817   7
  -2   5 -13 426.966 39.1276   1
   2   5  13 443.307 38.5039   7
  -2   5 -13 420.590 40.0483   6
   2   5  13 453.716 38.4725   1
   2   5  13 377.367 37.8580   5
  -2   5 -13 456.988 44.4067   3
   3  -5  13 129.505 14.8016   7
  -3  -5 -13 135.944 15.2002   1
   3  -5  13 120.451 14.2668   5
  -3  -5 -13 157.267 16.3001   4
   3   5  13 133.931 14.2740   1
  -3   5 -13 135.446 14.8989   1
  -3   5 -13 144.325 16.2480   3
   3   5  13 154.244 13.9077   5
  -3   5 -13 144.579 14.0662   7
   3   5  13 139.956 14.1049   7
   4  -5  13 13.2110 3.83610   5
   4  -5  13 17.7514 4.33362   7
  -4  -5 -13 16.1284 4.71598   4
  -4   5 -13 17.4391 3.65972   7
  -4   5 -13 21.3956 4.83162   1
   4   5  13 19.1729 3.49621   5
   4   5  13 24.4483 4.38257   1
  -5  -5 -13 2.66738 3.31202   4
   5  -5  13 2.17934 2.45651   7
   5  -5  13 4.46566 2.74899   5
  -5   5 -13 0.34745 2.14666   7
   5   5  13 0.34169 2.74729   1
   5   5  13 -0.4800 2.02863   7
   5   5  13 3.51600 2.10834   5
  -5   5 -13 -0.4050 2.89411   1
  -6  -5 -13 202.247 20.1170   4
   6  -5  13 184.947 18.0671   7
   6  -5  13 145.016 17.2654   5
  -6   5 -13 177.689 17.9956   1
   6   5  13 179.493 18.0135   1
   6   5  13 186.153 16.8213   5
  -6   5 -13 186.788 17.7376   7
   7  -5  13 204.011 22.3518   7
  -7  -5 -13 239.146 25.1062   4
  -7   5 -13 218.356 22.2935   7
  -7   5 -13 243.559 22.6271   1
   7   5  13 254.317 21.4184   5
   7   5  13 235.867 22.7617   1
   8  -5  13 34.2797 5.64534   7
   8  -5  13 32.5963 5.25022   5
   8  -5  13 41.1431 6.49652   1
  -8  -5 -13 41.3722 7.64383   4
   8   5  13 32.2345 6.09218   1
  -8   5 -13 44.0828 5.90658   7
   7  -6 -13 6.49362 4.75509   4
   7  -6 -13 2.59651 3.52558   1
  -7   6  13 5.84400 2.99140   7
   6  -6 -13 44.7253 9.10113   4
   6  -6 -13 45.6482 7.46770   1
  -6   6  13 61.7948 7.60891   7
   5  -6 -13 111.905 14.5566   4
   5  -6 -13 102.179 12.0599   1
  -5   6  13 105.156 11.6438   7
   4  -6 -13 303.062 30.5537   4
   4  -6 -13 257.723 26.5494   1
  -4   6  13 264.471 26.2082   7
   4   6 -13 275.809 25.4598   1
   4   6 -13 285.905 26.0170   6
   3  -6 -13 13.2726 4.12506   1
   3  -6 -13 9.27946 5.13561   4
   3   6 -13 15.8607 3.33999   6
  -3   6  13 17.9384 3.81402   5
  -3   6  13 18.5528 4.13113   7
   3   6 -13 16.9449 3.65299   1
   2  -6 -13 72.6250 11.8637   4
   2  -6 -13 96.7934 10.6686   1
   2   6 -13 111.502 10.3042   1
  -2   6  13 89.5954 9.93061   5
   2   6 -13 79.1012 9.90008   6
  -2   6  13 89.4099 10.1183   7
   1  -6 -13 77.0111 11.6949   4
   1  -6 -13 92.9011 10.7558   1
  -1   6  13 102.081 10.5432   7
   1   6 -13 93.4477 10.5524   6
   1   6 -13 86.5969 10.2848   1
  -1   6  13 105.608 10.3606   5
   0  -6 -13 294.725 33.8789   4
   0  -6  13 355.404 32.4091   7
   0  -6 -13 340.599 31.6898   1
   0   6  13 353.480 31.4268   7
   0   6 -13 316.704 32.0541   6
   0   6  13 350.927 31.2392   1
   0   6 -13 311.521 31.3287   1
   0   6  13 370.245 31.1874   5
   1  -6  13 28.9739 5.57975   7
  -1  -6 -13 23.4927 5.27631   4
  -1  -6 -13 23.3502 5.03194   1
   1   6  13 24.3594 4.41715   5
   1   6  13 26.8469 4.59266   7
   1   6  13 32.6547 5.22489   1
  -1   6 -13 33.1824 5.44016   6
  -1   6 -13 31.9722 5.34866   1
  -2  -6 -13 132.764 14.0435   4
   2  -6  13 109.183 13.3162   7
  -2  -6 -13 128.938 13.0135   1
  -2   6 -13 134.765 13.0889   1
   2   6  13 99.2980 12.5508   1
   2   6  13 110.895 12.1819   5
  -2   6 -13 128.438 13.3040   6
   2   6  13 128.580 12.6540   7
   3  -6  13 81.8746 10.1715   7
  -3  -6 -13 73.8411 10.2832   4
   3   6  13 83.4785 9.25599   7
  -3   6 -13 75.5715 10.2167   3
  -3   6 -13 90.5564 9.90309   1
   3   6  13 85.4965 8.95420   5
   3   6  13 92.1603 9.96665   1
   4  -6  13 228.553 25.8077   5
  -4  -6 -13 264.373 27.8777   4
   4   6  13 302.411 25.6702   7
  -4   6 -13 269.365 26.0199   1
   4   6  13 274.699 26.1834   1
   4   6  13 296.668 25.2773   5
   5  -6  13 16.7348 4.31218   5
   5  -6  13 19.4986 4.68091   7
  -5  -6 -13 24.9770 5.00974   4
  -5   6 -13 27.3127 4.23756   7
   5   6  13 26.8767 3.94155   5
  -5   6 -13 24.1195 4.61237   1
   5   6  13 21.5416 4.49037   1
   6  -6  13 91.9051 11.4851   5
   6  -6  13 91.7308 11.8012   7
  -6  -6 -13 119.944 13.0066   4
   6   6  13 114.291 10.7303   5
  -6   6 -13 124.647 11.5834   7
   6   6  13 115.594 12.0232   1
  -6   6 -13 96.7700 11.3818   1
   7  -6  13 54.9184 7.55682   5
   7  -6  13 48.0207 7.76600   7
  -7  -6 -13 72.1186 9.22409   4
  -7   6 -13 59.0957 7.45479   1
  -7   6 -13 70.9492 7.75072   7
   7   6  13 65.0533 6.69399   5
   7   6  13 56.8548 8.03631   1
   6  -7 -13 500.136 41.5414   1
   6  -7 -13 378.849 45.3530   4
  -6   7  13 456.545 41.6624   7
   5  -7 -13 53.8112 7.54615   1
   5  -7 -13 41.2282 8.87561   4
  -5   7  13 59.5704 7.69701   7
   4  -7 -13 6.31509 4.50532   4
   4  -7 -13 9.08461 3.38416   1
  -4   7  13 9.52644 3.56301   7
  -4   7  13 17.5923 4.01114   5
   3  -7 -13 51.0712 9.00823   4
   3  -7 -13 49.7665 7.67996   1
  -3   7  13 59.3351 7.49076   5
   3   7 -13 59.5496 6.57850   1
  -3   7  13 67.7582 7.92838   7
   2  -7 -13 453.967 47.8598   4
   2  -7 -13 555.717 44.3258   1
  -2   7  13 409.773 43.7205   5
   2   7 -13 506.009 44.7116   6
   2   7 -13 434.936 43.4821   1
  -2   7  13 556.066 44.6971   7
   1  -7 -13 105.511 12.2253   4
   1  -7 -13 97.2497 10.3510   1
   1   7 -13 104.934 10.3730   6
   1   7 -13 89.3425 10.1196   1
  -1   7  13 85.5249 10.5897   7
  -1   7  13 98.2389 10.5615   5
   0  -7  13 27.1159 5.72697   7
   0  -7 -13 39.7783 6.44034   4
   0  -7 -13 39.3100 5.57306   1
   0   7  13 32.0374 5.36476   1
   0   7 -13 26.9301 4.86265   1
   0   7 -13 40.5479 5.36252   6
   0   7  13 38.1002 5.63465   7
   0   7  13 29.6030 5.17264   5
  -1  -7 -13 88.6049 9.65499   1
   1  -7  13 85.2927 10.7071   7
  -1  -7 -13 106.744 10.8688   4
   1   7  13 84.0526 9.27571   5
  -1   7 -13 81.7378 9.36992   6
   1   7  13 80.2514 9.55539   1
  -1   7 -13 65.2485 9.01911   1
   1   7  13 85.9045 9.64450   7
  -2  -7 -13 373.995 34.7149   4
   2  -7  13 375.554 33.5580   7
   2   7  13 367.584 32.5492   1
   2   7  13 304.632 31.6318   5
  -2   7 -13 339.956 32.0452   1
  -2   7 -13 327.707 32.7469   6
   2   7  13 356.820 32.3351   7
  -3  -7 -13 179.477 16.7577   4
   3  -7  13 135.982 16.1657   7
   3   7  13 152.529 14.9641   5
   3   7  13 162.417 15.4355   7
  -3   7 -13 147.703 15.3034   1
   3   7  13 142.610 15.8130   1
  -4  -7 -13 63.6383 8.11740   4
   4  -7  13 53.9938 8.34711   5
   4  -7  13 50.6091 8.00829   7
   4   7  13 77.9279 8.71408   1
  -4   7 -13 57.4015 7.29518   1
   4   7  13 57.1918 6.79482   5
   5  -7  13 45.7506 7.31420   5
  -5  -7 -13 54.8152 7.41253   4
   5  -7  13 44.7264 7.23998   7
  -5   7 -13 40.5032 6.23234   1
   5   7  13 59.1998 6.14708   5
   5   7  13 49.2405 7.37279   1
   6  -7  13 110.576 14.6561   5
  -6  -7 -13 144.574 15.7587   4
  -6   7 -13 135.060 14.2804   1
  -6   7 -13 163.429 14.5004   7
   6   7  13 157.951 13.9097   5
   6   7  13 150.470 15.2338   1
   5  -8 -13 3.85070 2.85937   1
   5  -8 -13 4.32219 3.86146   4
  -5   8  13 0.70257 2.49860   5
   4  -8 -13 134.564 12.1188   1
   4  -8 -13 92.2824 13.1793   4
  -4   8  13 104.981 12.2440   7
  -4   8  13 109.730 12.0037   5
   3  -8 -13 268.291 25.0834   4
   3  -8 -13 234.656 22.3748   1
  -3   8  13 211.458 22.4562   5
   3   8 -13 223.406 21.4937   1
  -3   8  13 255.052 23.1229   7
   2  -8 -13 610.339 56.0820   1
   2  -8 -13 676.413 61.0649   4
   2   8 -13 629.690 55.6760   1
  -2   8  13 619.381 57.0082   7
  -2   8  13 596.604 56.3141   5
   1  -8 -13 3.26365 2.22190   1
   1  -8 -13 -1.4854 2.71603   4
  -1   8  13 4.66848 2.66326   5
   1   8 -13 3.84167 2.16475   1
  -1   8  13 -0.9260 2.59986   7
   0  -8  13 120.701 13.7064   7
   0  -8 -13 123.129 12.5264   1
   0  -8 -13 152.326 14.3791   4
   0   8 -13 132.344 12.3923   1
   0   8  13 118.026 13.0673   7
   0   8  13 110.937 12.9370   1
   0   8  13 114.171 12.6950   5
   1  -8  13 203.755 21.4752   7
  -1  -8 -13 239.701 22.2573   4
   1   8  13 196.025 20.7249   7
  -1   8 -13 241.988 20.3876   1
   1   8  13 200.983 20.3788   5
   1   8  13 203.263 20.8881   1
   2  -8  13 465.587 51.1083   7
   2   8  13 557.750 50.6241   7
  -2   8 -13 575.223 49.9803   1
   2   8  13 652.274 51.0082   1
   2   8  13 532.741 49.8666   5
   3  -8  13 0.09311 3.44502   7
  -3  -8 -13 3.58485 2.58939   4
  -3   8 -13 1.26052 1.96257   1
   3   8  13 1.36158 3.13537   1
   3   8  13 2.09334 2.28965   5
  -4  -8 -13 66.0456 7.57130   4
   4  -8  13 65.3829 8.60212   7
   4   8  13 68.2052 8.24716   1
   4   8  13 49.6579 6.58333   5
  -4   8 -13 45.3840 6.48989   1
  -5  -8 -13 136.734 15.4804   4
   5  -8  13 121.259 15.1680   5
  -5   8 -13 160.777 14.3929   1
   5   8  13 149.847 14.0127   5
   5   8  13 150.451 15.4970   1
   2  -9 -13 44.2818 5.63103   1
   2  -9 -13 43.0716 6.62721   4
  -2   9  13 40.3135 6.19300   5
   2   9 -13 40.0170 4.91132   1
   1  -9 -13 11.9871 3.62230   4
  -1   9  13 17.9775 3.86019   5
   1   9 -13 13.0625 2.66725   1
   0  -9 -13 9.03980 3.19090   4
   0   9  13 8.88859 3.10524   5
   0   9  13 10.9476 3.60407   7
   0   9 -13 6.03839 2.29285   1
   0   9  13 9.74664 3.72327   1
  -1  -9 -13 2.53299 2.46381   4
   1  -9  13 -0.6445 2.64285   7
  -1   9 -13 3.43361 2.02313   1
   1   9  13 0.75147 2.85234   1
   1   9  13 3.23336 2.37824   5
   1   9  13 0.64942 2.40092   7
  -2  -9 -13 21.5663 3.99132   4
   2   9  13 15.5721 3.55564   5
  -2   9 -13 14.8397 3.08938   1
   2   9  13 13.0844 4.10561   1
  -9   0  14 66.0730 7.31365   8
  -8   0  14 145.920 14.1992   8
   7   0 -14 13.2670 3.31820   1
  -7   0  14 12.4973 3.18396   8
   7   0 -14 13.1025 3.14026   6
   6   0 -14 1627.56 144.892   1
   6   0 -14 1652.94 148.746   6
   5   0 -14 67.2388 8.60769   1
   5   0 -14 70.7222 8.70023   6
  -5   0  14 82.3033 8.88375   8
   4   0 -14 364.221 32.6433   6
  -4   0  14 347.144 31.7834   8
   4   0 -14 311.770 31.6479   1
   3   0 -14 25.8272 5.05326   1
  -3   0  14 25.6927 4.47405   7
   3   0 -14 28.5329 5.10373   6
  -3   0  14 20.1084 4.64258   8
   2   0 -14 3091.16 260.249   1
  -2   0  14 2957.79 261.169   7
   2   0 -14 2820.59 267.374   6
   1   0 -14 211.390 24.4290  10
   1   0 -14 263.554 23.9421   1
   1   0 -14 274.179 24.3256  10
   1   0 -14 224.862 24.2798   6
  -1   0  14 242.958 22.9289   7
   0   0 -14 375.109 32.9834   6
   0   0 -14 330.785 34.0785  10
   0   0  14 301.502 30.9282   7
   0   0 -14 349.162 32.0493   1
  -1   0 -14 16.8846 4.58105   1
   1   0  14 6.64967 2.46466   7
  -1   0 -14 8.35198 3.38050   4
  -1   0 -14 3.35551 3.11132   6
   1   0  14 8.54312 2.61404   5
  -2   0 -14 2905.59 242.872   1
   2   0  14 2562.49 240.300   5
   2   0  14 2777.55 242.635   7
   3   0  14 512.500 43.5381   1
  -3   0 -14 462.441 46.0157   7
  -3   0 -14 412.627 47.3608   4
   3   0  14 525.660 44.0383   7
  -3   0 -14 439.627 45.2647   1
   3   0  14 512.036 43.5239   5
   4   0  14 201.070 20.8763   7
  -4   0 -14 197.329 23.3548   4
   4   0  14 249.353 20.9149   5
  -4   0 -14 219.014 23.0930   1
  -4   0 -14 218.570 23.5587   7
   4   0  14 232.066 20.8961   1
   5   0  14 7.48266 2.72215   5
  -5   0 -14 7.47236 4.75798   7
   5   0  14 15.6779 3.41661   1
  -5   0 -14 8.87681 5.02104   1
   5   0  14 8.81880 2.76601   7
  -5   0 -14 10.1087 4.62156   4
  -6   0 -14 1381.29 149.882   1
  -6   0 -14 1784.37 151.451   7
   6   0  14 1541.67 147.445   5
  -6   0 -14 1684.68 160.831   4
   6   0  14 1957.59 149.110   7
   6   0  14 1710.68 148.198   1
   7   0  14 588.546 50.8304   7
  -7   0 -14 573.934 56.5450   4
   7   0  14 533.763 50.6779   1
   7   0  14 556.620 50.2779   5
   8   0  14 90.0694 9.62540   7
  -8   0 -14 90.1875 13.0921   4
   8   0  14 90.7603 9.37917   5
  -8   0 -14 73.4774 11.8914   7
   8   0  14 97.1956 10.1161   1
  -9   0 -14 13.8860 5.78029   4
  -9   0 -14 12.5519 5.06366   7
   9   0  14 14.1343 2.98696   5
   9   0  14 16.9172 4.07809   1
  -9  -1  14 57.8345 6.64688   8
  -9   1  14 60.9322 7.01971   8
   8  -1 -14 1.72853 2.57891   1
  -8  -1  14 1.34207 2.00436   8
  -8   1  14 1.59330 2.11589   8
   7  -1 -14 67.8821 7.76121   1
  -7  -1  14 63.1394 7.25340   8
   7  -1 -14 58.5124 7.71685   6
   7   1 -14 55.4744 7.33124   6
  -7   1  14 67.8750 7.65668   8
   6  -1 -14 3.76936 2.79247   6
  -6  -1  14 2.52192 2.09589   8
   6  -1 -14 3.62364 2.78191   1
  -6   1  14 4.38288 2.85346   8
   6   1 -14 2.02931 2.31830   6
   6   1 -14 2.32858 2.32280   1
  -5  -1  14 146.496 13.9345   8
   5  -1 -14 139.073 14.3128   1
   5  -1 -14 145.327 14.6206   6
   5   1 -14 134.847 14.0843   6
   5   1 -14 125.349 13.6973   1
   4  -1 -14 38.4794 6.49800   1
   4  -1 -14 39.1658 6.38775   6
  -4  -1  14 40.0706 6.08010   8
   4   1 -14 51.5903 6.38267   1
   4   1 -14 38.8091 6.00454   6
  -4   1  14 52.5463 7.18623   8
  -4   1  14 38.1179 5.83507   7
  -3  -1  14 107.315 12.4764   7
  -3  -1  14 126.503 13.1835   8
   3  -1 -14 124.415 13.7277   1
   3  -1 -14 135.879 14.0711   6
   3   1 -14 127.904 13.0579   1
  -3   1  14 137.870 12.9971   7
   3   1 -14 122.622 13.3216   6
   2  -1 -14 1.63422 3.17162   6
  -2  -1  14 3.68258 2.30679   7
  -2  -1  14 1.51055 3.14222   8
   2  -1 -14 2.49192 2.57750   4
   2  -1 -14 7.10580 3.55037   1
   2  -1 -14 4.76904 1.47640  10
  -2   1  14 1.83305 2.43783   7
   2   1 -14 0.32097 2.73199   1
   2   1 -14 0.84182 2.71348   6
  -1  -1  14 170.824 15.4089   7
   1  -1 -14 158.047 16.4553   1
   1  -1 -14 162.002 16.7467  10
   1  -1 -14 142.993 16.6515   4
   1   1 -14 147.338 16.2096   6
   1   1 -14 179.282 15.6208  10
   1   1 -14 161.206 16.1251   1
   1   1 -14 127.599 15.5068  10
  -1   1  14 155.384 15.4301   7
   0  -1 -14 104.677 13.1246   4
   0  -1  14 98.4362 11.6850   7
   0  -1 -14 139.670 13.7541   1
   0  -1 -14 127.150 13.9210  10
   0  -1 -14 132.157 13.8613   6
   0   1 -14 104.782 12.8258   1
   0   1 -14 126.416 12.1904  10
   0   1 -14 107.768 12.3673  10
   0   1  14 120.790 11.9198   5
   0   1  14 113.192 11.9405   7
   0   1 -14 113.819 13.0855   6
  -1  -1 -14 178.178 17.7260   1
   1  -1  14 171.383 16.0396   7
  -1  -1 -14 202.613 19.2812   6
   1  -1  14 150.036 15.7580   5
  -1  -1 -14 136.924 17.7263   4
  -1   1 -14 147.876 17.1638   1
   1   1  14 175.533 15.9161   5
   1   1  14 166.605 16.0218   7
  -1   1 -14 149.553 17.2974  10
  -1   1 -14 167.830 17.7089   6
   2  -1  14 36.7796 5.35513   5
   2  -1  14 42.4452 5.61596   7
  -2  -1 -14 45.3214 7.70903   1
  -2  -1 -14 25.6630 6.61677   4
  -2   1 -14 40.3492 7.60228   6
   2   1  14 45.4240 5.52688   5
   2   1  14 29.5491 4.91805   7
  -2   1 -14 30.2234 6.47812   1
   3  -1  14 98.4256 9.85497   7
  -3  -1 -14 75.7814 11.2052   4
   3  -1  14 89.6792 9.63117   5
  -3  -1 -14 90.8499 12.2166   1
   3   1  14 96.0562 9.82560   7
  -3   1 -14 86.6742 11.5680   1
   3   1  14 86.4346 9.53433   1
  -3   1 -14 91.9801 12.0212   7
   3   1  14 83.7030 9.42382   5
   3   1  14 89.4239 9.45815   1
   4  -1  14 108.700 10.1397   1
  -4  -1 -14 86.3456 12.3310   1
   4  -1  14 81.8630 9.80691   7
  -4  -1 -14 99.7831 12.7172   4
   4  -1  14 94.4316 9.94501   5
  -4  -1 -14 89.9728 13.2130   7
   4   1  14 85.3973 9.93429   1
   4   1  14 104.136 10.0962   1
  -4   1 -14 91.3404 11.6287   4
   4   1  14 92.9063 10.0098   7
  -4   1 -14 83.3784 12.8711   1
  -4   1 -14 102.363 12.5588   7
   4   1  14 95.2406 9.87279   5
   5  -1  14 106.368 10.5241   5
  -5  -1 -14 97.6175 13.2549   7
  -5  -1 -14 114.095 13.8502   1
  -5  -1 -14 107.709 13.7819   4
   5  -1  14 103.533 10.6407   7
   5  -1  14 95.3238 10.4520   1
  -5   1 -14 100.680 12.7632   4
   5   1  14 94.8286 10.5226   1
  -5   1 -14 111.373 13.4946   1
   5   1  14 92.1504 10.5688   1
   5   1  14 101.288 10.5319   7
  -5   1 -14 95.2728 12.6092   7
   5   1  14 96.9240 10.2478   5
   6  -1  14 100.368 11.6758   7
   6  -1  14 138.386 12.2993   1
  -6  -1 -14 136.137 15.8421   4
  -6  -1 -14 118.055 14.4633   7
   6  -1  14 99.0117 11.5594   5
  -6   1 -14 121.925 14.6145   4
  -6   1 -14 95.6411 13.7920   7
   6   1  14 134.747 12.0321   7
   6   1  14 110.750 11.5765   5
   6   1  14 123.363 12.1754   1
  -6   1 -14 104.861 14.6987   1
   7  -1  14 30.0408 4.92447   1
   7  -1  14 24.9633 4.34058   5
  -7  -1 -14 30.2195 7.97534   4
  -7  -1 -14 24.1096 6.47300   7
   7  -1  14 32.2112 4.90156   7
   7   1  14 32.1621 4.64475   7
  -7   1 -14 34.0179 6.99234   4
   7   1  14 30.1667 4.34729   5
   7   1  14 31.7385 5.18483   1
  -7   1 -14 28.2289 6.52660   7
   8  -1  14 32.6781 4.97063   5
  -8  -1 -14 35.4499 7.35017   7
  -8  -1 -14 42.0004 9.23094   4
   8  -1  14 48.6683 6.10694   1
   8  -1  14 46.0810 5.78878   7
  -8   1 -14 28.5264 6.93648   7
   8   1  14 34.2001 4.92446   5
  -8   1 -14 45.8066 8.11085   4
   8   1  14 34.6655 5.60385   1
  -9  -1 -14 19.3887 6.32395   7
   9  -1  14 20.6356 3.77300   5
   9  -1  14 22.2574 4.39284   1
  -9  -1 -14 30.3879 7.81720   4
   9   1  14 26.1616 4.94138   1
   9   1  14 26.2845 3.87565   5
  -9   1 -14 28.3629 6.91996   4
   9  -2 -14 107.234 12.3863   1
  -9  -2  14 117.378 11.4073   8
  -9   2  14 124.339 12.2011   8
  -8  -2  14 216.705 20.0647   8
   8  -2 -14 190.291 20.9260   1
  -8   2  14 242.373 20.8992   8
   7  -2 -14 10.7084 3.75540   1
  -7  -2  14 11.1960 2.84357   8
   7   2 -14 9.90905 3.14274   6
  -7   2  14 14.0808 3.66791   8
  -6  -2  14 1390.50 111.830   8
   6  -2 -14 1195.71 115.869   6
   6  -2 -14 1242.40 112.808   1
   6   2 -14 1297.94 112.114   1
   6   2 -14 1213.15 115.040   6
   5  -2 -14 100.737 14.4015   4
   5  -2 -14 130.107 14.1504   1
   5  -2 -14 143.009 14.7915   6
  -5  -2  14 148.817 13.5808   8
   5   2 -14 147.480 13.7937   6
   5   2 -14 142.240 13.5486   1
  -5   2  14 129.598 13.8392   7
   4  -2 -14 473.928 41.4628   6
   4  -2 -14 454.135 40.3193   1
  -4  -2  14 498.761 39.8008   8
   4  -2 -14 364.270 42.4802   4
  -4   2  14 390.574 39.8431   7
   4   2 -14 436.200 39.5617   1
   3  -2 -14 6.19756 3.07183   4
  -3  -2  14 5.60170 2.92107   8
   3  -2 -14 2.91888 2.95243   6
   3  -2 -14 6.31291 3.64188   1
   3   2 -14 3.55732 2.37748   6
   3   2 -14 4.03547 2.75294   1
  -3   2  14 3.89089 2.61410   7
   2  -2 -14 1690.73 158.046   6
   2  -2 -14 1749.43 154.106   1
  -2  -2  14 1917.13 153.110   8
   2  -2 -14 1477.50 168.826  10
  -2  -2  14 1721.59 153.768   7
   2  -2 -14 1778.38 168.530  10
  -2   2  14 1829.32 153.943   7
   2   2 -14 1607.41 153.212   1
   2   2 -14 1849.58 157.510   6
   1  -2 -14 143.024 16.7931  10
   1  -2 -14 165.966 16.3697   1
   1  -2 -14 185.696 17.0091   6
   1  -2 -14 121.762 16.4478   4
  -1  -2  14 141.161 14.8056   7
  -1   2  14 143.751 14.7889   7
  -1   2  14 142.538 14.7892   5
   1   2 -14 161.983 15.9660   6
   1   2 -14 150.692 15.5807   1
   0  -2 -14 549.545 51.0438   1
   0  -2 -14 518.681 54.4217   4
   0  -2 -14 637.783 52.8886   6
   0   2  14 505.802 49.9284   7
   0   2 -14 531.569 53.9893  10
   0   2 -14 547.524 50.6226   1
   0   2 -14 595.814 52.0979   6
   1  -2  14 48.1344 6.77632   7
  -1  -2 -14 49.2141 9.15412   4
  -1  -2 -14 39.6133 7.67947   1
   1   2  14 58.6886 6.86366   7
  -1   2 -14 52.0101 7.91828   1
  -1   2 -14 43.0091 6.28303  10
  -1   2 -14 63.9408 8.39204   6
   1   2  14 54.7618 6.51058   5
  -2  -2 -14 1691.68 146.956   1
  -2  -2 -14 1656.85 157.205   4
   2  -2  14 1872.62 146.606   7
  -2   2 -14 1485.59 146.433   7
   2   2  14 1692.79 144.653   5
  -2   2 -14 1883.30 146.868   1
  -2   2 -14 1477.97 150.146   6
   2   2  14 1549.28 146.040   7
   2   2  14 1521.50 145.008   1
  -3  -2 -14 170.043 19.9436   4
   3  -2  14 172.025 16.9196   5
  -3  -2 -14 201.601 19.8768   1
   3  -2  14 170.575 17.2613   7
  -3   2 -14 154.097 17.5249   7
   3   2  14 199.265 16.9089   5
   3   2  14 165.959 17.0812   7
  -3   2 -14 160.310 18.7079   1
   3   2  14 180.852 17.0601   1
   4  -2  14 559.086 48.1653   5
   4  -2  14 477.920 48.5140   7
  -4  -2 -14 512.345 50.5738   1
  -4  -2 -14 578.297 54.2526   4
   4   2  14 594.398 47.9691   5
   4   2  14 594.221 48.4747   1
   4   2  14 497.534 48.3815   7
  -4   2 -14 501.069 50.0760   1
  -4   2 -14 487.780 49.1289   7
   5  -2  14 38.6744 5.51445   5
   5  -2  14 45.5415 5.91193   7
  -5  -2 -14 34.3333 8.10792   1
   5  -2  14 45.5632 5.86472   1
  -5  -2 -14 61.9150 10.5607   4
  -5   2 -14 29.3270 5.92773   7
   5   2  14 31.3088 4.91035   5
   5   2  14 37.6250 5.61877   1
  -5   2 -14 49.3102 8.81767   1
   5   2  14 24.8193 5.08537   1
   5   2  14 37.6802 5.27589   7
  -6  -2 -14 1011.06 95.8637   7
   6  -2  14 862.890 92.4571   5
  -6  -2 -14 1164.12 103.733   4
   6  -2  14 1142.74 93.1685   1
   6  -2  14 934.063 93.4175   7
  -6   2 -14 901.517 94.3992   7
   6   2  14 1128.93 93.2785   1
  -6   2 -14 1175.19 101.281   4
   6   2  14 1206.07 93.5381   7
   6   2  14 1021.46 92.4338   5
   6   2  14 1018.37 93.2509   1
  -7  -2 -14 204.049 21.4698   7
  -7  -2 -14 243.529 25.1581   4
   7  -2  14 203.578 18.7994   5
   7  -2  14 175.155 18.8286   7
   7  -2  14 235.025 19.3398   1
   7   2  14 195.124 19.3593   1
  -7   2 -14 176.842 20.0985   7
   7   2  14 192.976 19.2410   1
  -7   2 -14 189.141 21.5726   4
   7   2  14 201.953 18.6108   5
   7   2  14 185.714 18.6789   7
  -8  -2 -14 334.137 35.5576   7
   8  -2  14 333.777 33.4770   7
   8  -2  14 399.934 33.8256   1
  -8  -2 -14 403.433 40.0246   4
  -8   2 -14 317.761 34.5508   7
   8   2  14 412.810 34.1778   1
  -8   2 -14 364.068 37.4347   4
   8   2  14 367.840 33.0377   5
   9  -2  14 0.67211 2.03644   5
   9  -2  14 -0.7502 2.51241   1
  -9  -2 -14 1.69850 5.02671   4
   9   2  14 0.62868 2.79672   1
  -9   2 -14 -1.0912 4.08671   4
   9   2  14 2.00033 1.95030   5
   9  -3 -14 137.935 14.3708   1
  -9  -3  14 128.014 12.6437   8
  -8  -3  14 48.7648 5.98717   8
   8  -3 -14 57.9627 8.04811   1
   7  -3 -14 112.768 13.4817   1
  -7  -3  14 127.951 12.2441   8
   7  -3 -14 130.286 14.5311   4
   6  -3 -14 52.6957 8.42683   1
   6  -3 -14 59.6713 9.09228   4
  -6  -3  14 70.3562 7.15209   8
   6  -3 -14 55.9940 8.42679   6
  -6   3  14 54.0103 7.63293   7
   6   3 -14 58.4503 7.02762   6
   5  -3 -14 198.058 22.4650   4
   5  -3 -14 212.653 21.5125   1
   5  -3 -14 219.784 22.1331   6
   5   3 -14 214.369 20.8069   6
   5   3 -14 198.781 20.2932   1
  -5   3  14 243.864 21.0499   7
   4  -3 -14 128.153 13.1136   1
   4  -3 -14 100.065 12.9298   6
   4  -3 -14 110.335 13.5187   4
  -4  -3  14 124.994 11.8923   8
   4   3 -14 113.633 11.9115   1
   4   3 -14 104.178 11.9416   6
   3  -3 -14 203.768 19.4064   1
  -3  -3  14 195.559 18.3252   8
   3  -3 -14 144.427 19.9176   4
   3  -3 -14 223.499 20.2088   6
   3   3 -14 189.524 18.4205   1
  -3   3  14 178.197 18.3805   7
   3   3 -14 188.327 18.7433   6
  -2  -3  14 111.190 12.0657   8
   2  -3 -14 125.255 13.5659   1
   2  -3 -14 123.799 13.5584   6
  -2  -3  14 93.2549 11.7773   7
   2  -3 -14 109.609 14.2078   4
   2  -3 -14 98.9003 12.7627  10
   2   3 -14 126.991 12.4863   1
   2   3 -14 130.871 12.6959   6
  -2   3  14 112.492 12.0488   7
  -1  -3  14 267.078 26.4753   7
   1  -3 -14 270.865 27.7458   1
   1  -3 -14 237.370 29.5899   4
   1  -3 -14 340.189 28.9195   6
   1   3 -14 276.137 27.3406   6
   1   3 -14 305.496 26.9861   1
  -1   3  14 283.127 26.3539   7
  -1   3  14 268.899 26.1987   5
   0  -3 -14 214.437 20.1877   1
   0  -3  14 154.038 18.2544   7
   0  -3 -14 192.162 22.4493   4
   0   3  14 199.916 18.2643   5
   0   3  14 183.019 18.1442   7
   0   3 -14 180.748 19.3144   6
   0   3 -14 201.659 19.2269   1
   1  -3  14 171.716 17.8876   7
  -1  -3 -14 163.503 20.6337   4
  -1  -3 -14 194.109 19.3340   1
   1   3  14 172.741 17.3359   7
  -1   3 -14 173.185 18.1263  10
  -1   3 -14 162.655 18.4690   1
  -1   3 -14 195.280 19.0632   6
   1   3  14 196.175 17.4944   5
   2  -3  14 151.050 16.8638   5
  -2  -3 -14 163.710 18.7891   1
   2  -3  14 162.440 17.5091   7
  -2  -3 -14 155.070 19.6281   4
   2   3  14 184.543 17.0912   7
   2   3  14 181.424 17.0234   1
  -2   3 -14 200.656 18.9849   1
   2   3  14 201.519 17.1869   5
  -2   3 -14 172.214 18.2222  10
  -2   3 -14 161.970 16.9675   7
  -2   3 -14 187.112 18.9907   6
   3  -3  14 194.879 21.0647   7
  -3  -3 -14 205.682 23.7558   4
   3  -3  14 229.951 20.8765   5
  -3  -3 -14 234.295 23.3168   1
  -3   3 -14 170.935 20.6811   7
   3   3  14 234.088 20.9534   1
   3   3  14 255.141 21.0067   7
   3   3  14 219.164 20.6344   5
  -3   3 -14 227.392 22.8408   1
   4  -3  14 203.286 19.6716   5
  -4  -3 -14 226.761 22.8972   1
   4  -3  14 213.144 20.1967   7
  -4  -3 -14 228.648 23.3443   4
   4   3  14 224.305 20.0998   1
   4   3  14 215.036 19.6524   7
   4   3  14 189.630 19.3715   5
  -4   3 -14 162.669 19.7710   7
  -4   3 -14 214.318 22.0133   1
   5  -3  14 103.380 11.2526   5
  -5  -3 -14 134.763 15.3842   4
   5  -3  14 102.930 11.4242   7
  -5   3 -14 97.7224 12.8883   1
   5   3  14 111.472 11.0061   7
   5   3  14 106.194 10.9083   5
  -5   3 -14 91.5070 11.5598   7
   5   3  14 114.547 11.7378   1
   6  -3  14 155.441 16.9738   7
   6  -3  14 135.381 16.4229   5
  -6  -3 -14 194.849 21.6634   4
   6  -3  14 198.578 17.2168   1
  -6   3 -14 163.034 17.5309   7
   6   3  14 193.144 16.6926   7
   6   3  14 174.326 16.4227   5
   6   3  14 197.496 17.6155   1
  -6   3 -14 150.246 17.8631   1
   7  -3  14 101.688 11.9139   7
  -7  -3 -14 137.925 16.3551   4
   7  -3  14 119.541 12.2321   1
  -7   3 -14 100.230 12.4344   7
  -7   3 -14 104.364 12.8092   1
   7   3  14 117.304 11.3515   5
   7   3  14 130.457 12.8252   1
   7   3  14 113.499 12.4995   1
   8  -3  14 129.020 13.4700   5
  -8  -3 -14 132.836 17.4128   4
   8  -3  14 142.073 14.0968   1
   8  -3  14 138.942 13.7560   7
   8   3  14 155.885 14.4907   1
  -8   3 -14 113.232 14.0762   7
   8   3  14 148.356 13.0497   5
   8   3  14 116.042 14.0892   1
  -9  -3 -14 42.7474 8.57992   4
   9  -3  14 32.3088 5.14999   5
   9  -3  14 51.6131 6.77724   1
   9   3  14 42.5790 6.39036   1
   9   3  14 37.3503 4.92542   5
   8  -4 -14 431.056 43.6841   1
  -8  -4  14 500.108 42.1207   8
   7  -4 -14 97.7707 12.5619   4
   7  -4 -14 79.3197 11.4601   1
  -7  -4  14 108.515 10.0721   8
  -6  -4  14 357.163 31.1411   8
   6  -4 -14 325.494 32.7849   1
   6  -4 -14 327.156 33.3202   6
   6  -4 -14 297.584 34.7997   4
  -6   4  14 391.185 32.2757   7
  -5  -4  14 -0.7294 1.82321   8
   5  -4 -14 -1.2270 3.12015   6
   5  -4 -14 2.45638 3.34482   4
   5  -4 -14 -1.4512 3.00475   1
   5   4 -14 0.23225 2.02933   6
  -5   4  14 0.38315 2.52566   7
   4  -4 -14 790.506 71.0945   6
   4  -4 -14 756.684 69.0848   1
   4  -4 -14 742.958 74.2613   4
  -4  -4  14 763.373 67.4082   8
   4   4 -14 847.282 68.0233   1
   4   4 -14 694.719 69.3831   6
  -4   4  14 710.993 68.3690   7
   3  -4 -14 65.5259 9.78844   1
   3  -4 -14 66.4404 10.8587   4
   3  -4 -14 70.2689 10.2028   6
   3   4 -14 60.7352 7.89706   6
   3   4 -14 60.6995 8.02845   1
  -3   4  14 59.2023 7.92874   7
   2  -4 -14 695.288 57.7102   1
   2  -4 -14 643.128 62.8810   4
  -2   4  14 698.497 56.0597   5
   2   4 -14 531.660 56.1920   1
   2   4 -14 563.134 57.5811   6
  -1  -4  14 2.10358 3.04556   7
   1  -4 -14 5.68101 3.97541   1
   1  -4 -14 0.44736 4.58451   4
  -1   4  14 7.82343 3.02092   5
   1   4 -14 9.36754 3.70135   1
  -1   4  14 5.73464 2.74915   7
   1   4 -14 5.17357 3.19379   6
   0  -4  14 760.890 77.8800   7
   0  -4 -14 790.310 78.6025   1
   0  -4 -14 834.365 84.6539   4
   0   4 -14 878.056 78.0595   1
   0   4  14 931.865 76.9450   5
   0   4  14 890.698 77.6489   7
   0   4 -14 945.121 80.0530   6
   1  -4  14 18.5065 4.54580   7
  -1  -4 -14 13.7246 5.19866   1
  -1  -4 -14 16.1623 5.28274   4
   1   4  14 18.3081 3.87903   5
  -1   4 -14 15.7510 5.01766   1
   1   4  14 19.2481 3.82328   1
   1   4  14 16.4959 3.71918   7
  -1   4 -14 17.5457 5.01494   6
  -2  -4 -14 745.817 64.7984   4
   2  -4  14 581.751 59.5941   7
  -2  -4 -14 699.668 60.9311   1
   2   4  14 672.630 58.6211   5
  -2   4 -14 668.458 61.7083   6
  -2   4 -14 624.575 60.3031   1
   2   4  14 683.436 58.8270   1
   2   4  14 581.094 59.0646   7
   3  -4  14 2.79845 3.09328   7
   3  -4  14 3.13776 2.58094   5
  -3  -4 -14 4.59473 4.71770   1
  -3  -4 -14 4.89468 3.95376   4
   3   4  14 5.92445 2.83627   1
   3   4  14 2.73329 2.48794   7
  -3   4 -14 6.24662 4.11902   1
   3   4  14 3.47991 2.47925   5
  -3   4 -14 5.62716 2.56522   7
   4  -4  14 746.893 69.2099   7
  -4  -4 -14 749.669 74.6190   4
   4  -4  14 749.434 68.4542   5
   4   4  14 808.140 68.7613   7
   4   4  14 827.492 67.9611   5
  -4   4 -14 746.061 68.7907   7
  -4   4 -14 750.407 69.6034   1
   4   4  14 723.186 68.5010   1
   5  -4  14 12.3788 3.79061   7
   5  -4  14 11.1501 3.42184   5
  -5  -4 -14 22.1230 6.14229   4
  -5   4 -14 13.6749 4.54911   1
   5   4  14 19.5942 4.30628   1
  -5   4 -14 16.8515 3.90640   7
   5   4  14 18.8647 3.39353   5
   5   4  14 14.0360 3.44473   7
  -6  -4 -14 414.788 40.6547   4
   6  -4  14 369.043 35.8603   5
   6  -4  14 346.594 36.3253   7
   6   4  14 432.920 35.9722   7
   6   4  14 423.955 35.4218   5
  -6   4 -14 374.103 36.7418   1
  -6   4 -14 366.736 36.3651   7
   6   4  14 406.737 36.5773   1
   7  -4  14 3.80504 2.65570   5
   7  -4  14 2.95154 2.59651   7
  -7  -4 -14 1.72798 3.67668   4
  -7   4 -14 2.74044 2.85494   1
   7   4  14 3.39786 2.10470   5
  -7   4 -14 2.89845 2.69011   7
   7   4  14 2.97747 3.14687   1
   8  -4  14 465.581 46.1713   5
   8  -4  14 450.603 46.6873   7
   8  -4  14 549.344 47.1668   1
  -8  -4 -14 531.243 51.8803   4
  -8   4 -14 489.295 47.5708   7
   8   4  14 559.631 45.7230   5
   8   4  14 568.699 47.2494   1
   8   4  14 499.948 47.0374   1
   7  -5 -14 41.4472 7.74471   1
   7  -5 -14 42.0105 8.19486   4
  -7   5  14 42.6147 6.63169   7
   6  -5 -14 22.7800 6.40265   4
   6  -5 -14 20.8233 5.95047   1
  -6   5  14 27.2212 4.94741   7
   5  -5 -14 63.4453 10.8838   4
   5  -5 -14 50.0041 8.90013   6
   5  -5 -14 60.5269 9.76054   1
  -5   5  14 77.2241 8.52973   7
   4  -5 -14 10.0290 4.50738   1
   4  -5 -14 9.72645 5.80458   4
   4   5 -14 7.48457 3.44170   1
  -4   5  14 7.69963 3.31126   7
   4   5 -14 11.0471 3.12495   6
   3  -5 -14 63.9629 10.1543   1
   3  -5 -14 65.6453 11.6534   4
   3   5 -14 72.3408 8.77641   1
  -3   5  14 67.2846 8.33225   7
   3   5 -14 61.0282 8.26314   6
   2  -5 -14 94.2577 11.5762   1
   2  -5 -14 70.6017 13.1051   4
   2   5 -14 84.2563 10.2240   1
  -2   5  14 77.4469 9.57368   7
  -2   5  14 79.2864 9.41018   5
   2   5 -14 85.7411 9.96170   6
   1  -5 -14 144.642 15.6161   1
  -1  -5  14 125.871 13.8500   7
   1  -5 -14 94.2304 15.4732   4
  -1   5  14 119.006 12.9761   5
   1   5 -14 128.545 13.9765   6
  -1   5  14 136.576 13.3244   7
   1   5 -14 129.020 13.9420   1
   0  -5 -14 17.6593 6.10924   1
   0  -5  14 25.0623 5.25637   7
   0  -5 -14 17.7253 5.51713   4
   0   5  14 11.6278 3.42461   5
   0   5 -14 16.6547 4.49451   6
   0   5 -14 17.1074 4.75928   1
   0   5  14 11.7856 3.53131   7
  -1  -5 -14 54.3522 8.93937   1
   1  -5  14 46.4473 7.57094   7
  -1  -5 -14 36.3552 7.34396   4
   1   5  14 44.8808 6.10527   7
  -1   5 -14 46.0028 7.39609   1
  -1   5 -14 42.7832 7.00565   6
   1   5  14 36.0393 5.78925   5
   1   5  14 39.2885 5.95430   1
   2  -5  14 69.6511 9.67594   7
  -2  -5 -14 83.1628 10.7253   4
  -2  -5 -14 85.9431 11.4279   1
  -2   5 -14 73.6844 9.96552   6
  -2   5 -14 81.6732 9.91893   1
   2   5  14 73.6197 8.83119   7
   2   5  14 78.1530 8.97442   1
   2   5  14 70.0297 8.57271   5
   3  -5  14 136.206 16.8076   7
  -3  -5 -14 171.156 18.5513   4
  -3  -5 -14 148.561 17.5332   1
  -3   5 -14 155.677 17.0771   1
   3   5  14 180.131 16.4582   7
   3   5  14 173.948 16.0503   5
   3   5  14 179.306 16.5757   1
  -3   5 -14 161.170 18.6504   3
  -4  -5 -14 58.8314 8.82361   4
   4  -5  14 52.9699 7.61053   5
   4  -5  14 48.2527 7.71910   7
  -4   5 -14 59.5461 7.03825   7
   4   5  14 62.3799 7.08566   7
   4   5  14 48.1190 6.57421   5
   4   5  14 58.7477 7.52332   1
  -4   5 -14 50.3150 7.79863   1
  -5  -5 -14 21.1696 5.43085   4
   5  -5  14 21.6189 4.52259   7
   5  -5  14 16.6352 3.91082   5
  -5   5 -14 23.5607 5.04949   1
   5   5  14 13.5351 3.56354   7
   5   5  14 22.7678 4.58469   1
  -5   5 -14 18.8095 3.80130   7
   5   5  14 18.3876 3.57892   5
   6  -5  14 26.6199 5.00417   5
   6  -5  14 30.4248 5.39243   7
  -6  -5 -14 38.5470 6.90896   4
   6   5  14 24.2048 5.16900   1
  -6   5 -14 28.4199 5.46670   1
  -6   5 -14 32.9656 5.18682   7
   6   5  14 37.7454 4.72649   5
  -7  -5 -14 120.436 13.9631   4
   7  -5  14 96.5931 11.5433   5
   7  -5  14 101.297 11.9107   7
  -7   5 -14 102.681 12.0131   1
   7   5  14 101.479 12.2880   1
   7   5  14 122.366 10.9865   5
  -7   5 -14 124.672 11.9893   7
   7  -6 -14 28.7959 7.05767   4
   7  -6 -14 19.3199 5.57279   1
   6  -6 -14 27.6768 6.16562   1
   6  -6 -14 17.3127 6.47949   4
  -6   6  14 31.1699 5.32948   7
   5  -6 -14 79.1084 11.5003   1
   5  -6 -14 102.605 14.1995   4
  -5   6  14 113.723 11.3854   7
   4  -6 -14 1050.44 87.5008   1
   4  -6 -14 905.055 94.8367   4
   4   6 -14 977.546 85.9072   1
  -4   6  14 936.871 86.9884   7
   3  -6 -14 73.7113 10.0062   1
   3  -6 -14 72.1491 12.4502   4
  -3   6  14 81.0623 9.67118   7
   3   6 -14 87.4431 9.28089   1
  -3   6  14 86.0915 9.55730   5
   2  -6 -14 67.4016 12.2141   4
   2  -6 -14 88.8406 10.7657   1
  -2   6  14 78.1431 10.2529   7
   2   6 -14 121.931 10.8043   1
   2   6 -14 85.3744 10.2508   6
  -2   6  14 107.094 10.4873   5
   1  -6 -14 113.234 12.8125   1
   1  -6 -14 111.765 14.1372   4
  -1   6  14 111.131 11.8821   5
   1   6 -14 107.374 12.3035   6
  -1   6  14 123.739 12.2577   7
   1   6 -14 109.124 12.1371   1
   0  -6 -14 1268.69 117.028   4
   0  -6  14 1267.62 110.097   7
   0  -6 -14 1272.30 109.120   1
   0   6 -14 1108.63 111.150   6
   0   6  14 1162.97 107.699   5
   0   6  14 1252.45 108.826   7
   0   6 -14 1208.85 108.421   1
  -1  -6 -14 222.276 22.0332   1
   1  -6  14 207.543 22.6522   7
  -1  -6 -14 241.527 23.8594   4
   1   6  14 228.976 21.5659   7
   1   6  14 209.729 21.1493   5
  -1   6 -14 204.415 21.6667   1
  -1   6 -14 251.322 22.5905   6
  -2  -6 -14 102.608 12.8134   1
   2  -6  14 130.788 14.1555   7
  -2  -6 -14 145.967 14.5367   4
   2   6  14 142.935 12.9853   7
  -2   6 -14 105.827 12.9007   1
   2   6  14 131.360 13.2179   1
   2   6  14 102.969 12.2419   5
  -2   6 -14 125.031 13.4716   6
  -3  -6 -14 79.3573 10.3594   4
   3  -6  14 80.6867 10.2303   7
   3   6  14 77.6267 8.87380   7
   3   6  14 66.4016 9.20679   1
  -3   6 -14 85.0389 9.58597   1
   3   6  14 73.3301 8.42017   5
   4  -6  14 832.605 80.1934   7
  -4  -6 -14 898.268 85.3334   4
  -4   6 -14 743.154 79.0171   1
   4   6  14 996.387 79.5053   1
   4   6  14 959.167 79.2789   7
   4   6  14 879.078 78.3130   5
  -5  -6 -14 252.181 25.4939   4
   5  -6  14 195.327 23.6874   7
   5  -6  14 227.002 23.5401   5
   5   6  14 262.122 22.7456   5
   5   6  14 289.223 24.0997   1
  -5   6 -14 248.629 23.6459   1
   6  -6  14 58.8338 8.22259   5
  -6  -6 -14 74.7818 9.44268   4
   6  -6  14 59.9360 8.71228   7
  -6   6 -14 76.3922 8.17085   7
   6   6  14 76.0407 7.53051   5
  -6   6 -14 58.0613 8.13961   1
   6   6  14 63.1161 8.63807   1
   7  -6  14 38.1174 6.55807   5
   7   6  14 57.7923 5.98331   5
   5  -7 -14 6.51838 3.28280   1
   5  -7 -14 6.73139 4.65539   4
   4  -7 -14 4.60895 4.55123   4
   4  -7 -14 -1.9283 2.42653   1
  -4   7  14 -1.2886 2.50307   7
  -4   7  14 -3.3899 2.28649   5
   3  -7 -14 1.37362 3.60076   4
   3  -7 -14 2.04981 2.83406   1
  -3   7  14 6.01242 3.21096   5
  -3   7  14 4.08242 3.04289   7
   3   7 -14 4.13557 2.01917   1
   2  -7 -14 47.1202 8.24414   4
   2  -7 -14 50.0137 7.16679   1
   2   7 -14 49.1390 6.29825   1
  -2   7  14 57.3426 7.25472   7
  -2   7  14 43.6299 6.72152   5
   1  -7 -14 19.0747 5.22857   4
   1  -7 -14 24.5292 4.59809   1
  -1   7  14 24.6954 4.64188   5
  -1   7  14 21.2379 4.54302   7
   1   7 -14 20.7419 4.07979   1
   0  -7  14 0.91978 3.08779   7
   0  -7 -14 0.39093 2.59634   1
   0  -7 -14 0.73983 3.08809   4
   0   7  14 5.92373 2.92170   7
   0   7 -14 4.03280 2.65224   1
   0   7  14 2.58137 2.48457   5
   1  -7  14 1.63196 3.38137   7
  -1  -7 -14 2.47236 2.55078   1
  -1  -7 -14 1.42571 2.84243   4
   1   7  14 5.37356 2.93966   7
   1   7  14 1.77330 2.42719   5
   1   7  14 1.89452 2.85311   1
  -1   7 -14 4.14709 2.84009   1
  -2  -7 -14 4.81323 3.15353   4
   2  -7  14 3.43513 3.54769   7
   2   7  14 7.07642 3.00649   7
  -2   7 -14 5.50220 2.75529   1
   2   7  14 2.90651 2.30151   5
   2   7  14 5.72467 3.30067   1
   3  -7  14 9.41341 3.87747   7
  -3  -7 -14 13.2853 3.68673   4
   3   7  14 12.3673 3.44066   7
   3   7  14 13.9207 4.10158   1
  -3   7 -14 12.4376 3.50601   1
   3   7  14 11.2811 3.02917   5
   4  -7  14 -1.8232 3.03268   7
  -4  -7 -14 0.97011 2.49091   4
  -4   7 -14 3.53882 2.61973   1
   4   7  14 3.20092 2.26100   5
   4   7  14 5.10669 3.37412   1
  -5  -7 -14 3.49244 3.11250   4
   5  -7  14 5.11709 3.08321   5
   5   7  14 5.09414 3.50120   1
   5   7  14 2.97987 2.22067   5
  -5   7 -14 2.99661 2.75442   1
   3  -8 -14 4.03996 3.75680   4
   3  -8 -14 3.13629 2.58259   1
  -3   8  14 4.41879 2.89539   5
   3   8 -14 3.30059 1.89717   1
   2  -8 -14 21.3656 4.11205   1
   2  -8 -14 19.8817 4.82786   4
  -2   8  14 18.4939 4.09934   5
   2   8 -14 22.5128 3.60483   1
  -2   8  14 25.8282 5.41411   7
   1  -8 -14 79.8364 7.96121   1
   1  -8 -14 76.3098 9.33549   4
   1   8 -14 54.3811 7.17372   1
  -1   8  14 68.7841 8.55632   7
  -1   8  14 59.9909 8.00349   5
   0  -8 -14 586.207 49.3264   1
   0   8  14 575.399 49.1402   5
   0   8  14 519.065 49.6162   7
   0   8 -14 497.639 48.6870   1
  -1  -8 -14 12.3809 3.61932   4
   1  -8  14 4.57088 3.16874   7
   1   8  14 6.05747 2.85951   5
   1   8  14 11.3123 3.35411   7
   1   8  14 3.29754 3.02899   1
  -1   8 -14 4.67719 2.45124   1
   2  -8  14 15.8572 4.83827   7
  -2  -8 -14 16.8346 4.29781   4
   2   8  14 18.2868 4.62223   1
   2   8  14 20.8194 4.19238   7
  -2   8 -14 15.9695 3.59485   1
   2   8  14 15.9371 3.56737   5
  -3  -8 -14 101.432 11.2075   4
   3   8  14 97.3206 10.0523   5
  -3   8 -14 83.5303 9.93879   1
   3   8  14 103.808 11.2719   1
  -8   0  15 0.08225 2.12184   8
   7   0 -15 0.44892 2.47224   1
  -7   0  15 5.63044 2.76755   8
  -6   0  15 2.45802 2.49577   8
   6   0 -15 -0.0776 2.40821   1
   6   0 -15 3.12383 2.65347   6
   5   0 -15 3.23834 2.93510   1
  -5   0  15 2.50106 2.61298   8
   5   0 -15 1.01226 2.30708   6
   4   0 -15 1.34223 2.82674   6
   4   0 -15 1.66081 2.46771   1
  -4   0  15 4.15600 2.86280   8
  -3   0  15 2.65564 2.39072   7
   3   0 -15 3.46406 2.95723   1
   3   0 -15 1.22258 2.80973   6
   2   0 -15 5.04106 3.28853   6
  -2   0  15 0.37906 2.03698   7
   2   0 -15 4.23110 3.21409   1
   1   0 -15 5.10200 3.57282   1
  -1   0  15 3.30988 2.34272   7
   1   0 -15 -0.2428 3.02429   6
   0   0 -15 4.21835 2.31894  10
   0   0 -15 1.27059 3.37722   1
   0   0  15 3.73038 2.39763   7
   0   0 -15 4.45395 3.05793   6
   1   0  15 5.16770 2.80007   5
  -1   0 -15 4.14572 3.67604   1
   1   0  15 2.38529 2.28174   7
  -1   0 -15 3.43037 3.56987   6
   2   0  15 1.94010 2.44863   5
   2   0  15 1.67177 2.35258   7
  -2   0 -15 -0.2623 2.69480   4
  -2   0 -15 0.48720 3.71959   1
  -3   0 -15 3.10239 4.42915   1
   3   0  15 0.65720 2.25304   7
  -3   0 -15 -1.5056 2.94797   4
   3   0  15 0.74938 2.47717   5
   4   0  15 1.68668 2.19167   5
   4   0  15 1.61872 2.28618   1
   4   0  15 1.88065 2.36475   7
  -4   0 -15 2.14943 3.20258   4
  -4   0 -15 0.93674 4.40712   7
  -4   0 -15 3.20271 4.45776   1
  -5   0 -15 1.30254 4.09409   1
  -5   0 -15 -0.9516 3.83504   7
   5   0  15 -0.6738 2.18228   7
  -5   0 -15 -3.2513 2.85031   4
   5   0  15 1.99155 2.30206   1
   5   0  15 -1.5076 1.91061   5
  -6   0 -15 -0.6002 4.39963   1
   6   0  15 4.85517 2.52488   7
   6   0  15 0.61787 2.13425   5
  -6   0 -15 1.41099 4.28038   7
   6   0  15 -0.7894 2.09831   1
  -6   0 -15 -1.2393 3.58530   4
   7   0  15 4.25717 2.85786   1
  -7   0 -15 1.37399 4.01073   7
  -7   0 -15 1.29077 3.92966   4
   7   0  15 2.11053 2.13650   5
   7   0  15 -1.4184 2.17056   7
   8   0  15 -0.0863 2.36447   7
  -8   0 -15 -3.8060 3.77811   7
   8   0  15 -0.5869 2.05022   5
  -8   0 -15 1.38884 4.11571   4
   8   0  15 2.83871 2.93619   1
   8  -1 -15 190.934 19.8435   1
  -8  -1  15 211.114 19.5148   8
  -8   1  15 216.295 19.7234   8
   7  -1 -15 214.020 20.6017   1
  -7  -1  15 209.272 20.0707   8
  -7   1  15 211.806 20.2958   8
   6  -1 -15 12.8514 3.51604   6
  -6  -1  15 5.78159 2.78968   8
   6  -1 -15 12.0180 3.61652   1
  -6   1  15 7.95270 3.64470   8
   6   1 -15 10.6979 3.11415   6
   6   1 -15 16.5354 3.61909   1
   5  -1 -15 33.9792 5.90841   6
  -5  -1  15 36.9452 5.57415   8
   5  -1 -15 43.2881 6.63990   1
   5   1 -15 29.1899 5.20826   6
   5   1 -15 40.0116 5.78757   1
  -4  -1  15 367.684 30.9200   8
   4  -1 -15 330.351 31.9695   6
   4  -1 -15 345.739 31.4269   1
   4   1 -15 325.706 30.7414   1
   4   1 -15 303.226 31.4229   6
  -4   1  15 313.473 30.7252   7
  -3  -1  15 127.958 12.9189   8
   3  -1 -15 128.429 13.5836   6
  -3  -1  15 101.824 11.9693   7
   3  -1 -15 125.008 13.2589   1
  -3   1  15 107.663 12.1829   7
   3   1 -15 115.958 12.6044   1
   3   1 -15 124.608 13.0210   6
   2  -1 -15 2.52402 3.20342   6
   2  -1 -15 8.20683 3.80809   1
  -2  -1  15 4.33950 2.27910   7
   2   1 -15 4.95929 3.22064   1
   2   1 -15 3.14273 3.09573   6
  -2   1  15 0.52599 2.40274   7
  -1  -1  15 104.530 12.5459   7
   1  -1 -15 147.833 14.8185   6
   1  -1 -15 153.603 14.4975   1
   1  -1 -15 94.8044 13.3282   4
  -1   1  15 117.118 12.7883   7
   1   1 -15 142.337 13.8971   1
   1   1 -15 142.164 14.0870   6
   0  -1 -15 524.212 49.1169   1
   0  -1  15 521.431 48.0302   7
   0  -1 -15 553.995 50.6100   6
   0  -1 -15 516.952 53.2578  10
   0   1  15 531.040 48.1422   7
   0   1 -15 503.997 51.8108  10
   0   1 -15 580.108 50.2895   6
   0   1 -15 506.372 48.8587   1
  -1  -1 -15 22.6018 5.86738   1
  -1  -1 -15 21.8708 5.34942   4
   1  -1  15 20.5222 4.15099   7
  -1   1 -15 25.7216 4.44392  10
  -1   1 -15 25.9178 5.89144   1
   1   1  15 24.2184 4.47859   5
   1   1  15 16.7823 3.83624   7
  -1   1 -15 34.3480 6.32961   6
   2  -1  15 24.1765 4.57782   7
  -2  -1 -15 22.2772 6.21485   1
   2  -1  15 24.4182 4.53478   5
  -2  -1 -15 17.1348 5.46859   4
   2   1  15 32.7518 4.92743   5
   2   1  15 30.8243 4.83047   7
  -2   1 -15 26.4976 6.19282   1
   3  -1  15 225.483 20.0374   5
   3  -1  15 224.941 20.2594   7
  -3  -1 -15 165.352 22.0104   4
  -3  -1 -15 192.443 22.1868   1
   3   1  15 229.242 20.2280   1
  -3   1 -15 173.648 21.3394   7
  -3   1 -15 223.631 22.0830   1
   3   1  15 232.777 20.0444   5
   3   1  15 193.930 20.0888   7
   4  -1  15 773.955 61.9248   7
  -4  -1 -15 590.566 66.6510   4
  -4  -1 -15 632.268 63.5743   1
   4  -1  15 732.120 61.2648   5
   4   1  15 726.448 61.8147   7
   4   1  15 745.240 61.1853   5
  -4   1 -15 646.167 63.1040   7
   4   1  15 635.269 61.1877   1
  -4   1 -15 665.161 63.4789   1
   4   1  15 662.260 61.2947   1
  -5  -1 -15 2.42327 5.11982   1
   5  -1  15 5.31512 2.40952   5
  -5  -1 -15 3.54727 4.18531   4
   5  -1  15 4.34014 2.86895   1
   5  -1  15 5.47929 2.58821   7
  -5  -1 -15 6.03840 4.97235   7
   5   1  15 5.28585 2.55298   7
  -5   1 -15 6.02296 3.86379   7
  -5   1 -15 4.02580 3.76020   4
  -5   1 -15 4.33532 4.54151   1
   5   1  15 4.83071 2.57716   5
   5   1  15 9.86157 3.16272   1
  -6  -1 -15 50.9966 9.33593   7
  -6  -1 -15 54.6122 9.09992   4
   6  -1  15 55.5391 6.89016   1
   6  -1  15 41.3582 6.22771   7
   6  -1  15 49.0963 6.35903   5
  -6   1 -15 54.0910 8.69390   4
   6   1  15 46.4387 6.15511   5
  -6   1 -15 37.0916 7.80052   7
   6   1  15 53.1953 6.81447   1
  -6   1 -15 40.3624 8.82565   1
   6   1  15 48.7643 6.46736   7
   7  -1  15 166.807 18.3249   1
   7  -1  15 175.516 18.2997   7
  -7  -1 -15 154.522 20.3702   7
   7  -1  15 190.929 18.1720   5
  -7  -1 -15 188.753 22.1076   4
   7   1  15 192.989 18.6304   1
  -7   1 -15 215.545 21.7005   4
   7   1  15 200.255 18.0415   5
   7   1  15 217.314 18.5593   7
   8  -1  15 588.469 56.7098   5
  -8  -1 -15 624.968 59.7129   7
  -8  -1 -15 611.424 63.6599   4
   8  -1  15 673.853 57.5104   1
   8  -1  15 660.643 57.4242   7
   8   1  15 677.889 56.7895   5
  -8   1 -15 535.014 58.7547   7
   8   1  15 639.550 57.4967   1
  -8   1 -15 711.755 63.3652   4
   8  -2 -15 8.85523 3.43318   1
  -8  -2  15 11.4331 2.85360   8
   7  -2 -15 119.104 12.1232   1
  -7  -2  15 102.225 11.0420   8
   6  -2 -15 168.133 17.4161   1
  -6  -2  15 177.935 16.7429   8
   6   2 -15 171.105 16.7978   1
   5  -2 -15 93.1178 10.2183   1
   5  -2 -15 68.2075 9.66312   6
  -5  -2  15 95.2305 9.38728   8
   5   2 -15 78.4649 9.09196   6
   5   2 -15 69.4459 8.90744   1
  -5   2  15 82.8047 9.58448   7
  -4  -2  15 66.0622 7.39666   8
   4  -2 -15 61.7415 8.07911   6
   4  -2 -15 43.1509 7.54250   1
   4  -2 -15 35.5962 6.96391   4
   4   2 -15 48.8737 6.81000   1
   4   2 -15 49.8461 6.72904   6
  -4   2  15 50.0328 7.07695   7
  -3  -2  15 159.962 15.7033   8
   3  -2 -15 156.832 16.5230   1
   3  -2 -15 158.359 16.7149   6
   3   2 -15 136.296 15.4799   6
  -3   2  15 166.530 15.5187   7
   3   2 -15 135.581 15.3120   1
   2  -2 -15 225.944 20.6985   6
   2  -2 -15 146.501 20.0398   4
  -2  -2  15 199.288 18.7115   7
   2  -2 -15 204.551 20.0595   1
   2   2 -15 189.451 19.4642   6
  -2   2  15 204.747 18.8511   7
   2   2 -15 185.197 19.1850   1
   1  -2 -15 26.5825 6.10456   6
  -1  -2  15 25.9245 4.48530   7
   1  -2 -15 20.7313 5.42928   1
   1  -2 -15 17.7961 4.87214   4
   1   2 -15 25.9700 5.39025   6
   1   2 -15 23.7387 5.17417   1
  -1   2  15 21.0161 4.20679   7
   0  -2 -15 25.5279 6.52200   4
   0  -2  15 45.6793 6.24362   7
   0  -2 -15 50.4270 7.90216   1
   0   2 -15 41.9524 7.06652   6
   0   2  15 42.6762 5.95723   5
   0   2  15 48.1818 6.25547   7
   0   2 -15 36.7846 6.71383   1
   1  -2  15 176.063 20.1727   7
  -1  -2 -15 262.987 22.6753   1
  -1  -2 -15 189.700 22.8121   4
   1   2  15 250.004 20.3616   5
  -1   2 -15 211.977 21.4524   1
  -1   2 -15 217.170 21.9314   6
   1   2  15 186.288 20.1961   7
  -2  -2 -15 234.158 24.5923   1
  -2  -2 -15 191.299 25.0023   4
   2  -2  15 225.988 22.8938   7
   2  -2  15 243.386 22.6916   5
   2   2  15 226.293 22.6789   7
   2   2  15 287.254 22.7389   5
  -2   2 -15 250.544 24.3840   1
   3  -2  15 3.06014 2.55781   5
   3  -2  15 3.81598 2.51690   7
  -3  -2 -15 9.25675 5.04516   1
  -3  -2 -15 6.46843 4.09493   4
   3   2  15 5.23043 2.90421   1
   3   2  15 5.33074 2.90087   7
  -3   2 -15 9.15753 4.26013   1
  -3   2 -15 5.96988 3.17336   7
   3   2  15 3.03285 2.59724   5
   4  -2  15 15.0614 3.75403   5
  -4  -2 -15 4.11032 5.32919   1
  -4  -2 -15 14.4394 5.19934   4
   4  -2  15 16.8811 3.76464   7
   4   2  15 15.3088 3.76905   1
   4   2  15 13.7176 3.62951   7
  -4   2 -15 14.2864 3.96240   7
  -4   2 -15 13.5171 5.16745   1
   4   2  15 13.8610 3.27072   5
   4   2  15 14.7698 3.71606   1
   5  -2  15 165.959 18.5618   5
  -5  -2 -15 208.011 22.5076   4
   5  -2  15 212.605 19.1013   7
  -5  -2 -15 201.398 21.9920   1
  -5   2 -15 171.428 21.1287   1
   5   2  15 187.717 18.9875   1
   5   2  15 228.046 19.0546   7
  -5   2 -15 158.949 19.3114   7
   5   2  15 218.059 19.0900   1
   5   2  15 194.910 18.5381   5
   6  -2  15 178.365 18.8406   7
  -6  -2 -15 210.007 23.2166   4
   6  -2  15 184.372 18.7768   5
   6  -2  15 205.008 19.0383   1
   6   2  15 214.964 18.9469   7
  -6   2 -15 189.612 20.8517   1
   6   2  15 218.198 19.5005   1
  -6   2 -15 186.104 19.9856   7
   6   2  15 186.422 18.5632   5
  -7  -2 -15 2.10066 3.73745   7
   7  -2  15 3.11503 2.52424   7
   7  -2  15 2.08746 2.19450   5
   7  -2  15 1.86291 2.60120   1
  -7  -2 -15 4.45250 5.08788   4
   7   2  15 2.76073 2.41834   7
   7   2  15 1.03972 2.81648   1
   7   2  15 0.64494 2.12028   5
  -7   2 -15 4.57676 2.97782   7
   8  -2  15 4.03226 2.82768   1
  -8  -2 -15 2.61071 5.33763   4
   8  -2  15 4.24376 2.46700   5
   8  -2  15 1.69223 2.48600   7
   8   2  15 6.18834 3.51914   1
   8   2  15 2.00627 2.19852   5
  -8  -3  15 83.2784 8.33095   8
   8  -3 -15 63.1437 9.25409   1
  -7  -3  15 29.4148 4.47141   8
   7  -3 -15 25.3467 5.43675   1
   6  -3 -15 18.0107 4.80234   1
   6  -3 -15 24.0594 5.34730   4
  -6  -3  15 18.1992 3.85020   8
  -5  -3  15 34.5877 5.16561   8
   5  -3 -15 26.9983 5.91101   4
   5  -3 -15 27.5596 5.91003   1
   5  -3 -15 31.1460 6.33234   6
   5   3 -15 35.2562 5.24306   6
   5   3 -15 30.7174 5.26948   1
  -5   3  15 38.5203 5.78173   7
   4  -3 -15 203.328 20.7676   1
  -4  -3  15 205.439 19.7264   8
   4  -3 -15 177.492 21.6581   4
   4  -3 -15 218.736 21.5166   6
   4   3 -15 214.119 19.9497   1
   4   3 -15 206.314 20.2180   6
   3  -3 -15 25.4305 6.29671   1
   3  -3 -15 32.8692 6.47178   4
  -3  -3  15 35.4729 5.74798   8
   3  -3 -15 40.8156 7.03554   6
   3   3 -15 26.5763 5.34291   1
  -3   3  15 40.9656 5.96815   7
   3   3 -15 37.2588 5.85918   6
   2  -3 -15 196.432 20.6251   6
   2  -3 -15 173.989 20.0666   1
   2  -3 -15 162.371 20.9206   4
   2   3 -15 232.620 19.9264   6
  -2   3  15 184.794 18.9772   7
   2   3 -15 199.355 19.3379   1
   1  -3 -15 58.6405 9.00266   1
  -1  -3  15 57.4134 7.57045   7
   1  -3 -15 41.4117 8.51980   4
  -1   3  15 52.0846 7.10624   5
   1   3 -15 46.0569 7.50668   1
  -1   3  15 56.1171 7.22796   7
   1   3 -15 53.3785 7.44295   6
   0  -3 -15 332.108 29.3548   1
   0  -3 -15 258.537 31.0067   4
   0  -3  15 239.139 27.5331   7
   0   3  15 302.144 27.4760   5
   0   3 -15 305.981 28.4828   1
   0   3  15 321.975 27.6557   7
   0   3 -15 292.246 28.9022   6
  -1  -3 -15 20.6575 6.44872   4
   1  -3  15 16.5445 4.32714   7
  -1  -3 -15 18.5476 5.71322   1
   1   3  15 18.9855 3.85295   7
   1   3  15 19.4794 4.18626   5
  -1   3 -15 22.8943 5.23889   6
  -1   3 -15 15.9344 5.31587   1
  -2  -3 -15 353.408 36.0386   4
   2  -3  15 343.491 32.5112   7
  -2  -3 -15 406.296 34.3724   1
   2   3  15 321.731 31.7943   7
   2   3  15 334.209 31.7033   5
   2   3  15 322.880 31.6800   1
  -2   3 -15 337.671 33.9487   6
  -2   3 -15 356.894 33.4699   1
   3  -3  15 39.9698 6.28841   5
  -3  -3 -15 46.1418 8.94793   1
   3  -3  15 50.5400 7.04184   7
  -3  -3 -15 46.4234 8.50413   4
   3   3  15 41.1401 6.12679   5
  -3   3 -15 35.0006 7.59806   1
   3   3  15 51.2022 6.49796   7
  -3   3 -15 44.2605 6.39266   7
   3   3  15 50.5693 6.69527   1
   4  -3  15 203.170 18.6936   7
  -4  -3 -15 210.140 21.6662   1
  -4  -3 -15 184.516 21.0841   4
   4  -3  15 184.203 18.1125   5
   4   3  15 186.931 17.8969   5
  -4   3 -15 152.740 19.7116   1
   4   3  15 182.404 17.9421   7
   4   3  15 185.777 18.2325   1
  -4   3 -15 179.548 18.3399   7
   5  -3  15 1.93741 2.48047   7
  -5  -3 -15 1.05743 4.25919   4
   5  -3  15 2.00311 2.36260   5
   5   3  15 3.54174 2.39668   5
   5   3  15 3.27778 2.95914   1
  -5   3 -15 1.49196 3.63084   1
  -5   3 -15 2.63293 2.67999   7
   5   3  15 2.07632 2.25914   7
   6  -3  15 232.127 21.6212   7
  -6  -3 -15 265.568 26.1068   4
   6  -3  15 176.112 20.8630   5
   6   3  15 243.019 21.7787   1
  -6   3 -15 188.395 21.5799   7
   6   3  15 255.656 21.2229   7
  -6   3 -15 189.231 22.2021   1
   6   3  15 228.266 20.8330   5
   6   3  15 236.948 21.7499   1
  -7  -3 -15 42.4042 9.23111   4
   7  -3  15 29.4671 5.45832   1
   7  -3  15 33.4452 5.15518   7
   7  -3  15 27.2034 4.93838   5
   7   3  15 40.0221 5.94942   1
   7   3  15 32.0844 4.61194   5
   7   3  15 38.8462 6.23522   1
  -7   3 -15 29.8905 5.65842   7
  -7   3 -15 27.0591 5.87598   1
   8  -3  15 72.9762 9.10841   5
  -8  -3 -15 81.2710 13.3819   4
   8  -3  15 91.7529 10.0127   1
   8   3  15 81.8157 8.69323   5
   8   3  15 82.4744 10.0357   1
   8   3  15 95.6998 10.4757   1
   7  -4 -15 293.669 30.5214   4
   7  -4 -15 254.346 28.3636   1
  -7  -4  15 325.974 27.1850   8
   6  -4 -15 346.975 35.3211   1
  -6  -4  15 394.076 34.0117   8
   6  -4 -15 349.368 37.8862   4
  -6   4  15 392.411 34.9396   7
   5  -4 -15 18.8373 4.98731   1
   5  -4 -15 9.10993 3.94333   6
   5  -4 -15 13.1339 4.71823   4
  -5  -4  15 9.03536 2.96436   8
  -5   4  15 7.41210 3.34974   7
   4  -4 -15 -0.0107 3.29652   1
   4  -4 -15 1.53406 4.10581   4
   4  -4 -15 6.35507 3.91205   6
  -4   4  15 0.54368 2.60393   7
   4   4 -15 4.35897 2.99862   1
   4   4 -15 4.85584 2.65941   6
   3  -4 -15 304.727 33.0743   4
   3  -4 -15 375.757 31.3982   1
   3  -4 -15 357.237 32.2307   6
  -3   4  15 327.255 29.9103   7
   3   4 -15 286.159 29.6534   1
   3   4 -15 276.111 30.1255   6
   2  -4 -15 514.525 52.5339   4
   2  -4 -15 491.975 48.3437   1
   2   4 -15 507.467 48.2866   6
   2   4 -15 501.149 47.2975   1
  -2   4  15 553.483 46.9926   5
   1  -4 -15 33.4768 8.36359   4
  -1  -4  15 22.5002 4.79045   7
   1  -4 -15 20.8129 5.96100   1
   1   4 -15 24.2047 5.19917   1
  -1   4  15 18.1531 4.26192   7
  -1   4  15 19.7150 4.25770   5
   1   4 -15 22.4049 5.05471   6
   0  -4 -15 1.44816 4.13325   1
   0  -4 -15 1.61131 4.30558   4
   0  -4  15 7.16907 3.10495   7
   0   4 -15 4.72110 3.68533   1
   0   4  15 4.34622 2.69589   5
   0   4 -15 5.46406 3.38287   6
   0   4  15 3.21128 2.57889   7
   1  -4  15 244.798 23.5438   7
  -1  -4 -15 228.144 25.6615   4
  -1  -4 -15 257.587 24.6827   1
   1   4  15 252.697 22.8039   7
  -1   4 -15 255.490 24.3210   6
   1   4  15 199.291 22.1492   5
  -1   4 -15 223.586 23.7813   1
   2  -4  15 527.974 47.3946   7
  -2  -4 -15 511.192 48.2956   1
  -2  -4 -15 517.523 51.0175   4
   2   4  15 535.524 46.1001   5
  -2   4 -15 472.720 47.6783   1
   2   4  15 470.302 46.4312   7
  -2   4 -15 573.392 49.1312   6
   2   4  15 473.367 46.1116   1
  -3  -4 -15 58.9901 9.56224   1
  -3  -4 -15 65.8958 9.35962   4
   3  -4  15 40.2808 6.30147   5
   3  -4  15 43.7693 6.91170   7
   3   4  15 30.2421 5.38949   5
  -3   4 -15 39.4678 7.62953   1
   3   4  15 42.2403 6.21490   7
   3   4  15 48.6594 6.77629   1
  -4  -4 -15 -1.9446 3.23003   4
   4  -4  15 -3.2495 2.32198   5
   4  -4  15 0.80579 2.61254   7
   4   4  15 0.65076 2.18699   7
   4   4  15 -0.8508 1.98713   5
  -4   4 -15 0.06474 2.27640   7
  -4   4 -15 0.94525 3.39945   1
   4   4  15 5.07686 3.20545   1
   5  -4  15 135.969 16.6234   5
  -5  -4 -15 161.129 19.5600   4
   5  -4  15 170.762 17.4793   7
   5   4  15 187.029 16.8093   7
  -5   4 -15 178.196 17.0713   7
   5   4  15 171.870 16.3624   5
   5   4  15 189.796 17.4913   1
  -5   4 -15 168.272 17.9663   1
   6  -4  15 345.018 32.9918   7
   6  -4  15 336.414 32.4200   5
  -6  -4 -15 409.286 37.3062   4
   6   4  15 353.353 31.8717   5
   6   4  15 362.702 32.9811   1
  -6   4 -15 320.984 33.1796   1
  -6   4 -15 317.476 32.7239   7
   6   4  15 378.829 32.4651   7
  -7  -4 -15 27.7034 6.59573   4
   7  -4  15 20.0621 4.25682   5
   7  -4  15 19.9754 4.39225   7
  -7   4 -15 17.3615 4.27632   7
   7   4  15 23.7530 3.75099   5
   7   4  15 22.3774 4.81383   1
  -7   4 -15 21.9814 4.80136   1
   6  -5 -15 184.589 22.7286   4
   6  -5 -15 183.207 21.0874   1
  -6   5  15 238.838 20.5511   7
   5  -5 -15 115.567 14.9758   4
   5  -5 -15 109.273 13.7505   1
  -5   5  15 116.295 12.5899   7
   4  -5 -15 22.2287 5.98163   1
   4  -5 -15 27.0951 7.72926   4
   4   5 -15 30.5417 5.44437   1
  -4   5  15 25.6109 5.06320   7
   3  -5 -15 90.0980 14.7920   4
   3  -5 -15 86.3741 12.7027   1
  -3   5  15 112.302 11.7447   7
   3   5 -15 122.063 12.2911   1
   2  -5 -15 370.744 33.8281   1
   2  -5 -15 292.235 36.2460   4
  -2   5  15 332.913 32.0327   7
   2   5 -15 327.581 32.7888   6
   2   5 -15 381.204 32.6559   1
  -2   5  15 338.607 31.6838   5
   1  -5 -15 96.2717 13.2181   1
   1  -5 -15 69.1604 12.4820   4
  -1   5  15 84.2839 9.78249   7
  -1   5  15 85.8676 9.66746   5
   1   5 -15 84.3443 10.3774   6
   1   5 -15 75.4418 10.3322   1
   0  -5  15 8.44038 3.84366   7
   0  -5 -15 -1.5126 3.98612   1
   0  -5 -15 2.37870 3.47995   4
   0   5  15 7.69737 3.07150   7
   0   5  15 1.39915 2.60460   5
   0   5 -15 -0.5990 3.22482   1
   0   5 -15 7.21312 3.86441   6
   1  -5  15 281.267 26.5584   7
  -1  -5 -15 248.319 27.7992   4
   1   5  15 263.284 24.8156   5
  -1   5 -15 234.197 25.6905   1
   1   5  15 261.731 25.0928   7
  -1   5 -15 293.304 26.6226   6
  -2  -5 -15 449.212 40.9919   4
  -2  -5 -15 486.013 40.1017   1
   2  -5  15 351.293 38.0128   7
   2   5  15 353.772 36.7516   5
  -2   5 -15 382.009 37.9783   1
   2   5  15 423.150 37.2849   1
   2   5  15 411.166 37.4000   7
  -2   5 -15 411.339 39.0555   6
  -3  -5 -15 31.3291 6.73872   4
   3  -5  15 25.4523 5.77695   7
   3   5  15 32.1738 5.62990   1
   3   5  15 39.0557 5.65778   7
  -3   5 -15 30.8499 6.15971   1
   3   5  15 37.1515 5.26914   5
   4  -5  15 41.9919 6.48821   5
  -4  -5 -15 50.2286 7.96293   4
   4  -5  15 45.7079 6.98491   7
   4   5  15 34.0187 5.62161   7
   4   5  15 39.1735 6.44628   1
  -4   5 -15 51.6177 7.58186   1
   4   5  15 38.8191 5.65400   5
   5  -5  15 249.128 26.0301   7
   5  -5  15 241.359 25.4470   5
  -5   5 -15 285.850 25.5980   7
   5   5  15 262.087 25.8529   1
   5   5  15 261.168 24.9435   5
  -5   5 -15 301.565 26.4721   1
   5   5  15 293.390 25.4635   7
  -6  -5 -15 328.778 32.8607   4
   6  -5  15 276.718 29.3835   5
   6  -5  15 269.443 29.9571   7
  -6   5 -15 290.378 29.9311   1
   6   5  15 301.824 30.0143   1
  -6   5 -15 381.277 29.9985   7
   6   5  15 365.548 29.0367   5
   5  -6 -15 59.1041 9.17060   1
   5  -6 -15 50.4480 10.0917   4
  -5   6  15 63.1598 8.23580   7
   4  -6 -15 105.048 15.4981   4
   4  -6 -15 120.052 13.5704   1
  -4   6  15 122.960 12.8057   7
   4   6 -15 112.728 11.8222   1
   3  -6 -15 67.2294 12.3757   4
   3  -6 -15 77.1167 10.2397   1
   3   6 -15 94.6376 9.46686   1
  -3   6  15 73.7153 9.58596   7
  -3   6  15 79.1933 9.53248   5
   2  -6 -15 248.176 23.9865   1
   2  -6 -15 224.389 26.4923   4
   2   6 -15 258.095 23.2410   1
  -2   6  15 226.634 23.1488   7
  -2   6  15 239.589 22.9931   5
   1  -6 -15 80.0612 11.3916   4
   1  -6 -15 74.2570 10.3312   1
  -1   6  15 76.0305 8.88350   7
  -1   6  15 69.9353 8.59758   5
   1   6 -15 62.0414 8.71289   1
   0  -6 -15 179.686 18.7368   1
   0  -6 -15 195.808 20.1129   4
   0  -6  15 171.218 18.7326   7
   0   6  15 158.984 17.1864   5
   0   6  15 193.420 17.6773   7
   0   6 -15 162.849 17.6827   1
   1  -6  15 74.4851 10.8048   7
  -1  -6 -15 90.6854 11.4578   4
  -1  -6 -15 90.0388 10.6242   1
   1   6  15 73.0535 9.32800   5
  -1   6 -15 100.265 10.8283   6
  -1   6 -15 79.0270 9.97299   1
   1   6  15 86.8293 9.80292   7
  -2  -6 -15 181.511 19.8051   4
   2  -6  15 172.241 18.9581   7
  -2  -6 -15 183.425 18.4432   1
  -2   6 -15 195.452 19.3737   6
   2   6  15 203.516 18.1052   7
   2   6  15 208.263 18.3455   1
   2   6  15 164.248 17.4531   5
  -2   6 -15 144.924 17.8975   1
   3  -6  15 34.7039 6.67534   7
  -3  -6 -15 47.3528 7.60106   4
   3   6  15 50.0024 6.43435   7
   3   6  15 43.6303 6.58104   1
  -3   6 -15 46.4071 6.77359   1
   3   6  15 30.9267 5.30004   5
   4  -6  15 166.986 19.1543   7
   4  -6  15 158.358 18.5736   5
  -4  -6 -15 202.744 20.5348   4
   4   6  15 206.708 18.9847   1
   4   6  15 198.979 18.2378   7
   4   6  15 186.216 17.7828   5
  -5  -6 -15 99.6847 11.7325   4
   5  -6  15 77.7121 10.0977   5
   5   6  15 89.1447 10.5241   1
   5   6  15 86.1835 9.33265   5
  -5   6 -15 95.2466 10.4385   1
   4  -7 -15 34.5221 5.94913   1
   4  -7 -15 38.2682 8.72273   4
  -4   7  15 35.4118 6.02084   5
   3  -7 -15 72.9708 11.6048   4
   3  -7 -15 74.7618 9.24746   1
  -3   7  15 86.4709 9.52687   5
   3   7 -15 72.5844 8.26533   1
   2  -7 -15 207.575 19.8847   1
   2  -7 -15 200.570 22.0828   4
   2   7 -15 201.421 19.1648   1
  -2   7  15 196.857 19.8139   7
  -2   7  15 195.763 19.5757   5
   1  -7 -15 45.3449 7.66877   4
   1  -7 -15 35.8356 6.23376   1
  -1   7  15 41.1328 6.29090   7
  -1   7  15 34.2995 5.86427   5
   1   7 -15 48.2530 6.18120   1
   0  -7 -15 11.2716 4.25974   4
   0  -7  15 10.0335 4.24146   7
   0  -7 -15 5.90466 3.15233   1
   0   7  15 9.48421 3.21415   5
   0   7 -15 9.61949 3.27082   1
   0   7  15 7.59716 3.26965   7
   1  -7  15 180.885 20.0785   7
  -1  -7 -15 204.155 20.7254   4
  -1  -7 -15 202.577 18.9111   1
   1   7  15 192.297 18.5964   5
   1   7  15 192.590 18.9473   7
  -1   7 -15 169.881 18.5456   1
   1   7  15 196.304 19.0842   1
   2  -7  15 283.310 27.9924   7
  -2  -7 -15 301.020 28.8216   4
   2   7  15 267.711 26.5749   1
   2   7  15 287.802 26.5676   7
   2   7  15 260.949 25.9562   5
  -2   7 -15 280.311 26.4136   1
   3  -7  15 8.58079 4.32863   7
  -3  -7 -15 8.76600 3.56660   4
   3   7  15 8.80863 2.92157   5
   3   7  15 10.3567 3.76548   1
  -3   7 -15 8.23828 3.14198   1
   3   7  15 6.79922 3.11085   7
  -4  -7 -15 2.09730 2.89598   4
   4   7  15 10.3959 2.82868   5
   4   7  15 5.63371 3.69189   1
  -4   7 -15 5.99214 2.95205   1
   0  -8 -15 302.993 27.7028   4
   0   8  15 286.092 25.0683   5
   0   8 -15 221.522 24.4269   1
   7   0 -16 94.8260 11.4013   1
  -7   0  16 122.999 11.8436   8
  -6   0  16 31.9554 5.61009   8
   6   0 -16 36.6046 5.53828   1
   5   0 -16 10.6981 3.61209   1
  -5   0  16 25.3481 4.81298   8
   4   0 -16 924.484 83.0393   1
   4   0 -16 928.833 85.3458   6
   3   0 -16 193.939 20.7815   1
  -3   0  16 204.604 20.5318   7
   3   0 -16 234.091 21.7191   6
  -2   0  16 5.14057 3.05745   7
   2   0 -16 4.51870 3.36266   6
   2   0 -16 5.70644 3.61196   1
   1   0 -16 37.5972 6.65482   6
   1   0 -16 38.7671 6.89252   1
  -1   0  16 25.5912 4.92552   7
   0   0  16 837.282 78.3974   7
   0   0 -16 965.365 79.6490   1
   0   0 -16 828.370 81.2542   6
   1   0  16 502.176 41.2191   5
   1   0  16 432.911 41.1948   7
  -1   0 -16 404.046 42.5036   1
   2   0  16 4.13746 2.80160   7
  -2   0 -16 1.56634 4.04817   1
   2   0  16 15.5354 4.02072   5
  -3   0 -16 19.1678 6.29865   1
   3   0  16 23.7825 4.54118   5
   3   0  16 25.7502 4.65543   7
  -4   0 -16 754.725 63.2462   1
   4   0  16 616.649 60.0868   5
  -4   0 -16 596.131 65.4106   4
   4   0  16 744.011 60.9123   7
   5   0  16 704.492 55.7216   7
  -5   0 -16 615.211 58.4544   7
   5   0  16 540.476 55.0143   1
  -5   0 -16 630.917 57.9930   1
  -5   0 -16 578.759 60.1245   4
   5   0  16 616.584 55.0212   5
  -6   0 -16 13.4207 5.52032   7
   6   0  16 16.0460 3.64480   5
   6   0  16 20.3172 4.12844   1
  -6   0 -16 21.8734 5.72119   4
   6   0  16 18.1304 3.81548   7
  -7   0 -16 -0.4292 4.26884   7
   7   0  16 2.19822 2.40700   5
   7   0  16 9.06701 3.48595   1
   7   0  16 7.56191 2.87514   7
  -7   0 -16 6.50782 4.65670   4
  -7  -1  16 4.31144 2.55560   8
   7  -1 -16 5.69469 3.14987   1
  -6  -1  16 21.4817 4.17146   8
   6  -1 -16 21.6475 4.82535   1
   6   1 -16 16.6400 3.89409   1
   5  -1 -16 45.0883 7.20552   1
  -5  -1  16 53.9616 7.22358   8
   5   1 -16 52.3993 7.24444   1
  -4  -1  16 92.8945 10.3311   8
   4  -1 -16 87.0539 10.8258   6
   4  -1 -16 104.771 11.2406   1
   4   1 -16 94.9573 10.5785   1
  -4   1  16 78.7465 10.0566   7
   4   1 -16 89.0023 10.5337   6
   3  -1 -16 4.74019 3.79264   6
   3  -1 -16 6.21272 3.69623   1
   3   1 -16 2.95192 3.07733   6
  -3   1  16 3.35641 2.69941   7
   3   1 -16 2.38532 3.20340   1
  -2  -1  16 18.9059 4.24362   7
   2  -1 -16 26.5021 6.01518   6
   2  -1 -16 20.5243 5.29568   1
   2   1 -16 20.0839 4.98025   1
  -2   1  16 26.8423 4.78953   7
   2   1 -16 21.0672 4.94086   6
  -1  -1  16 6.00504 2.81485   7
   1  -1 -16 10.0692 4.37770   6
   1  -1 -16 11.6674 4.56200   1
   1   1 -16 10.3931 4.25772   1
  -1   1  16 7.16405 3.14288   7
   1   1 -16 16.9585 4.54078   6
   0  -1  16 66.2175 8.61756   7
   0  -1 -16 88.0192 10.9114   1
   0   1 -16 87.4590 10.7091   6
   0   1  16 72.3710 8.81656   7
   0   1 -16 64.3914 10.0829   1
  -1  -1 -16 9.05082 4.71060   1
  -1  -1 -16 6.17301 3.58041   4
   1  -1  16 11.8768 3.43557   7
   1   1  16 10.3840 3.19629   7
  -1   1 -16 15.4522 4.98902   6
   1   1  16 9.79923 3.31048   5
  -1   1 -16 14.3375 4.90061   1
  -2  -1 -16 12.6777 5.53663   1
  -2  -1 -16 11.5273 4.22414   4
   2  -1  16 13.0947 3.56312   5
   2  -1  16 13.2722 3.80274   7
   2   1  16 11.2333 3.67867   7
  -2   1 -16 17.3686 5.58606   1
   2   1  16 14.3546 3.68987   5
   3  -1  16 2.93902 2.50492   5
  -3  -1 -16 7.33560 4.01799   4
   3  -1  16 8.04836 3.32988   7
  -3  -1 -16 8.48184 5.21371   1
  -3   1 -16 7.00305 4.88909   1
   3   1  16 6.70222 3.15301   7
   3   1  16 5.01387 2.70524   5
  -4  -1 -16 32.8505 8.06685   1
  -4  -1 -16 34.6279 6.92125   4
   4  -1  16 42.2328 5.97947   7
   4   1  16 50.9212 6.42199   7
   4   1  16 38.9040 5.74435   5
  -4   1 -16 37.9278 8.12317   1
  -4   1 -16 32.5891 7.03826   7
  -5  -1 -16 17.2837 5.17568   4
   5  -1  16 15.4340 3.77159   7
   5  -1  16 15.3713 3.72016   5
  -5  -1 -16 20.1227 6.92705   1
   5   1  16 16.7554 3.91078   1
   5   1  16 17.9511 3.99505   7
  -5   1 -16 10.9001 4.61666   7
  -5   1 -16 19.1800 6.18002   1
   5   1  16 20.5510 3.88325   5
  -6  -1 -16 3.95641 4.24017   4
   6  -1  16 5.20807 2.69982   1
   6  -1  16 4.40238 2.52391   5
   6  -1  16 0.97672 2.27134   7
   6   1  16 3.75003 3.01476   1
  -6   1 -16 6.60507 5.24021   1
  -6   1 -16 3.45341 3.84814   7
   6   1  16 1.55144 2.31398   5
   6   1  16 2.79397 2.53149   7
   7  -1  16 4.58399 3.02144   1
  -7  -1 -16 2.89297 4.27192   4
   7  -1  16 0.62242 2.35513   5
   7  -1  16 3.38332 2.76150   7
  -7  -1 -16 4.67568 4.91189   7
   7   1  16 1.81705 2.43766   5
   7   1  16 4.83277 2.85933   7
  -7   1 -16 6.13531 3.81256   7
  -7   1 -16 -1.4360 3.68929   4
   7   1  16 5.91253 3.13542   1
   7  -2 -16 28.4153 5.42262   1
  -7  -2  16 24.3850 4.27129   8
  -6  -2  16 114.583 11.7879   8
   6  -2 -16 100.918 12.4761   1
   6   2 -16 121.360 12.0671   1
   5  -2 -16 0.90978 3.35041   1
  -5  -2  16 3.09644 2.93727   8
   5   2 -16 2.56426 2.84945   1
  -4  -2  16 890.663 76.5523   8
   4  -2 -16 781.062 77.2648   1
   4  -2 -16 878.082 79.4636   6
   4   2 -16 917.448 78.7189   6
   4   2 -16 793.632 76.5975   1
  -4   2  16 866.517 77.2033   7
   3  -2 -16 98.2114 11.4824   1
   3  -2 -16 98.2287 11.7557   6
   3   2 -16 81.6525 10.4183   1
   3   2 -16 82.1813 10.3972   6
  -3   2  16 91.3279 10.3827   7
   2  -2 -16 85.7059 12.7193   4
  -2  -2  16 114.639 12.1861   7
   2  -2 -16 117.548 13.3753   1
   2   2 -16 113.637 12.8783   6
  -2   2  16 119.041 12.1544   7
   2   2 -16 133.317 13.0860   1
  -1  -2  16 1.98458 2.43318   7
   1  -2 -16 1.42672 3.34173   4
   1  -2 -16 3.18916 4.12764   6
   1  -2 -16 1.54308 3.58648   1
   1   2 -16 3.30990 3.07598   6
  -1   2  16 2.96498 2.60945   7
   1   2 -16 -0.4865 2.95351   1
   0  -2 -16 884.203 75.5066   1
   0   2 -16 854.511 74.9739   1
   0   2  16 770.282 74.1390   7
   0   2  16 805.001 73.6075   5
  -1  -2 -16 272.562 24.7519   1
  -1  -2 -16 184.670 24.4306   4
   1  -2  16 238.527 22.6268   7
   1   2  16 247.314 22.5506   7
  -1   2 -16 200.342 23.6147   6
  -1   2 -16 252.420 23.8832   1
   1   2  16 247.854 22.4102   5
  -2  -2 -16 73.8754 11.0411   1
  -2  -2 -16 62.4026 10.3156   4
   2  -2  16 65.1730 8.14709   5
   2  -2  16 59.6913 8.23025   7
   2   2  16 56.6164 7.90816   5
   2   2  16 72.8493 8.39579   7
  -2   2 -16 64.0390 10.1187   1
  -3  -2 -16 -0.0441 3.40397   4
   3  -2  16 2.44325 2.57422   5
   3  -2  16 2.92873 2.74125   7
  -3  -2 -16 0.80474 4.49189   1
   3   2  16 0.89372 2.72135   7
  -3   2 -16 -2.4598 2.63899   7
   3   2  16 2.25151 2.56601   5
  -3   2 -16 4.89917 4.53672   1
  -4  -2 -16 417.133 42.7226   1
  -4  -2 -16 360.112 43.6534   4
   4  -2  16 432.417 40.4210   7
   4  -2  16 456.277 40.1760   5
   4   2  16 478.133 40.2461   1
  -4   2 -16 429.950 42.2918   1
   4   2  16 421.181 39.8662   5
   4   2  16 478.869 40.4369   1
  -4   2 -16 377.921 40.6837   7
   4   2  16 525.059 40.6390   7
  -5  -2 -16 365.293 37.6397   4
   5  -2  16 347.794 33.5817   5
   5  -2  16 332.128 33.8369   7
  -5   2 -16 322.292 35.8294   1
   5   2  16 428.604 34.1326   1
   5   2  16 369.982 33.8230   7
   5   2  16 370.087 34.0072   1
   5   2  16 400.653 33.6243   5
  -5   2 -16 344.179 34.4968   7
   6  -2  16 14.6800 3.63098   5
  -6  -2 -16 10.8769 5.00951   4
   6  -2  16 13.8116 3.66250   7
  -6   2 -16 16.0469 5.35338   1
   6   2  16 18.7839 4.32031   1
  -6   2 -16 11.9176 4.20805   7
   6   2  16 17.0219 4.15202   1
   6   2  16 15.6636 3.52507   5
   6   2  16 15.8370 3.48919   7
  -7  -2 -16 4.09676 5.11026   4
   7  -2  16 4.79061 3.30934   1
   7  -2  16 3.32670 2.87604   7
   7  -2  16 6.34443 2.78294   5
  -7   2 -16 5.21829 3.57073   7
   7   2  16 5.29754 3.21026   1
   7   2  16 3.85461 2.73133   7
   7   2  16 6.46755 2.85478   5
   7  -3 -16 49.7340 7.64502   1
  -7  -3  16 57.5216 6.88203   8
   6  -3 -16 5.13544 3.50583   1
  -6  -3  16 3.42142 2.55134   8
   5  -3 -16 247.377 24.9894   1
  -5  -3  16 251.768 23.8807   8
   5   3 -16 240.404 23.9836   1
  -5   3  16 271.295 24.5557   7
   4  -3 -16 203.506 22.0506   1
  -4  -3  16 204.506 20.8466   8
   4  -3 -16 223.557 22.6634   6
   4   3 -16 230.158 21.2517   1
  -4   3  16 219.639 21.3299   7
   3  -3 -16 137.192 15.1915   6
   3  -3 -16 109.266 14.4100   1
  -3  -3  16 116.019 13.2199   8
   3   3 -16 140.752 13.9284   6
   3   3 -16 134.001 13.7046   1
  -3   3  16 115.029 13.3187   7
   2  -3 -16 20.0613 5.65902   1
   2  -3 -16 14.0248 4.79733   4
  -2   3  16 23.2221 4.44420   7
   2   3 -16 21.1054 4.83641   1
   2   3 -16 10.2932 3.72162   6
   1  -3 -16 245.760 30.9206   4
   1  -3 -16 284.286 29.4755   1
  -1  -3  16 263.287 28.2100   7
   1   3 -16 294.359 29.4332   6
  -1   3  16 318.731 28.3561   5
   1   3 -16 348.016 29.2465   1
  -1   3  16 343.853 28.6979   7
   0  -3 -16 369.389 32.2168   1
   0  -3 -16 265.363 33.4162   4
   0  -3  16 299.060 30.5343   7
   0   3  16 368.814 30.5927   7
   0   3  16 355.956 30.4441   5
   0   3 -16 296.247 31.0797   1
   0   3 -16 305.697 31.6500   6
  -1  -3 -16 114.296 15.3254   4
  -1  -3 -16 117.750 14.5271   1
   1  -3  16 108.216 12.8888   7
  -1   3 -16 105.367 13.8119   1
   1   3  16 129.137 12.8447   5
  -1   3 -16 126.428 14.1057   6
   1   3  16 124.097 12.6656   7
  -2  -3 -16 35.9747 7.85445   4
  -2  -3 -16 59.0810 9.73987   1
   2  -3  16 43.0516 6.74676   7
   2   3  16 35.9550 5.83240   7
   2   3  16 47.0991 6.60101   5
  -2   3 -16 42.3112 8.02030   1
  -3  -3 -16 275.128 26.8063   4
  -3  -3 -16 209.767 25.5463   1
   3  -3  16 223.009 23.7878   7
   3  -3  16 204.514 23.2397   5
   3   3  16 278.097 23.6475   1
   3   3  16 265.656 23.5088   5
  -3   3 -16 288.685 25.9801   1
   3   3  16 236.860 23.4649   7
  -4  -3 -16 429.442 40.4127   4
  -4  -3 -16 376.000 38.9420   1
   4  -3  16 372.113 36.5564   7
   4  -3  16 388.377 36.1881   5
   4   3  16 382.898 35.8918   5
   4   3  16 422.089 36.3293   1
   4   3  16 396.397 36.1969   7
  -4   3 -16 402.777 36.4677   7
  -4   3 -16 352.507 37.8073   1
  -5  -3 -16 90.9293 12.6773   4
   5  -3  16 59.0935 8.45869   5
   5  -3  16 60.1661 8.48273   7
  -5   3 -16 64.3449 10.5611   1
   5   3  16 71.5840 8.80658   1
   5   3  16 76.3337 8.91227   1
  -5   3 -16 79.5839 9.08197   7
   5   3  16 77.5557 8.51407   7
   5   3  16 70.8019 8.29115   5
   6  -3  16 51.7992 7.33076   5
  -6  -3 -16 72.8916 11.2778   4
   6  -3  16 53.8968 7.64474   7
  -6   3 -16 45.8411 8.45835   1
  -6   3 -16 60.0776 7.82482   7
   6   3  16 56.8765 7.16119   7
   6   3  16 61.7053 8.01779   1
   6   3  16 53.6376 6.94274   5
   6   3  16 67.4191 7.97230   1
  -7  -3 -16 150.016 17.6343   4
   7  -3  16 126.339 13.3046   5
   7   3  16 113.989 12.7553   5
   7   3  16 135.934 13.9335   1
   7   3  16 144.055 14.1523   1
   6  -4 -16 379.256 36.3095   1
  -6  -4  16 415.989 35.1817   8
   6  -4 -16 330.954 38.8285   4
  -6   4  16 403.031 36.0056   7
   5  -4 -16 14.8984 4.88499   1
   5  -4 -16 12.5924 4.64460   4
  -5   4  16 25.4172 4.72229   7
   4  -4 -16 180.518 19.2137   1
  -4   4  16 179.648 18.2456   7
   4   4 -16 181.056 18.1189   1
   3  -4 -16 2.72445 3.66854   4
   3  -4 -16 2.93213 3.85305   1
  -3   4  16 -1.3993 2.55862   7
   3   4 -16 2.34236 2.91650   1
   2  -4 -16 461.917 46.4471   1
   2  -4 -16 444.071 49.4741   4
   2   4 -16 539.800 45.6289   1
  -2   4  16 500.024 45.2360   7
   2   4 -16 496.590 46.4605   6
   1  -4 -16 71.5130 10.4838   1
   1  -4 -16 46.8153 10.2509   4
  -1  -4  16 73.3601 9.50776   7
   1   4 -16 64.8126 8.97828   6
  -1   4  16 76.1036 8.69774   7
   1   4 -16 74.0701 9.51431   1
  -1   4  16 58.9244 8.20955   5
   0  -4 -16 203.518 19.0490   1
   0  -4  16 137.029 16.7613   7
   0  -4 -16 173.701 20.6403   4
   0   4  16 177.156 16.7821   7
   0   4 -16 149.560 17.3801   1
   0   4  16 156.653 16.2835   5
   0   4 -16 164.279 17.6261   6
  -1  -4 -16 3.21844 4.23522   4
  -1  -4 -16 0.52149 4.36006   1
   1  -4  16 5.59848 3.82815   7
  -1   4 -16 7.27928 4.34752   1
   1   4  16 0.63267 2.56375   5
  -1   4 -16 9.89636 3.94810   6
   1   4  16 1.43552 2.65390   7
  -2  -4 -16 337.652 38.4775   4
   2  -4  16 393.274 36.1040   7
  -2  -4 -16 386.699 37.1951   1
   2   4  16 391.091 34.7348   5
  -2   4 -16 337.038 36.2068   1
   2   4  16 404.580 35.2315   7
  -3  -4 -16 136.273 16.0846   4
  -3  -4 -16 115.442 15.9637   1
   3  -4  16 109.181 13.8632   7
  -3   4 -16 146.980 15.4907   1
   3   4  16 136.324 13.6329   7
   3   4  16 129.185 13.1703   5
   3   4  16 128.751 13.5886   1
   4  -4  16 52.5109 7.82258   5
  -4  -4 -16 61.7285 9.95824   4
   4  -4  16 47.6285 7.84011   7
   4   4  16 55.8812 7.80664   1
  -4   4 -16 54.5815 9.18269   1
   4   4  16 63.5714 7.27372   5
   4   4  16 67.7186 7.73013   7
  -5  -4 -16 17.0726 5.65426   4
   5  -4  16 18.4277 4.69628   7
   5  -4  16 12.1802 3.92446   5
  -5   4 -16 11.1181 4.68098   1
  -5   4 -16 15.0048 3.67473   7
   5   4  16 14.5936 3.38843   5
   5   4  16 15.1061 4.19617   1
   5   4  16 17.8458 3.77299   7
  -6  -4 -16 130.392 16.3136   4
   6  -4  16 122.503 13.4773   5
   6   4  16 124.535 13.2023   7
   6   4  16 133.904 12.8679   5
   6   4  16 141.945 13.9828   1
  -6   4 -16 113.951 14.1307   1
  -6   4 -16 136.378 13.6760   7
   5  -5 -16 101.372 14.5489   4
   5  -5 -16 117.564 13.7954   1
  -5   5  16 129.669 13.1606   7
   4  -5 -16 137.307 16.0714   1
   4  -5 -16 123.699 17.1753   4
  -4   5  16 156.430 15.2139   7
   4   5 -16 146.895 15.0350   1
   3  -5 -16 51.7243 9.28795   1
   3  -5 -16 43.6078 9.55695   4
  -3   5  16 55.4470 7.68955   7
   3   5 -16 65.5973 8.40802   1
   2  -5 -16 24.0394 7.59855   4
   2  -5 -16 16.4376 6.04652   1
   2   5 -16 13.4198 4.56513   1
  -2   5  16 13.7164 3.88236   7
  -2   5  16 17.9072 4.40661   5
   1  -5 -16 301.290 32.1395   4
   1  -5 -16 278.840 29.4345   1
  -1   5  16 287.486 27.3341   5
   1   5 -16 268.730 28.0157   1
  -1   5  16 307.123 27.6942   7
   0  -5  16 294.545 28.4773   7
   0  -5 -16 265.838 30.5126   4
   0  -5 -16 344.284 29.9965   1
   0   5  16 262.720 26.9696   5
   0   5 -16 297.759 28.2357   1
   0   5  16 283.224 27.3333   7
  -1  -5 -16 16.7875 6.28169   1
  -1  -5 -16 23.3804 5.91208   4
   1  -5  16 28.0123 6.12399   7
   1   5  16 19.8734 4.37626   7
   1   5  16 18.9260 4.34787   5
  -1   5 -16 18.0809 5.09087   1
  -1   5 -16 11.6555 4.66524   6
  -2  -5 -16 0.18624 3.66370   4
   2  -5  16 1.34957 3.59562   7
  -2  -5 -16 -0.2117 4.32472   1
  -2   5 -16 2.57977 3.49969   1
   2   5  16 3.77919 2.71494   7
   2   5  16 1.93241 2.72895   5
   3  -5  16 293.015 30.3362   7
  -3  -5 -16 343.765 32.8811   4
   3   5  16 323.382 29.7941   1
   3   5  16 324.993 29.6934   7
   3   5  16 325.225 29.2478   5
  -3   5 -16 278.661 30.1132   1
  -4  -5 -16 432.514 40.5536   4
   4  -5  16 374.793 36.7178   5
   4  -5  16 350.335 37.1913   7
  -4   5 -16 366.643 37.1892   1
   4   5  16 443.962 37.1175   1
   4   5  16 362.065 36.0124   5
   4   5  16 451.356 36.7663   7
   5  -5  16 7.28212 3.40155   5
  -5  -5 -16 6.70437 4.40215   4
  -5   5 -16 7.33275 3.91755   1
   5   5  16 5.76924 3.19586   1
   5   5  16 0.63552 2.56218   7
   5   5  16 3.15265 2.46428   5
   4  -6 -16 3.30286 4.70543   4
   4  -6 -16 1.49388 3.76996   1
   4   6 -16 1.12677 2.34165   1
   3  -6 -16 76.7190 10.8043   1
   3  -6 -16 74.3640 12.7162   4
  -3   6  16 72.2169 10.0213   7
  -3   6  16 81.3917 9.55052   5
   3   6 -16 78.9633 9.18930   1
   2  -6 -16 333.283 32.2371   1
   2  -6 -16 285.318 34.6312   4
  -2   6  16 340.734 30.9133   5
  -2   6  16 326.320 31.1628   7
   2   6 -16 354.487 31.1208   1
   1  -6 -16 132.426 16.9173   4
   1  -6 -16 129.921 15.4483   1
  -1   6  16 146.265 14.4148   7
  -1   6  16 140.282 14.1141   5
   1   6 -16 125.790 14.2193   1
   0  -6  16 2.64784 3.84810   7
   0  -6 -16 3.57613 4.06681   4
   0  -6 -16 6.47619 4.22629   1
   0   6  16 0.53753 2.52550   5
   0   6 -16 0.64467 3.02668   1
   0   6  16 -0.0009 2.51966   7
   1  -6  16 45.1323 7.97608   7
  -1  -6 -16 48.6091 7.61703   1
  -1  -6 -16 51.7950 8.23055   4
   1   6  16 42.2873 6.39669   5
  -1   6 -16 45.0673 7.04218   1
   1   6  16 46.5800 6.73326   7
  -2  -6 -16 293.924 27.2312   4
   2  -6  16 255.100 25.7259   7
   2   6  16 296.397 25.2764   1
  -2   6 -16 209.744 24.4711   1
   2   6  16 268.225 24.5703   7
   2   6  16 228.591 23.9465   5
   3  -6  16 226.549 24.0883   7
  -3  -6 -16 274.355 25.3800   4
   3   6  16 250.656 22.9179   7
  -3   6 -16 239.950 23.2986   1
   3   6  16 220.490 23.1068   1
   3   6  16 220.523 22.3140   5
  -4  -6 -16 2.50995 3.44035   4
   4   6  16 19.1523 4.03457   7
   4   6  16 0.31281 3.15090   1
  -4   6 -16 0.23255 2.64244   1
   4   6  16 1.13519 2.33505   5
  -2   7  16 136.411 14.2410   5
   1  -7 -16 4.52657 4.19853   4
   1  -7 -16 3.57881 3.30101   1
  -1   7  16 2.09137 2.75672   5
   1   7 -16 4.53629 2.96782   1
   0  -7 -16 80.1056 9.75574   1
   0  -7 -16 96.6920 11.5321   4
   0   7 -16 87.2693 9.48485   1
   0   7  16 66.5492 9.14422   5
  -1  -7 -16 54.6032 7.64283   4
  -1   7 -16 28.9075 5.40224   1
   1   7  16 31.6665 5.48349   5
   6   0 -17 -0.1209 2.87416   1
   5   0 -17 0.74070 3.07775   1
   4   0 -17 2.43512 3.28763   1
  -3   0  17 1.31321 3.04206   7
   3   0 -17 4.73501 3.34558   1
   3   0 -17 4.17570 3.53077   6
   2   0 -17 -1.5837 3.44468   1
   2   0 -17 0.97094 3.38608   6
  -2   0  17 1.59522 2.64716   7
   1   0 -17 1.15088 3.75396   6
  -1   0  17 3.08138 2.95239   7
   1   0 -17 1.50290 3.78376   1
   0   0  17 5.58469 2.86052   7
   0   0 -17 0.83781 3.80037   1
  -1   0 -17 7.28726 4.65304   1
   1   0  17 -0.7593 2.42014   7
   2   0  17 -0.2616 2.52429   7
   2   0  17 2.20870 2.85551   5
  -2   0 -17 4.08368 4.20324   1
   3   0  17 -1.8105 2.61562   7
  -3   0 -17 0.61050 4.15936   1
   3   0  17 1.31620 2.63624   5
   4   0  17 -0.1876 2.35381   5
   4   0  17 1.75585 2.59954   7
  -4   0 -17 4.12966 4.91952   1
   5   0  17 -1.1222 2.39034   5
  -5   0 -17 3.18668 5.08364   1
   5   0  17 2.32942 2.48085   7
  -6   0 -17 -0.2821 3.30971   4
   6   0  17 0.25161 2.58380   7
   6   0  17 0.42473 2.31371   5
   6  -1 -17 1023.34 92.6014   1
  -6  -1  17 1137.80 92.0785   8
   6   1 -17 949.302 92.1495   1
   5  -1 -17 246.037 26.1244   1
   5   1 -17 300.493 26.2720   1
   4  -1 -17 243.353 24.9086   1
  -4   1  17 264.874 24.7325   7
   4   1 -17 256.565 24.7191   1
   3  -1 -17 54.5149 8.41436   1
   3  -1 -17 58.1705 8.64069   6
   3   1 -17 54.6338 8.11481   1
  -3   1  17 54.2243 7.53352   7
   2  -1 -17 1344.59 113.280   1
   2  -1 -17 1281.28 116.300   6
  -2  -1  17 1168.60 112.648   7
   2   1 -17 1173.87 112.738   1
  -2   1  17 1291.55 112.831   7
   2   1 -17 1320.34 115.852   6
   1  -1 -17 337.578 28.9009   6
   1  -1 -17 301.893 27.6827   1
  -1  -1  17 247.082 26.0375   7
   1   1 -17 289.043 27.4674   1
   1   1 -17 255.419 27.4893   6
  -1   1  17 252.434 26.2187   7
   0  -1 -17 414.010 38.8704   1
   0  -1  17 391.319 37.4004   7
   0   1  17 393.297 37.4952   7
   0   1 -17 418.628 39.5875   6
  -1  -1 -17 75.2796 11.8550   1
   1  -1  17 78.7942 9.73284   7
   1   1  17 75.6453 9.66103   7
   1   1  17 84.9341 9.63934   5
  -1   1 -17 97.2566 11.8996   1
  -2  -1 -17 1069.87 94.6535   1
  -2  -1 -17 887.614 99.4807   4
   2  -1  17 1090.48 93.1049   7
   2   1  17 1047.61 91.9579   5
  -2   1 -17 973.963 93.6585   1
   2   1  17 1130.41 93.0850   7
  -3  -1 -17 181.950 21.4306   1
   3  -1  17 214.146 19.3140   5
   3  -1  17 207.466 19.5781   7
  -3  -1 -17 160.620 20.7936   4
  -3   1 -17 172.974 21.0962   1
   3   1  17 202.946 19.0153   5
   3   1  17 206.114 19.5032   7
  -4  -1 -17 296.384 34.8889   4
   4  -1  17 319.018 32.2658   7
   4  -1  17 376.384 32.2149   5
  -4  -1 -17 282.889 34.0214   1
  -4   1 -17 355.240 34.6057   1
   4   1  17 385.682 32.0055   5
   4   1  17 383.796 32.5502   7
   5  -1  17 52.7357 7.28161   7
  -5  -1 -17 34.7581 7.83691   4
   5  -1  17 55.6055 7.19884   5
  -5  -1 -17 49.8306 9.71314   1
   5   1  17 61.4586 7.54036   7
   5   1  17 64.9796 7.22395   5
  -5   1 -17 60.2515 10.4085   1
  -5   1 -17 44.6112 8.14376   7
   6  -1  17 647.438 62.7401   5
  -6  -1 -17 670.518 68.6872   4
   6  -1  17 709.994 63.5408   7
  -6   1 -17 648.520 65.3489   1
   6   1  17 835.891 63.5596   1
  -6   1 -17 680.771 64.7724   7
   6   1  17 710.665 62.7227   5
   6  -2 -17 71.2618 9.70522   1
  -6  -2  17 86.3921 8.99701   8
   6   2 -17 65.4423 8.90324   1
   5  -2 -17 82.4968 11.2429   1
  -5  -2  17 113.066 10.9982   8
   5   2 -17 90.0919 10.8317   1
   4  -2 -17 121.709 13.0139   1
  -4   2  17 101.540 11.9755   7
   4   2 -17 100.584 12.0001   1
   3  -2 -17 18.2683 4.99888   1
   3  -2 -17 17.0110 5.53264   6
  -3   2  17 20.5415 4.68751   7
   3   2 -17 18.4653 4.85688   1
  -2  -2  17 90.2903 11.7402   7
   2  -2 -17 124.697 13.5962   1
   2  -2 -17 123.598 14.1137   6
   2   2 -17 111.530 12.7561   1
   2   2 -17 112.845 12.9531   6
  -2   2  17 109.471 12.0809   7
   1  -2 -17 38.6564 7.80407   1
  -1  -2  17 47.7874 6.91620   7
   1   2 -17 59.5141 8.52699   1
   1   2 -17 44.6558 7.81099   6
  -1   2  17 41.8294 6.44111   7
   0  -2 -17 98.8063 12.1383   1
   0  -2  17 68.8546 9.71976   7
   0  -2 -17 75.6325 11.1751   4
   0   2  17 96.0884 10.2091   5
   0   2 -17 83.2141 11.2110   6
   0   2  17 90.6551 10.0428   7
   0   2 -17 93.4702 11.5119   1
   1  -2  17 48.9101 6.79291   7
  -1  -2 -17 28.6476 6.66436   4
  -1  -2 -17 62.5359 9.71894   1
  -1   2 -17 49.9867 8.14863   1
   1   2  17 34.9904 5.94285   7
   1   2  17 37.7891 6.13777   5
   2  -2  17 72.0738 9.27993   7
  -2  -2 -17 69.3635 10.9216   4
  -2  -2 -17 71.7654 11.5531   1
   2   2  17 77.8704 9.06908   7
  -2   2 -17 69.0629 10.9287   1
   2   2  17 77.5466 9.09882   5
  -3  -2 -17 28.5181 7.79544   1
   3  -2  17 25.5276 5.04874   5
   3  -2  17 22.1506 4.74275   7
  -3  -2 -17 26.6305 6.12407   4
  -3   2 -17 20.3242 6.42326   1
   3   2  17 26.0060 4.94064   7
   3   2  17 26.0352 4.73823   5
  -4  -2 -17 111.418 15.4009   1
  -4  -2 -17 79.4106 12.0637   4
   4  -2  17 90.0599 10.6740   5
   4  -2  17 94.1894 10.8414   7
  -4   2 -17 79.9844 13.0057   1
   4   2  17 103.340 10.7911   7
   4   2  17 109.299 10.7665   5
  -4   2 -17 99.8195 11.5114   7
   5  -2  17 50.8924 6.78828   7
   5  -2  17 35.1285 5.99021   5
   5   2  17 50.9500 6.93972   1
   5   2  17 50.0943 6.51513   7
  -5   2 -17 41.5553 8.86827   1
   5   2  17 47.2048 6.44317   5
  -5   2 -17 42.6313 6.95712   7
  -6  -2 -17 34.5305 7.31616   4
   6  -2  17 33.3228 5.38576   5
   6   2  17 27.1435 5.17028   7
  -6   2 -17 29.2623 6.00191   7
   6   2  17 33.4651 5.22797   5
  -6   2 -17 36.4555 7.38731   1
   6   2  17 39.6206 5.92183   1
   6  -3 -17 237.319 23.7189   1
  -6  -3  17 236.666 22.5350   8
   5  -3 -17 9.42101 4.48908   1
  -5  -3  17 12.1483 3.58662   8
  -5   3  17 7.63114 3.57366   7
   5   3 -17 10.5399 3.63908   1
  -4  -3  17 420.038 39.3556   8
   4  -3 -17 425.426 40.7012   1
  -4   3  17 411.688 39.7688   7
   4   3 -17 454.526 39.7344   1
   3  -3 -17 14.6048 5.02491   1
   3  -3 -17 8.65535 3.80199   4
  -3   3  17 14.3766 4.03807   7
   3   3 -17 15.3333 4.40656   1
   2  -3 -17 275.360 35.0030   4
   2  -3 -17 316.404 33.4927   1
  -2   3  17 387.451 32.9256   7
   2   3 -17 412.639 33.3827   1
   1  -3 -17 5.79754 4.20363   1
   1  -3 -17 1.54639 3.56965   4
  -1  -3  17 5.76809 2.75193   7
  -1   3  17 0.21809 2.45058   7
   1   3 -17 6.19660 4.21118   1
   0  -3 -17 439.095 42.3739   1
   0  -3  17 475.493 41.3598   7
   0  -3 -17 363.750 44.3083   4
   0   3 -17 428.104 41.8007   1
   0   3 -17 439.096 42.6323   6
   0   3  17 506.082 41.0652   5
   1  -3  17 47.6669 7.37262   7
  -1  -3 -17 62.0639 9.91255   1
  -1  -3 -17 34.5326 8.03947   4
  -1   3 -17 54.7735 8.70708   6
   1   3  17 54.3283 7.47133   5
  -1   3 -17 51.5149 8.64576   1
   1   3  17 46.1325 6.97508   7
   2  -3  17 591.007 48.8072   7
  -2  -3 -17 425.163 51.7530   4
  -2  -3 -17 509.584 49.8948   1
  -2   3 -17 482.148 49.1411   1
   2   3  17 565.941 48.1476   7
   2   3  17 559.196 47.8842   5
  -3  -3 -17 10.6442 6.19164   1
   3  -3  17 7.57713 3.45785   7
   3  -3  17 2.55551 3.30864   5
  -3  -3 -17 2.75750 3.96723   4
   3   3  17 10.2517 3.62209   5
   3   3  17 6.89729 3.29448   7
  -3   3 -17 7.11881 5.11095   1
  -4  -3 -17 413.920 45.3532   1
  -4  -3 -17 477.108 47.0271   4
   4  -3  17 467.443 43.2854   7
   4  -3  17 429.276 42.7378   5
   4   3  17 539.522 43.7641   1
   4   3  17 489.557 42.6581   5
  -4   3 -17 456.012 44.6783   1
   4   3  17 411.490 42.7840   1
   4   3  17 516.880 43.1142   7
  -5  -3 -17 69.9848 10.8929   4
   5  -3  17 69.5599 9.28090   7
   5  -3  17 76.2321 9.08942   5
   5   3  17 88.7372 9.39392   1
  -5   3 -17 49.9070 9.71277   1
  -5   3 -17 74.0900 9.15660   7
   5   3  17 75.5736 8.59912   5
   5   3  17 81.2571 9.03360   1
   5   3  17 65.8384 8.53183   7
   6  -3  17 620.934 58.5298   5
   6   3  17 689.762 58.9911   1
   6   3  17 645.210 58.2003   5
   5  -4 -17 78.0922 10.9450   4
   5  -4 -17 79.4533 10.7336   1
   4  -4 -17 148.351 17.1320   1
   4  -4 -17 122.191 17.2228   4
  -4   4  17 174.166 16.1761   7
   4   4 -17 162.875 16.0523   1
   3  -4 -17 42.6353 8.45633   1
   3  -4 -17 35.9818 7.57735   4
  -3   4  17 56.5330 7.47307   7
   3   4 -17 55.6134 7.79474   1
   2  -4 -17 31.0300 7.26930   4
   2  -4 -17 26.1930 6.83345   1
   2   4 -17 29.3527 5.99634   1
  -2   4  17 32.5109 5.77805   7
   1  -4 -17 167.588 17.9624   1
  -1  -4  17 138.722 16.3628   7
   1  -4 -17 161.679 19.1580   4
  -1   4  17 169.795 16.1214   5
   1   4 -17 146.524 16.8518   1
  -1   4  17 156.959 16.2179   7
   0  -4  17 184.147 20.4859   7
   0  -4 -17 191.956 23.3662   4
   0   4  17 218.515 20.0998   5
   0   4  17 206.460 20.2433   7
   0   4 -17 212.876 21.3850   1
  -1  -4 -17 11.6406 5.19298   4
  -1  -4 -17 11.5804 5.25473   1
   1  -4  17 17.8965 4.87242   7
  -1   4 -17 15.0154 5.57847   1
   1   4  17 13.8821 3.80357   5
   1   4  17 12.7256 3.91180   7
  -2  -4 -17 43.3003 8.09393   4
   2  -4  17 38.4977 6.93657   7
  -2  -4 -17 37.8271 8.62160   1
   2   4  17 33.7063 5.73394   5
  -2   4 -17 34.9431 7.33625   1
   2   4  17 34.0974 5.86524   7
   3  -4  17 194.192 19.3952   7
  -3  -4 -17 202.891 21.8505   1
  -3  -4 -17 214.040 21.7227   4
   3   4  17 196.567 18.7369   7
  -3   4 -17 142.707 19.3159   1
   3   4  17 180.986 18.1733   5
  -4  -4 -17 185.906 18.0491   4
   4  -4  17 126.891 14.8302   5
   4  -4  17 130.438 15.2877   7
   4   4  17 135.782 14.7535   1
   4   4  17 147.474 14.7264   7
   4   4  17 139.170 14.2776   5
  -4   4 -17 150.922 16.2239   1
  -5  -4 -17 13.4431 5.27967   4
   5  -4  17 8.78960 3.67736   5
   5   4  17 7.98411 2.83275   5
  -5   4 -17 6.39824 4.03384   1
   5   4  17 9.26439 3.59048   1
   4  -5 -17 481.595 50.0056   4
   4  -5 -17 448.857 46.4539   1
   4   5 -17 544.431 45.6371   1
   3  -5 -17 32.0463 7.85050   4
   3  -5 -17 41.1655 8.18405   1
   3   5 -17 47.7299 7.37319   1
   2  -5 -17 165.646 20.2607   1
   2  -5 -17 179.783 21.9818   4
   2   5 -17 185.851 19.2536   1
  -2   5  17 177.428 18.6906   7
  -2   5  17 214.817 18.8891   5
   1  -5 -17 17.3995 6.28720   1
   1  -5 -17 20.3727 7.66450   4
  -1   5  17 19.4691 4.55895   5
   1   5 -17 24.4574 5.59122   1
  -1   5  17 17.2642 4.39405   7
   0  -5  17 690.970 71.3552   7
   0  -5 -17 791.407 77.2432   4
   0  -5 -17 837.121 72.4734   1
   0   5 -17 838.285 71.3157   1
   0   5  17 789.190 70.6891   7
   0   5  17 752.580 70.0026   5
   1  -5  17 43.1713 7.96823   7
  -1  -5 -17 47.8324 8.57993   4
  -1  -5 -17 37.9997 8.53419   1
   1   5  17 34.4929 5.99072   7
  -1   5 -17 30.6935 6.78534   1
   1   5  17 42.9934 6.35162   5
  -2  -5 -17 168.137 20.0234   1
  -2  -5 -17 162.590 19.5226   4
   2  -5  17 195.183 19.1286   7
   2   5  17 160.864 16.9896   5
  -2   5 -17 160.686 18.0492   1
   2   5  17 184.711 17.4647   7
  -3  -5 -17 43.4124 7.35804   4
  -3   5 -17 24.7664 5.92710   1
   3   5  17 31.2948 5.30167   5
   4  -5  17 516.532 53.3680   5
  -4   5 -17 585.220 54.1216   1
   4   5  17 678.315 54.0430   1
   4   5  17 582.092 52.9027   5
   1  -6 -17 19.7484 5.73542   1
   1  -6 -17 19.1376 6.10426   4
   1   6 -17 19.3255 4.57790   1
  -1   6  17 20.0483 4.50068   5
   0  -6 -17 83.1971 10.7218   1
   0  -6 -17 80.7572 11.1856   4
   0  -6  17 64.4986 10.0186   7
   0   6 -17 60.4081 8.92260   1
   0   6  17 74.5958 8.85903   5
  -1  -6 -17 15.1122 5.07895   4
  -1  -6 -17 11.1299 5.05362   1
  -1   6 -17 19.4571 4.80582   1
   1   6  17 11.0554 3.55362   5
   5   0 -18 111.163 12.4595   1
   4   0 -18 205.728 20.7626   1
   3   0 -18 117.092 13.0255   1
  -3   0  18 100.424 11.9532   7
   2   0 -18 121.163 14.2638   1
  -2   0  18 124.470 13.5134   7
   1   0 -18 207.482 22.3767   1
  -1   0  18 220.465 21.3224   7
   0   0  18 285.909 28.7194   7
   0   0 -18 325.079 30.6384   1
   1   0  18 182.515 18.6891   7
  -1   0 -18 191.175 20.6815   1
   2   0  18 17.0443 4.73158   5
  -2   0 -18 24.5893 6.91679   1
   2   0  18 25.8103 5.01895   7
   3   0  18 325.123 29.8238   5
  -3   0 -18 316.104 32.1531   1
   3   0  18 309.222 30.1327   7
   4   0  18 298.248 26.7139   7
  -4   0 -18 246.228 28.5778   1
   5   0  18 166.662 16.1242   5
  -5   0 -18 146.912 19.0285   1
   5  -1 -18 35.3942 6.25153   1
   5   1 -18 26.1987 5.49866   1
   4  -1 -18 10.8008 4.29608   1
   4   1 -18 9.44904 4.13642   1
   3  -1 -18 77.6074 9.94367   1
  -3   1  18 68.2792 8.81098   7
   3   1 -18 65.8641 9.72789   1
  -2  -1  18 72.6945 9.87680   7
   2  -1 -18 96.9905 11.5860   1
  -2   1  18 80.9355 9.99421   7
   2   1 -18 98.4339 11.4506   1
  -1  -1  18 27.8725 5.55002   7
   1  -1 -18 39.0850 7.72750   1
  -1   1  18 32.8895 5.63398   7
   1   1 -18 32.2061 6.92261   1
   0  -1 -18 7.82461 5.13560   1
   0  -1  18 2.09105 2.87437   7
   0   1 -18 3.01399 3.83083   1
   0   1  18 5.17657 3.33871   7
   1  -1  18 103.714 12.0832   7
  -1  -1 -18 106.288 14.1476   1
   1   1  18 114.570 12.2964   7
   1   1  18 102.466 11.9169   5
  -1   1 -18 113.710 13.9593   1
   2  -1  18 102.162 11.9277   5
   2  -1  18 110.447 12.0321   7
  -2  -1 -18 94.5227 14.3250   1
  -2   1 -18 112.728 14.0351   1
   2   1  18 102.169 11.7169   5
   2   1  18 105.259 11.9126   7
  -3  -1 -18 21.5322 7.30966   1
   3  -1  18 23.4393 4.96021   7
   3  -1  18 19.0736 4.71356   5
   3   1  18 23.4197 4.72240   5
  -3   1 -18 23.0932 6.60055   1
   3   1  18 21.8546 4.67074   7
   4  -1  18 21.3882 4.50998   5
  -4  -1 -18 29.8427 7.72954   1
  -4  -1 -18 10.9899 5.27387   4
   4  -1  18 18.4195 4.37719   7
   4   1  18 22.7433 4.55777   5
   4   1  18 25.4941 4.86107   7
  -4   1 -18 19.6182 6.76096   1
   5  -1  18 73.0188 8.67090   5
  -5  -1 -18 70.7711 10.1447   4
  -5  -1 -18 69.9199 12.0064   1
  -5   1 -18 65.0203 11.5310   1
   5   1  18 64.7872 8.33582   5
   5  -2 -18 6.89431 4.09037   1
   5   2 -18 5.85168 3.32346   1
   4  -2 -18 58.6971 9.23211   1
  -4   2  18 71.7766 9.07028   7
   3  -2 -18 10.5191 4.56737   1
   3   2 -18 10.2320 4.24149   1
  -3   2  18 15.2152 4.20294   7
   2  -2 -18 4.02949 4.15601   1
   2   2 -18 8.18333 4.21998   1
  -2   2  18 2.87348 2.90258   7
  -1  -2  18 51.0112 7.75165   7
   1  -2 -18 51.7303 9.08310   1
  -1   2  18 60.0215 7.76567   7
   1   2 -18 57.7514 8.98055   1
   0  -2 -18 152.824 17.1504   1
   0  -2  18 121.816 14.7884   7
   0   2  18 147.804 15.0301   7
   0   2 -18 160.881 16.4912   1
  -1  -2 -18 1.20950 4.65722   1
  -1  -2 -18 1.46204 3.46461   4
   1  -2  18 1.30990 3.11908   7
   1   2  18 3.89073 3.02437   5
   1   2  18 0.38124 2.82264   7
  -1   2 -18 2.44905 4.06882   1
   2  -2  18 2.25797 3.24201   7
  -2  -2 -18 1.42676 4.36705   1
  -2  -2 -18 -1.1035 3.64271   4
   2   2  18 -0.2432 2.78083   5
   2   2  18 3.18640 2.91360   7
  -2   2 -18 1.93679 4.37808   1
   3  -2  18 185.067 17.0175   7
   3  -2  18 149.451 16.1778   5
  -3  -2 -18 122.231 17.8516   4
  -3  -2 -18 172.338 19.4235   1
   3   2  18 157.226 16.1557   5
  -3   2 -18 158.161 18.4359   1
   3   2  18 177.835 16.5705   7
  -4  -2 -18 188.395 21.0613   1
  -4  -2 -18 160.440 19.6718   4
   4   2  18 200.929 17.8690   5
  -4   2 -18 155.503 19.9253   1
   5  -2  18 4.27535 3.01031   5
   5   2  18 1.05237 2.61919   5
   4  -3 -18 6.25882 4.43338   1
   4   3 -18 1.79623 3.38207   1
   3  -3 -18 187.703 21.0911   1
  -3   3  18 198.805 20.3367   7
   3   3 -18 223.708 20.8542   1
   2  -3 -18 331.418 32.2102   1
   2   3 -18 353.488 31.7465   1
  -2   3  18 302.405 30.9876   7
   1  -3 -18 18.5807 5.82573   4
  -1  -3  18 24.1907 4.88644   7
   1  -3 -18 28.0059 6.73845   1
   1   3 -18 18.8350 5.50204   1
  -1   3  18 20.9426 4.58323   7
   0  -3  18 8.86419 3.92376   7
   0  -3 -18 8.97054 4.74956   4
   0  -3 -18 6.79037 4.81470   1
   0   3  18 14.9004 4.15206   7
   0   3 -18 11.6369 4.73680   1
   0   3  18 12.2063 3.99089   5
  -1  -3 -18 228.112 22.3002   1
   1  -3  18 167.046 19.7016   7
   1   3  18 234.843 20.0737   7
   1   3  18 189.735 19.5308   5
  -1   3 -18 174.722 20.7997   1
  -2  -3 -18 273.952 32.9936   4
  -2  -3 -18 315.697 32.6329   1
   2  -3  18 339.638 30.9454   7
  -2   3 -18 348.440 32.2685   1
   2   3  18 329.223 30.4492   7
  -3  -3 -18 18.0236 5.15534   4
  -3  -3 -18 11.5337 5.99939   1
  -3   3 -18 13.3275 5.89553   1
   3   3  18 11.4310 3.78773   5
   4  -3  18 25.9930 5.10666   5
  -4  -3 -18 20.3975 6.76114   1
  -4  -3 -18 19.7594 5.77198   4
  -4   3 -18 15.8089 5.74530   1
   4   3  18 21.4796 4.53489   5
   3  -4 -18 20.2874 5.68827   4
   3  -4 -18 30.5702 6.78088   1
   3   4 -18 19.6326 5.30492   1
   2  -4 -18 30.7404 7.16124   4
   2   4 -18 40.5373 7.01095   1
   1  -4 -18 -0.6951 4.27034   1
   1  -4 -18 7.68405 4.43793   4
  -1   4  18 1.46155 3.12170   5
   1   4 -18 5.09192 4.13308   1
   0  -4 -18 14.9224 6.15839   4
   0  -4  18 17.0882 5.05373   7
   0  -4 -18 29.4059 6.98939   1
   0   4 -18 23.9015 6.20150   1
   0   4  18 22.7940 4.78659   5
  -1  -4 -18 77.1991 11.9121   4
  -1  -4 -18 81.3870 12.2134   1
   1  -4  18 87.2338 10.7087   7
   1   4  18 74.0107 9.39733   5
  -1   4 -18 69.4526 11.3168   1
  -2  -4 -18 53.9341 9.15313   4
  -2  -4 -18 48.3219 9.58878   1
  -2   4 -18 54.4529 9.04762   1
   2   4  18 54.0712 7.43499   5
  -3  -4 -18 3.21296 5.94962   1
  -3  -4 -18 16.0697 5.19493   4
  -3   4 -18 12.0901 4.90776   1
   3   4  18 12.5893 3.67716   5
   3   0 -19 -2.7638 3.25152   1
  -2   0  19 -1.9488 3.05326   7
   2   0 -19 1.64356 3.84170   1
  -1   0  19 7.70939 3.87197   7
   1   0 -19 3.58155 4.38611   1
   0   0  19 13.1923 3.89965   7
   0   0 -19 4.02388 4.52622   1
  -1   0 -19 0.86534 4.03315   1
   1   0  19 0.48912 2.87646   7
  -2   0 -19 1.10517 4.53385   1
   2   0  19 2.51307 3.46005   5
   3   0  19 4.25481 3.37882   5
  -3   0 -19 -5.3739 4.63219   1
   3  -1 -19 242.992 23.1104   1
   3   1 -19 205.403 22.5570   1
  -2  -1  19 166.586 17.4128   7
   2  -1 -19 175.125 18.6116   1
   2   1 -19 201.614 18.7539   1
  -2   1  19 144.380 17.1246   7
  -1  -1  19 6.75046 3.40618   7
   1  -1 -19 4.28514 4.27747   1
   1   1 -19 8.70765 4.46803   1
  -1   1  19 6.35005 3.43539   7
   0  -1 -19 599.199 48.9807   1
   0  -1  19 415.128 46.4037   7
   0   1 -19 594.176 48.4893   1
   0   1  19 473.823 46.6424   7
  -1  -1 -19 286.033 30.2130   1
   1  -1  19 272.945 28.4939   7
   1   1  19 303.520 28.3350   5
  -1   1 -19 318.344 30.0119   1
  -2  -1 -19 126.433 18.0137   1
   2   1  19 173.136 16.6600   5
  -2   1 -19 173.850 18.9771   1
  -3  -1 -19 4.95601 5.23208   1
   3  -1  19 4.77828 3.49735   5
  -3   1 -19 5.72536 5.15392   1
   3   1  19 8.02567 3.50177   5
   2  -2 -19 61.9475 9.95478   1
   2   2 -19 70.1669 9.88408   1
   1  -2 -19 100.094 12.5109   1
  -1  -2  19 73.8318 10.1719   7
   1   2 -19 84.7857 11.3234   1
   0  -2  19 65.5158 9.68277   7
   0  -2 -19 84.3787 11.7854   1
   0   2 -19 77.6496 11.1113   1
  -1  -2 -19 39.6587 8.63228   1
   1   2  19 32.7524 5.90706   5
  -1   2 -19 29.3886 7.16216   1
  -2  -2 -19 44.8416 9.60080   1
   2   2  19 56.2565 7.81268   5
  -2   2 -19 51.8030 9.59653   1
   0  -3 -19 290.864 28.8439   1
   0   3  19 267.504 26.5521   5
   0   3 -19 278.766 27.9212   1
   1   3  19 46.0591 7.02384   5
   0   0   0    0.00    0.00   0
;
_shelx_hkl_checksum              80491
#END Tags that were not found in dictionaries
loop_
_space_group_symop_operation_xyz
'x, y, z'
'-x, y+1/2, -z+1/2'
'-x, -y, -z'
'x, -y-1/2, z-1/2'
loop_
_atom_site_label
_atom_site_type_symbol
_atom_site_fract_x
_atom_site_fract_y
_atom_site_fract_z
_atom_site_U_iso_or_equiv
_atom_site_adp_type
_atom_site_occupancy
_atom_site_site_symmetry_order
_atom_site_calc_flag
U1 U 0.49996(3) 0.02244(3) 0.32017(2) 0.00829(8) Uani 1 1 d
U2 U 0.25312(2) 0.07654(3) 0.00800(2) 0.00856(8) Uani 1 1 d
Pb1 Pb 0.01142(4) 0.00903(5) 0.32362(2) 0.01702(9) Uani 1 1 d
S1 S 0.54578(19) 0.16268(19) 0.09885(12) 0.0091(2) Uani 1 1 d
S2 S 0.2823(2) 0.4565(2) 0.00051(12) 0.0094(2) Uani 1 1 d
S3 S 0.7225(2) 0.3351(2) 0.31430(13) 0.0104(2) Uani 1 1 d
S4 S 0.03877(19) 0.6627(2) 0.41167(13) 0.0113(3) Uani 1 1 d
S5 S 0.26943(19) 0.3052(2) 0.28107(13) 0.0098(2) Uani 1 1 d
loop_
_atom_site_aniso_label
_atom_site_aniso_U_11
_atom_site_aniso_U_22
_atom_site_aniso_U_33
_atom_site_aniso_U_23
_atom_site_aniso_U_13
_atom_site_aniso_U_12
U1 0.00965(13) 0.01007(13) 0.00514(12) -0.00002(6) -0.00110(8) 0.00032(6)
U2 0.00922(13) 0.01056(12) 0.00589(12) 0.00041(6) -0.00097(8) 0.00011(6)
Pb1 0.01858(15) 0.01785(13) 0.01462(15) 0.00021(8) -0.00265(10) -0.00534(9)
S1 0.0096(6) 0.0113(5) 0.0064(5) -0.0003(4) -0.0007(4) 0.0007(4)
S2 0.0104(6) 0.0121(6) 0.0057(6) -0.0004(4) -0.0009(4) 0.0001(5)
S3 0.0126(6) 0.0116(6) 0.0069(6) -0.0008(4) -0.0014(5) 0.0006(5)
S4 0.0092(6) 0.0144(6) 0.0103(6) 0.0037(5) 0.0002(5) 0.0007(5)
S5 0.0106(6) 0.0110(5) 0.0076(6) 0.0001(4) -0.0014(4) 0.0001(5)
loop_
_atom_type_symbol
_atom_type_description
_atom_type_scat_dispersion_real
_atom_type_scat_dispersion_imag
_atom_type_scat_source
S S 0.1246 0.1234 'International Tables Vol C Tables 4.2.6.8 and 6.1.1.4'
Pb Pb -3.3944 10.1111 'International Tables Vol C Tables 4.2.6.8 and 6.1.1.4'
U U -9.6767 9.6646 'International Tables Vol C Tables 4.2.6.8 and 6.1.1.4'
loop_
_geom_angle_atom_site_label_1
_geom_angle_atom_site_label_2
_geom_angle_atom_site_label_3
_geom_angle
_geom_angle_site_symmetry_1
_geom_angle_site_symmetry_3
S5 U1 S2 143.58(5) 2_645 4_566
S5 U1 S3 85.18(5) 2_645 2_645
S2 U1 S3 91.94(5) 4_566 2_645
S5 U1 S2 77.31(5) 2_645 2_645
S2 U1 S2 81.52(5) 4_566 2_645
S3 U1 S2 139.01(5) 2_645 2_645
S5 U1 S1 74.23(4) 2_645 .
S2 U1 S1 140.00(5) 4_566 .
S3 U1 S1 75.78(4) 2_645 .
S2 U1 S1 131.85(5) 2_645 .
S5 U1 S1 71.74(4) 2_645 2_645
S2 U1 S1 73.46(4) 4_566 2_645
S3 U1 S1 68.49(4) 2_645 2_645
S2 U1 S1 70.88(4) 2_645 2_645
S1 U1 S1 131.90(4) . 2_645
S5 U1 S5 144.61(2) 2_645 .
S2 U1 S5 69.66(4) 4_566 .
S3 U1 S5 80.95(4) 2_645 .
S2 U1 S5 132.06(4) 2_645 .
S1 U1 S5 70.85(4) . .
S1 U1 S5 130.57(4) 2_645 .
S5 U1 S3 91.35(5) 2_645 .
S2 U1 S3 111.93(4) 4_566 .
S3 U1 S3 141.76(3) 2_645 .
S2 U1 S3 76.13(4) 2_645 .
S1 U1 S3 66.68(4) . .
S1 U1 S3 145.40(4) 2_645 .
S5 U1 S3 80.19(4) . .
S5 U1 U1 111.14(3) 2_645 2_655
S2 U1 U1 104.87(3) 4_566 2_655
S3 U1 U1 103.27(3) 2_645 2_655
S2 U1 U1 117.56(3) 2_645 2_655
S1 U1 U1 44.76(3) . 2_655
S1 U1 U1 171.32(3) 2_645 2_655
S5 U1 U1 42.75(3) . 2_655
S3 U1 U1 43.25(3) . 2_655
S5 U1 U1 44.82(3) 2_645 2_645
S2 U1 U1 111.09(3) 4_566 2_645
S3 U1 U1 46.74(3) 2_645 2_645
S2 U1 U1 98.18(3) 2_645 2_645
S1 U1 U1 88.08(3) . 2_645
S1 U1 U1 43.91(3) 2_645 2_645
S5 U1 U1 127.35(3) . 2_645
S3 U1 U1 135.08(3) . 2_645
U1 U1 U1 132.300(11) 2_655 2_645
S4 U2 S1 127.39(5) 2_545 .
S4 U2 S1 150.05(5) 2_545 3_655
S1 U2 S1 78.17(5) . 3_655
S4 U2 S4 73.84(5) 2_545 4_565
S1 U2 S4 152.21(4) . 4_565
S1 U2 S4 77.26(5) 3_655 4_565
S4 U2 S3 87.36(5) 2_545 2_645
S1 U2 S3 78.13(5) . 2_645
S1 U2 S3 83.04(5) 3_655 2_645
S4 U2 S3 86.20(5) 4_565 2_645
S4 U2 S5 107.76(5) 2_545 4_565
S1 U2 S5 104.70(4) . 4_565
S1 U2 S5 74.92(4) 3_655 4_565
S4 U2 S5 81.13(4) 4_565 4_565
S3 U2 S5 156.49(4) 2_645 4_565
S4 U2 S2 81.23(5) 2_545 .
S1 U2 S2 72.63(5) . .
S1 U2 S2 125.62(5) 3_655 .
S4 U2 S2 133.38(5) 4_565 .
S3 U2 S2 131.78(4) 2_645 .
S5 U2 S2 69.75(4) 4_565 .
S4 Pb1 S4 134.52(5) 1_545 2_545
S4 Pb1 S3 75.13(4) 1_545 2_645
S4 Pb1 S3 76.74(4) 2_545 2_645
S4 Pb1 S5 75.36(4) 1_545 2_545
S4 Pb1 S5 73.49(4) 2_545 2_545
S3 Pb1 S5 97.07(4) 2_645 2_545
S4 Pb1 S2 76.58(4) 1_545 4_566
S4 Pb1 S2 133.48(4) 2_545 4_566
S3 Pb1 S2 82.51(4) 2_645 4_566
S5 Pb1 S2 151.02(4) 2_545 4_566
S4 Pb1 S5 131.46(4) 1_545 .
S4 Pb1 S5 71.08(4) 2_545 .
S3 Pb1 S5 73.75(4) 2_645 .
S5 Pb1 S5 144.55(2) 2_545 .
S2 Pb1 S5 63.24(4) 4_566 .
U2 S1 U2 101.83(5) . 3_655
U2 S1 U1 98.80(5) . .
U2 S1 U1 105.22(5) 3_655 .
U2 S1 U1 103.51(5) . 2_655
U2 S1 U1 147.08(6) 3_655 2_655
U1 S1 U1 91.32(4) . 2_655
U1 S2 U1 98.48(5) 4_565 2_655
U1 S2 U2 97.73(5) 4_565 .
U1 S2 U2 101.84(5) 2_655 .
U1 S2 Pb1 87.16(4) 4_565 4_565
U1 S2 Pb1 163.69(6) 2_655 4_565
U2 S2 Pb1 92.47(4) . 4_565
U2 S3 U1 98.49(5) 2_655 2_655
U2 S3 U1 122.55(6) 2_655 .
U1 S3 U1 90.01(4) 2_655 .
U2 S3 Pb1 94.21(5) 2_655 2_655
U1 S3 Pb1 87.69(4) 2_655 2_655
U1 S3 Pb1 143.06(5) . 2_655
U2 S4 U2 106.16(5) 2 4_566
U2 S4 Pb1 106.36(5) 2 1_565
U2 S4 Pb1 143.43(6) 4_566 1_565
U2 S4 Pb1 96.33(5) 2 2
U2 S4 Pb1 102.52(5) 4_566 2
Pb1 S4 Pb1 90.07(4) 1_565 2
U1 S5 U2 104.95(5) 2_655 4_566
U1 S5 U1 92.43(5) 2_655 .
U2 S5 U1 96.42(4) 4_566 .
U1 S5 Pb1 93.33(4) 2_655 2
U2 S5 Pb1 100.90(5) 4_566 2
U1 S5 Pb1 159.66(6) . 2
U1 S5 Pb1 162.95(6) 2_655 .
U2 S5 Pb1 92.07(4) 4_566 .
U1 S5 Pb1 84.64(4) . .
Pb1 S5 Pb1 84.15(4) 2 .
loop_
_geom_bond_atom_site_label_1
_geom_bond_atom_site_label_2
_geom_bond_distance
_geom_bond_site_symmetry_2
U1 S5 2.7647(16) 2_645
U1 S2 2.7801(17) 4_566
U1 S3 2.7883(15) 2_645
U1 S2 2.8037(15) 2_645
U1 S1 2.8230(15) .
U1 S1 2.8662(15) 2_645
U1 S5 2.8708(15) .
U1 S3 2.9634(16) .
U1 U1 4.0692(2) 2_655
U1 U1 4.0692(2) 2_645
U2 S4 2.6629(16) 2_545
U2 S1 2.7102(15) .
U2 S1 2.7376(15) 3_655
U2 S4 2.7487(15) 4_565
U2 S3 2.7583(15) 2_645
U2 S5 2.8059(15) 4_565
U2 S2 2.8395(16) .
Pb1 S4 2.7857(16) 1_545
Pb1 S4 3.0138(16) 2_545
Pb1 S3 3.0186(17) 2_645
Pb1 S5 3.0245(15) 2_545
Pb1 S2 3.0531(15) 4_566
Pb1 S5 3.1033(16) .
S1 U2 2.7376(15) 3_655
S1 U1 2.8662(15) 2_655
S2 U1 2.7801(17) 4_565
S2 U1 2.8037(15) 2_655
S2 Pb1 3.0530(15) 4_565
S3 U2 2.7583(15) 2_655
S3 U1 2.7882(15) 2_655
S3 Pb1 3.0187(17) 2_655
S4 U2 2.6628(16) 2
S4 U2 2.7487(15) 4_566
S4 Pb1 2.7857(16) 1_565
S4 Pb1 3.0139(16) 2
S5 U1 2.7647(16) 2_655
S5 U2 2.8059(15) 4_566
S5 Pb1 3.0245(15) 2
