#------------------------------------------------------------------------------
#$Date: 2016-03-24 00:01:46 +0200 (Thu, 24 Mar 2016) $
#$Revision: 179521 $
#$URL: svn://www.crystallography.net/cod/cif/4/34/18/4341867.cif $
#------------------------------------------------------------------------------
#
# This file is available in the Crystallography Open Database (COD),
# http://www.crystallography.net/
#
# All data on this site have been placed in the public domain by the
# contributors.
#
data_4341867
loop_
_publ_author_name
'Kotyrba, Martin R.'
'Cuervo-Reyes, Eduardo'
'Nesper, Reinhard'
_publ_section_title
;
 Crystal Structure and Electronic Properties of Y3AlC3.
;
_journal_issue                   3
_journal_name_full               'Inorganic chemistry'
_journal_page_first              710
_journal_page_last               712
_journal_paper_doi               10.1021/ic5023664
_journal_volume                  54
_journal_year                    2015
_chemical_formula_moiety         'C3 Al Y3'
_chemical_formula_sum            'C3 Al Y3'
_chemical_formula_weight         329.74
_space_group_crystal_system      orthorhombic
_space_group_IT_number           51
_space_group_name_Hall           '-P 2a 2a'
_space_group_name_H-M_alt        'P m m a'
_symmetry_space_group_name_Hall  '-P 2a 2a'
_symmetry_space_group_name_H-M   'P m m a'
_atom_sites_solution_primary     direct
_audit_creation_date             2014-11-18
_audit_creation_method
;
Olex2 1.2
(compiled 2014.09.19 svn.r3010 for OlexSys, GUI svn.r4874)
;
_audit_update_record
;
2013-05-10 # Formatted by publCIF
;
_cell_angle_alpha                90
_cell_angle_beta                 90
_cell_angle_gamma                90
_cell_formula_units_Z            2
_cell_length_a                   7.0256(11)
_cell_length_b                   3.5647(6)
_cell_length_c                   9.9585(16)
_cell_measurement_reflns_used    1499
_cell_measurement_temperature    293
_cell_measurement_theta_max      31.77
_cell_measurement_theta_min      3.55
_cell_volume                     249.40(7)
_computing_data_collection       'SMART v5.630 (Bruker, 2003)'
_computing_data_reduction        'SAINT v7.68A (Bruker, 2009)'
_computing_molecular_graphics    'Olex2 (Dolomanov et al., 2009)'
_computing_publication_material  'Olex2 (Dolomanov et al., 2009)'
_computing_structure_refinement
;
SHELXL, G.M. Sheldrick, Acta Cryst.
(2008). A64, 112-122
;
_computing_structure_solution
;
XS, G.M. Sheldrick, Acta Cryst.
(2008). A64, 112-122
;
_diffrn_ambient_temperature      293.0
_diffrn_detector                 'CCD area detector'
_diffrn_detector_area_resol_mean 7.9
_diffrn_detector_type            'Bruker SMART CCD 1K area detector'
_diffrn_measured_fraction_theta_full 0.997
_diffrn_measured_fraction_theta_max 0.959
_diffrn_measurement_device       'three-circle diffractometer'
_diffrn_measurement_device_type  'Bruker SMART CCD 1K'
_diffrn_measurement_method       '\w scans'
_diffrn_radiation_monochromator  graphite
_diffrn_radiation_probe          x-ray
_diffrn_radiation_type           MoK\a
_diffrn_radiation_wavelength     0.71073
_diffrn_radiation_xray_symbol    K-L~3~
_diffrn_reflns_av_R_equivalents  0.0329
_diffrn_reflns_av_unetI/netI     0.0236
_diffrn_reflns_Laue_measured_fraction_full 0.997
_diffrn_reflns_Laue_measured_fraction_max 0.959
_diffrn_reflns_limit_h_max       10
_diffrn_reflns_limit_h_min       -10
_diffrn_reflns_limit_k_max       5
_diffrn_reflns_limit_k_min       -5
_diffrn_reflns_limit_l_max       14
_diffrn_reflns_limit_l_min       -14
_diffrn_reflns_number            3165
_diffrn_reflns_point_group_measured_fraction_full 0.997
_diffrn_reflns_point_group_measured_fraction_max 0.959
_diffrn_reflns_theta_full        25.242
_diffrn_reflns_theta_max         32.266
_diffrn_reflns_theta_min         2.045
_diffrn_source                   'sealed X-ray tube'
_diffrn_source_current           5.0
_diffrn_source_power             0.1
_diffrn_source_target            Mo
_diffrn_source_voltage           20.0
_diffrn_standards_number         0
_exptl_absorpt_coefficient_mu    34.614
_exptl_absorpt_correction_T_max  0.0888
_exptl_absorpt_correction_T_min  0.0252
_exptl_absorpt_correction_type   multi-scan
_exptl_absorpt_process_details
;
SADABS-2008/1 (Bruker,2008) was used for absorption correction.
wR2(int) was 0.1661 before and 0.0453 after correction.
The Ratio of minimum to maximum transmission is 0.2838.
The \l/2 correction factor is 0.0015.
;
_exptl_crystal_colour            'metallic black'
_exptl_crystal_colour_lustre     metallic
_exptl_crystal_colour_primary    black
_exptl_crystal_density_diffrn    4.391
_exptl_crystal_description       needle
_exptl_crystal_F_000             296
_exptl_crystal_recrystallization_method 'crystallized from Li-flux'
_exptl_crystal_size_max          0.28
_exptl_crystal_size_mid          0.08
_exptl_crystal_size_min          0.02
_refine_diff_density_max         1.225
_refine_diff_density_min         -0.880
_refine_diff_density_rms         0.199
_refine_ls_extinction_method     none
_refine_ls_goodness_of_fit_ref   1.038
_refine_ls_hydrogen_treatment    undef
_refine_ls_matrix_type           full
_refine_ls_number_parameters     25
_refine_ls_number_reflns         517
_refine_ls_number_restraints     0
_refine_ls_restrained_S_all      1.038
_refine_ls_R_factor_all          0.0247
_refine_ls_R_factor_gt           0.0208
_refine_ls_shift/su_max          0.000
_refine_ls_shift/su_mean         0.000
_refine_ls_structure_factor_coef Fsqd
_refine_ls_weighting_details
;
 w=1/[\s^2^(Fo^2^)+(0.0328P)^2^]
 where P=(Fo^2^+2Fc^2^)/3
;
_refine_ls_weighting_scheme      calc
_refine_ls_wR_factor_gt          0.0500
_refine_ls_wR_factor_ref         0.0512
_reflns_Friedel_coverage         0.000
_reflns_number_gt                475
_reflns_number_total             517
_reflns_threshold_expression     'I > 2\s(I)'
_cod_data_source_file            ic5023664_si_002.cif
_cod_data_source_block           pmma
_cod_depositor_comments          'Adding full bibliography for 4341867.cif.'
_cod_database_code               4341867
#BEGIN Tags that were not found in dictionaries:
_shelxl_version_number           2012-9
_shelx_space_group_comment
;
The symmetry employed for this shelxl refinement is uniquely defined
by the following loop, which should always be used as a source of
symmetry information in preference to the above space-group names.
They are only intended as comments.
;
_olex2_refinement_description
;
1. Others
 Fixed U12: Y1(0) Y2(0) Al1(0) C1(0) C2(0)
 Fixed U13: Y2(0) Al1(0) C2(0)
 Fixed U23: Y1(0) Y2(0) Al1(0) C1(0) C2(0)
 Fixed X: Y2(0.25) Al1(0.25) C2(0.25)
 Fixed Y: Y1(0.5) Y2(1) Al1(1) C1(0.5) C2(1)
;
_shelx_res_file
;
TITL pmma in Pmma
CELL 0.71073 7.0256 3.5647 9.9585 90 90 90
ZERR 2 0.0011 0.0006 0.0016 0 0 0
LATT 1
SYMM 0.5-X,-Y,+Z
SYMM -X,+Y,-Z
SYMM 0.5+X,-Y,-Z

SFAC C Al Y
UNIT 6 2 6

L.S. 12
PLAN  20
TEMP 19.85
BOND
fmap 2
acta
REM <HKL>C:/frames/guest/mar1202072/7a/work/pmma.hkl</HKL>

WGHT    0.032800
FVAR       0.16316
Y1    3    0.492131    0.500000    0.198952    10.50000    0.01127    0.01225 =
         0.01226    0.00000    0.00122    0.00000
Y2    3    0.250000    1.000000    0.458241    10.25000    0.01044    0.01042 =
         0.01408    0.00000    0.00000    0.00000
AL1   2    0.250000    1.000000    0.006798    10.25000    0.02026    0.01992 =
         0.01090    0.00000    0.00000    0.00000
C1    1    0.491125    0.500000    0.565542    10.50000    0.01093    0.01235 =
         0.01542    0.00000   -0.00180    0.00000
C2    1    0.250000    1.000000    0.209347    10.25000    0.01148    0.01372 =
         0.01022    0.00000    0.00000    0.00000
HKLF 4

REM  pmma in Pmma
REM R1 =  0.0208 for     475 Fo > 4sig(Fo)  and  0.0247 for all     517 data
REM     25 parameters refined using      0 restraints

END

WGHT      0.0328      0.0000

REM Highest difference peak  1.225,  deepest hole -0.880,  1-sigma level  0.199
Q1    1   0.5040  0.5000  0.2628  10.50000  0.05    1.22
Q2    1   0.4925  0.7188  0.2001  11.00000  0.05    0.95
Q3    1   0.2500  1.2093  0.4551  10.50000  0.05    0.83
Q4    1   0.5000  0.5000  0.5000  10.25000  0.05    0.81
Q5    1   0.2500  1.0000  0.5341  10.25000  0.05    0.79
Q6    1   0.3162  0.5000  0.6203  10.50000  0.05    0.57
Q7    1   0.6746  0.5000  0.2983  10.50000  0.05    0.54
Q8    1   0.3707  0.5000  0.1577  10.50000  0.05    0.53
Q9    1   0.2500  1.0000  0.3802  10.25000  0.05    0.52
Q10   1   0.1476  1.0000  0.4185  10.50000  0.05    0.52
Q11   1   0.5631  0.5000  0.1358  10.50000  0.05    0.50
Q12   1   0.4882  0.7637  0.2993  11.00000  0.05    0.49
Q13   1   0.2500  0.5000  0.2146  10.25000  0.05    0.48
Q14   1   0.2500  1.2852  0.0371  10.50000  0.05    0.48
Q15   1   0.0138  1.0000  0.1924  10.50000  0.05    0.47
Q16   1   0.0797  1.0000  0.3424  10.50000  0.05    0.46
Q17   1   0.1958  1.3915  0.3105  11.00000  0.05    0.44
Q18   1   0.1600  1.1875  0.3793  11.00000  0.05    0.44
Q19   1   0.1496  1.0000  0.5034  10.50000  0.05    0.42
Q20   1   0.2060  1.2591  0.2137  11.00000  0.05    0.42
;
_shelx_res_checksum              46198
_shelx_hkl_file
;
   0  -1   0   68.63    2.47
   0  -1   0   70.28    2.56
   0  -1   0   68.04    2.54
   0  -2   0  702.65   24.32
   0  -2   0  687.98   23.54
   0   3   0   14.79    1.08
   0  -3   0   19.31    0.97
   0  -3   0   18.83    0.98
   0  -4   0  208.66    7.29
   0  -4   0  207.33    7.58
   0   4   0  199.84    7.63
   0   5   0    6.54    0.85
   1   0   0   -0.02    0.03
   1   0   0    0.15    0.09
   1   0   0    0.26    0.09
  -1   0   0    0.01    0.04
  -1   0   0    0.01    0.06
  -1   0   0    0.07    0.08
  -1  -1   0    0.05    0.16
   1  -1   0   -0.12    0.12
   1  -1   0    0.12    0.19
  -1   1   0    0.47    0.21
  -1  -1   0   -0.09    0.10
  -1  -1   0   -0.07    0.16
  -1  -2   0    0.22    0.24
   1  -2   0    0.08    0.21
  -1  -2   0    0.11    0.28
  -1  -2   0    0.02    0.18
  -1   2   0   -0.24    0.28
   1  -2   0    0.38    0.24
   1  -3   0    0.09    0.31
   1  -3   0   -0.10    0.29
  -1  -3   0   -0.04    0.28
  -1  -3   0    0.29    0.30
  -1   3   0    0.23    0.39
  -1  -3   0   -0.12    0.38
   1  -4   0   -0.39    0.34
  -1  -4   0    0.16    0.36
  -1   4   0    0.11    0.48
   1   4   0    0.83    0.53
   1   4   0    0.20    0.40
  -1   5   0    0.11    0.53
   1   5   0   -0.07    0.49
  -2   0   0   63.62    2.44
   2   0   0   63.20    2.33
   2   0   0   66.54    2.38
  -2   0   0   65.00    2.34
  -2  -1   0 1000.00   33.37
   2   1   0  977.92   33.43
   2   1   0  985.42   32.50
  -2   1   0  931.25   33.36
   2   1   0  973.94   33.49
   2  -1   0  984.68   34.04
   2  -1   0  884.93   32.55
   2  -2   0   30.62    1.34
  -2  -2   0   31.35    1.41
  -2   2   0   30.16    1.43
  -2  -2   0   30.64    1.25
   2  -2   0   28.69    1.32
  -2  -2   0   29.57    1.34
   2  -3   0  364.23   12.89
  -2  -3   0  359.27   12.48
  -2  -3   0  352.28   12.90
  -2   3   0  359.06   12.85
   2  -3   0  359.18   12.41
   2   3   0  369.46   12.80
   2   4   0   10.14    0.87
  -2  -4   0   10.70    1.03
  -2   4   0    9.99    0.95
   2   4   0    8.20    0.78
   2  -4   0   10.96    0.87
   3   0   0    0.02    0.10
  -3   0   0   -0.12    0.22
   3   0   0   -0.13    0.21
   3  -1   0    0.34    0.38
   3  -1   0   -0.17    0.17
   3   1   0    0.49    0.26
  -3  -1   0    0.11    0.21
  -3   1   0    0.44    0.32
   3  -2   0    0.05    0.23
  -3   2   0   -0.14    0.39
   3   2   0    0.15    0.19
   3   2   0    0.08    0.30
   3  -2   0   -0.19    0.42
  -3  -2   0    0.02    0.31
   3   3   0   -0.57    0.33
  -3  -3   0    0.26    0.40
   3  -3   0   -0.44    0.34
   3   3   0   -0.02    0.27
  -3   3   0    0.09    0.44
   3  -3   0    0.44    0.34
   3   4   0    0.44    0.49
   3  -4   0   -0.25    0.36
  -3  -4   0   -0.17    0.53
   4   0   0  688.82   24.67
  -4   0   0  732.94   25.34
   4   0   0  754.20   25.23
  -4   1   0   27.15    1.33
   4   1   0   25.34    1.29
   4  -1   0   27.46    1.46
   4  -1   0   26.80    1.17
  -4  -1   0   28.28    1.34
   4  -2   0  422.51   14.74
   4   2   0  421.93   14.38
  -4   2   0  413.32   14.76
   4  -2   0  390.03   14.56
  -4  -2   0  413.95   14.78
   4   2   0  434.34   14.58
  -4  -3   0   12.94    1.00
  -4   3   0   11.88    0.99
   4   3   0   12.50    0.92
   4  -3   0   11.65    0.87
  -4  -4   0  155.36    6.04
   4   4   0  148.48    5.65
   4  -4   0  150.87    5.83
   5   0   0   -0.07    0.16
  -5   0   0   -0.06    0.36
   5   0   0    0.17    0.39
   5  -1   0   -0.24    0.58
  -5  -1   0    0.07    0.38
  -5   1   0    0.18    0.40
   5   1   0    0.62    0.39
   5  -1   0   -0.18    0.22
  -5  -2   0    0.11    0.41
   5  -2   0    0.19    0.32
   5   2   0    0.15    0.38
   5  -2   0   -0.14    0.64
  -5   2   0    0.42    0.41
  -5   3   0    0.84    0.52
   5   3   0    0.25    0.45
   5  -3   0   -0.39    0.35
  -5  -3   0   -0.37    0.44
   5  -4   0    0.14    0.48
   5   4   0   -0.55    0.48
  -5  -4   0    0.36    0.64
   6   0   0   16.19    0.73
  -6   0   0   14.99    1.06
   6   0   0   15.20    1.10
   6  -1   0  344.15   12.07
  -6   1   0  332.15   12.10
  -6  -1   0  336.76   12.17
   6  -1   0  340.65   11.93
   6   1   0  333.75   11.82
  -6   2   0   11.03    0.94
   6  -2   0    8.94    0.72
   6   2   0    9.53    0.91
  -6  -2   0   10.85    0.98
   6  -2   0    7.99    1.23
   6   3   0  168.11    6.25
  -6  -3   0  160.71    6.49
   6  -3   0  168.60    6.30
  -6   3   0  171.96    6.33
  -6  -4   0    4.16    0.89
   6  -4   0    3.81    0.69
   6   4   0    4.49    0.82
   7   0   0   -0.65    0.45
  -7   0   0    0.09    0.46
  -7   1   0   -0.19    0.44
   7   1   0   -0.29    0.42
   7  -1   0   -0.50    0.66
  -7  -1   0   -0.32    0.43
   7  -1   0    0.23    0.30
   7  -2   0   -0.29    0.32
  -7   2   0    0.49    0.48
  -7  -2   0   -0.15    0.46
   7   2   0   -0.15    0.43
   7  -3   0    0.04    0.43
   7   3   0   -0.15    0.53
  -7  -3   0   -0.25    0.55
  -7   3   0    0.42    0.49
   8   0   0  185.13    6.90
  -8   0   0  182.46    6.97
  -8  -1   0    6.75    0.87
   8  -1   0    7.64    1.14
   8   1   0    7.47    0.88
  -8   1   0    5.36    0.78
  -8  -2   0  127.39    5.16
  -8   2   0  127.28    4.97
   8   2   0  126.87    4.96
   8   3   0    3.24    0.77
  -8  -3   0    5.06    0.93
   9   0   0    0.31    0.67
  -9   0   0    0.38    0.56
   9   1   0   -0.88    0.52
   9  -1   0    0.57    0.83
  -9   1   0   -0.49    0.51
  -9  -1   0    0.70    0.59
  -9   2   0   -0.21    0.51
   9   2   0    0.57    0.60
  -9  -2   0   -0.70    0.54
  10   0   0    4.10    0.94
 -10   0   0    2.67    0.75
   0   0   1    8.39    0.33
   0   0  -1    7.85    0.47
   0   0  -1    7.66    0.32
   0   0   1    8.21    0.33
   0  -1  -1   91.84    3.35
   0  -1   1   90.60    3.26
   0  -1  -1   89.75    3.31
   0  -1   1   92.69    3.26
   0  -1  -1   95.35    3.18
   0  -2   1    2.83    0.37
   0  -2  -1    2.27    0.32
   0  -2   1    2.06    0.32
   0  -2  -1    2.65    0.30
   0   2   1    1.41    0.38
   0  -3   1   36.64    1.66
   0   3  -1   36.73    1.72
   0  -3  -1   37.51    1.56
   0  -3  -1   38.35    1.66
   0   3   1   39.20    1.82
   0  -3   1   38.34    1.66
   0  -4   1    1.23    0.45
   0  -4  -1    1.30    0.43
   0   4   1    2.12    0.61
   0   4  -1    1.16    0.47
   0   5  -1   14.23    1.11
   0   5   1   13.67    1.11
   1   0   1   34.90    1.36
   1   0   1   37.13    1.34
  -1   0  -1   36.33    1.35
  -1   0  -1   36.82    1.35
  -1   0   1   35.64    1.41
   1   0  -1   35.46    1.40
   1  -1  -1    9.13    0.52
  -1  -1   1   11.21    0.57
  -1  -1   1   10.70    0.54
   1  -1  -1   11.13    0.48
  -1   1  -1   10.00    0.52
   1   1   1   10.10    0.52
   1  -1   1   10.88    0.66
   1   1  -1    9.95    0.52
  -1   1   1   10.34    0.63
   1  -1   1   10.01    0.54
  -1  -1  -1    9.47    0.47
  -1  -1  -1   10.21    0.58
  -1  -2   1   10.74    0.69
  -1  -2   1   11.22    0.69
   1  -2  -1   11.61    0.59
  -1   2  -1   10.41    0.69
   1  -2  -1   11.71    0.68
  -1  -2  -1   11.64    0.76
   1  -2   1   10.61    0.71
  -1  -2  -1   11.65    0.64
  -1   2   1   12.49    0.84
   1  -2   1   11.64    0.66
  -1  -2  -1   11.26    0.64
   1   2  -1   11.45    0.66
   1  -3  -1    2.21    0.35
  -1   3  -1    2.32    0.50
   1  -3  -1    2.43    0.42
  -1  -3   1    2.71    0.50
  -1  -3   1    1.83    0.42
  -1  -3  -1    2.62    0.41
   1  -3   1    2.49    0.43
   1  -3   1    2.17    0.44
   1   3  -1    2.24    0.43
  -1   3   1    1.98    0.54
  -1  -3  -1    1.93    0.37
  -1  -3  -1    2.25    0.51
  -1  -4   1    3.54    0.55
   1  -4  -1    2.49    0.52
  -1   4  -1    3.82    0.63
   1   4   1    4.14    0.55
   1   4   1    3.60    0.70
  -1   4   1    2.81    0.68
   1   4  -1    2.65    0.55
   1   4  -1    3.42    0.64
  -1  -4  -1    3.76    0.55
   1  -4   1    2.68    0.52
  -1   5  -1    0.98    0.62
   1  -5  -1    0.46    0.49
   1   5   1    0.75    0.50
   1   5  -1    1.37    0.57
  -2   0  -1   84.73    3.22
  -2   0  -1   92.99    3.17
  -2   0   1   89.02    3.29
   2   0   1   88.01    3.20
   2   0  -1   88.33    3.14
  -2   0  -1   89.85    3.15
   2   0  -1   91.25    3.20
   2   1   1    3.71    0.35
  -2   1  -1    4.84    0.40
   2  -1  -1    4.65    0.43
   2  -1  -1    4.21    0.34
  -2  -1   1    4.48    0.39
  -2  -1   1    4.28    0.40
   2  -1   1    3.93    0.34
   2   1  -1    4.25    0.35
  -2  -1  -1    4.92    0.39
  -2   1   1    4.38    0.47
  -2  -1  -1    4.03    0.23
   2  -1   1    4.03    0.49
  -2  -2   1   60.30    2.35
  -2  -2   1   58.13    2.28
   2   2   1   55.67    2.23
  -2   2  -1   57.05    2.29
   2  -2  -1   60.91    2.18
   2  -2  -1   57.29    2.31
   2  -2   1   59.73    2.36
  -2  -2  -1   58.08    2.37
  -2  -2  -1   57.87    2.18
   2  -2   1   58.48    2.30
  -2   2   1   57.01    2.40
   2   2  -1   57.05    2.22
   2  -3  -1    1.59    0.33
   2  -3  -1    1.28    0.39
  -2  -3   1    1.28    0.39
  -2  -3   1    2.01    0.50
  -2   3  -1    0.96    0.43
   2   3   1    1.38    0.40
  -2   3   1    0.68    0.51
  -2  -3  -1    1.62    0.49
   2  -3   1    0.67    0.37
   2   3  -1    1.23    0.34
   2  -3   1    0.52    0.38
  -2  -3  -1    1.61    0.33
   2   4   1   21.30    1.24
   2  -4  -1   21.86    1.27
  -2  -4   1   21.04    1.22
  -2  -4  -1   19.80    1.38
   2   4  -1   22.64    1.22
  -2   4   1   22.10    1.42
   2   5  -1    1.16    0.59
  -3   0  -1    1.05    0.16
  -3   0  -1    1.36    0.29
   3   0  -1    1.30    0.29
   3   0   1    1.13    0.32
  -3   0   1    1.64    0.37
   3   0  -1    1.35    0.19
  -3  -1   1   25.74    1.19
   3   1   1   24.83    1.14
   3  -1  -1   25.44    1.09
   3  -1  -1   24.79    1.24
  -3   1  -1   25.02    1.13
   3  -1   1   25.20    1.08
   3   1  -1   23.70    1.13
  -3   1   1   25.34    1.26
  -3  -1  -1   26.24    1.18
   3  -1   1   26.01    1.30
   3   1  -1   23.01    1.15
  -3  -2   1    0.49    0.34
   3  -2  -1    0.48    0.36
   3  -2  -1    0.73    0.31
  -3   2  -1    0.13    0.35
   3   2   1    0.45    0.31
  -3  -2  -1    0.27    0.31
   3   2  -1    0.34    0.25
   3  -2   1    0.03    0.27
   3  -2   1    1.36    0.53
  -3   2   1    0.36    0.45
   3   2  -1    0.06    0.32
  -3  -2  -1    0.24    0.18
   3  -3  -1    9.37    0.74
  -3  -3   1    9.41    0.86
   3   3   1    9.26    0.77
  -3   3  -1    7.78    0.76
   3   3   1    9.16    0.61
   3   3  -1    9.38    0.66
  -3   3   1   10.10    0.93
  -3  -3  -1    9.43    0.89
   3  -3   1    9.93    0.86
   3  -3   1    8.94    0.77
   3   4   1    0.07    0.40
   3  -4  -1   -0.16    0.38
   3   4  -1   -0.03    0.44
  -3   4   1    0.02    0.57
  -3  -4  -1    0.41    0.58
   3   5  -1    3.79    0.75
   4   0   1    2.67    0.48
  -4   0  -1    2.68    0.23
   4   0  -1    2.49    0.41
  -4   0  -1    2.44    0.39
  -4   0   1    2.21    0.43
   4   0  -1    2.53    0.24
  -4  -1   1   51.36    2.28
   4   1   1   52.12    2.20
   4  -1  -1   56.02    2.15
  -4   1  -1   55.91    2.24
   4  -1  -1   53.83    2.35
   4   1  -1   56.75    1.99
   4   1  -1   56.34    2.23
  -4   1   1   54.96    2.34
   4  -1   1   57.48    2.14
   4  -1   1   55.60    2.40
  -4  -1  -1   55.49    2.28
   4   2   1    1.95    0.22
   4   2   1    1.53    0.40
   4  -2  -1    1.54    0.58
   4  -2  -1    1.40    0.36
  -4   2  -1    1.04    0.40
  -4  -2   1    0.82    0.42
   4  -2   1    1.55    0.69
  -4   2   1    1.28    0.52
   4  -2   1    1.44    0.36
   4   2  -1    0.83    0.39
  -4  -2  -1    1.60    0.43
   4   2  -1    2.05    0.41
  -4  -3   1   28.07    1.54
   4  -3  -1   26.45    1.40
  -4   3  -1   29.87    1.45
   4   3   1   26.03    1.39
   4  -3   1   27.97    1.56
  -4  -3  -1   26.93    1.53
  -4   3   1   28.78    1.55
   4  -3   1   27.36    1.40
   4   3  -1   27.28    1.49
  -4  -4   1   -0.02    0.58
   4   4   1    1.24    0.55
   4  -4  -1    0.65    0.49
   4   4  -1    1.18    0.55
  -4   4   1    1.70    0.66
  -4  -4  -1    0.29    0.57
   5   0  -1   27.99    1.33
  -5   0  -1   26.44    1.31
   5   0   1   23.46    1.35
   5   0  -1   25.20    1.03
  -5   0  -1   25.98    1.03
  -5   0   1   23.36    1.35
   5   1   1   -0.33    0.36
   5  -1  -1    0.45    0.58
  -5  -1   1    0.49    0.43
   5  -1  -1    0.00    0.24
  -5   1  -1    0.56    0.38
   5   1  -1    0.42    0.40
   5  -1   1    0.14    0.25
  -5   1   1    0.00    0.45
  -5  -1  -1    0.41    0.37
   5  -1   1    0.04    0.53
   5  -2  -1   12.42    1.28
  -5   2  -1   16.99    1.02
   5   2   1   16.49    1.09
   5  -2  -1   16.63    0.94
  -5  -2   1   18.09    1.11
   5  -2   1   14.98    0.92
  -5  -2  -1   17.43    1.08
  -5   2   1   17.38    1.14
   5  -2   1   15.42    1.47
   5   2  -1   15.26    1.02
   5   3   1    0.10    0.44
   5  -3  -1    0.26    0.40
  -5  -3   1    0.55    0.48
  -5   3  -1    0.37    0.43
   5   3  -1    0.09    0.44
  -5   3   1   -0.41    0.54
  -5  -3  -1   -0.57    0.44
   5  -3   1    0.27    0.38
   5  -4  -1    5.83    0.78
  -5   4  -1    6.22    0.81
   5   4   1    6.58    0.84
  -5  -4   1    6.35    1.01
  -5  -4  -1    6.61    0.98
   5   4  -1    7.31    0.91
  -6   0   1   36.09    1.83
   6   0  -1   37.14    1.76
   6   0  -1   36.44    1.42
  -6   0  -1   36.28    1.72
   6   0   1   35.30    1.78
   6  -1  -1    1.22    0.31
   6  -1  -1    2.57    0.74
   6   1   1    1.64    0.51
  -6  -1   1    1.60    0.55
  -6   1  -1    1.73    0.48
  -6   1   1    1.29    0.55
   6  -1   1    1.98    0.36
  -6  -1  -1    1.68    0.50
   6   1  -1    1.47    0.45
   6  -1   1    1.61    0.69
   6  -2  -1   25.56    1.26
  -6   2  -1   26.32    1.37
  -6  -2   1   24.26    1.47
   6   2   1   26.53    1.44
   6  -2   1   26.67    1.27
   6  -2   1   23.40    1.98
  -6  -2  -1   24.63    1.46
   6   2  -1   24.33    1.42
  -6   2   1   26.48    1.50
  -6  -3   1    1.17    0.58
  -6   3  -1    1.80    0.54
   6   3   1    1.35    0.57
   6  -3  -1    1.40    0.49
  -6   3   1    1.36    0.57
  -6  -3  -1    1.34    0.57
   6   3  -1    2.51    0.63
   6  -3   1    1.23    0.46
   6   4   1   11.39    1.10
  -6  -4   1   14.56    1.43
   6  -4  -1   11.90    1.10
  -6   4  -1   10.89    1.08
   6   4  -1   13.98    1.23
  -6  -4  -1   13.26    1.32
  -7   0  -1    1.18    0.51
   7   0   1    0.99    0.60
   7   0  -1    3.31    0.69
  -7   0   1    1.49    0.57
  -7   1  -1   17.00    1.13
   7   1   1   18.37    1.22
  -7  -1   1   16.87    1.23
   7  -1  -1   18.77    1.44
   7  -1  -1   18.73    0.95
  -7   1   1   19.31    1.25
   7  -1   1   19.95    1.53
   7   1  -1   17.57    1.18
  -7  -1  -1   19.37    1.24
   7   2   1    0.48    0.48
   7  -2  -1    1.15    0.39
  -7  -2   1    1.28    0.55
  -7   2  -1    1.21    0.47
   7   2  -1    0.33    0.50
  -7  -2  -1    0.61    0.49
  -7   2   1    1.52    0.57
   7  -2   1   -0.60    0.77
   7  -3  -1    9.82    0.89
  -7  -3   1   10.12    1.14
  -7   3  -1   10.91    0.87
   7   3   1    9.02    0.99
  -7  -3  -1   10.36    1.10
  -7   3   1   10.10    1.04
  -8   0   1    1.41    0.61
  -8   0  -1    1.44    0.56
   8   0  -1    0.86    0.59
   8   0   1    2.08    0.70
  -8   1  -1   17.46    1.18
   8   1   1   17.81    1.30
   8  -1  -1   25.70    1.74
  -8  -1   1   18.34    1.35
   8  -1   1   21.88    1.67
   8   1  -1   21.39    1.33
  -8  -1  -1   18.16    1.29
  -8   1   1   18.41    1.36
   8   2   1    1.17    0.59
  -8   2  -1    1.70    0.59
  -8  -2   1    1.49    0.64
  -8  -2  -1    2.02    0.64
  -8   2   1    1.95    0.63
   8   2  -1    0.96    0.56
   8  -3  -1   11.43    0.99
  -8  -3   1   11.00    1.26
  -8   3   1   11.99    1.14
  -8  -3  -1   12.00    1.25
  -9   0  -1   15.19    1.24
  -9   0   1   14.88    1.32
   9   0   1   16.82    1.44
   9   0  -1   19.02    1.42
  -9  -1   1    2.52    0.68
   9   1   1    1.96    0.70
  -9   1  -1    1.58    0.57
  -9  -1  -1    1.19    0.61
  -9   1   1    1.53    0.65
   9   1  -1    1.55    0.65
   9  -1   1    1.28    0.87
   9   2   1   10.03    1.13
  -9  -2   1    9.15    1.12
  -9   2  -1   11.69    1.04
   9   2  -1   12.43    1.17
  -9   2   1   13.34    1.18
  -9  -2  -1   11.38    1.20
  10   0   1   10.88    1.26
  10   0  -1   13.51    1.37
 -10   0  -1   12.09    1.18
 -10   1  -1    1.23    0.62
   0   0  -2   11.22    0.85
   0   0   2   12.52    0.54
   0   0   2   12.60    0.55
   0  -1  -2  543.00   19.32
   0   1  -2  561.97   19.07
   0   1   2  563.97   18.61
   0   1   2  561.49   18.60
   0   1  -2  558.70   19.32
   0  -1   2  544.09   18.75
   0  -1   2  534.69   19.07
   0   2  -2    5.91    0.53
   0  -2  -2    7.32    0.53
   0  -2   2    7.05    0.55
   0  -2  -2    7.63    0.46
   0   2   2    6.33    0.63
   0   3  -2  195.29    7.34
   0  -3  -2  204.76    7.09
   0   3  -2  208.40    7.46
   0  -3  -2  207.50    7.43
   0  -3   2  203.19    7.27
   0   3   2  204.86    7.55
   0  -4   2    2.38    0.56
   0   4   2    2.93    0.70
   0  -4  -2    2.62    0.51
   0   4  -2    2.46    0.54
   0   5  -2   53.32    2.54
   0  -5  -2   52.64    2.43
   1   0  -2    9.54    0.68
   1   0   2   10.78    0.56
  -1   0   2   11.27    0.47
  -1   0  -2   11.20    0.66
  -1   0  -2   10.54    0.48
  -1   0   2   11.35    0.59
   1  -1  -2   17.86    0.86
  -1   1  -2   20.86    0.75
  -1   1  -2   18.94    0.85
   1   1   2   18.97    0.81
  -1  -1   2   19.37    0.88
  -1  -1   2   19.96    0.82
  -1  -1  -2   19.77    0.83
   1  -1   2   19.50    0.96
   1   1  -2   19.30    0.89
  -1   1   2   18.00    0.95
   1  -1   2   18.61    0.75
  -1  -1  -2   18.88    0.89
  -1   2  -2    7.50    0.50
   1  -2  -2    6.14    0.38
  -1  -2   2    5.71    0.55
   1   2   2    6.70    0.47
  -1  -2   2    6.54    0.51
   1  -2  -2    7.38    0.55
  -1   2  -2    5.94    0.54
  -1  -2  -2    5.32    0.56
  -1   2   2    7.27    0.70
   1  -2   2    6.33    0.62
   1   2  -2    6.75    0.51
  -1  -2  -2    7.11    0.49
   1   3   2    8.12    0.61
  -1   3  -2    6.58    0.66
  -1  -3   2    5.86    0.64
   1  -3  -2    6.96    0.66
  -1   3  -2    7.85    0.65
  -1  -3   2    7.19    0.69
   1  -3  -2    7.52    0.50
  -1   3   2    7.31    0.82
   1  -3   2    7.09    0.70
   1   3  -2    6.96    0.63
  -1  -3  -2    6.72    0.60
  -1  -3  -2    7.06    0.77
  -1  -4   2    1.76    0.50
  -1   4  -2    2.71    0.59
   1  -4  -2    2.17    0.51
   1   4   2    1.86    0.64
   1   4  -2    2.47    0.52
  -1   4   2    2.30    0.65
  -1  -4  -2    2.17    0.48
   1  -4   2    2.89    0.54
   1   5   2    1.71    0.73
   1  -5  -2    2.86    0.66
  -1   5  -2    2.99    0.72
   1   5  -2    3.43    0.71
  -2   0  -2  543.97   18.54
  -2   0   2  540.59   18.66
   2   0   2  518.33   18.15
   2   0  -2  547.16   18.73
  -2   0  -2  517.34   18.66
   2   0  -2  537.90   18.05
  -2  -1   2    9.02    0.58
   2  -1  -2    9.97    0.53
   2  -1  -2   10.10    0.59
  -2  -1   2    9.40    0.59
  -2   1  -2    9.42    0.49
  -2   1  -2    9.44    0.55
   2   1   2    9.86    0.58
  -2  -1  -2    9.02    0.46
  -2   1   2    8.19    0.68
   2   1  -2   10.24    0.67
   2  -1   2   10.15    0.75
  -2  -1  -2   10.34    0.60
  -2  -2   2  312.78   10.70
  -2  -2   2  270.29   10.46
   2   2   2  301.42   10.39
   2  -2  -2  304.40   10.24
  -2   2  -2  298.52   10.59
   2  -2  -2  287.15   10.76
   2  -2   2  311.57   10.61
   2   2  -2  309.29   10.71
  -2  -2  -2  307.74   10.63
  -2  -2  -2  312.82   10.79
  -2   2   2  304.05   10.84
   2  -3  -2    3.60    0.54
  -2   3  -2    3.95    0.49
  -2   3  -2    3.55    0.53
  -2  -3   2    4.92    0.60
   2   3   2    2.99    0.45
  -2  -3   2    3.30    0.53
   2   3  -2    2.64    0.44
  -2  -3  -2    4.03    0.62
  -2   3   2    4.13    0.72
  -2  -3  -2    3.78    0.44
   2  -3   2    3.42    0.59
   2   4   2   94.85    3.57
   2  -4  -2   91.13    3.79
  -2  -4   2   90.69    3.70
  -2   4  -2   98.19    3.86
  -2   4   2   97.07    3.93
   2  -4   2   93.92    3.71
   2   4  -2   92.87    3.73
   2   5   2    1.53    0.72
  -3   0   2   27.87    1.30
  -3   0  -2   27.36    1.16
   3   0  -2   25.90    1.14
   3   0  -2   28.39    1.14
   3   0   2   26.74    1.24
  -3   0  -2   24.78    1.08
  -3   1  -2    2.85    0.34
   3   1   2    3.25    0.31
   3  -1  -2    2.72    0.46
   3  -1  -2    1.95    0.32
   3   1   2    2.80    0.40
  -3  -1   2    3.00    0.44
  -3   1  -2    2.54    0.31
  -3   1   2    2.99    0.51
   3   1  -2    2.71    0.38
  -3  -1  -2    2.67    0.19
  -3  -1  -2    1.74    0.36
   3  -1   2    3.51    0.55
   3   1  -2    3.06    0.51
  -3  -2   2   15.63    0.94
   3  -2  -2   15.84    0.89
   3   2   2   14.69    0.88
  -3  -2   2   14.91    0.96
  -3   2  -2   16.01    0.86
   3  -2  -2   17.11    0.80
   3   2  -2   16.40    0.89
   3  -2   2   13.44    1.13
  -3   2   2   15.67    1.10
  -3  -2  -2   16.51    0.71
   3  -2   2   14.49    0.87
   3   3   2    1.20    0.40
  -3  -3   2    1.67    0.50
  -3   3  -2    1.64    0.42
  -3  -3   2    0.76    0.39
  -3   3  -2    1.27    0.40
   3  -3  -2    1.39    0.40
   3   3  -2    1.72    0.40
  -3   3   2    1.67    0.60
   3  -3   2    0.95    0.55
  -3  -3  -2    1.41    0.50
   3   4   2    6.00    0.70
  -3   4  -2    4.54    0.70
   3  -4  -2    4.98    0.70
  -3   4   2    5.73    0.87
  -3  -4  -2    5.26    0.85
   3   5   2    0.75    0.73
  -4   0  -2    5.93    0.55
   4   0   2    5.69    0.63
  -4   0  -2    6.04    0.43
   4   0  -2    5.94    0.57
   4   0  -2    5.95    0.44
  -4   0   2    6.24    0.67
  -4  -1   2  286.14   10.24
   4  -1  -2  293.40   10.13
  -4   1  -2  293.64   10.09
   4  -1  -2  289.27   10.00
   4   1   2  284.04    9.95
  -4   1  -2  289.16   10.11
   4  -1   2  291.19   10.12
  -4   1   2  247.99   10.26
   4   1  -2  283.68    9.92
  -4  -1  -2  290.47   10.18
   4   1  -2  286.16   10.07
   4  -2  -2    4.61    0.59
   4   2   2    4.65    0.57
  -4   2  -2    3.57    0.47
  -4  -2   2    3.19    0.56
   4  -2  -2    3.67    0.50
   4   2  -2    4.40    0.57
   4  -2   2    3.57    0.83
  -4  -2  -2    3.26    0.55
   4   2  -2    4.69    0.60
  -4   2   2    3.53    0.67
   4  -3  -2  126.63    4.93
  -4  -3   2  126.14    5.01
   4   3   2  128.85    4.75
  -4   3  -2  126.52    4.89
   4  -3   2  125.80    5.02
   4   3  -2  131.14    4.84
  -4  -3  -2  129.83    5.02
  -4   3   2  129.96    5.05
   4  -4  -2    1.94    0.56
  -4   4  -2    1.94    0.55
   4   4   2    1.78    0.53
   4   4  -2    1.23    0.60
  -4   4   2    2.51    0.74
  -4  -4  -2    2.80    0.72
   5   0  -2    0.27    0.38
   5   0   2    0.33    0.45
  -5   0  -2    0.29    0.35
  -5   0  -2    0.44    0.25
  -5   0   2    1.12    0.50
   5   0  -2    0.15    0.21
  -5   1  -2   19.03    0.96
   5   1   2   19.60    1.15
  -5  -1   2   20.42    1.22
   5  -1  -2   19.94    1.31
   5  -1  -2   19.79    0.99
  -5   1  -2   16.56    1.06
  -5  -1  -2   20.20    1.13
  -5   1   2   20.20    1.29
   5  -1   2   21.09    1.36
   5   1  -2   19.91    1.14
   5   1  -2   21.04    0.84
  -5   2  -2    0.75    0.37
   5   2   2    0.42    0.41
  -5  -2   2    0.71    0.45
  -5   2  -2    0.50    0.33
   5  -2  -2    0.41    0.34
   5  -2   2   -0.40    0.63
  -5   2   2   -0.02    0.53
   5   2  -2   -0.08    0.33
  -5  -2  -2    0.58    0.41
   5   3   2   10.75    0.93
  -5  -3   2    9.34    1.03
   5  -3  -2    9.83    0.88
  -5   3  -2    9.21    0.84
   5   3  -2    9.75    0.96
  -5  -3  -2    9.38    0.98
   5  -3   2   10.24    1.23
  -5   3   2   11.41    1.07
   5  -4  -2   -0.10    0.46
  -5   4  -2    0.76    0.51
   5   4   2    0.30    0.52
  -5   4   2   -0.06    0.64
  -5  -4  -2    0.21    0.65
   5   4  -2    0.03    0.54
  -6   0   2  186.81    6.89
  -6   0  -2  182.26    6.75
   6   0   2  182.17    6.74
   6   0  -2  178.16    6.62
   6   0  -2  184.76    6.51
   6   1   2    3.22    0.59
  -6   1  -2    2.19    0.47
  -6  -1   2    2.20    0.62
  -6   1  -2    2.59    0.38
   6  -1  -2    4.38    0.82
   6  -1  -2    2.73    0.39
   6   1  -2    4.46    0.63
  -6  -1  -2    3.54    0.57
   6  -1   2    3.08    0.75
  -6   1   2    2.50    0.65
   6   2   2  116.14    4.50
   6  -2  -2  120.72    4.50
  -6  -2   2  116.79    4.73
  -6   2  -2  120.73    4.46
  -6   2  -2  119.39    4.46
   6   2  -2  119.00    4.53
  -6   2   2  119.47    4.68
   6  -2   2  114.41    5.00
  -6  -2  -2  114.27    4.61
  -6   3  -2    1.29    0.46
  -6  -3   2    1.37    0.64
   6   3   2    2.51    0.60
   6  -3  -2    1.70    0.52
  -6   3   2    1.94    0.70
   6   3  -2    1.74    0.63
  -6  -3  -2    2.75    0.66
  -6   4  -2   47.76    2.30
   6   4   2   47.29    2.27
   6  -4  -2   47.94    2.31
  -6  -4  -2   44.71    2.46
   6   4  -2   50.75    2.40
  -7   0  -2   17.93    1.14
   7   0   2   18.53    1.29
   7   0  -2   16.88    1.19
  -7   0   2   18.28    1.28
   7   1   2    0.35    0.50
   7  -1  -2   -0.25    0.65
   7  -1  -2   -0.23    0.29
  -7  -1   2    0.39    0.54
  -7   1  -2    0.48    0.42
  -7  -1  -2    0.17    0.43
   7   1  -2    0.58    0.48
   7  -1   2    0.79    0.67
  -7   1   2    0.03    0.53
   7   2   2   13.18    1.11
  -7   2  -2   14.75    1.00
   7  -2  -2   12.27    0.86
  -7  -2   2   14.21    1.26
  -7   2  -2   14.15    0.87
   7   2  -2   14.06    1.17
  -7   2   2   11.64    1.17
   7  -2   2   14.13    1.63
  -7  -2  -2   12.70    1.03
   7  -3  -2   -0.04    0.42
  -7  -3   2    0.43    0.60
   7   3   2    0.21    0.53
  -7   3  -2    0.63    0.46
  -7  -3  -2    0.56    0.56
  -7   3   2   -0.50    0.57
   7   3  -2   -0.27    0.50
   8   0   2    1.04    0.64
  -8   0  -2    2.03    0.57
   8   0  -2    2.60    0.72
  -8   0   2    2.02    0.66
   8   1   2   86.10    3.45
  -8  -1   2   82.74    3.57
  -8   1  -2   77.61    3.31
  -8  -1  -2   77.15    3.39
   8   1  -2   80.87    3.38
  -8   1   2   78.71    3.46
   8  -1   2   86.28    3.69
  -8  -2   2    1.69    0.67
  -8   2  -2    1.43    0.50
   8   2   2    1.49    0.64
   8   2  -2    2.73    0.66
   8  -2   2   -0.48    0.91
  -8   2   2    1.26    0.66
  -8  -2  -2    0.73    0.55
  -8  -3   2   42.30    2.47
   8  -3  -2   43.54    2.11
  -8   3   2   49.26    2.35
   9   0   2    0.25    0.63
   9   0  -2    0.24    0.65
  -9   0   2    0.48    0.62
  -9   0  -2   -0.24    0.53
  -9   1  -2   10.40    0.99
   9   1   2    9.36    1.08
  -9  -1   2   10.57    1.21
  -9   1   2    9.76    1.12
  -9  -1  -2   11.38    1.09
   9   1  -2   11.90    1.15
   9  -1   2   13.05    1.43
  -9  -2   2    0.17    0.66
   9   2   2    0.38    0.61
  -9  -2  -2    0.29    0.55
  -9   2   2   -0.30    0.59
   9   2  -2    0.06    0.58
 -10   0  -2   41.44    2.18
  10   0   2   44.69    2.43
 -10   1  -2    0.02    0.55
  10  -1   2    1.16    0.92
   0   0   3  447.08   14.79
   0   0  -3  408.57   15.62
   0   0   3  451.11   15.17
   0  -1  -3  116.10    4.38
   0   1  -3  120.93    4.38
   0   1   3  117.91    4.08
   0   1   3  117.91    4.36
   0  -1   3  123.14    4.28
   0  -2  -3  232.11    8.31
   0   2  -3  236.96    8.34
   0  -2   3  228.30    8.14
   0   2   3  229.22    8.38
   0   2  -3  230.56    8.11
   0   2   3  231.50    7.89
   0  -3  -3   38.93    1.76
   0  -3   3   39.87    1.83
   0   3   3   39.70    1.96
   0   3   3   39.84    1.57
   0   3  -3   39.40    1.79
   0   3  -3   41.40    1.67
   0   4   3   75.28    3.33
   0  -4   3   74.95    3.13
   0   4  -3   77.64    3.20
   0  -4  -3   76.58    3.12
   0  -5  -3    7.75    0.89
   0   5   3   10.24    1.17
   0   5  -3    9.77    1.05
  -1   0   3   30.00    1.10
   1   0   3   27.79    1.19
  -1   0  -3   28.39    1.11
  -1   0   3   27.58    1.22
   1   0  -3   28.60    1.51
  -1   0  -3   28.09    1.49
  -1  -1   3   38.33    1.56
   1   1   3   39.31    1.48
  -1  -1   3   38.42    1.49
   1  -1  -3   39.16    1.63
  -1   1  -3   39.57    1.60
  -1  -1  -3   37.99    1.59
  -1   1   3   38.03    1.65
   1   1  -3   38.68    1.65
  -1  -1  -3   40.19    1.61
   1  -1   3   39.06    1.65
  -1   2  -3   17.34    0.74
  -1  -2   3   18.83    0.85
  -1   2  -3   13.28    0.90
   1  -2  -3   18.08    0.95
  -1  -2   3   16.64    0.97
   1   2   3   18.14    0.83
   1  -2   3   18.59    1.05
  -1  -2  -3   18.17    0.90
   1   2  -3   16.10    0.91
  -1  -2  -3   17.79    1.02
  -1   2   3   18.03    1.09
  -1   2   3   17.55    0.68
  -1  -3   3   12.26    0.94
   1  -3  -3   15.85    0.94
  -1   3  -3   16.06    0.96
   1   3   3   15.01    0.81
  -1   3   3   15.52    1.11
   1  -3   3   14.20    0.99
   1   3  -3   14.55    0.93
  -1  -3  -3   14.44    0.88
   1  -4  -3    5.60    0.70
  -1  -4   3    6.55    0.78
  -1   4  -3    5.25    0.72
   1   4   3    4.85    0.84
  -1  -4  -3    4.56    0.62
   1   4  -3    6.49    0.76
   1  -4   3    7.87    0.85
  -1   4   3    6.17    0.91
  -1  -5   3    4.65    0.80
   1  -5  -3    5.14    0.74
   1   5   3    4.30    0.91
  -1   5  -3    4.72    0.82
   1   5  -3    5.82    0.85
  -1   5   3    6.14    1.03
  -2   0  -3  120.29    4.23
   2   0  -3  114.09    4.43
   2   0   3  117.81    4.25
  -2   0   3  121.01    4.12
  -2   0   3  119.24    4.39
  -2   0  -3  114.71    4.42
   2   1   3  321.08   10.78
  -2   1  -3  319.42   10.91
  -2  -1   3  313.67   10.81
  -2  -1   3  309.15   11.07
   2  -1  -3  313.94   11.17
  -2   1  -3  324.87   11.14
   2   1  -3  307.42   11.30
   2  -1   3  312.69   10.96
  -2  -1  -3  314.81   11.09
  -2  -1  -3  316.55   11.09
  -2   1   3  301.88   11.18
  -2   2  -3   63.37    2.49
  -2   2  -3   61.94    2.29
  -2  -2   3   64.05    2.46
   2  -2  -3   64.67    2.54
   2   2   3   62.88    2.38
  -2  -2   3   62.63    2.49
   2   2  -3   64.37    2.51
  -2  -2  -3   63.48    2.38
  -2   2   3   61.35    2.65
   2  -2   3   51.65    2.57
  -2  -2  -3   64.76    2.58
   2  -3  -3  118.41    4.61
   2   3   3  119.45    4.35
  -2  -3   3  123.57    4.56
  -2  -3   3  120.96    4.55
  -2   3  -3  118.71    4.61
   2   3  -3  118.72    4.55
  -2   3   3  119.30    4.74
  -2  -3  -3  119.54    4.47
  -2  -3  -3  122.72    4.72
   2  -3   3  121.28    4.61
  -2   4  -3   18.42    1.19
  -2  -4   3   18.40    1.16
   2   4   3   15.46    1.25
   2  -4  -3   17.92    1.14
   2  -4   3   15.81    1.20
  -2   4   3   18.17    1.36
   2   4  -3   15.11    1.05
  -2  -5   3   40.46    2.05
   2   5   3   37.88    2.25
  -3   0   3   47.01    2.03
  -3   0  -3   45.88    1.90
   3   0   3   44.10    1.91
   3   0  -3   45.78    1.90
  -3   0  -3   46.80    1.82
   3   0  -3   47.72    1.79
   3  -1  -3   12.05    0.77
   3  -1  -3   12.53    0.76
   3   1   3   12.02    0.77
  -3  -1   3   10.36    0.81
  -3  -1   3   12.04    0.75
  -3   1  -3   12.81    0.63
  -3   1  -3   12.05    0.70
  -3   1   3   12.36    0.90
   3   1  -3   13.34    1.00
   3  -1   3   12.53    0.97
  -3  -1  -3   12.25    0.76
  -3  -1  -3   13.20    0.62
  -3  -2   3   25.45    1.33
   3  -2  -3   27.52    1.34
  -3   2  -3   28.35    1.17
  -3   2  -3   28.64    1.33
   3   2   3   28.44    1.30
  -3  -2   3   25.49    1.33
  -3   2   3   25.76    1.52
   3  -2   3   28.30    1.57
   3   2  -3   29.17    1.39
  -3  -2  -3   27.83    1.14
   3  -3  -3    5.54    0.64
  -3   3  -3    5.33    0.63
  -3  -3   3    6.05    0.73
  -3  -3   3    5.23    0.67
   3   3   3    5.51    0.62
  -3  -3  -3    4.91    0.73
   3   3  -3    5.95    0.64
  -3   3   3    5.68    0.82
   3  -3   3    4.38    0.78
  -3  -4   3    9.79    0.96
   3  -4  -3   10.64    0.95
  -3   4  -3    9.42    0.91
   3   4   3    9.83    0.85
   3  -4   3   10.03    1.03
  -3  -4  -3    9.78    1.09
  -3   4   3    9.33    1.07
  -4   0  -3  216.77    7.97
  -4   0   3  231.72    8.22
   4   0   3  218.89    7.94
   4   0  -3  226.20    8.00
   4   0  -3  224.54    7.80
  -4   0  -3  222.49    8.02
   4   1   3   60.15    2.42
  -4   1  -3   60.17    2.37
  -4  -1   3   59.29    2.55
   4  -1  -3   57.49    2.44
  -4   1  -3   61.52    2.32
   4  -1  -3   59.49    2.39
   4   1  -3   57.99    2.42
  -4  -1  -3   61.74    2.16
  -4   1   3   62.76    2.65
   4  -1   3   60.25    2.62
  -4  -1  -3   60.66    2.45
   4   1  -3   58.07    2.38
  -4   2  -3  133.80    5.11
  -4   2  -3  142.24    4.98
  -4  -2   3  134.61    5.24
   4   2   3  139.30    5.02
   4  -2  -3  135.51    5.15
  -4  -2  -3  138.97    5.22
  -4   2   3  144.91    5.37
   4  -2   3  136.30    5.40
   4   2  -3  131.85    5.27
  -4  -3   3   25.26    1.47
   4  -3  -3   23.55    1.33
   4   3   3   22.64    1.27
  -4   3  -3   24.01    1.29
   4  -3   3   24.43    1.63
  -4   3   3   23.46    1.53
  -4  -3  -3   27.25    1.48
   4  -4  -3   55.00    2.51
   4   4   3   54.70    2.38
  -4   4  -3   57.04    2.53
   4   4  -3   54.17    2.53
  -4   4   3   53.79    2.68
  -4  -4  -3   55.26    2.70
   5   0  -3    4.83    0.47
  -5   0  -3    5.29    0.56
  -5   0   3    4.41    0.74
   5   0  -3    5.17    0.62
   5   0   3    5.34    0.72
  -5   0  -3    4.10    0.53
  -5   1  -3   31.15    1.41
  -5  -1   3   29.49    1.64
   5  -1  -3   32.31    1.42
   5  -1  -3   27.23    1.64
  -5   1  -3   31.25    1.39
   5   1   3   31.27    1.56
  -5  -1  -3   31.80    1.53
  -5   1   3   29.28    1.64
   5   1  -3   30.72    1.49
   5  -1   3   31.97    1.74
   5   1  -3   32.43    1.34
  -5   2  -3    2.76    0.44
  -5  -2   3    2.89    0.64
   5  -2  -3    2.82    0.50
   5   2   3    3.49    0.58
  -5   2  -3    2.82    0.45
   5  -2   3    3.43    0.87
  -5  -2  -3    3.78    0.59
  -5   2   3    2.97    0.70
   5   2  -3    3.16    0.58
  -5  -3   3   14.15    1.27
  -5   3  -3   16.93    1.04
   5  -3  -3   14.09    1.02
   5   3   3   14.10    1.03
   5   3  -3   16.82    1.20
  -5   3   3   15.80    1.33
   5  -3   3   15.81    1.55
  -5  -3  -3   12.51    1.14
   5  -4  -3    0.44    0.51
  -5   4  -3    1.22    0.55
   5   4   3    1.81    0.58
  -5   4   3    1.73    0.79
   5   4  -3    0.66    0.61
  -5  -4  -3    1.71    0.67
   6   0   3   32.62    1.75
  -6   0   3   36.43    1.84
   6   0  -3   33.57    1.41
  -6   0  -3   33.62    1.60
   6   0  -3   32.34    1.61
  -6   1  -3   96.18    3.93
   6  -1  -3  109.29    3.97
  -6   1  -3  109.66    4.02
  -6  -1   3  102.94    4.27
   6  -1  -3   94.68    4.16
   6   1   3  106.69    4.11
  -6  -1  -3  101.68    4.10
  -6   1   3  114.44    4.31
   6   1  -3  111.44    4.05
   6  -1   3  103.70    4.27
  -6   2  -3   20.32    1.14
  -6  -2   3   20.31    1.42
  -6   2  -3   24.22    1.15
   6   2   3   21.51    1.28
   6  -2  -3   21.40    1.17
   6  -2   3   22.40    1.74
  -6  -2  -3   21.21    1.27
  -6   2   3   20.66    1.42
   6   2  -3   21.52    1.32
  -6  -3   3   56.00    2.81
   6  -3  -3   60.38    2.57
  -6   3  -3   58.10    2.50
   6   3   3   57.13    2.51
   6   3  -3   58.75    2.60
  -6  -3  -3   58.24    2.69
  -6   3   3   61.42    2.83
   6  -3   3   47.93    2.98
   6   4   3    7.59    0.87
  -6   4   3    7.99    1.13
   7   0   3   19.35    1.42
   7   0  -3   25.10    1.42
  -7   0   3   25.95    1.54
  -7   0  -3   24.51    1.32
  -7   1  -3    1.16    0.46
   7  -1  -3    1.05    0.36
   7   1   3    0.90    0.52
  -7  -1   3    0.71    0.53
  -7   1   3    1.54    0.65
   7   1  -3    0.84    0.54
   7  -1   3    1.59    0.78
  -7  -1  -3    1.20    0.50
   7  -2  -3   18.34    1.04
  -7   2  -3   18.64    1.03
   7   2   3   16.58    1.21
  -7   2  -3   15.80    1.02
  -7  -2   3   16.37    1.45
   7  -2   3   20.68    1.85
   7   2  -3   17.71    1.22
  -7  -2  -3   14.08    1.13
  -7   2   3   17.32    1.32
   7   3   3    0.31    0.57
   7  -3  -3    1.20    0.53
  -7  -3   3    0.88    0.68
  -7   3  -3    0.90    0.45
   7   3  -3    1.91    0.64
  -7  -3  -3    0.69    0.57
  -7   3   3    1.28    0.70
   8   0  -3   62.67    2.80
  -8   0  -3   62.16    2.72
   8   0   3   63.54    2.90
  -8   0   3   63.44    2.93
  -8  -1   3   14.50    1.34
  -8   1  -3   14.51    0.99
   8   1   3   14.80    1.26
  -8  -1  -3   12.14    1.10
   8  -1   3   13.88    1.42
   8   1  -3   15.07    1.20
  -8   1   3   14.56    1.32
   8  -2  -3   47.30    2.13
   8   2   3   48.44    2.37
  -8  -2   3   49.24    2.60
  -8  -2  -3   49.42    2.39
  -8   2   3   52.25    2.50
   8   2  -3   45.16    2.33
   8  -2   3   55.55    2.97
   8  -3  -3    5.93    0.79
  -8  -3   3    6.34    1.11
  -8   3   3    7.71    1.10
  -9   0  -3   -0.30    0.49
   9   0  -3   -0.10    0.63
   9   0   3    0.03    0.65
  -9   0   3    0.58    0.61
  -9  -1   3   17.63    1.39
  -9   1  -3   14.09    1.05
   9   1   3   14.48    1.32
  -9   1   3   14.00    1.36
   9   1  -3   14.07    1.25
   9  -1   3   18.02    1.62
  -9  -1  -3   13.99    1.15
  -9  -2   3    0.24    0.74
   9  -2   3    1.97    1.10
   9   2  -3   -0.09    0.57
  -9   2   3   -0.14    0.64
 -10   0  -3    5.63    0.84
 -10   1  -3   29.59    1.63
   0   0   4  172.21    5.89
   0   0   4  171.59    6.03
   0   0  -4  161.82    6.50
   0   1   4    7.30    0.61
   0  -1   4    7.62    0.56
   0   1  -4    6.26    0.60
   0  -1  -4    6.47    0.65
   0   1   4    6.95    0.41
   0  -2  -4   87.63    3.42
   0   2  -4   89.49    3.43
   0   2   4   88.77    3.10
   0   2   4   89.06    3.50
   0  -2   4   86.23    3.40
   0  -3   4    2.10    0.53
   0   3   4    2.71    0.65
   0  -3  -4    2.58    0.48
   0   3  -4    2.24    0.49
   0   4  -4   29.43    1.55
   0  -4   4   26.59    1.54
   0  -4  -4   25.89    1.45
   0   4   4   27.66    1.73
   0  -5  -4   -0.06    0.44
   0   5   4   -0.01    0.71
   0  -5   4   -0.70    0.50
   0   5  -4    0.88    0.59
  -1   0   4   75.42    2.90
  -1   0  -4   76.64    2.79
   1   0   4   76.45    2.85
   1   0  -4   72.02    3.24
  -1   0  -4   73.90    3.29
  -1   0   4   79.22    2.73
   1  -1  -4   44.02    1.87
  -1   1  -4   43.82    1.81
   1   1   4   44.94    1.64
  -1  -1   4   42.73    1.65
  -1  -1   4   41.76    1.70
  -1   1   4   39.00    1.79
  -1  -1  -4   39.10    1.85
   1   1  -4   40.23    1.89
  -1  -1  -4   42.60    1.75
   1  -1   4   40.67    1.80
  -1  -2   4   39.36    1.76
  -1   2  -4   39.73    1.75
   1   2   4   41.10    1.56
  -1  -2   4   40.33    1.57
   1  -2  -4   39.30    1.76
   1   2  -4   39.40    1.76
   1  -2   4   37.12    1.79
  -1  -2  -4   40.26    1.70
  -1   2   4   38.59    1.84
  -1   3  -4   14.70    0.99
  -1  -3   4   14.46    1.03
   1  -3  -4   15.57    1.02
   1   3   4   15.32    1.14
   1   3   4   17.21    0.85
   1  -3   4   15.14    1.07
  -1   3   4   16.10    1.17
   1   3  -4   15.70    0.99
  -1  -3  -4   16.26    0.96
  -1   4  -4   15.21    1.10
   1  -4  -4   15.61    1.08
   1   4   4   13.28    1.30
  -1  -4   4   15.28    1.12
  -1   4   4   16.44    1.38
   1  -4   4   14.17    1.13
  -1  -4  -4   14.85    0.98
   1   4  -4   17.13    1.10
   1   5   4    4.02    0.94
  -1  -5   4    5.01    0.84
  -1   5   4    4.82    0.95
   1   5  -4    6.19    0.85
  -2   0  -4    6.62    0.45
   2   0   4    7.64    0.64
  -2   0   4    7.34    0.70
  -2   0   4    6.85    0.47
   2   0  -4    6.77    0.75
  -2   0  -4    6.35    0.80
  -2  -1   4  117.41    4.20
  -2   1  -4  118.08    4.08
  -2  -1   4  115.97    4.31
   2   1   4  120.82    4.18
   2  -1  -4  118.17    4.43
  -2   1  -4  116.68    4.34
  -2   1   4  112.67    4.42
   2   1  -4  112.11    4.60
  -2  -1  -4  115.81    4.42
  -2  -1  -4  112.94    4.29
   2  -1   4  114.59    4.35
  -2  -2   4    3.34    0.49
   2   2   4    3.32    0.43
   2  -2  -4    2.86    0.49
  -2   2  -4    3.19    0.49
  -2  -2   4    4.40    0.49
  -2   2   4    3.10    0.59
   2  -2   4    3.94    0.65
  -2  -2  -4    3.34    0.54
   2   2  -4    3.81    0.57
  -2  -2  -4    3.88    0.44
   2   3   4   43.68    1.82
  -2   3  -4   43.92    2.01
   2  -3  -4   45.76    2.06
  -2  -3   4   44.97    2.04
   2  -3   4   47.18    2.19
   2   3  -4   44.53    2.01
  -2  -3  -4   43.38    2.12
  -2  -3  -4   45.29    1.88
  -2   3   4   41.59    2.16
   2   4   4    1.33    0.67
   2  -4  -4    0.65    0.46
  -2  -4   4    0.67    0.51
  -2   4  -4    1.58    0.54
   2  -4   4    0.48    0.53
   2   4  -4    1.51    0.53
  -2   4   4    0.77    0.66
  -2   5   4   13.52    1.37
  -3   0  -4   21.86    1.01
  -3   0   4   24.03    1.34
   3   0  -4   21.57    1.01
   3   0  -4   23.66    1.28
  -3   0  -4   22.51    1.32
   3   0   4   22.90    1.21
  -3   1  -4   65.87    2.26
   3  -1  -4   55.10    2.25
  -3  -1   4   58.68    2.37
   3  -1  -4   62.05    2.49
   3   1   4   63.65    2.41
  -3   1  -4   61.63    2.43
  -3  -1   4   60.15    2.55
  -3  -1  -4   63.20    2.43
  -3  -1  -4   61.97    2.45
  -3   1   4   51.49    2.56
   3  -1   4   60.66    2.59
   3   1  -4   60.20    2.71
   3  -2  -4   12.20    0.86
  -3   2  -4   13.38    0.63
  -3  -2   4   12.93    0.91
   3   2   4   13.37    0.82
  -3  -2   4   14.43    0.92
  -3   2  -4   14.86    0.89
   3   2  -4   13.25    1.04
  -3   2   4   12.93    1.12
   3  -2   4   13.08    1.14
  -3  -2  -4   13.03    0.71
   3   3   4   28.56    1.33
   3  -3  -4   25.54    1.41
  -3  -3   4   26.19    1.45
  -3   3  -4   25.81    1.41
   3   3  -4   26.41    1.43
  -3  -3  -4   27.71    1.53
  -3   3   4   29.22    1.67
   3  -3   4   29.65    1.67
  -3  -4   4    6.28    0.82
  -3   4  -4    6.61    0.81
   3  -4  -4    5.77    0.80
  -3   4   4    5.54    0.97
  -3  -4  -4    5.43    0.89
   3  -4   4    5.68    0.89
  -4   0   4   87.38    3.57
  -4   0  -4   93.03    3.51
   4   0  -4   86.44    3.22
  -4   0  -4   87.20    3.28
   4   0   4   80.32    3.38
   4   0  -4   85.45    3.36
   4  -1  -4    3.41    0.50
  -4   1  -4    3.76    0.48
   4  -1  -4    3.56    0.58
   4   1   4    3.60    0.56
  -4   1  -4    3.47    0.40
  -4  -1   4    3.20    0.66
   4   1  -4    3.06    0.47
   4  -1   4    3.00    0.64
  -4   1   4    3.67    0.70
   4   1  -4    3.33    0.58
  -4  -1  -4    2.84    0.48
  -4  -1  -4    3.33    0.40
  -4  -2   4   53.01    2.39
  -4   2  -4   54.61    2.05
   4  -2  -4   53.14    2.30
   4   2   4   55.86    2.25
  -4  -2   4   53.83    2.31
  -4   2  -4   51.72    2.25
   4   2  -4   53.54    2.53
  -4  -2  -4   52.91    2.35
  -4   2   4   54.23    2.51
   4  -2   4   52.63    2.58
   4  -3  -4    1.66    0.50
  -4  -3   4    1.60    0.52
   4   3   4    0.31    0.41
  -4   3  -4    1.20    0.45
  -4   3   4    1.77    0.67
  -4  -3  -4    1.35    0.55
   4  -3   4    1.05    0.71
  -4   4  -4   20.10    1.31
   4  -4  -4   19.29    1.30
  -4   4   4   21.04    1.59
  -4  -4  -4   18.60    1.42
   4  -4   4   17.95    1.55
   5   0   4   60.87    2.55
  -5   0  -4   57.48    2.35
  -5   0   4   54.88    2.60
  -5   0  -4   57.28    2.53
   5   0  -4   59.62    2.36
   5   0  -4   58.07    2.39
  -5  -1   4    6.62    0.88
  -5   1  -4    5.51    0.60
   5  -1  -4    6.60    0.82
  -5   1  -4    6.06    0.57
   5  -1  -4    6.01    0.63
   5   1   4    7.46    0.77
  -5  -1  -4    6.27    0.67
   5   1  -4    6.60    0.65
   5   1  -4    7.44    0.71
  -5   1   4    6.39    0.89
   5  -1   4    7.89    0.94
  -5   2  -4   40.55    1.62
   5  -2  -4   39.66    1.80
  -5  -2   4   38.64    2.00
   5   2   4   37.51    1.79
  -5   2  -4   37.74    1.74
   5   2  -4   37.44    1.84
   5  -2   4   39.13    2.24
  -5   2   4   38.34    2.04
  -5  -2  -4   37.58    1.86
  -5  -3   4    2.97    0.74
   5   3   4    4.14    0.61
   5  -3  -4    2.28    0.56
  -5   3  -4    3.86    0.59
  -5   3   4    2.86    0.79
   5  -3   4    3.32    0.95
   5   3  -4    4.01    0.70
  -5  -3  -4    3.22    0.66
   5  -4  -4   15.45    1.19
  -5   4  -4   15.28    1.16
   5   4   4   14.94    1.09
  -5  -4  -4   16.41    1.31
  -5   4   4   16.90    1.49
   5   4  -4   17.73    1.43
   6   0  -4    2.29    0.53
  -6   0   4    3.09    0.73
  -6   0  -4    2.28    0.48
   6   0   4    2.75    0.66
   6   0  -4    1.48    0.38
   6   1   4   43.06    2.02
   6  -1  -4   43.56    1.85
  -6  -1   4   40.59    2.16
  -6   1  -4   43.16    1.84
  -6   1  -4   43.42    1.85
  -6  -1  -4   38.35    1.91
   6   1  -4   42.54    1.94
  -6   1   4   40.41    2.12
   6  -1   4   44.41    2.22
  -6   2  -4    1.45    0.44
  -6  -2   4    2.06    0.70
   6  -2  -4    1.12    0.47
   6   2   4    2.20    0.57
   6  -2   4    1.70    0.83
   6   2  -4    0.98    0.48
  -6  -2  -4    1.08    0.50
  -6   2   4    1.26    0.67
   6  -3  -4   20.60    1.27
  -6   3  -4   19.42    1.23
  -6  -3   4   20.47    1.51
   6   3   4   21.86    1.29
   6   3  -4   19.34    1.37
  -6  -3  -4   20.18    1.35
  -6   3   4   23.30    1.61
   6  -3   4   17.74    1.84
   6   4   4   -0.18    0.47
  -6   4   4    0.94    0.74
   7   0  -4    1.29    0.57
  -7   0   4    1.90    0.68
  -7   0  -4    2.06    0.50
   7   0   4    2.18    0.66
   7   1   4   43.29    2.07
   7  -1  -4   39.62    1.76
  -7   1  -4   40.16    1.82
  -7  -1   4   38.85    2.16
  -7   1   4   37.54    2.07
  -7  -1  -4   38.68    1.92
   7   1  -4   38.99    1.93
   7  -1   4   41.35    2.19
   7   2   4    1.22    0.59
   7  -2  -4    1.43    0.45
  -7  -2   4    1.80    0.73
  -7   2   4    1.04    0.69
  -7  -2  -4    0.93    0.55
   7   2  -4    1.24    0.54
   7  -2   4    3.38    0.97
  -7   3  -4   20.58    1.25
   7  -3  -4   19.15    1.29
   7   3   4   22.38    1.38
  -7  -3   4   21.44    1.71
   7  -3   4   20.28    2.06
  -7  -3  -4   21.23    1.44
   7   3  -4   23.95    1.56
  -7   3   4   19.96    1.53
  -8   0  -4   23.67    1.36
  -8   0   4   24.58    1.67
   8   0   4   25.08    1.61
   8   0  -4   26.18    1.56
  -8   1  -4    0.62    0.43
  -8  -1   4    0.67    0.68
   8   1   4    1.06    0.59
   8   1  -4    1.04    0.57
  -8   1   4    0.71    0.69
   8  -1   4    1.22    0.81
  -8  -1  -4    0.79    0.56
  -8  -2   4   15.05    1.55
   8   2   4   18.24    1.34
   8  -2  -4   17.60    1.09
  -8   2   4   18.89    1.47
   8   2  -4   17.75    1.34
   8  -2   4   21.54    1.96
  -8  -2  -4   15.60    1.26
  -8  -3   4    0.16    0.79
   8  -3  -4    0.58    0.52
   9   0   4   28.84    1.80
  -9   0  -4   25.16    1.49
  -9   0   4   29.59    1.81
  -9   1  -4    0.37    0.45
  -9  -1   4   -0.72    0.65
   9   1   4   -0.72    0.57
   9   1  -4    0.05    0.56
  -9  -1  -4    0.86    0.56
  -9   1   4    0.70    0.70
   9  -1   4   -0.84    0.67
   9  -2   4   24.13    2.17
   0   0  -5  321.39   12.07
   0   0   5  326.90   11.49
   0   0   5  331.65   11.22
   0  -1  -5  191.05    7.51
   0  -1   5  197.04    7.09
   0  -1   5  200.84    7.03
   0   1   5  208.37    7.27
   0   1  -5  197.73    7.44
   0   1   5  200.04    6.88
   0  -1   5  206.99    6.98
   0  -2  -5  191.68    6.83
   0   2  -5  181.29    6.81
   0   2   5  186.87    6.30
   0  -2   5  175.46    6.63
   0   2   5  183.01    6.81
   0  -3  -5   84.44    3.42
   0   3   5   85.96    3.57
   0   3  -5   85.27    3.45
   0  -3   5   84.61    3.46
   0   4  -5   57.53    2.59
   0  -4   5   60.46    2.66
   0  -4  -5   55.43    2.53
   0   4   5   55.35    2.74
   1   0   5   68.50    2.57
  -1   0  -5   68.17    2.51
  -1   0   5   64.66    2.62
   1   0  -5   64.21    3.03
  -1   0  -5   65.07    3.05
  -1   0   5   66.91    2.46
   1   1   5   60.27    2.27
   1  -1  -5   60.43    2.64
  -1  -1   5   59.42    2.36
  -1  -1   5   61.77    2.38
  -1   1  -5   59.78    2.54
  -1  -1  -5   54.40    2.72
   1   1  -5   58.65    2.69
  -1   1   5   58.05    2.49
   1  -1   5   61.45    2.48
  -1  -1  -5   62.53    2.43
  -1   1   5   62.87    2.10
   1  -2  -5   40.50    1.82
   1   2   5   39.04    1.52
  -1   2  -5   39.31    1.76
  -1  -2   5   39.33    1.76
   1   2  -5   37.33    1.80
  -1   2   5   37.17    1.83
  -1  -2  -5   38.22    1.76
  -1  -2  -5   32.67    1.69
  -1   3  -5   25.40    1.37
  -1  -3   5   24.57    1.40
   1   3   5   24.00    1.48
   1  -3  -5   23.76    1.35
   1   3  -5   26.38    1.38
  -1   3   5   25.59    1.51
  -1  -3  -5   23.83    1.28
   1  -3   5   23.86    1.43
  -1   4  -5   13.61    1.07
  -1  -4   5   13.19    1.17
   1  -4  -5   15.92    1.08
   1   4   5   12.54    1.28
  -1   4   5   13.35    1.29
   1   4  -5   13.22    1.05
   1  -4   5   12.18    1.18
  -1  -4  -5   13.34    0.96
   2   0   5  202.73    7.26
  -2   0   5  207.74    7.10
  -2   0  -5  208.65    7.28
  -2   0   5  206.64    7.49
   2   0  -5  198.25    7.72
  -2   0  -5  206.41    7.87
   2   1   5  243.51    8.17
  -2  -1   5  237.18    8.20
   2  -1  -5  225.47    8.59
  -2   1  -5  242.85    8.15
  -2   1  -5  235.74    8.53
  -2  -1   5  230.60    8.45
  -2   1   5  229.16    8.52
   2  -1   5  233.92    8.36
  -2  -1  -5  235.79    8.40
   2   1  -5  223.98    8.82
  -2  -2   5  123.19    4.59
  -2   2  -5  122.35    4.70
   2  -2  -5  120.54    4.74
  -2  -2   5  125.62    4.53
   2   2   5  127.93    4.43
   2  -2   5  121.98    4.75
  -2   2   5  112.53    4.76
  -2  -2  -5  121.95    4.69
  -2  -2  -5  127.72    4.62
   2   2  -5  122.92    4.81
   2   3   5   92.21    3.43
   2  -3  -5   94.74    3.77
  -2  -3   5   89.56    3.70
  -2   3  -5   94.38    3.75
  -2  -3  -5   90.00    3.82
   2  -3   5   90.35    3.82
  -2  -3  -5   97.71    3.63
  -2   3   5   96.15    3.91
   2   3  -5   92.46    3.76
  -2  -4   5   49.40    2.27
  -2   4  -5   42.29    2.17
   2   4   5   48.54    2.37
   2  -4  -5   43.54    2.16
   2   4  -5   42.40    2.14
  -2   4   5   43.87    2.35
   2  -4   5   43.00    2.25
   3   0   5   56.21    2.45
  -3   0   5   59.65    2.27
   3   0  -5   64.10    2.71
  -3   0   5   58.55    2.64
  -3   0  -5   59.73    2.81
  -3   0  -5   60.24    2.32
   3  -1  -5   42.22    1.87
  -3   1  -5   41.22    1.51
  -3   1  -5   40.77    1.79
  -3  -1   5   36.82    1.86
  -3  -1   5   35.15    1.68
   3   1   5   40.87    1.73
   3  -1  -5   37.60    1.52
  -3   1   5   41.72    1.98
   3   1  -5   36.39    2.04
  -3  -1  -5   35.81    1.99
  -3   2  -5   35.46    1.68
   3   2   5   36.16    1.59
  -3  -2   5   34.95    1.71
  -3  -2   5   39.46    1.74
   3  -2  -5   37.14    1.75
  -3  -2  -5   36.72    1.56
   3   2  -5   33.65    1.89
  -3  -2  -5   31.98    1.69
  -3   2   5   35.92    1.88
   3  -2   5   35.07    1.88
  -3  -3   5   19.88    1.21
   3   3   5   17.55    1.00
   3  -3  -5   17.42    1.16
  -3   3  -5   17.28    1.13
  -3  -3  -5   17.62    1.24
   3  -3   5   18.96    1.37
   3   3  -5   18.78    1.24
  -3   3   5   17.88    1.35
   3  -4  -5   13.39    1.17
  -3  -4   5   13.37    1.17
  -3   4  -5   13.43    1.07
  -3   4   5   13.53    1.34
   3  -4   5   14.10    1.36
   4   0   5  177.80    6.56
   4   0  -5  176.46    6.35
  -4   0   5  184.55    6.82
   4   0  -5  178.34    6.70
  -4   0  -5  180.50    6.93
  -4   0  -5  183.61    6.50
  -4  -1   5  116.93    4.74
  -4   1  -5  118.45    4.57
   4  -1  -5  118.06    4.60
  -4  -1   5  120.76    4.45
  -4   1  -5  121.82    4.35
   4   1   5  121.66    4.50
  -4  -1  -5  122.02    4.54
  -4  -1  -5  120.60    4.63
   4  -1   5  122.62    4.70
   4   1  -5  115.29    4.70
  -4   1   5  121.40    4.76
  -4   2  -5  109.68    4.30
  -4  -2   5  107.15    4.45
   4   2   5  108.92    4.17
   4  -2  -5  112.59    4.35
  -4  -2   5  115.16    4.28
  -4  -2  -5  112.20    4.35
  -4   2   5  115.15    4.56
   4   2  -5  106.93    4.56
   4  -2   5  115.03    4.55
   4  -3  -5   56.86    2.62
  -4   3  -5   59.61    2.58
   4   3   5   60.54    2.44
  -4  -3   5   58.92    2.60
  -4  -3  -5   53.88    2.62
  -4   3   5   61.10    2.81
   4  -3   5   60.14    2.93
   4   3  -5   59.57    2.73
  -4   4  -5   40.81    2.07
   4  -4  -5   39.94    2.07
  -4  -4   5   40.87    2.11
   4  -4   5   42.52    2.37
  -4   4   5   39.28    2.24
  -4  -4  -5   39.71    2.19
   5   0  -5   26.54    1.36
  -5   0  -5   31.14    1.78
   5   0  -5   27.78    1.40
   5   0   5   27.51    1.56
  -5   0  -5   26.64    1.32
  -5   0   5   29.21    1.74
  -5   1  -5   36.15    1.49
   5  -1  -5   32.52    1.63
   5   1   5   34.50    1.72
  -5   1  -5   35.20    1.65
  -5  -1   5   32.73    1.95
  -5   1   5   36.77    1.98
  -5  -1  -5   33.95    1.64
   5  -1   5   32.63    1.87
   5   1  -5   33.59    1.64
   5   1  -5   35.92    1.73
  -5  -2   5   16.49    1.35
  -5   2  -5   17.06    1.05
   5   2   5   16.50    1.10
   5  -2  -5   16.70    1.10
  -5   2   5   14.72    1.32
  -5  -2  -5   16.56    1.13
   5  -2   5   20.62    1.52
   5   2  -5   18.55    1.17
  -5   3  -5   16.72    1.12
   5   3   5   15.98    1.09
   5  -3  -5   17.71    1.17
   5  -3   5   17.60    1.69
  -5  -3  -5   16.03    1.19
   5   3  -5   17.73    1.26
  -5   3   5   16.87    1.45
  -5   4  -5    8.99    0.96
  -5  -4  -5    6.64    0.99
  -5   4   5    7.95    1.16
   5  -4   5    6.75    1.17
  -6   0  -5   78.77    3.14
   6   0   5   75.90    3.31
  -6   0   5   81.90    3.52
   6   0  -5   83.43    3.17
   6   0  -5   76.16    3.10
   6  -1  -5   85.99    3.49
  -6   1  -5   89.23    3.53
   6   1   5   90.46    3.60
  -6  -1   5   91.31    3.88
  -6   1  -5   89.81    3.40
   6  -1   5   86.47    3.75
  -6  -1  -5   89.34    3.56
   6   1  -5   85.90    3.49
  -6   1   5   88.34    3.79
  -6   2  -5   55.57    2.43
  -6  -2   5   56.20    2.84
   6  -2  -5   56.31    2.45
   6   2   5   53.98    2.45
   6  -2   5   60.90    2.94
  -6   2   5   61.24    2.84
  -6  -2  -5   54.14    2.53
   6   2  -5   54.68    2.48
   6  -3  -5   42.51    2.12
   6   3   5   43.61    2.07
  -6   3  -5   44.33    2.08
   6  -3   5   41.07    2.58
  -6  -3  -5   41.42    2.18
  -6   3   5   46.01    2.40
   6   3  -5   47.52    2.22
   7   0   5   22.31    1.49
  -7   0   5   23.05    1.58
  -7   0  -5   23.33    1.29
   7   0  -5   23.60    1.38
  -7  -1   5    9.76    1.19
   7  -1  -5   12.37    0.88
  -7   1  -5   12.75    0.86
   7   1   5   12.68    1.16
   7   1  -5   13.15    1.09
   7  -1   5   14.85    1.34
  -7  -1  -5   12.84    0.98
  -7   1   5   11.36    1.23
  -7  -2   5   15.84    1.60
   7   2   5   15.97    1.20
   7  -2  -5   16.13    1.08
  -7   2   5   16.72    1.44
  -7  -2  -5   16.28    1.18
   7  -2   5   17.94    1.71
   7   2  -5   17.03    1.24
   7   3   5    7.49    0.93
   7  -3  -5    5.66    0.80
  -7   3  -5    8.24    0.86
  -7  -3  -5    9.03    1.00
  -7   3   5    7.35    1.12
   7   3  -5    7.99    0.98
   7  -3   5    9.43    1.47
  -8   0  -5   48.09    2.19
   8   0   5   48.33    2.42
  -8   0   5   46.27    2.50
  -8   1  -5   37.25    1.82
  -8  -1   5   41.27    2.31
   8   1   5   40.96    2.14
  -8  -1  -5   40.17    2.00
   8  -1   5   41.61    2.30
   8   1  -5   42.41    2.07
  -8   1   5   39.95    2.23
  -8  -2   5   34.84    2.29
   8  -2  -5   36.33    1.75
   8   2   5   36.19    2.01
   8  -2   5   43.84    2.49
   8   2  -5   33.75    1.92
  -8  -2  -5   34.05    1.91
  -8   2   5   34.27    2.12
  -9   0   5    8.38    1.12
  -9   0  -5    6.58    0.81
   9   0   5    6.43    1.02
  -9  -1   5   14.40    1.49
   9   1   5   10.95    1.23
  -9   1   5   10.61    1.26
  -9  -1  -5   12.95    1.14
   9  -1   5   15.86    1.52
   9   1  -5   12.49    1.17
   0   0  -6   36.71    2.10
   0   0   6   37.91    1.58
   0   0   6   37.42    1.61
   0   1   6    3.09    0.35
   0   1  -6    1.48    0.60
   0  -1  -6    1.94    0.75
   0  -1   6    2.90    0.42
   0   1   6    1.70    0.44
   0  -1   6    2.20    0.46
   0   2  -6   21.56    1.27
   0  -2   6   19.14    1.21
   0   2   6   21.95    0.89
   0   2   6   22.78    1.32
   0  -2  -6   22.92    1.35
   0  -3   6    1.31    0.53
   0   3   6    1.15    0.56
   0   3  -6    1.30    0.52
   0  -3  -6    2.09    0.52
   0  -4   6    8.10    0.98
   0   4  -6    5.17    0.83
   0   4   6    7.01    1.01
   0  -4  -6    7.95    0.87
  -1   0   6   23.76    1.08
   1   0   6   25.14    1.19
   1   0  -6   23.39    1.57
  -1   0   6   24.46    1.27
   1   0   6   22.90    1.09
  -1   0  -6   27.68    1.76
   1  -1  -6   35.82    1.92
   1   1   6   34.85    1.43
  -1   1  -6   34.76    1.77
   1   1   6   33.62    1.55
  -1  -1   6   35.28    1.53
  -1  -1   6   30.83    1.57
   1  -1   6   32.48    1.60
  -1  -1  -6   27.75    2.05
  -1   1   6   32.66    1.63
   1   1  -6   33.36    1.90
  -1   1   6   34.92    1.25
   1  -1   6   33.15    1.30
   1  -2  -6   16.61    1.17
  -1  -2   6   15.93    1.06
   1   2   6   15.59    1.08
  -1   2  -6   17.07    1.10
   1   2   6   15.74    0.81
   1   2  -6   15.10    1.08
  -1  -2  -6   17.48    1.16
   1  -2   6   14.87    1.09
  -1   2   6   15.94    1.13
   1  -3  -6   16.08    1.13
   1   3   6   17.28    1.25
  -1  -3   6   18.55    1.19
  -1   3  -6   15.67    1.07
  -1  -3  -6   16.74    1.10
   1   3  -6   16.00    1.14
   1  -3   6   16.07    1.19
  -1   3   6   16.10    1.25
   1  -4  -6    6.19    0.82
   1   4   6    6.02    0.95
  -1  -4   6    8.06    0.94
  -1   4  -6    6.88    0.86
   1   4  -6    5.61    0.84
  -1  -4  -6    7.64    0.82
   1  -4   6    7.12    0.98
  -1   4   6    5.16    0.95
   2   0   6    1.93    0.49
  -2   0   6    2.53    0.61
   2   0  -6    1.85    0.74
  -2   0  -6    2.58    0.37
  -2   0   6    2.10    0.34
  -2   0  -6    0.81    0.72
   2  -1  -6   27.63    1.58
  -2  -1   6   24.40    1.29
   2   1   6   27.13    1.30
  -2   1  -6   29.16    1.52
  -2  -1   6   28.64    1.52
   2  -1   6   28.61    1.08
   2  -1   6   27.79    1.47
  -2   1   6   28.83    1.52
  -2  -1  -6   24.22    1.28
   2   1  -6   27.87    1.78
   2  -2  -6    2.24    0.57
  -2  -2   6    2.29    0.49
   2   2   6    2.07    0.42
  -2   2  -6    2.16    0.52
  -2  -2  -6    2.50    0.54
   2  -2   6    1.73    0.55
   2   2  -6    1.73    0.63
  -2   2   6    1.32    0.59
  -2  -2  -6    3.65    0.58
  -2   3  -6    9.81    0.92
  -2  -3   6   10.96    0.99
   2  -3  -6   11.74    0.94
   2   3  -6   12.00    1.07
  -2   3   6   10.93    1.11
   2  -3   6   11.46    1.13
  -2  -3  -6   13.20    0.88
  -2   4  -6    0.78    0.53
  -2  -4   6    1.91    0.65
   2   4   6    1.10    0.69
   2  -4  -6    1.21    0.57
   2  -4   6    1.27    0.65
   2   4  -6    1.22    0.57
  -2   4   6    2.09    0.78
   3   0  -6   45.69    2.28
  -3   0  -6   46.37    2.44
  -3   0  -6   45.86    1.82
  -3   0   6   38.69    2.13
  -3   0   6   46.86    1.79
   3   0   6   44.20    2.00
  -3  -1   6    8.78    0.98
  -3   1  -6    9.46    0.52
   3   1   6    9.10    0.78
  -3  -1   6    8.22    0.73
   3  -1  -6    9.58    0.95
  -3   1  -6    8.78    0.87
   3  -1   6    8.20    0.87
  -3  -1  -6    6.44    1.07
  -3  -1  -6    9.29    0.72
  -3   1   6    9.89    1.00
   3   1  -6    7.82    1.00
  -3  -2   6   31.22    1.58
   3   2   6   31.20    1.46
   3  -2  -6   31.93    1.68
  -3  -2   6   28.86    1.60
  -3   2  -6   31.11    1.59
  -3  -2  -6   31.61    1.49
   3   2  -6   28.55    1.86
   3  -2   6   30.96    1.76
  -3  -2  -6   31.66    1.59
  -3   2   6   31.67    1.75
  -3   3  -6    4.26    0.66
   3   3   6    4.71    0.60
  -3  -3   6    4.55    0.74
   3  -3  -6    5.50    0.74
   3  -3   6    4.49    0.88
  -3   3   6    4.83    0.87
  -3  -3  -6    4.85    0.75
   3   3  -6    3.73    0.76
   3   4   6   13.87    1.32
   3  -4  -6   14.05    1.22
  -3   4  -6   12.05    1.12
  -3  -4   6   13.05    1.18
  -3   4   6   14.68    1.41
   3   4  -6   10.66    1.14
   3  -4   6   12.97    1.36
   4   0  -6   21.86    1.12
  -4   0  -6   25.30    1.73
  -4   0   6   22.35    1.47
  -4   0  -6   21.82    1.10
   4   0  -6   21.83    1.39
   4   0   6   21.89    1.31
   4   1   6    3.06    0.57
  -4   1  -6    2.32    0.34
   4  -1  -6    1.67    0.54
  -4  -1   6    1.77    0.46
  -4   1  -6    2.46    0.56
  -4  -1   6    2.07    0.72
  -4  -1  -6    1.84    0.47
   4   1  -6    1.04    0.64
   4  -1   6    2.46    0.64
  -4   1   6    1.65    0.67
  -4  -1  -6    2.32    0.75
  -4   2  -6   12.76    0.96
   4  -2  -6   13.45    1.04
  -4  -2   6   14.00    1.01
   4   2   6   14.55    0.97
  -4  -2   6   10.59    1.13
   4   2  -6   14.97    1.34
  -4  -2  -6   11.28    0.95
   4  -2   6   13.48    1.26
  -4   2   6   14.50    1.27
  -4  -3   6    0.93    0.57
   4   3   6    0.92    0.46
   4  -3  -6    0.72    0.52
  -4   3  -6    0.74    0.47
   4  -3   6    1.67    0.75
  -4   3   6    0.96    0.70
   4   3  -6    2.61    0.76
  -4  -3  -6    1.40    0.50
   4  -4  -6    3.76    0.74
  -4  -4   6    5.19    0.85
  -4   4  -6    4.86    0.77
   4  -4   6    3.98    1.01
  -4   4   6    4.34    0.94
  -4  -4  -6    4.64    0.88
   5   0   6    2.08    0.64
   5   0  -6    2.83    0.49
   5   0  -6    4.04    0.63
  -5   0   6    4.23    0.80
  -5   0  -6    3.65    0.52
  -5   0  -6    5.70    1.00
   5  -1  -6   42.46    1.94
  -5   1  -6   39.27    1.93
   5   1   6   40.22    1.91
  -5  -1   6   38.73    2.15
  -5   1  -6   41.04    1.66
  -5  -1  -6   37.58    1.82
   5   1  -6   37.55    1.82
   5  -1   6   40.84    2.09
  -5   1   6   38.91    2.14
   5   1  -6   40.52    1.97
   5  -2  -6    2.04    0.56
  -5   2  -6    2.74    0.55
   5   2   6    2.38    0.57
  -5  -2   6    2.43    0.77
   5  -2   6    1.62    0.72
  -5   2   6    2.33    0.75
  -5  -2  -6    1.86    0.55
   5   2  -6    2.55    0.65
  -5   3  -6   20.98    1.32
   5  -3  -6   19.79    1.37
   5   3   6   21.07    1.24
  -5  -3  -6   19.96    1.36
  -5   3   6   20.05    1.55
   5  -3   6   22.92    1.92
   5  -4   6    0.06    0.85
  -6   0  -6    1.23    0.43
   6   0   6    1.15    0.60
   6   0  -6    0.66    0.44
   6   0  -6    1.38    0.49
  -6   0   6    1.94    0.73
   6   1   6   10.16    1.01
  -6   1  -6   10.38    0.75
   6  -1  -6    9.89    0.90
  -6  -1   6   12.01    1.29
   6  -1   6   10.56    1.16
  -6   1   6   10.92    1.14
   6   1  -6   10.33    0.92
  -6  -1  -6   10.78    0.92
   6   2   6    1.95    0.59
   6  -2  -6    1.46    0.54
  -6  -2   6    0.10    0.71
  -6   2  -6    1.31    0.50
   6  -2   6    1.22    0.76
  -6  -2  -6    1.33    0.54
   6   2  -6    1.79    0.59
  -6   2   6    2.27    0.80
  -6   3  -6    4.83    0.72
   6  -3  -6    3.64    0.72
   6   3   6    5.15    0.75
   6   3  -6    4.59    0.83
  -6   3   6    5.05    0.99
   6  -3   6    4.78    1.13
  -6  -3  -6    4.85    0.82
  -7   0  -6   32.93    1.60
  -7   0   6   36.25    2.04
   7   0   6   31.50    1.83
   7  -1  -6    0.18    0.42
   7   1   6    1.16    0.63
  -7  -1   6   -0.58    0.63
   7   1  -6    0.52    0.48
   7  -1   6    1.39    0.70
  -7  -1  -6    0.34    0.49
  -7   1   6    0.36    0.65
   7  -2  -6   24.44    1.41
   7   2   6   26.59    1.54
  -7  -2   6   24.72    1.92
  -7  -2  -6   23.62    1.52
  -7   2   6   24.05    1.69
   7  -2   6   26.46    1.88
   7   2  -6   26.14    1.54
   7  -3  -6    0.17    0.52
  -7   3  -6   -0.20    0.47
   7   3   6    0.30    0.58
   7  -3   6    0.33    0.87
   8   0   6    5.52    0.92
  -8   0   6    5.54    0.99
  -8   0  -6    5.24    0.68
   8   1   6    1.41    0.71
  -8  -1   6    1.05    0.78
   8   1  -6    1.01    0.61
   8  -1   6    1.52    0.75
  -8  -1  -6    0.98    0.56
  -8   1   6   -0.07    0.67
  -8  -2   6    4.28    1.11
   8  -2  -6    4.72    0.71
   8   2   6    3.90    0.84
   8  -2   6    4.73    1.14
  -8  -2  -6    3.29    0.74
  -8   2   6    4.43    0.96
   8   2  -6    4.93    0.82
  -9   0  -6    0.80    0.49
  -9   0   6    0.07    0.68
  -9  -1  -6   23.46    1.46
   0   0   7   34.01    1.60
   0   0   7   37.36    1.58
   0   0  -7   37.02    2.10
   0   1   7  123.61    4.14
   0  -1   7  119.89    4.37
   0   1   7  121.57    4.47
   0   1  -7  119.24    4.87
   0  -1  -7  114.28    5.04
   0  -1   7  101.95    4.31
   0   2  -7   21.05    1.39
   0  -2  -7   20.89    1.44
   0  -2   7   21.68    1.27
   0   2   7   20.71    1.27
   0  -3   7   53.87    2.52
   0   3   7   54.49    2.60
   0  -3  -7   57.68    2.59
   0   3  -7   56.29    2.60
   0   4  -7    7.87    1.00
   0  -4   7    9.89    1.11
   0   4   7    8.52    1.10
   0  -4  -7    8.08    0.94
  -1   0  -7   52.23    2.70
  -1   0   7   52.82    2.23
   1   0   7   51.07    2.11
   1   0   7   49.87    2.08
  -1   0   7   51.40    2.02
   1   0  -7   50.64    2.64
   1   1   7   35.20    1.57
   1  -1  -7   34.55    2.06
   1   1   7   35.67    1.45
  -1  -1   7   31.87    1.54
  -1  -1   7   25.53    1.57
  -1   1  -7   32.31    1.87
  -1   1   7   34.26    1.66
  -1   1   7   34.73    1.28
  -1  -1  -7   26.68    2.13
   1   1  -7   33.33    2.05
   1  -1   7   35.63    1.65
   1   2   7   35.61    1.72
   1  -2  -7   33.00    1.87
  -1   2  -7   33.67    1.78
   1   2   7   33.19    1.39
  -1  -2   7   34.88    1.68
   1  -2   7   33.27    1.72
   1   2  -7   30.14    1.83
  -1   2   7   32.50    1.75
  -1  -2  -7   35.89    1.90
   1   3   7   18.02    1.28
  -1  -3   7   16.38    1.18
  -1   3  -7   15.86    1.18
   1  -3  -7   15.87    1.22
  -1   3   7   16.67    1.27
  -1  -3  -7   16.78    1.16
   1  -3   7   15.93    1.21
   1   3  -7   16.40    1.24
   1  -4  -7   13.22    1.24
  -1  -4   7   12.45    1.19
  -1   4  -7    9.96    1.10
   1   4   7   13.27    1.30
  -1   4   7   15.66    1.42
   1  -4   7   13.62    1.28
   1   4  -7   12.91    1.22
  -1  -4  -7   13.34    1.13
   2   0   7  129.55    4.86
  -2   0  -7  134.02    4.81
  -2   0   7  129.96    4.68
  -2   0  -7  134.90    5.50
   2   0  -7  127.37    5.34
  -2   0   7  131.57    5.05
   2   1   7   26.75    1.28
  -2   1  -7   27.77    1.60
   2  -1  -7   24.16    1.66
  -2  -1   7   23.36    1.52
  -2  -1   7   25.54    1.29
  -2   1   7   25.13    1.00
  -2   1   7   28.97    1.53
   2  -1   7   27.51    1.45
   2   1  -7   28.61    1.82
   2   2   7   81.33    3.08
  -2   2  -7   85.52    3.47
  -2  -2   7   82.25    3.30
   2  -2  -7   81.98    3.55
   2   2  -7   81.43    3.65
  -2  -2  -7   83.86    3.36
  -2  -2  -7   81.82    3.49
  -2   2   7   79.34    3.43
   2  -2   7   81.21    3.42
   2  -3  -7   13.11    1.21
  -2   3  -7   12.72    1.05
   2   3   7   14.92    1.16
  -2  -3   7   14.24    1.09
   2  -3   7   14.61    1.28
  -2   3   7   14.24    1.28
  -2  -3  -7   13.61    1.02
   2   3  -7   12.05    1.20
   2  -4  -7   27.95    1.71
  -2   4  -7   27.05    1.68
   2   4   7   29.93    1.84
  -2  -4   7   28.61    1.72
   2   4  -7   29.53    1.79
  -2   4   7   27.68    1.84
   2  -4   7   26.47    1.75
  -3   0   7   23.56    1.13
  -3   0  -7   26.05    1.79
  -3   0  -7   23.29    1.15
  -3   0   7   21.68    1.50
   3   0  -7   26.17    1.72
   3   0   7   25.41    1.38
  -3  -1   7   47.46    2.00
  -3   1  -7   48.67    2.31
  -3  -1   7   40.09    2.28
   3  -1  -7   47.35    2.32
   3   1   7   46.99    2.04
  -3   1  -7   50.40    1.81
   3  -1   7   47.00    2.23
   3   1  -7   46.67    2.45
  -3  -1  -7   45.15    2.02
  -3   1   7   46.02    2.27
  -3  -2   7   14.50    1.05
  -3   2  -7   16.31    1.13
   3  -2  -7   17.26    1.26
   3   2   7   17.07    0.98
   3   2  -7   15.71    1.48
   3  -2   7   13.00    1.21
  -3  -2  -7   15.38    1.10
  -3  -2  -7   13.61    1.03
  -3   2   7   15.47    1.18
   3  -3  -7   23.18    1.47
  -3  -3   7   23.02    1.43
  -3   3  -7   23.02    1.36
   3  -3   7   24.30    1.60
   3   3  -7   21.10    1.54
  -3   3   7   22.01    1.53
  -3  -3  -7   19.73    1.38
  -3   4  -7    5.40    0.81
   3   4   7    7.75    1.07
   3  -4  -7    6.03    0.92
  -3  -4   7    7.58    0.97
  -3   4   7    5.20    1.01
   3  -4   7    6.09    1.03
   3   4  -7    6.54    0.98
   4   0  -7   21.82    1.11
  -4   0  -7   20.98    1.09
   4   0   7   20.35    1.32
  -4   0  -7   27.46    1.78
  -4   0   7   21.90    1.54
   4   0  -7   22.14    1.48
  -4  -1   7   74.89    3.53
   4   1   7   80.77    3.22
  -4   1  -7   81.73    3.47
   4  -1  -7   82.67    3.45
  -4  -1   7   80.41    3.16
   4  -1   7   78.96    3.39
  -4   1   7   78.04    3.47
  -4  -1  -7   81.89    3.21
   4   1  -7   83.56    3.55
  -4  -2   7   14.25    1.07
   4   2   7   16.60    1.06
   4  -2  -7   16.50    1.24
  -4   2  -7   15.82    1.13
   4  -2   7   15.01    1.31
   4   2  -7   14.53    1.36
  -4   2   7   16.38    1.32
  -4  -2  -7   17.25    1.13
  -4   3  -7   38.55    1.96
  -4  -3   7   38.63    1.97
   4  -3  -7   38.77    2.02
  -4  -3  -7   34.40    1.96
   4  -3   7   41.06    2.24
  -4   3   7   38.26    2.13
   4   3  -7   36.73    2.22
   4  -4   7    7.91    1.20
  -5   0   7   46.81    2.34
  -5   0  -7   51.26    2.58
   5   0  -7   43.08    2.14
   5   0   7   40.76    2.12
  -5   0  -7   44.21    1.92
   5   1   7   10.54    0.98
   5  -1  -7    9.06    0.95
  -5  -1   7   10.54    1.21
  -5   1  -7   10.80    1.06
  -5   1   7    8.99    1.11
   5   1  -7   12.65    1.13
   5  -1   7   10.84    1.09
   5   1  -7   10.15    0.87
  -5  -1  -7   10.37    0.88
   5  -2  -7   28.99    1.65
  -5   2  -7   31.13    1.64
   5   2   7   28.21    1.52
  -5  -2   7   26.99    1.58
   5  -2   7   30.18    1.82
  -5   2   7   28.45    1.78
  -5  -2  -7   30.05    1.61
   5   2  -7   29.43    1.73
  -5   3  -7    5.38    0.77
   5  -3  -7    5.23    0.85
   5   3   7    5.23    0.73
  -5  -3   7    6.56    0.94
   5  -3   7    7.20    1.18
  -5  -3  -7    6.25    0.88
  -5   3   7    6.63    1.04
   6   0   7   53.78    2.52
   6   0  -7   51.73    2.38
  -6   0  -7   54.82    2.29
  -6   0   7   55.51    2.75
   6  -1  -7   11.98    0.99
  -6  -1   7   12.94    1.43
   6   1   7   14.22    1.18
   6   1  -7   14.98    1.06
  -6   1   7   14.61    1.34
  -6  -1  -7   11.86    0.94
   6  -1   7   12.54    1.24
   6   1  -7   13.00    1.02
   6  -2  -7   34.61    1.88
  -6   2  -7   38.88    1.92
   6   2   7   36.76    1.87
   6   2  -7   38.35    1.96
  -6   2   7   36.89    2.15
  -6  -2  -7   36.29    1.89
   6  -2   7   40.46    2.24
   6   3   7    7.74    0.90
  -6   3  -7    7.07    0.89
   6  -3  -7    7.22    0.97
  -6  -3  -7    7.70    0.99
   6  -3   7    6.55    1.27
   6   3  -7    8.13    1.00
  -6   3   7    9.02    1.17
   7   0   7    4.80    0.85
  -7   0   7    5.16    0.99
  -7   0  -7    4.51    0.64
  -7  -1   7   30.76    2.01
   7  -1  -7   28.77    1.54
   7   1   7   26.20    1.67
   7   1  -7   28.90    1.60
   7  -1   7   29.36    1.82
  -7  -1  -7   28.79    1.55
  -7   1   7   25.84    1.74
   7  -2  -7    2.41    0.62
   7   2   7    3.71    0.77
   7  -2   7    6.15    1.15
  -7  -2  -7    2.32    0.64
  -7   2   7    3.23    0.86
   7   2  -7    3.37    0.70
   7   3   7   13.81    1.16
  -8   0   7    9.59    1.20
  -8   0  -7    8.25    0.84
   8   0   7    8.04    1.07
  -8  -1   7   28.42    1.99
   8   1   7   26.53    1.71
  -8  -1  -7   24.59    1.49
   8  -1   7   29.99    1.90
  -8   1   7   25.11    1.79
   8  -2  -7    6.85    0.86
   8   2  -7    6.47    0.90
   0   0   8  138.57    5.14
   0   0  -8  143.11    5.91
   0   0   8  146.73    5.31
   0  -1  -8   62.82    3.51
   0   1   8   75.22    2.63
   0   1   8   71.96    2.90
   0  -1   8   68.43    2.83
   0   1  -8   68.49    3.36
   0  -2  -8   84.55    4.01
   0   2   8   88.01    3.68
   0   2  -8   96.86    3.96
   0  -2   8   91.16    3.61
   0  -3   8   31.58    1.77
   0   3   8   32.85    1.80
   0  -3  -8   32.25    1.94
   0   3  -8   35.14    1.91
   0  -4  -8   39.10    2.19
   0   4   8   42.92    2.30
   0   4  -8   40.09    2.23
   0  -4   8   41.26    2.21
   1   0   8   23.34    1.20
  -1   0   8   23.25    1.13
  -1   0  -8   25.52    1.77
  -1   0   8   23.70    1.34
   1   0  -8   24.82    1.83
   1   0   8   21.61    1.18
  -1   1  -8   19.25    1.47
   1  -1  -8   16.92    1.63
   1   1   8   17.68    1.10
   1   1   8   16.43    0.93
  -1  -1   8   16.87    1.01
  -1   1   8   17.26    0.79
   1   1  -8   15.96    1.55
  -1  -1  -8   12.33    1.63
   1  -1   8   14.79    1.07
  -1   1   8   17.73    1.16
   1  -2  -8   16.04    1.48
  -1  -2   8   15.98    1.10
  -1   2  -8   16.08    1.27
   1   2   8   16.97    1.14
   1  -2   8   15.33    1.14
  -1  -2  -8   14.84    1.45
   1   2  -8   14.49    1.39
  -1   2   8   15.92    1.18
   1   3   8    8.35    1.00
   1  -3  -8   10.13    1.15
  -1  -3   8    8.77    0.96
  -1   3  -8   10.27    1.08
   1   3  -8    9.46    1.11
  -1  -3  -8    9.95    1.08
   1  -3   8    8.36    0.97
  -1   3   8   10.11    1.08
   1  -4  -8    8.79    1.10
  -1   4  -8    6.89    1.00
   1   4   8    7.10    1.05
  -1  -4   8    7.30    1.00
   1   4  -8    5.53    0.96
  -1   4   8    8.26    1.11
   1  -4   8    8.36    1.08
   2   0   8   73.75    2.96
  -2   0   8   74.46    2.90
  -2   0  -8   81.02    3.66
  -2   0   8   79.18    3.25
   2   0   8   76.91    3.08
   2   0  -8   80.44    3.60
  -2   1  -8  107.54    4.54
  -2  -1   8  108.53    4.02
   2   1   8  109.89    4.08
   2   1   8  111.76    4.00
   2  -1  -8  105.29    4.61
  -2  -1   8   89.45    4.25
   2   1  -8  108.46    4.61
   2  -1   8  108.66    4.15
  -2   1   8  108.85    4.26
  -2  -2   8   47.59    2.16
  -2   2  -8   47.96    2.35
   2   2   8   47.78    2.18
   2  -2  -8   46.40    2.47
   2   2   8   48.48    1.94
  -2  -2  -8   45.03    2.47
   2  -2   8   48.08    2.27
  -2   2   8   48.07    2.29
   2   2  -8   43.54    2.52
   2   3   8   60.42    2.73
   2  -3  -8   58.34    2.84
  -2  -3   8   57.14    2.65
  -2   3  -8   58.91    2.75
   2   3  -8   58.48    2.89
  -2   3   8   57.45    2.77
  -2  -3  -8   60.67    2.69
   2  -3   8   58.09    2.75
  -2   4  -8   15.35    1.41
   2  -4  -8   17.77    1.58
  -2  -4   8   17.79    1.39
   2   4   8   19.13    1.53
  -2   4   8   17.45    1.55
   2  -4   8   19.49    1.52
   2   4  -8   18.32    1.59
  -3   0  -8   13.82    1.44
  -3   0   8   12.53    1.19
  -3   0   8   13.19    0.81
  -3   0  -8   13.33    0.83
   3   0  -8   12.52    1.32
   3   0   8   11.94    1.02
   3  -1  -8   22.94    1.58
  -3   1  -8   23.33    1.56
  -3  -1   8   17.43    1.50
   3   1   8   21.69    1.23
  -3  -1   8   22.61    1.21
   3   1  -8   23.45    1.59
  -3  -1  -8   13.30    1.69
   3  -1   8   21.53    1.35
  -3   1   8   22.57    1.44
  -3  -1  -8   22.26    1.22
   3  -2  -8    8.16    1.06
  -3   2  -8    7.99    0.95
   3   2   8    9.23    0.78
  -3  -2   8    8.69    0.87
   3   2  -8    6.38    1.10
  -3   2   8    7.37    0.96
  -3  -2  -8    8.96    0.88
   3  -2   8    8.79    1.00
  -3  -2  -8    8.72    1.02
   3  -3  -8   13.09    1.27
  -3  -3   8   11.75    1.12
   3   3   8   10.12    1.06
  -3   3  -8   11.94    1.13
   3  -3   8   12.97    1.26
  -3   3   8   10.08    1.14
   3   3  -8   12.45    1.38
   4   0  -8   95.82    4.19
  -4   0  -8   98.11    3.74
  -4   0   8   98.75    4.13
   4   0   8   94.41    3.91
  -4   0  -8  105.55    4.43
  -4  -1   8   47.70    2.52
   4   1   8   49.66    2.19
  -4   1  -8   48.27    2.49
   4  -1  -8   53.04    2.48
  -4  -1   8   48.51    2.11
   4  -1   8   47.75    2.32
  -4   1   8   47.86    2.40
   4   1  -8   50.67    2.49
  -4  -1  -8   48.92    2.15
  -4  -1  -8   37.63    2.63
  -4  -2   8   67.81    2.84
   4   2   8   68.44    2.75
  -4   2  -8   66.88    3.02
   4  -2  -8   66.14    3.07
  -4  -2  -8   64.97    2.87
   4  -2   8   65.75    3.03
  -4   2   8   68.63    3.10
   4   2  -8   63.73    3.14
  -4  -3   8   22.90    1.47
  -4   3  -8   22.33    1.47
   4  -3  -8   20.69    1.56
  -4   3   8   24.67    1.66
  -4  -3  -8   21.92    1.47
   4  -3   8   24.21    1.69
   4   3  -8   26.22    1.81
   5   0  -8   20.30    1.39
  -5   0   8   19.43    1.50
  -5   0  -8   21.68    1.15
   5   0   8   21.55    1.40
   5  -1  -8    6.88    0.91
  -5  -1   8    5.59    1.03
   5   1   8    5.85    0.79
  -5   1  -8    7.42    1.01
   5  -1   8    5.42    0.89
   5   1  -8    5.45    0.70
  -5   1   8    6.13    1.00
  -5  -1  -8    6.11    0.71
   5   1  -8    6.34    0.93
  -5   2  -8   14.51    1.20
  -5  -2   8   15.47    1.17
   5   2   8   16.78    1.16
   5  -2  -8   15.53    1.27
  -5  -2  -8   16.44    1.17
   5   2  -8   16.66    1.29
   5  -2   8   15.23    1.41
  -5   2   8   19.09    1.43
  -5   3  -8    3.76    0.73
   5  -3  -8    4.12    0.84
  -5  -3   8    3.21    0.78
  -5   3   8    3.12    0.92
   5  -3   8    3.95    0.97
  -5  -3  -8    4.26    0.80
  -6   0   8   34.70    2.04
   6   0   8   33.27    1.86
  -6   0  -8   32.85    1.58
   6   0  -8   32.05    1.73
   6   1   8   56.96    2.60
   6  -1  -8   58.08    2.63
  -6  -1   8   55.23    2.95
  -6  -1  -8   55.35    2.48
   6   1  -8   59.50    2.61
   6   1  -8   57.30    2.49
  -6   1   8   56.93    2.81
   6  -1   8   56.01    2.74
  -6   2  -8   22.23    1.47
   6  -2  -8   23.58    1.49
   6   2   8   21.70    1.40
   6   2  -8   24.63    1.51
   6  -2   8   23.96    1.67
  -6   2   8   21.68    1.69
  -6  -2  -8   23.07    1.44
  -6   3  -8   30.57    1.77
  -7   0   8    3.75    0.95
   7   0   8    2.55    0.79
   7   1   8   17.12    1.40
   7  -1  -8   15.91    1.16
  -7  -1   8   16.98    1.65
   7  -1   8   14.87    1.43
  -7  -1  -8   17.10    1.12
  -7   1   8   15.94    1.49
   7  -2  -8    2.91    0.70
   7   2   8    0.90    0.60
   7   2  -8    3.01    0.71
   7  -2   8    1.77    0.83
  -7  -2  -8    2.22    0.65
  -7   2   8    3.42    0.84
   8   0   8   32.12    2.02
  -8   0   8   37.43    2.17
  -8  -1   8   18.14    1.70
   8   1   8   13.32    1.32
  -8  -1  -8   14.42    1.12
   8  -2  -8   25.34    1.52
   0   0   9   72.24    2.92
   0   0   9   80.87    3.08
   0   0  -9   76.05    3.59
   0   1   9    3.65    0.45
   0   1  -9    4.53    0.94
   0   1   9    4.52    0.66
   0  -1   9    4.89    0.64
   0  -1  -9    4.75    1.18
   0  -2   9   47.27    2.16
   0   2  -9   46.81    2.49
   0   2   9   47.21    2.20
   0  -2  -9   43.91    2.65
   0   3  -9    1.86    0.75
   0   3   9    1.99    0.67
   0  -3  -9    1.70    0.81
   0  -3   9    1.14    0.61
   0  -4  -9   18.69    1.53
  -1   0   9    8.33    0.71
  -1   0   9   13.76    1.00
   1   0   9    9.53    0.81
   1   0  -9   10.53    1.29
  -1   0  -9   12.76    1.37
   1   0   9   10.55    0.83
   1  -1  -9   16.35    1.67
  -1   1  -9   13.36    1.48
   1   1   9   15.63    1.03
  -1  -1   9   14.08    0.95
   1   1   9   14.44    0.88
  -1   1   9   15.20    1.11
   1   1  -9   14.75    1.45
   1  -1   9   15.24    1.05
  -1  -1  -9   16.70    1.83
   1   2   9    6.65    0.81
  -1  -2   9    6.98    0.81
  -1   2  -9    7.01    1.01
   1  -2  -9    7.06    1.18
  -1  -2  -9    7.10    1.25
   1   2  -9    6.97    1.11
   1  -2   9    6.81    0.84
  -1   2   9    8.60    0.92
  -1  -3   9    7.61    0.94
   1  -3  -9    9.72    1.23
  -1   3  -9    7.34    1.05
   1   3   9    7.27    0.92
  -1  -3  -9    8.84    1.12
   1  -3   9    7.12    0.92
   1   3  -9    8.38    1.16
  -1   3   9    8.45    1.02
   1   4  -9    2.96    0.86
  -2   0   9    4.37    0.75
  -2   0   9    4.39    0.53
   2   0   9    3.34    0.60
  -2   0  -9    3.15    0.91
   2   0  -9    5.44    1.00
   2   0   9    3.51    0.52
   2  -1  -9   61.89    3.12
  -2  -1   9   61.86    2.50
   2   1   9   60.30    2.47
   2   1   9   58.11    2.52
  -2   1  -9   62.51    3.09
  -2   1   9   64.06    2.75
  -2  -1  -9   57.97    3.36
   2   1  -9   57.53    2.98
   2  -1   9   61.53    2.62
   2   2   9    2.94    0.62
  -2   2  -9    2.04    0.70
  -2  -2   9    2.35    0.61
   2  -2  -9    4.31    0.94
  -2   2   9    2.08    0.65
   2  -2   9    2.93    0.65
   2   2  -9    2.17    0.85
  -2  -2  -9    1.87    0.88
   2  -3  -9   32.14    2.07
  -2   3  -9   29.79    1.86
   2   3   9   33.42    1.85
  -2  -3   9   32.79    1.79
   2  -3   9   32.41    1.85
   2   3  -9   32.33    2.07
  -2   3   9   30.83    1.86
   2   4  -9    1.50    0.85
   3   0  -9   24.99    1.75
   3   0   9   22.49    1.32
  -3   0   9   19.14    1.10
  -3   0   9   21.67    1.52
  -3   0  -9   23.90    1.71
  -3  -1   9    4.25    0.61
   3   1   9    3.72    0.61
   3  -1  -9    3.51    0.91
  -3   1  -9    4.91    0.97
   3  -1   9    4.86    0.74
  -3  -1  -9    2.73    1.04
   3   1  -9    3.87    0.87
  -3  -1  -9    5.60    0.66
  -3   1   9    4.01    0.78
   3  -2  -9   14.78    1.43
  -3  -2   9   16.10    1.11
  -3   2  -9   14.54    1.34
   3   2  -9   11.93    1.38
  -3   2   9   12.71    1.22
   3  -2   9   15.67    1.31
  -3  -3   9    1.90    0.67
   3  -3  -9    1.68    0.77
   3   3   9    1.92    0.68
  -3   3  -9    1.90    0.67
   3  -3   9    1.48    0.68
   3   3  -9    2.81    0.90
  -3   3   9    3.39    0.79
  -4   0   9   55.81    2.66
  -4   0  -9   60.89    2.95
   4   0   9   52.74    2.47
   4   0  -9   53.44    2.76
  -4   0  -9   54.02    2.29
  -4  -1   9    2.52    0.56
   4  -1  -9    3.54    0.86
   4   1   9    3.04    0.63
  -4   1  -9    3.88    0.94
  -4  -1  -9    1.65    0.51
  -4   1   9    2.71    0.75
   4  -1   9    2.85    0.70
   4   1  -9    4.17    0.90
   4   2   9   36.36    1.77
  -4  -2   9   36.60    1.86
  -4   2  -9   37.32    2.10
   4  -2  -9   39.05    2.19
   4   2  -9   37.90    2.17
  -4   2   9   35.70    2.05
  -4  -2  -9   37.44    1.90
   4  -2   9   38.16    2.05
   4  -3  -9    0.92    0.74
  -4   3  -9   -0.50    0.55
  -4  -3   9    1.77    0.67
   4  -3   9    0.91    0.76
  -4   3   9    0.09    0.63
   4   3  -9    0.83    0.76
  -5   0   9    0.77    0.75
   5   0  -9    1.79    0.68
   5   0   9    0.73    0.58
  -5  -1   9   22.48    1.69
   5  -1  -9   19.23    1.46
  -5   1  -9   20.49    1.61
   5   1   9   19.35    1.34
  -5   1   9   22.48    1.59
  -5  -1  -9   22.04    1.25
   5  -1   9   20.23    1.46
   5   1  -9   20.80    1.51
   5  -2  -9    0.94    0.67
   5   2   9    1.39    0.58
  -5  -2   9    0.99    0.58
  -5   2  -9    0.88    0.66
  -5  -2  -9    0.89    0.58
  -5   2   9    0.30    0.66
   5  -2   9    0.27    0.64
   5   2  -9    2.02    0.73
  -5   3  -9   10.57    1.16
  -5  -3   9   11.08    1.16
  -6   0   9    2.22    0.83
   6   0   9    2.01    0.74
   6   0  -9    2.50    0.70
   6   1   9   32.55    1.79
  -6  -1   9   34.41    2.19
   6  -1  -9   31.51    1.81
  -6  -1  -9   32.65    1.69
   6   1  -9   31.81    1.81
  -6   1   9   33.60    1.98
   6  -1   9   30.73    1.91
   6   2   9    1.58    0.65
  -6   2  -9    0.80    0.62
   6  -2  -9    0.84    0.66
  -6  -2  -9    1.50    0.61
  -6   2   9    1.07    0.76
   6  -2   9    0.35    0.68
   6   2  -9    1.72    0.63
   7   0   9   16.26    1.49
  -7   0   9   22.20    1.71
   7   1   9    0.38    0.63
   7  -1  -9   -0.24    0.52
  -7  -1   9   -1.19    0.70
  -7   1   9    0.70    0.73
   7  -1   9   -0.06    0.63
  -7  -1  -9   -0.27    0.45
   7  -2  -9   11.55    1.17
   7   2   9   11.99    1.15
   7   2  -9   14.44    1.19
  -8  -1   9    0.85    0.79
  -8  -1  -9    1.17    0.58
   0   0  10   41.08    1.86
   0   0 -10   46.84    2.56
   0   0  10   45.19    1.99
   0  -1  10  104.48    4.06
   0  -1 -10  117.12    5.03
   0   1 -10  101.23    4.65
   0   1  10  104.39    4.18
   0  -2 -10   25.84    2.13
   0   2  10   30.23    1.61
   0   2 -10   25.89    1.94
   0  -2  10   25.75    1.51
   0  -3 -10   50.05    3.00
   0   3  10   62.63    2.74
   0  -3  10   56.52    2.64
   0   3 -10   53.09    2.92
   1   0 -10    1.83    0.84
  -1   0 -10    3.45    0.87
   1   0  10    2.21    0.51
  -1   0  10    2.00    0.56
  -1   0  10    2.01    0.43
   1   1  10    1.98    0.53
   1  -1 -10    2.95    0.95
  -1   1 -10    2.25    0.81
   1   1  10    1.23    0.39
  -1  -1  10    0.99    0.44
   1   1 -10    1.95    0.78
  -1  -1 -10    2.20    1.08
  -1   1  10    1.38    0.58
   1  -1  10    1.54    0.50
   1  -2 -10    0.58    0.86
  -1   2 -10    2.59    0.77
  -1  -2  10    1.26    0.54
   1   2  10    0.21    0.53
  -1   2  10    2.79    0.66
   1   2 -10    0.89    0.82
   1  -2  10    1.87    0.61
  -1  -2 -10    0.68    0.92
  -1  -3  10    0.88    0.60
  -1   3 -10   -0.06    0.67
   1   3  10    1.05    0.65
   1  -3 -10    0.89    0.83
  -1  -3 -10    1.39    0.83
  -1   3  10    0.53    0.62
   1  -3  10    1.11    0.61
   1   3 -10    0.00    0.76
  -2   0  10  113.94    4.15
   2   0  10   99.28    4.22
  -2   0 -10  116.48    4.93
   2   0 -10  122.69    4.95
  -2   0  10  115.32    4.50
   2   1  10   34.99    1.60
   2   1  10   32.18    1.64
  -2   1 -10   32.96    2.17
   2  -1 -10   33.51    2.21
  -2  -1  10   36.15    1.66
  -2  -1 -10   31.48    2.40
   2   1 -10   30.60    2.02
   2  -1  10   29.88    1.70
  -2   1  10   37.95    1.84
  -2  -2  10   75.21    3.15
  -2   2 -10   81.49    3.67
   2  -2 -10   72.55    3.72
   2   2  10   75.68    3.22
   2   2 -10   76.54    3.72
  -2   2  10   76.23    3.31
   2  -2  10   73.62    3.23
  -2  -3  10   15.78    1.24
   2   3  10   17.00    1.29
   2  -3 -10   17.52    1.73
  -2   3 -10   13.51    1.40
   2   3 -10   13.17    1.56
  -2   3  10   14.92    1.35
   2  -3  10   16.37    1.27
   3   0  10    0.65    0.51
  -3   0 -10    0.33    0.69
   3   0 -10    0.19    0.74
  -3   0  10    1.40    0.72
   3   1  10    2.86    0.55
   3   1  10    2.96    0.59
  -3  -1  10    2.42    0.56
   3  -1 -10    1.55    0.84
  -3   1 -10    2.20    0.87
  -3   1  10    3.86    0.80
  -3  -1 -10    1.97    1.05
   3  -1  10    2.37    0.64
   3   1 -10    3.63    0.88
   3  -2 -10    1.81    0.82
  -3  -2  10    1.07    0.54
   3   2  10    0.59    0.52
  -3   2 -10    1.84    0.76
   3  -2  10    0.69    0.63
  -3   2  10    1.07    0.63
   3   2 -10    0.35    0.68
   3  -3 -10    1.65    0.88
   3   3  10    1.83    0.69
  -3  -3  10    1.56    0.68
  -3   3 -10    1.38    0.71
  -3   3  10    2.69    0.77
   3  -3  10    2.86    0.77
   3   3 -10    2.47    0.91
   4   0  10   30.67    1.74
  -4   0  10   32.96    1.91
  -4   0 -10   33.42    2.05
   4   0 -10   29.59    1.98
  -4  -1  10   78.18    3.13
   4  -1 -10   73.16    3.58
   4   1  10   77.48    3.23
  -4   1 -10   76.86    3.78
   4   1 -10   85.31    3.62
  -4   1  10   76.39    3.43
  -4  -1 -10   77.40    3.19
   4  -1  10   77.48    3.31
  -4  -2  10   18.95    1.27
   4  -2 -10   19.46    1.72
  -4   2 -10   18.72    1.66
  -4   2  10   19.17    1.45
   4  -2  10   18.87    1.44
  -4  -2 -10   18.12    1.25
   4   2 -10   17.80    1.47
  -4  -3  10   43.37    2.18
  -4   3 -10   39.85    2.31
   4   3 -10   39.96    2.36
   5   0 -10    3.07    0.84
   5   0  10    1.42    0.66
  -5   0  10    4.27    0.88
   5  -1 -10    0.35    0.68
   5   1  10   -0.14    0.57
  -5   1 -10    1.07    0.76
  -5  -1 -10    0.17    0.46
   5  -1  10    0.62    0.64
   5   1 -10    0.55    0.69
  -5   1  10    0.77    0.74
  -5  -2  10    1.11    0.62
   5  -2 -10    2.61    0.88
  -5   2 -10    2.49    0.82
  -5   2  10    1.63    0.79
   5   2 -10    1.54    0.78
  -5  -2 -10    3.36    0.71
   5  -2  10    2.98    0.78
  -6   0  10   59.61    2.99
   6   0 -10   58.35    2.79
   6   0  10   60.44    2.82
   6   1  10   16.06    1.25
   6  -1 -10   14.45    1.34
   6  -1  10   14.11    1.38
  -6   1  10   14.91    1.42
  -6  -1 -10   14.79    1.06
   6   1 -10   16.54    1.27
   6   2  10   40.12    2.08
   6  -2 -10   42.76    2.32
  -6  -2 -10   44.32    2.17
   6   2 -10   43.72    2.12
  -7   0  10    1.33    0.86
   7   0  10    0.13    0.66
   7   1  10    2.70    0.76
   7  -1 -10    1.86    0.72
   0   0 -11   67.29    3.25
   0   0  11   64.29    2.61
   0   1 -11    2.03    0.78
   0  -1 -11    3.19    1.08
   0   1  11    2.43    0.58
   0  -1  11    1.48    0.52
   0   2 -11   43.49    2.59
   0   2  11   43.11    2.10
   0  -2 -11   33.64    2.63
   0  -2  11   42.39    2.02
   0   3  11    1.04    0.65
   0   3 -11    1.84    0.91
   0  -3  11    0.82    0.62
   0  -3 -11    0.74    0.89
   1   0 -11    4.96    0.97
  -1   0 -11    5.90    1.06
  -1   0  11    5.66    0.61
   1   0  11    4.42    0.61
   1  -1 -11    2.94    1.00
  -1  -1  11    1.28    0.49
   1   1  11    2.53    0.60
  -1   1 -11    2.15    0.81
  -1  -1 -11    2.88    1.09
   1  -1  11    1.63    0.56
   1   1 -11    1.98    0.78
  -1   1  11    1.82    0.62
   1   2  11    3.27    0.69
  -1  -2  11    2.80    0.64
   1  -2 -11    2.54    1.07
  -1   2 -11    3.30    0.99
   1  -2  11    3.84    0.72
  -1  -2 -11    0.01    1.02
  -1   2  11    4.12    0.77
   1   2 -11    4.34    1.04
   1   3  11    2.30    0.71
  -1   3 -11   -0.16    0.76
  -1  -3  11    0.77    0.63
   1  -3 -11    1.19    1.00
   1  -3  11    0.86    0.63
   1   3 -11    0.24    0.92
  -1   3  11    1.79    0.73
  -1  -3 -11    2.01    0.95
   2   0 -11    1.73    0.86
  -2   0 -11    3.36    0.90
   2   0  11    1.71    0.53
   2  -1 -11   52.46    2.88
   2   1  11   51.46    2.34
  -2  -1  11   55.27    2.32
  -2   1 -11   50.72    2.84
  -2  -1 -11   59.35    3.27
  -2   1  11   52.84    2.48
   2   1 -11   52.41    2.77
   2  -1  11   53.08    2.40
  -2   2 -11    1.63    0.84
   2  -2 -11    2.17    0.97
   2   2  11    2.34    0.62
  -2  -2  11    1.55    0.57
   2  -2  11    0.80    0.60
  -2  -2 -11    0.55    0.94
   2   2 -11    0.28    0.74
  -2   2  11    1.66    0.66
   2  -3 -11   27.08    2.21
  -2  -3  11   28.14    1.70
   2   3  11   27.95    1.71
   2   3 -11   24.66    2.02
  -2   3  11   28.78    1.76
  -3   0 -11    0.27    0.68
   3   0  11    0.83    0.52
   3   0 -11    0.14    0.78
   3  -1 -11    8.98    1.26
  -3   1 -11    8.48    1.24
  -3  -1  11    8.30    0.81
   3   1  11    7.38    0.81
   3   1  11    7.08    0.79
  -3  -1 -11    9.04    1.54
  -3   1  11    7.26    0.96
   3  -1  11    7.21    0.90
   3   1 -11    6.49    1.09
   3  -2 -11    0.35    0.77
  -3  -2  11   -0.31    0.46
   3   2  11    0.12    0.51
  -3   2 -11    0.46    0.70
   3  -2  11    0.67    0.58
  -3   2  11    0.95    0.64
   3   2 -11    1.13    0.74
   3   3 -11    3.52    1.03
   4   0 -11   47.87    2.63
   4   0  11   46.82    2.30
  -4   0 -11   49.99    2.66
  -4   0  11   49.93    2.49
  -4   1 -11    3.08    0.88
  -4  -1  11    1.80    0.54
   4   1  11    1.56    0.59
   4  -1 -11    2.40    0.90
   4  -1  11    2.14    0.69
  -4   1  11    2.07    0.72
   4   1 -11    1.65    0.83
  -4   2 -11   38.62    2.33
  -4  -2  11   34.28    1.82
   4   2  11   37.34    1.88
   4  -2 -11   31.44    2.22
   4  -2  11   34.58    1.99
  -4   2  11   31.76    1.98
   4   2 -11   36.89    2.11
  -5   0  11    9.04    1.16
   5   0  11    7.24    0.98
   5   0 -11   11.31    1.23
  -5   1 -11   -0.29    0.65
   5   1  11    0.71    0.62
   5  -1 -11   -0.09    0.72
   5   1 -11   -0.15    0.69
   5  -1  11    0.42    0.64
  -5   1  11   -0.75    0.69
  -5  -2  11    6.14    0.89
  -5   2 -11    8.25    1.26
   5   2 -11    8.77    1.14
  -5   2  11    8.34    1.09
   6   0 -11    1.17    0.73
  -6   0  11    1.99    0.81
   6   0  11    0.82    0.67
   6  -1 -11   30.18    1.91
   6   1  11   29.55    1.75
  -6   1  11   28.70    1.90
   0   0 -12   79.81    3.78
   0  -1 -12    6.98    1.27
   0  -1  12    5.73    0.72
   0   1  12    5.66    0.78
   0   1 -12    5.99    1.04
   0  -2 -12   40.49    2.91
   0   2  12   45.65    2.20
   0  -2  12   44.66    2.12
   1   0  12    0.44    0.42
   1   0 -12    0.39    0.69
  -1   0 -12   -0.09    0.68
   1  -1 -12   -0.83    0.75
  -1   1 -12    0.31    0.66
  -1  -1  12    0.09    0.45
  -1   1  12   -0.16    0.54
  -1  -1 -12   -0.04    0.86
   1   1 -12    0.56    0.73
   1  -1  12    0.45    0.50
   1  -2 -12   -0.14    0.90
   1   2  12    0.60    0.57
  -1  -2  12    0.68    0.56
  -1   2 -12    0.90    0.82
   1  -2  12    0.35    0.57
  -1   2  12   -0.02    0.56
   1   2 -12    0.12    0.76
  -1  -2 -12    1.77    1.13
  -1  -3 -12   -0.15    0.94
  -2   0 -12    7.46    1.16
   2   0  12    5.57    0.73
   2   0 -12    4.48    1.04
  -2   1 -12   60.50    3.11
  -2  -1  12   56.53    2.51
   2  -1 -12   62.39    3.20
   2  -1  12   56.54    2.60
   2   1 -12   57.40    2.98
  -2   1  12   56.43    2.71
  -2  -1 -12   73.09    3.47
  -2  -2  12    3.13    0.69
   2   2  12    2.33    0.67
   2  -2 -12    3.18    1.13
  -2   2 -12    5.60    1.14
  -2  -2 -12    2.18    1.12
   2   2 -12    2.48    0.89
   2  -2  12    2.63    0.73
  -2   2  12    3.25    0.79
   3   0 -12    0.29    0.80
   3   0  12   -0.09    0.48
  -3   0 -12    0.71    0.74
  -3   1 -12    1.62    0.79
   3  -1 -12    1.38    0.90
  -3  -1 -12    3.51    1.09
  -3   1  12    1.84    0.67
   3   1 -12    1.09    0.79
   3  -1  12    0.94    0.60
   3  -2 -12   -0.34    0.78
   3   2  12   -0.53    0.47
  -3  -2  12   -0.58    0.50
  -3   2 -12    0.02    0.71
   3  -2  12    0.22    0.58
  -3   2  12    0.61    0.64
   3   2 -12   -0.22    0.73
   4   0 -12   59.14    2.96
  -4   0 -12   61.68    3.04
   4   0  12   49.47    2.46
   4  -1 -12    3.40    1.00
  -4   1 -12    4.03    1.00
  -4   1  12    4.42    0.89
   4   1 -12    3.25    0.98
   4  -1  12    3.00    0.76
   4   2  12   38.73    2.04
  -4  -2  12   40.22    1.99
   4   2 -12   40.82    2.43
   5   0  12    2.38    0.71
   5   0 -12    2.65    0.87
   5  -1 -12    0.02    0.76
   5   1  12    0.51    0.60
   5   1 -12    0.86    0.78
  -5   1  12    0.25    0.74
   5  -1  12    0.91    0.65
   6   0 -12    1.97    0.82
   0   0 -13    5.96    1.06
   0  -1 -13   89.74    4.15
   0  -1  13   81.71    3.36
   0   1 -13   84.11    3.95
   0  -2  13    3.53    0.72
   0   2  13    3.84    0.77
   0  -2 -13    3.90    1.21
  -1   0 -13    0.33    0.70
   1   0 -13   -1.17    0.63
  -1  -1  13    0.42    0.45
  -1   1 -13   -0.30    0.65
   1  -1 -13    0.12    0.80
   1  -1  13    0.42    0.51
  -1  -1 -13    0.44    0.86
   1   1 -13    0.11    0.67
   1   2  13    0.25    0.56
  -1  -2  13    0.12    0.52
   1  -2  13   -0.05    0.52
  -1   2  13    0.02    0.56
  -1  -2 -13   -0.30    0.97
   2   0 -13  103.08    4.63
  -2   0 -13   99.66    4.53
  -2   1 -13    5.59    1.04
   2  -1 -13    5.18    1.11
   2   1 -13    4.71    1.05
  -2  -1 -13    6.86    1.30
   2  -1  13    4.49    0.71
   2   2  13   65.48    2.92
  -2  -2  13   64.09    2.80
  -2  -2 -13   63.13    3.60
  -2   2  13   65.89    2.99
   3   0 -13    0.30    0.81
   3   0  13    0.32    0.53
  -3   0 -13   -0.31    0.72
   3  -1 -13    1.45    0.89
  -3   1 -13    1.28    0.75
   3  -1  13    1.27    0.61
   3   1 -13   -0.14    0.74
  -3  -1 -13   -0.45    0.89
  -3  -2  13   -0.08    0.52
   4   0 -13    4.67    1.02
   4   0  13    4.42    0.77
  -4   1 -13   65.79    3.32
   4   1 -13   65.74    3.28
   4  -1  13   66.22    2.98
   0   0 -14    1.28    0.81
  -1   0 -14    2.81    0.90
   1   0 -14    2.26    0.88
  -1  -1 -14    4.26    1.08
   1  -1  14    4.49    0.71
  -2   0 -14    8.49    1.20
   2  -1  14    0.23    0.54
  -2  -1 -14   -0.40    0.84
  -3   0 -14    6.86    1.12
   0   0   0    0.00    0.00
;
_shelx_hkl_checksum              18701
_olex2_submission_original_sample_id mar1202072
_olex2_submission_special_instructions 'No special instructions were received'
#END Tags that were not found in dictionaries
loop_
_space_group_symop_operation_xyz
'x, y, z'
'-x+1/2, -y, z'
'-x, y, -z'
'x+1/2, -y, -z'
'-x, -y, -z'
'x-1/2, y, -z'
'x, -y, z'
'-x-1/2, y, z'
loop_
_atom_site_label
_atom_site_type_symbol
_atom_site_fract_x
_atom_site_fract_y
_atom_site_fract_z
_atom_site_U_iso_or_equiv
_atom_site_adp_type
_atom_site_occupancy
_atom_site_site_symmetry_order
_atom_site_calc_flag
_atom_site_refinement_flags_posn
_atom_site_refinement_flags_adp
_atom_site_refinement_flags_occupancy
Y1 Y 0.49213(4) 0.5000 0.19895(3) 0.01192(11) Uani 1 2 d S T P
Y2 Y 0.2500 1.0000 0.45824(5) 0.01165(12) Uani 1 4 d S T P
Al1 Al 0.2500 1.0000 0.00680(15) 0.0170(3) Uani 1 4 d S T P
C1 C 0.4911(4) 0.5000 0.5655(4) 0.0129(6) Uani 1 2 d S T P
C2 C 0.2500 1.0000 0.2093(5) 0.0118(8) Uani 1 4 d S T P
loop_
_atom_site_aniso_label
_atom_site_aniso_U_11
_atom_site_aniso_U_22
_atom_site_aniso_U_33
_atom_site_aniso_U_23
_atom_site_aniso_U_13
_atom_site_aniso_U_12
Y1 0.01127(17) 0.01225(17) 0.01226(19) 0.000 0.00122(11) 0.000
Y2 0.0104(2) 0.01042(19) 0.0141(2) 0.000 0.000 0.000
Al1 0.0203(8) 0.0199(7) 0.0109(7) 0.000 0.000 0.000
C1 0.0109(14) 0.0123(14) 0.0154(18) 0.000 -0.0018(11) 0.000
C2 0.011(2) 0.0137(19) 0.010(2) 0.000 0.000 0.000
loop_
_atom_type_symbol
_atom_type_description
_atom_type_scat_dispersion_real
_atom_type_scat_dispersion_imag
_atom_type_scat_source
C C 0.0033 0.0016 'International Tables Vol C Tables 4.2.6.8 and 6.1.1.4'
Al Al 0.0645 0.0514 'International Tables Vol C Tables 4.2.6.8 and 6.1.1.4'
Y Y -2.7962 3.5667 'International Tables Vol C Tables 4.2.6.8 and 6.1.1.4'
loop_
_geom_angle_atom_site_label_1
_geom_angle_atom_site_label_2
_geom_angle_atom_site_label_3
_geom_angle
_geom_angle_site_symmetry_1
_geom_angle_site_symmetry_3
Y1 Y1 Y1 180.0 1_545 1_565
Y1 Y1 Y1 90.0 2_565 1_565
Y1 Y1 Y1 90.0 2_565 1_545
Y1 Y1 Y2 60.040(7) 1_565 .
Y1 Y1 Y2 119.959(7) 1_545 .
Y1 Y1 Y2 60.039(7) 1_545 1_545
Y1 Y1 Y2 119.960(6) 1_565 1_545
Y1 Y1 Y2 61.534(7) 2_565 .
Y1 Y1 Y2 61.534(7) 2_565 1_545
Y2 Y1 Y2 59.920(13) 1_545 .
Al1 Y1 Y1 123.708(13) 5_675 2_565
Al1 Y1 Y1 123.092(12) 5_675 1_545
Al1 Y1 Y1 124.843(14) . 1_545
Al1 Y1 Y1 56.909(13) 5_665 1_545
Al1 Y1 Y1 124.843(14) 1_545 1_565
Al1 Y1 Y1 123.708(14) 5_665 2_565
Al1 Y1 Y1 56.956(14) . 2_565
Al1 Y1 Y1 55.157(14) . 1_565
Al1 Y1 Y1 56.909(13) 5_675 1_565
Al1 Y1 Y1 55.157(14) 1_545 1_545
Al1 Y1 Y1 56.956(14) 1_545 2_565
Al1 Y1 Y1 123.092(12) 5_665 1_565
Al1 Y1 Y2 117.98(2) 1_545 .
Al1 Y1 Y2 117.98(2) . 1_545
Al1 Y1 Y2 172.42(2) 5_675 1_545
Al1 Y1 Y2 84.18(3) 1_545 1_545
Al1 Y1 Y2 116.484(17) 5_675 .
Al1 Y1 Y2 116.483(17) 5_665 1_545
Al1 Y1 Y2 84.18(3) . .
Al1 Y1 Y2 172.42(2) 5_665 .
Al1 Y1 Al1 66.777(11) 1_545 5_665
Al1 Y1 Al1 66.18(2) 5_665 5_675
Al1 Y1 Al1 66.778(11) . 5_675
Al1 Y1 Al1 103.271(14) . 5_665
Al1 Y1 Al1 103.271(14) 1_545 5_675
Al1 Y1 Al1 69.69(3) . 1_545
C1 Y1 Y1 90.0 5_666 1_545
C1 Y1 Y1 92.87(8) 5_666 2_565
C1 Y1 Y1 90.0 5_666 1_565
C1 Y1 Y2 45.68(6) 5_666 1_545
C1 Y1 Y2 45.68(6) 5_666 .
C1 Y1 Al1 126.80(6) 5_666 5_675
C1 Y1 Al1 129.79(6) 5_666 .
C1 Y1 Al1 126.80(6) 5_666 5_665
C1 Y1 Al1 129.79(6) 5_666 1_545
C1 Y1 C2 89.58(12) 5_666 .
C1 Y1 C2 89.58(12) 5_666 1_545
C2 Y1 Y1 46.384(9) . 2_565
C2 Y1 Y1 136.283(10) . 1_545
C2 Y1 Y1 43.717(10) 1_545 1_545
C2 Y1 Y1 43.717(10) . 1_565
C2 Y1 Y1 46.384(9) 1_545 2_565
C2 Y1 Y1 136.283(10) 1_545 1_565
C2 Y1 Y2 90.10(8) 1_545 .
C2 Y1 Y2 43.94(11) . .
C2 Y1 Y2 43.94(11) 1_545 1_545
C2 Y1 Y2 90.10(8) . 1_545
C2 Y1 Al1 93.59(7) . 1_545
C2 Y1 Al1 90.83(7) 1_545 5_665
C2 Y1 Al1 40.24(11) . .
C2 Y1 Al1 90.83(7) . 5_675
C2 Y1 Al1 93.59(7) 1_545 .
C2 Y1 Al1 143.49(11) . 5_665
C2 Y1 Al1 143.49(11) 1_545 5_675
C2 Y1 Al1 40.24(11) 1_545 1_545
C2 Y1 C2 92.566(19) 1_545 .
Y2 Y2 Y1 119.960(7) 1_565 2_565
Y2 Y2 Y1 60.039(7) 1_545 2_565
Y2 Y2 Y2 180.0 1_565 1_545
C1 Y2 Y1 108.61(7) 2_575 2_565
C1 Y2 Y1 41.06(8) 6_556 2_565
C1 Y2 Y1 69.83(7) 2_565 2_565
C1 Y2 Y1 128.32(8) 5_676 2_565
C1 Y2 Y1 86.68(7) 6_566 2_565
C1 Y2 Y1 104.92(5) . 2_565
C1 Y2 Y1 85.64(7) 5_666 2_565
C1 Y2 Y1 157.14(8) 1_565 2_565
C1 Y2 Y2 134.18(5) 5_676 1_545
C1 Y2 Y2 48.33(5) 2_565 1_545
C1 Y2 Y2 134.18(5) 5_666 1_565
C1 Y2 Y2 131.67(5) 2_565 1_565
C1 Y2 Y2 131.67(5) 2_575 1_545
C1 Y2 Y2 45.82(5) 6_566 1_565
C1 Y2 Y2 131.67(5) . 1_565
C1 Y2 Y2 134.18(5) 6_566 1_545
C1 Y2 Y2 45.82(5) 5_676 1_565
C1 Y2 Y2 48.33(5) . 1_545
C1 Y2 Y2 134.18(5) 6_556 1_565
C1 Y2 Y2 48.33(5) 2_575 1_565
C1 Y2 Y2 48.33(5) 1_565 1_565
C1 Y2 Y2 45.82(5) 6_556 1_545
C1 Y2 Y2 131.67(5) 1_565 1_545
C1 Y2 Y2 45.82(5) 5_666 1_545
C1 Y2 C1 83.33(9) 1_565 .
C1 Y2 C1 161.72(4) 5_676 2_565
C1 Y2 C1 88.36(10) 6_556 6_566
C1 Y2 C1 88.36(10) 5_676 5_666
C1 Y2 C1 28.87(15) 5_676 1_565
C1 Y2 C1 91.31(4) 5_666 2_565
C1 Y2 C1 92.92(4) 6_566 2_565
C1 Y2 C1 28.87(15) 5_666 .
C1 Y2 C1 28.87(15) 6_556 2_565
C1 Y2 C1 92.92(4) 5_676 .
C1 Y2 C1 90.66(10) 6_556 5_666
C1 Y2 C1 161.72(4) 6_556 1_565
C1 Y2 C1 169.37(16) 6_556 5_676
C1 Y2 C1 133.03(15) 2_575 .
C1 Y2 C1 78.37(12) 1_565 2_575
C1 Y2 C1 161.72(4) 5_666 2_575
C1 Y2 C1 28.87(15) 6_566 2_575
C1 Y2 C1 161.72(4) 6_566 .
C1 Y2 C1 91.31(4) 6_556 .
C1 Y2 C1 83.33(9) 2_565 2_575
C1 Y2 C1 133.03(15) 1_565 2_565
C1 Y2 C1 92.92(4) 5_666 1_565
C1 Y2 C1 92.92(4) 6_556 2_575
C1 Y2 C1 91.31(4) 5_676 2_575
C1 Y2 C1 90.66(10) 5_676 6_566
C1 Y2 C1 91.31(4) 6_566 1_565
C1 Y2 C1 169.37(16) 6_566 5_666
C1 Y2 C1 78.37(12) 2_565 .
C2 Y2 Y1 43.657(9) . 2_565
C2 Y2 Y2 90.0 . 1_545
C2 Y2 Y2 90.0 . 1_565
C2 Y2 C1 113.49(7) . 2_565
C2 Y2 C1 113.49(7) . 2_575
C2 Y2 C1 113.49(7) . 1_565
C2 Y2 C1 84.69(8) . 6_556
C2 Y2 C1 84.69(8) . 6_566
C2 Y2 C1 84.69(8) . 5_676
C2 Y2 C1 113.49(7) . .
C2 Y2 C1 84.69(8) . 5_666
Y1 Al1 Y1 113.223(11) 1_565 5_665
Y1 Al1 Y1 102.25(4) 6_565 5_665
Y1 Al1 Y1 178.24(3) 2_565 5_675
Y1 Al1 Y1 104.33(5) 1_565 2_565
Y1 Al1 Y1 178.24(3) 1_565 6
Y1 Al1 Y1 113.222(11) . 5_675
Y1 Al1 Y1 104.33(5) 2_575 .
Y1 Al1 Y1 66.18(2) 5_665 5_675
Y1 Al1 Y1 67.42(3) 6_565 5_675
Y1 Al1 Y1 66.09(3) 1_565 2_575
Y1 Al1 Y1 113.223(11) 2_575 6
Y1 Al1 Y1 113.223(11) 2_565 6_565
Y1 Al1 Y1 76.730(14) 1_565 5_675
Y1 Al1 Y1 178.24(3) . 6_565
Y1 Al1 Y1 67.42(3) 6 5_665
Y1 Al1 Y1 66.18(2) 6 6_565
Y1 Al1 Y1 76.730(14) 2_565 6
Y1 Al1 Y1 76.730(14) 2_575 6_565
Y1 Al1 Y1 178.24(3) 2_575 5_665
Y1 Al1 Y1 112.066(12) . 6
Y1 Al1 Y1 112.066(12) 2_565 5_665
Y1 Al1 Y1 112.066(12) 2_575 5_675
Y1 Al1 Y1 69.69(3) 2_575 2_565
Y1 Al1 Y1 112.066(12) 1_565 6_565
Y1 Al1 Y1 69.69(3) 1_565 .
Y1 Al1 Y1 76.729(14) . 5_665
Y1 Al1 Y1 102.25(4) 6 5_675
Y1 Al1 Y1 66.09(3) 2_565 .
C2 Al1 Y1 52.16(2) . 2_565
C2 Al1 Y1 128.88(2) . 6
C2 Al1 Y1 52.17(2) . .
C2 Al1 Y1 128.88(2) . 5_665
C2 Al1 Y1 52.16(2) . 2_575
C2 Al1 Y1 128.88(2) . 6_565
C2 Al1 Y1 128.88(2) . 5_675
C2 Al1 Y1 52.16(2) . 1_565
Y1 C1 Y2 93.26(10) 5_666 5_676
Y1 C1 Y2 93.26(10) 5_666 5_666
Y1 C1 Y2 115.45(10) 5_666 1_545
Y1 C1 Y2 115.45(10) 5_666 .
Y2 C1 Y2 151.13(15) 5_666 .
Y2 C1 Y2 88.36(10) 5_676 5_666
Y2 C1 Y2 151.13(15) 5_676 1_545
Y2 C1 Y2 87.08(4) 5_676 .
Y2 C1 Y2 87.08(4) 5_666 1_545
Y2 C1 Y2 83.33(9) . 1_545
C1 C1 Y1 171.7(3) 5_666 5_666
C1 C1 Y2 70.33(19) 5_666 .
C1 C1 Y2 80.8(2) 5_666 5_666
C1 C1 Y2 70.33(19) 5_666 1_545
C1 C1 Y2 80.8(2) 5_666 5_676
Y1 C2 Y1 87.232(19) 2_565 .
Y1 C2 Y1 175.2(2) 2_575 .
Y1 C2 Y1 92.567(19) 2_565 2_575
Y1 C2 Y1 87.231(19) 1_565 2_575
Y1 C2 Y1 92.566(19) 1_565 .
Y1 C2 Y1 175.2(2) 2_565 1_565
Y1 C2 Y2 92.41(11) 2_565 .
Y1 C2 Y2 92.41(11) . .
Y1 C2 Y2 92.41(11) 2_575 .
Y1 C2 Y2 92.41(11) 1_565 .
Al1 C2 Y1 87.59(11) . .
Al1 C2 Y1 87.59(11) . 2_565
Al1 C2 Y1 87.59(11) . 2_575
Al1 C2 Y1 87.59(11) . 1_565
Al1 C2 Y2 180.0 . .
loop_
_geom_bond_atom_site_label_1
_geom_bond_atom_site_label_2
_geom_bond_distance
_geom_bond_site_symmetry_2
Y1 Y1 3.4022(8) 2_565
Y1 Y1 3.5647(6) 1_545
Y1 Y1 3.5647(6) 1_565
Y1 Y2 3.5690(6) .
Y1 Y2 3.5690(6) 1_545
Y1 Al1 3.2645(10) 5_665
Y1 Al1 3.1197(10) 1_545
Y1 Al1 3.2645(10) 5_675
Y1 Al1 3.1197(10) .
Y1 C1 2.348(4) 5_666
Y1 C2 2.4660(4) 1_545
Y1 C2 2.4660(4) .
Y2 Y1 3.5690(6) 2_565
Y2 Y2 3.5647(6) 1_565
Y2 Y2 3.5647(6) 1_545
Y2 C1 2.557(2) 5_676
Y2 C1 2.557(2) 5_666
Y2 C1 2.681(2) 2_565
Y2 C1 2.681(2) 1_565
Y2 C1 2.557(2) 6_556
Y2 C1 2.557(2) 6_566
Y2 C1 2.681(2) .
Y2 C1 2.681(2) 2_575
Y2 C2 2.479(5) .
Al1 Y1 3.1197(10) 1_565
Al1 Y1 3.1197(10) 2_565
Al1 Y1 3.2646(10) 5_675
Al1 Y1 3.2646(10) 6_565
Al1 Y1 3.1197(10) 2_575
Al1 Y1 3.2646(10) 5_665
Al1 Y1 3.2646(10) 6
Al1 C2 2.017(5) .
C1 Y1 2.348(4) 5_666
C1 Y2 2.681(2) 1_545
C1 Y2 2.557(2) 5_666
C1 Y2 2.557(2) 5_676
C1 C1 1.311(7) 5_666
C2 Y1 2.4660(4) 2_565
C2 Y1 2.4660(4) 2_575
C2 Y1 2.4660(4) 1_565
