#------------------------------------------------------------------------------
#$Date: 2016-03-23 23:50:39 +0200 (Wed, 23 Mar 2016) $
#$Revision: 179515 $
#$URL: svn://www.crystallography.net/cod/cif/4/34/12/4341280.cif $
#------------------------------------------------------------------------------
#
# This file is available in the Crystallography Open Database (COD),
# http://www.crystallography.net/
#
# All data on this site have been placed in the public domain by the
# contributors.
#
data_4341280
loop_
_publ_author_name
'Prakash, Jai'
'Tarasenko, Mariya S.'
'Mesbah, Adel'
'Leb\`egue, S\'ebastien'
'Malliakas, Christos D.'
'Ibers, James A.'
_publ_section_title
;
 Syntheses, Crystal Structures, Transport Properties, and Theoretical
 Studies of Five Members of the MAn2Q5 Family: SrU2S5, BaU2Se5, PbU2S5,
 BaTh2S5, and BaU2Te5.
;
_journal_issue                   21
_journal_name_full               'Inorganic chemistry'
_journal_page_first              11626
_journal_page_last               11632
_journal_paper_doi               10.1021/ic501795w
_journal_volume                  53
_journal_year                    2014
_chemical_formula_moiety         'Ba Se5 U2'
_chemical_formula_sum            'Ba Se5 U2'
_chemical_formula_weight         1008.20
_chemical_name_common            'barium diuranium selenide'
_chemical_name_systematic
;
 ?
;
_space_group_crystal_system      monoclinic
_space_group_IT_number           14
_space_group_name_Hall           '-P 2ybc'
_space_group_name_H-M_alt        'P 1 21/c 1'
_symmetry_space_group_name_Hall  '-P 2ybc'
_symmetry_space_group_name_H-M   'P 1 21/c 1'
_cell_angle_alpha                90
_cell_angle_beta                 90.5270(10)
_cell_angle_gamma                90
_cell_formula_units_Z            4
_cell_length_a                   8.76060(10)
_cell_length_b                   7.83160(10)
_cell_length_c                   12.2399(2)
_cell_measurement_reflns_used    9878
_cell_measurement_temperature    100(2)
_cell_measurement_theta_max      36.29
_cell_measurement_theta_min      2.32
_cell_volume                     839.74(2)
_computing_cell_refinement       'Bruker SAINT'
_computing_data_collection       'Bruker APEX2'
_computing_data_reduction        'Bruker SAINT'
_computing_molecular_graphics    'Bruker SHELXTL'
_computing_publication_material  'Bruker SHELXTL'
_computing_structure_refinement  'SHELXL-2014 (Sheldrick, 2014)'
_computing_structure_solution    'SHELXL-97 (Sheldrick, 2008a)'
_diffrn_ambient_temperature      100(2)
_diffrn_measured_fraction_theta_full 1.000
_diffrn_measured_fraction_theta_max 0.957
_diffrn_measurement_device_type  'Bruker APEX-II CCD'
_diffrn_measurement_method       '\f and \w scans'
_diffrn_radiation_type           MoK\a
_diffrn_radiation_wavelength     0.71073
_diffrn_reflns_av_R_equivalents  0.0516
_diffrn_reflns_av_unetI/netI     0.0318
_diffrn_reflns_Laue_measured_fraction_full 1.000
_diffrn_reflns_Laue_measured_fraction_max 0.957
_diffrn_reflns_limit_h_max       14
_diffrn_reflns_limit_h_min       -14
_diffrn_reflns_limit_k_max       12
_diffrn_reflns_limit_k_min       -11
_diffrn_reflns_limit_l_max       20
_diffrn_reflns_limit_l_min       -20
_diffrn_reflns_number            23641
_diffrn_reflns_point_group_measured_fraction_full 1.000
_diffrn_reflns_point_group_measured_fraction_max 0.957
_diffrn_reflns_theta_full        25.242
_diffrn_reflns_theta_max         36.472
_diffrn_reflns_theta_min         2.325
_diffrn_source                   'fine-focus sealed tube'
_exptl_absorpt_coefficient_mu    64.687
_exptl_absorpt_correction_T_max  0.1102
_exptl_absorpt_correction_T_min  0.0330
_exptl_absorpt_correction_type   numerical
_exptl_absorpt_process_details   'face indexed (SADABS; Sheldrick, 2008'
_exptl_crystal_colour            Black
_exptl_crystal_density_diffrn    7.975
_exptl_crystal_density_meas      ?
_exptl_crystal_description       Plate
_exptl_crystal_F_000             1640
_exptl_crystal_size_max          0.166
_exptl_crystal_size_mid          0.100
_exptl_crystal_size_min          0.061
_refine_diff_density_max         3.962
_refine_diff_density_min         -2.683
_refine_diff_density_rms         0.592
_refine_ls_extinction_coef       0.00145(8)
_refine_ls_extinction_expression Fc^*^=kFc[1+0.001xFc^2^\l^3^/sin(2\q)]^-1/4^
_refine_ls_extinction_method     SHELXL
_refine_ls_goodness_of_fit_ref   1.486
_refine_ls_hydrogen_treatment    undef
_refine_ls_matrix_type           full
_refine_ls_number_parameters     74
_refine_ls_number_reflns         3946
_refine_ls_number_restraints     0
_refine_ls_restrained_S_all      1.486
_refine_ls_R_factor_all          0.0262
_refine_ls_R_factor_gt           0.0250
_refine_ls_shift/su_max          0.001
_refine_ls_shift/su_mean         0.000
_refine_ls_structure_factor_coef Fsqd
_refine_ls_weighting_details
'w=1/[\s^2^(Fo^2^)+(0.0204P)^2^] where P=(1.0000Fo^2^+0.0000Fc^2^)'
_refine_ls_weighting_scheme      calc
_refine_ls_wR_factor_gt          0.0627
_refine_ls_wR_factor_ref         0.0630
_reflns_Friedel_coverage         0.000
_reflns_number_gt                3835
_reflns_number_total             3946
_reflns_threshold_expression     'I > 2\s(I)'
_cod_data_source_file            ic501795w_si_001.cif
_cod_data_source_block           BaU2Se5
_cod_depositor_comments
;Adding full bibliography for 4341279--4341283.cif.

The following automatic conversions were performed:

'_exptl_crystal_density_meas' value 'not measured' was changed to '?'
- the value is perceived as not measured.

Automatic conversion script
Id: cif_fix_values 3008 2015-01-20 13:52:24Z robertas 
;
_cod_database_code               4341280
#BEGIN Tags that were not found in dictionaries:
_shelx_space_group_comment
;
The symmetry employed for this shelxl refinement is uniquely defined
by the following loop, which should always be used as a source of
symmetry information in preference to the above space-group names.
They are only intended as comments.
;
_shelxl_version_number           2014-1
_shelx_res_file
;
TITL BaU2Se5 in P2(1)/c after absorption correction and structure tidy
CELL 0.71073   8.7606   7.8316  12.2399  90.000  90.527  90.000
ZERR    4.00   0.0001   0.0001   0.0002   0.000   0.001   0.000
LATT  1
SYMM -X, 0.5+Y, 0.5-Z
SFAC SE BA U
UNIT 20 4 8
TEMP -173.150
SIZE 0.061 0.10 0.166

L.S. 4
BOND
FMAP 2
ACTA
PLAN 20

WGHT    0.020400    0.000000    0.000000    0.000000    0.000000    1.000000
EXTI    0.001455
FVAR       0.10353
U1    3    0.003667    0.026217    0.319240    11.00000    0.00158    0.00505 =
         0.00473   -0.00013   -0.00015   -0.00013
U2    3    0.246482    0.071912    0.009423    11.00000    0.00156    0.00523 =
         0.00518    0.00051    0.00005   -0.00009
BA1   2    0.507875    0.054825    0.331213    11.00000    0.00209    0.00559 =
         0.00646    0.00053    0.00018    0.00033
SE1   1    0.043950    0.664310    0.401856    11.00000    0.00204    0.00525 =
         0.00535    0.00031    0.00005    0.00003
SE2   1    0.209530    0.454046    0.001309    11.00000    0.00262    0.00549 =
         0.00451   -0.00004    0.00028    0.00013
SE3   1    0.217776    0.836441    0.188443    11.00000    0.00305    0.00553 =
         0.00567    0.00054    0.00083    0.00049
SE4   1    0.227063    0.311949    0.282743    11.00000    0.00243    0.00523 =
         0.00540    0.00020   -0.00017    0.00017
SE5   1    0.539657    0.180333    0.072497    11.00000    0.00234    0.00624 =
         0.00793   -0.00160   -0.00040    0.00028
HKLF 4

REM  BaU2Se5 in P2(1)/c
REM R1 =  0.0250 for    3835 Fo > 4sig(Fo)  and  0.0262 for all    3946 data
REM     74 parameters refined using      0 restraints

END

WGHT      0.0203      5.5216

REM Highest difference peak  3.962,  deepest hole -2.683,  1-sigma level  0.592
Q1    1   0.1600  0.0725  0.0033  11.00000  0.05    3.96
Q2    1  -0.0796  0.0268  0.3140  11.00000  0.05    3.82
Q3    1   0.3333  0.0703  0.0170  11.00000  0.05    3.74
Q4    1   0.4247  0.0598  0.3246  11.00000  0.05    3.73
Q5    1   0.0856  0.0260  0.3252  11.00000  0.05    3.66
Q6    1   0.5020 -0.0179  0.3263  11.00000  0.05    3.23
Q7    1   0.5929  0.0587  0.3406  11.00000  0.05    3.09
Q8    1   0.2593  0.0040  0.0251  11.00000  0.05    2.95
Q9    1   0.0025 -0.0550  0.3119  11.00000  0.05    2.93
Q10   1   0.2395 -0.0004  0.0000  11.00000  0.05    2.91
Q11   1   0.5027  0.1173  0.3199  11.00000  0.05    2.77
Q12   1   0.2522  0.0394 -0.0310  11.00000  0.05    2.75
Q13   1   0.0097  0.0973  0.3400  11.00000  0.05    2.70
Q14   1   0.0031 -0.0175  0.3536  11.00000  0.05    2.40
Q15   1   0.0006  0.0758  0.2918  11.00000  0.05    2.31
Q16   1   0.2998  0.8538  0.2044  11.00000  0.05    2.26
Q17   1   0.4530  0.1844  0.0677  11.00000  0.05    2.25
Q18   1   0.2531 -0.0964  0.0250  11.00000  0.05    2.24
Q19   1   0.5180  0.0457  0.2958  11.00000  0.05    2.23
Q20   1   0.5117  0.1009  0.3672  11.00000  0.05    2.01
;
_shelx_res_checksum              22735
_shelx_hkl_file
;
   1   0   0 200.968  12.457   5
  -2   0   0 50.0025  5.0658   6
   2   0   0 53.8997  5.0295   6
   2   0   0 51.7034  5.8381   3
   2   0   0 53.8374  4.5850   4
   3   0   0 159.234  10.586   6
   3   0   0 135.173   9.432   5
  -3   0   0 156.457   9.736   2
  -3   0   0 157.768  10.616   6
  -3   0   0 143.522   9.609   4
   3   0   0 140.438   9.615   4
   3   0   0 153.757   9.790   2
   3   0   0 141.412  12.219   3
  -4   0   0 9999.99  553.86   2
   4   0   0 8623.33  697.21   3
  -4   0   0 8832.95  550.94   4
   4   0   0 9328.48  600.23   6
  -4   0   0 9878.77  599.87   6
   4   0   0 8290.77  550.27   4
   4   0   0 7831.64  553.03   2
  -5   0   0 1361.97   78.36   2
   5   0   0 1201.44   84.87   6
   5   0   0 1264.00   98.65   3
   5   0   0 1362.48   78.38   2
   5   0   0 1192.04   77.86   4
  -5   0   0 1382.96   84.94   6
  -5   0   0 1065.12   77.79   4
   6   0   0 26.0704  2.9906   6
   6   0   0 28.5996  3.4763   3
  -6   0   0 26.3593  2.6066   4
  -6   0   0 25.5834  2.9437   6
  -6   0   0 23.5963  2.6883   2
   6   0   0 28.7818  2.7999   2
   7   0   0 372.196  26.275   4
  -7   0   0 409.692  26.440   2
   7   0   0 442.042  28.801   6
  -7   0   0 421.501  26.319   4
  -7   0   0 459.676  28.794   6
   7   0   0 376.497  33.279   3
   7   0   0 442.721  26.532   2
   8   0   0 1987.96  117.65   2
   8   0   0 1752.80  116.98   4
  -8   0   0 2007.71  117.63   2
   8   0   0 1808.28  127.45   6
   8   0   0 1795.48  148.09   3
  -8   0   0 2028.37  127.49   6
   9   0   0 855.400  53.061   2
   9   0   0 924.131  57.615   6
  -9   0   0 788.044  57.448   6
  -9   0   0 793.249  52.986   2
   9   0   0 879.690  66.870   3
  10   0   0 32.3503  4.2915   3
 -10   0   0 37.0881  3.6199   2
  10   0   0 36.7152  3.9173   6
 -10   0   0 34.6192  3.7309   6
  11   0   0 89.0965  7.3171   6
 -11   0   0 91.5639  7.3092   6
  12   0   0 281.748  19.326   6
 -12   0   0 259.845  19.113   6
  13   0   0 288.351  19.735   6
 -13   0   0 265.183  19.547   6
 -14   0   0 68.3009  6.3305   6
  14   0   0 77.6866  6.5064   6
   0  -1   0 -0.0823  0.3542   5
   0  -1   0 1.12198 0.28918   4
   1  -1   0 135.390   8.476   5
   1  -1   0 151.970   8.448   4
  -1  -1   0 121.022   8.477   4
  -2  -1   0 8.30593 1.66995   6
   2  -1   0 5.06402 0.80090   4
   2  -1   0 5.19362 0.88986   6
   2  -1   0 6.23268 0.92197   5
  -2  -1   0 4.14614 1.07745   4
  -2   1   0 5.02651 1.12324   6
  -2   1   0 4.79908 0.80253   2
   2   1   0 6.27275 0.87295   4
   2   1   0 6.48748 0.99250   6
   2   1   0 4.77254 1.21784   2
  -2   1   0 6.08935 1.14431   4
   3  -1   0 840.023  49.717   5
  -3  -1   0 827.206  54.548   6
   3  -1   0 819.330  54.213   6
   3  -1   0 888.425  63.202   3
   3  -1   0 876.004  49.844   4
   3   1   0 734.856  49.812   4
  -3   1   0 835.550  50.076   2
  -3   1   0 679.072  49.896   4
   3   1   0 843.188  54.337   6
   3   1   0 723.143  50.180   2
  -4  -1   0 1.21535 1.26603   4
  -4  -1   0 2.84042 1.66430   6
   4  -1   0 -0.1002  1.1453   4
   4  -1   0 2.56001 1.21806   5
  -4  -1   0 0.95774 1.27480   2
   4  -1   0 -0.1289  1.5613   3
   4  -1   0 -1.7116  1.1659   6
   4  -1   0 1.81931 1.49269   2
  -4   1   0 0.98331 1.27974   4
   4   1   0 0.05467 1.43215   6
   4   1   0 2.03109 1.14532   4
  -4   1   0 8.28932 1.48205   2
   4   1   0 -0.9977  1.3527   3
  -4   1   0 4.30494 1.47707   6
   5  -1   0 13.3171  1.8538   5
  -5  -1   0 15.6840  2.2269   6
  -5  -1   0 12.5859  1.9037   2
   5  -1   0 11.1921  2.3330   3
   5  -1   0 8.73205 1.78912   4
  -5  -1   0 20.2319  2.0693   4
   5  -1   0 9.60372 1.94134   6
   5  -1   0 15.2213  2.0566   2
  -5   1   0 12.1209  1.9161   2
  -5   1   0 12.9055  1.8045   4
   5   1   0 12.9760  2.1591   6
  -5   1   0 12.4497  2.0387   6
   5   1   0 13.8268  1.9831   2
   5   1   0 11.7185  1.7809   4
   5   1   0 7.57504 2.02186   3
  -6  -1   0 29.2344  3.1603   2
   6  -1   0 26.6042  2.8683   5
   6  -1   0 27.3933  3.2567   6
   6  -1   0 26.5702  3.8538   3
  -6  -1   0 34.0088  3.2997   6
   6  -1   0 36.2362  3.1013   4
  -6  -1   0 26.7346  2.9464   4
   6  -1   0 33.5202  3.0867   2
   6   1   0 29.7348  3.6867   3
   6   1   0 39.7675  3.5129   6
  -6   1   0 33.4647  3.3181   6
   6   1   0 26.0555  2.9184   4
   6   1   0 35.4224  3.1596   2
  -6   1   0 27.6306  2.8480   4
  -6   1   0 29.1539  3.0297   2
  -7  -1   0 764.950  46.084   2
   7  -1   0 610.697  57.843   3
   7  -1   0 714.160  45.515   5
   7  -1   0 677.210  45.713   4
  -7  -1   0 813.567  49.895   6
   7  -1   0 754.818  46.001   2
   7  -1   0 653.471  49.851   6
  -7  -1   0 736.165  45.788   4
   7   1   0 811.809  46.094   2
  -7   1   0 732.917  45.990   2
  -7   1   0 842.312  49.993   6
   7   1   0 734.099  49.882   6
   7   1   0 699.637  45.778   4
   8  -1   0 2.34327 1.84158   6
  -8  -1   0 2.28022 1.60496   6
   8  -1   0 1.68922 1.53942   4
  -8  -1   0 5.73707 1.87065   2
   8  -1   0 0.77194 1.43181   2
   8  -1   0 3.50761 2.15792   3
  -8  -1   0 0.93135 1.42729   4
  -8   1   0 3.24704 1.52744   2
   8   1   0 0.98719 1.47178   2
  -8   1   0 4.05692 1.78162   6
   8   1   0 1.30085 1.62783   6
  -9  -1   0 1.43555 1.68520   2
   9  -1   0 2.86286 1.96418   6
   9  -1   0 1.44813 2.15030   3
  -9  -1   0 1.09930 1.60896   6
   9   1   0 6.05153 1.73823   2
   9   1   0 0.81378 1.66464   6
  -9   1   0 3.33688 1.95795   6
  -9   1   0 -0.3405  1.4470   2
 -10  -1   0 56.6312  5.0947   6
  10  -1   0 65.9418  5.4732   6
  10  -1   0 54.3516  6.0008   3
 -10   1   0 60.3007  4.8184   2
  10   1   0 55.6944  5.2358   6
 -10   1   0 56.4184  5.1794   6
  10   1   0 60.0666  4.9224   2
 -11  -1   0 143.786  10.825   6
  11  -1   0 157.494  11.104   6
  11  -1   0 143.850  12.724   3
 -11   1   0 134.212  10.010   2
 -11   1   0 146.336  10.928   6
  11   1   0 151.497  10.927   6
 -12  -1   0 0.54300 1.94514   6
  12  -1   0 4.16004 2.57459   3
  12  -1   0 1.48922 2.05326   6
 -12   1   0 2.85225 2.05944   6
  12   1   0 2.37379 1.94251   6
 -13  -1   0 58.1590  5.6101   6
  13  -1   0 67.1970  5.7537   6
 -13   1   0 62.0289  5.7582   6
  13   1   0 66.4134  5.8592   6
  14  -1   0 50.7835  5.1236   6
 -14  -1   0 47.6800  4.9312   6
  14   1   0 50.9498  5.1216   6
 -14   1   0 49.6684  4.9359   6
   0  -2   0 1852.13  110.25   4
   0  -2   0 1721.63  110.10   5
   0   2   0 1807.96  110.78   2
  -1  -2   0 247.664  15.013   4
   1  -2   0 258.926  14.981   4
   1  -2   0 206.590  15.024   5
  -1  -2   0 257.065  15.015   5
  -1   2   0 246.660  15.055   2
  -1   2   0 239.497  15.052   2
   1   2   0 239.166  15.092   2
   2  -2   0 298.492  16.933   5
  -2  -2   0 257.330  16.923   4
   2  -2   0 266.701  16.844   4
  -2  -2   0 264.372  18.584   6
   2  -2   0 298.985  18.334   6
   2   2   0 242.399  17.017   2
  -2   2   0 254.514  18.391   6
  -2   2   0 268.952  16.919   2
   2   2   0 299.969  18.362   6
   3  -2   0 148.733   8.869   4
   3  -2   0 158.399   9.638   6
   3  -2   0 139.908   8.946   5
  -3  -2   0 126.167   9.022   4
  -3  -2   0 153.886  10.167   6
   3   2   0 152.336   9.690   6
   3   2   0 121.374   9.085   2
  -3   2   0 126.902   9.757   6
   3   2   0 139.811   8.851   4
  -3   2   0 131.046   9.065   4
  -3   2   0 137.571   8.893   2
   4  -2   0 1515.27   87.25   2
  -4  -2   0 1248.63   86.65   4
   4  -2   0 1453.50   86.39   5
  -4  -2   0 1367.98   94.53   6
   4  -2   0 1535.34   86.55   4
  -4  -2   0 1558.55   86.97   2
  -4   2   0 1508.43   86.97   2
   4   2   0 1508.94   94.30   6
  -4   2   0 1310.27   86.68   4
   4   2   0 1261.54   87.12   2
   4   2   0 1225.05   86.46   4
  -4   2   0 1368.02   94.35   6
   5  -2   0 161.623  10.327   4
   5  -2   0 170.922  10.325   5
   5  -2   0 159.748  11.155   6
  -5  -2   0 184.928  11.568   6
  -5  -2   0 144.950  10.310   2
   5  -2   0 154.623  13.194   3
  -5   2   0 157.475  10.351   2
   5   2   0 132.953  10.179   4
   5   2   0 152.273  11.293   6
  -5   2   0 167.347  10.426   4
  -5   2   0 147.511  11.326   6
   5   2   0 163.236  10.561   2
  -6  -2   0 518.716  29.654   4
   6  -2   0 456.064  32.057   6
   6  -2   0 455.335  29.546   4
   6  -2   0 519.101  29.740   2
   6  -2   0 418.749  37.385   3
   6  -2   0 495.806  29.465   5
   6   2   0 396.680  29.359   4
  -6   2   0 480.467  32.241   6
   6   2   0 556.316  29.873   2
   6   2   0 455.385  32.220   6
  -6   2   0 416.799  29.613   2
   7  -2   0 93.0113  9.5298   3
   7  -2   0 85.1022  7.9987   6
  -7  -2   0 123.724   8.109   6
  -7  -2   0 123.069   7.595   4
   7  -2   0 102.692   7.472   5
   7  -2   0 128.476   7.582   2
   7  -2   0 100.382   7.532   4
  -7  -2   0 91.2737  7.5506   2
   7   2   0 97.8859  8.1889   6
  -7   2   0 130.000   8.404   6
  -7   2   0 88.8296  7.4761   2
   7   2   0 115.874   7.588   2
  -8  -2   0 1453.61   98.83   6
   8  -2   0 1364.73   98.99   6
  -8  -2   0 1693.97   91.62   2
   8  -2   0 1421.94   90.62   5
   8  -2   0 1378.28  115.12   3
   8  -2   0 1364.00   90.89   4
  -8  -2   0 1577.76   90.96   4
   8   2   0 1263.56   98.88   6
  -8   2   0 1691.45   99.17   6
   8   2   0 1548.33   91.38   2
  -8   2   0 1406.91   91.35   2
  -9  -2   0 64.1777  5.3384   6
   9  -2   0 65.1281  5.0728   5
   9  -2   0 55.9255  6.5513   3
   9  -2   0 68.4227  5.8641   6
   9  -2   0 62.0835  5.1405   4
  -9   2   0 62.7136  5.1277   2
  -9   2   0 68.0338  5.6603   6
   9   2   0 62.9015  5.5716   6
   9   2   0 69.3639  5.1993   2
 -10  -2   0 451.200  33.855   6
  10  -2   0 514.112  34.234   6
  10  -2   0 486.163  39.713   3
  10   2   0 553.863  31.535   2
 -10   2   0 525.945  34.171   6
  10   2   0 481.330  34.033   6
 -10   2   0 453.331  31.359   2
  11  -2   0 97.6759  7.5341   6
  11  -2   0 89.5893  8.5988   3
 -11  -2   0 93.8027  7.1912   6
  11   2   0 83.7874  7.1812   6
 -11   2   0 76.2477  6.5299   2
  11   2   0 91.1747  6.7408   2
 -11   2   0 93.3943  7.3116   6
 -12  -2   0 904.307  65.872   6
  12  -2   0 1012.07   66.18   6
  12  -2   0 959.250  76.909   3
 -12   2   0 1000.91   60.98   2
 -12   2   0 1057.59   66.19   6
  12   2   0 909.382  65.986   6
 -13  -2   0 19.9383  2.9719   6
  13  -2   0 17.5646  3.1676   6
  13  -2   0 14.4598  3.4909   3
 -13   2   0 20.3661  3.1373   6
  13   2   0 14.0650  2.9731   6
 -14  -2   0 153.156  10.973   6
  14   2   0 136.797  11.072   6
   0  -3   0 1.76239 0.58677   5
   0  -3   0 3.14383 0.35707   4
   0  -3   0 0.43940 0.32103   4
   0   3   0 1.67330 0.36326   6
   0   3   0 0.43982 0.31134   2
   1  -3   0 879.921  58.526   6
   1  -3   0 879.338  53.762   4
   1  -3   0 850.004  53.771   5
  -1  -3   0 862.330  53.788   4
  -1  -3   0 796.555  58.591   6
  -1  -3   0 933.128  53.754   5
  -1   3   0 893.024  54.032   2
  -1   3   0 911.779  58.571   6
   1   3   0 928.283  58.543   6
   1   3   0 811.457  54.061   2
  -2  -3   0 19.3441  1.5366   5
  -2  -3   0 19.0087  1.4846   4
   2  -3   0 18.4351  1.3593   4
   2  -3   0 21.6136  1.6499   5
   2  -3   0 20.6173  1.4619   6
  -2  -3   0 16.0987  1.9392   6
   2   3   0 18.5762  1.4867   2
   2   3   0 18.9291  1.5076   6
  -2   3   0 19.1902  1.3759   2
  -2   3   0 19.5273  1.5751   6
   3  -3   0 680.501  39.396   4
   3  -3   0 675.162  39.453   5
   3  -3   0 693.467  42.850   6
  -3  -3   0 687.559  39.337   5
  -3  -3   0 561.756  43.179   6
  -3  -3   0 637.907  39.517   4
   3   3   0 621.722  42.890   6
   3   3   0 597.259  39.718   2
  -3   3   0 656.243  39.563   2
  -3   3   0 572.015  42.929   6
   4  -3   0 21.3521  1.7269   4
  -4  -3   0 20.6900  2.6474   6
  -4  -3   0 18.5847  2.0288   4
  -4  -3   0 19.7824  1.7466   5
   4  -3   0 23.5643  1.8656   6
   4  -3   0 21.0548  1.9673   5
   4   3   0 22.5479  1.6677   4
  -4   3   0 17.3530  2.0298   6
   4   3   0 22.3914  1.9940   6
  -4   3   0 19.2910  1.7526   2
   4   3   0 22.1662  1.6585   4
   4   3   0 17.9555  2.1122   2
   5  -3   0 405.676  27.280   6
  -5  -3   0 396.595  25.361   4
   5  -3   0 395.598  25.118   4
   5  -3   0 443.984  25.618   2
   5  -3   0 399.132  25.175   5
  -5  -3   0 450.209  27.781   6
   5   3   0 363.225  25.474   2
  -5   3   0 383.499  27.505   6
  -5   3   0 384.297  25.234   2
   5   3   0 403.582  27.434   6
  -6  -3   0 62.0071  5.2526   4
  -6  -3   0 67.3551  5.0109   2
   6  -3   0 68.9617  5.4003   6
   6  -3   0 73.3196  5.1198   4
  -6  -3   0 81.5416  5.7723   6
   6  -3   0 75.2623  6.7962   3
   6  -3   0 72.0724  5.1650   5
  -6   3   0 70.2507  5.1022   2
   6   3   0 67.8031  5.3600   2
  -6   3   0 61.8946  5.6370   6
   6   3   0 62.5892  5.6252   6
   7  -3   0 257.497  23.374   3
   7  -3   0 280.350  18.438   4
   7  -3   0 254.454  19.811   6
  -7  -3   0 322.280  19.981   6
  -7  -3   0 313.054  18.561   4
   7  -3   0 263.276  18.304   5
   7   3   0 271.159  20.105   6
  -7   3   0 271.058  18.476   2
   7   3   0 317.507  18.659   2
  -7   3   0 307.839  20.183   6
   8  -3   0 4.88778 2.06029   5
  -8  -3   0 5.21668 1.90796   4
   8  -3   0 2.41758 2.53465   3
   8  -3   0 4.87485 1.93875   6
   8  -3   0 2.87718 1.89589   4
  -8  -3   0 7.50349 1.82664   6
  -8   3   0 3.74684 1.95481   2
  -8   3   0 5.22075 2.03526   6
   8   3   0 1.87535 2.03615   6
   8   3   0 1.54776 1.81229   2
  -9  -3   0 162.025   9.716   4
   9  -3   0 129.044  12.247   3
   9  -3   0 128.478   9.479   5
   9  -3   0 124.944   9.556   4
   9  -3   0 116.442  10.292   6
  -9  -3   0 140.491  10.085   6
   9   3   0 144.697   9.605   2
  -9   3   0 159.258  10.568   6
  -9   3   0 131.798   9.653   2
   9   3   0 130.924  10.413   6
  10  -3   0 69.1432  6.3552   6
  10  -3   0 69.6416  7.4695   3
 -10  -3   0 70.0351  5.8989   6
 -10   3   0 78.6001  6.4405   6
 -10   3   0 64.7848  5.8130   2
  10   3   0 86.2086  5.9266   2
  10   3   0 64.5642  6.2240   6
 -11  -3   0 158.432  12.167   6
  11  -3   0 166.362  14.702   3
  11  -3   0 189.993  12.738   6
 -11   3   0 178.979  12.551   6
  11   3   0 137.322  12.289   6
 -11   3   0 153.845  11.437   2
  11   3   0 191.203  11.614   2
  12  -3   0 21.2108  4.0594   3
 -12  -3   0 21.2612  2.8846   6
  12  -3   0 19.0049  3.3734   6
  12   3   0 16.6391  3.0341   6
 -12   3   0 19.5049  3.1502   6
  12   3   0 18.0392  3.0147   2
 -12   3   0 16.7046  2.8540   2
 -13  -3   0 61.2837  5.2513   6
  13  -3   0 47.8228  6.3918   3
  13  -3   0 60.3068  5.7511   6
 -13   3   0 63.7642  5.5439   6
  13   3   0 54.3975  5.4566   6
 -13   3   0 53.7889  5.0916   2
 -14  -3   0 58.3890  5.3412   6
   0  -4   0 83.3925  5.2453   6
   0  -4   0 87.4029  5.0417   5
   0  -4   0 70.7757  4.7892   4
   0  -4   0 62.5808  4.7688   4
   0   4   0 71.4852  4.8108   2
   0   4   0 68.2302  5.2080   6
   1  -4   0 182.455  10.768   4
  -1  -4   0 169.349  10.894   5
   1  -4   0 167.571  10.742   4
  -1  -4   0 165.904  10.747   4
  -1  -4   0 156.231  11.768   6
   1  -4   0 175.631  10.934   5
  -1  -4   0 163.361  10.775   4
  -1   4   0 169.469  10.800   2
   1   4   0 173.946  10.836   2
  -1   4   0 196.684  11.751   6
   1   4   0 181.424  11.708   6
  -2  -4   0 584.557  34.701   5
   2  -4   0 590.282  37.677   6
   2  -4   0 550.978  34.741   5
   2  -4   0 562.166  34.635   4
  -2  -4   0 532.253  34.676   4
   2   4   0 553.086  37.716   6
  -2   4   0 554.058  34.802   2
   2   4   0 560.886  34.877   2
   3  -4   0 197.061  12.483   5
  -3  -4   0 197.046  12.391   4
   3  -4   0 210.867  13.331   6
  -3  -4   0 211.696  12.402   5
   3  -4   0 204.103  12.290   4
  -3  -4   0 183.472  13.741   6
  -3   4   0 188.889  13.434   6
  -3   4   0 185.263  12.332   2
   3   4   0 209.715  13.413   6
   3   4   0 176.480  12.444   2
   4  -4   0 109.464   7.059   5
   4  -4   0 118.432   7.372   6
  -4  -4   0 92.9004  7.9233   6
  -4  -4   0 98.3263  7.0105   4
   4  -4   0 109.761   6.839   4
  -4  -4   0 114.774   6.928   5
   4   4   0 104.536   7.119   2
   4   4   0 104.551   7.467   6
  -4   4   0 109.903   6.859   2
  -4   4   0 91.8932  7.5011   6
   5  -4   0 155.064  10.529   6
  -5  -4   0 163.991  11.125   6
   5  -4   0 161.694   9.798   4
   5  -4   0 152.449   9.974   5
  -5  -4   0 144.433   9.704   5
  -5  -4   0 152.633  10.068   4
   5   4   0 153.909  10.171   2
   5   4   0 147.449  10.692   6
  -5   4   0 134.060  10.770   6
  -5   4   0 157.356   9.836   2
   6  -4   0 671.238  45.935   3
  -6  -4   0 659.105  39.345   6
   6  -4   0 612.671  35.919   4
  -6  -4   0 562.613  36.172   4
   6  -4   0 571.370  35.956   5
   6  -4   0 582.023  38.909   6
  -6  -4   0 489.914  35.584   5
  -6   4   0 526.931  39.191   6
   6   4   0 576.238  39.180   6
  -6   4   0 553.649  36.047   2
   6   4   0 538.562  36.335   2
   7  -4   0 243.219  15.694   5
   7  -4   0 244.904  15.629   4
   7  -4   0 254.791  16.827   6
  -7  -4   0 213.860  15.736   4
  -7  -4   0 267.902  16.961   6
   7  -4   0 234.563  20.001   3
   7   4   0 233.271  17.087   6
   7   4   0 231.927  15.866   2
  -7   4   0 226.137  17.088   6
  -7   4   0 248.762  15.709   2
   8  -4   0 183.983  12.235   4
   8  -4   0 179.202  12.197   5
   8  -4   0 166.261  15.554   3
  -8  -4   0 185.601  12.903   6
  -8  -4   0 211.037  12.423   4
   8  -4   0 152.878  12.905   6
  -8   4   0 187.351  13.383   6
  -8   4   0 174.585  12.275   2
   8   4   0 166.438  13.340   6
   8   4   0 196.110  12.369   2
   9  -4   0 112.661  11.226   3
   9  -4   0 108.874   8.724   4
   9  -4   0 103.582   9.246   6
  -9  -4   0 151.034   8.971   4
   9  -4   0 115.211   8.798   5
  -9  -4   0 132.065   9.049   6
   9   4   0 141.642   8.881   2
   9   4   0 108.173   9.488   6
  -9   4   0 102.854   8.735   2
  -9   4   0 132.441   9.685   6
 -10  -4   0 452.034  30.599   6
  10  -4   0 419.633  28.535   4
  10  -4   0 437.987  36.293   3
 -10   4   0 452.474  28.750   2
  10   4   0 463.734  31.149   6
  11  -4   0 178.296  14.797   6
 -11  -4   0 207.731  14.442   6
  11  -4   0 182.051  17.393   3
 -11   4   0 208.776  14.886   6
  11   4   0 188.789  14.741   6
  11   4   0 228.597  13.725   2
 -11   4   0 210.558  13.786   2
 -12  -4   0 151.747  11.049   6
  12  -4   0 144.372  13.444   3
  12   4   0 136.171  11.256   6
  12   4   0 153.966  10.464   2
 -12   4   0 169.694  11.636   6
 -12   4   0 137.994  10.394   2
 -13   4   0 59.9871  5.6337   6
 -13   4   0 53.2607  4.9495   2
  13   4   0 56.1950  5.4416   6
   0  -5   0 0.27711 0.39931   4
   0  -5   0 1.87055 0.48526   4
   0  -5   0 0.83635 0.55667   6
   0   5   0 0.40681 0.45539   6
   0   5   0 0.27504 0.43328   2
  -1  -5   0 1141.45   69.05   4
  -1  -5   0 1201.83   69.08   4
   1  -5   0 1005.09   75.12   6
   1  -5   0 1085.41   69.04   4
   1  -5   0 1004.22   69.09   5
  -1  -5   0 1125.38   69.10   5
   1  -5   0 1154.61   69.04   4
   1   5   0 1166.64   75.17   6
   1   5   0 1083.73   69.41   2
  -1   5   0 1271.69   75.22   6
  -1   5   0 1119.25   69.38   2
   2  -5   0 126.497   7.684   4
  -2  -5   0 123.218   7.888   5
   2  -5   0 122.941   8.315   6
  -2  -5   0 114.432   7.717   4
  -2  -5   0 103.170   8.578   6
   2  -5   0 131.525   7.970   5
  -2   5   0 117.382   7.712   2
   2   5   0 120.050   7.789   2
  -2   5   0 137.056   8.443   6
   2   5   0 121.061   8.370   6
   3  -5   0 350.402  19.904   4
   3  -5   0 328.116  20.134   5
  -3  -5   0 275.350  21.978   6
  -3  -5   0 316.745  19.969   4
   3  -5   0 351.463  21.602   6
  -3  -5   0 320.843  20.033   5
  -3   5   0 332.342  19.997   2
   3   5   0 308.144  21.668   6
   3   5   0 297.414  20.083   2
  -4  -5   0 30.9960  2.4462   4
  -4  -5   0 35.3658  2.4979   5
   4  -5   0 28.5445  2.3009   6
   4  -5   0 30.7906  2.2282   4
   4  -5   0 37.5471  2.7268   5
  -4  -5   0 26.3302  3.1092   6
   4   5   0 25.3672  2.4904   2
  -4   5   0 27.4841  2.2153   2
   4   5   0 30.1580  2.5178   6
  -5  -5   0 776.862  47.213   4
   5  -5   0 790.974  46.998   4
   5  -5   0 750.286  47.131   5
  -5  -5   0 740.144  46.935   5
  -5  -5   0 773.243  51.524   6
  -5   5   0 730.075  51.268   6
  -5   5   0 745.624  47.208   2
   5   5   0 737.977  47.478   2
   5   5   0 794.718  51.226   6
   6  -5   0 430.917  28.429   6
   6  -5   0 444.411  26.527   5
  -6  -5   0 432.529  28.825   6
  -6  -5   0 413.711  26.589   4
   6  -5   0 399.845  26.274   4
   6   5   0 451.432  28.768   6
  -6   5   0 397.794  28.770   6
   6   5   0 395.719  26.713   2
  -6   5   0 411.445  26.422   2
   7  -5   0 20.1775  2.2167   6
  -7  -5   0 17.3515  2.7924   4
  -7  -5   0 20.3360  2.5350   6
   7  -5   0 23.8582  2.7229   5
   7  -5   0 20.5797  2.4504   4
   7  -5   0 19.3461  3.5991   3
  -7   5   0 27.5843  2.6619   2
  -7   5   0 14.4946  2.6416   6
   7   5   0 14.1657  2.5948   6
   7   5   0 16.2063  2.8202   2
   8  -5   0 16.6943  2.3820   6
   8  -5   0 17.3908  2.5940   4
   8  -5   0 13.9324  2.6163   5
  -8  -5   0 14.7899  2.3234   6
   8  -5   0 10.6122  3.2559   3
  -8  -5   0 13.9752  2.7798   4
   8   5   0 21.4483  3.1578   6
   8   5   0 15.6671  2.8730   2
  -8   5   0 13.3301  2.7757   6
  -8   5   0 16.9174  2.5601   2
  -9  -5   0 114.765   8.327   6
   9  -5   0 93.1601 10.4289   3
  -9  -5   0 119.600   8.341   4
   9  -5   0 104.012   8.234   4
   9  -5   0 108.267   8.406   5
   9   5   0 106.231   9.042   6
   9   5   0 128.257   8.382   2
  -9   5   0 102.620   8.318   2
  -9   5   0 117.627   9.152   6
  10  -5   0 218.730  14.329   5
  10  -5   0 189.435  14.169   4
 -10  -5   0 197.436  14.779   6
 -10  -5   0 253.205  14.374   4
  10  -5   0 162.977  17.822   3
  10   5   0 202.694  15.493   6
 -10   5   0 180.654  14.224   2
 -10   5   0 232.911  15.664   6
  10   5   0 246.573  14.377   2
  11  -5   0 8.32183 3.61156   3
  11   5   0 12.9026  3.0800   6
 -11   5   0 14.0117  2.9353   2
  11   5   0 14.5580  2.9328   2
 -11   5   0 19.6409  3.4667   6
  12  -5   0 5.81688 3.27421   3
  12   5   0 2.97025 2.27103   2
  12   5   0 1.54957 2.50009   6
 -12   5   0 6.20809 2.32966   2
  13   5   0 3.86897 2.72778   6
  13   5   0 6.70487 2.47685   2
 -13   5   0 7.42087 2.53409   2
   0  -6   0 184.947  11.658   5
   0  -6   0 173.786  11.370   4
   0   6   0 180.772  11.421   2
   0   6   0 189.203  12.381   6
  -1  -6   0 415.057  26.018   5
   1  -6   0 411.055  25.762   4
   1  -6   0 427.612  26.027   5
  -1  -6   0 404.768  25.783   4
  -1   6   0 456.408  28.097   6
   1   6   0 414.551  28.055   6
   1   6   0 410.288  25.916   2
  -1   6   0 396.692  25.886   2
   2  -6   0 565.810  38.826   5
  -2  -6   0 607.069  38.821   5
   2  -6   0 572.766  38.625   4
  -2  -6   0 630.641  38.683   4
   2   6   0 621.407  38.884   2
   2   6   0 677.616  42.107   6
  -2   6   0 639.796  38.842   2
  -2   6   0 696.040  42.150   6
   3  -6   0 166.081  10.534   5
  -3  -6   0 156.002  10.240   4
  -3  -6   0 152.505  10.425   5
   3  -6   0 157.947  10.173   4
   3   6   0 174.951  11.128   6
   3   6   0 156.230  10.324   2
  -3   6   0 167.673  11.170   6
  -3   6   0 160.602  10.223   2
  -4  -6   0 9.70635 1.30275   4
   4  -6   0 10.0402  1.1486   4
   4  -6   0 10.4976  1.6550   5
  -4  -6   0 7.45306 1.41636   5
   4   6   0 10.5942  1.4410   2
   4   6   0 10.5840  1.3610   6
  -4   6   0 9.47958 1.14988   2
  -5  -6   0 366.448  25.503   5
  -5  -6   0 422.423  25.649   4
   5  -6   0 381.499  25.694   5
   5  -6   0 440.659  25.479   4
   5   6   0 431.491  27.798   6
  -5   6   0 394.567  25.562   2
   5   6   0 421.929  25.855   2
  -6  -6   0 225.885  14.418   4
   6  -6   0 223.207  14.162   4
   6  -6   0 232.484  14.527   5
   6   6   0 222.955  15.503   6
   6   6   0 215.403  14.596   2
  -6   6   0 211.284  14.202   2
   7  -6   0 43.2601  3.4428   4
   7  -6   0 36.9840  3.8601   5
  -7  -6   0 41.8917  3.8084   4
   7  -6   0 49.8883  5.3180   3
   7   6   0 37.5575  3.8953   6
  -7   6   0 36.4102  3.4832   2
   7   6   0 33.3841  3.9724   2
   8  -6   0 183.999  12.423   5
   8  -6   0 185.465  15.918   3
  -8  -6   0 176.977  12.409   4
   8  -6   0 187.384  12.259   4
   8   6   0 167.513  12.489   2
  -8   6   0 181.973  12.293   2
   8   6   0 186.578  13.507   6
   9  -6   0 223.627  15.626   4
   9  -6   0 225.449  15.715   5
  -9  -6   0 233.948  15.803   4
   9  -6   0 225.977  20.182   3
   9   6   0 256.698  15.970   2
   9   6   0 232.189  17.260   6
  -9   6   0 241.007  15.831   2
  10  -6   0 93.7984  7.5066   5
  10  -6   0 67.3907  8.8465   3
 -10  -6   0 101.049   7.196   4
  10  -6   0 83.0838  7.1219   4
  10   6   0 100.931   7.173   2
  10   6   0 84.9285  7.7615   6
 -10   6   0 83.0073  7.1141   2
  11  -6   0 30.0796  5.4347   3
  11   6   0 37.9139  4.2786   2
 -11   6   0 34.0487  4.3591   2
  11   6   0 34.1410  4.6094   6
 -12   6   0 297.363  20.063   2
  12   6   0 286.229  21.641   6
  12   6   0 321.752  20.036   2
   0  -7   0 0.81212 0.57101   4
   0  -7   0 2.26343 1.15800   5
   0   7   0 1.41740 0.66395   6
   0   7   0 0.14099 0.56632   2
   1  -7   0 13.8319  1.8102   5
  -1  -7   0 15.2823  1.3733   4
  -1  -7   0 14.7792  1.8439   5
   1  -7   0 16.9135  1.2852   4
  -1   7   0 12.5557  1.2696   2
  -1   7   0 13.1061  1.4441   6
   1   7   0 12.3342  1.3218   2
   1   7   0 15.5662  1.4739   6
  -1   7   0 14.6798  1.2863   2
  -2  -7   0 23.2407  2.3279   5
  -2  -7   0 20.5658  1.7966   4
   2  -7   0 23.4096  1.7757   4
   2  -7   0 23.5496  2.3587   5
  -2   7   0 22.9863  2.0697   6
   2   7   0 24.3147  1.8704   2
  -2   7   0 20.0580  1.7967   2
   2   7   0 22.3892  1.9585   6
  -3  -7   0 195.189  12.617   4
   3  -7   0 199.367  12.953   5
   3  -7   0 186.193  12.549   4
  -3  -7   0 195.707  12.913   5
   3   7   0 204.139  13.714   6
  -3   7   0 190.095  12.613   2
   3   7   0 209.612  12.725   2
  -3   7   0 219.396  13.784   6
   4  -7   0 2.66803 1.40211   5
  -4  -7   0 4.24170 1.05318   4
   4  -7   0 2.07786 0.82188   4
  -4  -7   0 1.14994 1.19915   5
   4   7   0 5.12652 1.12751   2
   4   7   0 3.40573 1.05411   6
  -4   7   0 1.31564 0.82586   2
  -4   7   0 2.62271 1.07711   6
  -5  -7   0 61.6881  4.3752   4
   5  -7   0 56.7300  4.7200   5
   5  -7   0 62.2662  4.2522   4
  -5   7   0 60.5137  4.7924   6
   5   7   0 63.8445  4.7356   6
  -5   7   0 58.9621  4.2442   2
   5   7   0 58.4019  4.5256   2
  -6  -7   0 97.8670  6.8873   4
   6  -7   0 101.514   6.663   4
   6  -7   0 106.208   7.200   5
   6   7   0 98.8465  7.3635   6
   6   7   0 93.3316  7.0498   2
  -6   7   0 92.1435  6.6613   2
   7  -7   0 108.959   7.430   4
  -7  -7   0 102.787   7.674   4
   7  -7   0 107.499   7.876   5
   7   7   0 115.235   8.078   2
   7   7   0 108.536   8.299   6
  -7   7   0 104.041   7.483   2
  -8  -7   0 2.00908 2.14359   4
   8  -7   0 8.49858 3.36764   3
   8  -7   0 1.89893 1.78922   4
   8  -7   0 6.21647 2.38054   5
  -8   7   0 3.72667 1.92881   2
   8   7   0 2.89948 2.20473   2
   8   7   0 10.2238  2.4284   6
   9  -7   0 47.5416  6.4231   3
  -9  -7   0 45.1437  4.7402   4
   9  -7   0 56.2214  4.7316   4
   9   7   0 49.5429  5.2266   6
  -9   7   0 44.8370  4.6618   2
   9   7   0 47.1665  4.9321   2
  10  -7   0 86.8286  7.2974   4
  10  -7   0 75.1450  9.2407   3
 -10  -7   0 87.8373  7.3320   4
  10   7   0 91.3469  8.0456   6
  10   7   0 106.876   7.525   2
 -10   7   0 87.5120  7.3945   2
  11  -7   0 5.10172 3.58162   3
 -11   7   0 4.34877 2.45551   2
  11   7   0 1.43633 2.91710   6
  11   7   0 0.30726 2.66559   2
 -12   7   0 24.4781  3.9737   2
  12   7   0 28.1117  3.9299   2
   0  -8   0 1784.23  113.04   5
   0  -8   0 1781.50  112.85   4
   0   8   0 1894.63  122.90   6
   0   8   0 1885.02  113.44   2
   1  -8   0 219.282  14.249   5
   1  -8   0 219.978  13.752   4
  -1  -8   0 228.417  13.808   4
  -1  -8   0 221.930  14.271   5
  -1   8   0 199.597  13.811   2
   1   8   0 228.968  15.024   6
  -1   8   0 213.238  13.824   2
   1   8   0 209.957  13.846   2
  -1   8   0 236.610  15.030   6
   2  -8   0 201.707  13.018   4
  -2  -8   0 209.099  13.062   4
   2  -8   0 208.169  13.527   5
  -2  -8   0 199.914  13.445   5
  -2   8   0 220.768  14.254   6
  -2   8   0 197.756  13.085   2
   2   8   0 213.874  14.217   6
   2   8   0 205.382  13.122   2
  -3  -8   0 497.495  34.274   5
   3  -8   0 521.576  34.336   5
   3  -8   0 553.467  33.959   4
  -3  -8   0 561.151  34.006   4
  -3   8   0 532.888  34.113   2
   3   8   0 563.696  34.200   2
   3   8   0 570.367  37.012   6
  -3   8   0 579.651  37.069   6
   4  -8   0 929.224  58.270   4
  -4  -8   0 847.362  58.473   5
  -4  -8   0 924.629  58.324   4
   4  -8   0 973.144  58.660   5
   4   8   0 1040.44   63.54   6
  -4   8   0 1044.69   63.57   6
  -4   8   0 891.375  58.550   2
   4   8   0 903.047  58.654   2
   5  -8   0 11.8838  2.1235   5
   5  -8   0 11.0610  1.4776   4
  -5  -8   0 10.6753  1.5893   4
  -5   8   0 11.8292  1.8029   6
   5   8   0 10.8665  1.7214   2
   5   8   0 11.1769  1.7912   6
  -5   8   0 9.18848 1.43054   2
  -6  -8   0 162.862  10.783   4
   6  -8   0 156.595  10.565   4
   6  -8   0 166.047  11.149   5
   6   8   0 170.307  11.665   6
  -6   8   0 159.233  11.646   6
   6   8   0 148.364  10.856   2
  -6   8   0 172.817  10.681   2
   7  -8   0 465.418  31.001   4
   7  -8   0 499.952  31.479   5
  -7  -8   0 503.997  31.262   4
   7   8   0 490.190  31.534   2
   7   8   0 532.765  34.002   6
  -7   8   0 486.070  31.191   2
  -7   8   0 480.858  33.914   6
  -8  -8   0 165.029  11.629   4
   8  -8   0 183.052  15.208   3
   8  -8   0 165.268  11.330   4
  -8   8   0 168.811  11.468   2
   8   8   0 179.465  12.704   6
   8   8   0 161.566  11.821   2
  -8   8   0 155.607  12.515   6
   9  -8   0 8.20122 3.56974   3
  -9  -8   0 0.74628 2.28289   4
   9  -8   0 7.03920 2.22291   4
  -9   8   0 1.82976 2.18962   2
   9   8   0 2.98627 2.66280   2
   9   8   0 4.73579 2.74399   6
  -9   8   0 6.18936 2.80073   6
  10  -8   0 76.7066  9.4990   3
  10   8   0 97.9968  7.7252   2
 -10   8   0 90.4687  8.1497   6
  10   8   0 100.286   8.351   6
 -10   8   0 90.6956  7.5622   2
 -11   8   0 192.240  15.279   2
  11   8   0 211.193  16.606   6
 -11   8   0 248.948  17.027   6
  11   8   0 232.448  15.396   2
   0  -9   0 1.98083 1.75867   5
   0  -9   0 0.41318 0.73507   4
   0   9   0 0.72982 0.78856   2
  -1  -9   0 215.997  13.576   4
   1  -9   0 216.532  13.553   4
   1  -9   0 226.351  14.230   5
  -1  -9   0 214.735  14.171   5
  -1   9   0 207.818  13.637   2
   1   9   0 222.340  13.663   2
  -1   9   0 207.983  13.642   2
  -2  -9   0 11.0569  2.0876   5
  -2  -9   0 8.29417 1.20015   4
   2  -9   0 9.90116 2.03684   5
   2  -9   0 8.20250 1.15635   4
   2   9   0 7.53896 1.22663   2
  -2   9   0 6.39722 1.14322   2
   3  -9   0 330.482  20.429   4
  -3  -9   0 322.360  20.465   4
  -3  -9   0 321.309  20.953   5
   3  -9   0 331.862  21.007   5
  -3   9   0 324.638  20.534   2
   3   9   0 329.687  20.585   2
   4  -9   0 1.51998 0.94954   4
  -4  -9   0 2.11471 0.98982   4
   4  -9   0 0.92022 1.78547   5
   4   9   0 1.26465 1.23702   6
   4   9   0 2.23022 1.10677   2
  -4   9   0 1.28166 1.04913   2
   5  -9   0 108.041   7.670   5
   5  -9   0 106.698   6.961   4
  -5  -9   0 98.0426  6.9927   4
   5   9   0 101.100   7.674   6
   5   9   0 104.764   7.148   2
  -5   9   0 104.622   6.979   2
   6  -9   0 27.9377  2.7017   4
  -6  -9   0 26.7769  2.8579   4
   6   9   0 30.5318  3.0198   2
   6   9   0 30.9657  3.1844   6
  -6   9   0 29.0489  2.7516   2
  -7  -9   0 311.193  19.741   4
   7  -9   0 299.210  19.527   4
   7   9   0 322.033  21.489   6
  -7   9   0 299.896  19.635   2
   7   9   0 298.197  19.872   2
  -7   9   0 301.503  21.334   6
   8  -9   0 17.0008  4.4091   3
   8  -9   0 11.4987  2.2707   4
  -8  -9   0 12.7883  2.6882   4
   8   9   0 10.7318  2.7305   2
  -8   9   0 11.3053  2.3800   2
   8   9   0 14.0866  2.9848   6
  -8   9   0 10.3926  2.6868   6
   9  -9   0 59.6089  7.1401   3
  -9   9   0 52.9365  5.6030   6
   9   9   0 45.9243  5.3044   2
  -9   9   0 58.4285  5.1623   2
   9   9   0 55.9474  5.8125   6
  10   9   0 19.4422  4.0994   6
 -10   9   0 19.5998  3.6127   2
  10   9   0 16.2514  3.6507   2
 -10   9   0 16.6769  3.7492   6
   0 -10   0 301.000  20.271   4
   0 -10   0 339.328  21.089   5
   0  10   0 323.243  20.432   2
   0  10   0 340.088  20.446   2
  -1 -10   0 4.97308 1.05864   4
   1 -10   0 1.76362 1.98054   5
   1 -10   0 1.44830 0.88951   4
  -1 -10   0 1.74343 2.03035   5
  -1  10   0 1.32056 0.94257   2
   1  10   0 4.63594 1.13131   2
  -2 -10   0 18.3416  1.8982   4
   2 -10   0 22.9045  1.9942   4
  -2 -10   0 19.1346  2.8477   5
   2 -10   0 19.9312  3.0011   5
  -2  10   0 20.1199  2.0079   2
   2  10   0 21.3803  2.0420   2
  -3 -10   0 61.7178  4.1295   4
   3 -10   0 55.4411  4.0440   4
   3  10   0 53.5667  4.1196   2
  -3  10   0 56.9979  4.0978   2
  -4 -10   0 179.818  11.760   4
   4 -10   0 177.718  11.711   4
  -4  10   0 192.286  11.837   2
   4  10   0 180.787  11.851   2
  -5 -10   0 1.90012 1.24162   4
   5 -10   0 1.04957 1.17778   4
  -5  10   0 1.53882 1.28869   2
   5  10   0 3.72326 1.43917   2
   6 -10   0 38.5831  3.2921   4
  -6 -10   0 34.7490  3.3392   4
  -6  10   0 41.2429  3.3692   2
   6  10   0 36.4263  3.4294   2
   7  10   0 112.599   8.399   2
  -7  10   0 121.344   8.283   2
   8  10   0 31.4463  3.8093   2
  -8  10   0 27.9724  3.4780   2
   9  10   0 26.2955  4.4030   6
   0 -11   0 1.83944 0.93480   4
   0  11   0 -1.0216  0.9997   2
   0  11   0 -0.2286  1.0494   2
  -1 -11   0 24.3135  2.2236   4
   1 -11   0 24.1169  2.2479   4
  -1  11   0 24.7802  2.3463   2
   1  11   0 28.0830  2.3867   2
   2 -11   0 12.9642  1.6590   4
  -2 -11   0 14.5253  1.6851   4
   2  11   0 13.7278  1.7502   2
  -2  11   0 13.0141  1.7153   2
  -3 -11   0 142.512   9.064   4
   3 -11   0 132.528   9.014   4
  -3  11   0 134.316   9.110   2
   3  11   0 143.800   9.138   2
  -4  11   0 0.27860 1.24735   2
   4  11   0 1.57107 1.22802   2
  -5  11   0 2.67221 1.40236   2
   5  11   0 3.12616 1.45551   2
   6  11   0 41.0909  3.8235   2
  -6  11   0 46.2352  3.8765   2
   7  11   0 233.929  16.000   2
  -7  11   0 252.501  16.042   2
   0  12   0 30.1330  2.7174   2
  -1  12   0 5.47099 1.38379   2
   1  12   0 1.83419 1.31368   2
   1  12   0 1.76940 1.31741   2
   2  12   0 126.585   8.011   2
  -2  12   0 111.312   7.946   2
  -3  12   0 2.44932 1.39079   2
   3  12   0 3.08219 1.41327   2
  -4  12   0 6.42627 1.61993   2
   4  12   0 4.99624 1.53238   2
  -5  12   0 2.64269 1.57892   2
 -14   0   1 1.29098 2.27315   6
  14   0  -1 1.82447 2.34527   6
  13   0  -1 -1.7848  1.9165   6
 -13   0   1 2.48368 2.19892   6
  12   0  -1 2.31120 2.20335   6
 -12   0   1 0.39341 1.98010   6
 -11   0   1 1.65684 1.85494   6
  11   0  -1 1.94324 2.00128   6
 -10   0   1 1.39102 1.75475   2
 -10   0   1 -0.7987  1.7145   6
  10   0  -1 0.39999 1.71127   2
  10   0  -1 -0.9283  1.8554   6
  10   0  -1 0.52951 2.01777   3
   9   0  -1 0.50269 1.52112   2
   9   0  -1 0.68776 1.83027   3
  -9   0   1 0.94561 1.62925   2
   9   0  -1 3.17385 1.83755   6
  -9   0   1 1.99698 1.76568   6
  -8   0   1 -1.2667  1.2480   2
   8   0  -1 0.69728 1.77162   3
   8   0  -1 0.10954 1.67235   6
  -8   0   1 3.54503 1.83563   6
   8   0  -1 1.61001 1.55873   2
  -8   0   1 6.10329 1.54395   4
   7   0  -1 0.41888 1.63690   6
  -7   0   1 5.97189 1.92253   6
   7   0  -1 2.31712 1.45405   4
   7   0  -1 1.60025 1.52620   2
  -7   0   1 0.36513 1.27317   4
   7   0  -1 1.44285 1.84969   3
  -7   0   1 4.69536 1.60973   2
   6   0  -1 -0.0378  1.3239   2
  -6   0   1 0.04010 1.28568   2
   6   0  -1 4.68657 1.72544   6
   6   0  -1 -0.4645  1.4717   3
  -6   0   1 0.36133 1.36732   6
   6   0  -1 1.47347 1.23634   4
  -6   0   1 0.13663 1.16346   4
  -5   0   1 0.71336 1.27768   4
   5   0  -1 -0.8533  1.5858   3
   5   0  -1 -0.3238  0.9494   5
   5   0  -1 0.46786 1.43341   2
   5   0  -1 0.10149 1.45415   6
   5   0  -1 0.79638 1.27025   4
  -5   0   1 2.64767 1.48677   6
  -5   0   1 6.58786 1.59935   2
   4   0  -1 1.98818 1.21467   4
   4   0  -1 -0.7969  1.6204   3
   4   0  -1 1.41048 1.37898   2
  -4   0   1 -0.4589  1.1445   4
   4   0  -1 2.89144 1.38527   6
   4   0  -1 0.17122 0.93602   5
  -4   0   1 0.66706 1.30427   2
  -4   0   1 0.77285 1.17328   6
   3   0  -1 4.46894 1.07820   5
   3   0  -1 0.97885 1.19417   2
  -3   0   1 0.70164 1.44397   2
   3   0  -1 -0.2491  1.2024   4
  -3   0   1 2.01367 1.09208   6
   3   0  -1 1.67523 1.58929   3
  -3   0   1 2.05828 1.19389   4
   3   0  -1 -0.8726  1.2471   6
   2   0  -1 1.41142 0.98255   6
  -2   0   1 1.86868 0.51962   5
   2   0  -1 1.36816 1.10999   3
   2   0  -1 -0.0066  0.8944   4
  -2   0   1 0.50419 0.68274   4
   2   0  -1 2.31517 0.63009   5
  -2   0   1 1.36345 0.66814   6
  -1   0   1 10.8310  0.9150   4
   0   0   1 1.18114 0.12626   4
   1   0   1 2.50510 0.55854   4
   1   0   1 2.63588 0.83563   3
   2   0   1 1.40478 1.37900   3
   2   0   1 2.21200 1.35310   6
  -2   0  -1 1.70733 0.96199   6
  -2   0  -1 2.88795 0.70226   4
   2   0   1 2.30817 0.98938   4
   3   0   1 2.30038 1.25728   4
  -3   0  -1 3.88903 1.49381   6
   3   0   1 0.90288 1.66638   3
  -3   0  -1 3.24802 1.33029   2
  -3   0  -1 -0.3672  0.9825   4
   3   0   1 0.71915 1.55498   6
   3   0   1 0.80159 1.15572   2
   4   0   1 3.05170 1.53536   6
   4   0   1 -1.0612  1.0918   4
  -4   0  -1 -0.4723  1.0471   4
  -4   0  -1 2.69677 1.60636   6
   4   0   1 1.33573 1.23046   2
  -4   0  -1 2.10459 1.26699   2
   4   0   1 1.27973 1.62797   3
  -5   0  -1 -0.3025  1.2699   2
   5   0   1 1.50404 1.72152   3
   5   0   1 2.33909 1.40324   2
   5   0   1 2.88696 1.58681   6
   5   0   1 1.11748 1.14687   4
  -5   0  -1 1.36481 1.23771   4
  -5   0  -1 9.22039 1.96743   6
   6   0   1 0.65018 1.74088   3
   6   0   1 0.53741 1.22220   4
  -6   0  -1 1.95886 1.52898   6
  -6   0  -1 1.84195 1.38506   2
  -6   0  -1 0.04591 1.22373   4
   6   0   1 -1.1783  1.3509   2
   6   0   1 0.23656 1.42386   6
  -7   0  -1 1.48280 1.54179   6
  -7   0  -1 1.18473 1.40018   2
   7   0   1 0.17554 1.82447   3
   7   0   1 0.79206 1.38381   4
   7   0   1 0.93930 1.57335   6
   7   0   1 1.57353 1.48416   2
  -7   0  -1 -0.6035  1.3155   4
  -8   0  -1 11.8513  1.8913   2
   8   0   1 1.84623 1.66085   6
   8   0   1 2.14684 1.56379   4
  -8   0  -1 3.24063 1.65738   6
   8   0   1 -0.5731  1.4678   2
   8   0   1 0.02374 1.90463   3
   9   0   1 3.03678 2.09014   3
  -9   0  -1 0.04709 1.55201   6
   9   0   1 1.28365 1.71188   6
  -9   0  -1 1.00454 1.57107   2
   9   0   1 0.03298 1.75628   2
 -10   0  -1 1.30904 1.74873   6
  10   0   1 1.75722 1.81902   6
 -10   0  -1 -0.5710  1.5889   2
  11   0   1 -1.5037  1.7245   6
 -11   0  -1 1.76177 1.82953   6
 -11   0  -1 1.71044 1.79905   2
  12   0   1 2.72192 2.17293   6
 -12   0  -1 1.83511 2.02745   6
  13   0   1 1.38858 2.01141   6
 -13   0  -1 1.19922 2.08396   6
  14   0   1 3.54644 2.20483   6
 -14   0  -1 1.63065 2.18544   6
 -14  -1   1 287.131  20.028   6
  14  -1  -1 274.465  20.048   6
 -14   1   1 292.510  20.142   6
  14   1  -1 274.721  20.074   6
 -13  -1   1 4.65365 2.25746   6
  13  -1  -1 5.32736 2.36017   6
  13   1  -1 3.79116 2.20505   6
 -13   1   1 5.35617 2.43801   6
  12  -1  -1 142.208  12.239   3
 -12  -1   1 143.897  10.366   6
  12  -1  -1 133.517  10.560   6
 -12   1   1 140.284  10.483   6
  12   1  -1 127.415  10.363   6
  11  -1  -1 36.1881  4.8342   3
  11  -1  -1 42.0398  4.3699   6
 -11  -1   1 36.6796  4.1838   6
  11   1  -1 47.0077  4.0907   2
 -11   1   1 51.3253  4.4279   6
 -11   1   1 38.7719  3.7906   2
  11   1  -1 37.6947  4.2616   6
 -10  -1   1 755.780  50.389   6
  10  -1  -1 763.508  50.610   6
  10  -1  -1 699.608  58.585   3
  10   1  -1 738.239  50.406   6
 -10   1   1 824.203  50.607   6
  10   1  -1 761.473  46.515   2
 -10   1   1 644.523  46.367   2
   9  -1  -1 48.5727  5.4551   3
   9  -1  -1 56.0224  4.3232   2
   9  -1  -1 51.4047  5.0458   6
  -9  -1   1 52.0330  4.6340   6
   9   1  -1 46.7788  4.6677   6
   9   1  -1 49.9344  4.3311   2
  -9   1   1 53.5930  4.8287   6
  -9   1   1 46.3308  4.1659   2
  -8  -1   1 110.829   8.283   6
   8  -1  -1 111.251   7.654   2
   8  -1  -1 99.1218  7.5583   4
   8  -1  -1 101.542   9.648   3
   8  -1  -1 118.325   8.600   6
  -8  -1   1 105.244   7.512   4
  -8  -1   1 131.224   7.819   2
   8   1  -1 110.899   8.302   6
   8   1  -1 99.3500  7.5546   2
  -8   1   1 100.050   7.576   2
   8   1  -1 112.160   9.571   3
  -8   1   1 104.067   8.376   6
   7  -1  -1 33.4807  3.2872   2
   7  -1  -1 38.5094  3.7827   6
  -7  -1   1 37.3814  3.1602   4
  -7  -1   1 35.6704  3.4454   6
  -7  -1   1 33.6238  3.2624   2
   7  -1  -1 31.8728  3.2186   4
   7  -1  -1 31.2484  2.9591   5
   7  -1  -1 27.9930  4.0946   3
  -7   1   1 34.6892  3.2713   2
  -7   1   1 29.8144  3.0693   4
  -7   1   1 39.4866  3.6962   6
   7   1  -1 32.6658  3.8318   3
   7   1  -1 33.2128  3.3039   2
   7   1  -1 33.1838  3.5032   6
   6  -1  -1 884.234  52.086   2
  -6  -1   1 956.932  56.381   6
  -6  -1   1 863.349  51.691   4
   6  -1  -1 804.382  51.440   5
   6  -1  -1 707.580  51.673   4
   6  -1  -1 737.643  56.303   6
   6  -1  -1 762.572  65.442   3
  -6  -1   1 850.144  51.983   2
   6   1  -1 856.678  65.338   3
   6   1  -1 820.370  51.656   4
  -6   1   1 712.895  51.932   2
  -6   1   1 882.294  51.754   4
  -6   1   1 857.892  56.401   6
   6   1  -1 951.214  56.478   6
   5  -1  -1 134.117   8.723   2
   5  -1  -1 133.705   8.391   5
   5  -1  -1 117.241  10.775   3
  -5  -1   1 151.348   8.639   4
  -5  -1   1 139.353   8.676   2
   5  -1  -1 116.658   8.522   4
  -5  -1   1 142.106   9.395   6
   5  -1  -1 111.185   9.226   6
  -5   1   1 120.913   8.558   4
   5   1  -1 108.272  10.599   3
   5   1  -1 145.373   8.746   2
   5   1  -1 133.947   8.529   4
  -5   1   1 106.660   9.213   6
  -5   1   1 125.182   8.617   2
   4  -1  -1 55.2707  4.7844   6
   4  -1  -1 66.7544  4.6145   2
  -4  -1   1 60.2040  4.9883   6
   4  -1  -1 66.4577  4.3143   5
  -4  -1   1 71.9645  4.6770   4
   4  -1  -1 67.7975  4.4754   4
   4  -1  -1 59.3807  5.6507   3
  -4   1   1 59.0157  4.8232   6
   4   1  -1 73.8746  4.8334   2
   4   1  -1 66.9981  5.1921   6
  -4   1   1 60.4893  4.4732   2
  -4   1   1 54.4937  4.4607   4
  -3  -1   1 27.1873  2.2341   5
  -3  -1   1 29.9908  3.2309   1
   3  -1  -1 30.6727  2.2413   5
   3  -1  -1 28.1161  2.4170   2
   3  -1  -1 30.5046  2.3001   4
  -3  -1   1 21.3743  2.7769   6
  -3  -1   1 40.2387  2.8821   4
   3  -1  -1 31.2868  2.5257   6
  -3   1   1 27.5145  2.3243   2
   3   1  -1 25.5235  2.9816   3
  -3   1   1 32.2305  2.3902   4
   3   1  -1 29.4192  2.9099   2
   3   1  -1 21.9707  2.3864   4
  -3   1   1 24.8371  2.4949   6
  -2  -1   1 714.089  45.073   4
   2  -1  -1 808.270  44.734   5
  -2  -1   1 621.355  48.885   6
   2  -1  -1 762.530  44.841   4
  -2   1   1 776.243  45.067   2
  -2   1   1 736.371  44.860   4
  -2   1   1 726.609  48.827   6
   2   1  -1 684.947  48.931   6
   1  -1  -1 18.9559  1.6257   5
  -1  -1   1 20.5082  1.5701   5
   1  -1  -1 15.6185  1.5963   4
  -1  -1   1 22.5375  1.9265   4
  -1   1   1 18.4501  1.6079   4
   0  -1  -1 52.1436  3.2520   4
   0  -1   1 49.5097  3.3126   5
   0  -1  -1 56.2175  3.2829   5
   0   1   1 49.6215  3.2464   4
   0   1   1 58.8724  3.2893   5
   0   1  -1 46.0463  3.2733   5
   1  -1   1 40.3930  2.8694   4
   1  -1   1 41.4797  3.0858   5
   2  -1   1 1146.55   69.37   4
   2  -1   1 1114.29   75.45   6
   2  -1   1 1155.38   69.34   5
  -2  -1  -1 1151.61   75.51   6
   2  -1   1 1154.79   87.97   3
  -2   1  -1 955.758  75.676   6
  -2   1  -1 1282.95   69.73   2
   2   1   1 1112.45   75.46   6
   2   1   1 990.494  69.660   2
   2   1   1 1214.83   69.32   4
   3  -1   1 54.2262  3.8636   5
  -3  -1  -1 47.0462  3.5378   2
   3  -1   1 46.3046  4.9060   3
  -3  -1  -1 51.1425  3.5772   4
  -3  -1  -1 53.2911  4.0394   6
   3  -1   1 51.7621  3.7797   4
   3  -1   1 46.8647  3.8359   6
   3   1   1 51.0957  3.8809   6
  -3   1  -1 39.8472  3.5978   4
   3   1   1 46.7817  3.6107   2
  -3   1  -1 51.1510  3.7411   2
  -3   1  -1 55.7159  4.3971   6
   3   1   1 51.0026  3.5212   4
  -4  -1  -1 14.8169  1.7722   2
   4  -1   1 12.7352  1.8249   4
   4  -1   1 11.3751  1.8503   6
   4  -1   1 12.5929  2.3712   3
  -4  -1  -1 19.0765  2.2646   6
   4  -1   1 11.5594  1.8710   5
   4  -1   1 17.0996  2.0178   2
  -4  -1  -1 11.7899  1.6428   4
   4   1   1 14.9775  1.9778   6
  -4   1  -1 15.1718  1.7473   4
   4   1   1 14.9181  1.8667   2
  -4   1  -1 14.4487  1.9148   2
  -4   1  -1 20.5067  2.4090   6
   4   1   1 12.4034  1.6583   4
   5  -1   1 15.4319  2.1575   6
   5  -1   1 14.8815  2.6692   3
   5  -1   1 16.3685  2.1047   2
  -5  -1  -1 16.3552  2.3945   6
   5  -1   1 13.6064  1.9301   5
  -5  -1  -1 14.3709  2.0187   2
   5  -1   1 14.1020  1.9574   4
  -5  -1  -1 11.8094  1.8863   4
  -5   1  -1 15.0202  2.0726   2
  -5   1  -1 15.4543  1.8912   4
   5   1   1 13.8821  1.9873   2
   5   1   1 11.8823  2.1555   6
  -5   1  -1 21.0980  2.4479   6
   5   1   1 10.3152  1.8304   4
  -6  -1  -1 1732.16  121.90   6
  -6  -1  -1 1780.03  112.50   2
  -6  -1  -1 1797.43  111.92   4
   6  -1   1 1769.04  111.85   4
   6  -1   1 1833.86  121.85   6
   6  -1   1 1673.59  141.63   3
   6  -1   1 1992.29  111.63   5
   6   1   1 1586.59  111.86   4
  -6   1  -1 1973.12  111.86   4
   6   1   1 1996.22  112.58   2
   6   1   1 1743.21  121.88   6
  -6   1  -1 1886.97  112.45   2
  -7  -1  -1 16.8353  2.5344   6
  -7  -1  -1 22.5214  2.6387   2
   7  -1   1 14.7520  2.1947   4
   7  -1   1 15.0014  2.5973   6
   7  -1   1 18.7636  3.0986   3
   7  -1   1 19.4146  2.4088   2
  -7  -1  -1 19.7099  2.4109   4
  -7   1  -1 16.8033  2.4860   6
   7   1   1 18.3992  2.5190   2
   7   1   1 17.4841  2.4421   4
   7   1   1 22.3356  2.7306   6
  -7   1  -1 18.4513  2.2849   2
   8  -1   1 3.54801 1.57259   4
   8  -1   1 3.99858 1.70987   2
   8  -1   1 6.62564 2.37190   3
  -8  -1  -1 3.54016 1.82081   2
   8  -1   1 2.16576 1.74338   6
  -8  -1  -1 3.16128 1.75474   6
  -8   1  -1 5.30300 1.74305   6
  -8   1  -1 3.44167 1.60796   2
   8   1   1 4.41011 1.80494   2
   8   1   1 4.76548 1.85967   6
  -9  -1  -1 3.35149 1.69399   6
   9  -1   1 2.33177 2.19314   3
   9  -1   1 2.67810 1.55232   4
  -9  -1  -1 2.62184 1.83376   2
   9  -1   1 5.31198 1.94113   6
   9   1   1 2.10901 1.73023   6
  -9   1  -1 2.27092 1.54598   2
  -9   1  -1 2.07706 1.65693   6
   9   1   1 4.35726 1.85083   2
  10  -1   1 1881.58  129.50   6
 -10  -1  -1 1840.89  129.32   6
  10  -1   1 1820.59  150.46   3
 -10  -1  -1 2000.97  119.61   2
 -10   1  -1 1932.20  129.45   6
  10   1   1 2116.19  119.61   2
 -10   1  -1 1976.49  119.44   2
  10   1   1 1832.83  129.38   6
  11  -1   1 32.8474  3.7972   6
 -11  -1  -1 28.3906  3.3736   6
  11  -1   1 30.0843  4.1947   3
  11   1   1 32.4731  3.7032   6
 -11   1  -1 27.2240  3.2526   2
 -11   1  -1 30.2591  3.5130   6
 -12  -1  -1 25.0447  3.3651   6
  12  -1   1 25.5895  3.4930   6
  12   1   1 24.1172  3.3943   6
 -12   1  -1 32.1945  3.3093   2
 -12   1  -1 24.5452  3.3771   6
 -13  -1  -1 15.5114  2.7424   6
  13  -1   1 12.5520  2.8454   6
  13   1   1 14.6312  2.7948   6
 -13   1  -1 13.1744  2.6727   6
 -14  -1  -1 997.743  66.462   6
  14   1   1 959.238  66.528   6
 -14   1  -1 981.510  66.498   6
 -14  -2   1 15.6505  2.9845   6
  14  -2  -1 20.0651  3.3498   6
  13  -2  -1 498.874  32.678   6
  13  -2  -1 469.279  37.910   3
 -13  -2   1 484.267  32.395   6
  13   2  -1 406.639  32.388   6
 -13   2   1 490.085  32.634   6
  12  -2  -1 122.712  12.218   3
 -12  -2   1 146.553  10.437   6
  12  -2  -1 142.531  10.760   6
  12   2  -1 130.100  10.487   6
  12   2  -1 141.606   9.724   2
 -12   2   1 147.846  10.739   6
 -11  -2   1 549.472  36.956   6
  11  -2  -1 513.341  43.166   3
  11  -2  -1 587.472  37.315   6
 -11   2   1 547.070  37.199   6
  11   2  -1 539.941  34.177   2
  11   2  -1 514.758  37.001   6
 -11   2   1 521.848  34.170   2
 -10  -2   1 24.8711  2.9501   6
  10  -2  -1 18.3158  3.3024   6
  10  -2  -1 17.5756  3.6607   3
  10   2  -1 18.6516  2.9007   6
 -10   2   1 23.0287  3.2198   6
  10   2  -1 21.5639  2.7371   2
 -10   2   1 16.6680  2.6712   2
  -9  -2   1 576.629  33.705   4
   9  -2  -1 546.793  36.897   6
  -9  -2   1 517.559  36.521   6
   9  -2  -1 525.233  42.816   3
   9   2  -1 537.033  33.785   2
  -9   2   1 606.540  36.934   6
   9   2  -1 493.427  36.597   6
  -9   2   1 474.790  33.793   2
  -8  -2   1 47.2573  4.3018   6
   8  -2  -1 46.1612  4.2906   4
   8  -2  -1 39.1835  5.3555   3
   8  -2  -1 43.2816  4.0838   5
   8  -2  -1 51.2258  4.2254   2
   8  -2  -1 44.6135  4.6476   6
  -8  -2   1 62.0719  4.2792   4
   8   2  -1 48.4262  4.0963   2
  -8   2   1 44.8357  4.3740   2
  -8   2   1 54.9742  4.7712   6
   8   2  -1 53.1662  4.6071   6
   7  -2  -1 1198.67   75.64   5
   7  -2  -1 1073.01   82.57   6
  -7  -2   1 1389.37   75.98   4
  -7  -2   1 1358.41   82.58   6
  -7  -2   1 1270.36   76.37   2
   7  -2  -1 1039.57   75.87   4
   7  -2  -1 1384.14   76.40   2
   7  -2  -1 1031.71   96.02   3
   7   2  -1 1220.26   82.69   6
  -7   2   1 1286.94   82.77   6
   6  -2  -1 520.199  44.303   3
  -6  -2   1 596.905  38.095   6
   6  -2  -1 561.233  38.053   6
   6  -2  -1 582.710  34.818   5
   6  -2  -1 522.783  35.230   2
   6  -2  -1 564.698  35.016   4
  -6  -2   1 622.572  35.092   4
  -6  -2   1 526.122  35.158   2
   6   2  -1 540.351  38.203   6
  -6   2   1 586.182  35.197   2
  -6   2   1 576.693  35.061   4
  -6   2   1 502.595  38.087   6
  -5  -2   1 238.979  16.531   2
   5  -2  -1 280.382  16.768   2
   5  -2  -1 271.131  16.451   4
   5  -2  -1 273.653  16.371   5
   5  -2  -1 258.074  17.840   6
  -5  -2   1 277.539  16.637   4
   5  -2  -1 288.551  21.019   3
  -5   2   1 248.236  16.488   2
  -5   2   1 258.700  16.575   4
  -5   2   1 227.326  17.905   6
   5   2  -1 232.467  18.038   6
  -4  -2   1 54.8339  4.1991   4
   4  -2  -1 59.0510  3.9313   5
   4  -2  -1 61.8809  4.1643   2
   4  -2  -1 53.3250  3.8811   4
   4  -2  -1 58.4200  4.2250   6
  -4  -2   1 47.8606  5.3886   1
  -4  -2   1 68.2168  4.6523   6
   4   2  -1 56.3950  4.3285   2
  -4   2   1 58.6064  3.9279   2
  -4   2   1 54.6489  4.0210   4
  -4   2   1 51.3630  4.2989   6
   4   2  -1 65.3711  4.5322   6
   4   2  -1 50.3045  3.8862   4
   3  -2  -1 960.453  59.844   5
  -3  -2   1 919.610  65.505   6
   3  -2  -1 1008.77   65.28   6
   3  -2  -1 944.657  60.329   2
  -3  -2   1 915.323  77.023   1
   3  -2  -1 1104.98   59.97   4
  -3   2   1 1021.60   60.04   4
   3   2  -1 1027.55   65.35   6
  -3   2   1 965.388  60.239   2
   3   2  -1 868.941  60.504   2
  -3   2   1 974.213  65.320   6
  -2  -2   1 2004.68  118.71   5
   2  -2  -1 1799.94  119.01   4
   2  -2  -1 2047.34  118.67   5
  -2  -2   1 1858.04  152.35   1
  -2   2   1 1934.61  129.47   6
  -2   2   1 2005.28  118.92   4
  -2   2   1 1819.80  119.52   2
   2   2  -1 2025.33  129.44   6
  -1  -2   1 162.446  11.269   4
  -1  -2   1 199.427  11.215   4
   1  -2  -1 185.592  11.286   5
  -1  -2   1 192.861  11.252   5
   1  -2  -1 207.149  12.254   6
  -1  -2   1 167.188  14.888   1
   1  -2  -1 178.580  11.234   4
  -1   2   1 174.105  11.293   2
  -1   2   1 171.065  11.291   2
   1   2  -1 157.646  11.356   2
  -1   2   1 195.279  12.267   6
   0  -2   1 179.094  10.587   4
   0  -2   1 164.752  10.670   5
   0  -2   1 149.125  14.103   1
   0  -2  -1 182.898  11.581   6
   0  -2  -1 177.194  10.670   5
   0  -2   1 166.392  10.580   4
   0  -2  -1 175.307  10.629   4
   0   2   1 163.469  10.680   2
   0   2   1 181.364  11.574   6
  -1  -2  -1 58.9433  3.7171   5
   1  -2   1 51.6890  3.7861   5
   1  -2   1 58.5001  3.5951   4
  -1  -2  -1 56.9549  3.6580   4
  -1  -2  -1 58.3323  4.0005   6
   1   2   1 56.0181  3.9642   6
   1   2   1 63.7278  3.7078   2
  -1   2  -1 53.5034  3.6053   2
   2  -2   1 1260.10   80.67   5
  -2  -2  -1 1364.16   87.96   6
  -2  -2  -1 1263.19   80.74   4
   2  -2   1 1399.25   80.71   4
   2   2   1 1282.19   81.16   2
   2   2   1 1332.71   80.72   4
  -2   2  -1 1217.34   81.08   2
   2   2   1 1392.73   87.89   6
   3  -2   1 334.971  19.933   6
  -3  -2  -1 303.831  20.152   6
  -3  -2  -1 274.240  18.415   2
   3  -2   1 276.016  18.474   5
   3  -2   1 280.156  18.348   4
  -3  -2  -1 306.637  18.437   4
   3   2   1 320.376  19.990   6
   3   2   1 306.219  18.337   4
   3   2   1 284.643  18.526   2
  -3   2  -1 312.372  18.452   2
  -3   2  -1 244.609  20.147   6
   4  -2   1 167.954  12.669   3
   4  -2   1 159.333   9.914   5
   4  -2   1 149.548   9.773   4
  -4  -2  -1 137.836  10.824   6
  -4  -2  -1 138.671   9.808   4
   4  -2   1 157.382  10.526   6
  -4  -2  -1 143.163   9.735   2
  -4   2  -1 150.525   9.818   2
   4   2   1 157.260  10.628   6
   4   2   1 147.360   9.919   2
  -4   2  -1 166.519  10.912   6
   4   2   1 147.275   9.677   4
   5  -2   1 51.0147  4.1374   6
  -5  -2  -1 48.2348  3.8342   2
  -5  -2  -1 48.6713  4.4858   6
   5  -2   1 50.9755  3.9530   4
  -5  -2  -1 45.8988  3.9437   4
   5  -2   1 51.2658  4.0987   5
   5  -2   1 51.4733  5.2280   3
   5  -2   1 63.8030  4.1294   2
  -5   2  -1 57.6844  4.5011   6
   5   2   1 44.3953  3.7362   4
   5   2   1 59.6038  4.3309   6
  -5   2  -1 50.0083  3.9945   2
  -5   2  -1 53.0883  3.9155   4
   5   2   1 47.3615  4.0467   2
  -6  -2  -1 164.407  11.010   6
  -6  -2  -1 143.318   9.951   4
   6  -2   1 164.900  10.034   5
  -6  -2  -1 154.218   9.975   2
   6  -2   1 139.369   9.918   4
   6  -2   1 146.262  12.704   3
   6  -2   1 126.845  10.606   6
   6   2   1 140.142   9.805   4
   6   2   1 158.951  10.901   6
  -6   2  -1 138.756   9.959   2
   6   2   1 153.870  10.082   2
   7  -2   1 300.805  19.069   4
  -7  -2  -1 322.040  20.820   6
   7  -2   1 306.474  24.276   3
  -7  -2  -1 347.010  19.253   4
   7  -2   1 292.670  19.002   5
   7  -2   1 251.142  20.578   6
  -7  -2  -1 259.447  19.112   2
   7   2   1 292.505  20.831   6
  -7   2  -1 300.004  19.180   2
   8  -2   1 64.9387  7.2200   3
  -8  -2  -1 72.5113  6.0010   2
   8  -2   1 70.0332  6.1742   6
  -8  -2  -1 84.8938  5.9090   4
   8  -2   1 81.4537  5.7223   5
   8  -2   1 69.4484  5.6192   4
  -8  -2  -1 77.0900  6.1923   6
  -8   2  -1 70.5739  5.7050   2
   8   2   1 66.1642  6.2205   6
   8   2   1 86.9324  5.9681   2
  -8   2  -1 85.2363  6.2724   6
  -9  -2  -1 3.77875 1.79169   6
   9  -2   1 7.70767 2.67026   3
   9  -2   1 3.44101 2.03149   6
   9  -2   1 8.10250 1.96485   4
   9   2   1 5.51071 2.01477   2
  -9   2  -1 5.50836 1.90302   2
   9   2   1 2.86933 1.91181   6
  -9   2  -1 5.95284 2.10115   6
 -10  -2  -1 5.62885 1.89907   6
  10  -2   1 8.97874 2.26885   6
  10  -2   1 6.35681 2.65737   3
 -10   2  -1 6.72793 2.14689   6
  10   2   1 3.66077 1.98237   2
 -10   2  -1 3.50836 1.78516   2
  10   2   1 3.20415 2.03996   6
 -11  -2  -1 106.112   8.805   6
  11  -2   1 127.052   9.240   6
  11  -2   1 106.833  10.538   3
  11   2   1 130.191   8.514   2
  11   2   1 113.602   9.058   6
 -11   2  -1 118.817   9.095   6
 -11   2  -1 118.104   8.364   2
  12  -2   1 22.9957  3.9920   3
 -12  -2  -1 23.9748  3.1775   6
  12  -2   1 26.2353  3.5027   6
 -12   2  -1 22.1306  3.3061   6
 -12   2  -1 23.7360  3.0849   2
  12   2   1 22.5008  3.3877   6
  13  -2   1 147.241  10.276   6
 -13  -2  -1 121.693   9.945   6
 -13   2  -1 134.335  10.077   6
  13   2   1 124.954  10.041   6
 -14  -2  -1 8.45563 2.44154   6
  14   2   1 3.65775 2.24866   6
  13  -3  -1 5.80448 2.96720   3
 -13  -3   1 3.83110 2.08102   6
  13  -3  -1 9.45052 2.77979   6
 -13   3   1 4.08626 2.33980   6
  13   3  -1 4.43548 2.46406   6
 -12  -3   1 146.800  10.430   6
  12  -3  -1 158.652  11.061   6
  12  -3  -1 132.310  12.551   3
 -12   3   1 122.822   9.707   2
 -12   3   1 157.122  10.888   6
  12   3  -1 119.210  10.437   6
  12   3  -1 142.465   9.848   2
  11  -3  -1 4.40123 2.51363   6
  11  -3  -1 3.13280 2.90673   3
 -11  -3   1 3.44630 1.91057   6
  11   3  -1 3.04152 2.13921   6
 -11   3   1 3.31054 2.15954   2
 -11   3   1 3.71276 2.25946   6
  11   3  -1 3.46386 1.94455   2
 -10  -3   1 3.60070 1.85955   6
  10  -3  -1 3.07984 2.27214   6
  10  -3  -1 5.95071 3.02893   3
  10   3  -1 4.76502 1.96808   2
 -10   3   1 6.31284 2.27767   2
 -10   3   1 5.42895 2.52757   6
  10   3  -1 3.09665 2.13905   6
  -9  -3   1 1.45043 1.76071   4
  -9  -3   1 1.83519 1.68828   6
   9  -3  -1 3.78066 2.69988   3
   9  -3  -1 -0.2588  1.8414   4
   9  -3  -1 1.07190 1.96437   5
   9  -3  -1 1.86812 2.19388   6
   9   3  -1 2.71674 2.11257   6
  -9   3   1 1.79300 2.13493   6
   9   3  -1 1.63386 1.77030   2
  -9   3   1 1.06915 1.92393   2
   8  -3  -1 55.8387  5.0616   4
   8  -3  -1 61.0085  5.0804   5
  -8  -3   1 66.6190  5.1972   6
   8  -3  -1 49.7625  6.4199   3
  -8  -3   1 78.8708  5.1437   4
   8  -3  -1 55.2242  5.4504   6
   8   3  -1 57.1843  5.4934   6
  -8   3   1 67.1021  5.6538   6
   8   3  -1 71.1094  5.0703   2
  -8   3   1 53.1068  5.0671   2
  -7  -3   1 108.120   7.191   4
   7  -3  -1 89.9127  7.5442   6
   7  -3  -1 99.8371  9.1711   3
   7  -3  -1 96.0190  7.1075   4
  -7  -3   1 110.043   7.601   6
   7  -3  -1 96.0287  7.0298   5
  -7   3   1 89.4497  7.7336   6
   7   3  -1 96.3934  7.8731   6
   7   3  -1 105.909   7.203   2
  -7   3   1 106.584   7.201   2
  -6  -3   1 92.3932  6.3253   4
   6  -3  -1 87.5590  6.5095   6
   6  -3  -1 91.7985  7.9595   3
   6  -3  -1 89.8518  6.0733   5
   6  -3  -1 98.3724  6.1021   4
  -6  -3   1 73.9249  5.6358   5
   6  -3  -1 80.1055  6.3648   2
  -6  -3   1 89.5938  6.6151   6
  -6   3   1 77.1645  6.6543   6
   6   3  -1 102.038   6.479   2
  -6   3   1 88.5601  6.0863   2
   6   3  -1 73.4441  6.6855   6
   5  -3  -1 5.86749 1.58588   2
   5  -3  -1 2.64658 1.00953   6
  -5  -3   1 4.89616 1.50242   6
  -5  -3   1 2.80531 1.39162   4
  -5  -3   1 3.78185 0.80660   5
   5  -3  -1 4.34241 1.09878   5
  -5  -3   1 3.12092 0.98326   2
   5  -3  -1 3.83659 0.97299   4
  -5   3   1 1.64117 1.14440   6
  -5   3   1 2.56424 1.17023   4
  -5   3   1 6.03728 1.08587   2
   5   3  -1 3.40960 1.34271   6
   5   3  -1 1.42012 1.40120   2
   4  -3  -1 262.028  15.377   4
  -4  -3   1 258.877  15.267   5
  -4  -3   1 217.524  15.617   4
   4  -3  -1 253.390  15.425   5
   4  -3  -1 253.366  16.716   6
  -4  -3   1 262.901  17.061   6
   4  -3  -1 246.154  15.644   2
   4   3  -1 219.985  16.770   6
  -4   3   1 250.155  15.523   4
  -4   3   1 230.089  16.799   6
  -4   3   1 237.516  15.424   2
  -3  -3   1 82.0564  6.0467   6
  -3  -3   1 75.0028  7.5710   1
   3  -3  -1 83.4183  5.5937   6
   3  -3  -1 84.3590  5.1522   4
   3  -3  -1 75.5226  5.2328   5
  -3  -3   1 86.2249  5.1511   5
  -3  -3   1 67.5275  5.3282   4
   3   3  -1 78.6540  5.6154   6
   3   3  -1 70.1787  5.4276   2
  -3   3   1 85.9512  5.6807   6
  -3   3   1 75.7802  5.1493   2
  -3   3   1 86.4469  5.2667   4
   2  -3  -1 467.338  28.400   6
  -2  -3   1 376.171  28.608   6
  -2  -3   1 414.821  26.150   4
  -2  -3   1 405.808  34.172   1
   2  -3  -1 434.461  26.132   5
  -2  -3   1 444.099  26.066   5
  -2   3   1 434.704  26.209   2
   2   3  -1 401.788  28.361   6
   2   3  -1 411.179  26.313   2
  -1  -3   1 23.3664  1.7281   4
  -1  -3   1 22.8200  3.6049   1
   1  -3  -1 24.9989  1.9039   5
  -1  -3   1 22.1854  1.8632   5
   1  -3  -1 22.5911  1.7153   4
   1  -3  -1 23.6448  1.8756   6
  -1  -3   1 23.6638  1.6757   4
  -1   3   1 23.3987  1.7267   2
  -1   3   1 27.5435  1.9321   6
   1   3  -1 21.9856  1.7558   2
  -1   3   1 25.2047  1.7306   2
   1   3  -1 27.1897  1.8311   6
   0  -3  -1 1560.65  103.09   6
   0  -3   1 1395.77   94.54   5
   0  -3   1 1608.26   94.71   4
   0  -3   1 1541.04   94.77   4
   0  -3  -1 1487.19   94.67   4
   0  -3  -1 1646.98   94.56   5
   0   3  -1 1556.99   95.18   2
   0   3   1 1481.36  103.13   6
   0   3   1 1595.61   95.21   2
   1  -3   1 120.541   7.626   4
  -1  -3  -1 121.166   7.770   5
  -1  -3  -1 118.890   7.696   4
   1  -3   1 121.265   7.826   5
   1  -3   1 124.104   7.654   4
  -1  -3  -1 122.447   8.399   6
   1   3   1 120.312   7.734   2
   1   3   1 124.757   8.358   6
  -1   3  -1 122.036   7.665   2
  -2  -3  -1 641.122  37.176   5
  -2  -3  -1 609.271  40.557   6
   2  -3   1 584.589  37.181   4
   2  -3   1 626.607  37.136   4
  -2  -3  -1 612.975  37.210   4
   2  -3   1 596.495  48.180   1
   2  -3   1 659.569  40.393   6
   2  -3   1 613.183  37.263   5
  -2   3  -1 610.538  37.313   2
   2   3   1 554.484  37.391   2
   2   3   1 612.243  40.473   6
  -2   3  -1 516.115  40.481   6
   3  -3   1 15.9193  1.3834   4
   3  -3   1 20.0031  1.8190   5
   3  -3   1 16.3320  1.4092   6
   3  -3   1 23.3364  3.0829   1
  -3  -3  -1 17.5280  1.5273   4
  -3  -3  -1 18.1677  1.5740   5
  -3  -3  -1 19.1450  1.9278   6
   3   3   1 18.4902  1.5835   2
   3   3   1 16.0312  1.5312   6
   3   3   1 18.0792  1.3989   4
  -3   3  -1 15.0105  1.7883   6
  -3   3  -1 18.3946  1.3877   2
  -4  -3  -1 762.165  45.291   4
  -4  -3  -1 790.050  45.360   2
   4  -3   1 751.109  49.065   6
   4  -3   1 699.126  45.237   5
   4  -3   1 825.968  45.198   4
  -4  -3  -1 737.420  49.451   6
   4   3   1 669.897  45.489   2
  -4   3  -1 611.807  49.293   6
   4   3   1 689.236  45.099   4
   4   3   1 745.777  49.163   6
  -4   3  -1 752.562  45.373   2
   5  -3   1 492.785  40.254   3
  -5  -3  -1 555.486  31.721   2
   5  -3   1 519.592  31.707   5
   5  -3   1 518.083  31.615   4
   5  -3   1 547.417  34.275   6
  -5  -3  -1 526.690  31.773   4
  -5  -3  -1 494.810  34.684   6
   5   3   1 477.779  31.903   2
   5   3   1 534.695  34.420   6
   5   3   1 477.860  31.458   4
  -5   3  -1 543.692  31.779   2
  -5   3  -1 427.137  34.496   6
   5   3   1 474.162  31.461   4
  -6  -3  -1 246.308  17.333   2
   6  -3   1 277.761  18.724   6
   6  -3   1 271.727  22.232   3
   6  -3   1 287.211  17.510   5
  -6  -3  -1 258.612  19.088   6
  -6  -3  -1 237.858  17.448   4
   6  -3   1 276.905  17.429   4
  -6   3  -1 291.098  17.528   2
  -6   3  -1 306.007  19.183   6
   6   3   1 260.052  18.901   6
   6   3   1 271.438  17.665   2
   7  -3   1 0.87704 1.49601   6
   7  -3   1 0.79031 1.64720   5
  -7  -3  -1 3.61632 1.87121   6
  -7  -3  -1 1.72316 1.66271   2
  -7  -3  -1 3.90037 1.74395   4
   7  -3   1 0.17900 2.12950   3
   7  -3   1 3.62180 1.69179   4
   7   3   1 2.00394 1.71836   2
   7   3   1 0.90187 1.67678   6
  -7   3  -1 0.52163 1.67694   2
  -7   3  -1 2.27686 1.83933   6
  -8  -3  -1 27.0792  2.8442   6
   8  -3   1 16.6895  2.7109   5
   8  -3   1 13.5831  2.5715   6
   8  -3   1 14.8070  3.4680   3
   8  -3   1 16.0410  2.5742   4
  -8  -3  -1 19.3758  2.7816   4
   8   3   1 24.1349  2.9497   2
   8   3   1 14.5239  2.8766   6
  -8   3  -1 15.1688  2.6021   2
  -8   3  -1 20.6625  2.9344   6
  -9  -3  -1 315.514  22.331   6
   9  -3   1 305.770  26.360   3
   9  -3   1 334.217  20.762   5
   9  -3   1 318.252  20.718   4
  -9   3  -1 332.343  22.563   6
  -9   3  -1 321.907  20.827   2
   9   3   1 292.114  22.598   6
   9   3   1 344.803  20.962   2
  10  -3   1 144.537  13.830   3
  10  -3   1 161.871  10.863   4
  10  -3   1 160.001  11.855   6
 -10  -3  -1 150.626  11.506   6
  10   3   1 187.826  11.206   2
  10   3   1 147.058  11.818   6
 -10   3  -1 163.727  11.818   6
 -10   3  -1 151.985  10.831   2
  11  -3   1 3.84651 2.91152   3
 -11  -3  -1 0.60114 1.80184   6
  11  -3   1 3.71506 2.30649   6
  11   3   1 2.25114 2.15223   6
  11   3   1 3.73609 2.11687   2
 -11   3  -1 1.67414 2.16494   6
 -11   3  -1 3.22398 1.86315   2
  12  -3   1 44.5585  4.4799   6
  12  -3   1 32.5016  5.1314   3
 -12  -3  -1 35.8892  4.0202   6
 -12   3  -1 35.9108  4.2188   6
  12   3   1 38.2090  4.1924   6
 -12   3  -1 38.6443  3.8360   2
  13  -3   1 38.2738  5.3825   3
 -13  -3  -1 40.9791  4.1599   6
  13   3   1 39.2294  4.3115   6
 -13   3  -1 36.7960  4.0353   2
 -13   3  -1 33.5217  4.1338   6
 -14  -3  -1 170.776  12.587   6
  13   4  -1 52.7563  5.5279   6
  13   4  -1 61.6753  5.2593   2
 -13   4   1 57.4587  5.2765   2
  12  -4  -1 538.559  36.338   6
  12  -4  -1 488.877  42.187   3
  12   4  -1 479.313  36.004   6
 -12   4   1 509.834  33.418   2
 -12   4   1 563.820  36.361   6
  12   4  -1 554.792  33.351   2
  11  -4  -1 59.1351  7.1458   3
  11  -4  -1 70.5031  6.2001   6
 -11  -4   1 65.3970  5.4158   6
 -11   4   1 59.7893  5.4958   2
 -11   4   1 73.3660  6.3270   6
  11   4  -1 54.9960  5.6809   6
  11   4  -1 62.6151  5.3104   2
 -10  -4   1 632.790  42.038   6
 -10  -4   1 615.898  38.944   4
  10  -4  -1 543.699  49.454   3
  10   4  -1 596.575  42.425   6
 -10   4   1 574.721  39.302   2
  10   4  -1 656.731  39.149   2
 -10   4   1 697.924  42.751   6
   9  -4  -1 206.064  14.586   4
  -9  -4   1 256.841  14.625   4
   9  -4  -1 181.384  15.570   6
   9  -4  -1 182.607  18.374   3
  -9  -4   1 238.349  15.386   6
   9  -4  -1 215.561  14.523   5
  -9   4   1 230.138  15.952   6
   9   4  -1 216.229  15.824   6
  -9   4   1 190.046  14.562   2
   9   4  -1 245.369  14.562   2
  -8  -4   1 851.306  51.326   6
   8  -4  -1 770.129  47.273   5
  -8  -4   1 892.308  47.592   4
   8  -4  -1 664.316  60.026   3
   8  -4  -1 687.212  51.405   6
   8  -4  -1 744.876  47.422   4
  -8   4   1 761.798  47.658   2
  -8   4   1 700.338  51.636   6
   8   4  -1 738.694  51.741   6
  -7  -4   1 21.6185  2.4991   6
   7  -4  -1 24.0590  3.5770   3
  -7  -4   1 18.2004  2.6164   4
   7  -4  -1 23.3961  2.5698   5
   7  -4  -1 18.4320  2.3680   4
   7  -4  -1 18.4484  2.4649   6
   7   4  -1 21.7724  2.8651   2
   7   4  -1 13.8754  2.6707   6
  -7   4   1 18.5998  2.3940   2
  -7   4   1 14.7609  2.6546   6
   6  -4  -1 424.152  26.051   5
  -6  -4   1 420.992  28.367   6
   6  -4  -1 438.580  28.230   6
  -6  -4   1 364.766  26.214   4
   6  -4  -1 443.562  26.037   4
  -6   4   1 453.428  26.188   2
   6   4  -1 407.731  26.444   2
  -6   4   1 390.041  28.421   6
   6   4  -1 384.168  28.435   6
   5  -4  -1 407.638  23.795   5
   5  -4  -1 390.904  23.691   4
  -5  -4   1 360.756  23.982   4
  -5  -4   1 420.480  26.031   6
  -5  -4   1 345.920  23.543   5
   5  -4  -1 407.794  25.749   6
  -5   4   1 355.458  23.784   2
  -5   4   1 369.552  25.898   6
   5   4  -1 416.552  25.954   6
   5   4  -1 319.699  24.070   2
   4  -4  -1 941.971  62.489   4
   4  -4  -1 1045.25   68.01   6
  -4  -4   1 1038.24   68.31   6
   4  -4  -1 1103.60   62.54   5
  -4  -4   1 1012.10   62.36   5
  -4  -4   1 997.081  62.733   4
  -4   4   1 1029.39   62.80   2
   4   4  -1 907.373  63.041   2
   4   4  -1 1058.55   68.10   6
  -3  -4   1 11.7177  1.2882   5
   3  -4  -1 14.5936  1.2099   6
  -3  -4   1 11.6560  1.2907   4
   3  -4  -1 13.3222  1.1127   4
  -3  -4   1 9.17824 3.01588   1
  -3  -4   1 13.8528  1.8442   6
   3  -4  -1 11.5794  1.3504   5
   3   4  -1 10.5229  1.3758   2
  -3   4   1 10.2723  1.1273   2
   3   4  -1 14.1460  1.2572   6
   2  -4  -1 48.4454  3.2962   6
  -2  -4   1 45.0469  3.0800   4
  -2  -4   1 33.4686  5.5058   1
   2  -4  -1 44.8425  3.0363   4
  -2  -4   1 38.6423  3.6219   6
   2  -4  -1 44.8604  3.2149   5
  -2  -4   1 48.4673  3.0313   4
  -2  -4   1 51.3685  3.0428   4
  -2  -4   1 43.9909  3.1873   5
  -2   4   1 47.4380  3.3710   6
   2   4  -1 43.6931  3.1255   2
   2   4  -1 51.0754  3.2918   6
  -2   4   1 44.6059  3.0589   2
   1  -4  -1 304.161  20.372   5
   1  -4  -1 351.078  22.075   6
  -1  -4   1 273.708  27.123   1
  -1  -4   1 347.978  20.244   4
  -1  -4   1 338.959  20.267   4
   1  -4  -1 337.227  20.274   4
  -1  -4   1 324.357  20.375   5
   1   4  -1 309.075  20.370   2
  -1   4   1 339.963  22.102   6
   1   4  -1 347.562  22.033   6
  -1   4   1 318.366  20.372   2
   0  -4  -1 1253.82   80.46   5
   0  -4   1 1287.33   80.46   4
   0  -4   1 1372.32   80.47   4
   0  -4  -1 1230.52   80.51   4
   0  -4   1 1234.77   80.47   5
   0  -4  -1 1276.08   87.67   6
   0   4  -1 1306.88   87.61   6
   0   4   1 1404.64   80.92   2
   0   4  -1 1293.01   80.87   2
   0   4   1 1446.81   87.67   6
   1  -4   1 533.574  32.619   4
   1  -4   1 573.149  32.643   4
  -1  -4  -1 525.563  32.681   4
  -1  -4  -1 452.249  35.584   6
   1  -4   1 556.037  32.797   5
  -1  -4  -1 572.085  32.752   5
   1   4   1 513.684  32.848   2
  -1   4  -1 502.862  32.777   2
   1   4   1 545.953  35.568   6
   2  -4   1 1.18250 2.62151   1
  -2  -4  -1 4.53092 0.87446   5
  -2  -4  -1 3.73555 0.90851   6
   2  -4   1 6.90443 1.07834   5
  -2  -4  -1 4.52625 0.68700   4
   2   4   1 7.24479 0.76576   6
  -2   4  -1 5.24761 0.74892   6
   2   4   1 4.60427 0.72706   2
  -2   4  -1 4.80059 0.59375   2
   3  -4   1 199.044  12.193   4
  -3  -4  -1 211.517  12.350   5
  -3  -4  -1 194.006  13.533   6
   3  -4   1 186.649  12.244   4
  -3  -4  -1 193.624  12.282   4
   3  -4   1 193.908  12.436   5
   3  -4   1 208.503  16.588   1
   3   4   1 205.171  12.397   2
  -3   4  -1 191.249  12.238   2
  -3   4  -1 184.199  13.354   6
   3   4   1 186.290  13.301   6
  -4  -4  -1 1112.00   66.36   5
   4  -4   1 1180.72   66.43   4
   4  -4   1 1068.98   66.52   5
  -4  -4  -1 1080.10   66.53   4
   4  -4   1 1148.86   72.19   6
  -4  -4  -1 1051.98   72.64   6
  -4   4  -1 989.330  66.706   2
  -4   4  -1 1015.24   72.43   6
   4   4   1 991.502  66.864   2
   4   4   1 1143.76   72.35   6
   5  -4   1 1663.15  103.43   4
  -5  -4  -1 1584.87  103.56   4
   5  -4   1 1603.36  103.41   5
   5  -4   1 1906.87  112.47   6
  -5  -4  -1 1648.62  112.98   6
  -5   4  -1 1532.99  112.75   6
   5   4   1 1786.33  112.64   6
   5   4   1 1716.28  104.16   2
  -5   4  -1 1671.33  103.93   2
  -6  -4  -1 35.2544  3.3683   4
   6  -4   1 35.5904  3.3926   5
   6  -4   1 38.4885  4.5268   3
  -6  -4  -1 34.7022  3.8941   6
   6  -4   1 43.1169  3.1428   6
  -6  -4  -1 32.1979  2.9273   5
   6  -4   1 38.0889  3.1514   4
  -6   4  -1 31.5339  3.6749   6
  -6   4  -1 41.5434  3.2810   2
   6   4   1 39.3555  3.5035   2
   6   4   1 36.0048  3.4997   6
  -7  -4  -1 295.763  19.895   6
   7  -4   1 275.010  23.301   3
   7  -4   1 288.470  18.323   5
   7  -4   1 275.986  19.484   6
  -7  -4  -1 253.139  18.257   4
   7  -4   1 277.629  18.233   4
  -7   4  -1 287.631  19.921   6
  -7   4  -1 306.844  18.372   2
   7   4   1 274.211  18.428   2
   7   4   1 284.772  19.844   6
  -8  -4  -1 509.151  31.088   6
   8  -4   1 421.179  28.674   4
   8  -4   1 398.194  36.360   3
  -8  -4  -1 455.927  28.780   4
   8  -4   1 443.506  28.718   5
   8  -4   1 405.835  30.859   6
  -8   4  -1 527.625  31.375   6
  -8   4  -1 398.715  28.747   2
   8   4   1 439.112  31.269   6
   8   4   1 508.352  29.023   2
   9  -4   1 1393.89  116.60   3
  -9  -4  -1 1527.10   99.88   6
   9  -4   1 1351.29   91.98   4
   9  -4   1 1521.48   91.96   5
  -9  -4  -1 1646.20   92.23   4
  -9   4  -1 1347.44   92.46   2
  -9   4  -1 1696.81  100.32   6
   9   4   1 1383.56  100.27   6
  10  -4   1 279.787  18.568   4
 -10  -4  -1 291.008  19.836   6
  10  -4   1 262.872  23.616   3
  10  -4   1 289.024  18.628   5
  10   4   1 306.976  18.792   2
 -10   4  -1 274.460  18.628   2
  10   4   1 255.444  20.229   6
 -10   4  -1 302.051  20.231   6
  11  -4   1 410.449  34.347   3
 -11  -4  -1 419.843  29.034   6
 -11   4  -1 446.819  29.461   6
  11   4   1 455.488  27.229   2
 -11   4  -1 386.436  27.036   2
  11   4   1 407.438  29.426   6
  12  -4   1 59.4118  6.8374   3
 -12  -4  -1 57.7184  5.2513   6
  12   4   1 66.5913  5.5112   2
 -12   4  -1 66.9444  5.8562   6
 -12   4  -1 59.0645  5.2280   2
  12   4   1 50.8659  5.5547   6
 -13  -4  -1 454.126  32.414   6
  13   4   1 454.492  32.702   6
 -13   4  -1 477.103  30.192   2
 -13   4  -1 498.603  32.776   6
  13   5  -1 2.59330 2.14819   2
 -13   5   1 2.85737 2.18798   2
  13   5  -1 -0.3317  2.3044   6
  12  -5  -1 111.678  11.441   3
  12   5  -1 113.864   9.518   6
  12   5  -1 138.893   8.982   2
 -12   5   1 115.693   9.027   2
  11  -5  -1 4.28727 3.28273   3
  11   5  -1 5.62705 2.45662   2
 -11   5   1 2.93622 2.46310   2
  11   5  -1 4.09591 2.41339   6
  10  -5  -1 3.59649 2.12048   6
  10  -5  -1 3.08720 2.98308   3
  10  -5  -1 2.47186 2.28368   4
 -10  -5   1 1.25242 2.08971   4
  10   5  -1 2.68261 2.41079   6
 -10   5   1 2.13839 2.34654   2
  10   5  -1 7.59957 2.31497   2
   9  -5  -1 54.3757  4.7940   5
   9  -5  -1 46.5510  6.2399   3
   9  -5  -1 49.6233  4.9643   4
   9  -5  -1 45.6564  4.7422   6
  -9  -5   1 62.6999  5.1011   4
  -9   5   1 56.5095  5.0801   2
   9   5  -1 60.8895  4.8965   2
   9   5  -1 48.8855  5.4894   6
   8  -5  -1 154.214  10.029   4
  -8  -5   1 139.611  10.441   6
   8  -5  -1 145.177  12.970   3
   8  -5  -1 146.994  10.098   5
  -8  -5   1 154.472  10.256   4
   8  -5  -1 143.778  10.597   6
  -8   5   1 141.939  10.021   2
   8   5  -1 149.793  11.157   6
  -8   5   1 127.831  10.910   6
   8   5  -1 151.087  10.264   2
   7  -5  -1 12.4497  1.9607   6
  -7  -5   1 12.2206  2.0066   6
   7  -5  -1 8.95315 2.00914   5
   7  -5  -1 13.7185  1.9950   4
  -7  -5   1 9.90797 2.30219   4
   7   5  -1 17.1353  2.6628   6
  -7   5   1 11.2781  1.9259   2
   7   5  -1 24.8018  2.9014   2
  -6  -5   1 27.8121  3.1895   4
  -6  -5   1 30.1528  3.0795   6
   6  -5  -1 37.0142  2.9312   6
   6  -5  -1 33.9439  2.8141   4
   6  -5  -1 36.2138  3.0905   5
  -6   5   1 32.0661  2.7787   2
   6   5  -1 35.4161  3.2700   6
   6   5  -1 31.7939  3.3282   2
   5  -5  -1 222.036  14.131   5
  -5  -5   1 217.429  14.226   4
  -5  -5   1 226.485  15.347   6
  -5  -5   1 185.810  13.873   5
   5  -5  -1 230.424  13.951   4
   5  -5  -1 237.430  15.136   6
   5   5  -1 226.462  15.277   6
  -5   5   1 222.762  14.011   2
   5   5  -1 218.399  14.384   2
   4  -5  -1 78.4326  5.4686   5
   4  -5  -1 81.1391  5.2257   4
  -4  -5   1 77.1732  5.3189   5
  -4  -5   1 76.1166  5.4083   4
  -4  -5   1 78.4997  5.9311   6
   4  -5  -1 85.9932  5.6335   6
   4   5  -1 83.0754  5.7438   6
  -4   5   1 79.1595  5.2539   2
   4   5  -1 73.0405  5.4868   2
  -3  -5   1 41.7365  3.4554   6
   3  -5  -1 41.6002  2.9178   4
   3  -5  -1 46.1870  3.1291   6
  -3  -5   1 46.4071  3.1521   5
   3  -5  -1 37.8167  3.1469   5
  -3  -5   1 41.2545  2.9925   4
  -3   5   1 44.8917  3.2742   6
   3   5  -1 43.4592  3.0854   2
  -3   5   1 38.4876  2.9177   2
   3   5  -1 43.0323  3.1770   6
  -2  -5   1 211.924  13.775   4
   2  -5  -1 212.783  13.769   4
  -2  -5   1 223.264  13.758   4
  -2  -5   1 221.857  13.934   5
   2  -5  -1 215.191  13.955   5
   2  -5  -1 216.464  14.960   6
  -2   5   1 244.905  15.066   6
   2   5  -1 214.126  13.878   2
   2   5  -1 234.944  14.972   6
  -2   5   1 216.374  13.845   2
  -1  -5   1 310.539  19.913   5
   1  -5  -1 301.880  19.916   5
  -1  -5   1 331.269  19.731   4
   1  -5  -1 313.121  19.754   4
  -1  -5   1 323.657  19.752   4
   1   5  -1 318.734  19.848   2
  -1   5   1 345.466  21.557   6
   1   5  -1 328.076  21.470   6
  -1   5   1 296.911  19.849   2
   0  -5   1 51.3773  8.1373   1
   0  -5   1 77.3663  5.1124   5
   0  -5  -1 72.2941  5.2747   6
   0  -5  -1 75.2824  4.8573   4
   0  -5   1 75.6598  4.7995   4
   0  -5   1 71.0090  4.7825   4
   0  -5  -1 84.5979  5.1116   5
   0   5  -1 75.3134  4.8191   2
   0   5  -1 79.9517  5.2302   6
   0   5   1 73.6214  4.8642   2
   0   5   1 82.2614  5.2852   6
  -1  -5  -1 21.1577  1.8803   5
   1  -5   1 22.6239  1.5581   4
  -1  -5  -1 20.1201  1.8266   6
   1  -5   1 24.0479  2.0066   5
   1  -5   1 20.4919  1.5175   4
   1  -5   1 15.5462  4.3237   1
  -1  -5  -1 20.1023  1.5954   4
  -1   5  -1 21.6569  1.5419   2
  -1   5  -1 21.9762  1.7184   6
   1   5   1 23.5919  1.7515   6
   1   5   1 20.7786  1.6334   2
   2  -5   1 251.225  14.469   4
  -2  -5  -1 231.455  14.517   4
  -2  -5  -1 248.671  14.665   5
  -2  -5  -1 214.205  15.865   6
   2  -5   1 223.401  14.715   5
   2  -5   1 238.096  14.436   4
   2   5   1 240.278  14.601   2
  -2   5  -1 212.750  14.489   2
   2   5   1 232.924  15.771   6
   3  -5   1 152.331   9.654   6
   3  -5   1 143.772   8.958   4
  -3  -5  -1 143.282   9.054   4
  -3  -5  -1 149.640   9.202   5
  -3  -5  -1 137.576  10.072   6
   3  -5   1 143.835   9.310   5
   3   5   1 148.675   9.153   2
  -3   5  -1 135.781   8.994   2
   3   5   1 127.063   9.787   6
   4  -5   1 241.222  14.286   4
  -4  -5  -1 218.350  14.377   4
  -4  -5  -1 221.335  15.960   6
  -4  -5  -1 244.214  14.494   5
   4  -5   1 222.313  15.387   6
   4  -5   1 208.320  14.548   5
  -4   5  -1 231.243  14.331   2
   4   5   1 223.572  14.511   2
   4   5   1 231.771  15.603   6
  -4   5  -1 233.987  15.668   6
  -5  -5  -1 4.47145 1.86120   6
  -5  -5  -1 3.92908 1.21984   4
  -5  -5  -1 2.23297 1.10667   5
   5  -5   1 3.41595 1.41590   5
   5  -5   1 2.85025 0.94024   4
   5  -5   1 3.35890 0.79106   6
  -5   5  -1 2.28726 1.28227   6
  -5   5  -1 2.21026 0.92508   2
   5   5   1 3.71163 1.09455   6
   5   5   1 4.36184 1.30454   2
   6  -5   1 46.7019  3.6776   4
   6  -5   1 49.4481  4.0563   5
  -6  -5  -1 43.2948  3.6346   5
  -6  -5  -1 46.7835  4.4708   6
   6  -5   1 55.4956  5.4279   3
  -6  -5  -1 45.1459  3.9262   4
  -6   5  -1 50.4217  3.6719   2
   6   5   1 44.7777  4.0861   2
  -6   5  -1 44.9307  4.1675   6
   6   5   1 45.3831  3.9765   6
   7  -5   1 58.0217  4.5113   4
   7  -5   1 53.4071  6.0999   3
  -7  -5  -1 53.8752  4.6379   4
   7  -5   1 58.3804  4.7827   5
  -7  -5  -1 65.6392  5.1109   6
   7   5   1 52.4402  4.8055   6
   7   5   1 57.9565  4.8209   2
  -7   5  -1 42.8598  4.9479   6
  -7   5  -1 53.8025  4.4878   2
  -8  -5  -1 500.396  31.963   6
   8  -5   1 428.242  37.593   3
  -8  -5  -1 457.067  29.657   4
   8  -5   1 416.679  29.463   4
   8  -5   1 445.777  29.600   5
   8   5   1 482.334  32.256   6
   8   5   1 484.758  29.899   2
  -8   5  -1 464.539  29.713   2
  -8   5  -1 498.150  32.337   6
  -9  -5  -1 10.1289  2.1947   6
   9  -5   1 1.46712 3.03090   3
   9  -5   1 8.80081 2.47045   4
   9  -5   1 7.05015 2.67309   5
  -9  -5  -1 6.08870 2.43578   4
  -9   5  -1 7.11453 2.49343   2
   9   5   1 4.96064 2.60628   6
  -9   5  -1 9.89090 2.84532   6
   9   5   1 10.0175  2.7855   2
  10  -5   1 5.86657 2.69328   5
  10  -5   1 3.19587 2.25252   4
 -10  -5  -1 3.13798 1.89148   6
  10  -5   1 0.04720 2.86280   3
 -10   5  -1 4.04655 2.51953   6
  10   5   1 5.08803 2.62451   6
 -10   5  -1 4.90436 2.47887   2
  10   5   1 3.18318 2.48345   2
  11  -5   1 31.2670  3.8328   4
 -11  -5  -1 32.5940  3.5988   6
  11  -5   1 27.3420  5.0178   3
 -11   5  -1 32.9893  3.9260   2
 -11   5  -1 40.0364  4.5680   6
  11   5   1 32.5881  3.9842   2
  11   5   1 36.1954  4.6849   6
  12  -5   1 446.372  36.951   3
  12   5   1 403.939  31.542   6
 -12   5  -1 430.203  29.112   2
 -12   5  -1 493.994  31.766   6
  12   5   1 492.182  29.293   2
 -13   5  -1 39.6766  4.5905   6
 -13   5  -1 39.6215  4.2839   2
  12   6  -1 338.556  22.167   2
 -12   6   1 335.639  22.457   2
  12   6  -1 342.368  24.196   6
  11   6  -1 374.596  21.224   2
  11   6  -1 313.821  22.981   6
 -11   6   1 272.255  21.189   2
  10  -6  -1 287.174  20.884   4
  10  -6  -1 250.851  26.345   3
 -10  -6   1 379.838  21.103   4
 -10   6   1 290.057  21.003   2
  10   6  -1 325.564  22.928   6
  10   6  -1 378.597  21.104   2
   9  -6  -1 33.1011  4.1548   4
   9  -6  -1 35.4371  5.5189   3
   9  -6  -1 37.1314  4.3501   5
  -9  -6   1 45.7193  4.3994   4
  -9   6   1 47.5643  4.2270   2
   9   6  -1 43.4548  4.3204   2
   9   6  -1 38.9415  4.9286   6
   8  -6  -1 197.392  13.348   4
   8  -6  -1 215.775  17.478   3
   8  -6  -1 197.967  13.507   5
  -8  -6   1 194.700  13.707   4
  -8   6   1 221.798  13.574   2
   8   6  -1 198.270  13.751   2
   8   6  -1 187.991  14.759   6
  -7  -6   1 328.799  22.273   4
   7  -6  -1 363.980  21.998   4
   7  -6  -1 356.312  22.159   5
   7   6  -1 356.361  24.152   6
   7   6  -1 327.672  22.440   2
  -7   6   1 342.087  22.074   2
   6  -6  -1 709.334  46.924   6
   6  -6  -1 725.365  43.435   5
  -6  -6   1 720.694  43.570   4
   6  -6  -1 650.592  43.201   4
   6   6  -1 720.727  47.244   6
   6   6  -1 705.247  43.858   2
  -6   6   1 650.239  43.437   2
   5  -6  -1 9.03414 1.24979   4
  -5  -6   1 7.45575 1.54172   4
   5  -6  -1 12.6758  1.3623   6
   5  -6  -1 11.8781  1.7862   5
  -5  -6   1 6.34088 1.36818   5
  -5   6   1 8.54678 1.24058   2
   5   6  -1 11.9326  1.8238   2
   5   6  -1 8.63965 1.52544   6
  -5   6   1 14.2118  1.7231   6
   4  -6  -1 208.613  13.416   5
  -4  -6   1 209.859  13.252   4
   4  -6  -1 192.152  14.199   6
   4  -6  -1 210.339  13.153   4
  -4  -6   1 193.145  13.296   5
  -4   6   1 207.314  13.215   2
   4   6  -1 219.061  14.355   6
   4   6  -1 211.419  13.397   2
  -4   6   1 228.903  14.451   6
  -3  -6   1 132.580   8.991   5
   3  -6  -1 135.802   9.465   6
   3  -6  -1 135.444   9.038   5
   3  -6  -1 143.448   8.780   4
  -3  -6   1 131.497   8.780   4
   3   6  -1 142.249   9.531   6
   3   6  -1 131.830   8.881   2
  -3   6   1 136.008   8.805   2
  -3   6   1 153.135   9.643   6
   2  -6  -1 1033.29   65.06   5
  -2  -6   1 973.354  65.050   5
  -2  -6   1 1092.70   64.98   4
   2  -6  -1 1074.10   64.97   4
   2  -6  -1 1063.56   70.69   6
  -2   6   1 1072.72   65.30   2
  -2   6   1 1132.22   70.80   6
   2   6  -1 1040.07   65.30   2
   2   6  -1 1017.83   70.69   6
  -1  -6   1 2.91248 0.63465   4
   1  -6  -1 3.15999 1.02819   5
  -1  -6   1 7.84887 1.25806   5
   1  -6  -1 4.85059 0.70000   4
   1  -6  -1 2.80935 0.72008   6
   1   6  -1 3.87667 0.68559   2
  -1   6   1 4.67756 0.71406   2
  -1   6   1 3.48054 0.76511   6
   0  -6  -1 510.278  31.449   4
   0  -6   1 520.411  31.677   5
   0  -6  -1 494.942  31.635   5
   0  -6  -1 478.776  34.232   6
   0  -6   1 489.329  31.405   4
   0   6  -1 484.909  31.552   2
   0   6   1 523.471  31.599   2
   0   6  -1 552.442  34.198   6
   0   6   1 528.769  34.239   6
  -1  -6  -1 30.7971  2.1296   4
  -1  -6  -1 32.0131  2.4853   5
  -1  -6  -1 26.4581  2.3771   6
   1  -6   1 27.7752  2.0113   4
   1  -6   1 27.6568  2.5066   5
  -1   6  -1 31.7866  2.2719   6
   1   6   1 26.3236  2.2570   6
  -1   6  -1 28.8410  2.0330   2
   1   6   1 29.5751  2.1307   2
  -2  -6  -1 697.304  52.792   6
  -2  -6  -1 826.069  48.434   4
   2  -6   1 763.943  48.603   5
  -2  -6  -1 734.489  48.505   5
   2  -6   1 784.405  48.344   4
   2   6   1 833.794  52.715   6
  -2   6  -1 904.870  52.718   6
   2   6   1 764.394  48.668   2
  -2   6  -1 753.882  48.579   2
   3  -6   1 0.42540 1.11951   5
  -3  -6  -1 1.40646 1.07381   5
  -3  -6  -1 2.37879 1.33507   6
  -3  -6  -1 5.32202 0.91522   4
   3  -6   1 1.43286 0.60434   4
  -3   6  -1 1.85326 0.86744   6
   3   6   1 2.46076 0.82486   6
  -3   6  -1 2.56335 0.68709   2
   3   6   1 2.16227 0.81905   2
  -4  -6  -1 679.607  42.971   5
   4  -6   1 691.285  43.122   5
  -4  -6  -1 644.929  47.029   6
  -4  -6  -1 704.424  42.941   4
   4  -6   1 707.134  42.833   4
   4   6   1 759.513  46.720   6
   4   6   1 676.684  43.184   2
  -4   6  -1 682.000  43.018   2
  -5  -6  -1 45.1333  3.5621   4
   5  -6   1 47.8376  3.8713   5
  -5  -6  -1 45.1712  3.6718   5
  -5  -6  -1 45.2104  4.3536   6
   5  -6   1 51.0637  3.4526   4
   5   6   1 50.3900  3.7977   2
  -5   6  -1 46.1713  3.4292   2
   5   6   1 46.1826  3.7717   6
   6  -6   1 397.031  24.949   5
   6  -6   1 376.568  24.573   4
  -6  -6  -1 394.708  24.777   4
  -6  -6  -1 418.330  27.180   6
   6   6   1 394.286  25.021   2
   6   6   1 398.482  26.821   6
  -6   6  -1 377.729  24.688   2
  -6   6  -1 379.210  26.910   6
  -7  -6  -1 6.60788 2.04976   6
   7  -6   1 7.99824 2.07659   5
   7  -6   1 7.56725 1.73034   4
   7  -6   1 5.76450 2.74355   3
  -7  -6  -1 6.19920 1.85309   4
  -7   6  -1 6.17625 1.68273   2
  -7   6  -1 4.87520 2.01407   6
   7   6   1 3.62622 1.82678   6
   7   6   1 7.68429 2.26775   2
   8  -6   1 376.631  24.603   4
   8  -6   1 378.199  31.536   3
   8  -6   1 398.361  24.852   5
  -8  -6  -1 439.638  26.598   6
  -8   6  -1 337.360  26.803   6
   8   6   1 363.066  24.915   2
   8   6   1 381.927  26.855   6
  -8   6  -1 392.415  24.751   2
  -9  -6  -1 103.855   8.812   4
   9  -6   1 123.910   9.342   5
   9  -6   1 122.413   9.004   4
   9  -6   1 110.553  11.564   3
  -9   6  -1 125.656   9.128   2
  -9   6  -1 146.106  10.119   6
   9   6   1 118.506   9.868   6
   9   6   1 131.018   9.304   2
  10  -6   1 161.868  16.490   3
  10  -6   1 185.559  12.999   4
  10   6   1 172.862  14.141   6
  10   6   1 216.719  13.226   2
 -10   6  -1 205.697  14.227   6
 -10   6  -1 174.853  13.039   2
  11  -6   1 0.99178 3.25773   3
  11  -6   1 5.11345 2.49104   4
 -11   6  -1 3.66603 2.61752   2
  11   6   1 6.75205 2.91608   6
  11   6   1 2.79346 2.70928   2
  12   6   1 100.453   7.419   2
  12   6   1 79.9635  7.7225   6
 -12   6  -1 87.1846  7.1106   2
  13   6   1 150.630  10.810   2
  12   7  -1 418.550  25.117   2
 -12   7   1 346.406  25.119   2
  11  -7  -1 2.07155 3.43680   3
 -11   7   1 4.83093 2.80975   6
 -11   7   1 0.65402 2.62631   2
  11   7  -1 2.72677 2.84768   6
  11   7  -1 0.24994 2.46888   2
  10  -7  -1 200.513  20.104   3
  10   7  -1 260.894  16.056   2
  10   7  -1 238.501  17.422   6
 -10   7   1 230.639  15.886   2
  -9  -7   1 34.2271  4.2527   4
   9  -7  -1 37.4235  3.9419   4
   9  -7  -1 34.5615  5.4384   3
   9   7  -1 37.7109  4.4001   2
  -9   7   1 38.7675  3.9903   2
   9   7  -1 40.0104  4.8332   6
   8  -7  -1 578.177  35.667   5
   8  -7  -1 576.085  35.466   4
   8  -7  -1 591.114  45.438   3
   8   7  -1 578.683  38.914   6
  -8   7   1 554.147  35.644   2
   8   7  -1 542.939  35.985   2
  -8   7   1 522.102  38.746   6
   7  -7  -1 53.4289  3.9430   4
   7  -7  -1 51.1089  4.3300   5
  -7  -7   1 45.3957  4.2662   4
  -7   7   1 48.7363  4.0013   2
  -7   7   1 45.1375  4.5142   6
   7   7  -1 46.9955  4.5753   2
   7   7  -1 48.1209  4.5187   6
   6  -7  -1 302.708  19.666   5
   6  -7  -1 275.426  19.313   4
  -6  -7   1 313.595  19.627   4
  -6   7   1 301.761  19.467   2
   6   7  -1 338.992  19.919   2
   6   7  -1 307.808  21.215   6
  -6   7   1 312.569  21.251   6
   5  -7  -1 2.06974 1.43346   5
   5  -7  -1 1.90082 0.96120   4
  -5  -7   1 1.98156 1.10704   4
  -5   7   1 2.66131 1.00396   2
   5   7  -1 3.04257 1.22376   6
  -5   7   1 -0.2786  1.0735   6
   5   7  -1 1.63814 1.41321   2
  -4  -7   1 384.241  24.302   4
  -4  -7   1 332.500  24.408   5
   4  -7  -1 369.580  24.523   5
   4  -7  -1 404.349  24.263   4
  -4   7   1 430.388  26.525   6
   4   7  -1 397.036  26.432   6
   4   7  -1 407.652  24.517   2
  -4   7   1 387.312  24.381   2
  -3  -7   1 97.1612  7.6052   5
  -3  -7   1 117.639   7.359   4
   3  -7  -1 115.236   7.655   5
   3  -7  -1 115.570   7.318   4
  -3   7   1 120.905   8.067   6
   3   7  -1 119.677   7.423   2
   3   7  -1 107.341   7.936   6
  -3   7   1 112.839   7.351   2
   2  -7  -1 343.369  22.359   4
  -2  -7   1 351.940  22.668   5
   2  -7  -1 343.303  22.628   5
  -2  -7   1 370.656  22.363   4
  -2   7   1 393.360  24.422   6
   2   7  -1 359.225  24.322   6
  -2   7   1 329.699  22.465   2
   2   7  -1 388.371  22.512   2
  -1  -7   1 9.78817 1.67750   5
   1  -7  -1 10.9636  1.0711   4
  -1  -7   1 8.50836 0.99865   4
   1  -7  -1 17.6939  1.8261   5
  -1   7   1 5.55305 0.95957   2
   1   7  -1 9.37389 1.03744   2
  -1   7   1 7.81518 1.01940   2
  -1   7   1 11.4090  1.2482   6
   1   7  -1 9.86468 1.12083   6
   0  -7   1 113.255   7.440   4
   0  -7  -1 116.518   7.843   5
   0  -7  -1 118.448   7.493   4
   0  -7   1 118.941   7.923   5
   0   7   1 123.881   8.182   6
   0   7  -1 119.560   8.115   6
   0   7  -1 118.395   7.479   2
   0   7   1 112.280   7.528   2
  -1  -7  -1 78.4101  5.6708   5
  -1  -7  -1 75.4353  5.2630   4
   1  -7   1 79.8050  5.7134   5
   1  -7   1 85.7185  5.1868   4
  -1   7  -1 78.9211  5.2100   2
   1   7   1 82.0056  5.7195   6
  -1   7  -1 79.9736  5.2003   2
   1   7   1 79.7807  5.3021   2
  -1   7  -1 83.0178  5.6933   6
   2  -7   1 316.571  20.257   4
   2  -7   1 324.477  20.700   5
  -2  -7  -1 305.595  20.579   5
  -2  -7  -1 328.162  20.338   4
  -2   7  -1 325.891  20.369   2
   2   7   1 338.999  22.144   6
   2   7   1 305.780  20.430   2
  -2   7  -1 364.677  22.147   6
   3  -7   1 2.98764 1.40895   5
  -3  -7  -1 5.59579 1.41756   5
  -3  -7  -1 4.27519 0.89257   4
   3  -7   1 2.93504 0.74684   4
   3   7   1 2.92956 0.96917   6
  -3   7  -1 3.44999 0.97761   6
  -3   7  -1 3.60702 0.77922   2
   4  -7   1 40.8621  2.9030   4
   4  -7   1 38.2274  3.5428   5
  -4  -7  -1 42.2128  3.0500   4
  -4  -7  -1 38.2073  3.3867   5
  -4   7  -1 38.5736  2.9221   2
   4   7   1 38.7346  3.2730   6
  -4   7  -1 42.1027  3.3542   6
   4   7   1 40.5913  3.1275   2
  -5  -7  -1 56.4274  4.2308   4
  -5  -7  -1 57.2756  4.3864   5
   5  -7   1 57.8349  4.0388   4
   5  -7   1 61.8823  4.7573   5
   5   7   1 55.8391  4.3198   2
   5   7   1 59.9228  4.5027   6
  -5   7  -1 53.4089  4.0550   2
   6  -7   1 208.372  13.613   4
   6  -7   1 200.453  14.064   5
  -6  -7  -1 219.969  13.823   4
   6   7   1 213.329  14.901   6
   6   7   1 221.224  14.013   2
  -6   7  -1 210.317  13.690   2
   7  -7   1 73.7987  5.8119   5
  -7  -7  -1 69.7197  5.4506   4
   7  -7   1 74.3235  5.2462   4
   7  -7   1 67.4525  7.3817   3
   7   7   1 75.4554  5.7910   2
  -7   7  -1 62.3220  5.2437   2
   7   7   1 70.6245  5.8605   6
  -8  -7  -1 80.0874  6.4375   4
   8  -7   1 85.3116  6.2551   4
   8  -7   1 77.2231  8.4936   3
   8  -7   1 87.1389  6.8451   5
   8   7   1 78.2763  6.6306   2
   8   7   1 82.2411  6.9170   6
  -8   7  -1 83.4671  6.3460   2
   9  -7   1 79.9144  9.0345   3
   9  -7   1 85.3515  6.7514   4
  -9  -7  -1 80.2113  6.6985   4
   9   7   1 88.3192  7.4792   6
  -9   7  -1 85.6176  6.7854   2
   9   7   1 76.8208  6.9686   2
  10  -7   1 119.029  12.356   3
  10  -7   1 123.962   9.606   4
 -10   7  -1 127.568   9.749   2
  10   7   1 136.275  10.783   6
  10   7   1 139.514   9.926   2
  11  -7   1 105.645  11.161   3
 -11   7  -1 106.997   8.728   2
  11   7   1 132.863   9.056   2
  11   7   1 105.766   9.637   6
 -12   7  -1 117.661   9.461   2
  12   7   1 138.016   9.714   2
  11   8  -1 89.0653  6.9622   2
 -11   8   1 87.2521  7.7975   6
  11   8  -1 75.7473  7.2536   6
 -11   8   1 58.2467  6.7176   2
  10  -8  -1 214.730  19.329   3
 -10   8   1 198.495  16.326   6
 -10   8   1 228.144  15.128   2
  10   8  -1 228.559  15.199   2
  10   8  -1 218.502  16.515   6
  -9  -8   1 96.8783  8.2385   4
   9  -8  -1 109.954  10.784   3
   9   8  -1 107.047   8.511   2
  -9   8   1 123.695   8.286   2
   9   8  -1 115.387   9.239   6
  -9   8   1 99.9840  8.9746   6
  -8  -8   1 91.7595  6.8821   4
   8  -8  -1 86.0603  6.4202   4
   8  -8  -1 97.6889  9.2441   3
  -8   8   1 79.5458  7.2166   6
  -8   8   1 84.7368  6.5359   2
   8   8  -1 89.9575  7.4424   6
   8   8  -1 81.9679  6.9873   2
   7  -8  -1 166.273  11.083   5
   7  -8  -1 165.441  10.578   4
  -7  -8   1 156.930  10.822   4
   7   8  -1 161.458  11.728   6
   7   8  -1 154.164  11.029   2
  -7   8   1 150.983  10.625   2
  -7   8   1 160.202  11.675   6
   6  -8  -1 754.760  46.504   4
   6  -8  -1 721.156  46.791   5
  -6  -8   1 733.033  46.649   4
  -6   8   1 733.734  46.745   2
   6   8  -1 788.269  50.781   6
  -6   8   1 765.352  50.746   6
   6   8  -1 747.608  47.013   2
   5  -8  -1 462.522  29.341   5
   5  -8  -1 462.397  28.988   4
  -5  -8   1 471.658  29.087   4
   5   8  -1 473.755  29.296   2
  -5   8   1 492.661  31.672   6
  -5   8   1 421.492  29.069   2
   5   8  -1 470.794  31.611   6
   4  -8  -1 160.720  10.492   4
   4  -8  -1 162.462  10.928   5
  -4  -8   1 156.377  10.521   4
   4   8  -1 167.668  11.473   6
  -4   8   1 166.419  10.569   2
  -4   8   1 176.567  11.556   6
   4   8  -1 158.136  10.625   2
  -3  -8   1 57.3155  4.9967   5
   3  -8  -1 69.7558  4.5226   4
   3  -8  -1 64.1301  4.9946   5
  -3  -8   1 65.2697  4.4766   4
  -3   8   1 63.1206  4.5120   2
  -3   8   1 74.9496  5.0314   6
   3   8  -1 65.0904  4.5721   2
  -2  -8   1 1111.55   66.37   4
   2  -8  -1 1097.45   66.65   5
  -2  -8   1 1065.15   66.68   5
   2  -8  -1 1034.16   66.37   4
  -2   8   1 1005.32   66.70   2
  -2   8   1 1215.63   72.37   6
   2   8  -1 1015.51   66.69   2
  -1  -8   1 775.827  50.779   5
   1  -8  -1 872.325  50.455   4
  -1  -8   1 804.985  50.424   4
   1  -8  -1 858.622  50.774   5
   1   8  -1 777.824  50.662   2
  -1   8   1 738.790  50.670   2
  -1   8   1 858.807  50.717   2
  -1   8   1 856.863  54.955   6
   0  -8   1 267.157  18.302   5
   0  -8   1 287.867  17.808   4
   0  -8  -1 287.332  17.860   4
   0  -8  -1 292.356  18.296   5
   0   8  -1 289.622  17.913   2
   0   8   1 291.791  19.466   6
   0   8   1 285.377  17.968   2
  -1  -8  -1 15.0682  1.4895   4
   1  -8   1 16.4258  1.4264   4
  -1  -8  -1 17.4669  2.1539   5
   1  -8   1 16.4219  2.3233   5
   1   8   1 14.8578  1.5380   2
   1   8   1 16.5525  1.6965   6
  -1   8  -1 16.3246  1.4639   2
  -1   8  -1 15.6992  1.4602   2
  -2  -8  -1 444.603  28.816   5
   2  -8   1 440.782  28.866   5
   2  -8   1 451.020  28.373   4
  -2  -8  -1 465.326  28.460   4
  -2   8  -1 463.203  28.528   2
   2   8   1 434.137  28.605   2
   2   8   1 505.246  31.012   6
   3  -8   1 516.216  33.070   5
  -3  -8  -1 492.806  32.944   5
   3  -8   1 553.600  32.589   4
  -3  -8  -1 539.214  32.680   4
   3   8   1 542.485  32.856   2
  -3   8  -1 509.304  32.736   2
  -4  -8  -1 295.442  19.522   5
  -4  -8  -1 309.332  19.231   4
   4  -8   1 305.727  19.125   4
   4  -8   1 324.846  19.744   5
   4   8   1 286.404  19.337   2
  -4   8  -1 304.112  19.223   2
   4   8   1 316.342  20.944   6
   5  -8   1 88.4879  6.2892   5
  -5  -8  -1 74.1855  5.5905   4
   5  -8   1 77.5823  5.4499   4
  -5   8  -1 82.9753  5.5216   2
   5   8   1 84.7926  6.1114   6
   5   8   1 77.2330  5.6735   2
   6  -8   1 51.7847  4.7989   5
  -6  -8  -1 53.8162  4.3167   4
   6  -8   1 55.4214  4.1512   4
  -6   8  -1 52.8214  4.6652   6
   6   8   1 55.1827  4.5706   6
   6   8   1 58.1035  4.5225   2
  -6   8  -1 56.9660  4.1875   2
   7  -8   1 193.601  15.763   3
   7  -8   1 169.274  12.250   5
  -7  -8  -1 178.450  11.978   4
   7  -8   1 178.745  11.734   4
  -7   8  -1 180.441  11.816   2
   7   8   1 170.181  12.808   6
  -7   8  -1 170.784  12.905   6
   7   8   1 180.615  12.119   2
   8  -8   1 213.800  19.367   3
  -8  -8  -1 230.903  15.085   4
   8  -8   1 226.292  14.846   4
  -8   8  -1 225.937  14.916   2
   8   8   1 223.745  15.231   2
   8   8   1 231.445  16.315   6
  -8   8  -1 214.567  16.286   6
   9  -8   1 12.8839  4.2923   3
  -9  -8  -1 12.6244  2.9506   4
   9  -8   1 12.9929  2.8524   4
   9   8   1 9.48691 2.98952   2
   9   8   1 12.6948  3.1545   6
  -9   8  -1 14.2518  2.9219   2
  10  -8   1 9.48823 3.81498   3
  10   8   1 3.50071 2.97926   2
 -10   8  -1 8.84361 2.94814   2
  10   8   1 6.91970 3.23483   6
  11   8   1 98.5931  7.7417   2
 -11   8  -1 100.263   8.474   6
  11   8   1 85.0056  8.3112   6
 -11   8  -1 75.6180  7.4066   2
  10   9  -1 144.993  10.609   2
  10   9  -1 139.575  11.566   6
 -10   9   1 137.630  10.467   2
   9  -9  -1 12.0829  4.2052   3
  -9   9   1 10.2669  2.9784   6
   9   9  -1 9.74735 3.05365   2
   9   9  -1 14.1679  3.4815   6
  -9   9   1 12.9638  2.7766   2
  -8  -9   1 5.36246 2.29210   4
   8  -9  -1 4.17271 1.90598   4
   8  -9  -1 4.47411 3.59506   3
   8   9  -1 5.95984 2.43961   2
  -8   9   1 1.46024 2.11815   6
  -8   9   1 3.90716 1.97216   2
   8   9  -1 4.59778 2.49607   6
  -7  -9   1 9.32410 1.96313   4
   7  -9  -1 7.19565 1.76308   4
  -7   9   1 7.37979 2.10562   6
   7   9  -1 9.97005 2.28555   2
  -7   9   1 9.04147 1.94604   2
  -6  -9   1 73.1472  5.4823   4
   6  -9  -1 71.8850  5.3566   4
   6   9  -1 77.3008  5.6305   2
  -6   9   1 75.3217  5.4178   2
  -6   9   1 78.2018  6.0132   6
   5  -9  -1 5.25667 1.24581   4
  -5  -9   1 2.71923 1.19183   4
   5  -9  -1 6.88902 2.04305   5
  -5   9   1 3.45114 1.46204   6
   5   9  -1 3.86222 1.39279   2
  -5   9   1 3.94383 1.20503   2
   4  -9  -1 32.3059  2.6271   4
  -4  -9   1 32.3469  2.6021   4
   4  -9  -1 32.4593  3.3173   5
  -4   9   1 33.1524  2.7231   2
   4   9  -1 32.5744  2.7138   2
  -4   9   1 29.2801  2.9575   6
  -3  -9   1 0.56411 0.89069   4
   3  -9  -1 1.29545 1.57370   5
   3  -9  -1 2.44418 0.96261   4
  -3  -9   1 1.74772 1.63899   5
   3   9  -1 2.30473 1.04291   2
  -3   9   1 1.48865 0.95851   2
  -3   9   1 1.73597 1.14256   6
  -2  -9   1 11.5092  1.3103   4
  -2  -9   1 9.05821 2.15317   5
   2  -9  -1 10.9875  1.3602   4
   2  -9  -1 13.7749  2.1351   5
  -2   9   1 11.9170  1.6025   6
  -2   9   1 9.02515 1.33355   2
   2   9  -1 10.8824  1.3956   2
  -1  -9   1 54.3806  4.7586   5
   1  -9  -1 60.4516  4.6558   5
   1  -9  -1 56.3582  3.9053   4
  -1  -9   1 55.8043  3.8732   4
   1   9  -1 58.3334  3.9264   2
  -1   9   1 53.3672  3.9427   2
  -1   9   1 54.9008  3.9609   2
  -1   9   1 61.4248  4.3587   6
   0  -9   1 128.752   8.821   5
   0  -9  -1 126.505   8.702   5
   0  -9  -1 123.434   8.088   4
   0  -9   1 125.046   8.035   4
   0   9   1 119.740   8.139   2
   0   9  -1 128.199   8.106   2
   0   9   1 129.737   8.871   6
   1  -9   1 19.1334  2.6420   5
  -1  -9  -1 16.8042  2.4305   5
   1  -9   1 16.9439  1.5113   4
  -1  -9  -1 15.8801  1.6205   4
   1   9   1 15.3483  1.8342   6
  -1   9  -1 16.2083  1.5706   2
  -1   9  -1 15.2636  1.5640   2
   1   9   1 16.9519  1.6767   2
  -2  -9  -1 32.5638  2.6808   4
   2  -9   1 39.8811  2.5943   4
  -2  -9  -1 31.7061  3.3075   5
   2  -9   1 35.5946  3.4715   5
   2   9   1 32.5392  2.9038   6
   2   9   1 33.0933  2.7274   2
  -2   9  -1 31.8060  2.5947   2
  -3  -9  -1 211.250  13.908   5
  -3  -9  -1 214.388  13.364   4
   3  -9   1 194.611  13.226   4
   3  -9   1 215.003  14.003   5
  -3   9  -1 207.733  13.339   2
   3   9   1 204.681  13.442   2
   3   9   1 225.285  14.578   6
   4  -9   1 105.054   6.772   4
   4  -9   1 105.725   7.581   5
  -4  -9  -1 109.272   6.899   4
  -4  -9  -1 95.1661  7.3923   5
  -4   9  -1 98.9558  6.8133   2
   4   9   1 101.376   7.513   6
   4   9   1 101.558   6.943   2
  -5  -9  -1 57.3757  4.4858   4
   5  -9   1 58.3129  4.3462   4
   5  -9   1 64.2518  5.2820   5
   5   9   1 62.7197  4.9637   6
   5   9   1 61.1340  4.6020   2
  -5   9  -1 65.2167  4.4352   2
   6  -9   1 243.727  15.273   4
  -6  -9  -1 229.887  15.340   4
   6   9   1 258.162  15.612   2
  -6   9  -1 220.263  15.298   2
   6   9   1 239.761  16.700   6
   7  -9   1 131.428  11.176   3
   7  -9   1 104.596   7.711   4
  -7  -9  -1 108.402   7.915   4
  -7   9  -1 109.763   7.836   2
   7   9   1 107.397   8.016   2
   7   9   1 112.776   8.620   6
   8  -9   1 17.9129  4.5611   3
   8  -9   1 16.4587  2.7320   4
  -8  -9  -1 16.8674  2.7638   4
   8   9   1 16.1183  3.1738   6
  -8   9  -1 17.9840  2.7412   2
   8   9   1 17.6337  3.1215   2
   9  -9   1 86.6269  9.5934   3
   9   9   1 82.0998  7.0539   2
  -9   9  -1 82.1186  6.8668   2
   9   9   1 91.3942  7.6846   6
  10   9   1 400.137  25.946   2
  10   9   1 398.406  28.139   6
 -10   9  -1 379.777  25.812   2
  -8  10   1 87.4130  6.7639   2
   8  10  -1 88.9793  6.9011   2
  -7  10   1 63.9209  5.1538   2
   7  10  -1 67.0715  5.3134   2
   6 -10  -1 112.219   7.330   4
  -6 -10   1 103.888   7.331   4
  -6  10   1 104.991   7.340   2
   6  10  -1 102.271   7.432   2
   5 -10  -1 631.939  37.481   4
  -5 -10   1 569.488  37.426   4
   5  10  -1 606.834  37.692   2
  -5  10   1 597.055  37.623   2
  -4 -10   1 117.209   8.025   4
   4 -10  -1 116.845   8.035   4
  -4  10   1 128.495   8.134   2
   4  10  -1 124.968   8.134   2
  -3 -10   1 43.9757  3.5015   4
   3 -10  -1 47.0230  3.5293   4
   3  10  -1 50.2361  3.6367   2
  -3  10   1 49.8021  3.6069   2
   2 -10  -1 9.84754 1.42466   4
   2 -10  -1 10.5006  2.3041   5
  -2 -10   1 9.06995 2.28006   5
  -2 -10   1 8.39409 1.25057   4
  -2  10   1 9.59349 1.41564   2
   2  10  -1 7.95941 1.34291   2
   1 -10  -1 780.807  49.018   4
  -1 -10   1 770.754  48.956   4
  -1 -10   1 766.920  49.656   5
   1 -10  -1 826.036  49.618   5
  -1  10   1 767.483  49.278   2
   1  10  -1 847.085  49.271   2
   0 -10  -1 160.391  10.241   5
   0 -10  -1 138.693   9.391   4
   0 -10   1 133.715   9.314   4
   0 -10   1 160.316  10.398   5
   0  10  -1 154.231   9.440   2
   0  10  -1 138.859   9.409   2
   0  10   1 147.643   9.494   2
   0  10   1 148.869   9.487   2
   1 -10   1 10.8096  2.5854   5
   1 -10   1 9.79060 1.31460   4
  -1 -10  -1 12.8184  2.4089   5
  -1 -10  -1 11.8832  1.4728   4
   1  10   1 10.9911  1.4880   2
  -1  10  -1 11.7441  1.4216   2
   2 -10   1 3.33234 0.94172   4
  -2 -10  -1 3.11664 1.05402   4
   2 -10   1 2.55101 2.01570   5
  -2 -10  -1 5.35854 1.84237   5
  -2  10  -1 2.20735 1.04263   2
   2  10   1 2.18892 1.15016   2
  -3 -10  -1 817.348  50.166   4
   3 -10   1 810.341  50.056   4
  -3 -10  -1 780.022  50.631   5
   3  10   1 849.663  50.435   2
  -3  10  -1 789.576  50.322   2
   4 -10   1 153.156   9.843   4
  -4 -10  -1 150.546   9.932   4
   4  10   1 146.594  10.024   2
  -4  10  -1 157.277   9.932   2
  -5 -10  -1 112.214   8.056   4
   5 -10   1 129.361   8.041   4
   5  10   1 122.088   8.887   6
  -5  10  -1 119.859   8.054   2
   5  10   1 116.420   8.144   2
   6 -10   1 20.5227  2.3709   4
  -6 -10  -1 18.3874  2.3175   4
  -6  10  -1 17.5946  2.2643   2
   6  10   1 17.8928  2.6518   6
   6  10   1 17.7921  2.4345   2
   7 -10   1 620.635  45.881   3
   7  10   1 525.515  35.658   2
  -7  10  -1 550.866  35.588   2
   8 -10   1 123.512  12.572   3
  -8  10  -1 133.297   9.305   2
   8  10   1 133.695  10.254   6
   8  10   1 122.427   9.348   2
  -7  11   1 33.4849  3.3872   2
   7  11  -1 25.5494  3.1665   2
   6  11  -1 3.91435 1.60522   2
  -6  11   1 5.87768 1.71119   2
   5  11  -1 1.72855 1.46633   2
  -5  11   1 3.54510 1.41949   2
   4  11  -1 164.019  10.441   2
  -4  11   1 153.106  10.407   2
   3 -11  -1 40.4836  3.1915   4
  -3 -11   1 37.5842  3.1324   4
   3  11  -1 41.8603  3.2609   2
  -3  11   1 43.3588  3.3451   2
  -2 -11   1 0.20153 0.91310   4
   2 -11  -1 1.37201 1.06781   4
   2  11  -1 0.66093 1.10483   2
  -2  11   1 1.20663 1.19505   2
  -1 -11   1 29.8109  2.4859   4
   1 -11  -1 31.1123  2.6309   4
  -1  11   1 30.1844  2.6569   2
   1  11  -1 33.3700  2.6353   2
   0 -11   1 321.172  20.198   4
   0 -11  -1 331.270  20.265   4
   0  11   1 316.653  20.405   2
   0  11  -1 328.083  20.372   2
   0  11  -1 317.148  20.350   2
   0  11   1 323.672  20.427   2
  -1 -11  -1 0.51708 0.97891   4
   1 -11   1 0.91961 0.94454   4
   1  11   1 1.12093 1.09499   2
   1  11   1 0.34734 1.10562   2
  -1  11  -1 2.05912 1.07024   2
  -2 -11  -1 2.78584 1.18660   4
   2 -11   1 4.48201 1.12192   4
  -2  11  -1 4.18053 1.23868   2
   2  11   1 1.17123 1.26070   2
  -3 -11  -1 69.3149  4.9315   4
   3 -11   1 71.7840  4.8886   4
   3  11   1 67.5183  5.0234   2
  -3  11  -1 70.1789  4.9501   2
  -4 -11  -1 141.398   9.424   4
   4  11   1 140.618   9.454   2
  -4  11  -1 143.822   9.382   2
   5  11   1 35.2510  3.1679   2
  -5  11  -1 32.4327  3.0568   2
  -6  11  -1 5.41054 1.82900   2
   6  11   1 7.14871 1.90001   2
   7  11   1 45.0461  4.2626   2
  -7  11  -1 49.4736  4.2846   2
   5  12  -1 418.105  26.454   2
  -4  12   1 4.58682 1.59006   2
   4  12  -1 1.79496 1.33811   2
   3  12  -1 94.4159  6.5103   2
  -3  12   1 94.3601  6.5871   2
   2  12  -1 40.4734  3.3346   2
  -2  12   1 41.0755  3.3937   2
  -1  12   1 390.973  25.153   2
   1  12  -1 401.278  25.112   2
   1  12  -1 404.018  25.101   2
   0  12   1 8.16682 1.52386   2
   0  12  -1 7.58934 1.50304   2
   1  12   1 29.4173  2.8277   2
   1  12   1 32.1097  2.8505   2
  -1  12  -1 31.2878  2.7418   2
  -2  12  -1 116.778   7.997   2
   2  12   1 122.431   8.081   2
   3  12   1 326.472  21.407   2
  -3  12  -1 347.111  21.389   2
   4  12   1 16.4713  2.1794   2
  -4  12  -1 18.9247  2.2014   2
  -5  12  -1 2.29031 1.54210   2
 -14   0   2 1082.71   73.39   6
  13   0  -2 16.9431  2.9831   6
 -13   0   2 10.3939  2.7664   6
 -12   0   2 173.741  12.327   6
  12   0  -2 155.278  12.219   6
  11   0  -2 11.7934  2.7115   6
 -11   0   2 12.2843  2.6497   6
  11   0  -2 9.09292 2.70937   3
  10   0  -2 1374.18   92.64   2
  10   0  -2 1505.08  100.60   6
 -10   0   2 1587.28  100.59   6
  10   0  -2 1496.61  116.68   3
   9   0  -2 187.235  13.502   2
   9   0  -2 208.441  14.842   6
  -9   0   2 226.905  14.886   6
   9   0  -2 202.017  16.964   3
  -9   0   2 201.059  13.458   2
   8   0  -2 336.740  23.202   2
  -8   0   2 362.009  23.055   4
   8   0  -2 369.988  25.313   6
  -8   0   2 382.038  25.308   6
   8   0  -2 360.035  29.146   3
  -8   0   2 367.383  23.161   2
   7   0  -2 411.622  26.602   4
  -7   0   2 436.690  29.155   6
  -7   0   2 432.929  26.786   2
   7   0  -2 414.347  33.671   3
   7   0  -2 385.867  26.809   2
  -7   0   2 406.191  26.644   4
   7   0  -2 469.506  29.252   6
   6   0  -2 1659.85  123.98   3
  -6   0   2 1482.34   97.96   4
   6   0  -2 1569.31  106.75   6
   6   0  -2 1626.09   97.96   4
  -6   0   2 1778.62   98.52   2
   6   0  -2 1401.31   98.45   2
   5   0  -2 318.390  20.898   4
  -5   0   2 351.869  20.970   4
   5   0  -2 321.621  22.806   6
   5   0  -2 354.892  20.557   5
   5   0  -2 312.689  26.383   3
   5   0  -2 355.728  21.078   2
  -5   0   2 294.851  22.613   6
   4   0  -2 113.528   9.093   6
   4   0  -2 126.426   8.080   5
   4   0  -2 114.283  10.513   3
  -4   0   2 131.474   8.943   6
   4   0  -2 106.922   8.338   4
  -4   0   2 132.809   8.307   4
   4   0  -2 144.470   8.385   2
  -4   0   2 136.571   8.582   2
   3   0  -2 774.862  51.543   4
  -3   0   2 854.875  51.140   5
   3   0  -2 860.897  51.688   2
  -3   0   2 797.683  55.936   6
   3   0  -2 768.847  51.175   5
   3   0  -2 855.499  65.178   3
  -3   0   2 922.436  51.464   4
   2   0  -2 1484.88  106.90   6
  -2   0   2 1618.52  106.82   6
  -2   0   2 1646.07   97.86   5
  -2   0   2 1579.40   98.12   4
   2   0  -2 1678.00   97.81   5
   2   0  -2 1411.52   98.18   4
   2   0  -2 1760.82   98.62   2
   1   0  -2 119.929   7.428   5
  -1   0   2 110.859   7.461   4
   0   0   2 17.3456  1.1718   4
   1   0   2 199.648  12.670   4
   2   0   2 1228.79   96.46   3
   2   0   2 1251.40   83.00   6
  -2   0  -2 1312.78   82.83   6
  -2   0  -2 1149.22   76.52   2
   2   0   2 1249.51   76.17   4
  -3   0  -2 42.5024  3.4689   2
   3   0   2 43.6524  3.9327   6
   3   0   2 40.7821  3.4119   4
  -3   0  -2 50.8629  3.6046   6
   3   0   2 39.1163  4.4596   3
   4   0   2 39.7970  4.8631   3
   4   0   2 62.5516  4.4956   6
  -4   0  -2 61.5966  4.2241   6
  -4   0  -2 43.5065  3.7743   2
   4   0   2 45.8500  3.7986   4
   4   0   2 55.2614  3.7750   2
  -4   0  -2 45.6280  3.5969   4
   5   0   2 13.5513  2.0991   6
   5   0   2 10.6523  1.8151   4
  -5   0  -2 9.18558 1.73568   2
  -5   0  -2 13.9505  1.7771   4
   5   0   2 7.74157 2.12142   3
  -5   0  -2 13.1048  2.1548   6
   5   0   2 6.76833 1.67162   2
   6   0   2 1184.06   70.04   4
   6   0   2 1051.30   70.30   2
  -6   0  -2 1203.18   70.36   2
   6   0   2 1215.09   88.73   3
  -6   0  -2 998.220  76.236   6
   6   0   2 1127.51   76.19   6
  -7   0  -2 61.4839  5.5216   6
   7   0   2 65.3377  5.1028   2
   7   0   2 74.0212  6.5387   3
  -7   0  -2 67.4110  5.0349   2
   7   0   2 66.2150  5.0295   4
   7   0   2 58.1709  5.3194   6
   8   0   2 11.8903  2.1061   6
   8   0   2 4.05095 1.66711   4
   8   0   2 1.45826 1.83730   2
   8   0   2 6.76884 2.37985   3
  -8   0  -2 7.49135 1.96574   6
  -8   0  -2 5.78210 1.77385   2
  -9   0  -2 1.81022 1.64636   2
   9   0   2 2.69031 1.74578   6
  -9   0  -2 4.50527 1.77781   6
 -10   0  -2 851.545  53.742   2
  10   0   2 907.890  58.212   6
 -10   0  -2 812.335  58.105   6
 -11   0  -2 3.25896 1.85302   6
  11   0   2 3.13188 1.90761   6
 -11   0  -2 3.85899 2.04682   2
 -12   0  -2 5.95941 2.10501   6
  12   0   2 4.48131 2.10774   6
  13   0   2 78.7977  6.5139   6
 -13   0  -2 72.4242  6.4422   6
 -14   0  -2 382.597  26.674   6
  14  -1  -2 96.8837  7.8357   6
 -14  -1   2 101.194   7.793   6
 -14   1   2 97.2259  7.7883   6
  14   1  -2 83.2418  7.7452   6
  13  -1  -2 57.5898  5.2903   6
 -13  -1   2 46.3449  4.7655   6
 -13   1   2 48.4476  5.1095   6
  13   1  -2 51.2730  5.0214   6
  12  -1  -2 68.3391  7.2281   3
  12  -1  -2 73.4671  6.4077   6
 -12  -1   2 67.5576  6.1282   6
  12   1  -2 68.8904  6.1640   6
 -12   1   2 78.2734  6.3639   6
  11  -1  -2 73.7628  6.1466   6
  11  -1  -2 62.1064  6.7377   3
 -11  -1   2 64.9208  5.7450   6
 -11   1   2 73.1092  6.0897   6
  11   1  -2 69.8522  5.3987   2
  11   1  -2 64.4195  5.8467   6
 -10  -1   2 294.790  19.150   6
  10  -1  -2 258.973  19.233   6
  10  -1  -2 263.209  22.170   3
  10   1  -2 261.266  17.534   2
 -10   1   2 291.325  19.312   6
  10   1  -2 264.704  19.053   6
 -10   1   2 254.708  17.530   2
   9  -1  -2 50.2683  5.6200   3
  -9  -1   2 54.9289  4.9017   6
  -9  -1   2 48.5911  4.3651   4
   9  -1  -2 50.5574  4.5458   2
   9  -1  -2 58.0420  5.1838   6
   9   1  -2 48.8794  4.3222   2
  -9   1   2 54.4986  4.4315   2
  -9   1   2 62.3394  5.1060   6
   9   1  -2 47.4327  4.6993   6
   8  -1  -2 102.795   9.562   3
  -8  -1   2 120.284   7.600   2
  -8  -1   2 110.194   8.257   6
  -8  -1   2 110.163   7.437   4
   8  -1  -2 111.537   7.689   2
   8  -1  -2 103.888   8.416   6
  -8   1   2 90.6305  7.4503   2
   8   1  -2 106.948   8.203   6
  -8   1   2 116.917   8.428   6
   8   1  -2 100.697   9.255   3
   8   1  -2 98.5573  7.4769   2
  -7  -1   2 353.085  21.020   4
  -7  -1   2 369.285  23.030   6
   7  -1  -2 306.676  21.211   2
   7  -1  -2 334.577  23.125   6
   7  -1  -2 302.134  20.738   5
   7  -1  -2 298.582  21.065   4
  -7   1   2 302.254  21.156   2
   7   1  -2 352.187  26.470   3
   7   1  -2 377.136  23.064   6
  -7   1   2 331.027  23.012   6
   7   1  -2 332.191  21.187   2
  -7   1   2 302.561  21.035   4
  -6  -1   2 70.3456  5.6417   6
  -6  -1   2 87.6880  5.4032   2
   6  -1  -2 64.3164  6.5526   3
   6  -1  -2 59.7788  5.1758   4
   6  -1  -2 60.1644  5.2465   2
   6  -1  -2 59.2777  5.6633   6
   6  -1  -2 71.7734  5.0068   5
  -6  -1   2 76.4043  5.2265   4
   6   1  -2 72.7511  6.3841   3
  -6   1   2 61.5976  5.5813   6
  -6   1   2 69.5499  5.3269   2
   6   1  -2 76.3185  5.1502   4
   6   1  -2 80.2338  5.3997   2
  -6   1   2 66.3463  5.1761   4
   6   1  -2 84.8901  5.8870   6
   5  -1  -2 56.2019  4.0405   4
  -5  -1   2 50.5257  4.8452   1
   5  -1  -2 47.3830  5.0304   3
   5  -1  -2 52.2097  4.3914   6
   5  -1  -2 58.2869  4.0877   2
  -5  -1   2 53.6301  4.1266   4
  -5  -1   2 57.3956  4.1740   2
  -5  -1   2 41.7993  4.2201   6
   5  -1  -2 55.2599  3.7667   5
   5   1  -2 51.8528  4.9234   3
   5   1  -2 55.5994  3.9968   4
  -5   1   2 57.7487  4.0925   2
   5   1  -2 42.6852  4.1209   2
  -5   1   2 51.2138  3.9714   4
   5   1  -2 64.3985  4.6747   6
  -5   1   2 51.2670  4.2558   6
  -4  -1   2 17.9913  2.0347   2
   4  -1  -2 19.1050  1.5718   5
   4  -1  -2 20.1541  1.7971   4
  -4  -1   2 15.6452  1.9659   6
  -4  -1   2 17.3454  2.1577   1
   4  -1  -2 20.7950  1.8164   2
  -4  -1   2 16.1457  2.0331   4
   4  -1  -2 18.7882  1.9640   6
  -4  -1   2 20.0742  1.6193   5
  -4   1   2 17.5295  1.8432   6
  -4   1   2 19.1337  1.8537   2
  -4   1   2 18.7775  1.7500   4
   4   1  -2 15.9118  1.8800   4
   4   1  -2 14.4910  2.1963   3
   4   1  -2 17.2755  2.0766   2
   4   1  -2 22.4968  2.5335   6
  -3  -1   2 555.707  38.369   6
   3  -1  -2 564.802  38.385   6
  -3  -1   2 545.858  35.391   4
   3  -1  -2 561.385  35.247   4
   3  -1  -2 553.901  35.076   5
   3  -1  -2 619.650  35.434   2
  -3   1   2 574.214  38.358   6
   3   1  -2 572.911  35.545   2
  -3   1   2 601.225  35.253   4
   3   1  -2 603.001  38.770   6
  -3   1   2 526.704  35.416   2
   2  -1  -2 149.998   9.755   4
  -2  -1   2 158.297  12.639   1
  -2  -1   2 146.679   9.808   4
   2  -1  -2 163.834   9.707   5
   2  -1  -2 164.640  10.642   6
   2  -1  -2 166.912   9.811   2
  -2  -1   2 157.576  10.585   6
   2   1  -2 160.208   9.845   2
  -2   1   2 159.139   9.805   2
   2   1  -2 133.888  10.930   6
  -2   1   2 156.370   9.750   4
   1  -1  -2 112.401   7.100   5
   1  -1  -2 127.118   7.761   6
  -1  -1   2 113.151   7.072   4
   1  -1  -2 117.119   7.114   4
  -1   1   2 111.524   7.739   6
  -1   1   2 111.660   7.104   4
   1   1  -2 103.714   7.051   5
   0  -1   2 0.95043 1.13603   5
   0  -1  -2 2.20085 0.33582   4
   0   1  -2 2.56934 0.76358   5
   0   1   2 3.01242 0.35101   4
   1  -1   2 123.312   8.706   4
   1  -1   2 143.303   8.585   4
   1  -1   2 116.028   9.015   5
  -1  -1  -2 144.163   8.631   4
   1   1   2 149.117   9.400   6
   1   1   2 146.514   8.639   4
  -2  -1  -2 336.138  20.305   2
  -2  -1  -2 341.210  20.190   4
   2  -1   2 283.109  20.539   5
  -2  -1  -2 344.790  22.004   6
   2   1   2 344.533  20.199   4
   2   1   2 338.308  20.203   4
  -2   1  -2 348.730  22.028   6
   2   1   2 292.811  21.977   6
   2   1   2 305.286  20.285   2
  -3  -1  -2 98.1919  6.9014   6
   3  -1   2 95.6222  6.8168   5
   3  -1   2 100.916   6.653   4
  -3  -1  -2 103.828   6.329   4
   3  -1   2 100.233   8.649   3
  -3  -1  -2 91.6565  6.3676   2
   3   1   2 100.415   6.362   4
   3   1   2 98.1059  6.9343   6
  -3   1  -2 84.7373  6.6445   2
  -3   1  -2 99.7984  7.1357   6
   4  -1   2 65.2402  4.6299   4
  -4  -1  -2 54.3324  4.4320   2
   4  -1   2 81.0900  6.2939   3
   4  -1   2 62.2556  4.8306   5
  -4  -1  -2 63.0842  4.8686   6
   4   1   2 68.2932  4.4856   2
   4   1   2 61.4288  4.4407   4
  -4   1  -2 49.2633  4.3237   4
  -4   1  -2 68.5815  5.2493   6
   4   1   2 64.1228  4.9055   6
  -4   1  -2 69.3820  4.7398   2
   5  -1   2 32.1266  2.8092   5
  -5  -1  -2 24.0368  2.4891   4
   5  -1   2 26.3562  2.7714   6
   5  -1   2 21.5610  2.5568   2
  -5  -1  -2 24.3371  2.8559   6
  -5  -1  -2 27.4659  2.6391   2
   5  -1   2 30.6684  2.6829   4
   5  -1   2 30.0217  3.4312   3
   5   1   2 21.9433  2.5499   2
  -5   1  -2 20.6228  2.3219   4
  -5   1  -2 35.5405  2.7205   2
   5   1   2 22.5262  2.4912   4
   5   1   2 24.3250  2.8638   6
  -5   1  -2 25.8478  3.0138   6
  -6  -1  -2 -0.1871  1.2716   4
  -6  -1  -2 -0.7087  1.3855   2
  -6  -1  -2 0.47568 1.60244   6
   6  -1   2 1.42587 1.89160   3
   6  -1   2 -0.2710  1.2218   4
   6  -1   2 -0.5899  1.3370   6
  -6   1  -2 0.70137 1.25379   2
   6   1   2 -0.2165  1.3290   2
  -6   1  -2 9.14964 1.97397   6
   6   1   2 0.32432 1.34751   4
   6   1   2 2.70176 1.66006   6
   7  -1   2 27.6423  3.8643   3
  -7  -1  -2 28.7294  3.4398   6
   7  -1   2 27.7474  2.8761   4
  -7  -1  -2 31.1262  3.2216   2
  -7  -1  -2 23.4081  3.0213   4
   7  -1   2 34.0497  3.2902   6
   7  -1   2 34.4543  3.2337   2
  -7   1  -2 32.6481  3.2859   6
   7   1   2 27.9412  3.2940   6
  -7   1  -2 26.3438  2.8385   2
   7   1   2 27.3738  3.1027   4
   7   1   2 29.4746  3.1658   2
   8  -1   2 167.839  11.332   4
  -8  -1  -2 182.219  11.699   2
   8  -1   2 176.353  12.430   6
   8  -1   2 168.967  14.471   3
  -8  -1  -2 159.673  12.418   6
   8   1   2 181.313  11.649   2
   8   1   2 168.095  11.541   4
   8   1   2 168.906  12.410   6
  -8   1  -2 164.023  12.319   6
  -8   1  -2 169.560  11.363   2
  -9  -1  -2 41.5193  4.2354   6
   9  -1   2 50.6546  4.0110   4
   9  -1   2 42.9691  4.2462   6
  -9  -1  -2 52.2013  4.2924   2
   9  -1   2 43.9511  5.0688   3
  -9   1  -2 42.0341  4.2109   6
   9   1   2 43.5138  4.2693   6
  -9   1  -2 43.0898  3.8555   2
   9   1   2 47.7190  4.2079   2
  10  -1   2 213.277  17.161   3
 -10  -1  -2 196.023  13.631   2
  10  -1   2 215.763  14.768   6
 -10  -1  -2 180.878  14.506   6
  10   1   2 219.059  14.688   6
 -10   1  -2 205.982  14.615   6
 -10   1  -2 193.979  13.438   2
 -11  -1  -2 2.50218 1.81044   6
  11  -1   2 2.82291 2.12464   6
  11  -1   2 1.22199 2.21655   3
 -11   1  -2 2.09488 1.94129   6
  11   1   2 2.46163 2.06096   6
 -11   1  -2 0.87347 1.72731   2
  12  -1   2 80.8705  6.3114   6
 -12  -1  -2 64.6223  5.9260   6
 -12   1  -2 72.6968  5.8064   2
  12   1   2 70.6227  6.1438   6
 -12   1  -2 67.9223  6.0272   6
 -13  -1  -2 6.33364 2.36810   6
  13  -1   2 5.78575 2.35915   6
 -13   1  -2 7.23460 2.31090   6
  13   1   2 5.53639 2.33704   6
  14  -1   2 228.604  15.552   6
 -14  -1  -2 213.388  15.464   6
 -14   1  -2 210.428  15.428   6
  14   1   2 200.845  15.453   6
 -14  -2   2 229.849  16.933   6
  14  -2  -2 244.480  17.284   6
  13  -2  -2 0.66923 2.46490   6
  13  -2  -2 3.17209 2.93495   3
 -13  -2   2 1.39807 2.04919   6
  13   2  -2 0.84183 2.10748   6
 -13   2   2 2.42275 2.38848   6
  12  -2  -2 203.353  14.562   6
  12  -2  -2 186.820  16.723   3
 -12  -2   2 199.030  14.119   6
  12   2  -2 184.656  14.179   6
 -12   2   2 199.209  14.489   6
  12   2  -2 197.730  13.183   2
  11  -2  -2 268.098  22.847   3
  11  -2  -2 281.128  19.809   6
 -11  -2   2 269.512  19.367   6
 -11   2   2 271.760  18.020   2
  11   2  -2 251.888  19.416   6
  11   2  -2 281.132  17.993   2
 -11   2   2 304.368  19.874   6
  10  -2  -2 469.454  42.183   3
 -10  -2   2 552.751  36.170   6
  10  -2  -2 593.812  36.641   6
  10   2  -2 514.274  36.193   6
  10   2  -2 523.204  33.382   2
 -10   2   2 512.379  33.477   2
   9  -2  -2 158.140  14.292   3
  -9  -2   2 163.165  11.061   4
  -9  -2   2 173.635  12.061   6
   9  -2  -2 173.429  12.482   6
   9   2  -2 156.084  11.063   2
   9   2  -2 159.436  12.051   6
  -9   2   2 172.690  12.403   6
  -9   2   2 163.150  11.320   2
   8  -2  -2 88.1027  8.7551   3
   8  -2  -2 85.2331  7.4895   6
   8  -2  -2 97.8624  6.7722   5
  -8  -2   2 105.059   6.733   4
   8  -2  -2 75.6354  6.8116   4
  -8  -2   2 99.0651  7.2705   6
   8  -2  -2 98.3735  7.0461   2
   8   2  -2 99.5934  6.7584   2
  -8   2   2 81.0458  6.8529   2
   8   2  -2 98.4924  7.3848   6
  -8   2   2 93.0252  7.5628   6
  -7  -2   2 331.840  18.342   4
  -7  -2   2 327.332  19.979   6
   7  -2  -2 252.008  18.442   2
   7  -2  -2 280.156  18.129   5
   7  -2  -2 259.701  23.224   3
   7  -2  -2 258.732  19.927   6
   7  -2  -2 277.794  18.415   4
  -7   2   2 252.497  18.412   2
   7   2  -2 330.217  20.126   6
  -7   2   2 256.070  19.952   6
   7   2  -2 310.226  18.451   2
   6  -2  -2 1645.23  111.28   6
   6  -2  -2 1603.15  102.81   2
  -6  -2   2 1637.26  111.30   6
  -6  -2   2 1712.74  102.27   4
   6  -2  -2 1522.26  129.39   3
   6  -2  -2 1590.64  101.82   5
   6  -2  -2 1828.58  102.32   4
   6   2  -2 1817.61  102.88   2
  -6   2   2 1617.58  102.73   2
   6   2  -2 1847.93  111.57   6
  -6   2   2 1506.39  111.28   6
  -6   2   2 1558.26  102.27   4
   5  -2  -2 363.902  20.997   4
   5  -2  -2 328.901  22.803   6
   5  -2  -2 318.371  20.803   5
  -5  -2   2 322.778  26.940   1
  -5  -2   2 282.933  22.830   6
  -5  -2   2 379.277  21.197   4
   5  -2  -2 310.061  21.121   2
  -5   2   2 362.742  21.066   4
   5   2  -2 372.387  21.378   2
  -5   2   2 317.356  22.830   6
   5   2  -2 332.549  23.127   6
  -5   2   2 321.853  21.056   2
  -4  -2   2 2.01677 1.53286   1
   4  -2  -2 4.90252 0.81443   5
   4  -2  -2 2.81693 0.84006   6
  -4  -2   2 0.49123 1.20860   4
  -4  -2   2 2.38368 1.10734   6
  -4   2   2 -0.0173  0.6794   2
  -4   2   2 0.84021 0.78119   6
   4   2  -2 0.94004 1.29359   6
   4   2  -2 0.64918 1.34523   2
  -4   2   2 1.71102 0.78169   4
   3  -2  -2 203.375  12.067   2
  -3  -2   2 191.778  11.799   5
   3  -2  -2 202.937  13.057   6
   3  -2  -2 204.955  11.975   4
   3  -2  -2 206.025  11.945   5
  -3  -2   2 193.331  12.310   4
  -3  -2   2 185.300  15.631   1
  -3  -2   2 162.628  13.039   6
   3   2  -2 168.361  12.355   2
  -3   2   2 198.456  12.002   4
  -3   2   2 197.334  12.015   2
   3   2  -2 176.162  13.155   6
  -2  -2   2 3769.31  232.98   5
   2  -2  -2 3578.26  233.22   5
   2  -2  -2 3892.09  234.69   2
   2  -2  -2 4137.22  254.59   6
  -2  -2   2 3447.38  233.52   4
   2  -2  -2 4113.21  233.83   4
  -2  -2   2 3333.14  298.42   1
  -2   2   2 3694.64  233.82   4
  -2   2   2 4049.12  254.55   6
   2   2  -2 4186.51  232.95   5
   2   2  -2 3423.65  234.65   2
  -2   2   2 4188.31  235.07   2
   2   2  -2 3649.52  254.17   6
  -1  -2   2 11.5353  1.8444   1
   1  -2  -2 9.27873 0.72406   4
   1  -2  -2 9.58723 0.83128   6
  -1  -2   2 7.29020 1.07999   4
  -1  -2   2 6.96987 0.80860   5
  -1  -2   2 7.63992 0.62984   4
   1  -2  -2 7.41985 0.83569   5
  -1  -2   2 8.46240 0.62982   4
  -1   2   2 8.60449 0.72756   4
  -1   2   2 7.79873 0.81195   6
  -1   2   2 8.00026 0.73688   2
   1   2  -2 8.31253 0.88411   2
   0  -2   2 55.0862  3.8917   5
   0  -2  -2 60.4854  3.7229   4
   0  -2   2 59.5981  5.3289   1
   0  -2  -2 57.3111  4.0502   6
   0  -2  -2 64.7924  3.8020   5
   0   2   2 57.7833  4.0387   6
   0   2   2 57.4699  3.7129   4
   0   2   2 57.7568  3.7311   2
   1  -2   2 60.7093  3.6283   4
  -1  -2  -2 58.8641  3.8136   5
   1  -2   2 54.9803  5.3088   1
   1  -2   2 54.1298  4.0041   5
  -1  -2  -2 57.6878  3.7160   4
  -1  -2  -2 57.0868  4.0608   6
   1   2   2 58.9070  4.0446   6
   1   2   2 61.1501  3.7518   2
  -2  -2  -2 3161.90  215.17   6
  -2  -2  -2 3719.89  198.76   2
   2  -2   2 2865.32  197.23   5
  -2  -2  -2 3399.44  197.87   4
   2  -2   2 2841.56  252.54   1
   2  -2   2 3352.85  197.73   4
   2   2   2 2986.62  197.74   4
  -2   2  -2 3351.56  198.78   2
   2   2   2 3163.18  215.34   6
  -2   2  -2 2938.97  215.19   6
   2   2   2 3633.70  198.92   2
   3  -2   2 552.382  37.466   6
  -3  -2  -2 574.119  37.614   6
  -3  -2  -2 570.746  34.516   4
   3  -2   2 583.396  34.581   4
  -3  -2  -2 595.486  34.676   2
   3  -2   2 506.102  43.980   3
   3  -2   2 543.783  34.720   5
   3   2   2 513.630  37.533   6
  -3   2  -2 530.060  37.917   6
  -3   2  -2 506.368  34.686   2
   3   2   2 598.208  34.503   4
   3   2   2 601.154  34.496   4
   3   2   2 582.682  34.713   2
  -4  -2  -2 38.3892  3.1857   6
  -4  -2  -2 40.0922  2.7987   2
   4  -2   2 38.2164  4.1659   3
  -4  -2  -2 36.2507  2.8110   4
   4  -2   2 34.1451  3.0122   4
   4  -2   2 40.0458  3.3474   5
   4  -2   2 35.3087  2.9625   6
   4   2   2 36.0540  3.0102   6
  -4   2  -2 43.9187  3.7256   6
   4   2   2 38.0530  2.7346   4
  -4   2  -2 33.9157  2.9883   2
   4   2   2 35.8978  2.8564   2
  -5  -2  -2 12.4586  1.6279   2
   5  -2   2 8.58275 2.41577   3
   5  -2   2 9.55108 1.59076   6
  -5  -2  -2 11.8672  1.6673   4
  -5  -2  -2 11.0611  1.9796   6
   5  -2   2 8.58891 1.76154   4
   5  -2   2 12.1034  2.0183   5
  -5   2  -2 12.9917  1.9265   2
   5   2   2 12.7945  1.7675   2
   5   2   2 9.56879 1.46021   4
  -5   2  -2 8.42306 1.52068   4
   5   2   2 12.0011  1.7395   6
  -5   2  -2 13.0867  2.0627   6
   6  -2   2 935.499  68.638   3
  -6  -2  -2 902.373  59.009   6
   6  -2   2 954.739  54.123   4
   6  -2   2 766.880  58.652   6
  -6  -2  -2 868.874  54.096   4
   6  -2   2 894.482  54.049   5
  -6  -2  -2 892.579  54.313   2
   6   2   2 859.891  58.855   6
   6   2   2 875.796  53.994   4
  -6   2  -2 809.633  54.275   2
   6   2   2 804.672  54.322   2
  -7  -2  -2 616.362  44.087   4
  -7  -2  -2 706.458  44.383   2
   7  -2   2 625.088  47.840   6
  -7  -2  -2 624.109  48.029   6
   7  -2   2 772.663  44.095   4
   7  -2   2 801.574  44.117   5
   7  -2   2 743.142  55.964   3
   7   2   2 706.924  48.121   6
   7   2   2 701.835  44.421   2
  -7   2  -2 758.037  44.299   2
   8  -2   2 12.1087  2.3692   6
  -8  -2  -2 17.9128  2.5932   6
   8  -2   2 9.14313 2.48301   3
   8  -2   2 9.29193 1.90024   4
  -8  -2  -2 8.39336 2.27864   2
   8  -2   2 8.61901 1.95050   5
  -8   2  -2 6.42420 1.88331   2
  -8   2  -2 8.22496 2.02500   6
   8   2   2 8.46866 2.30147   6
   8   2   2 7.46128 2.29139   2
   9  -2   2 6.76065 2.02820   6
  -9  -2  -2 9.05296 2.39691   2
   9  -2   2 4.24286 2.52944   3
  -9  -2  -2 4.25191 2.02783   6
   9  -2   2 5.48207 1.72451   4
   9   2   2 8.28038 2.35813   2
  -9   2  -2 5.28845 1.83505   2
  -9   2  -2 5.19075 1.91749   6
   9   2   2 3.17258 2.13243   6
 -10  -2  -2 98.1624  7.8865   6
  10  -2   2 97.4041  7.2786   4
  10  -2   2 111.792   8.146   6
  10  -2   2 96.3558  9.3753   3
 -10   2  -2 113.146   8.104   6
  10   2   2 100.751   7.540   2
 -10   2  -2 90.7679  7.1979   2
  10   2   2 104.781   8.097   6
  11  -2   2 253.973  17.451   6
 -11  -2  -2 234.679  17.240   6
  11  -2   2 258.162  20.413   3
 -11   2  -2 248.850  16.012   2
 -11   2  -2 245.284  17.363   6
  11   2   2 220.740  17.309   6
  12  -2   2 4.92731 2.30180   6
 -12  -2  -2 2.35490 2.02010   6
  12  -2   2 2.41135 2.71112   3
 -12   2  -2 6.02108 2.06754   2
 -12   2  -2 4.09888 2.03562   6
  12   2   2 3.73751 2.10031   6
  13  -2   2 8.54528 2.55586   6
 -13  -2  -2 5.76949 2.21976   6
  13   2   2 5.04792 2.44852   6
 -13   2  -2 6.81234 2.28369   2
 -13   2  -2 4.47467 2.19732   6
 -14  -2  -2 15.3102  2.8679   6
  14  -3  -2 112.498   9.261   6
  13  -3  -2 78.2963  8.3914   3
  13  -3  -2 98.5191  7.6539   6
  13   3  -2 83.9590  7.1335   6
  13   3  -2 75.6521  6.4057   2
 -12  -3   2 4.62106 2.07707   6
  12  -3  -2 4.07415 2.44893   6
  12  -3  -2 2.85629 2.96369   3
 -12   3   2 1.61884 2.46105   6
  12   3  -2 4.86881 2.20236   2
  12   3  -2 3.15091 2.14029   6
 -11  -3   2 52.4307  4.8763   6
  11  -3  -2 62.6789  5.7813   6
  11  -3  -2 49.7938  6.2884   3
 -11   3   2 59.2785  4.9917   2
  11   3  -2 47.1046  4.9927   6
 -11   3   2 59.8929  5.5423   6
  11   3  -2 53.0357  4.6366   2
  10  -3  -2 302.222  26.739   3
 -10  -3   2 310.276  22.508   6
  10  -3  -2 324.554  23.117   6
 -10  -3   2 359.649  20.952   4
  10   3  -2 321.509  20.948   2
 -10   3   2 377.908  23.298   6
  10   3  -2 286.227  22.646   6
 -10   3   2 317.782  21.245   2
   9  -3  -2 183.341  18.052   3
  -9  -3   2 213.612  15.149   6
   9  -3  -2 186.779  15.467   6
  -9  -3   2 249.115  14.214   4
  -9   3   2 238.910  15.793   6
   9   3  -2 201.877  15.331   6
   9   3  -2 225.627  14.144   2
  -9   3   2 207.758  14.495   2
  -8  -3   2 11.0118  2.1035   6
   8  -3  -2 10.6214  2.3633   4
  -8  -3   2 14.3166  2.1307   4
   8  -3  -2 8.01953 2.90426   3
   8  -3  -2 8.66471 2.42128   6
   8  -3  -2 14.8846  2.2111   5
   8   3  -2 11.6921  2.1590   2
  -8   3   2 7.83482 2.34877   6
  -8   3   2 11.9023  2.4849   2
   8   3  -2 13.8742  2.5636   6
   7  -3  -2 274.458  20.149   6
  -7  -3   2 332.915  18.686   4
   7  -3  -2 285.642  23.603   3
  -7  -3   2 296.833  20.080   6
   7  -3  -2 290.000  18.833   2
   7  -3  -2 280.456  18.369   5
   7  -3  -2 266.094  18.502   4
  -7   3   2 274.031  18.609   2
   7   3  -2 282.066  20.362   6
   7   3  -2 333.218  18.750   2
  -7   3   2 263.090  20.213   6
  -6  -3   2 731.888  49.308   6
   6  -3  -2 741.091  45.666   2
   6  -3  -2 781.138  45.290   4
  -6  -3   2 748.833  45.456   4
   6  -3  -2 668.174  49.218   6
   6  -3  -2 741.012  45.108   5
   6   3  -2 697.651  49.513   6
  -6   3   2 710.006  45.472   2
  -6   3   2 687.623  49.335   6
   6   3  -2 778.810  45.709   2
   5  -3  -2 577.780  35.622   2
  -5  -3   2 489.309  34.962   5
   5  -3  -2 592.134  35.304   4
  -5  -3   2 540.186  45.595   1
   5  -3  -2 590.722  38.457   6
   5  -3  -2 597.357  35.225   5
  -5  -3   2 557.572  35.565   4
  -5   3   2 553.511  35.462   2
   5   3  -2 575.207  38.679   6
  -5   3   2 556.929  35.400   4
  -5   3   2 547.739  38.482   6
   5   3  -2 653.145  35.882   2
   4  -3  -2 18.7920  1.5441   2
  -4  -3   2 9.32502 1.54988   6
   4  -3  -2 16.4781  1.4512   6
  -4  -3   2 13.9140  1.1340   5
   4  -3  -2 10.7375  1.2197   4
   4  -3  -2 12.0273  1.3545   5
  -4  -3   2 14.0658  2.7079   1
   4   3  -2 11.7460  1.5977   6
  -4   3   2 10.3452  1.2360   2
   4   3  -2 11.0151  1.8594   2
  -4   3   2 14.5779  1.4857   4
  -3  -3   2 1004.70   90.99   1
  -3  -3   2 1204.56   70.60   5
   3  -3  -2 1206.14   70.82   4
   3  -3  -2 1233.58   70.71   5
   3  -3  -2 1129.11   77.08   6
   3  -3  -2 1064.08   71.19   2
   3   3  -2 1176.28   77.10   6
  -3   3   2 1104.40   71.14   2
  -3   3   2 1233.08   70.87   4
   2  -3  -2 964.594  62.051   6
   2  -3  -2 957.734  56.935   5
  -2  -3   2 900.449  73.458   1
  -2  -3   2 1006.61   56.96   4
   2  -3  -2 909.823  56.980   4
  -2  -3   2 878.688  56.862   5
  -2   3   2 913.181  57.001   4
   2   3  -2 909.026  61.984   6
  -2   3   2 897.996  57.260   2
  -1  -3   2 978.747  79.718   1
   1  -3  -2 1084.31   61.87   4
   1  -3  -2 1005.44   67.36   6
  -1  -3   2 922.782  61.786   5
  -1  -3   2 886.001  61.844   4
  -1  -3   2 1086.96   61.80   4
   1  -3  -2 1063.57   61.82   5
  -1   3   2 1165.88   61.90   4
   1   3  -2 882.007  62.184   2
  -1   3   2 1001.68   67.38   6
  -1   3   2 1055.76   62.18   2
  -1   3   2 949.144  62.172   2
   0  -3  -2 386.783  24.023   5
   0  -3   2 360.281  31.352   1
   0  -3   2 401.022  23.903   4
   0  -3   2 404.820  23.898   4
   0  -3  -2 354.300  23.978   4
   0  -3  -2 423.050  26.132   6
   0  -3   2 356.034  24.053   5
   0   3   2 410.094  23.991   4
   0   3   2 395.262  26.110   6
   0   3  -2 374.176  24.020   2
   0   3   2 400.485  24.105   2
   1  -3   2 1771.56  114.73   4
   1  -3   2 1742.55  114.68   5
  -1  -3  -2 1899.90  114.94   4
   1  -3   2 1585.27  147.23   1
  -1  -3  -2 1879.28  114.61   5
   1  -3   2 1868.35  114.83   4
  -1  -3  -2 2036.36  125.01   6
   1   3   2 2008.29  115.46   2
   1   3   2 1968.42  125.04   6
  -1   3  -2 1853.70  115.38   2
   1   3   2 1949.37  114.85   4
   2  -3   2 493.005  31.824   4
  -2  -3  -2 493.223  34.765   6
   2  -3   2 531.033  31.977   4
   2  -3   2 492.017  32.048   5
  -2  -3  -2 502.119  32.035   2
   2  -3   2 487.099  41.379   1
  -2  -3  -2 558.106  31.925   4
  -2  -3  -2 549.737  31.932   5
   2   3   2 535.903  31.891   4
  -2   3  -2 554.417  31.982   2
   2   3   2 505.366  34.717   6
   2   3   2 494.939  32.072   2
   3  -3   2 794.317  51.323   6
   3  -3   2 734.511  47.242   4
   3  -3   2 721.710  47.436   5
  -3  -3  -2 832.355  47.518   2
  -3  -3  -2 756.832  47.304   4
  -3  -3  -2 775.333  51.559   6
   3   3   2 799.258  51.477   6
   3   3   2 694.489  47.542   2
  -3   3  -2 753.555  47.469   2
   3   3   2 804.896  47.278   4
   4  -3   2 828.848  56.160   6
  -4  -3  -2 864.952  51.953   2
   4  -3   2 810.865  51.897   5
  -4  -3  -2 873.518  56.477   6
  -4  -3  -2 829.991  51.763   4
   4  -3   2 890.197  51.774   4
   4  -3   2 844.399  65.850   3
   4   3   2 859.158  51.686   4
   4   3   2 858.791  56.302   6
  -4   3  -2 876.446  56.620   6
   4   3   2 774.531  52.029   2
  -4   3  -2 744.911  51.957   2
  -5  -3  -2 831.379  56.575   4
  -5  -3  -2 940.399  61.792   6
  -5  -3  -2 1014.99   56.82   2
   5  -3   2 822.999  56.579   4
   5  -3   2 917.909  56.707   5
   5  -3   2 987.423  61.409   6
   5  -3   2 897.255  71.944   3
   5   3   2 835.757  56.883   2
  -5   3  -2 1031.71   61.89   6
   5   3   2 893.006  61.530   6
   5   3   2 879.033  56.455   4
   5   3   2 890.074  56.445   4
  -5   3  -2 941.530  56.901   2
  -6  -3  -2 168.570  10.494   2
   6  -3   2 158.369  11.126   6
   6  -3   2 142.886  13.498   3
  -6  -3  -2 158.912  11.616   6
   6  -3   2 145.577  10.511   4
   6  -3   2 156.285  10.711   5
  -6  -3  -2 147.631  10.504   4
  -6   3  -2 190.336  11.603   6
   6   3   2 154.591  10.616   2
   6   3   2 162.016  11.381   6
  -6   3  -2 150.980  10.584   2
   7  -3   2 282.439  17.655   4
  -7  -3  -2 260.558  17.655   4
   7  -3   2 265.404  22.447   3
  -7  -3  -2 269.138  19.314   6
   7  -3   2 263.904  18.874   6
   7  -3   2 291.262  17.784   5
  -7  -3  -2 282.024  17.684   2
  -7   3  -2 256.671  17.674   2
   7   3   2 272.299  19.183   6
   7   3   2 273.931  17.823   2
  -8  -3  -2 622.195  41.751   4
  -8  -3  -2 618.840  45.340   6
   8  -3   2 663.419  41.673   5
   8  -3   2 615.120  41.574   4
   8  -3   2 661.446  52.891   3
   8   3   2 755.625  42.164   2
  -8   3  -2 737.885  45.398   6
   8   3   2 618.622  45.464   6
  -8   3  -2 685.346  41.888   2
   9  -3   2 239.021  19.764   6
  -9  -3  -2 298.929  19.986   6
   9  -3   2 290.061  18.427   5
   9  -3   2 285.932  18.300   4
   9  -3   2 238.917  23.200   3
  -9   3  -2 289.709  18.408   2
   9   3   2 276.048  20.172   6
  -9   3  -2 292.599  19.965   6
   9   3   2 338.348  18.854   2
  10  -3   2 79.9494  6.9423   6
 -10  -3  -2 79.7790  6.8439   6
  10  -3   2 90.4355  6.5096   4
  10  -3   2 94.7139  8.4766   3
  10   3   2 73.9548  7.1336   6
  10   3   2 100.799   6.828   2
 -10   3  -2 90.8367  6.9888   6
 -10   3  -2 71.8208  6.2437   2
  11  -3   2 112.551  10.959   3
  11  -3   2 122.757   9.369   6
 -11  -3  -2 123.475   9.209   6
  11   3   2 123.362   9.547   6
  11   3   2 134.819   8.969   2
 -11   3  -2 101.916   8.455   2
 -11   3  -2 123.651   9.295   6
 -12  -3  -2 284.192  20.343   6
  12  -3   2 272.201  23.943   3
  12   3   2 288.733  20.565   6
 -12   3  -2 308.626  20.565   6
 -12   3  -2 291.273  18.893   2
 -13  -3  -2 80.4475  6.9559   6
  13  -3   2 84.7871  8.4271   3
  13   3   2 77.0014  6.9962   6
 -13   3  -2 91.8578  6.7334   2
 -13   3  -2 85.5516  6.9999   6
 -14   3  -2 76.4848  6.3590   2
  13   4  -2 48.1587  5.2537   6
  13   4  -2 57.4162  5.0180   2
  12  -4  -2 183.440  18.122   3
  12  -4  -2 217.203  15.797   6
  12   4  -2 234.858  14.365   2
 -12   4   2 218.634  14.501   2
  12   4  -2 204.173  15.442   6
  11  -4  -2 73.9876  8.5970   3
  11  -4  -2 84.8826  7.3104   6
  11   4  -2 86.8826  6.4391   2
 -11   4   2 85.9787  6.8599   2
  11   4  -2 74.6211  6.7923   6
 -10  -4   2 33.6582  3.3932   4
 -10  -4   2 30.9552  3.3142   6
  10  -4  -2 24.6648  4.8210   3
  10  -4  -2 23.7250  3.8439   6
  10   4  -2 30.4494  3.7132   6
  10   4  -2 29.4980  3.4299   2
 -10   4   2 21.4748  3.5225   2
   9  -4  -2 2.90517 2.88426   3
   9  -4  -2 6.46697 2.45502   6
   9  -4  -2 10.4736  2.5681   4
   9  -4  -2 3.58318 2.22474   5
  -9  -4   2 8.19267 2.12500   4
  -9  -4   2 9.14936 1.93591   6
   9   4  -2 6.83375 2.55421   6
  -9   4   2 8.08548 2.61724   6
   9   4  -2 6.69770 2.14825   2
  -9   4   2 4.90986 2.29251   2
  -8  -4   2 161.817  11.000   6
   8  -4  -2 137.221  10.336   4
   8  -4  -2 151.090  11.291   6
   8  -4  -2 157.366  10.319   5
  -8  -4   2 179.785  10.550   4
   8  -4  -2 156.011  13.417   3
   8   4  -2 140.772  11.425   6
  -8   4   2 124.658  11.273   6
  -8   4   2 133.762  10.370   2
   8   4  -2 179.988  10.564   2
   7  -4  -2 67.4640  5.3844   4
  -7  -4   2 85.0727  5.8422   4
   7  -4  -2 67.4782  5.3448   5
   7  -4  -2 79.9310  5.9576   6
  -7  -4   2 77.6882  5.8694   6
   7  -4  -2 84.7154  7.4033   3
  -7   4   2 65.5931  5.4838   2
  -7   4   2 66.4538  6.0026   6
   7   4  -2 67.9778  6.3231   6
   7   4  -2 85.8410  5.7971   2
  -6  -4   2 95.9958  7.3484   6
   6  -4  -2 95.9504  7.2646   6
   6  -4  -2 106.449   6.765   4
   6  -4  -2 102.736   6.808   5
  -6  -4   2 93.4766  7.0412   4
   6   4  -2 100.528   7.131   2
  -6   4   2 104.215   6.800   2
   6   4  -2 97.0480  7.6212   6
  -5  -4   2 4.55588 2.48941   1
  -5  -4   2 4.95768 1.31694   6
  -5  -4   2 5.11740 0.89524   5
   5  -4  -2 8.16955 1.30538   5
  -5  -4   2 8.77907 1.72592   4
   5  -4  -2 6.46963 1.06100   4
   5  -4  -2 6.51583 1.19533   6
   5   4  -2 6.16362 1.72153   2
  -5   4   2 6.76973 1.09922   2
   5   4  -2 6.69910 1.52890   6
  -4  -4   2 111.829   7.458   5
   4  -4  -2 119.002   7.606   5
  -4  -4   2 106.354   7.787   4
   4  -4  -2 122.464   8.139   6
   4  -4  -2 110.191   7.672   2
   4  -4  -2 127.181   7.525   4
  -4  -4   2 113.738  10.691   1
  -4   4   2 127.471   7.554   2
   4   4  -2 124.627   8.247   6
   4   4  -2 97.7317  7.8446   2
  -3  -4   2 54.6182  3.8893   5
   3  -4  -2 62.0960  3.9562   2
   3  -4  -2 60.1187  3.8457   4
  -3  -4   2 59.6553  3.8427   4
  -3  -4   2 53.6790  6.0764   1
   3  -4  -2 64.8117  4.0040   5
   3  -4  -2 58.9580  4.1635   6
  -3  -4   2 54.0045  4.0168   4
  -3   4   2 57.5277  4.2468   6
   3   4  -2 55.8144  4.1515   6
  -3   4   2 55.2455  3.8478   2
   3   4  -2 52.2099  4.1069   2
  -3   4   2 62.3543  3.9214   4
  -2  -4   2 325.628  19.037   5
   2  -4  -2 298.716  19.060   5
  -2  -4   2 276.633  18.992   4
   2  -4  -2 301.267  18.973   4
  -2  -4   2 328.943  18.937   4
  -2  -4   2 334.759  18.934   4
  -2  -4   2 266.138  25.231   1
   2  -4  -2 330.080  20.661   6
  -2   4   2 282.182  19.057   2
  -2   4   2 332.403  20.711   6
   2   4  -2 276.544  19.119   2
  -2   4   2 307.293  19.010   4
  -1  -4   2 174.232  10.596   4
  -1  -4   2 174.251  10.630   4
   1  -4  -2 172.231  10.668   4
  -1  -4   2 156.420  14.809   1
   1  -4  -2 175.745  11.627   6
   1  -4  -2 166.445  10.779   5
  -1  -4   2 170.154  10.802   5
  -1   4   2 186.120  11.655   6
  -1   4   2 170.421  10.731   2
   1   4  -2 168.415  11.525   6
   1   4  -2 153.493  10.681   2
  -1   4   2 171.115  10.729   2
   0  -4  -2 234.465  14.175   4
   0  -4  -2 229.547  14.268   5
   0  -4   2 242.741  14.082   4
   0  -4   2 217.969  14.069   4
   0  -4  -2 232.180  15.439   6
   0  -4   2 222.469  14.318   5
   0  -4   2 198.152  19.204   1
   0   4   2 236.456  15.419   6
   0   4  -2 226.200  14.148   2
   0   4   2 228.319  14.228   2
  -1  -4  -2 51.9045  3.7512   6
  -1  -4  -2 50.3507  3.5747   5
   1  -4   2 49.8042  3.2946   4
   1  -4   2 51.8631  3.7012   5
  -1  -4  -2 50.2830  3.4160   4
   1  -4   2 39.2539  5.8438   1
   1  -4   2 51.7500  3.3245   4
   1   4   2 49.9127  3.3978   4
  -1   4  -2 51.5461  3.3143   2
   1   4   2 51.4532  3.4489   2
   1   4   2 52.5281  3.7166   6
   2  -4   2 273.340  16.953   4
   2  -4   2 289.706  22.954   1
  -2  -4  -2 299.385  17.167   5
   2  -4   2 242.139  16.985   4
   2  -4   2 269.696  17.259   5
  -2  -4  -2 287.598  18.633   6
  -2  -4  -2 267.829  17.059   4
   2   4   2 274.437  18.545   6
  -2   4  -2 260.166  18.517   6
   2   4   2 293.463  17.167   2
  -2   4  -2 267.844  17.027   2
  -3  -4  -2 515.602  29.267   2
   3  -4   2 449.307  29.066   4
  -3  -4  -2 459.928  31.815   6
  -3  -4  -2 487.764  29.206   5
  -3  -4  -2 476.033  29.163   4
   3  -4   2 460.051  29.161   4
   3  -4   2 482.394  29.391   5
  -3   4  -2 468.442  29.193   2
   3   4   2 453.726  29.099   4
   3   4   2 471.179  29.333   2
  -3   4  -2 421.644  31.766   6
   3   4   2 496.589  31.720   6
  -4  -4  -2 316.756  20.690   2
  -4  -4  -2 344.425  22.694   6
   4  -4   2 310.190  20.905   5
  -4  -4  -2 328.108  20.686   4
   4  -4   2 352.904  20.630   4
   4   4   2 343.826  22.473   6
  -4   4  -2 320.740  20.696   2
   4   4   2 329.299  20.836   2
   5  -4   2 38.8312  2.9472   4
  -5  -4  -2 34.9859  2.9870   5
  -5  -4  -2 35.1062  2.8391   2
  -5  -4  -2 37.5831  3.5503   6
   5  -4   2 39.6038  2.8425   6
  -5  -4  -2 38.7362  3.0156   4
   5  -4   2 40.8795  4.4018   3
   5  -4   2 37.3192  3.3736   5
   5   4   2 36.2663  3.1132   6
  -5   4  -2 28.4083  3.4527   6
  -5   4  -2 36.3211  2.9593   2
   5   4   2 37.5584  3.1242   2
   6  -4   2 31.6765  3.0243   4
   6  -4   2 30.4762  4.2456   3
  -6  -4  -2 35.8427  3.0968   4
   6  -4   2 32.2796  3.3710   5
  -6  -4  -2 29.6815  3.6896   6
   6  -4   2 32.0776  2.7492   6
  -6   4  -2 34.9308  3.5962   6
   6   4   2 34.7047  3.2168   2
   6   4   2 32.4205  3.1258   6
  -6   4  -2 31.7390  3.0489   2
  -7  -4  -2 269.654  19.370   6
   7  -4   2 283.106  18.818   6
   7  -4   2 280.642  17.738   4
   7  -4   2 240.324  22.438   3
   7  -4   2 258.454  17.790   5
  -7  -4  -2 285.698  17.769   4
   7   4   2 261.577  19.140   6
  -7   4  -2 279.580  17.796   2
   7   4   2 288.520  17.920   2
  -8  -4  -2 260.158  17.909   6
   8  -4   2 227.597  20.883   3
   8  -4   2 250.684  16.591   5
   8  -4   2 241.756  16.402   4
   8  -4   2 216.655  17.405   6
  -8   4  -2 256.729  16.571   2
   8   4   2 242.851  17.934   6
   8   4   2 267.708  16.706   2
  -8   4  -2 287.388  17.947   6
   9  -4   2 24.9844  4.4223   3
   9  -4   2 24.5564  3.4629   5
   9  -4   2 25.7164  3.2474   4
  -9  -4  -2 32.5214  3.4055   6
   9   4   2 25.1347  3.7449   6
   9   4   2 29.0795  3.6028   2
  -9   4  -2 18.6247  3.0904   2
  -9   4  -2 29.5994  3.5984   6
  10  -4   2 12.1528  2.8175   5
  10  -4   2 12.9818  3.3929   3
 -10  -4  -2 14.5245  2.5129   6
  10  -4   2 12.8771  2.4871   4
 -10   4  -2 16.0033  2.7349   2
  10   4   2 9.65245 2.92027   6
 -10   4  -2 12.7817  2.6146   6
  10   4   2 14.1108  2.8804   2
  11  -4   2 33.1057  3.6759   4
 -11  -4  -2 32.8439  3.7943   6
  11  -4   2 33.6552  5.1433   3
 -11   4  -2 34.2765  3.5944   2
 -11   4  -2 37.4200  4.0381   6
  11   4   2 38.9394  4.2268   2
  11   4   2 26.9116  4.1678   6
  12  -4   2 103.064  10.173   3
 -12  -4  -2 105.288   8.131   6
 -12   4  -2 119.293   8.497   6
  12   4   2 101.286   8.526   6
 -12   4  -2 92.5433  7.6526   2
 -13  -4  -2 16.7329  2.9330   6
 -13   4  -2 13.7023  2.9545   6
  13   4   2 14.6126  3.2294   6
 -13   4  -2 16.5635  2.9303   2
 -13   5   2 27.9705  3.7111   2
  13   5  -2 25.6190  3.5059   2
  12  -5  -2 2.72188 3.33057   3
 -12   5   2 2.12406 2.32238   2
  12   5  -2 0.15903 2.40273   6
  12   5  -2 3.14754 2.17830   2
  11  -5  -2 8.89050 3.68523   3
  11  -5  -2 11.2736  2.8163   6
  11   5  -2 15.8726  2.7798   2
 -11   5   2 11.6129  3.0898   2
  11   5  -2 16.8046  3.2689   6
  10  -5  -2 62.8626  7.4987   3
  10  -5  -2 56.1510  5.8646   6
  10   5  -2 85.3551  5.8249   2
  10   5  -2 65.6565  6.2271   6
 -10   5   2 61.4177  5.9855   2
   9  -5  -2 57.0000  5.0602   4
  -9  -5   2 58.0234  5.0203   4
   9  -5  -2 49.3079  5.0902   6
   9  -5  -2 60.0238  5.0102   5
   9  -5  -2 46.2001  6.2982   3
  -9   5   2 59.8720  5.1055   2
   9   5  -2 65.1871  5.1518   2
   9   5  -2 54.6331  5.5296   6
   8  -5  -2 8.02828 2.01884   4
   8  -5  -2 5.11466 2.68528   3
   8  -5  -2 4.28704 1.79406   5
  -8  -5   2 3.50202 2.05890   4
   8  -5  -2 4.88674 1.82715   6
  -8   5   2 7.26891 1.94198   2
   8   5  -2 1.02309 2.13752   6
   8   5  -2 2.61382 2.09864   2
  -7  -5   2 8.94187 2.28423   4
   7  -5  -2 11.8479  1.8118   4
   7  -5  -2 11.8182  1.8979   6
   7  -5  -2 11.7480  1.9725   5
   7   5  -2 14.1261  2.5004   2
  -7   5   2 10.3380  1.8323   2
   7   5  -2 8.73557 2.42198   6
   6  -5  -2 715.200  47.650   6
   6  -5  -2 726.083  43.842   4
   6  -5  -2 737.702  43.882   5
  -6  -5   2 653.814  44.169   4
   6   5  -2 635.837  44.378   2
  -6   5   2 726.873  44.086   2
   6   5  -2 746.537  48.008   6
   5  -5  -2 288.056  19.554   6
   5  -5  -2 307.121  18.012   4
  -5  -5   2 269.000  18.316   4
   5  -5  -2 294.811  18.128   5
  -5   5   2 270.613  18.054   2
   5   5  -2 307.517  19.745   6
   5   5  -2 267.940  18.449   2
   4  -5  -2 157.684   9.857   5
  -4  -5   2 156.683  13.970   1
  -4  -5   2 138.486   9.721   5
   4  -5  -2 161.705  10.516   6
   4  -5  -2 158.852   9.702   4
  -4  -5   2 153.817   9.918   4
   4   5  -2 166.631  10.608   6
   4   5  -2 141.840  10.008   2
  -4   5   2 140.899   9.715   2
  -4   5   2 149.718  10.631   6
   3  -5  -2 90.0713  6.6897   6
  -3  -5   2 94.2651  6.3595   5
   3  -5  -2 103.995   6.391   5
  -3  -5   2 93.1279  6.2584   4
   3  -5  -2 96.0232  6.1902   4
  -3  -5   2 87.2753  9.5789   1
   3   5  -2 93.5988  6.6957   6
  -3   5   2 105.093   6.244   2
   3   5  -2 93.5304  6.3670   2
  -3   5   2 100.686   6.810   6
  -2  -5   2 2110.16  115.71   4
  -2  -5   2 1859.66  115.73   4
  -2  -5   2 1865.15  115.68   4
  -2  -5   2 1845.62  115.64   5
   2  -5  -2 1847.41  125.99   6
   2  -5  -2 1899.27  115.63   5
   2  -5  -2 1815.84  115.74   4
  -2   5   2 1976.51  116.34   2
   2   5  -2 1778.05  116.32   2
  -2   5   2 2021.25  126.08   6
   2   5  -2 1712.58  125.93   6
   1  -5  -2 680.523  49.104   6
  -1  -5   2 756.470  45.066   4
  -1  -5   2 715.720  45.209   5
  -1  -5   2 806.429  45.047   4
   1  -5  -2 716.659  45.103   4
   1  -5  -2 737.620  45.188   5
   1   5  -2 724.051  45.291   2
  -1   5   2 674.095  45.322   2
  -1   5   2 724.310  45.333   2
   1   5  -2 780.866  49.029   6
  -1   5   2 737.489  49.137   6
   0  -5   2 706.340  45.450   4
   0  -5   2 670.027  45.639   5
   0  -5  -2 716.480  45.535   4
   0  -5  -2 700.918  49.589   6
   0  -5  -2 764.470  45.623   5
   0   5  -2 788.649  45.684   2
   0   5  -2 808.060  49.493   6
   0   5   2 769.199  49.581   6
   0   5   2 729.090  45.755   2
   1  -5   2 497.856  30.230   4
  -1  -5  -2 510.764  33.066   6
  -1  -5  -2 485.703  30.433   5
   1  -5   2 500.020  30.246   4
  -1  -5  -2 453.836  30.324   4
   1  -5   2 462.364  30.513   5
   1   5   2 480.604  33.010   6
  -1   5  -2 482.895  30.377   2
  -1   5  -2 551.473  32.967   6
   1   5   2 483.188  30.483   2
  -2  -5  -2 1401.20   98.36   6
   2  -5   2 1605.56   90.22   4
  -2  -5  -2 1490.58   90.30   4
   2  -5   2 1415.81   90.18   4
  -2  -5  -2 1570.63   90.28   5
   2  -5   2 1345.12   90.32   5
   2  -5   2 1436.01  116.81   1
  -2   5  -2 1450.20   90.62   2
   2   5   2 1463.67   98.29   6
   2   5   2 1504.84   90.76   2
   3  -5   2 473.447  29.899   4
  -3  -5  -2 468.787  32.768   6
  -3  -5  -2 453.234  30.008   4
  -3  -5  -2 505.734  30.141   5
   3  -5   2 450.817  30.217   5
  -3   5  -2 477.856  32.638   6
   3   5   2 508.294  30.189   2
  -3   5  -2 478.445  30.041   2
   3   5   2 542.234  32.672   6
   4  -5   2 798.149  49.225   4
   4  -5   2 801.576  49.553   5
  -4  -5  -2 803.596  53.912   6
  -4  -5  -2 819.547  49.338   4
  -4  -5  -2 853.193  49.366   5
  -4   5  -2 783.121  49.452   2
   4   5   2 836.112  53.672   6
   4   5   2 802.932  49.618   2
  -4   5  -2 687.579  53.675   6
  -5  -5  -2 617.165  39.228   5
  -5  -5  -2 641.189  43.068   6
   5  -5   2 662.358  39.562   5
   5  -5   2 616.845  39.198   4
  -5  -5  -2 635.792  39.295   4
  -5   5  -2 585.436  42.819   6
   5   5   2 660.039  42.711   6
  -5   5  -2 666.749  39.409   2
   5   5   2 605.643  39.546   2
  -6  -5  -2 409.995  24.974   4
   6  -5   2 394.199  24.858   4
  -6  -5  -2 352.329  24.730   5
   6  -5   2 400.100  31.956   3
  -6  -5  -2 373.741  27.365   6
   6  -5   2 425.014  25.228   5
  -6   5  -2 349.025  27.159   6
   6   5   2 392.795  25.156   2
  -6   5  -2 426.986  25.025   2
   6   5   2 425.646  27.056   6
   7  -5   2 167.304  14.352   3
   7  -5   2 169.105  11.031   4
   7  -5   2 179.554  11.360   5
  -7  -5  -2 156.643  12.143   6
  -7   5  -2 156.820  10.960   2
   7   5   2 146.647  11.148   2
   7   5   2 166.279  11.874   6
  -7   5  -2 162.805  12.023   6
   8  -5   2 365.096  33.376   3
  -8  -5  -2 449.314  28.594   6
   8  -5   2 427.473  26.490   5
  -8  -5  -2 419.981  26.346   4
   8  -5   2 367.929  26.155   4
   8   5   2 456.170  28.668   6
  -8   5  -2 378.772  26.309   2
   8   5   2 414.099  26.537   2
   9  -5   2 316.916  21.904   4
  -9  -5  -2 362.483  23.678   6
   9  -5   2 319.101  27.974   3
   9  -5   2 355.640  22.212   5
   9   5   2 333.576  24.037   6
  -9   5  -2 399.296  24.088   6
  -9   5  -2 278.945  21.945   2
   9   5   2 339.678  22.240   2
  10  -5   2 80.6071  8.8960   3
 -10  -5  -2 93.7970  7.1279   6
  10  -5   2 76.0225  6.6497   4
  10  -5   2 88.3994  7.2354   5
 -10   5  -2 100.287   7.637   6
 -10   5  -2 88.6988  6.8883   2
  10   5   2 93.2783  7.2502   2
  10   5   2 76.2144  7.6116   6
 -11  -5  -2 89.5151  7.2346   6
  11  -5   2 80.3110  9.2146   3
  11  -5   2 86.8902  6.9138   4
  11   5   2 106.441   7.428   2
 -11   5  -2 106.743   7.897   6
  11   5   2 76.8203  7.7380   6
 -11   5  -2 86.4047  7.0294   2
 -12  -5  -2 219.747  16.261   6
  12  -5   2 226.820  19.582   3
 -12   5  -2 215.873  15.281   2
  12   5   2 245.841  15.592   2
  12   5   2 219.132  16.803   6
 -12   5  -2 242.153  16.745   6
 -13   5  -2 77.4809  6.8501   6
 -13   5  -2 74.4113  6.1865   2
  12   6  -2 173.985  11.275   2
  12   6  -2 146.298  12.155   6
 -12   6   2 156.421  11.538   2
  11  -6  -2 2.73439 3.59115   3
 -11  -6   2 5.12002 2.29733   4
 -11   6   2 0.83271 2.70183   2
  11   6  -2 2.58199 2.32922   2
  11   6  -2 4.40890 2.72433   6
  10  -6  -2 28.3748  5.4419   3
 -10  -6   2 45.1383  4.3220   4
  10   6  -2 47.9079  4.3024   2
 -10   6   2 35.6964  4.5139   2
  10   6  -2 36.8694  4.8122   6
  -9  -6   2 887.464  51.708   4
   9  -6  -2 726.332  65.301   3
   9  -6  -2 834.965  51.432   5
   9  -6  -2 841.384  51.580   4
  -9   6   2 761.124  51.733   2
   9   6  -2 779.780  56.281   6
   9   6  -2 923.456  51.969   2
   8  -6  -2 559.093  41.438   3
   8  -6  -2 491.398  34.990   6
   8  -6  -2 518.801  32.382   5
   8  -6  -2 510.643  32.331   4
  -8  -6   2 484.974  32.594   4
   8   6  -2 505.630  35.536   6
  -8   6   2 500.232  32.502   2
   8   6  -2 533.676  32.826   2
   7  -6  -2 60.2511  4.6870   5
  -7  -6   2 51.3837  4.8222   4
   7  -6  -2 57.0310  4.6786   6
   7  -6  -2 56.5030  4.4249   4
   7   6  -2 68.0111  5.4556   6
  -7   6   2 61.7859  4.5259   2
   7   6  -2 55.2744  5.0746   2
   6  -6  -2 320.328  19.029   5
   6  -6  -2 301.534  20.386   6
   6  -6  -2 282.429  18.795   4
  -6  -6   2 290.763  19.167   4
   6   6  -2 306.943  20.725   6
  -6   6   2 322.856  18.963   2
   6   6  -2 273.239  19.300   2
  -6   6   2 285.255  20.622   6
   5  -6  -2 1093.54   64.77   5
   5  -6  -2 1076.84   70.35   6
  -5  -6   2 1008.17   64.89   4
   5  -6  -2 952.063  64.651   4
   5   6  -2 1061.10   65.31   2
  -5   6   2 1108.35   65.02   2
   5   6  -2 1127.01   70.52   6
  -5   6   2 961.310  70.484   6
  -4  -6   2 834.386  52.163   4
   4  -6  -2 781.479  52.134   5
  -4  -6   2 727.088  52.059   5
   4  -6  -2 891.598  52.093   4
   4  -6  -2 876.463  56.638   6
   4   6  -2 893.020  56.710   6
   4   6  -2 840.089  52.496   2
  -4   6   2 836.398  52.341   2
  -4   6   2 911.114  56.797   6
  -3  -6   2 195.211  12.880   5
   3  -6  -2 199.761  12.888   5
   3  -6  -2 199.621  13.753   6
   3  -6  -2 207.945  12.706   4
  -3  -6   2 204.109  12.706   4
  -3   6   2 207.609  13.888   6
   3   6  -2 202.559  13.760   6
   3   6  -2 199.046  12.814   2
  -3   6   2 200.205  12.755   2
  -2  -6   2 923.729  57.589   5
   2  -6  -2 964.838  62.529   6
   2  -6  -2 886.360  57.520   5
  -2  -6   2 995.154  57.432   4
  -2  -6   2 770.268  75.105   1
   2  -6  -2 1011.91   57.48   4
  -2   6   2 902.854  57.742   2
   2   6  -2 984.574  62.487   6
  -2   6   2 942.959  62.601   6
   2   6  -2 918.037  57.725   2
  -1  -6   2 317.747  18.534   4
   1  -6  -2 301.173  18.579   4
   1  -6  -2 316.404  18.826   5
   1  -6  -2 293.304  20.228   6
  -1  -6   2 319.843  18.885   5
  -1  -6   2 267.901  25.963   1
  -1   6   2 303.356  18.688   2
  -1   6   2 281.784  18.671   2
   1   6  -2 283.174  18.619   2
  -1   6   2 284.399  20.252   6
   1   6  -2 311.583  20.150   6
   0  -6  -2 780.382  47.776   4
   0  -6  -2 789.542  47.912   5
   0  -6   2 797.856  47.704   4
   0  -6   2 788.238  48.001   5
   0  -6  -2 797.807  52.037   6
   0   6   2 772.782  48.015   2
   0   6   2 800.398  52.025   6
   0   6  -2 651.860  47.911   2
   0   6  -2 803.648  51.930   6
  -1  -6  -2 141.882   8.649   4
   1  -6   2 134.764   8.508   4
   1  -6   2 116.253  13.421   1
   1  -6   2 136.451   8.994   5
  -1  -6  -2 133.924   8.857   5
  -1  -6  -2 130.228   9.437   6
   1   6   2 135.025   9.381   6
  -1   6  -2 140.052   8.558   2
  -1   6  -2 142.947   9.316   6
   1   6   2 136.199   8.692   2
   2  -6   2 953.056  74.842   1
  -2  -6  -2 944.362  57.072   5
  -2  -6  -2 851.352  62.079   6
   2  -6   2 934.475  57.195   5
   2  -6   2 924.689  56.860   4
  -2  -6  -2 830.165  56.953   4
   2   6   2 1009.17   62.04   6
   2   6   2 978.904  57.279   2
  -2   6  -2 946.947  61.966   6
  -2   6  -2 880.226  57.133   2
   3  -6   2 43.5578  5.9626   1
  -3  -6  -2 40.2727  3.4161   6
  -3  -6  -2 39.7365  2.8692   4
  -3  -6  -2 42.0892  3.1922   5
   3  -6   2 44.9626  3.4567   5
   3  -6   2 40.1944  2.7407   4
  -3   6  -2 35.5354  2.7252   2
   3   6   2 39.5892  2.9612   2
   3   6   2 39.9722  3.1305   6
   4  -6   2 481.746  27.406   4
  -4  -6  -2 434.906  27.641   5
   4  -6   2 426.115  27.810   5
  -4  -6  -2 425.293  30.195   6
  -4  -6  -2 437.901  27.518   4
  -4   6  -2 438.919  29.902   6
  -4   6  -2 435.599  27.494   2
   4   6   2 423.616  29.888   6
   4   6   2 467.408  27.683   2
  -5  -6  -2 34.8314  3.7616   6
   5  -6   2 38.6253  3.4316   5
  -5  -6  -2 37.8309  2.9172   4
  -5  -6  -2 32.5087  3.0232   5
   5  -6   2 34.2435  2.6996   4
  -5   6  -2 31.6979  2.6826   2
  -5   6  -2 33.8381  3.1866   6
   5   6   2 35.1161  2.9863   6
   5   6   2 31.6689  2.9076   2
  -6  -6  -2 231.043  16.039   6
   6  -6   2 217.010  14.244   4
   6  -6   2 247.282  18.792   3
  -6  -6  -2 195.878  14.284   5
  -6  -6  -2 221.833  14.354   4
   6  -6   2 235.030  14.771   5
   6   6   2 230.559  14.556   2
  -6   6  -2 205.358  15.650   6
  -6   6  -2 231.567  14.347   2
   6   6   2 212.750  15.485   6
   7  -6   2 156.880  10.038   4
  -7  -6  -2 152.537  11.173   6
   7  -6   2 139.524  10.325   5
   7  -6   2 153.330  13.253   3
  -7  -6  -2 142.807  10.077   4
   7   6   2 150.548  10.327   2
   7   6   2 155.521  10.842   6
  -7   6  -2 144.381  10.004   2
  -7   6  -2 130.184  10.933   6
   8  -6   2 295.979  25.786   3
   8  -6   2 326.326  20.498   5
  -8  -6  -2 336.219  21.846   6
   8  -6   2 289.712  20.054   4
  -8   6  -2 319.723  20.210   2
  -8   6  -2 282.602  21.883   6
   8   6   2 310.621  21.848   6
   8   6   2 312.274  20.424   2
  -9  -6  -2 21.3219  3.5433   4
   9  -6   2 27.2471  4.9454   3
   9  -6   2 28.6779  4.0056   5
   9  -6   2 22.3718  3.4560   4
  -9  -6  -2 31.9903  3.5127   6
   9   6   2 26.8847  3.8477   2
  -9   6  -2 33.5287  4.2309   6
   9   6   2 25.5625  3.9859   6
  -9   6  -2 27.2574  3.6214   2
  10  -6   2 4.87294 3.63783   3
  10  -6   2 5.15641 2.47280   4
  10   6   2 4.31758 2.82492   2
 -10   6  -2 6.89564 2.66926   2
  10   6   2 5.28602 2.84109   6
 -10   6  -2 5.70650 2.88255   6
  11  -6   2 21.4424  3.2714   4
  11  -6   2 20.0659  4.4131   3
 -11   6  -2 25.3317  3.9662   6
  11   6   2 16.5459  3.9171   6
  11   6   2 22.2212  3.6864   2
 -11   6  -2 20.5504  3.1981   2
 -12   6  -2 261.109  17.913   6
 -12   6  -2 220.179  16.262   2
  12   6   2 273.377  16.715   2
  12   6   2 223.229  17.948   6
  12   7  -2 232.062  14.593   2
 -12   7   2 188.875  14.771   2
  11  -7  -2 23.7177  5.1175   3
  11   7  -2 31.7480  4.4581   6
 -11   7   2 24.5415  4.1088   2
 -11   7   2 27.6902  4.5933   6
  11   7  -2 33.9200  4.0435   2
 -10  -7   2 390.191  22.831   4
  10  -7  -2 328.995  29.007   3
 -10   7   2 289.560  24.726   6
  10   7  -2 395.920  22.974   2
 -10   7   2 327.836  22.804   2
  10   7  -2 350.980  24.898   6
  -9  -7   2 7.73406 2.64333   4
   9  -7  -2 4.09687 2.10821   4
   9  -7  -2 3.63998 2.98098   3
  -9   7   2 3.77035 2.24425   2
   9   7  -2 1.76646 2.49516   2
   9   7  -2 2.38414 2.63042   6
  -9   7   2 7.09171 2.57735   6
  -8  -7   2 226.782  15.375   4
   8  -7  -2 230.049  14.991   4
   8  -7  -2 234.649  15.238   5
   8   7  -2 250.561  15.631   2
   8   7  -2 226.967  16.728   6
  -8   7   2 215.026  15.050   2
  -8   7   2 222.685  16.530   6
   7  -7  -2 2.96077 1.71117   5
  -7  -7   2 0.76541 1.67844   4
   7  -7  -2 2.58351 1.31297   4
  -7   7   2 2.12580 1.71202   6
  -7   7   2 1.07103 1.32046   2
   7   7  -2 4.02132 2.06788   6
   7   7  -2 6.50677 2.25727   2
  -6  -7   2 327.418  21.061   4
   6  -7  -2 330.013  20.802   4
   6  -7  -2 350.600  21.081   5
  -6   7   2 316.300  20.905   2
   6   7  -2 348.648  22.861   6
  -6   7   2 328.455  22.766   6
   6   7  -2 310.213  21.250   2
  -5  -7   2 23.0371  2.3058   4
   5  -7  -2 21.7168  2.1404   4
   5  -7  -2 21.4531  2.4669   5
   5   7  -2 22.3439  2.4044   6
  -5   7   2 24.2195  2.1636   2
   5   7  -2 24.5816  2.6506   2
  -5   7   2 27.0136  2.5527   6
   4  -7  -2 172.778  11.175   5
   4  -7  -2 174.875  10.877   4
  -4  -7   2 163.355  10.898   4
  -4   7   2 167.722  10.937   2
   4   7  -2 173.554  11.077   2
   4   7  -2 170.955  11.839   6
  -4   7   2 171.681  11.921   6
  -3  -7   2 11.0339  1.7908   5
   3  -7  -2 11.1993  1.6983   5
  -3  -7   2 11.1213  1.2844   4
   3  -7  -2 10.3565  1.3115   4
  -3   7   2 15.6869  1.6021   6
  -3   7   2 10.9592  1.3140   2
   3   7  -2 14.0586  1.4130   2
   2  -7  -2 52.5973  3.5806   4
  -2  -7   2 54.2510  3.5373   4
   2  -7  -2 48.5978  3.9163   5
  -2  -7   2 51.9843  4.0393   5
  -2   7   2 53.1162  3.9822   6
   2   7  -2 55.5624  3.5885   2
  -2   7   2 48.6253  3.6118   2
   1  -7  -2 108.078   6.889   5
  -1  -7   2 101.326   7.037   5
   1  -7  -2 93.0641  6.5209   4
  -1  -7   2 98.6000  6.4666   4
  -1   7   2 99.4014  6.5901   2
  -1   7   2 100.201   6.583   2
  -1   7   2 107.024   7.171   6
   1   7  -2 107.172   6.519   2
   0  -7   2 235.850  15.680   5
   0  -7   2 245.348  15.191   4
   0  -7  -2 246.429  15.281   4
   0  -7  -2 233.262  15.555   5
   0   7   2 250.380  15.374   2
   0   7  -2 239.500  15.257   2
   0   7   2 258.056  16.661   6
   1  -7   2 33.1347  3.0525   5
  -1  -7  -2 33.4215  2.4773   4
   1  -7   2 31.5482  2.3020   4
  -1  -7  -2 33.6773  2.9569   5
  -1   7  -2 33.4581  2.3463   2
   1   7   2 35.7796  2.6777   6
   1   7   2 34.4307  2.5026   2
  -2  -7  -2 7.41653 1.00978   4
  -2  -7  -2 3.76774 1.35862   5
  -2  -7  -2 2.88798 1.14982   6
   2  -7   2 2.50002 1.44765   5
   2  -7   2 2.22592 0.66321   4
   2   7   2 3.89331 0.91445   2
   2   7   2 2.86160 0.91466   6
  -2   7  -2 3.65001 0.71307   2
   3  -7   2 92.4586  6.8165   5
  -3  -7  -2 97.8165  6.6536   5
  -3  -7  -2 98.8728  6.3365   4
   3  -7   2 92.8682  6.1791   4
  -3  -7  -2 95.0134  7.1749   6
  -3   7  -2 98.4876  6.2283   2
   3   7   2 100.435   6.892   6
   3   7   2 92.1543  6.3753   2
  -4  -7  -2 449.596  29.553   5
   4  -7   2 451.721  29.752   5
   4  -7   2 455.156  29.246   4
  -4  -7  -2 472.518  29.375   4
   4   7   2 455.933  29.543   2
   4   7   2 525.310  32.007   6
  -4   7  -2 488.216  29.389   2
  -5  -7  -2 277.940  17.825   4
   5  -7   2 290.526  17.694   4
   5  -7   2 296.597  18.317   5
  -5  -7  -2 263.982  17.945   5
   5   7   2 264.034  17.904   2
   5   7   2 301.523  19.372   6
  -5   7  -2 273.927  17.753   2
   6  -7   2 91.3177  6.6487   4
   6  -7   2 113.914   9.478   3
   6  -7   2 100.791   7.357   5
  -6  -7  -2 90.5264  6.7782   4
   6   7   2 101.633   6.992   2
   6   7   2 92.6900  7.2435   6
  -6   7  -2 98.5626  6.7369   2
   7  -7   2 19.4378  3.9020   3
  -7  -7  -2 17.1182  2.3876   4
   7  -7   2 10.8684  2.0782   4
   7  -7   2 12.7200  2.7960   5
  -7   7  -2 12.5614  2.1363   2
   7   7   2 15.2239  2.5079   2
   7   7   2 11.9668  2.3123   6
  -8  -7  -2 534.035  33.294   4
   8  -7   2 552.582  33.255   4
   8  -7   2 509.939  33.470   5
   8  -7   2 496.848  42.423   3
   8   7   2 512.650  33.534   2
  -8   7  -2 527.123  33.337   2
   8   7   2 527.031  36.115   6
   9  -7   2 293.325  25.378   3
   9  -7   2 285.083  19.749   4
  -9   7  -2 291.348  19.880   2
   9   7   2 314.913  21.633   6
   9   7   2 315.982  20.120   2
  10  -7   2 415.202  26.510   4
  10  -7   2 400.874  33.817   3
 -10   7  -2 384.387  26.632   2
  10   7   2 439.608  26.926   2
  10   7   2 403.228  29.048   6
  11  -7   2 4.63062 3.66802   3
  11   7   2 13.0738  3.6639   6
 -11   7  -2 7.20900 2.86842   2
  11   7   2 8.72638 2.98964   2
 -11   8   2 83.4394  7.9771   6
  11   8  -2 82.7988  7.0579   2
  11   8  -2 92.2830  7.6794   6
 -11   8   2 71.1002  7.1738   2
  10  -8  -2 158.504  15.339   3
 -10   8   2 161.093  13.062   6
 -10   8   2 174.880  12.123   2
  10   8  -2 187.978  12.253   2
  10   8  -2 160.642  13.154   6
   9  -8  -2 42.2687  4.1671   4
   9  -8  -2 34.9921  5.5979   3
  -9  -8   2 31.4981  4.2239   4
   9   8  -2 34.4562  4.4411   2
   9   8  -2 37.6916  4.9675   6
  -9   8   2 34.2101  4.5319   6
  -9   8   2 41.7162  3.9921   2
   8  -8  -2 32.8456  3.3848   4
  -8  -8   2 31.5738  3.7636   4
   8   8  -2 31.7045  4.2304   6
  -8   8   2 34.7080  3.9474   6
   8   8  -2 32.2310  3.9840   2
  -8   8   2 29.3946  3.4116   2
   7  -8  -2 14.9223  2.4812   5
   7  -8  -2 11.3372  1.8995   4
  -7  -8   2 14.5528  2.4060   4
  -7   8   2 11.8356  2.3686   6
  -7   8   2 10.9984  1.9105   2
   7   8  -2 13.1924  2.5949   2
   7   8  -2 15.4464  2.7228   6
  -6  -8   2 120.482   8.517   4
   6  -8  -2 128.288   8.394   4
   6  -8  -2 130.042   8.794   5
  -6   8   2 130.976   9.289   6
  -6   8   2 123.518   8.417   2
   6   8  -2 122.654   8.785   2
   5  -8  -2 13.8372  2.1758   5
   5  -8  -2 14.9481  1.7734   4
  -5  -8   2 12.4512  1.8039   4
  -5   8   2 14.9502  2.0178   6
   5   8  -2 13.4621  1.9908   2
  -5   8   2 18.9079  1.8068   2
   4  -8  -2 115.242   8.039   5
  -4  -8   2 111.330   7.639   4
   4  -8  -2 119.316   7.666   4
   4   8  -2 118.023   7.764   2
  -4   8   2 127.301   8.494   6
  -4   8   2 111.357   7.694   2
   3  -8  -2 3.22801 0.92019   4
   3  -8  -2 2.34941 1.31620   5
  -3  -8   2 0.83719 1.43433   5
  -3  -8   2 2.63487 0.84969   4
  -3   8   2 3.13747 1.15226   6
   3   8  -2 2.05315 0.93376   2
  -3   8   2 1.91234 0.91418   2
   2  -8  -2 96.6228  6.7237   5
  -2  -8   2 93.9229  6.2898   4
  -2  -8   2 93.1901  6.9496   5
   2  -8  -2 99.0283  6.3826   4
  -2   8   2 97.6192  6.4241   2
   2   8  -2 97.9036  6.3538   2
  -2   8   2 101.709   7.013   6
   1  -8  -2 23.9422  2.6288   5
  -1  -8   2 27.2698  2.0345   4
  -1  -8   2 26.0378  2.8268   5
   1  -8  -2 26.2906  2.0784   4
  -1   8   2 25.9762  2.3643   6
   1   8  -2 28.1212  2.0732   2
  -1   8   2 26.3734  2.1579   2
  -1   8   2 26.9348  2.1714   2
   0  -8   2 190.476  12.079   4
   0  -8  -2 191.881  12.571   5
   0  -8   2 189.062  12.747   5
   0  -8  -2 191.823  12.186   4
   0   8   2 195.429  12.263   2
   0   8   2 209.982  13.312   6
   0   8  -2 183.315  12.145   2
   1  -8   2 32.6029  2.4602   4
  -1  -8  -2 35.4473  2.6416   4
   1  -8   2 35.6474  3.4224   5
  -1  -8  -2 37.1939  3.2833   5
   1   8   2 37.7395  2.9092   6
  -1   8  -2 33.8469  2.4952   2
  -1   8  -2 34.5974  2.4784   2
   1   8   2 34.7449  2.6409   2
   2  -8   2 110.696   7.015   4
   2  -8   2 106.099   7.740   5
  -2  -8  -2 104.134   7.148   4
  -2  -8  -2 109.304   7.615   5
   2   8   2 112.864   7.794   6
  -2   8  -2 112.191   7.052   2
   2   8   2 109.305   7.208   2
   3  -8   2 81.8201  6.1245   5
  -3  -8  -2 79.4632  5.4612   4
  -3  -8  -2 79.7508  5.8979   5
   3  -8   2 72.8519  5.2789   4
   3   8   2 85.1410  5.5287   2
  -3   8  -2 86.3802  5.3634   2
   3   8   2 81.2401  5.9499   6
   4  -8   2 98.0117  6.7802   4
  -4  -8  -2 99.8659  7.3203   5
  -4  -8  -2 103.137   6.946   4
   4  -8   2 119.533   7.743   5
   4   8   2 98.5600  6.9964   2
   4   8   2 107.994   7.583   6
  -4   8  -2 107.506   6.845   2
  -5  -8  -2 76.3148  6.2882   5
   5  -8   2 87.8244  6.6996   5
   5  -8   2 87.1191  5.8640   4
  -5  -8  -2 85.1667  5.9549   4
   5   8   2 90.0537  6.1414   2
  -5   8  -2 88.5286  5.9076   2
   5   8   2 88.7848  6.5360   6
  -6  -8  -2 124.030   8.712   4
   6  -8   2 127.042   8.580   4
   6  -8   2 162.546  12.136   3
   6  -8   2 122.411   9.268   5
   6   8   2 130.702   9.432   6
   6   8   2 120.527   8.783   2
  -6   8  -2 124.024   8.609   2
   7  -8   2 82.3468  6.1981   4
  -7  -8  -2 85.7501  6.3851   4
   7  -8   2 85.4675  8.7648   3
   7   8   2 85.9023  6.5499   2
  -7   8  -2 89.4741  6.2974   2
   7   8   2 83.7861  6.8375   6
  -8  -8  -2 36.2934  3.7639   4
   8  -8   2 31.7930  5.5047   3
   8  -8   2 30.3824  3.6798   4
  -8   8  -2 39.1937  3.8681   2
   8   8   2 37.5108  4.0221   6
   8   8   2 31.6262  3.9461   2
  -9  -8  -2 33.7634  4.2260   4
   9  -8   2 30.7683  5.5646   3
   9  -8   2 30.4594  3.9963   4
   9   8   2 34.3778  4.3314   2
  -9   8  -2 32.5592  4.0216   2
   9   8   2 35.6665  4.5200   6
  10  -8   2 96.9845 10.2945   3
 -10   8  -2 96.6623  7.9945   2
  10   8   2 97.1690  8.1385   2
  10   8   2 105.069   8.720   6
 -11   8  -2 29.5736  4.1605   2
  11   8   2 33.2022  4.5105   2
 -10   9   2 46.1476  5.3658   6
  10   9  -2 41.1417  4.9014   2
 -10   9   2 44.0804  4.8637   2
   9  -9  -2 0.32257 3.12907   3
   9   9  -2 1.26562 2.42261   2
  -9   9   2 1.44844 2.37592   6
  -9   9   2 0.59035 2.25665   2
  -8  -9   2 9.45120 2.43302   4
   8  -9  -2 7.52856 2.04963   4
  -8   9   2 6.78654 2.33764   6
  -8   9   2 6.79468 2.13391   2
   8   9  -2 2.84034 2.24953   2
   7  -9  -2 380.164  23.638   4
  -7  -9   2 362.347  23.788   4
   7   9  -2 368.576  24.057   2
  -7   9   2 378.370  23.801   2
  -6  -9   2 119.377   8.563   4
   6  -9  -2 128.400   8.507   4
  -6   9   2 123.265   9.363   6
  -6   9   2 136.012   8.607   2
   6   9  -2 127.236   8.774   2
   5  -9  -2 10.0284  1.5173   4
  -5  -9   2 9.54122 1.50130   4
   5  -9  -2 7.64621 1.97690   5
  -5   9   2 8.92950 1.57264   2
   5   9  -2 12.3512  1.7744   2
  -5   9   2 8.73015 1.80798   6
   4  -9  -2 32.3090  2.7343   4
   4  -9  -2 31.0244  3.2766   5
  -4  -9   2 31.3629  2.6149   4
  -4   9   2 38.1131  3.0705   6
   4   9  -2 34.1939  2.8249   2
  -4   9   2 31.7936  2.7571   2
  -3  -9   2 205.519  13.105   4
   3  -9  -2 209.987  13.631   5
   3  -9  -2 208.779  13.177   4
  -3   9   2 217.086  14.440   6
   3   9  -2 202.032  13.191   2
  -3   9   2 201.595  13.237   2
  -2  -9   2 184.421  13.749   5
  -2  -9   2 213.874  13.119   4
   2  -9  -2 203.191  13.189   4
   2  -9  -2 200.916  13.614   5
   2   9  -2 202.072  13.194   2
  -2   9   2 222.131  13.292   2
  -2   9   2 223.709  14.437   6
   1  -9  -2 20.1451  1.7111   4
  -1  -9   2 23.6802  2.8829   5
   1  -9  -2 17.4834  2.3586   5
  -1  -9   2 16.8304  1.5796   4
  -1   9   2 13.8734  1.6647   2
  -1   9   2 15.6570  1.7102   2
   1   9  -2 16.0289  1.5834   2
  -1   9   2 18.1726  1.9636   6
   0  -9   2 197.722  12.723   4
   0  -9  -2 193.102  12.825   4
   0  -9   2 192.513  13.511   5
   0  -9  -2 211.058  13.388   5
   0   9   2 200.115  12.922   2
   0   9   2 209.407  12.934   2
   0   9  -2 211.081  12.825   2
   0   9   2 207.979  14.032   6
  -1  -9  -2 125.340   8.808   5
   1  -9   2 127.427   8.160   4
  -1  -9  -2 130.116   8.297   4
   1  -9   2 138.012   9.148   5
  -1   9  -2 127.685   8.225   2
  -1   9  -2 126.181   8.222   2
   1   9   2 125.928   8.353   2
   1   9   2 128.063   9.082   6
  -2  -9  -2 156.582  10.701   4
  -2  -9  -2 165.123  11.282   5
   2  -9   2 171.296  11.454   5
   2  -9   2 173.379  10.588   4
   2   9   2 165.651  10.762   2
  -2   9  -2 166.935  10.646   2
   2   9   2 170.779  11.685   6
  -3  -9  -2 9.85857 2.15353   5
   3  -9   2 12.0281  2.3153   5
   3  -9   2 10.9376  1.3116   4
  -3  -9  -2 10.9155  1.5008   4
   3   9   2 10.1413  1.6534   6
   3   9   2 10.0753  1.5278   2
  -3   9  -2 10.4664  1.3288   2
   4  -9   2 356.851  23.273   4
  -4  -9  -2 366.261  23.838   5
  -4  -9  -2 371.354  23.413   4
   4  -9   2 366.336  24.065   5
   4   9   2 373.675  23.546   2
   4   9   2 395.715  25.537   6
  -4   9  -2 378.640  23.401   2
   5  -9   2 221.404  14.281   5
   5  -9   2 208.694  13.337   4
  -5  -9  -2 201.188  13.451   4
   5   9   2 213.174  13.581   2
  -5   9  -2 208.519  13.411   2
   5   9   2 203.024  14.654   6
  -6  -9  -2 77.4892  5.8620   4
   6  -9   2 79.5637  5.7948   4
   6  -9   2 97.4068  8.7026   3
   6   9   2 81.3094  6.0322   2
   6   9   2 80.9333  6.3649   6
  -6   9  -2 78.0960  5.8024   2
  -7  -9  -2 3.80673 1.82089   4
   7  -9   2 5.08741 1.88100   4
   7  -9   2 6.99050 3.52786   3
   7   9   2 8.98142 2.12033   2
   7   9   2 7.76763 2.08447   6
  -7   9  -2 4.96332 1.77180   2
   8  -9   2 286.002  18.455   4
   8  -9   2 279.851  24.069   3
  -8   9  -2 279.490  18.534   2
   8   9   2 265.552  18.685   2
   8   9   2 295.987  20.188   6
   9  -9   2 345.891  31.001   3
  -9   9  -2 375.548  24.265   2
   9   9   2 377.550  24.457   2
   9   9   2 378.194  26.315   6
 -10   9  -2 39.6084  4.8109   2
  10   9   2 35.1029  4.7300   2
  10   9   2 44.8303  5.4449   6
  -9  10   2 44.1981  4.9243   6
  -8  10   2 108.060   7.486   2
  -8  10   2 92.9838  7.9716   6
   8  10  -2 96.4599  7.4896   2
  -7  10   2 6.79220 1.92852   2
   7  10  -2 8.25451 2.04131   2
  -7  10   2 8.59172 2.08639   6
   6 -10  -2 110.573   7.386   4
  -6 -10   2 105.131   7.359   4
  -6  10   2 108.848   7.449   2
   6  10  -2 101.173   7.447   2
  -6  10   2 108.982   8.116   6
  -5 -10   2 104.531   7.071   4
   5 -10  -2 106.133   7.130   4
  -5  10   2 102.854   7.811   6
   5  10  -2 101.774   7.156   2
  -5  10   2 107.131   7.152   2
   4 -10  -2 36.3063  2.9784   4
  -4 -10   2 33.3103  2.8468   4
  -4  10   2 35.3477  3.0007   2
   4  10  -2 35.1568  2.9492   2
  -4  10   2 39.8343  3.3863   6
  -3 -10   2 4.92865 1.17430   4
   3 -10  -2 7.54582 1.33760   4
  -3  10   2 5.68747 1.38162   2
  -3  10   2 5.73879 1.55480   6
   3  10  -2 8.59440 1.34332   2
   2 -10  -2 196.059  12.784   4
   2 -10  -2 210.358  13.421   5
  -2 -10   2 201.319  12.686   4
  -2  10   2 198.294  13.966   6
  -2  10   2 194.860  12.849   2
   2  10  -2 203.880  12.770   2
  -1 -10   2 111.503   7.569   4
   1 -10  -2 109.934   8.342   5
   1 -10  -2 112.373   7.695   4
  -1 -10   2 118.130   8.689   5
   1  10  -2 125.742   7.701   2
  -1  10   2 127.795   8.493   6
  -1  10   2 117.207   7.792   2
   0 -10   2 13.5452  2.6830   5
   0 -10  -2 13.6772  1.5748   4
   0 -10   2 13.2543  1.4015   4
   0 -10  -2 13.4857  2.4459   5
   0  10  -2 12.9274  1.4533   2
   0  10  -2 13.2269  1.4698   2
   0  10   2 11.7150  1.5730   2
   0  10   2 13.8794  1.6272   2
   0  10   2 14.7412  1.8954   6
   1 -10   2 9.05653 1.20958   4
   1 -10   2 12.1172  2.6824   5
  -1 -10  -2 10.3621  1.4218   4
  -1 -10  -2 13.8195  2.4081   5
   1  10   2 10.3853  1.5192   2
  -1  10  -2 9.19281 1.28871   2
   1  10   2 9.06349 1.66039   6
  -2 -10  -2 118.849   8.859   5
  -2 -10  -2 115.797   8.161   4
   2 -10   2 129.489   8.098   4
   2 -10   2 123.936   9.278   5
   2  10   2 123.849   8.285   2
  -2  10  -2 126.251   8.160   2
   2  10   2 136.510   9.049   6
  -3 -10  -2 20.4114  3.1296   5
  -3 -10  -2 25.6427  2.4275   4
   3 -10   2 24.8087  2.2220   4
  -3  10  -2 29.1299  2.3330   2
   3  10   2 25.6180  2.7066   6
   3  10   2 28.5495  2.4765   2
   4 -10   2 67.2070  4.6651   4
  -4 -10  -2 63.2156  4.7489   4
  -4  10  -2 64.9924  4.6967   2
   4  10   2 69.3974  4.9274   2
   4  10   2 68.0408  5.3285   6
   5 -10   2 34.9368  3.0611   4
  -5 -10  -2 38.2685  3.2506   4
   5  10   2 40.0275  3.3618   2
  -5  10  -2 36.6020  3.1198   2
   5  10   2 35.1746  3.5864   6
   6 -10   2 38.5002  5.7152   3
   6 -10   2 30.0688  2.9589   4
  -6 -10  -2 28.6644  2.9997   4
   6  10   2 27.1937  3.0671   2
   6  10   2 32.3608  3.4249   6
  -6  10  -2 29.1301  3.0352   2
   7 -10   2 4.74848 3.43138   3
   7  10   2 4.06107 2.06619   6
  -7  10  -2 5.52170 1.88624   2
   7  10   2 2.36517 1.95884   2
   8 -10   2 32.4772  5.6789   3
   8  10   2 26.2786  3.6464   2
  -8  10  -2 31.0915  3.6402   2
   8  10   2 29.5122  4.0300   6
  -7  11   2 504.109  29.647   2
   7  11  -2 426.035  29.446   2
  -6  11   2 1.29663 1.49031   2
   6  11  -2 1.13182 1.47160   2
  -5  11   2 7.74981 1.67383   2
   5  11  -2 7.54851 1.65125   2
  -4  11   2 144.921   9.229   2
   4  11  -2 130.963   9.097   2
   3 -11  -2 920.777  60.292   4
  -3 -11   2 993.812  60.245   4
   3  11  -2 1040.03   60.58   2
  -3  11   2 945.976  60.640   2
  -2 -11   2 55.7540  4.1595   4
   2 -11  -2 58.3737  4.3330   4
   2  11  -2 63.1768  4.3204   2
  -2  11   2 62.6514  4.3966   2
  -1 -11   2 1.54462 0.94957   4
   1 -11  -2 3.08142 1.12768   4
   1  11  -2 1.15136 1.06934   2
  -1  11   2 0.72036 1.18220   2
   0 -11   2 75.4514  5.2493   4
   0 -11  -2 82.0923  5.4008   4
   0  11  -2 81.4323  5.3587   2
   0  11   2 77.7443  5.4997   2
   0  11   2 77.5793  5.4930   2
   0  11  -2 76.7447  5.3340   2
   1 -11   2 1048.23   64.31   4
  -1 -11  -2 1067.49   64.40   4
   1  11   2 972.802  64.733   2
  -1  11  -2 1144.62   64.69   2
   1  11   2 979.659  64.744   2
   2 -11   2 123.922   8.185   4
  -2 -11  -2 123.641   8.309   4
   2  11   2 127.796   8.445   2
  -2  11  -2 129.496   8.299   2
   3 -11   2 1.16988 1.05824   4
  -3 -11  -2 -0.2918  1.1688   4
  -3  11  -2 1.68387 1.13488   2
   3  11   2 1.71329 1.23495   2
  -4 -11  -2 8.74559 1.61646   4
   4  11   2 6.94114 1.60046   2
  -4  11  -2 8.37086 1.54089   2
  -5  11  -2 596.395  36.808   2
   5  11   2 576.073  36.882   2
   6 -11   2 86.0169  8.5914   3
  -6  11  -2 73.5089  5.3613   2
   6  11   2 60.8958  5.3160   2
   6  11   2 64.5604  5.8340   6
   7  11   2 -0.0284  1.9418   2
   7  11   2 0.85881 2.18453   6
  -7  11  -2 3.45418 1.98544   2
   4  12  -2 42.3130  3.4821   2
  -4  12   2 42.7927  3.6055   2
   3  12  -2 5.98109 1.52892   2
  -3  12   2 11.8819  1.8495   2
  -2  12   2 28.6390  2.8450   2
   2  12  -2 32.6877  2.7204   2
  -1  12   2 3.34945 1.34347   2
   1  12  -2 4.62060 1.34083   2
   1  12  -2 2.65084 1.31186   2
   0  12  -2 76.0189  5.3133   2
   0  12   2 75.9978  5.4296   2
  -1  12  -2 5.34150 1.40810   2
   1  12   2 6.19110 1.54567   2
   1  12   2 7.32171 1.59962   2
   2  12   2 19.7947  2.4086   2
  -2  12  -2 27.3068  2.4234   2
   2  12   2 22.4465  2.4890   2
  -3  12  -2 122.920   8.365   2
   3  12   2 127.802   8.490   2
   4  12   2 142.696  10.105   2
  -4  12  -2 160.199  10.089   2
  -5  12  -2 0.35723 1.60902   2
  14   0  -3 1.20935 2.36855   6
 -13   0   3 0.98499 2.08148   6
  13   0  -3 0.46258 2.26747   6
  12   0  -3 0.86526 2.03175   6
 -12   0   3 2.23453 2.26413   6
  11   0  -3 3.43115 2.11282   3
 -11   0   3 0.19121 2.03222   6
  11   0  -3 1.17259 2.06526   6
  11   0  -3 3.12827 1.97857   2
 -10   0   3 0.34971 2.11715   6
  10   0  -3 2.26263 1.79158   2
  10   0  -3 -0.4519  1.9618   3
  10   0  -3 3.10876 2.08339   6
   9   0  -3 4.85852 1.85600   2
   9   0  -3 5.85689 2.18463   6
   9   0  -3 0.29413 1.90857   3
  -9   0   3 2.30983 1.96396   6
  -8   0   3 2.31230 1.85851   6
  -8   0   3 1.38959 1.58684   4
  -8   0   3 -0.5097  1.4495   2
   8   0  -3 3.01447 2.02574   3
   8   0  -3 1.77036 1.93792   6
   8   0  -3 -1.9498  1.5543   2
  -7   0   3 5.00315 1.75197   6
   7   0  -3 0.52905 1.70477   6
  -7   0   3 1.99465 1.52795   4
  -7   0   3 0.82699 1.49938   2
   7   0  -3 1.04008 1.70857   2
   7   0  -3 1.21004 1.65235   3
  -6   0   3 0.49408 1.33001   6
  -6   0   3 -0.5612  1.3850   2
   6   0  -3 0.98594 1.57504   6
   6   0  -3 -1.0780  0.7771   5
   6   0  -3 1.06602 1.76531   3
  -6   0   3 -0.8366  1.2634   4
   6   0  -3 -0.7588  1.2333   4
   6   0  -3 0.00561 1.36854   2
   5   0  -3 0.25092 0.83358   5
  -5   0   3 0.83514 1.04632   6
   5   0  -3 0.59182 1.07950   2
   5   0  -3 -0.5950  1.2757   6
   5   0  -3 1.81842 1.25080   4
  -5   0   3 0.72924 0.88891   1
  -5   0   3 -0.4128  1.2826   2
   5   0  -3 -0.0416  1.4622   3
  -5   0   3 -0.5278  1.0212   4
  -4   0   3 -0.0943  0.8716   6
  -4   0   3 -0.4783  0.9013   4
   4   0  -3 -1.9146  1.1416   6
  -4   0   3 4.77854 1.51078   2
   4   0  -3 1.65458 1.36717   3
   4   0  -3 0.78748 1.21692   4
   4   0  -3 2.95838 1.00800   2
   3   0  -3 -0.0203  0.8436   6
   3   0  -3 1.48112 0.60548   2
   3   0  -3 1.59395 0.40097   5
   3   0  -3 -0.3553  0.8561   4
  -3   0   3 1.36752 0.58790   4
  -3   0   3 2.50624 0.41187   5
  -3   0   3 -0.2956  0.8035   1
   2   0  -3 -0.3265  0.7637   6
  -1   0   3 1.34512 0.28312   4
   1   0  -3 0.79450 0.30596   2
  -1   0  -3 0.98357 0.38755   2
   1   0   3 1.00850 0.36465   4
   1   0   3 0.87160 0.35340   4
  -2   0  -3 0.16902 0.72205   2
   2   0   3 -0.4219  0.6406   4
  -3   0  -3 1.41126 0.66836   6
  -3   0  -3 6.54919 1.13229   2
  -3   0  -3 0.59651 0.50488   4
   3   0   3 2.57212 1.23546   6
   3   0   3 1.41193 0.87419   4
  -4   0  -3 -0.5777  0.8133   4
   4   0   3 0.63729 1.49743   6
   4   0   3 1.83350 1.27181   4
  -4   0  -3 3.23791 1.12322   6
   4   0   3 0.82877 0.87514   2
   4   0   3 -3.2545  1.5311   3
   5   0   3 1.99039 1.53151   6
   5   0   3 2.68399 1.13448   2
  -5   0  -3 2.42007 1.08337   4
   5   0   3 2.21991 1.38325   4
  -5   0  -3 1.32834 1.34963   6
  -5   0  -3 -0.3898  1.2128   2
   5   0   3 -1.3468  1.4911   3
   6   0   3 1.17209 1.41915   2
  -6   0  -3 0.19217 1.46955   2
   6   0   3 2.98378 1.65244   6
   6   0   3 1.17826 1.55164   4
  -6   0  -3 1.01409 1.68896   6
  -6   0  -3 1.67010 1.30048   4
   6   0   3 -1.5489  1.8688   3
  -7   0  -3 5.40935 2.02582   6
   7   0   3 4.60578 1.71412   2
   7   0   3 2.17287 1.64385   4
   7   0   3 1.98908 2.04485   3
  -7   0  -3 2.09913 1.64457   2
   7   0   3 -0.7720  1.4644   6
   8   0   3 1.60008 1.69022   4
  -8   0  -3 3.14247 1.89724   6
  -8   0  -3 3.14234 1.73288   2
   8   0   3 2.25217 1.63929   6
   9   0   3 0.37970 1.76110   6
   9   0   3 1.67089 1.66377   4
  -9   0  -3 4.04827 1.86201   6
  -9   0  -3 -1.3361  1.5581   2
 -10   0  -3 0.42464 1.87656   2
  10   0   3 1.29515 1.83896   6
 -10   0  -3 1.24253 1.87823   6
 -11   0  -3 1.56474 1.83195   6
 -11   0  -3 2.02905 1.86805   2
  11   0   3 2.04763 1.85505   6
 -12   0  -3 1.07277 1.90080   6
  12   0   3 2.36420 2.11139   6
 -12   0  -3 -1.0968  1.9603   2
 -13   0  -3 0.36305 1.97278   6
  13   0   3 1.22670 2.17685   6
  14   0   3 1.60753 2.34327   6
  14  -1  -3 4.85414 2.61683   6
  13  -1  -3 144.037  12.907   3
 -13  -1   3 150.752  11.072   6
  13  -1  -3 148.388  11.250   6
  13   1  -3 141.410  11.086   6
 -12  -1   3 1583.13   99.82   6
  12  -1  -3 1484.88  115.96   3
  12  -1  -3 1477.91   99.92   6
 -12   1   3 1532.04   99.94   6
  12   1  -3 1401.18   92.04   2
  12   1  -3 1392.50   99.79   6
 -11  -1   3 22.5446  3.1312   6
  11  -1  -3 22.4140  3.4635   6
  11  -1  -3 17.7598  3.5080   3
  11   1  -3 20.4166  3.0884   6
 -11   1   3 21.1477  3.3557   6
  11   1  -3 20.0518  2.8346   2
  10  -1  -3 26.2891  3.6695   6
 -10  -1   3 29.9434  3.3680   6
  10  -1  -3 23.6343  3.8952   3
  10  -1  -3 23.6149  3.0919   2
 -10   1   3 27.2699  3.6572   6
  10   1  -3 22.8059  2.9562   2
  10   1  -3 19.3291  3.1414   6
   9  -1  -3 8.51572 2.26343   2
  -9  -1   3 7.53631 1.84244   4
   9  -1  -3 10.8356  2.5947   6
  -9  -1   3 10.2466  2.4057   6
   9  -1  -3 8.06489 2.58995   3
   9   1  -3 5.51646 2.18211   6
  -9   1   3 7.86708 1.95952   2
   9   1  -3 6.95705 2.01817   2
   9   1  -3 6.84735 2.17258   3
  -9   1   3 11.1819  2.5296   6
   8  -1  -3 1926.25  159.63   3
   8  -1  -3 1824.53  126.82   2
  -8  -1   3 2062.52  137.36   6
   8  -1  -3 2051.04  137.58   6
  -8  -1   3 2188.93  126.13   4
   8   1  -3 2032.04  137.37   6
   8   1  -3 2134.36  159.41   3
   8   1  -3 1872.71  126.73   2
  -8   1   3 2115.50  137.53   6
  -8   1   3 2230.41  126.88   2
   7  -1  -3 35.4784  3.5107   4
   7  -1  -3 32.8644  3.5392   2
   7  -1  -3 38.0328  3.1681   5
   7  -1  -3 36.8615  3.9673   6
   7  -1  -3 30.8853  4.2583   3
  -7  -1   3 47.0840  3.5122   2
  -7  -1   3 35.0561  3.7227   6
  -7  -1   3 42.0795  3.4833   4
  -7   1   3 34.0923  3.8379   6
   7   1  -3 40.8919  3.6412   2
  -7   1   3 40.4543  3.6392   4
  -7   1   3 33.3016  3.4669   2
   7   1  -3 40.5933  4.0212   3
   6  -1  -3 247.626  15.411   5
  -6  -1   3 212.589  16.955   6
  -6  -1   3 251.434  15.813   4
  -6  -1   3 245.290  19.741   1
   6  -1  -3 242.422  19.902   3
   6  -1  -3 243.883  17.201   6
   6  -1  -3 257.833  15.829   4
   6  -1  -3 250.297  15.809   2
   6   1  -3 245.989  19.652   3
   6   1  -3 225.138  15.883   2
  -6   1   3 215.925  16.971   6
  -6   1   3 258.430  15.760   4
   6   1  -3 285.800  17.341   6
  -6   1   3 237.489  15.883   2
   5  -1  -3 52.0429  3.9574   4
   5  -1  -3 54.6002  3.9129   2
  -5  -1   3 55.1796  3.4187   5
   5  -1  -3 43.3714  4.2245   6
  -5  -1   3 44.2942  4.0864   6
  -5  -1   3 58.9228  4.8272   1
  -5  -1   3 65.6020  4.2669   2
   5  -1  -3 57.3296  5.0896   3
  -5  -1   3 41.0850  3.9740   4
   5  -1  -3 54.3751  3.6367   5
  -5   1   3 49.7583  3.9796   2
   5   1  -3 58.5675  4.6920   6
  -5   1   3 52.0359  4.1512   6
   5   1  -3 53.8899  4.8892   3
  -5   1   3 55.1448  3.8882   4
   5   1  -3 55.4659  4.0408   4
   5   1  -3 49.0891  4.0732   2
   4  -1  -3 2352.84  133.44   5
   4  -1  -3 2137.46  133.91   4
   4  -1  -3 2296.22  134.55   2
  -4  -1   3 2238.07  134.01   4
  -4  -1   3 2127.64  145.71   6
   4  -1  -3 2075.47  145.80   6
  -4  -1   3 2183.66  171.04   1
   4   1  -3 2185.71  134.01   4
  -4   1   3 2148.09  134.60   2
  -4   1   3 2225.24  145.74   6
   4   1  -3 1999.83  134.60   2
   4   1  -3 2051.95  169.48   3
  -4   1   3 2331.98  133.90   4
   4   1  -3 2134.45  146.08   6
   3  -1  -3 23.0185  1.8192   4
   3  -1  -3 24.7745  1.8042   2
   3  -1  -3 23.6481  1.6798   5
  -3  -1   3 26.4075  2.5760   1
   3  -1  -3 23.0172  1.9880   6
  -3  -1   3 22.8518  1.8669   4
  -3  -1   3 27.6502  1.9015   6
   3   1  -3 16.8993  2.4875   3
   3   1  -3 25.5557  1.8997   2
  -3   1   3 24.1886  1.7808   4
  -3   1   3 24.0585  1.8717   2
   3   1  -3 22.0972  2.6067   6
   2  -1  -3 1172.48   71.27   5
   2  -1  -3 1142.91   71.49   4
  -2  -1   3 1123.63   71.46   4
   2  -1  -3 1085.71   71.82   2
   2  -1  -3 1156.25   77.85   6
  -2  -1   3 1225.45   91.53   1
  -2  -1   3 1226.94   77.76   6
  -2   1   3 1197.69   71.48   4
   2   1  -3 1103.08   71.80   2
  -2   1   3 1193.64   77.82   6
  -2   1   3 1144.99   71.83   2
  -1  -1   3 44.3658  2.8205   4
  -1  -1   3 38.2345  2.9531   4
   1  -1  -3 46.8973  2.9026   2
   1  -1  -3 45.3499  2.8935   5
   1  -1  -3 51.8798  3.1825   6
  -1  -1   3 40.9097  4.0065   1
   1   1  -3 41.0740  3.0226   5
  -1   1   3 45.1705  2.8795   4
   1   1  -3 44.1152  2.8307   2
  -1   1   3 44.8001  3.1337   6
   0  -1  -3 2464.35  150.37   2
   0  -1   3 2408.50  149.46   4
   0  -1  -3 2616.12  162.99   6
   0  -1   3 2191.80  191.12   1
   0  -1   3 2450.61  149.47   4
   0  -1  -3 2546.61  149.66   4
   0   1   3 2343.55  149.67   4
   0   1   3 2420.38  162.93   6
   1  -1   3 4.68661 1.39416   3
   1  -1   3 4.76263 0.72900   4
  -1  -1  -3 4.82242 0.58097   4
   1  -1   3 4.70589 0.48193   4
  -1  -1  -3 6.51275 0.67519   2
  -1  -1  -3 4.29998 0.61563   6
   1  -1   3 2.80284 1.65599   5
   1   1   3 6.64955 0.68709   6
   1   1   3 5.86239 0.62039   4
  -1   1  -3 3.91089 0.85381   2
  -2  -1  -3 1284.55   84.27   6
   2  -1   3 1174.26   77.36   4
   2  -1   3 1055.66   77.63   5
  -2  -1  -3 1312.50   77.40   4
  -2  -1  -3 1333.47   77.82   2
   2   1   3 1302.99   77.42   4
   2   1   3 1313.44   77.42   4
  -2   1  -3 1199.00   84.23   6
   2   1   3 1284.83   84.29   6
   2   1   3 1292.96   77.78   2
  -3  -1  -3 761.831  48.186   2
  -3  -1  -3 760.211  52.172   6
   3  -1   3 772.395  61.159   3
   3  -1   3 722.592  48.123   4
   3  -1   3 814.113  48.324   5
  -3   1  -3 766.904  48.390   2
   3   1   3 731.311  48.133   2
  -3   1  -3 824.223  52.212   6
   3   1   3 807.352  47.948   4
   3   1   3 814.078  52.237   6
  -4  -1  -3 2460.41  155.74   2
   4  -1   3 2669.28  155.15   4
   4  -1   3 2633.91  154.94   5
  -4  -1  -3 2457.96  154.88   4
  -4  -1  -3 2555.61  168.67   6
   4  -1   3 2786.48  196.62   3
  -4   1  -3 2606.57  155.90   2
  -4   1  -3 2460.68  168.79   6
   4   1   3 2578.08  155.67   2
   4   1   3 2121.15  154.91   4
   4   1   3 2393.81  168.75   6
  -5  -1  -3 6.23454 1.21236   4
   5  -1   3 6.66952 1.30722   2
  -5  -1  -3 7.24515 1.53408   6
   5  -1   3 3.57397 1.41312   6
   5  -1   3 5.44144 1.45313   4
  -5  -1  -3 4.11278 1.35881   2
   5  -1   3 6.01753 2.19632   3
   5   1   3 3.75481 1.33252   4
  -5   1  -3 4.94019 1.67328   6
  -5   1  -3 9.56145 1.65608   2
  -5   1  -3 6.02024 1.21859   4
   5   1   3 5.10437 1.30042   2
   5   1   3 6.65739 1.63672   6
   6  -1   3 341.021  25.448   3
  -6  -1  -3 295.573  21.739   6
   6  -1   3 336.305  19.969   4
   6  -1   3 333.338  21.676   6
  -6  -1  -3 296.870  20.100   2
  -6  -1  -3 274.792  19.815   4
  -6   1  -3 312.463  21.853   6
   6   1   3 314.167  20.014   4
  -6   1  -3 337.158  20.012   2
   6   1   3 282.403  21.716   6
   6   1   3 305.699  20.001   2
  -7  -1  -3 871.082  56.663   2
  -7  -1  -3 766.830  61.307   6
   7  -1   3 940.270  56.260   4
   7  -1   3 966.739  71.375   3
   7  -1   3 953.454  61.218   6
   7   1   3 899.139  56.399   4
  -7   1  -3 876.819  61.337   6
  -7   1  -3 990.667  56.525   2
   7   1   3 873.879  61.311   6
  -8  -1  -3 2432.97  161.79   2
   8  -1   3 2694.52  175.11   6
  -8  -1  -3 2366.71  175.27   6
   8  -1   3 2723.58  160.89   4
   8  -1   3 2554.45  203.68   3
   8   1   3 2440.77  161.77   2
  -8   1  -3 2752.38  161.64   2
   8   1   3 2806.10  161.12   4
   8   1   3 2628.66  175.21   6
  -8   1  -3 2706.29  175.22   6
   9  -1   3 17.1165  3.2619   3
  -9  -1  -3 21.6138  2.9398   2
  -9  -1  -3 18.3110  2.9600   6
   9  -1   3 19.9163  2.5875   4
   9  -1   3 16.4662  2.6874   6
  -9   1  -3 14.8262  2.6425   6
  -9   1  -3 18.6298  2.4875   2
   9   1   3 18.5485  2.8078   6
  10  -1   3 17.6220  3.3673   3
  10  -1   3 16.7142  2.7447   6
 -10  -1  -3 18.4700  2.9478   2
 -10  -1  -3 16.8667  2.8181   6
 -10   1  -3 19.8282  2.5994   2
  10   1   3 15.5564  2.6915   6
 -10   1  -3 17.3647  2.7530   6
  11  -1   3 235.953  16.098   6
 -11  -1  -3 196.241  15.897   6
 -11  -1  -3 258.182  15.108   2
  11   1   3 202.808  15.947   6
 -11   1  -3 235.470  14.892   2
 -11   1  -3 218.038  15.968   6
  12  -1   3 1876.33  115.35   6
 -12  -1  -3 1566.55  115.14   6
 -12   1  -3 1706.35  106.45   2
  12   1   3 1760.57  115.28   6
 -12   1  -3 1649.23  115.24   6
 -13  -1  -3 42.9126  4.5882   6
  13  -1   3 46.8078  4.6420   6
  13   1   3 43.9662  4.4919   6
 -13   1  -3 43.7536  4.3107   2
 -13   1  -3 45.5865  4.6387   6
  14   1   3 -0.4158  2.2837   6
  13  -2  -3 26.3704  3.8717   6
  13  -2  -3 23.5173  4.1941   3
 -13  -2   3 26.5990  3.4781   6
  13   2  -3 20.7293  3.3833   6
  13   2  -3 27.7915  3.3775   2
  12  -2  -3 119.481   8.917   6
  12  -2  -3 92.8242  9.8121   3
 -12  -2   3 107.535   8.316   6
  12   2  -3 102.201   8.402   6
  12   2  -3 105.354   7.770   2
 -11  -2   3 51.7259  4.7258   6
  11  -2  -3 56.5511  5.3434   6
  11  -2  -3 46.1335  5.9745   3
  11   2  -3 45.9435  4.3614   2
 -11   2   3 51.5705  5.3698   6
  11   2  -3 51.6765  4.8141   6
  10  -2  -3 398.531  33.521   3
  10  -2  -3 421.698  29.056   6
 -10  -2   3 411.006  26.321   4
 -10  -2   3 427.226  28.640   6
 -10   2   3 403.785  26.574   2
 -10   2   3 447.321  29.093   6
  10   2  -3 419.143  26.432   2
  10   2  -3 382.276  28.611   6
  -9  -2   3 71.0658  5.9765   6
   9  -2  -3 69.3648  5.8236   2
   9  -2  -3 68.9536  7.3394   3
   9  -2  -3 68.0291  6.3438   6
  -9  -2   3 75.3599  5.5002   4
   9   2  -3 72.7713  5.6192   2
  -9   2   3 71.0219  5.8057   2
  -9   2   3 75.1906  6.4507   6
   9   2  -3 75.2134  6.0763   6
  -8  -2   3 61.0418  4.5037   4
   8  -2  -3 54.9146  4.9599   2
   8  -2  -3 45.2991  5.0433   6
   8  -2  -3 53.5937  6.1524   3
  -8  -2   3 64.4710  4.9629   6
  -8   2   3 57.1414  5.2442   6
  -8   2   3 52.7917  4.8303   2
   8   2  -3 54.6020  4.5786   2
   8   2  -3 60.2817  5.0488   6
   7  -2  -3 56.3911  4.7439   6
  -7  -2   3 60.7807  4.2487   4
   7  -2  -3 52.6265  4.0540   5
   7  -2  -3 54.1172  4.2848   4
   7  -2  -3 48.0773  4.3505   2
  -7  -2   3 47.3469  4.4967   6
   7  -2  -3 50.5818  5.5595   3
   7   2  -3 62.5084  4.8144   6
  -7   2   3 41.7293  4.5362   6
   7   2  -3 54.1189  4.4026   2
  -7   2   3 47.1545  4.4110   2
   6  -2  -3 349.020  24.412   3
  -6  -2   3 296.579  19.179   4
   6  -2  -3 283.928  20.814   6
  -6  -2   3 269.729  24.354   1
   6  -2  -3 300.764  18.878   5
   6  -2  -3 289.993  19.115   4
   6  -2  -3 287.484  19.225   2
  -6   2   3 315.461  19.177   4
  -6   2   3 272.715  20.754   6
   6   2  -3 347.609  21.129   6
  -6   2   3 288.180  19.211   2
   6   2  -3 319.432  19.421   2
   5  -2  -3 169.147  10.373   2
  -5  -2   3 166.825  10.542   4
  -5  -2   3 158.756  13.247   1
  -5  -2   3 134.537  11.097   6
   5  -2  -3 158.955  10.269   4
   5  -2  -3 166.109  10.108   5
   5  -2  -3 170.711  11.217   6
  -5   2   3 144.552  10.294   2
  -5   2   3 177.062  10.335   4
   5   2  -3 173.061  11.603   6
  -5   2   3 152.350  11.139   6
   5   2  -3 141.997  10.589   2
  -4  -2   3 82.5646  6.5776   4
  -4  -2   3 90.8002  6.7839   6
   4  -2  -3 99.8528  6.8873   6
   4  -2  -3 97.2065  6.2775   4
  -4  -2   3 96.3702  8.3081   1
   4  -2  -3 100.203   6.197   5
   4  -2  -3 102.660   6.342   2
   4   2  -3 98.7870  7.3520   6
  -4   2   3 101.989   6.335   2
  -4   2   3 96.4413  6.2900   4
   4   2  -3 91.2655  6.6385   2
   3  -2  -3 162.495  10.401   4
   3  -2  -3 170.299  10.465   2
   3  -2  -3 181.296  11.383   6
  -3  -2   3 164.868  13.596   1
  -3  -2   3 162.291  11.235   6
   3  -2  -3 177.633  10.354   5
  -3  -2   3 136.804  10.568   4
   3   2  -3 161.564  10.618   2
   3   2  -3 155.545  11.622   6
  -3   2   3 164.312  10.439   2
  -3   2   3 179.076  10.413   4
   2  -2  -3 26.3316  1.7913   2
   2  -2  -3 28.2999  1.9618   6
  -2  -2   3 21.8529  1.9263   5
  -2  -2   3 25.2104  1.8723   4
  -2  -2   3 28.4564  2.9334   1
  -2  -2   3 22.8588  1.9735   4
   2  -2  -3 24.9084  1.7654   5
   2  -2  -3 25.1245  1.7540   4
  -2   2   3 22.1286  1.7514   2
  -2   2   3 26.3064  1.9338   6
   2   2  -3 23.0713  2.1143   6
  -2   2   3 26.2064  1.7708   4
   2   2  -3 21.0675  1.7987   2
  -1  -2   3 364.496  29.895   1
  -1  -2   3 363.178  23.010   4
   1  -2  -3 355.914  23.072   5
   1  -2  -3 391.644  25.164   6
  -1  -2   3 355.041  23.220   5
   1  -2  -3 374.909  23.211   2
  -1   2   3 382.954  25.145   6
  -1   2   3 382.717  23.212   2
  -1   2   3 378.904  23.092   4
   1   2  -3 385.564  23.114   2
   0  -2  -3 858.750  57.256   6
   0  -2  -3 765.262  52.834   2
   0  -2  -3 871.347  52.577   4
   0  -2  -3 866.464  52.524   5
   0   2   3 902.777  52.589   4
   0   2   3 872.078  52.844   2
   0   2   3 850.771  57.243   6
   1  -2   3 372.060  32.529   3
  -1  -2  -3 417.497  27.774   6
  -1  -2  -3 437.570  25.501   4
   1  -2   3 394.280  33.000   1
   1  -2   3 386.818  25.828   5
  -1  -2  -3 425.406  25.628   2
   1  -2   3 411.742  25.403   4
   1  -2   3 428.202  25.399   4
   1   2   3 458.987  25.633   2
  -1   2  -3 401.490  25.509   2
   1   2   3 414.031  25.494   4
   1   2   3 394.270  27.753   6
  -2  -2  -3 10.4666  0.9706   2
   2  -2   3 8.92888 2.07575   3
  -2  -2  -3 10.9070  1.0180   6
   2  -2   3 10.2767  2.0080   1
   2  -2   3 10.3556  1.1299   4
   2  -2   3 10.1579  1.8810   5
   2  -2   3 7.42740 0.90792   4
  -2  -2  -3 8.74999 0.91366   4
   2   2   3 9.53454 0.98981   6
  -2   2  -3 10.5800  1.0494   2
   2   2   3 8.84785 0.91947   4
   2   2   3 9.87226 0.95023   2
  -3  -2  -3 666.648  36.993   2
  -3  -2  -3 570.890  40.061   6
   3  -2   3 601.760  47.320   1
   3  -2   3 500.312  36.865   4
   3  -2   3 594.430  39.929   6
  -3  -2  -3 621.592  36.783   4
   3  -2   3 584.956  37.223   5
   3  -2   3 550.369  36.967   4
   3   2   3 637.311  36.995   2
  -3   2  -3 592.582  40.222   6
   3   2   3 613.669  40.054   6
   3   2   3 622.966  36.794   4
  -3   2  -3 573.169  37.106   2
  -4  -2  -3 359.940  23.339   2
   4  -2   3 383.929  23.711   5
   4  -2   3 344.382  23.441   4
  -4  -2  -3 359.920  23.202   4
   4  -2   3 369.222  25.217   6
  -4  -2  -3 380.269  25.319   6
   4  -2   3 360.017  29.923   3
  -4   2  -3 401.354  25.675   6
   4   2   3 377.276  23.365   2
   4   2   3 399.209  25.314   6
  -4   2  -3 329.628  23.525   2
   4   2   3 389.791  23.228   4
   4   2   3 390.395  23.220   4
   5  -2   3 346.919  26.748   6
   5  -2   3 398.704  25.010   5
  -5  -2  -3 386.355  24.654   4
   5  -2   3 421.805  24.884   4
   5  -2   3 436.115  31.755   3
  -5  -2  -3 408.635  24.808   2
  -5  -2  -3 376.244  26.893   6
  -5   2  -3 369.684  27.125   6
   5   2   3 393.101  24.635   4
  -5   2  -3 392.560  24.954   2
   5   2   3 406.714  26.906   6
   5   2   3 388.364  24.810   2
   6  -2   3 1.65333 1.34306   4
  -6  -2  -3 3.40954 1.42897   2
   6  -2   3 2.16052 1.61064   5
   6  -2   3 0.97703 2.02076   3
  -6  -2  -3 2.14134 1.30186   4
  -6  -2  -3 2.21955 1.58428   6
   6  -2   3 1.51926 1.41396   6
   6   2   3 2.77901 1.55248   6
   6   2   3 4.59436 1.54781   2
   6   2   3 4.04193 1.24835   4
  -6   2  -3 5.57053 1.84586   6
  -6   2  -3 1.77395 1.36209   2
   7  -2   3 707.982  40.930   5
   7  -2   3 724.359  51.989   3
   7  -2   3 545.703  44.311   6
  -7  -2  -3 570.093  40.877   4
  -7  -2  -3 614.394  41.164   2
  -7  -2  -3 657.199  44.725   6
   7  -2   3 712.005  40.875   4
   7   2   3 635.919  44.635   6
  -7   2  -3 758.173  44.639   6
   7   2   3 627.822  41.175   2
   7   2   3 595.960  40.876   4
  -7   2  -3 698.396  41.071   2
   8  -2   3 3.76653 1.86891   6
   8  -2   3 2.27133 1.47360   4
  -8  -2  -3 0.80939 1.82536   2
   8  -2   3 1.81864 2.21616   3
  -8  -2  -3 2.65218 2.15399   6
  -8   2  -3 2.39337 1.57315   2
   8   2   3 0.47794 1.86215   6
  -8   2  -3 1.67513 1.79884   6
   8   2   3 1.56599 1.99017   2
   9  -2   3 270.656  18.276   6
   9  -2   3 247.346  16.673   4
  -9  -2  -3 265.251  18.450   6
  -9  -2  -3 271.281  17.194   2
   9  -2   3 263.751  21.346   3
  -9   2  -3 226.258  18.064   6
   9   2   3 242.839  18.343   6
   9   2   3 282.508  17.197   2
  -9   2  -3 254.130  16.724   2
  10  -2   3 14.2822  3.1442   3
 -10  -2  -3 14.2626  2.6757   6
  10  -2   3 10.6233  2.2872   4
  10  -2   3 15.7722  2.7047   6
 -10   2  -3 11.7388  2.2903   2
 -10   2  -3 14.8525  2.4615   6
  10   2   3 10.8720  2.5232   6
  11  -2   3 469.440  30.083   6
 -11  -2  -3 417.000  29.990   6
  11  -2   3 454.904  35.088   3
 -11   2  -3 414.865  29.968   6
  11   2   3 407.717  30.015   6
 -11   2  -3 438.092  27.691   2
 -12  -2  -3 52.0585  5.2442   6
  12  -2   3 64.2895  5.5297   6
 -12   2  -3 62.3932  5.2042   2
  12   2   3 60.8251  5.4998   6
 -12   2  -3 62.1687  5.5342   6
 -13  -2  -3 83.5689  7.5697   6
  13   2   3 89.2952  7.8075   6
 -13   2  -3 100.986   7.771   6
 -13   2  -3 113.801   7.502   2
  13  -3  -3 66.0590  6.1128   6
  13  -3  -3 49.9471  6.4061   3
  13   3  -3 60.5455  5.0173   2
  13   3  -3 53.5305  5.3147   6
  12  -3  -3 316.561  21.086   6
  12  -3  -3 274.273  24.102   3
  12   3  -3 289.150  20.514   6
  12   3  -3 280.532  18.885   2
 -11  -3   3 9.37866 2.25601   6
  11  -3  -3 7.48475 3.28110   3
  11  -3  -3 7.60260 2.81636   6
  11   3  -3 7.19041 2.20620   2
  11   3  -3 6.02640 2.38675   6
 -11   3   3 7.71881 2.47076   2
  10  -3  -3 65.6559  7.5926   3
  10  -3  -3 76.0662  6.8473   6
 -10  -3   3 74.1754  5.9819   6
 -10  -3   3 72.9228  5.5853   4
  10   3  -3 69.7681  6.1784   6
 -10   3   3 68.5688  5.9915   2
  10   3  -3 75.8662  5.6523   2
  -9  -3   3 452.044  24.618   4
   9  -3  -3 346.208  26.925   6
   9  -3  -3 342.035  31.252   3
  -9  -3   3 372.079  26.469   6
   9   3  -3 421.284  24.654   2
  -9   3   3 358.136  24.913   2
   9   3  -3 392.054  26.749   6
   8  -3  -3 718.503  45.662   5
  -8  -3   3 810.941  45.917   4
   8  -3  -3 697.184  50.077   6
   8  -3  -3 654.637  58.166   3
  -8  -3   3 733.069  49.778   6
   8  -3  -3 736.350  46.071   4
  -8   3   3 697.355  46.219   2
   8   3  -3 812.669  50.121   6
   8   3  -3 745.351  46.084   2
   7  -3  -3 334.973  20.753   5
   7  -3  -3 321.435  21.168   2
   7  -3  -3 306.970  22.796   6
   7  -3  -3 361.989  26.753   3
  -7  -3   3 286.203  22.573   6
  -7  -3   3 364.315  20.999   4
   7  -3  -3 325.196  20.956   4
  -7   3   3 306.521  21.021   2
   7   3  -3 344.483  21.113   2
   7   3  -3 338.125  23.010   6
   6  -3  -3 145.135  10.369   6
  -6  -3   3 159.592   9.722   4
   6  -3  -3 147.928   9.697   2
  -6  -3   3 131.752  12.470   1
   6  -3  -3 145.710   9.490   4
   6  -3  -3 144.575   9.363   5
  -6   3   3 137.776   9.545   2
   6   3  -3 132.060  10.616   6
   6   3  -3 153.875   9.790   2
  -5  -3   3 729.768  55.692   6
   5  -3  -3 835.893  55.791   6
   5  -3  -3 906.149  51.079   5
  -5  -3   3 880.718  51.491   4
   5  -3  -3 889.719  51.574   2
  -5  -3   3 733.197  65.777   1
   5  -3  -3 918.481  51.242   4
  -5  -3   3 778.370  50.792   5
  -5   3   3 841.934  51.284   4
   5   3  -3 769.183  56.041   6
   5   3  -3 882.002  51.818   2
  -5   3   3 772.604  51.439   2
  -4  -3   3 1434.37   92.51   5
   4  -3  -3 1620.77   92.90   4
  -4  -3   3 1628.21   93.20   4
   4  -3  -3 1517.77  101.14   6
  -4  -3   3 1392.02  101.06   6
   4  -3  -3 1541.40   93.39   2
  -4  -3   3 1429.71  119.13   1
   4  -3  -3 1446.79   92.65   5
  -4   3   3 1540.41   93.34   2
   4   3  -3 1499.19  101.34   6
  -4   3   3 1456.47   92.92   4
   4   3  -3 1623.57   93.75   2
   3  -3  -3 758.432  45.158   5
   3  -3  -3 740.925  45.236   4
  -3  -3   3 699.705  58.304   1
   3  -3  -3 806.323  49.279   6
  -3  -3   3 684.403  45.073   5
   3  -3  -3 713.489  45.477   2
  -3  -3   3 742.731  45.516   4
  -3   3   3 739.144  49.284   6
   3   3  -3 767.492  49.316   6
  -3   3   3 767.562  45.260   4
   3   3  -3 695.411  45.778   2
  -3   3   3 683.623  45.446   2
  -2  -3   3 260.928  16.852   4
  -2  -3   3 290.707  16.938   5
  -2  -3   3 233.444  17.068   4
   2  -3  -3 274.964  16.992   2
   2  -3  -3 284.329  16.920   5
   2  -3  -3 304.821  18.428   6
  -2  -3   3 254.033  22.171   1
   2  -3  -3 251.339  16.879   4
  -2   3   3 305.622  18.437   6
  -2   3   3 261.181  16.971   2
  -2   3   3 279.941  16.911   4
   2   3  -3 298.931  18.334   6
   2   3  -3 231.043  17.166   2
   1  -3  -3 457.562  28.081   4
   1  -3  -3 462.514  28.092   5
   1  -3  -3 467.786  28.230   2
  -1  -3   3 472.532  27.983   4
  -1  -3   3 432.124  28.163   5
   1  -3  -3 433.966  30.578   6
  -1  -3   3 422.834  36.440   1
  -1   3   3 482.251  30.594   6
  -1   3   3 462.243  28.091   4
   1   3  -3 415.043  28.218   2
  -1   3   3 477.225  28.237   2
  -1   3   3 473.967  28.231   2
   0  -3   3 1776.15  115.17   5
   0  -3  -3 1906.77  115.23   4
   0  -3  -3 1784.05  115.80   2
   0  -3  -3 1952.24  115.06   5
   0  -3  -3 1878.78  125.47   6
   0  -3   3 1611.35  147.75   1
   0   3   3 1986.30  115.89   2
   0   3   3 1915.16  115.24   4
   0   3   3 2073.57  125.63   6
  -1  -3  -3 320.140  20.193   6
  -1  -3  -3 305.659  18.524   4
   1  -3   3 289.181  24.338   1
   1  -3   3 307.533  18.390   4
  -1  -3  -3 314.501  18.600   5
  -1  -3  -3 310.164  18.603   2
   1  -3   3 277.654  18.784   5
   1   3   3 260.318  18.495   4
   1   3   3 294.396  20.159   6
   1   3   3 299.573  18.614   2
  -1   3  -3 309.180  18.474   2
  -2  -3  -3 292.745  20.558   6
  -2  -3  -3 336.827  18.976   2
   2  -3   3 281.258  24.709   1
   2  -3   3 292.194  18.784   4
  -2  -3  -3 340.317  18.991   5
  -2  -3  -3 304.999  18.880   4
   2  -3   3 271.554  19.182   5
   2   3   3 285.557  20.528   6
   2   3   3 301.146  18.864   4
   2   3   3 317.025  18.991   2
  -2   3  -3 314.468  18.863   2
   3  -3   3 10.0638  1.7141   4
   3  -3   3 9.46152 1.72826   5
  -3  -3  -3 8.94390 1.20408   6
  -3  -3  -3 9.36811 1.06127   4
  -3  -3  -3 9.38623 1.05538   2
   3  -3   3 9.01943 1.10015   4
   3  -3   3 12.0546  2.4352   1
   3  -3   3 10.4365  2.0604   3
  -3   3  -3 10.5955  1.8960   6
   3   3   3 11.0180  1.0462   4
   3   3   3 10.4278  1.1321   6
  -3   3  -3 10.4579  1.1087   2
   3   3   3 9.46386 1.09427   2
   4  -3   3 1332.51   79.97   5
  -4  -3  -3 1258.21   79.68   4
   4  -3   3 1147.93   79.74   4
  -4  -3  -3 1389.82   80.07   2
   4  -3   3 1395.03   86.56   6
   4  -3   3 1242.97  101.31   3
  -4  -3  -3 1356.44   86.83   6
   4   3   3 1260.73   79.64   4
   4   3   3 1346.28   86.75   6
  -4   3  -3 1265.16   80.14   2
   4   3   3 1235.52   80.10   2
   5  -3   3 20.9246  3.5398   3
  -5  -3  -3 23.1444  2.5530   6
  -5  -3  -3 27.6548  2.2811   2
   5  -3   3 24.0186  2.5104   4
   5  -3   3 23.2469  2.1420   6
   5  -3   3 22.3566  2.8251   5
  -5  -3  -3 21.8049  2.2136   4
   5   3   3 23.2264  2.3534   6
  -5   3  -3 24.5382  2.4640   2
   5   3   3 24.1272  2.1854   4
   5   3   3 22.1332  2.3103   2
  -5   3  -3 32.6985  3.0933   6
   6  -3   3 246.805  16.387   5
   6  -3   3 235.210  16.167   4
   6  -3   3 261.522  17.236   6
  -6  -3  -3 251.124  16.088   2
  -6  -3  -3 257.505  17.660   6
  -6  -3  -3 260.172  16.108   4
   6  -3   3 234.742  20.656   3
   6   3   3 269.563  16.288   2
  -6   3  -3 220.296  16.178   2
   6   3   3 260.309  17.494   6
   7  -3   3 110.670   8.708   6
   7  -3   3 124.099  10.817   3
  -7  -3  -3 121.695   8.388   4
  -7  -3  -3 104.464   9.114   6
   7  -3   3 115.476   8.241   4
   7  -3   3 126.445   8.568   5
  -7  -3  -3 120.631   8.400   2
  -7   3  -3 119.703   8.373   2
   7   3   3 127.641   8.547   2
  -7   3  -3 137.774   9.117   6
   7   3   3 105.285   8.960   6
   8  -3   3 720.692  42.652   5
   8  -3   3 714.284  42.523   4
  -8  -3  -3 623.388  46.471   6
   8  -3   3 660.337  54.007   3
   8   3   3 642.395  46.494   6
  -8   3  -3 710.773  42.756   2
  -9  -3  -3 50.1351  5.0693   6
   9  -3   3 54.8089  4.4469   4
   9  -3   3 49.3168  5.9374   3
   9  -3   3 47.1291  4.7406   6
  -9   3  -3 61.8044  4.9845   6
   9   3   3 46.5546  5.1743   6
  -9   3  -3 56.5618  4.4978   2
   9   3   3 57.9438  5.0684   2
 -10  -3  -3 290.442  20.611   6
  10  -3   3 263.247  18.791   4
  10  -3   3 277.565  24.038   3
  10  -3   3 284.819  20.508   6
 -10   3  -3 313.304  20.624   6
  10   3   3 319.445  19.455   2
  10   3   3 294.624  20.850   6
 -10   3  -3 293.199  18.933   2
  11  -3   3 10.7036  2.4022   4
  11  -3   3 8.99332 2.96441   3
 -11  -3  -3 8.98419 2.37329   6
 -11   3  -3 12.2955  2.2936   2
 -11   3  -3 11.9408  2.5739   6
  11   3   3 9.42224 2.60376   6
 -12  -3  -3 289.697  20.430   6
  12  -3   3 301.887  24.101   3
 -12   3  -3 297.632  20.558   6
 -12   3  -3 296.521  18.983   2
  12   3   3 263.137  20.564   6
 -13  -3  -3 167.987  13.070   6
  13   3   3 173.391  13.247   6
 -13   3  -3 183.486  12.285   2
 -13   3  -3 190.049  13.234   6
 -14   3  -3 283.456  18.746   2
  13   4  -3 447.173  32.194   6
  13   4  -3 481.745  29.783   2
  12  -4  -3 37.3544  5.7602   3
  12  -4  -3 45.2635  5.0736   6
  12   4  -3 40.4613  4.0211   2
  12   4  -3 40.2921  4.5508   6
  11  -4  -3 552.296  39.516   6
  11  -4  -3 537.794  45.934   3
  11   4  -3 601.651  36.131   2
 -11   4   3 586.426  36.549   2
  11   4  -3 563.824  39.119   6
 -10  -4   3 12.5017  2.4210   4
  10  -4  -3 7.13084 3.25015   3
  10  -4  -3 7.91091 2.64361   6
  10   4  -3 7.95563 2.45100   6
 -10   4   3 7.71436 2.59678   2
  10   4  -3 7.76815 2.23604   2
   9  -4  -3 678.851  56.948   3
  -9  -4   3 782.469  44.792   4
   9  -4  -3 625.478  48.806   6
  -9   4   3 699.869  45.217   2
   9   4  -3 746.401  44.954   2
   9   4  -3 748.632  48.855   6
  -8  -4   3 21.8679  2.6460   4
   8  -4  -3 21.8240  2.5369   5
   8  -4  -3 17.4239  3.4394   3
   8  -4  -3 18.4941  2.5820   4
  -8  -4   3 17.0235  2.3842   6
   8  -4  -3 15.8615  2.7934   6
   8   4  -3 15.8697  3.0295   6
   8   4  -3 18.2059  2.5828   2
  -8   4   3 15.5688  2.6001   2
   7  -4  -3 779.215  48.652   5
   7  -4  -3 722.431  48.774   4
   7  -4  -3 755.189  53.119   6
  -7  -4   3 867.223  49.061   4
   7   4  -3 744.778  53.440   6
  -7   4   3 787.473  49.103   2
   7   4  -3 840.657  49.259   2
  -6  -4   3 6.83386 1.47338   6
   6  -4  -3 8.09684 1.34683   4
   6  -4  -3 7.02285 1.52190   6
   6  -4  -3 8.16412 1.41213   5
  -6  -4   3 7.28072 2.75231   1
  -6  -4   3 9.77172 1.95378   4
  -6   4   3 6.72406 1.36549   2
   6   4  -3 6.70629 2.05476   6
   6   4  -3 6.66016 1.82700   2
   5  -4  -3 542.316  34.546   2
   5  -4  -3 585.667  34.241   5
   5  -4  -3 558.424  34.249   4
   5  -4  -3 547.508  37.289   6
  -5  -4   3 515.415  34.567   4
  -5  -4   3 552.512  44.598   1
   5   4  -3 568.470  34.802   2
  -5   4   3 543.346  34.422   2
   5   4  -3 554.923  37.551   6
   4  -4  -3 560.152  31.418   5
   4  -4  -3 534.038  31.639   2
  -4  -4   3 454.738  40.852   1
  -4  -4   3 499.231  31.279   5
   4  -4  -3 537.858  34.179   6
   4  -4  -3 522.813  31.399   4
  -4  -4   3 484.190  34.049   6
  -4   4   3 495.177  34.237   6
  -4   4   3 510.162  31.540   2
   4   4  -3 451.208  31.840   2
   4   4  -3 513.028  34.276   6
   3  -4  -3 397.912  22.407   4
  -3  -4   3 349.779  29.432   1
   3  -4  -3 347.696  24.366   6
  -3  -4   3 329.101  22.580   4
   3  -4  -3 365.089  22.541   2
   3  -4  -3 383.141  22.430   5
  -3  -4   3 338.025  22.371   5
  -3  -4   3 331.787  22.370   4
  -3   4   3 393.968  22.441   4
   3   4  -3 375.599  24.354   6
  -3   4   3 328.863  22.481   2
  -3   4   3 388.807  24.434   6
  -2  -4   3 69.8670  4.3192   4
   2  -4  -3 66.5882  4.5030   5
  -2  -4   3 55.6752  4.4350   4
   2  -4  -3 69.0406  4.4469   2
  -2  -4   3 56.1466  6.6372   1
   2  -4  -3 65.0179  4.7580   6
  -2  -4   3 70.1416  4.5625   5
   2  -4  -3 65.5960  4.3829   4
  -2   4   3 70.9556  4.4253   2
   2   4  -3 65.1384  4.6612   6
  -2   4   3 73.9961  4.8362   6
  -2   4   3 71.2449  4.4234   4
  -1  -4   3 238.162  15.745   4
  -1  -4   3 258.831  21.250   1
   1  -4  -3 237.310  15.887   2
   1  -4  -3 262.967  15.812   4
   1  -4  -3 267.948  15.905   5
  -1  -4   3 273.209  15.707   4
  -1  -4   3 243.528  15.975   5
   1  -4  -3 266.535  17.228   6
  -1   4   3 283.285  15.849   4
  -1   4   3 253.008  15.895   2
  -1   4   3 253.120  17.235   6
   1   4  -3 227.319  15.845   2
  -1   4   3 245.109  15.895   2
   0  -4   3 629.909  59.812   1
   0  -4   3 746.131  46.048   4
   0  -4  -3 792.619  46.192   5
   0  -4  -3 693.910  50.271   6
   0  -4   3 740.468  46.039   4
   0  -4  -3 728.462  46.389   2
   0  -4  -3 794.076  46.177   4
   0  -4   3 693.052  46.282   5
   0   4   3 797.730  46.409   2
   0   4  -3 764.240  46.278   2
   0   4   3 786.577  50.271   6
   0   4   3 816.951  46.189   4
  -1  -4  -3 77.2953  5.8277   6
   1  -4   3 71.0725  7.9634   1
   1  -4   3 75.4589  5.6456   5
   1  -4   3 85.8375  5.1808   4
  -1  -4  -3 81.3869  5.3488   2
  -1  -4  -3 80.4103  5.3299   4
  -1  -4  -3 83.7607  5.4941   5
   1  -4   3 86.7723  5.2172   4
   1   4   3 87.5092  5.3822   2
   1   4   3 83.9378  5.3243   4
   1   4   3 88.4250  5.8066   6
  -1   4  -3 82.7334  5.2011   2
  -2  -4  -3 274.173  16.451   5
   2  -4   3 242.861  16.298   4
  -2  -4  -3 272.042  16.390   2
   2  -4   3 270.820  16.708   5
   2  -4   3 232.599  21.774   1
  -2  -4  -3 266.039  17.822   6
   2  -4   3 259.244  16.213   4
  -2  -4  -3 253.586  16.330   4
   2   4   3 269.715  16.439   2
   2   4   3 278.797  17.794   6
  -2   4  -3 248.472  16.277   2
   2   4   3 276.073  16.326   4
  -3  -4  -3 170.911  11.808   4
   3  -4   3 171.581  11.908   4
  -3  -4  -3 178.079  12.926   6
   3  -4   3 220.383  16.199   1
  -3  -4  -3 176.980  11.826   2
   3  -4   3 200.162  12.292   5
   3  -4   3 197.230  11.746   4
  -3   4  -3 178.474  11.764   2
   3   4   3 190.194  11.794   4
   3   4   3 198.291  11.910   2
   3   4   3 197.516  12.855   6
   4  -4   3 71.1526  6.3552   3
   4  -4   3 67.9823  5.0607   5
  -4  -4  -3 65.4594  4.6488   5
  -4  -4  -3 73.0307  4.4903   2
   4  -4   3 63.4882  4.4796   4
  -4  -4  -3 59.8913  4.4661   4
  -4  -4  -3 67.3231  5.0083   6
   4   4   3 66.0591  4.8638   6
  -4   4  -3 64.3026  4.4791   2
  -4   4  -3 60.7411  5.1951   6
   4   4   3 67.8843  4.4292   4
   4   4   3 66.3565  4.5718   2
   5  -4   3 65.8211  4.7275   4
  -5  -4  -3 68.2920  4.5591   2
  -5  -4  -3 62.3764  5.1982   6
  -5  -4  -3 62.5144  4.6093   4
   5  -4   3 58.8327  6.3956   3
   5  -4   3 63.9066  5.1942   5
  -5   4  -3 64.9703  4.7179   2
   5   4   3 64.3942  4.9471   6
   5   4   3 72.1075  4.8242   2
  -5   4  -3 72.0377  5.4047   6
  -6  -4  -3 37.9446  3.3816   2
   6  -4   3 43.4350  4.1764   5
  -6  -4  -3 44.5611  4.1124   6
   6  -4   3 39.0701  5.0169   3
  -6  -4  -3 42.9466  3.5172   4
   6  -4   3 47.0437  3.7992   4
  -6   4  -3 49.4842  4.1784   6
  -6   4  -3 40.8485  3.6961   2
   6   4   3 46.0620  3.7128   2
   6   4   3 37.8290  3.6533   6
   7  -4   3 282.292  18.954   5
   7  -4   3 274.198  23.907   3
   7  -4   3 262.230  18.650   4
  -7  -4  -3 282.345  20.534   6
   7   4   3 290.943  18.896   2
  -7   4  -3 273.343  18.823   2
  -7   4  -3 334.132  20.472   6
   7   4   3 314.225  20.351   6
   8  -4   3 109.941   7.855   4
  -8  -4  -3 105.489   8.831   6
   8  -4   3 112.132   8.294   5
   8  -4   3 116.448  10.361   3
  -8   4  -3 104.087   7.961   2
   8   4   3 108.251   8.670   6
   8   4   3 110.320   8.257   2
   9  -4   3 114.893  10.847   3
   9  -4   3 116.039   8.659   5
   9  -4   3 114.626   8.317   4
  -9  -4  -3 115.457   9.283   6
   9   4   3 103.687   9.307   6
  -9   4  -3 118.267   8.371   2
   9   4   3 105.147   8.658   2
  -9   4  -3 143.398   9.241   6
 -10  -4  -3 64.5656  5.9407   6
  10  -4   3 69.6695  5.4806   4
  10  -4   3 65.1010  7.1922   3
  10  -4   3 66.9644  5.8352   5
  10   4   3 73.4745  5.9626   2
  10   4   3 56.7929  6.3354   6
 -10   4  -3 69.9717  5.8597   6
 -10   4  -3 64.4800  5.4568   2
  11  -4   3 349.226  24.542   4
 -11  -4  -3 380.978  26.720   6
  11  -4   3 359.423  31.325   3
 -11   4  -3 398.062  24.767   2
 -11   4  -3 421.810  26.903   6
  11   4   3 395.660  27.168   6
 -12  -4  -3 166.158  12.287   6
  12   4   3 153.901  12.667   6
 -12   4  -3 164.751  11.443   2
 -12   4  -3 182.030  12.558   6
 -13  -4  -3 86.2112  6.9937   6
 -13   4  -3 83.5392  6.6375   2
 -13   4  -3 83.5540  7.1487   6
  13   4   3 82.2863  7.3495   6
  13   5  -3 13.5979  2.7992   2
  12  -5  -3 3.07420 3.50244   3
  12   5  -3 3.46284 2.23147   2
  12   5  -3 2.19679 2.44502   6
 -12   5   3 2.80899 2.59860   2
  11  -5  -3 225.328  21.095   3
  11  -5  -3 229.936  17.905   6
 -11  -5   3 283.724  16.473   4
 -11   5   3 218.507  16.691   2
  11   5  -3 244.038  17.777   6
  11   5  -3 271.676  16.421   2
  10  -5  -3 338.793  25.307   6
  10  -5  -3 343.821  29.823   3
  10   5  -3 385.573  23.317   2
 -10   5   3 357.850  23.673   2
  10   5  -3 369.268  25.335   6
   9  -5  -3 1.33984 2.64273   3
  -9  -5   3 1.39055 1.84803   4
   9  -5  -3 2.83144 2.16023   6
   9   5  -3 -0.3366  1.9269   2
   9   5  -3 2.17945 2.31368   6
  -9   5   3 -1.0409  1.9888   2
  -8  -5   3 10.3315  2.3146   4
   8  -5  -3 10.0570  3.1108   3
   8  -5  -3 8.41664 1.95966   4
   8  -5  -3 8.70639 1.94374   5
   8  -5  -3 8.75496 2.16002   6
   8   5  -3 10.1970  2.2286   2
  -8   5   3 8.66788 2.11187   2
   8   5  -3 9.61625 2.70321   6
   7  -5  -3 161.058  11.408   6
   7  -5  -3 152.080  10.553   5
  -7  -5   3 180.426  11.030   4
   7  -5  -3 151.533  10.521   4
   7   5  -3 171.087  11.004   2
   7   5  -3 144.660  11.871   6
  -7   5   3 161.118  10.657   2
   6  -5  -3 864.767  53.087   4
   6  -5  -3 904.580  57.783   6
  -6  -5   3 723.650  53.331   4
   6  -5  -3 916.024  53.079   5
  -6   5   3 883.249  57.960   6
   6   5  -3 895.022  53.768   2
   6   5  -3 872.333  58.125   6
  -6   5   3 800.304  53.340   2
   5  -5  -3 3.88096 0.94492   4
  -5  -5   3 1.50172 2.58840   1
  -5  -5   3 2.79865 1.51441   4
   5  -5  -3 3.30026 1.10349   5
   5  -5  -3 2.83239 1.02407   6
  -5   5   3 1.94301 1.11353   6
  -5   5   3 1.78548 0.88617   2
   5   5  -3 3.73840 1.62098   2
   5   5  -3 3.14003 1.33302   6
   4  -5  -3 52.8633  3.8865   6
  -4  -5   3 52.2872  3.8992   4
   4  -5  -3 54.7185  3.7550   5
  -4  -5   3 48.1668  3.6963   5
   4  -5  -3 51.7908  3.5904   4
  -4  -5   3 51.9195  6.2504   1
  -4   5   3 56.9018  3.6661   2
   4   5  -3 47.2620  4.0046   2
  -4   5   3 50.4784  3.9668   6
   4   5  -3 50.7249  3.9525   6
  -3  -5   3 101.854   9.897   1
  -3  -5   3 90.3409  6.5955   4
  -3  -5   3 92.1569  6.6624   5
   3  -5  -3 102.919   7.067   6
   3  -5  -3 102.270   6.658   5
   3  -5  -3 104.368   6.526   4
  -3   5   3 107.495   7.170   6
   3   5  -3 102.564   7.032   6
  -3   5   3 111.263   6.576   2
   3   5  -3 93.4951  6.7101   2
   2  -5  -3 1411.09   77.68   2
   2  -5  -3 1326.59   84.09   6
  -2  -5   3 1254.75  100.02   1
   2  -5  -3 1168.73   77.23   4
   2  -5  -3 1266.40   77.21   5
  -2  -5   3 1413.22   77.17   4
  -2  -5   3 1106.77   77.22   5
  -2  -5   3 1241.24   77.21   4
  -2   5   3 1220.82   84.13   6
   2   5  -3 1161.64   77.62   2
  -2   5   3 1242.63   77.64   2
   2   5  -3 1254.63   83.99   6
  -1  -5   3 148.892  13.457   1
  -1  -5   3 156.556   9.251   4
   1  -5  -3 144.193   9.507   5
   1  -5  -3 160.695  10.211   6
  -1  -5   3 135.252   9.605   5
   1  -5  -3 142.088   9.417   2
  -1  -5   3 151.699   9.269   4
   1  -5  -3 146.185   9.348   4
  -1   5   3 153.275   9.424   2
  -1   5   3 137.030  10.197   6
   1   5  -3 157.354  10.055   6
  -1   5   3 151.119   9.427   2
   1   5  -3 146.600   9.330   2
   0  -5  -3 100.363   6.660   5
   0  -5  -3 104.095   7.085   6
   0  -5   3 107.618   6.357   4
   0  -5  -3 100.989   6.479   4
   0  -5   3 93.8327  6.7749   5
   0  -5   3 87.7766  9.9375   1
   0  -5  -3 101.413   6.512   2
   0   5  -3 105.997   6.389   2
   0   5  -3 106.025   6.918   6
   0   5   3 93.5212  7.0398   6
   0   5   3 101.157   6.528   2
   1  -5   3 160.769  10.053   4
  -1  -5  -3 173.575  10.228   4
   1  -5   3 136.559  14.505   1
  -1  -5  -3 152.361  11.122   6
   1  -5   3 158.041  10.539   5
  -1  -5  -3 163.828  10.232   2
   1  -5   3 162.553  10.069   4
  -1  -5  -3 170.412  10.382   5
   1   5   3 170.879  10.288   2
   1   5   3 160.752  11.100   6
  -1   5  -3 164.396  10.104   2
   2  -5   3 925.253  60.442   4
  -2  -5  -3 1013.44   60.62   5
  -2  -5  -3 979.940  60.564   4
  -2  -5  -3 990.240  65.984   6
   2  -5   3 1037.68   78.82   1
   2  -5   3 955.322  60.414   4
   2  -5   3 1027.63   60.82   5
   2   5   3 941.763  65.907   6
  -2   5  -3 965.961  65.832   6
   2   5   3 1065.14   60.89   2
  -2   5  -3 924.789  60.702   2
  -3  -5  -3 724.276  51.365   6
   3  -5   3 756.367  47.006   4
  -3  -5  -3 794.312  47.138   4
   3  -5   3 741.516  47.415   5
  -3  -5  -3 823.458  47.219   5
   3   5   3 838.069  51.308   6
  -3   5  -3 789.118  47.223   2
  -3   5  -3 656.863  51.238   6
   3   5   3 747.560  47.373   2
  -4  -5  -3 47.4329  3.6879   5
   4  -5   3 61.6404  5.9693   1
  -4  -5  -3 49.0296  3.5120   4
   4  -5   3 52.9546  3.4211   4
   4  -5   3 50.1742  4.1264   5
  -4  -5  -3 50.4917  4.0213   6
   4   5   3 50.3875  3.7953   6
  -4   5  -3 37.1087  3.8643   6
   4   5   3 47.9794  3.5328   2
  -4   5  -3 47.2617  3.4106   2
   5  -5   3 200.808  16.537   3
   5  -5   3 207.608  13.103   5
  -5  -5  -3 183.221  13.888   6
  -5  -5  -3 193.495  12.569   4
  -5  -5  -3 187.851  12.663   5
   5  -5   3 210.522  12.599   4
  -5   5  -3 206.222  12.638   2
   5   5   3 183.823  13.598   6
   5   5   3 194.792  12.702   2
   6  -5   3 407.988  32.611   3
  -6  -5  -3 438.005  27.948   6
  -6  -5  -3 395.734  25.326   4
   6  -5   3 397.228  25.717   5
   6  -5   3 401.454  25.380   4
   6   5   3 393.654  27.462   6
  -6   5  -3 405.046  25.476   2
   6   5   3 411.986  25.566   2
  -6   5  -3 367.292  27.707   6
  -7  -5  -3 869.932  51.779   4
   7  -5   3 804.632  51.763   4
   7  -5   3 819.535  51.986   5
  -7  -5  -3 854.148  56.568   6
   7  -5   3 750.423  65.742   3
  -7   5  -3 929.769  56.529   6
  -7   5  -3 855.462  52.040   2
   7   5   3 785.995  52.047   2
   7   5   3 791.311  56.170   6
  -8  -5  -3 1.85407 2.34781   6
   8  -5   3 -0.6019  1.7917   4
   8  -5   3 0.14395 2.22097   5
  -8  -5  -3 0.09226 1.89143   4
   8  -5   3 2.40821 2.74147   3
  -8   5  -3 3.44602 2.08749   6
   8   5   3 4.55433 2.21695   6
  -8   5  -3 1.14151 2.02699   2
   8   5   3 1.09304 2.21940   2
   9  -5   3 118.723   8.520   4
   9  -5   3 110.434  11.062   3
  -9  -5  -3 120.780   9.383   6
   9  -5   3 116.651   8.892   5
   9   5   3 113.235   9.008   2
  -9   5  -3 112.171   8.636   2
  -9   5  -3 139.572   9.472   6
   9   5   3 108.720   9.491   6
  10  -5   3 141.245  13.714   3
  10  -5   3 148.897  10.503   4
  10  -5   3 156.976  10.899   5
 -10  -5  -3 150.908  11.423   6
 -10   5  -3 173.764  11.727   6
 -10   5  -3 147.264  10.593   2
  10   5   3 161.411  11.158   2
  10   5   3 135.897  11.819   6
 -11  -5  -3 366.721  24.758   6
  11  -5   3 346.019  29.192   3
  11  -5   3 353.873  22.839   4
 -11   5  -3 339.948  22.894   2
 -11   5  -3 355.111  24.924   6
  11   5   3 308.476  25.093   6
  11   5   3 408.844  23.558   2
  12  -5   3 9.62595 3.60229   3
 -12  -5  -3 15.1217  2.8011   6
 -12   5  -3 12.2202  2.6003   2
 -12   5  -3 17.5309  3.1801   6
  12   5   3 11.7975  3.1983   6
 -13  -5  -3 34.8876  3.9343   6
 -13   5  -3 32.3507  3.8763   2
  12   6  -3 140.083   9.417   2
 -12   6   3 135.832  10.798   6
  12   6  -3 123.300  10.241   6
 -12   6   3 120.407   9.803   2
 -11  -6   3 76.6942  5.7966   4
  11  -6  -3 47.8242  7.2971   3
  11   6  -3 66.7058  6.3028   6
  11   6  -3 66.3558  5.6321   2
 -11   6   3 73.3643  6.9071   6
 -11   6   3 60.2547  6.2122   2
 -10  -6   3 88.9356  6.3331   4
  10  -6  -3 73.4968  8.2854   3
 -10   6   3 62.5687  7.0392   6
  10   6  -3 73.0770  6.9318   6
 -10   6   3 66.6659  6.4937   2
  10   6  -3 89.5220  6.3955   2
  -9  -6   3 40.6914  4.0678   4
   9  -6  -3 35.7959  3.7331   5
   9  -6  -3 29.5615  3.7336   6
   9  -6  -3 32.3140  3.7970   4
   9  -6  -3 25.2193  4.6781   3
   9   6  -3 42.9116  3.8686   2
  -9   6   3 31.4699  3.6775   2
  -9   6   3 25.3042  4.0413   6
   9   6  -3 33.5622  4.3820   6
  -8  -6   3 231.828  14.206   4
   8  -6  -3 197.481  14.854   6
   8  -6  -3 213.309  13.843   5
   8  -6  -3 207.847  13.798   4
  -8   6   3 186.075  15.122   6
   8   6  -3 242.911  14.323   2
  -8   6   3 194.853  13.827   2
   8   6  -3 208.770  15.429   6
  -7  -6   3 4.84617 2.21273   4
   7  -6  -3 12.0127  1.8850   6
   7  -6  -3 7.81517 1.60422   4
   7  -6  -3 12.3577  1.9161   5
   7   6  -3 10.9402  2.4885   6
  -7   6   3 7.81592 1.97189   6
   7   6  -3 7.18362 2.22588   2
  -7   6   3 9.87977 1.75193   2
  -6  -6   3 19.4808  2.6936   4
   6  -6  -3 18.3658  2.1180   6
   6  -6  -3 20.7997  2.3013   5
   6  -6  -3 19.2121  2.0296   4
  -6   6   3 21.1750  2.5174   6
   6   6  -3 23.6487  2.8234   6
  -6   6   3 21.6086  2.1162   2
   6   6  -3 15.8080  2.6478   2
   5  -6  -3 13.5186  1.5520   4
   5  -6  -3 14.0303  1.6675   6
  -5  -6   3 14.2533  2.0684   4
   5  -6  -3 13.7068  1.8110   5
  -5   6   3 12.3036  1.5247   2
   5   6  -3 21.2196  2.3979   2
  -5   6   3 12.8194  1.8440   6
   5   6  -3 15.0896  1.9491   6
   4  -6  -3 97.5804  6.6670   5
   4  -6  -3 92.5725  7.0014   6
  -4  -6   3 100.846   6.623   4
   4  -6  -3 103.109   6.507   4
  -4  -6   3 89.5717  9.9464   1
   4   6  -3 97.2332  6.7739   2
  -4   6   3 101.253   6.539   2
  -4   6   3 106.351   7.182   6
   4   6  -3 98.3186  7.0589   6
  -3  -6   3 68.5432  7.8943   1
  -3  -6   3 60.1262  4.6635   5
   3  -6  -3 67.1548  4.6905   6
   3  -6  -3 61.0913  4.3238   4
   3  -6  -3 62.2585  4.5512   5
  -3  -6   3 59.2296  4.3107   4
   3   6  -3 66.6795  4.6380   6
  -3   6   3 63.2256  4.3553   2
   3   6  -3 64.4782  4.4285   2
  -3   6   3 75.2013  4.8521   6
  -2  -6   3 26.1703  2.0009   4
  -2  -6   3 27.7035  2.5700   5
   2  -6  -3 29.0922  2.3942   5
  -2  -6   3 24.5210  5.2920   1
   2  -6  -3 29.7265  2.2765   6
   2  -6  -3 26.1007  2.0878   4
  -2   6   3 30.3338  2.4013   6
   2   6  -3 27.7370  2.0908   2
  -2   6   3 28.3472  2.1705   2
   1  -6  -3 17.6900  1.9095   5
  -1  -6   3 16.3462  4.7873   1
   1  -6  -3 19.0060  1.7956   6
  -1  -6   3 18.5613  1.4976   4
  -1  -6   3 16.4329  2.1573   5
   1  -6  -3 23.3910  1.6348   4
   1   6  -3 20.4734  1.5278   2
  -1   6   3 20.6937  1.6801   2
  -1   6   3 20.1906  1.8238   6
  -1   6   3 19.8988  1.6810   2
   0  -6  -3 16.3380  1.4959   6
   0  -6   3 12.4889  1.0969   4
   0  -6  -3 15.6754  1.6720   5
   0  -6  -3 16.4706  1.2940   4
   0  -6   3 12.8456  1.8051   5
   0  -6   3 13.2966  4.4886   1
   0   6   3 11.5508  1.3187   2
   0   6  -3 15.2901  1.1148   2
   0   6   3 11.8526  1.3647   6
  -1  -6  -3 131.480   8.299   4
   1  -6   3 149.952   8.131   4
   1  -6   3 126.060   8.732   5
  -1  -6  -3 118.182   8.445   5
  -1  -6  -3 127.395   9.052   6
   1  -6   3 97.7222 12.6363   1
   1   6   3 129.942   9.001   6
   1   6   3 129.436   8.327   2
  -1   6  -3 130.632   8.159   2
  -2  -6  -3 102.127   6.376   4
   2  -6   3 107.336  10.749   1
  -2  -6  -3 99.9786  6.6078   5
   2  -6   3 101.760   6.199   4
  -2  -6  -3 90.2546  6.9835   6
   2  -6   3 95.8442  6.8312   5
  -2   6  -3 94.3580  6.2111   2
   2   6   3 96.5260  6.9157   6
   2   6   3 99.7621  6.3989   2
   3  -6   3 78.7066  4.9588   4
  -3  -6  -3 83.7419  5.7503   6
  -3  -6  -3 81.6172  5.4385   5
   3  -6   3 72.5906  5.6614   5
  -3  -6  -3 70.0333  5.0801   4
   3   6   3 77.2818  5.5427   6
   3   6   3 79.3711  5.1837   2
  -3   6  -3 71.2727  4.9514   2
  -4  -6  -3 143.661  11.086   6
   4  -6   3 158.965   9.919   4
  -4  -6  -3 159.600  10.050   4
   4  -6   3 159.443  10.581   5
  -4  -6  -3 163.072  10.320   5
  -4   6  -3 153.919   9.938   2
   4   6   3 162.370  10.910   6
   4   6   3 148.437  10.099   2
  -5  -6  -3 2.61102 1.38171   5
  -5  -6  -3 4.03240 1.79779   6
  -5  -6  -3 6.55284 1.29397   4
   5  -6   3 4.72914 2.34407   3
   5  -6   3 2.91916 1.06331   4
   5  -6   3 5.00033 1.84112   5
  -5   6  -3 2.44453 1.09714   2
   5   6   3 5.57778 1.26813   6
  -5   6  -3 3.50948 1.47111   6
   5   6   3 2.81176 1.18131   2
   6  -6   3 101.401   9.629   3
  -6  -6  -3 94.7345  7.1677   5
  -6  -6  -3 102.928   8.185   6
  -6  -6  -3 106.307   7.123   4
   6  -6   3 111.790   7.141   4
   6  -6   3 107.306   7.725   5
   6   6   3 102.558   7.219   2
  -6   6  -3 93.0744  7.8777   6
  -6   6  -3 104.256   7.124   2
   6   6   3 103.132   7.609   6
  -7  -6  -3 172.679  11.116   4
   7  -6   3 161.084  11.516   5
   7  -6   3 156.045  14.506   3
  -7  -6  -3 137.567  10.860   5
  -7  -6  -3 177.441  12.494   6
   7  -6   3 172.139  11.157   4
   7   6   3 174.393  11.344   2
  -7   6  -3 156.975  12.166   6
  -7   6  -3 178.738  11.201   2
   7   6   3 160.193  11.887   6
   8  -6   3 85.6970  9.7666   3
   8  -6   3 107.619   8.202   5
  -8  -6  -3 104.867   7.633   4
   8  -6   3 91.9401  7.4465   4
  -8  -6  -3 112.687   8.511   6
   8   6   3 103.732   7.828   2
  -8   6  -3 115.282   8.466   6
  -8   6  -3 95.4136  7.6052   2
   8   6   3 100.577   8.106   6
  -9  -6  -3 85.2120  7.1419   6
   9  -6   3 81.5243  8.7977   3
   9  -6   3 79.3859  6.6126   4
   9  -6   3 87.4676  7.1185   5
   9   6   3 78.2043  6.8226   2
  -9   6  -3 102.352   7.540   6
  -9   6  -3 68.7001  6.5826   2
   9   6   3 86.7409  7.3254   6
  10  -6   3 18.4061  2.9512   4
  10  -6   3 14.3542  4.0895   3
 -10  -6  -3 15.6051  2.8955   6
  10   6   3 16.4515  3.7030   6
 -10   6  -3 20.4727  3.5500   6
  10   6   3 12.5220  3.2817   2
 -10   6  -3 12.0961  2.9165   2
  11  -6   3 190.048  16.666   3
  11  -6   3 177.883  12.788   4
  11   6   3 218.218  13.468   2
 -11   6  -3 216.621  14.324   6
  11   6   3 155.093  14.283   6
 -11   6  -3 174.667  12.849   2
 -12   6  -3 14.3239  3.3630   6
 -12   6  -3 15.7579  2.9241   2
  12   6   3 12.8571  3.4439   6
 -12   7   3 58.1252  5.8356   2
  11   7  -3 232.159  14.536   2
 -11   7   3 212.018  16.142   6
  11   7  -3 216.094  15.786   6
 -11   7   3 183.571  14.749   2
 -10  -7   3 100.686   7.337   4
  10  -7  -3 80.0853  9.1117   3
 -10   7   3 90.2865  7.3642   2
  10   7  -3 96.9781  7.2353   2
  10   7  -3 89.0480  7.9048   6
 -10   7   3 76.7884  7.9344   6
   9  -7  -3 17.2248  2.9623   4
  -9  -7   3 19.5050  3.3162   4
   9  -7  -3 17.9695  4.1022   3
   9   7  -3 21.6778  3.3444   2
  -9   7   3 16.3841  3.3800   6
   9   7  -3 17.1583  3.5364   6
  -9   7   3 21.1891  3.0802   2
   8  -7  -3 195.685  13.175   5
   8  -7  -3 200.224  13.059   4
  -8  -7   3 195.411  13.459   4
  -8   7   3 208.915  13.173   2
  -8   7   3 181.373  14.316   6
   8   7  -3 205.904  14.745   6
   8   7  -3 188.961  13.444   2
   7  -7  -3 246.697  14.930   4
   7  -7  -3 234.207  15.077   5
  -7  -7   3 237.557  15.360   4
   7   7  -3 214.465  15.373   2
  -7   7   3 216.244  14.974   2
   7   7  -3 243.022  16.686   6
  -7   7   3 224.895  16.359   6
   6  -7  -3 67.8845  4.9895   5
  -6  -7   3 70.4243  5.1871   4
   6  -7  -3 67.2586  4.7110   4
   6   7  -3 65.5516  5.4487   6
  -6   7   3 66.2198  5.2462   6
   6   7  -3 58.3990  5.1948   2
  -6   7   3 63.2800  4.7348   2
   5  -7  -3 15.6118  2.0996   5
  -5  -7   3 17.1928  2.0406   4
   5  -7  -3 16.8355  1.8554   4
   5  -7  -3 16.1830  1.8650   6
   5   7  -3 18.7840  2.3015   2
  -5   7   3 15.6534  2.0802   6
  -5   7   3 16.8888  1.8009   2
   4  -7  -3 375.890  25.199   6
  -4  -7   3 363.068  23.222   4
   4  -7  -3 384.283  23.226   4
   4  -7  -3 348.958  23.371   5
   4   7  -3 365.147  23.432   2
  -4   7   3 356.972  23.325   2
  -4   7   3 408.621  25.402   6
  -3  -7   3 294.800  21.973   5
   3  -7  -3 358.534  23.621   6
  -3  -7   3 345.064  21.687   4
   3  -7  -3 355.914  21.949   5
  -3  -7   3 328.398  29.949   1
   3  -7  -3 365.998  21.775   4
   3   7  -3 352.354  21.864   2
  -3   7   3 355.700  21.873   2
  -3   7   3 370.395  23.757   6
  -2  -7   3 128.798   8.046   4
   2  -7  -3 127.357   8.382   5
  -2  -7   3 137.654  13.471   1
   2  -7  -3 134.926   8.164   4
   2  -7  -3 122.391   8.819   6
  -2  -7   3 121.847   8.590   5
   2   7  -3 128.294   8.102   2
  -2   7   3 128.344   8.918   6
  -2   7   3 117.561   8.163   2
  -1  -7   3 44.0229  2.8999   4
  -1  -7   3 42.5518  3.7356   5
   1  -7  -3 40.8838  3.0342   4
   1  -7  -3 46.7989  3.4403   5
   1  -7  -3 42.1542  3.3376   6
  -1  -7   3 43.1958  7.6411   1
  -1   7   3 46.4087  3.3395   6
  -1   7   3 36.4202  3.0405   2
   1   7  -3 47.2171  2.9451   2
  -1   7   3 42.1236  3.0799   2
   0  -7  -3 392.988  25.327   5
   0  -7  -3 429.460  25.135   4
   0  -7   3 392.881  25.534   5
   0  -7   3 411.741  24.986   4
   0  -7  -3 409.433  27.377   6
   0   7   3 388.464  27.341   6
   0   7  -3 407.761  25.109   2
   0   7   3 402.297  25.263   2
  -1  -7  -3 532.302  32.192   5
   1  -7   3 499.568  32.369   5
  -1  -7  -3 485.143  34.818   6
   1  -7   3 544.822  31.795   4
  -1  -7  -3 530.087  31.974   4
   1  -7   3 451.471  43.319   1
   1   7   3 531.449  32.111   2
  -1   7  -3 527.114  31.951   2
  -1   7  -3 499.167  31.944   2
   1   7   3 533.465  34.791   6
   2  -7   3 378.354  29.351   1
   2  -7   3 321.038  21.089   5
  -2  -7  -3 344.033  20.650   4
  -2  -7  -3 310.690  22.530   6
  -2  -7  -3 326.612  20.870   5
   2  -7   3 346.734  20.478   4
   2   7   3 330.489  22.453   6
   2   7   3 306.212  20.739   2
  -2   7  -3 330.189  20.566   2
   3  -7   3 122.001   8.082   4
  -3  -7  -3 123.357   9.152   6
   3  -7   3 160.959  13.590   1
  -3  -7  -3 132.157   8.266   4
   3  -7   3 128.313   8.829   5
  -3  -7  -3 133.566   8.608   5
  -3   7  -3 124.899   8.123   2
   3   7   3 113.818   8.281   2
   3   7   3 133.340   9.001   6
  -4  -7  -3 293.406  18.263   4
   4  -7   3 312.248  18.891   5
  -4  -7  -3 291.619  20.166   6
  -4  -7  -3 293.798  18.531   5
   4  -7   3 264.736  18.088   4
   4   7   3 292.559  18.373   2
  -4   7  -3 284.219  18.179   2
   4   7   3 293.897  19.867   6
  -5  -7  -3 424.172  26.418   4
  -5  -7  -3 398.796  26.577   5
  -5  -7  -3 466.916  29.265   6
   5  -7   3 409.895  26.932   5
   5  -7   3 413.534  26.305   4
   5   7   3 399.669  28.696   6
  -5   7  -3 459.857  26.474   2
   5   7   3 400.565  26.570   2
  -6  -7  -3 413.810  29.543   5
  -6  -7  -3 496.213  32.662   6
   6  -7   3 496.700  30.099   5
  -6  -7  -3 441.310  29.511   4
   6  -7   3 464.065  37.985   3
   6  -7   3 492.435  29.495   4
  -6   7  -3 477.974  29.625   2
   6   7   3 470.998  29.737   2
   6   7   3 478.777  32.070   6
   7  -7   3 177.770  15.751   3
  -7  -7  -3 173.140  11.957   4
   7  -7   3 175.156  12.455   5
  -7  -7  -3 172.476  13.318   6
   7  -7   3 185.451  11.951   4
   7   7   3 168.460  12.807   6
   7   7   3 189.717  12.149   2
  -7   7  -3 183.687  11.986   2
   8  -7   3 233.191  14.728   5
   8  -7   3 218.145  14.081   4
  -8  -7  -3 219.240  14.156   4
   8  -7   3 185.447  18.054   3
   8   7   3 206.109  15.156   6
  -8   7  -3 187.073  15.205   6
   8   7   3 216.233  14.211   2
  -8   7  -3 203.634  14.055   2
   9  -7   3 155.229  15.326   3
   9  -7   3 151.887  11.800   4
  -9   7  -3 187.152  13.189   6
   9   7   3 178.524  12.275   2
  -9   7  -3 160.982  12.029   2
   9   7   3 192.270  13.198   6
  10  -7   3 301.059  20.517   4
  10  -7   3 315.026  26.421   3
  10   7   3 298.488  22.605   6
 -10   7  -3 285.172  20.636   2
  10   7   3 321.960  20.994   2
 -10   7  -3 359.739  22.757   6
  11   7   3 136.198  12.027   6
 -11   7  -3 143.684  10.745   2
  11   7   3 175.743  11.408   2
  12   7   3 203.795  14.275   2
  11   8  -3 146.037  10.037   2
  11   8  -3 136.552  10.827   6
 -11   8   3 118.754  10.202   2
  10  -8  -3 108.445  11.162   3
 -10   8   3 104.767   9.262   6
 -10   8   3 102.114   8.522   2
  10   8  -3 122.486   8.712   2
  10   8  -3 118.051   9.500   6
   9  -8  -3 3.96449 2.11332   4
  -9  -8   3 -0.9851  2.1129   4
   9  -8  -3 2.56537 2.98119   3
  -9   8   3 1.43906 2.25485   6
   9   8  -3 1.18717 2.63826   2
  -9   8   3 4.10747 2.13010   2
   9   8  -3 1.82156 2.84252   6
  -8  -8   3 137.294  10.272   4
  -8   8   3 156.403  10.112   2
  -8   8   3 139.766  10.971   6
   8   8  -3 146.935  10.480   2
   7  -8  -3 163.476  11.022   5
   7  -8  -3 163.257  10.730   4
  -7  -8   3 162.199  11.049   4
  -7   8   3 156.999  11.787   6
  -7   8   3 169.199  10.882   2
   7   8  -3 155.965  11.205   2
  -6  -8   3 58.6035  4.3718   4
   6  -8  -3 58.4299  4.6824   5
   6  -8  -3 50.2646  4.1254   4
  -6   8   3 52.7748  4.1950   2
   6   8  -3 57.4941  4.5987   2
  -6   8   3 55.0757  4.6865   6
  -5  -8   3 4.32325 1.22717   4
   5  -8  -3 3.27750 1.14032   4
   5  -8  -3 8.05526 1.71423   5
  -5   8   3 4.21119 1.47569   6
  -5   8   3 2.59859 1.18709   2
   5   8  -3 5.42930 1.55782   2
  -4  -8   3 23.8666  2.2367   4
   4  -8  -3 25.2017  2.2570   4
   4  -8  -3 23.5924  2.6750   5
  -4   8   3 34.2818  2.4564   2
  -4   8   3 26.4460  2.6449   6
   4   8  -3 26.1365  2.3968   2
   3  -8  -3 108.631   7.579   5
  -3  -8   3 106.588   7.172   4
   3  -8  -3 106.948   7.277   4
  -3   8   3 114.249   7.990   6
  -3   8   3 109.545   7.323   2
   3   8  -3 120.120   7.276   2
   2  -8  -3 0.16532 1.17018   5
   2  -8  -3 0.54075 0.82532   4
  -2  -8   3 -0.7612  1.5582   5
  -2  -8   3 0.96220 0.67418   4
  -2   8   3 0.35491 0.96181   6
  -2   8   3 2.52192 0.96260   2
   2   8  -3 0.62268 0.74663   2
   1  -8  -3 36.7363  3.0547   5
  -1  -8   3 34.5232  2.4395   4
  -1  -8   3 34.5319  3.3879   5
   1  -8  -3 31.7536  2.5738   4
   1   8  -3 34.2541  2.4677   2
  -1   8   3 31.3447  2.5768   2
  -1   8   3 35.8217  2.8412   6
  -1   8   3 35.7144  2.6136   2
   0  -8  -3 19.0271  1.7233   4
   0  -8   3 18.0601  2.7009   5
   0  -8   3 19.3800  1.4940   4
   0  -8  -3 16.3449  2.1638   5
   0   8   3 17.6915  1.8989   6
   0   8  -3 18.0899  1.5119   2
   0   8   3 18.5129  1.7687   2
   1  -8   3 41.4212  4.0319   5
  -1  -8  -3 57.0251  3.8760   5
  -1  -8  -3 44.4525  3.2674   4
   1  -8   3 43.9422  3.0381   4
   1   8   3 43.8478  3.3034   2
  -1   8  -3 44.2185  3.0783   2
   1   8   3 47.3487  3.6079   6
  -1   8  -3 44.5344  3.0778   2
   2  -8   3 11.9429  1.2396   4
  -2  -8  -3 11.5276  1.4345   4
   2  -8   3 14.2290  2.3437   5
  -2  -8  -3 10.6030  1.9216   5
   2   8   3 9.89414 1.40633   2
   2   8   3 18.0004  1.7554   6
  -2   8  -3 12.6245  1.2678   2
   3  -8   3 24.6505  1.8999   4
  -3  -8  -3 21.2139  2.0552   4
   3  -8   3 23.4300  3.0206   5
  -3  -8  -3 20.6566  2.6097   5
   3   8   3 20.4483  2.1588   2
   3   8   3 23.6311  2.2726   6
  -3   8  -3 24.0799  1.9147   2
   4  -8   3 12.9844  2.6043   5
   4  -8   3 11.6386  1.4378   4
  -4  -8  -3 14.3647  1.6950   4
  -4  -8  -3 15.6287  2.2820   5
  -4   8  -3 11.9334  1.4165   2
   4   8   3 12.0076  1.6907   2
   4   8   3 14.2533  1.8368   6
   5  -8   3 32.6162  2.6881   4
  -5  -8  -3 31.4301  3.2375   5
  -5  -8  -3 28.8142  2.7906   4
   5  -8   3 32.3935  3.8006   5
   5   8   3 32.5121  3.0209   6
  -5   8  -3 33.7461  2.7152   2
   5   8   3 28.8319  2.7971   2
   6  -8   3 2.51601 1.38257   4
  -6  -8  -3 1.97090 1.38045   4
   6  -8   3 0.01365 1.97478   5
   6  -8   3 4.07460 2.88447   3
   6   8   3 1.84404 1.55301   6
   6   8   3 1.95924 1.56410   2
  -6   8  -3 1.49110 1.38607   2
   7  -8   3 6.21533 3.11792   3
  -7  -8  -3 2.12946 1.78265   4
   7  -8   3 1.53473 1.72899   4
   7   8   3 1.36071 1.72567   6
  -7   8  -3 2.09101 1.81030   2
   7   8   3 2.30290 1.79561   2
   8  -8   3 9.61129 2.49218   4
   8  -8   3 11.6552  3.8657   3
  -8  -8  -3 10.6627  2.3683   4
  -8   8  -3 10.3395  2.5225   2
   8   8   3 10.2844  2.5472   2
   8   8   3 10.1165  2.4739   6
   9  -8   3 40.8520  6.3352   3
   9  -8   3 41.0037  4.3492   4
   9   8   3 42.6662  4.8640   2
  -9   8  -3 42.0628  4.5114   2
   9   8   3 40.2429  4.6924   6
  10  -8   3 7.28729 3.92059   3
 -10   8  -3 3.21796 2.50512   2
  10   8   3 3.28284 2.80671   2
  10   8   3 1.05906 2.91195   6
  11   8   3 -4.7657  2.6529   2
 -10   9   3 18.5772  3.5186   2
   9   9  -3 182.140  13.215   2
  -9   9   3 195.269  13.075   2
   8  -9  -3 221.517  14.186   4
  -8   9   3 217.032  15.527   6
  -8   9   3 206.528  14.219   2
   8   9  -3 207.699  14.515   2
  -7  -9   3 84.5769  6.3342   4
   7  -9  -3 88.8609  6.1555   4
  -7   9   3 79.2482  6.7531   6
   7   9  -3 83.1082  6.4165   2
  -7   9   3 83.9647  6.1917   2
   6  -9  -3 3.98664 1.40385   4
  -6  -9   3 2.84526 1.46661   4
   6   9  -3 3.46885 1.62447   2
  -6   9   3 3.84591 1.68365   6
  -6   9   3 3.82530 1.40701   2
   5  -9  -3 545.334  34.777   5
   5  -9  -3 548.579  34.495   4
  -5  -9   3 560.342  34.488   4
  -5   9   3 550.690  34.650   2
  -5   9   3 580.504  37.638   6
   5   9  -3 533.645  34.668   2
   4  -9  -3 71.5054  4.8925   4
   4  -9  -3 68.7740  5.3358   5
  -4  -9   3 67.1738  4.7813   4
   4   9  -3 69.5349  4.9010   2
  -4   9   3 71.1215  4.9344   2
  -4   9   3 70.5461  5.4482   6
   3  -9  -3 173.008  11.449   5
  -3  -9   3 163.286  10.917   4
   3  -9  -3 176.463  11.080   4
   3   9  -3 177.840  11.034   2
  -3   9   3 182.774  12.111   6
  -3   9   3 160.429  11.094   2
   2  -9  -3 47.0778  4.2090   5
  -2  -9   3 54.2474  3.6257   4
   2  -9  -3 48.3693  3.7620   4
  -2   9   3 52.6980  3.7871   2
  -2   9   3 55.5235  4.1988   6
   2   9  -3 53.5188  3.6660   2
   1  -9  -3 290.908  17.764   5
  -1  -9   3 265.585  17.137   4
  -1  -9   3 277.057  18.063   5
   1  -9  -3 258.945  17.265   4
  -1   9   3 277.980  18.877   6
   1   9  -3 284.876  17.254   2
  -1   9   3 274.827  17.396   2
   0  -9  -3 31.5708  2.4893   4
   0  -9  -3 30.9012  3.0662   5
   0  -9   3 29.4131  2.2553   4
   0  -9   3 36.6357  3.6721   5
   0   9  -3 31.6322  2.3163   2
   0   9   3 27.5486  2.5149   2
   0   9   3 29.1985  2.5308   2
   0   9   3 33.9038  2.7481   6
   1  -9   3 186.073  11.472   4
  -1  -9  -3 182.535  12.141   5
   1  -9   3 189.049  12.510   5
  -1  -9  -3 186.513  11.652   4
   1   9   3 180.091  12.720   6
   1   9   3 166.748  11.699   2
  -1   9  -3 187.800  11.544   2
  -2  -9  -3 94.4221  6.3132   4
   2  -9   3 98.2482  7.2555   5
  -2  -9  -3 96.8337  6.8582   5
   2  -9   3 95.8863  6.1330   4
   2   9   3 92.1011  6.3346   2
  -2   9  -3 96.2173  6.1818   2
   2   9   3 89.1510  6.8799   6
   3  -9   3 3.74336 0.93076   4
  -3  -9  -3 5.39914 1.28203   4
  -3  -9  -3 2.66929 1.79734   5
   3  -9   3 2.49935 2.07386   5
  -3   9  -3 2.86730 0.93562   2
   3   9   3 3.06092 1.22840   2
   3   9   3 4.09177 1.34633   6
  -4  -9  -3 97.0480  7.3704   5
   4  -9   3 98.8979  6.6227   4
  -4  -9  -3 106.024   6.823   4
   4  -9   3 101.775   7.786   5
  -4   9  -3 101.474   6.672   2
   4   9   3 95.0270  6.8721   2
   4   9   3 102.167   7.455   6
  -5  -9  -3 125.467   8.218   4
  -5  -9  -3 104.044   8.569   5
   5  -9   3 126.896   8.083   4
   5   9   3 118.235   8.938   6
  -5   9  -3 124.656   8.129   2
   5   9   3 126.788   8.307   2
   6  -9   3 12.8816  4.0158   3
  -6  -9  -3 12.8723  1.9480   4
   6  -9   3 12.2807  1.9800   4
  -6   9  -3 13.5255  2.0941   2
   6   9   3 16.1523  2.3456   6
   6   9   3 13.7592  2.2135   2
   7  -9   3 58.5207  5.0489   4
  -7  -9  -3 61.8977  5.0182   4
   7  -9   3 66.6119  7.4917   3
   7   9   3 62.8777  5.5577   6
   7   9   3 63.9152  5.1840   2
  -7   9  -3 67.7967  5.2099   2
   8  -9   3 233.748  20.269   3
   8   9   3 227.384  15.515   2
   8   9   3 234.527  16.686   6
  -8   9  -3 221.834  15.389   2
   9  -9   3 82.5160  9.6709   3
   9   9   3 89.5756  7.6871   6
   9   9   3 85.1466  7.3294   2
  -9   9  -3 89.9649  7.1806   2
  10   9   3 22.5183  4.1272   2
  -8  10   3 35.6006  4.2547   6
  -8  10   3 42.3904  3.9812   2
   8  10  -3 34.6384  3.8368   2
  -7  10   3 156.379  10.119   2
  -7  10   3 143.785  10.898   6
   7  10  -3 141.142  10.089   2
  -6 -10   3 32.4406  2.9433   4
   6 -10  -3 33.7721  3.0537   4
  -6  10   3 32.2421  3.3152   6
   6  10  -3 33.7813  3.1710   2
  -6  10   3 32.6046  3.1365   2
  -5 -10   3 27.3271  2.4793   4
   5 -10  -3 27.7698  2.6831   4
   5  10  -3 25.2814  2.6055   2
  -5  10   3 28.2968  2.6898   2
  -5  10   3 25.9472  2.9737   6
   4 -10  -3 230.039  13.840   4
  -4 -10   3 208.435  13.654   4
  -4  10   3 223.975  15.108   6
  -4  10   3 204.890  13.872   2
   4  10  -3 210.046  13.766   2
   3 -10  -3 281.550  17.672   4
  -3 -10   3 271.177  17.510   4
   3  10  -3 286.840  17.644   2
  -3  10   3 307.099  19.329   6
  -3  10   3 250.591  17.709   2
   2 -10  -3 5.21711 1.24452   4
  -2 -10   3 3.78989 0.98781   4
  -2  10   3 5.64456 1.29332   2
   2  10  -3 2.94931 1.03973   2
  -2  10   3 4.20703 1.42098   6
   1 -10  -3 142.011   9.708   5
  -1 -10   3 136.193  10.145   5
   1 -10  -3 137.091   9.092   4
  -1 -10   3 134.220   8.909   4
   1  10  -3 144.132   9.023   2
  -1  10   3 145.736   9.205   2
  -1  10   3 141.024   9.979   6
   0 -10  -3 346.424  22.214   5
   0 -10   3 311.791  21.441   4
   0 -10   3 364.217  22.675   5
   0 -10  -3 344.928  21.643   4
   0  10   3 345.817  21.791   2
   0  10   3 343.379  21.783   2
   0  10  -3 359.153  21.620   2
   0  10  -3 349.658  21.620   2
   0  10   3 350.344  23.640   6
  -1 -10  -3 368.989  23.457   5
   1 -10   3 366.958  23.836   5
   1 -10   3 343.202  22.719   4
  -1 -10  -3 382.733  22.927   4
   1  10   3 388.533  25.041   6
  -1  10  -3 360.413  22.879   2
   1  10   3 352.686  23.041   2
   2 -10   3 46.6722  3.3753   4
  -2 -10  -3 48.1948  4.4463   5
   2 -10   3 47.0657  4.9085   5
  -2 -10  -3 45.7998  3.5923   4
  -2  10  -3 49.1331  3.4563   2
   2  10   3 45.9397  3.6619   2
   2  10   3 51.1872  4.0272   6
  -3 -10  -3 223.799  14.810   5
   3 -10   3 219.043  13.951   4
  -3 -10  -3 236.139  14.169   4
  -3  10  -3 208.229  14.029   2
   3  10   3 227.355  14.222   2
   3  10   3 212.948  15.404   6
  -4 -10  -3 90.3296  7.2806   5
  -4 -10  -3 98.4211  6.5862   4
   4 -10   3 85.6607  6.3022   4
   4  10   3 93.6204  7.1582   6
  -4  10  -3 99.4517  6.4313   2
   4  10   3 101.203   6.651   2
   5 -10   3 277.553  17.132   4
  -5 -10  -3 264.361  17.220   4
   5  10   3 269.988  18.798   6
   5  10   3 244.700  17.339   2
  -5  10  -3 288.490  17.266   2
   6 -10   3 18.2160  4.3935   3
   6 -10   3 15.0390  2.2249   4
  -6 -10  -3 17.1196  2.2860   4
   6  10   3 18.4846  2.4518   2
  -6  10  -3 16.4996  2.3740   2
   6  10   3 18.2248  2.7128   6
   7 -10   3 209.003  17.912   3
   7  10   3 198.784  14.404   6
   7  10   3 191.891  13.318   2
  -7  10  -3 195.300  13.302   2
  -8  10  -3 4.47032 2.38315   2
   8  10   3 -0.0645  2.3128   6
   8  10   3 2.93131 2.32834   2
  -7  11   3 25.7551  3.0107   2
   7  11  -3 18.7680  2.6604   2
  -7  11   3 24.2676  3.2128   6
   6  11  -3 19.2092  2.3393   2
  -6  11   3 20.0115  2.5607   2
  -6  11   3 22.5813  2.8611   6
   5  11  -3 7.02413 1.54140   2
  -5  11   3 5.32194 1.83296   6
  -5  11   3 5.28328 1.57041   2
  -4  11   3 23.4349  2.5023   2
   4  11  -3 24.5722  2.3763   2
  -4  11   3 21.4637  2.7569   6
  -3 -11   3 37.8891  2.9806   4
   3 -11  -3 39.1091  3.1998   4
   3  11  -3 38.1152  3.0772   2
  -3  11   3 41.0730  3.6332   6
  -3  11   3 38.0561  3.2667   2
  -2 -11   3 104.973   6.734   4
   2 -11  -3 96.7367  6.9170   4
  -2  11   3 100.439   6.986   2
   2  11  -3 105.197   6.842   2
  -2  11   3 105.107   7.644   6
  -1 -11   3 21.6295  1.9528   4
   1 -11  -3 21.3448  2.2442   4
  -1  11   3 24.2050  2.6555   6
   1  11  -3 25.4229  2.1324   2
  -1  11   3 22.2680  2.3028   2
   0 -11  -3 22.4006  2.1964   4
   0 -11   3 21.4246  1.9856   4
   0  11   3 23.6463  2.6291   6
   0  11   3 20.8623  2.2769   2
   0  11  -3 24.3035  2.0778   2
  -1 -11  -3 3.99054 1.20590   4
   1 -11   3 2.04519 0.95029   4
   1  11   3 1.10306 1.19594   2
  -1  11  -3 2.80376 1.12469   2
   1  11   3 1.74238 1.22269   2
   1  11   3 3.46717 1.49367   6
  -2 -11  -3 189.262  12.581   4
   2 -11   3 185.818  12.400   4
   2  11   3 212.688  13.865   6
  -2  11  -3 199.164  12.541   2
   2  11   3 193.922  12.707   2
  -3 -11  -3 62.3958  4.3887   4
   3 -11   3 52.6950  4.1410   4
  -3  11  -3 56.0004  4.2386   2
   3  11   3 59.4944  4.4440   2
   3  11   3 63.2300  4.9091   6
  -4  11  -3 43.0122  3.4342   2
   4  11   3 41.8785  3.5976   2
   4  11   3 44.1436  4.0417   6
   5  11   3 44.7282  4.1799   6
  -5  11  -3 42.3740  3.6491   2
   5  11   3 40.2528  3.6702   2
   6  11   3 190.569  13.108   6
  -6  11  -3 176.686  11.984   2
   6  11   3 169.665  12.006   2
   7  11   3 60.1455  5.3881   2
   7  11   3 64.5563  5.8831   6
  -7  11  -3 68.2841  5.4937   2
  -4  12   3 4.56617 1.58622   2
   4  12  -3 3.04026 1.34098   2
   3  12  -3 296.802  19.468   2
  -3  12   3 319.392  19.701   2
  -2  12   3 1.62180 1.31836   2
   2  12  -3 3.00576 1.25693   2
  -1  12   3 14.0542  2.0372   2
   1  12  -3 18.6077  2.0203   2
   1  12  -3 19.2310  2.0189   2
   0  12   3 3.37166 1.45880   2
   0  12  -3 5.52829 1.31416   2
   1  12   3 240.342  16.473   2
  -1  12  -3 274.383  16.359   2
   1  12   3 255.165  16.516   2
   2  12   3 7.12123 1.61050   2
  -2  12  -3 5.93173 1.49282   2
   2  12   3 6.58318 1.55482   2
   3  12   3 20.1044  2.4595   2
  -3  12  -3 21.0425  2.2885   2
   4  12   3 2.86130 1.61905   2
  -4  12  -3 3.11065 1.52186   2
  13   0  -4 251.165  18.148   6
  12   0  -4 244.541  17.709   6
  11   0  -4 218.969  15.896   6
 -11   0   4 245.095  16.007   6
  11   0  -4 208.572  18.011   3
  11   0  -4 202.046  14.515   2
 -10   0   4 4.48297 2.49057   6
  10   0  -4 11.5312  2.5356   2
  10   0  -4 7.41560 2.46377   3
  10   0  -4 18.6272  2.9169   6
   9   0  -4 245.538  17.620   2
  -9   0   4 262.838  19.150   6
   9   0  -4 310.949  19.413   6
   9   0  -4 278.035  21.907   3
  -9   0   4 248.606  17.454   4
  -8   0   4 561.215  35.378   4
   8   0  -4 497.060  35.504   2
  -8   0   4 505.883  38.345   6
   8   0  -4 643.813  38.783   6
   8   0  -4 598.105  44.508   3
   7   0  -4 826.679  55.661   2
   7   0  -4 939.957  60.530   6
   7   0  -4 925.785  69.954   3
  -7   0   4 781.563  60.114   6
  -7   0   4 875.653  55.447   4
  -7   0   4 991.241  55.683   2
  -6   0   4 757.871  42.023   2
   6   0  -4 613.429  52.570   3
  -6   0   4 666.316  41.632   4
   6   0  -4 599.794  45.419   6
  -6   0   4 635.936  45.154   6
   6   0  -4 734.334  41.885   2
   5   0  -4 58.7233  5.0752   4
   5   0  -4 62.6309  5.5817   6
   5   0  -4 69.1623  4.9408   2
   5   0  -4 72.2752  4.6670   5
  -5   0   4 80.1852  6.0818   1
   5   0  -4 65.9950  6.3311   3
  -5   0   4 77.1155  4.9873   4
  -5   0   4 71.3190  5.2910   2
   4   0  -4 796.533  61.436   3
   4   0  -4 728.319  52.930   6
   4   0  -4 795.080  48.170   5
   4   0  -4 762.277  48.653   4
  -4   0   4 776.151  48.977   2
   4   0  -4 806.685  48.713   2
  -4   0   4 752.793  61.864   1
  -4   0   4 861.707  48.509   4
  -3   0   4 810.637  48.058   4
   3   0  -4 732.581  48.278   2
   3   0  -4 724.260  52.410   6
   3   0  -4 811.249  47.813   5
  -3   0   4 819.268  52.308   6
  -3   0   4 803.400  61.508   1
   3   0  -4 749.980  48.165   4
   2   0  -4 3666.69  233.40   6
   2   0  -4 3758.01  215.45   2
   2   0  -4 3334.66  213.59   5
  -2   0   4 3264.51  214.34   4
  -2   0   4 3416.14  233.23   6
  -1   0   4 2.67411 0.60263   4
  -1   0   4 2.64547 0.62604   6
   1   0  -4 4.88491 0.79681   6
   0   0   4 508.184  35.465   6
   0   0   4 470.123  32.571   4
   0   0  -4 605.757  35.496   6
   0   0  -4 535.511  32.747   2
   1   0   4 10.5747  1.1058   4
   1   0   4 8.47713 1.23010   6
  -1   0  -4 11.4967  1.1426   2
  -1   0  -4 11.0700  1.1673   6
  -2   0  -4 3877.99  242.28   6
   2   0   4 3791.16  222.54   4
   2   0   4 3096.43  241.86   6
  -2   0  -4 3723.49  223.59   2
   3   0   4 20.8079  1.9883   4
  -3   0  -4 22.1922  1.9798   6
  -3   0  -4 19.9811  1.9888   2
   3   0   4 21.7475  2.3774   6
  -3   0  -4 21.6110  1.7283   4
   4   0   4 75.2153  5.4272   4
  -4   0  -4 83.3609  5.7074   6
  -4   0  -4 72.4508  5.4609   2
   4   0   4 80.5206  5.1946   2
  -4   0  -4 80.8952  5.1659   4
   4   0   4 79.1224  6.1305   6
   5   0   4 583.256  37.610   4
  -5   0  -4 533.273  37.722   2
   5   0   4 610.354  37.525   2
   5   0   4 660.156  41.046   6
  -5   0  -4 580.002  37.308   4
  -5   0  -4 637.033  40.804   6
   6   0   4 1488.66   92.78   2
  -6   0  -4 1416.72   92.96   2
   6   0   4 1560.09  100.70   6
  -6   0  -4 1650.18  100.79   6
   6   0   4 1365.20   92.51   4
  -7   0  -4 69.3243  5.2910   2
  -7   0  -4 61.9556  5.7223   6
   7   0   4 67.7055  5.3939   6
   7   0   4 58.1962  5.1058   4
  -8   0  -4 4.03487 2.20760   6
   8   0   4 5.06729 1.77746   6
   8   0   4 4.98286 1.99926   4
  -8   0  -4 4.44408 1.90720   2
   9   0   4 371.868  26.951   6
  -9   0  -4 366.784  27.213   6
  -9   0  -4 401.060  25.161   2
   9   0   4 425.423  25.098   4
  10   0   4 492.407  35.264   6
 -10   0  -4 560.126  32.849   2
 -10   0  -4 493.311  35.399   6
 -11   0  -4 21.8300  3.1237   2
  11   0   4 23.5058  3.1572   6
 -11   0  -4 21.6737  3.1351   6
 -12   0  -4 -0.2791  2.1169   2
  12   0   4 1.53237 2.07946   6
 -12   0  -4 5.24739 2.09776   6
 -13   0  -4 2.08462 1.99372   6
  13   0   4 5.36647 2.32693   6
  13  -1  -4 19.2514  3.3171   6
  13   1  -4 17.6997  3.1639   6
  12  -1  -4 4.29793 2.68833   3
  12  -1  -4 3.75933 2.32993   6
  12   1  -4 3.73909 2.35214   6
  12   1  -4 3.09340 2.00067   2
  11  -1  -4 12.9226  2.9088   6
  11  -1  -4 12.9760  3.0518   3
 -11  -1   4 10.4928  2.6329   6
  11   1  -4 7.04492 2.29287   2
  11   1  -4 16.1342  2.8135   6
  10  -1  -4 65.9537  6.0217   6
  10  -1  -4 63.9267  5.5604   2
  10  -1  -4 63.2952  6.7039   3
 -10  -1   4 66.4429  5.7602   6
  10   1  -4 71.1087  5.8689   6
  10   1  -4 58.0314  5.2334   2
   9  -1  -4 4.59853 2.51594   3
   9  -1  -4 1.48464 2.20073   6
  -9  -1   4 3.01669 1.69022   4
  -9  -1   4 0.80380 1.95888   6
   9  -1  -4 2.44777 1.98543   2
   9   1  -4 2.32173 1.80842   3
   9   1  -4 2.27327 1.96279   2
  -9   1   4 1.97759 2.16374   6
   9   1  -4 1.57907 1.85572   6
  -8  -1   4 99.8094  8.1210   6
   8  -1  -4 102.838   8.382   6
   8  -1  -4 99.4947  7.6738   2
   8  -1  -4 101.103   9.521   3
  -8  -1   4 109.279   7.526   4
   8   1  -4 125.793   8.389   6
  -8   1   4 93.8266  8.1420   6
   8   1  -4 113.890   7.795   2
  -8   1   4 108.229   7.594   2
   8   1  -4 107.618   9.062   3
  -8   1   4 91.3988  7.5668   4
  -7  -1   4 67.3121  5.6624   6
   7  -1  -4 69.3103  6.7128   3
   7  -1  -4 71.8566  5.4080   2
   7  -1  -4 64.0922  5.8810   6
  -7  -1   4 68.3385  5.4019   4
   7   1  -4 76.7469  6.3885   3
   7   1  -4 62.9668  5.4498   2
  -7   1   4 67.2696  5.3371   4
  -7   1   4 70.9116  5.7210   6
   7   1  -4 81.8710  6.0184   6
  -7   1   4 69.0981  5.4762   2
   6  -1  -4 111.751   8.795   6
   6  -1  -4 119.819   8.137   4
   6  -1  -4 119.824  10.193   3
  -6  -1   4 111.242   8.563   6
  -6  -1   4 103.572   8.106   4
   6  -1  -4 112.873   7.982   2
   6  -1  -4 119.458   7.673   5
   6   1  -4 126.645   8.234   2
   6   1  -4 118.508   9.923   3
  -6   1   4 114.376   8.207   2
  -6   1   4 128.980   8.031   4
   6   1  -4 131.187   9.025   6
  -5  -1   4 199.789  13.692   6
  -5  -1   4 220.103  13.005   2
  -5  -1   4 206.248  16.107   1
   5  -1  -4 201.314  12.715   2
   5  -1  -4 194.807  12.746   4
   5  -1  -4 201.876  12.417   5
   5  -1  -4 188.774  13.860   6
  -5  -1   4 194.289  12.774   4
   5   1  -4 176.169  14.058   6
   5   1  -4 209.504  16.057   3
  -5   1   4 192.548  12.836   2
  -5   1   4 192.036  12.637   4
   5   1  -4 187.097  12.789   2
  -4  -1   4 903.158  57.071   4
   4  -1  -4 1017.42   57.12   4
  -4  -1   4 979.337  72.932   1
   4  -1  -4 854.840  57.264   2
   4  -1  -4 973.896  56.748   5
   4  -1  -4 955.525  62.149   6
   4   1  -4 966.383  57.353   2
  -4   1   4 933.668  57.019   4
  -4   1   4 852.764  57.354   2
   4   1  -4 932.956  72.240   3
   4   1  -4 798.489  62.306   6
   3  -1  -4 2.06208 0.54634   5
   3  -1  -4 2.06979 0.79881   6
  -3  -1   4 1.83665 0.69501   4
  -3  -1   4 1.38481 0.60537   6
   3  -1  -4 -0.0642  0.5896   2
   3  -1  -4 1.74904 0.70472   4
  -3   1   4 1.28254 0.68287   6
  -3   1   4 1.41148 0.73162   2
   3   1  -4 1.95245 1.18920   3
   3   1  -4 1.73047 0.64883   2
  -3   1   4 1.45783 0.61334   4
   3   1  -4 2.95029 1.25659   6
  -2  -1   4 3.40859 0.52040   4
   2  -1  -4 7.80382 0.82852   6
   2  -1  -4 4.32919 0.54645   5
   2  -1  -4 4.88449 0.61485   2
  -2  -1   4 4.28859 1.26467   1
  -2  -1   4 2.97002 0.72327   4
   2  -1  -4 4.87844 0.62871   4
  -2  -1   4 5.43418 0.54914   6
   2   1  -4 3.16790 0.88865   6
   2   1  -4 3.93956 0.67442   5
  -2   1   4 3.88671 0.55978   4
  -2   1   4 3.22824 0.60287   2
   2   1  -4 4.56995 0.54155   2
  -2   1   4 4.89537 0.67202   6
   1  -1  -4 695.450  42.506   2
   1  -1  -4 634.891  42.298   4
   1  -1  -4 704.330  42.221   5
   1  -1  -4 757.582  46.090   6
  -1  -1   4 687.342  42.242   4
  -1  -1   4 677.545  54.350   1
   1   1  -4 670.692  42.449   2
  -1   1   4 664.203  42.295   4
  -1   1   4 672.617  46.042   6
   0  -1   4 2109.94  162.60   1
   0  -1   4 1990.01  127.06   4
   0  -1   4 2065.73  127.03   4
   0  -1  -4 2140.96  138.44   6
   0  -1  -4 2131.35  127.85   2
   0  -1  -4 2063.11  127.08   4
   0   1   4 2027.54  138.47   6
   0   1  -4 2198.13  127.72   2
   0   1   4 1899.52  127.21   4
  -1  -1  -4 499.341  31.762   4
   1  -1   4 475.962  31.742   4
   1  -1   4 518.310  31.707   4
  -1  -1  -4 531.691  31.947   2
  -1  -1  -4 529.282  34.594   6
   1   1   4 511.776  34.593   6
   1   1   4 531.296  31.779   4
   2  -1   4 107.144   7.183   4
   2  -1   4 98.8308  9.2739   3
   2  -1   4 124.801   7.048   4
  -2  -1  -4 111.594   7.148   2
  -2  -1  -4 105.912   7.702   6
  -2   1  -4 119.111   7.656   6
   2   1   4 110.494   7.737   6
   2   1   4 118.527   7.109   4
  -3  -1  -4 559.249  34.037   6
   3  -1   4 422.107  31.381   4
  -3  -1  -4 491.363  31.430   2
  -3  -1  -4 516.800  31.216   4
   3   1   4 539.620  31.290   4
  -3   1  -4 513.779  34.003   6
   3   1   4 529.351  31.274   4
   3   1   4 544.069  31.389   2
   3   1   4 514.860  34.081   6
  -3   1  -4 411.686  31.523   2
   4  -1   4 520.380  45.288   3
   4  -1   4 512.233  35.627   4
   4  -1   4 535.934  38.724   6
  -4  -1  -4 612.393  35.704   2
  -4  -1  -4 622.202  38.588   6
   4   1   4 590.202  38.713   6
  -4   1  -4 582.764  38.613   6
   4   1   4 587.197  35.583   2
   4   1   4 641.032  35.521   4
  -4   1  -4 508.086  35.765   2
   5  -1   4 955.315  60.587   6
  -5  -1  -4 916.359  55.916   2
   5  -1   4 907.400  70.733   3
  -5  -1  -4 870.909  55.449   4
  -5  -1  -4 892.788  60.454   6
   5  -1   4 919.522  55.752   4
  -5   1  -4 838.103  60.541   6
   5   1   4 939.087  55.651   4
   5   1   4 837.376  60.580   6
  -5   1  -4 939.001  55.990   2
   5   1   4 856.075  55.744   2
   6  -1   4 97.2796  8.5495   3
  -6  -1  -4 83.6583  6.2905   4
   6  -1   4 105.840   7.077   6
   6  -1   4 100.364   6.605   4
  -6  -1  -4 87.3234  7.0144   6
  -6  -1  -4 84.8132  6.6140   2
   6   1   4 88.5804  6.4386   2
   6   1   4 90.7487  7.1869   6
   6   1   4 86.8667  6.5419   4
  -6   1  -4 79.4276  7.0997   6
  -6   1  -4 100.435   6.563   2
   7  -1   4 237.328  16.038   6
   7  -1   4 267.557  19.083   3
  -7  -1  -4 212.452  16.236   6
  -7  -1  -4 195.108  14.923   2
   7  -1   4 255.228  14.933   4
  -7   1  -4 221.595  16.298   6
   7   1   4 199.925  14.832   2
  -7   1  -4 234.959  14.856   2
   7   1   4 217.379  14.942   4
   7   1   4 231.990  16.273   6
   8  -1   4 2.18831 1.58915   4
  -8  -1  -4 2.66159 2.07968   6
   8  -1   4 2.36895 1.73893   6
  -8  -1  -4 -1.0808  1.6831   2
   8  -1   4 1.21605 2.12723   3
   8   1   4 3.39052 1.91912   6
  -8   1  -4 1.40053 1.68959   2
   8   1   4 4.56603 2.00950   4
  -8   1  -4 2.34077 1.90904   6
  -9  -1  -4 461.926  36.524   6
   9  -1   4 577.147  33.581   4
  -9  -1  -4 593.570  33.934   2
   9  -1   4 563.688  42.530   3
   9  -1   4 514.732  36.278   6
  -9   1  -4 509.722  33.565   2
  -9   1  -4 504.320  36.403   6
   9   1   4 522.828  36.401   6
  10  -1   4 17.3226  2.6920   4
  10  -1   4 18.8977  2.8618   6
 -10  -1  -4 18.2096  2.9871   6
 -10  -1  -4 20.0759  3.0790   2
  10   1   4 17.4625  2.8541   6
 -10   1  -4 20.5854  2.7647   2
 -10   1  -4 19.9315  2.9555   6
  11  -1   4 93.6965  7.5324   6
 -11  -1  -4 111.192   7.450   2
 -11  -1  -4 87.0577  7.5665   6
 -11   1  -4 97.8867  7.0248   2
  11   1   4 93.3952  7.4885   6
 -11   1  -4 83.3656  7.3885   6
  12  -1   4 128.481   9.317   6
 -12  -1  -4 106.640   9.156   6
 -12   1  -4 111.952   9.156   6
  12   1   4 119.315   9.201   6
 -12   1  -4 136.781   8.829   2
 -13  -1  -4 87.3332  7.4011   6
  13   1   4 83.5748  7.2708   6
 -13   1  -4 83.1757  7.3230   6
 -13   1  -4 111.220   7.161   2
  14   1   4 9.72954 2.74758   6
  13  -2  -4 5.05370 2.86897   3
  13  -2  -4 9.08903 2.96517   6
  13   2  -4 5.36704 2.40713   6
  13   2  -4 2.69557 2.22333   2
  12  -2  -4 20.6501  3.5067   6
  12  -2  -4 14.2275  3.5636   3
  12   2  -4 16.2661  2.9715   6
  12   2  -4 18.8587  2.7621   2
  11  -2  -4 3.28083 2.54290   6
 -11  -2   4 1.95373 2.03909   6
  11  -2  -4 1.22263 2.80521   3
  11   2  -4 1.43169 1.88669   6
  11   2  -4 2.87223 1.91680   2
  10  -2  -4 81.2925  7.0106   6
 -10  -2   4 72.9337  5.7132   4
 -10  -2   4 75.4743  6.3080   6
  10  -2  -4 74.1251  7.7944   3
  10   2  -4 70.8913  6.3453   6
  10   2  -4 73.9521  5.8058   2
  -9  -2   4 62.8740  4.6622   4
   9  -2  -4 50.9722  6.1710   3
  -9  -2   4 56.4387  5.0929   6
   9  -2  -4 50.3739  5.1266   2
   9  -2  -4 54.9730  5.5289   6
  -9   2   4 53.4425  5.0908   2
   9   2  -4 61.4353  5.1648   6
   9   2  -4 60.3163  4.7871   2
   8  -2  -4 5.81982 2.13551   2
   8  -2  -4 3.83637 2.43669   3
  -8  -2   4 5.96867 1.70749   4
   8  -2  -4 6.30168 2.32020   6
  -8  -2   4 5.22037 1.83473   6
  -8   2   4 6.46821 2.18906   2
   8   2  -4 6.59993 2.03348   6
   8   2  -4 5.96918 1.97253   2
  -7  -2   4 2.73139 1.56867   4
  -7  -2   4 1.23760 1.42660   6
   7  -2  -4 1.91217 1.92064   3
   7  -2  -4 1.59418 1.64471   2
   7  -2  -4 3.30734 1.23471   5
   7  -2  -4 1.63905 1.68068   6
  -7   2   4 2.65552 1.51969   4
   7   2  -4 0.89187 1.59644   2
   7   2  -4 3.75641 1.78815   6
  -7   2   4 1.92554 1.55772   2
  -6  -2   4 190.442  13.142   4
   6  -2  -4 201.347  12.992   4
  -6  -2   4 198.894  16.560   1
   6  -2  -4 209.909  12.720   5
   6  -2  -4 216.515  13.067   2
  -6  -2   4 184.051  13.957   6
   6  -2  -4 190.969  14.123   6
   6   2  -4 186.678  13.258   2
  -6   2   4 201.502  12.945   4
   6   2  -4 233.367  14.488   6
  -6   2   4 191.730  13.049   2
   5  -2  -4 278.620  16.899   5
  -5  -2   4 262.150  17.339   4
  -5  -2   4 259.428  21.937   1
  -5  -2   4 250.520  18.466   6
   5  -2  -4 267.587  18.636   6
   5  -2  -4 271.241  17.107   4
   5  -2  -4 289.065  17.188   2
   5   2  -4 249.600  17.360   2
  -5   2   4 270.797  17.077   4
  -5   2   4 272.805  17.205   2
   5   2  -4 314.639  19.085   6
   4  -2  -4 77.4468  4.9319   4
  -4  -2   4 75.9596  5.1711   4
   4  -2  -4 75.9531  4.9382   2
   4  -2  -4 76.6588  5.4180   6
   4  -2  -4 72.4854  4.7957   5
  -4  -2   4 72.3481  6.5340   1
  -4   2   4 76.2567  4.9131   4
   4   2  -4 69.7851  5.1001   2
  -4   2   4 69.7594  5.3295   6
   4   2  -4 80.8218  5.9469   6
  -4   2   4 65.0875  4.9184   2
  -3  -2   4 2.92197 0.82036   4
   3  -2  -4 4.10797 0.82560   6
   3  -2  -4 4.13016 0.71558   4
   3  -2  -4 4.87340 0.69581   5
  -3  -2   4 8.37678 1.66822   4
  -3  -2   4 3.00628 1.37442   1
  -3  -2   4 4.96600 0.60952   6
   3  -2  -4 3.29139 0.69970   2
   3   2  -4 3.87067 0.82411   2
  -3   2   4 4.42922 0.78432   6
  -3   2   4 3.49527 0.68931   2
   3   2  -4 5.32200 1.66916   6
  -3   2   4 5.09690 0.73140   4
   2  -2  -4 524.389  29.627   2
   2  -2  -4 466.489  29.458   4
   2  -2  -4 484.814  29.389   5
  -2  -2   4 495.290  29.423   4
  -2  -2   4 416.778  29.442   5
  -2  -2   4 490.456  38.024   1
   2  -2  -4 504.445  32.106   6
   2   2  -4 419.492  32.292   6
   2   2  -4 527.717  29.288   5
   2   2  -4 484.881  29.545   2
  -2   2   4 439.017  29.440   4
  -2   2   4 431.357  29.590   2
  -2   2   4 513.028  32.094   6
  -1  -2   4 137.648  11.501   1
   1  -2  -4 147.916   9.441   6
  -1  -2   4 136.122   8.531   4
   1  -2  -4 138.380   8.662   5
   1  -2  -4 126.949   8.676   2
  -1   2   4 137.641   9.408   6
   1   2  -4 146.943   8.568   2
  -1   2   4 125.814   8.679   2
  -1   2   4 141.442   8.644   4
   0  -2  -4 243.066  14.554   5
   0  -2  -4 228.677  14.494   4
   0  -2   4 238.667  19.043   1
   0  -2  -4 235.716  14.584   2
   0  -2  -4 225.459  15.797   6
   0   2   4 234.712  14.506   4
   0   2   4 228.281  15.781   6
   0   2   4 238.487  14.580   2
  -1  -2  -4 1.30180 0.48350   2
   1  -2   4 1.02641 0.83487   4
   1  -2   4 2.48282 1.86098   5
  -1  -2  -4 1.87731 0.45606   4
   1  -2   4 1.17970 0.26098   4
   1  -2   4 2.35618 1.58133   1
   1  -2   4 0.32784 1.67695   3
  -1  -2  -4 2.34150 0.52915   6
   1   2   4 1.60117 0.46320   4
   1   2   4 1.62558 0.49154   2
   1   2   4 2.93032 0.52791   6
  -1   2  -4 1.65947 0.55424   2
  -2  -2  -4 589.945  36.376   2
   2  -2   4 567.303  46.735   1
  -2  -2  -4 611.588  36.176   4
   2  -2   4 500.821  36.667   5
   2  -2   4 545.083  46.315   3
  -2  -2  -4 600.859  39.402   6
   2  -2   4 560.094  36.104   4
   2   2   4 651.732  36.375   2
   2   2   4 635.425  39.406   6
   2   2   4 590.923  36.184   4
   3  -2   4 21.8719  1.8853   4
  -3  -2  -4 23.3814  1.8769   4
  -3  -2  -4 25.7408  2.0781   6
   3  -2   4 24.5684  2.9946   5
  -3  -2  -4 29.1326  1.9691   2
   3  -2   4 25.5866  3.6080   3
   3  -2   4 23.4170  1.8799   6
   3  -2   4 25.1539  3.3231   1
   3  -2   4 25.2867  2.4324   4
   3   2   4 27.5739  1.9267   2
  -3   2  -4 22.6614  2.3576   2
  -3   2  -4 24.9680  2.0932   6
   3   2   4 25.2023  1.9117   4
   3   2   4 29.9629  2.1292   6
  -4  -2  -4 51.6960  3.5803   4
   4  -2   4 59.0850  5.2965   1
   4  -2   4 52.5210  4.0017   4
   4  -2   4 51.7392  3.8819   6
   4  -2   4 54.9999  5.4862   3
  -4  -2  -4 52.1774  3.6606   2
  -4  -2  -4 46.4962  3.9049   6
   4  -2   4 55.2475  4.4916   5
   4   2   4 53.6670  3.6442   2
   4   2   4 49.3430  3.9419   6
   4   2   4 50.3063  3.6067   4
   4   2   4 51.3203  3.6289   4
  -4   2  -4 50.5931  4.1754   6
  -4   2  -4 51.7021  4.0121   2
  -5  -2  -4 7.23693 1.37960   2
   5  -2   4 13.8841  2.2841   1
   5  -2   4 8.68478 1.84486   5
   5  -2   4 9.27682 1.70195   4
  -5  -2  -4 10.1986  1.5399   6
   5  -2   4 7.50005 1.49605   6
  -5  -2  -4 8.69174 1.25217   4
   5  -2   4 13.5105  2.7385   3
  -5   2  -4 7.04628 1.64216   2
   5   2   4 7.99734 1.32832   4
   5   2   4 7.88728 1.55744   6
   5   2   4 7.35778 1.31367   4
   5   2   4 9.39129 1.40399   2
  -5   2  -4 9.01354 1.96375   6
   6  -2   4 527.419  29.361   4
  -6  -2  -4 450.762  29.395   2
  -6  -2  -4 463.244  31.872   6
   6  -2   4 532.644  37.455   3
  -6  -2  -4 424.293  29.128   4
  -6   2  -4 526.492  29.482   2
   6   2   4 455.273  31.891   6
   6   2   4 424.998  29.327   2
   6   2   4 435.033  29.203   4
   6   2   4 446.026  29.190   4
  -6   2  -4 438.508  32.020   6
   7  -2   4 110.400   9.421   3
   7  -2   4 113.619   7.233   4
  -7  -2  -4 99.1177  7.3824   2
   7  -2   4 86.4232  7.6375   6
  -7  -2  -4 98.9738  8.0200   6
  -7   2  -4 111.907   8.069   6
   7   2   4 98.5743  7.3462   2
   7   2   4 95.6421  8.0451   6
   7   2   4 94.5800  7.2534   4
  -7   2  -4 114.051   7.274   2
  -8  -2  -4 24.8484  3.6837   6
   8  -2   4 30.8600  4.1955   3
   8  -2   4 33.2332  3.4353   6
   8  -2   4 33.9048  3.0816   4
  -8  -2  -4 23.4966  3.4100   2
   8   2   4 20.5588  3.5123   6
   8   2   4 25.8571  3.4339   2
  -8   2  -4 27.6280  3.0274   2
  -8   2  -4 37.9429  3.5392   6
   9  -2   4 12.0002  2.3537   6
  -9  -2  -4 10.4289  2.5808   2
   9  -2   4 5.78036 1.91405   4
   9  -2   4 8.32481 2.71157   3
  -9  -2  -4 5.44429 2.52623   6
  -9   2  -4 10.3759  2.0265   2
  -9   2  -4 8.66026 2.23939   6
   9   2   4 8.41087 2.44948   6
 -10  -2  -4 305.132  24.272   6
  10  -2   4 364.769  28.321   3
 -10  -2  -4 400.887  22.837   2
  10  -2   4 351.749  22.265   4
  10  -2   4 374.263  24.214   6
 -10   2  -4 304.217  24.038   6
 -10   2  -4 344.108  22.280   2
  10   2   4 335.219  24.305   6
 -11  -2  -4 8.73989 2.49604   6
  11  -2   4 14.4450  2.6033   6
  11  -2   4 12.6169  3.0860   3
 -11   2  -4 11.9630  2.4969   6
  11   2   4 10.0301  2.5359   6
 -11   2  -4 11.5098  2.3505   2
 -12  -2  -4 78.4830  7.0844   6
 -12   2  -4 86.2424  7.1505   6
 -12   2  -4 93.4202  6.7998   2
  12   2   4 92.1599  7.3529   6
 -13  -2  -4 1.87463 2.05713   6
 -13   2  -4 4.50436 2.16553   2
 -13   2  -4 5.20366 2.33798   6
  13   2   4 4.36057 2.43958   6
 -14   2  -4 250.362  16.707   2
  14   3  -4 76.8886  6.2955   2
  13  -3  -4 107.967  11.013   3
  13  -3  -4 135.443  10.096   6
  13   3  -4 109.889   9.322   6
  13   3  -4 128.799   8.785   2
  12  -3  -4 484.249  30.170   6
  12  -3  -4 396.696  34.418   3
  12   3  -4 401.917  29.358   6
  12   3  -4 416.676  27.100   2
  11  -3  -4 75.0168  7.8843   3
  11  -3  -4 77.2806  7.0469   6
  11   3  -4 74.0153  5.8430   2
  11   3  -4 68.5320  6.2040   6
  10  -3  -4 78.0163  8.5992   3
  10  -3  -4 82.3259  7.5571   6
 -10  -3   4 88.9798  6.8927   6
 -10  -3   4 99.8651  6.5398   4
 -10   3   4 81.6007  6.8998   2
  10   3  -4 81.9412  6.4690   2
  10   3  -4 84.7482  6.9936   6
  -9  -3   4 229.079  13.497   4
   9  -3  -4 195.692  17.389   3
   9  -3  -4 176.622  14.908   6
  -9  -3   4 193.568  14.436   6
   9   3  -4 228.981  14.792   6
   9   3  -4 194.408  13.446   2
  -9   3   4 201.175  13.920   2
   8  -3  -4 769.102  57.883   3
   8  -3  -4 685.017  49.733   6
   8  -3  -4 636.789  45.818   2
  -8  -3   4 815.894  45.526   4
   8   3  -4 678.706  45.684   2
  -8   3   4 738.767  45.913   2
   8   3  -4 773.538  49.671   6
  -7  -3   4 215.845  18.807   1
   7  -3  -4 220.920  15.936   6
   7  -3  -4 234.111  14.618   4
   7  -3  -4 224.265  14.748   2
  -7  -3   4 226.408  14.580   4
   7  -3  -4 215.888  14.302   5
   7   3  -4 234.525  16.038   6
   7   3  -4 234.484  14.763   2
  -7   3   4 214.280  14.668   2
  -6  -3   4 96.9932  6.2938   4
   6  -3  -4 83.3184  6.6559   6
  -6  -3   4 76.1960  6.4220   6
   6  -3  -4 90.3350  5.9083   5
  -6  -3   4 81.2438  8.1111   1
   6  -3  -4 93.6557  6.1133   4
   6  -3  -4 87.2127  6.1549   2
  -6   3   4 86.7383  6.1192   2
   6   3  -4 94.9585  7.0849   6
   6   3  -4 96.1652  6.5108   2
   5  -3  -4 449.244  27.261   2
   5  -3  -4 454.531  26.962   5
  -5  -3   4 415.420  34.956   1
   5  -3  -4 455.268  27.095   4
   5  -3  -4 391.545  29.470   6
  -5  -3   4 438.889  29.359   6
  -5  -3   4 462.391  27.396   4
  -5   3   4 459.046  27.249   2
   5   3  -4 416.225  27.549   2
  -5   3   4 390.951  29.472   6
   5   3  -4 414.915  29.873   6
  -5   3   4 465.948  27.139   4
   4  -3  -4 937.093  57.443   6
   4  -3  -4 803.808  52.708   4
  -4  -3   4 869.406  67.828   1
   4  -3  -4 806.331  52.560   5
   4  -3  -4 935.478  53.023   2
  -4  -3   4 865.083  53.040   4
   4   3  -4 755.922  53.240   2
  -4   3   4 813.993  57.409   6
  -4   3   4 967.095  53.014   2
   4   3  -4 807.708  57.718   6
  -4   3   4 835.835  52.727   4
  -3  -3   4 630.005  40.850   4
   3  -3  -4 700.654  40.540   5
  -3  -3   4 576.720  40.760   4
  -3  -3   4 691.636  40.595   5
  -3  -3   4 668.943  52.374   1
   3  -3  -4 600.637  40.799   2
   3  -3  -4 698.284  44.234   6
   3  -3  -4 653.501  40.606   4
   3   3  -4 690.423  44.395   6
  -3   3   4 662.697  40.626   4
  -3   3   4 715.423  44.252   6
   3   3  -4 665.531  40.992   2
  -3   3   4 600.292  40.793   2
  -2  -3   4 198.770  16.367   1
   2  -3  -4 199.807  12.421   2
  -2  -3   4 182.022  12.543   5
   2  -3  -4 185.984  12.332   4
   2  -3  -4 199.968  12.354   5
  -2  -3   4 185.815  12.421   4
   2  -3  -4 201.599  13.465   6
  -2   3   4 214.592  12.361   4
   2   3  -4 198.443  12.400   2
  -2   3   4 202.287  12.414   2
   2   3  -4 205.414  13.396   6
  -2   3   4 187.772  13.453   6
   1  -3  -4 767.502  46.229   6
  -1  -3   4 673.898  42.312   4
  -1  -3   4 677.901  42.682   5
   1  -3  -4 749.703  42.425   5
   1  -3  -4 629.881  42.412   4
  -1  -3   4 655.165  54.780   1
  -1  -3   4 657.348  42.324   4
   1  -3  -4 655.556  42.642   2
  -1   3   4 753.582  42.667   2
  -1   3   4 720.185  46.215   6
  -1   3   4 661.076  42.643   2
  -1   3   4 642.274  42.424   4
   1   3  -4 711.671  42.505   2
   0  -3  -4 648.658  43.931   6
   0  -3  -4 681.296  40.344   5
   0  -3   4 623.478  40.679   5
   0  -3  -4 668.728  40.334   4
   0  -3  -4 685.901  40.543   2
   0  -3   4 657.306  52.176   1
   0   3   4 688.412  43.926   6
   0   3   4 619.692  40.537   2
   0   3   4 609.244  40.333   4
   1  -3   4 917.601  71.068   1
   1  -3   4 838.775  54.916   4
  -1  -3  -4 972.139  55.085   4
   1  -3   4 828.963  54.927   4
  -1  -3  -4 946.927  55.069   5
   1  -3   4 892.590  55.458   5
  -1  -3  -4 908.432  59.985   6
   1  -3   4 819.514  69.968   3
  -1  -3  -4 900.823  55.334   2
   1   3   4 962.358  59.979   6
   1   3   4 831.746  55.058   4
   1   3   4 926.706  55.358   2
   2  -3   4 395.431  27.394   4
   2  -3   4 439.740  27.996   5
  -2  -3  -4 452.708  27.460   4
   2  -3   4 425.499  35.772   1
  -2  -3  -4 432.148  29.899   6
  -2  -3  -4 475.697  27.606   2
   2  -3   4 406.053  35.196   3
   2   3   4 480.687  27.473   4
  -2   3  -4 445.331  27.504   2
   2   3   4 448.262  27.599   2
   2   3   4 467.192  29.902   6
   3  -3   4 476.248  30.311   4
  -3  -3  -4 495.557  30.230   2
   3  -3   4 490.892  30.202   4
  -3  -3  -4 482.150  30.077   4
   3  -3   4 416.670  38.567   3
  -3  -3  -4 532.901  32.795   6
   3  -3   4 518.915  39.135   1
   3  -3   4 497.932  30.678   5
   3   3   4 535.657  30.254   2
   3   3   4 438.730  32.709   6
  -3   3  -4 514.492  32.969   6
  -3   3  -4 446.720  30.247   2
   3   3   4 473.307  30.054   4
   4  -3   4 249.261  16.961   5
   4  -3   4 256.509  21.411   3
   4  -3   4 289.977  17.570   6
  -4  -3  -4 261.114  16.365   4
   4  -3   4 251.662  16.625   4
  -4  -3  -4 250.653  17.861   6
  -4   3  -4 257.855  16.666   2
  -4   3  -4 253.508  18.202   6
   4   3   4 282.088  16.506   2
   4   3   4 257.198  17.818   6
   4   3   4 248.904  16.356   4
   5  -3   4 466.156  30.138   6
  -5  -3  -4 463.753  28.038   2
   5  -3   4 464.466  35.958   3
   5  -3   4 436.468  28.409   5
   5  -3   4 404.302  28.079   4
  -5  -3  -4 407.837  27.847   4
  -5  -3  -4 452.589  30.429   6
   5   3   4 458.395  27.875   4
   5   3   4 442.193  30.357   6
   5   3   4 432.271  28.058   2
  -5   3  -4 521.457  30.892   6
  -5   3  -4 419.966  28.251   2
   6  -3   4 411.538  28.902   6
  -6  -3  -4 418.060  26.922   2
   6  -3   4 459.468  34.465   3
   6  -3   4 403.614  27.144   5
  -6  -3  -4 411.000  29.266   6
   6  -3   4 417.216  26.895   4
   6   3   4 369.594  26.706   4
  -6   3  -4 440.568  27.103   2
   6   3   4 444.620  29.241   6
  -6   3  -4 462.250  29.474   6
   6   3   4 459.669  27.076   2
  -7  -3  -4 199.258  14.720   6
   7  -3   4 192.694  13.560   5
  -7  -3  -4 206.317  13.509   2
   7  -3   4 180.900  17.067   3
   7  -3   4 215.897  13.381   4
  -7   3  -4 224.574  14.638   6
   7   3   4 199.083  14.621   6
   7   3   4 195.861  13.549   2
  -7   3  -4 214.366  13.463   2
  -8  -3  -4 157.187  12.280   6
   8  -3   4 175.663  11.254   5
   8  -3   4 157.514  10.894   4
   8  -3   4 171.386  14.212   3
  -8  -3  -4 148.290  11.235   2
  -8   3  -4 171.808  11.050   2
  -8   3  -4 184.629  12.059   6
   8   3   4 142.695  12.171   6
   8   3   4 157.723  11.393   2
   9  -3   4 149.318  10.527   4
   9  -3   4 153.296  13.588   3
  -9  -3  -4 136.441  11.761   6
   9   3   4 144.131  11.886   6
   9   3   4 167.049  11.167   2
  -9   3  -4 167.576  10.613   2
  -9   3  -4 170.666  11.572   6
  10  -3   4 201.588  13.043   4
 -10  -3  -4 199.816  14.535   6
  10  -3   4 189.027  16.643   3
 -10   3  -4 203.612  14.145   6
 -10   3  -4 203.329  13.050   2
  10   3   4 172.794  14.386   6
 -11  -3  -4 71.3331  6.6056   6
  11  -3   4 76.0161  7.7516   3
  11  -3   4 80.5648  6.0051   4
  11   3   4 71.4776  6.7638   6
 -11   3  -4 72.8305  5.8737   2
 -11   3  -4 87.2805  6.5454   6
  12  -3   4 127.805  11.052   3
 -12  -3  -4 113.072   9.192   6
  12   3   4 104.579   9.336   6
 -12   3  -4 117.835   9.248   6
 -12   3  -4 131.651   8.689   2
 -13  -3  -4 95.1272  8.0176   6
  13   3   4 103.443   8.289   6
 -13   3  -4 101.105   7.587   2
 -13   3  -4 100.427   8.042   6
  13  -4  -4 29.4296  4.1662   6
  13   4  -4 18.1311  3.4257   6
  13   4  -4 25.9051  3.3022   2
 -13   4   4 28.2699  4.2669   6
  12  -4  -4 67.8989  6.2747   6
  12  -4  -4 51.7374  7.0463   3
  12   4  -4 58.1478  5.0754   2
  12   4  -4 53.0480  5.4300   6
  11  -4  -4 4.56479 2.92816   6
  11  -4  -4 4.15688 3.20155   3
 -11  -4   4 4.38819 2.07067   4
  11   4  -4 6.76128 2.09848   2
  11   4  -4 6.99472 2.50347   6
 -11   4   4 8.60093 2.66595   2
  10  -4  -4 36.7164  5.4879   3
  10  -4  -4 29.8239  4.5322   6
 -10  -4   4 43.5198  3.7592   4
  10   4  -4 40.7126  3.7249   2
 -10   4   4 38.0212  4.5422   2
  10   4  -4 36.7689  4.0994   6
   9  -4  -4 4.52228 2.81066   3
   9  -4  -4 0.77600 2.09389   6
  -9  -4   4 0.61867 1.60982   4
   9   4  -4 -0.1873  1.9908   6
  -9   4   4 2.82374 2.10133   2
   9   4  -4 0.88000 1.71940   2
   8  -4  -4 92.5990  7.4295   6
   8  -4  -4 93.6284  8.9180   3
  -8  -4   4 101.455   6.806   4
   8  -4  -4 91.0860  6.6071   5
  -8   4   4 78.9737  6.7659   2
   8   4  -4 99.4088  7.5602   6
   8   4  -4 95.2318  6.8435   2
  -7  -4   4 1.34176 1.52200   4
   7  -4  -4 1.68946 1.53607   6
  -7  -4   4 1.05007 2.22167   1
   7  -4  -4 2.91521 1.37477   4
   7  -4  -4 1.80079 1.27122   5
  -7   4   4 3.14354 1.52717   2
   7   4  -4 1.55818 1.61239   2
   7   4  -4 3.84648 2.11163   6
  -6  -4   4 73.8109  5.2575   4
  -6  -4   4 76.2204  7.3857   1
   6  -4  -4 81.5461  5.2098   2
   6  -4  -4 71.2301  4.9219   5
   6  -4  -4 62.2164  5.3467   6
   6   4  -4 70.0446  5.3058   2
  -6   4   4 73.7842  5.0406   2
  -6   4   4 59.5344  5.4057   6
   6   4  -4 70.0394  5.9842   6
  -5  -4   4 62.9850  4.6120   4
   5  -4  -4 65.2359  4.2568   5
   5  -4  -4 50.3213  4.1345   4
   5  -4  -4 61.8728  4.6267   6
  -5  -4   4 56.4517  6.3767   1
   5  -4  -4 60.6079  4.3585   2
  -5   4   4 62.9972  4.2610   2
   5   4  -4 57.6587  5.0167   6
  -5   4   4 61.0753  4.6905   6
   5   4  -4 68.5029  4.7868   2
  -4  -4   4 31.9789  3.9846   1
  -4  -4   4 24.7086  2.3186   5
   4  -4  -4 29.1026  2.2655   2
   4  -4  -4 29.5398  2.4242   6
   4  -4  -4 30.4369  2.2883   5
   4  -4  -4 26.8210  2.1619   4
  -4  -4   4 31.0577  2.7477   4
   4   4  -4 30.8619  2.9147   2
   4   4  -4 26.7869  2.7072   6
  -4   4   4 25.1041  2.1657   2
  -4   4   4 29.4592  2.4404   6
   3  -4  -4 1.32096 0.70014   2
  -3  -4   4 1.56008 1.11246   4
   3  -4  -4 3.05084 0.76419   6
   3  -4  -4 2.51557 0.75028   5
  -3  -4   4 0.18694 1.02056   5
   3  -4  -4 1.05360 0.59287   4
  -3  -4   4 4.91656 2.08354   1
  -3  -4   4 0.60441 0.66581   4
   3   4  -4 0.38577 0.68586   6
  -3   4   4 1.07396 0.61724   2
   3   4  -4 1.01267 1.37410   2
  -3   4   4 1.50466 0.62953   4
  -3   4   4 0.19118 0.67449   6
   2  -4  -4 31.6106  2.4028   6
  -2  -4   4 31.8254  2.1290   4
   2  -4  -4 30.4645  2.2432   2
  -2  -4   4 29.9776  2.6672   5
  -2  -4   4 25.0025  2.4100   4
   2  -4  -4 31.2440  2.2107   4
  -2  -4   4 28.1105  3.9800   1
   2  -4  -4 33.0282  2.3394   5
   2   4  -4 32.9888  2.2728   6
   2   4  -4 25.7072  2.6707   2
  -2   4   4 33.1434  2.2340   4
  -2   4   4 31.0569  2.2343   2
  -2   4   4 31.5100  2.4330   6
  -1  -4   4 63.2461  4.3888   5
  -1  -4   4 59.5587  3.7527   4
   1  -4  -4 58.4780  4.0241   5
   1  -4  -4 62.2563  4.2903   6
   1  -4  -4 60.0831  3.9502   2
  -1  -4   4 54.6245  6.0792   1
   1  -4  -4 52.7266  3.8861   4
  -1   4   4 59.7130  3.9240   4
  -1   4   4 65.1751  3.9690   2
  -1   4   4 60.3096  3.9460   2
  -1   4   4 58.0666  4.2689   6
   0  -4  -4 4.12091 0.85538   5
   0  -4  -4 5.71018 0.68380   2
   0  -4   4 2.91824 1.35409   5
   0  -4  -4 3.25617 0.72735   6
   0  -4  -4 3.42919 0.60287   4
   0  -4   4 4.21590 0.38521   4
   0  -4   4 3.58736 0.35579   4
   0  -4   4 5.87089 2.39979   1
   0   4   4 4.61374 0.66747   4
   0   4   4 3.67868 0.64829   2
   0   4   4 4.11991 0.68740   6
   1  -4   4 11.7037  0.8055   4
   1  -4   4 10.8801  0.9709   4
   1  -4   4 12.2197  1.8542   5
  -1  -4  -4 9.68560 1.05801   4
   1  -4   4 10.3464  2.8313   1
  -1  -4  -4 11.1948  1.0948   2
  -1  -4  -4 10.9053  1.2032   6
  -1  -4  -4 13.0866  1.3889   5
  -1   4  -4 10.3743  1.2562   2
  -1   4  -4 10.5300  0.7952   2
   1   4   4 11.6315  1.0742   4
   1   4   4 10.9955  1.1120   2
   1   4   4 12.8033  1.1916   6
  -2  -4  -4 7.45952 1.02833   6
  -2  -4  -4 11.2616  1.2969   5
   2  -4   4 8.02894 2.69214   1
  -2  -4  -4 8.36675 0.91395   2
   2  -4   4 9.12406 0.76552   4
  -2  -4  -4 6.71424 0.89968   4
   2  -4   4 7.21277 1.69642   5
   2  -4   4 7.41017 1.17600   4
   2   4   4 5.58996 0.87996   2
   2   4   4 8.20075 0.99905   6
   2   4   4 5.15068 0.82633   4
  -2   4  -4 7.73895 0.70971   2
  -2   4  -4 7.31819 1.52743   6
   3  -4   4 10.6896  2.0304   5
   3  -4   4 7.12438 1.04469   4
   3  -4   4 8.32350 1.56662   4
   3  -4   4 8.88594 2.26960   3
  -3  -4  -4 9.98168 1.27920   6
   3  -4   4 8.53956 2.83680   1
  -3  -4  -4 10.1540  1.1177   4
  -3  -4  -4 7.70523 1.29019   5
  -3  -4  -4 8.87766 1.10302   2
  -3   4  -4 10.5921  1.8875   6
   3   4   4 10.7620  1.2077   6
  -3   4  -4 8.98946 1.01871   2
   3   4   4 9.83743 1.10434   4
   3   4   4 10.5615  1.1754   2
   4  -4   4 25.3338  3.7852   3
  -4  -4  -4 27.4448  2.5086   6
  -4  -4  -4 24.6065  2.1928   4
  -4  -4  -4 28.6123  2.2014   2
   4  -4   4 34.5389  4.0579   1
   4  -4   4 26.1721  2.3802   4
   4  -4   4 27.3942  3.1785   5
   4   4   4 26.7648  2.1484   4
   4   4   4 26.6604  2.2582   2
  -4   4  -4 34.5626  3.1692   6
   4   4   4 26.0153  2.3790   6
  -4   4  -4 27.1365  2.3378   2
  -5  -4  -4 25.0581  2.3869   2
  -5  -4  -4 27.7947  2.7371   6
   5  -4   4 29.0069  2.7508   4
   5  -4   4 24.5635  3.9287   3
  -5  -4  -4 26.8687  2.3857   4
   5  -4   4 27.6700  3.3397   5
   5   4   4 29.1029  2.5091   2
  -5   4  -4 33.1879  3.1900   6
  -5   4  -4 28.3477  2.6915   2
   5   4   4 27.6644  2.5554   6
   6  -4   4 48.1481  5.7562   3
   6  -4   4 50.4744  4.2616   4
  -6  -4  -4 54.1330  3.9625   2
   6  -4   4 47.0229  4.7418   5
  -6  -4  -4 56.8053  4.6190   6
  -6  -4  -4 51.7775  4.0021   4
   6   4   4 47.3375  4.2569   6
  -6   4  -4 45.7788  4.2652   2
  -6   4  -4 65.9305  4.8290   6
   6   4   4 49.7445  4.1024   2
  -7  -4  -4 99.3017  8.0088   6
   7  -4   4 96.4396  7.5478   5
  -7  -4  -4 92.8799  7.0810   4
   7  -4   4 100.499   9.464   3
   7  -4   4 94.1694  7.1358   4
  -7   4  -4 95.3922  7.2473   2
   7   4   4 95.2997  7.6701   6
   7   4   4 100.423   7.298   2
  -7   4  -4 121.208   7.879   6
   8  -4   4 99.4562  7.3835   4
   8  -4   4 103.924   9.857   3
   8  -4   4 100.871   7.820   5
  -8  -4  -4 96.7449  8.5342   6
   8   4   4 96.3568  8.2551   6
  -8   4  -4 108.336   7.602   2
   8   4   4 102.630   7.858   2
  -8   4  -4 124.519   8.287   6
   9  -4   4 19.1781  2.6879   4
   9  -4   4 16.7969  3.7956   3
  -9  -4  -4 21.9172  3.5720   6
   9  -4   4 22.8031  3.2373   5
  -9   4  -4 20.6062  2.9829   6
  -9   4  -4 18.1625  2.6324   2
   9   4   4 19.9482  3.4566   6
   9   4   4 18.7386  3.3180   2
 -10  -4  -4 37.7575  4.3685   6
  10  -4   4 36.7219  3.7091   4
  10  -4   4 38.4003  5.0973   3
  10   4   4 28.7279  4.4401   6
  10   4   4 40.5697  4.5523   2
 -10   4  -4 33.9993  3.7042   2
 -10   4  -4 42.7722  4.2352   6
 -11  -4  -4 60.4827  5.8185   6
  11  -4   4 63.1899  5.2001   4
  11  -4   4 63.5637  7.0557   3
 -11   4  -4 63.4155  5.7214   6
  11   4   4 62.0638  6.2433   6
 -11   4  -4 64.5281  5.2565   2
 -12  -4  -4 105.458   8.984   6
  12  -4   4 120.570  10.830   3
 -12   4  -4 121.094   8.393   2
 -12   4  -4 121.076   9.050   6
  12   4   4 105.517   9.296   6
 -13  -4  -4 5.54883 2.43194   6
 -13   4  -4 4.52984 2.27082   2
  13   4   4 5.35827 2.71620   6
 -13   4  -4 6.14334 2.53430   6
  13   5  -4 48.0685  4.6447   2
  12  -5  -4 766.350  53.975   6
  12   5  -4 818.452  49.524   2
 -12   5   4 842.447  54.332   6
  12   5  -4 718.855  53.560   6
 -11  -5   4 170.031  10.322   4
  11  -5  -4 120.590  13.294   3
  11  -5  -4 122.560  11.338   6
 -11   5   4 151.072  11.896   6
  11   5  -4 159.188  11.281   6
  11   5  -4 160.683  10.334   2
 -11   5   4 134.527  10.861   2
  10  -5  -4 250.211  20.225   6
 -10  -5   4 330.812  18.557   4
  10  -5  -4 262.396  23.811   3
 -10   5   4 285.590  19.038   2
  10   5  -4 294.390  20.227   6
  10   5  -4 312.529  18.595   2
 -10   5   4 237.776  20.369   6
   9  -5  -4 52.2117  5.3371   6
   9  -5  -4 50.2358  6.4623   3
  -9  -5   4 70.3736  5.0439   4
  -9   5   4 48.7062  5.5771   6
   9   5  -4 59.7919  5.5289   6
   9   5  -4 59.0204  4.8800   2
  -9   5   4 54.5782  5.0088   2
  -8  -5   4 1459.54   80.67   4
   8  -5  -4 1339.24   80.52   4
   8  -5  -4 1233.08   80.18   5
   8  -5  -4 1267.13   87.58   6
  -8   5   4 1236.43   87.76   6
   8   5  -4 1359.48   80.96   2
   8   5  -4 1321.03   87.91   6
  -8   5   4 1177.11   80.86   2
   7  -5  -4 634.753  40.030   5
  -7  -5   4 710.204  40.485   4
   7  -5  -4 606.811  43.652   6
   7  -5  -4 654.200  40.183   4
   7   5  -4 616.495  44.112   6
  -7   5   4 593.803  43.805   6
   7   5  -4 735.594  40.702   2
  -7   5   4 606.345  40.357   2
   6  -5  -4 396.715  26.723   4
  -6  -5   4 419.634  35.250   1
   6  -5  -4 431.031  26.740   5
   6  -5  -4 420.850  29.117   6
  -6  -5   4 460.122  27.181   4
  -6   5   4 417.139  29.226   6
   6   5  -4 413.786  29.516   6
  -6   5   4 434.919  26.933   2
   6   5  -4 459.784  27.308   2
  -5  -5   4 138.955  13.208   1
   5  -5  -4 145.848   9.477   5
  -5  -5   4 131.489   9.763   4
   5  -5  -4 143.384   9.422   4
   5  -5  -4 152.209  10.285   6
  -5   5   4 153.266  10.352   6
   5   5  -4 149.916   9.919   2
  -5   5   4 152.627   9.484   2
   5   5  -4 143.156  10.521   6
   4  -5  -4 904.683  51.516   5
   4  -5  -4 838.721  51.517   4
  -4  -5   4 808.269  66.866   1
  -4  -5   4 736.282  51.709   4
   4  -5  -4 859.990  56.082   6
   4   5  -4 866.713  56.161   6
  -4   5   4 839.309  51.784   2
  -4   5   4 921.743  56.180   6
   4   5  -4 728.359  52.017   2
  -3  -5   4 994.284  78.076   1
   3  -5  -4 956.496  60.199   5
   3  -5  -4 1027.29   60.26   4
  -3  -5   4 857.931  60.305   4
   3  -5  -4 1048.07   60.58   2
  -3  -5   4 912.221  60.285   5
   3  -5  -4 1008.88   65.57   6
  -3   5   4 947.770  65.621   6
  -3   5   4 1045.86   60.56   2
   3   5  -4 976.877  65.511   6
   2  -5  -4 515.715  31.857   2
   2  -5  -4 485.523  34.470   6
   2  -5  -4 552.619  31.761   5
  -2  -5   4 485.357  31.891   5
  -2  -5   4 512.497  41.674   1
  -2  -5   4 487.541  31.638   4
   2  -5  -4 557.277  31.705   4
  -2  -5   4 502.594  31.575   4
   2   5  -4 460.594  31.843   2
  -2   5   4 568.561  34.549   6
  -2   5   4 509.117  31.847   2
  -1  -5   4 362.092  21.569   5
  -1  -5   4 348.213  21.073   4
   1  -5  -4 313.702  21.176   4
   1  -5  -4 306.593  21.284   2
  -1  -5   4 330.892  28.312   1
   1  -5  -4 344.241  23.092   6
   1  -5  -4 356.220  21.301   5
  -1  -5   4 368.950  21.054   4
  -1   5   4 321.385  21.302   2
  -1   5   4 367.897  21.338   2
  -1   5   4 356.574  23.104   6
   1   5  -4 323.892  21.195   2
   0  -5  -4 166.883  10.208   2
   0  -5  -4 164.794  11.090   6
   0  -5  -4 162.066  10.144   4
   0  -5   4 145.146  10.536   5
   0  -5   4 143.372  14.331   1
   0  -5   4 161.993   9.969   4
   0  -5  -4 164.261  10.305   5
   0  -5   4 165.962   9.976   4
   0   5  -4 164.051  10.028   2
   0   5   4 156.979  10.213   2
   0   5   4 167.394  11.061   6
  -1  -5  -4 473.060  33.573   6
  -1  -5  -4 540.771  30.975   2
   1  -5   4 454.020  40.661   1
   1  -5   4 517.814  30.636   4
  -1  -5  -4 492.304  30.927   5
   1  -5   4 508.689  30.652   4
   1  -5   4 459.953  31.187   5
  -1  -5  -4 505.189  30.839   4
   1   5   4 507.557  33.556   6
  -1   5  -4 488.180  30.781   2
   1   5   4 520.122  30.989   2
  -2  -5  -4 608.006  38.489   2
   2  -5   4 570.566  38.189   4
   2  -5   4 611.045  38.159   4
  -2  -5  -4 595.564  38.412   5
   2  -5   4 621.592  50.327   1
  -2  -5  -4 626.077  41.768   6
   2  -5   4 637.415  38.793   5
  -2  -5  -4 649.527  38.346   4
   2   5   4 660.783  41.741   6
   2   5   4 639.523  38.532   2
  -2   5  -4 608.313  38.334   2
  -3  -5  -4 244.884  16.304   6
  -3  -5  -4 237.364  15.061   5
   3  -5   4 237.733  15.478   5
   3  -5   4 235.416  14.765   4
  -3  -5  -4 223.428  14.870   4
  -3  -5  -4 238.581  14.913   2
   3   5   4 219.171  14.958   2
  -3   5  -4 243.110  14.818   2
   3   5   4 254.244  16.218   6
   4  -5   4 39.6361  2.9282   4
  -4  -5  -4 38.1385  3.2143   5
   4  -5   4 50.5562  5.3979   1
  -4  -5  -4 41.8180  3.3429   6
   4  -5   4 39.5387  4.5176   3
  -4  -5  -4 34.5041  2.8987   4
   4  -5   4 38.9913  3.8238   5
   4   5   4 42.0252  3.2276   6
   4   5   4 36.6002  2.9740   2
  -4   5  -4 38.5445  2.8991   2
  -5  -5  -4 57.1012  4.7268   5
  -5  -5  -4 65.5092  4.6029   4
   5  -5   4 64.9813  4.7265   4
   5  -5   4 60.3564  5.3577   5
  -5  -5  -4 61.8948  5.1320   6
   5  -5   4 68.3793  6.6963   3
   5   5   4 67.1586  4.9895   6
   5   5   4 67.2185  4.6675   2
  -5   5  -4 63.2429  5.3476   6
  -5   5  -4 69.2796  4.7094   2
   6  -5   4 597.997  36.681   5
   6  -5   4 512.458  46.176   3
  -6  -5  -4 584.253  39.539   6
   6  -5   4 569.023  36.254   4
  -6  -5  -4 604.628  36.141   4
  -6   5  -4 610.451  39.594   6
   6   5   4 533.146  36.295   2
  -6   5  -4 589.373  36.413   2
   6   5   4 599.308  39.255   6
   7  -5   4 18.6635  3.7203   3
  -7  -5  -4 15.0280  2.2846   5
   7  -5   4 14.2422  2.4604   4
  -7  -5  -4 16.5147  2.3682   4
  -7  -5  -4 14.3334  2.8041   6
   7  -5   4 14.0480  3.0368   5
   7   5   4 14.0658  2.4494   2
  -7   5  -4 21.5238  2.9838   6
  -7   5  -4 13.0718  2.6080   2
   7   5   4 16.3405  2.4944   6
   8  -5   4 200.363  13.626   4
   8  -5   4 219.776  14.175   5
  -8  -5  -4 216.417  15.269   6
   8  -5   4 203.866  17.647   3
   8   5   4 187.354  14.796   6
   8   5   4 204.230  13.908   2
  -8   5  -4 202.985  13.796   2
  -9  -5  -4 31.4701  4.0001   6
   9  -5   4 22.7478  4.4177   3
   9  -5   4 24.2480  3.0388   4
   9  -5   4 24.0884  3.5438   5
  -9   5  -4 23.6327  3.1744   2
   9   5   4 23.2407  3.7132   2
   9   5   4 22.6033  3.7018   6
  -9   5  -4 28.5193  3.6110   6
  10  -5   4 376.936  30.570   3
  10  -5   4 370.362  23.788   4
 -10  -5  -4 371.691  26.136   6
  10   5   4 327.619  26.273   6
 -10   5  -4 409.677  26.108   6
 -10   5  -4 354.287  23.896   2
  10   5   4 384.321  24.500   2
  11  -5   4 8.68190 2.21051   4
  11  -5   4 7.55196 3.20523   3
 -11  -5  -4 9.12169 2.55506   6
  11   5   4 3.39756 2.87060   6
 -11   5  -4 15.4049  2.9092   6
 -11   5  -4 9.32230 2.35961   2
 -12  -5  -4 395.627  28.175   6
  12  -5   4 414.589  33.153   3
 -12   5  -4 425.675  26.103   2
  12   5   4 346.493  28.457   6
 -12   5  -4 440.887  28.392   6
 -13  -5  -4 72.1465  6.3286   6
  12   6  -4 14.3023  3.1636   6
 -12   6   4 11.3125  3.5753   6
  12   6  -4 18.0108  2.9743   2
 -12   6   4 15.6886  3.6575   2
 -11  -6   4 6.35508 2.42480   4
  11  -6  -4 5.74598 3.53863   3
  11   6  -4 11.5660  2.8084   6
  11   6  -4 8.92939 2.49331   2
 -11   6   4 10.5327  3.2361   6
 -11   6   4 7.72179 2.98361   2
  10  -6  -4 172.474  16.575   3
  10  -6  -4 175.333  13.999   6
 -10   6   4 197.045  13.307   2
 -10   6   4 173.044  14.383   6
  10   6  -4 203.278  12.982   2
  10   6  -4 212.690  14.200   6
  -9  -6   4 22.3946  3.0241   4
   9  -6  -4 17.3016  3.0808   6
   9  -6  -4 23.4347  4.2095   3
  -9   6   4 14.7594  3.3541   6
   9   6  -4 23.9007  3.1672   2
   9   6  -4 22.9508  3.6094   6
  -9   6   4 22.6752  3.1262   2
   8  -6  -4 16.5651  2.3807   5
  -8  -6   4 10.4396  2.6208   4
   8  -6  -4 13.1683  2.1547   4
   8  -6  -4 12.5869  2.3472   6
   8   6  -4 12.6375  3.0084   6
  -8   6   4 9.55698 2.41538   6
   8   6  -4 12.0683  2.5650   2
  -8   6   4 10.8699  2.2335   2
   7  -6  -4 20.2627  2.5198   6
  -7  -6   4 17.1352  2.8274   4
   7  -6  -4 17.5550  2.3221   5
   7  -6  -4 24.5801  2.3855   4
  -7   6   4 18.0781  2.6203   6
   7   6  -4 23.3870  3.0372   2
   7   6  -4 22.0051  3.2874   6
  -7   6   4 16.6272  2.2809   2
   6  -6  -4 107.115   8.577   6
   6  -6  -4 119.069   7.942   4
  -6  -6   4 115.504  11.692   1
  -6  -6   4 119.353   8.442   4
   6  -6  -4 133.335   8.122   5
   6   6  -4 120.483   8.525   2
   6   6  -4 128.941   9.171   6
  -6   6   4 114.176   8.730   6
  -6   6   4 122.821   8.064   2
   5  -6  -4 274.308  17.054   4
  -5  -6   4 277.241  23.374   1
  -5  -6   4 251.089  17.315   4
   5  -6  -4 272.827  18.519   6
   5  -6  -4 283.535  17.166   5
   5   6  -4 259.079  17.502   2
  -5   6   4 278.906  18.636   6
  -5   6   4 252.796  17.095   2
   5   6  -4 282.923  18.751   6
   4  -6  -4 146.273   9.219   5
   4  -6  -4 136.029   9.059   4
  -4  -6   4 148.721  13.452   1
   4  -6  -4 135.765   9.840   6
  -4  -6   4 145.188   9.250   4
  -4   6   4 152.925   9.987   6
  -4   6   4 144.318   9.149   2
   4   6  -4 123.968   9.329   2
   3  -6  -4 34.1712  2.7395   6
   3  -6  -4 37.7843  2.7819   5
  -3  -6   4 31.8226  5.4462   1
   3  -6  -4 29.5966  2.5381   4
  -3  -6   4 34.5186  3.1553   5
  -3  -6   4 34.9329  2.5982   4
   3   6  -4 30.1472  2.6911   2
  -3   6   4 39.6661  2.9060   6
  -3   6   4 36.8843  2.6524   2
   2  -6  -4 56.7713  4.0364   4
  -2  -6   4 60.0063  4.6442   5
  -2  -6   4 57.6577  7.0704   1
   2  -6  -4 59.1631  4.3906   6
  -2  -6   4 54.1206  3.9170   4
   2  -6  -4 60.5826  4.2219   5
  -2   6   4 70.6534  4.5344   6
   2   6  -4 58.3921  4.0010   2
  -2   6   4 64.8763  4.1174   2
   1  -6  -4 372.465  21.944   5
  -1  -6   4 380.392  21.643   4
   1  -6  -4 328.594  23.703   6
   1  -6  -4 330.033  21.754   4
  -1  -6   4 332.812  22.168   5
  -1  -6   4 334.633  29.588   1
  -1   6   4 366.366  21.908   2
  -1   6   4 340.982  23.708   6
  -1   6   4 356.497  21.897   2
   1   6  -4 353.854  21.751   2
   0  -6   4 501.322  28.597   4
   0  -6  -4 473.090  28.770   4
   0  -6  -4 472.463  31.352   6
   0  -6   4 479.380  29.234   5
   0  -6  -4 436.743  28.871   5
   0  -6   4 475.500  28.597   4
   0  -6   4 428.070  38.524   1
   0   6   4 438.721  31.309   6
   0   6  -4 477.440  28.737   2
   0   6   4 450.835  28.920   2
  -1  -6  -4 4.14896 1.13826   5
   1  -6   4 2.75804 0.50876   4
  -1  -6  -4 4.43659 0.94300   6
   1  -6   4 3.66665 1.56990   5
   1  -6   4 1.51815 3.54250   1
  -1  -6  -4 3.39516 0.80636   4
   1  -6   4 3.15276 0.47321   4
  -1   6  -4 2.63598 0.48278   2
   1   6   4 1.78191 0.72296   2
   1   6   4 3.11348 0.88239   6
   2  -6   4 135.132  12.184   1
  -2  -6  -4 122.259   7.929   5
   2  -6   4 112.472   8.238   5
   2  -6   4 120.584   7.446   4
  -2  -6  -4 117.099   7.651   4
  -2  -6  -4 124.256   8.413   6
   2   6   4 111.682   7.710   2
   2   6   4 122.381   8.338   6
  -2   6  -4 112.896   7.466   2
   3  -6   4 70.9678  7.3896   1
  -3  -6  -4 55.6746  4.2781   6
   3  -6   4 56.5523  4.6413   5
  -3  -6  -4 56.0032  3.8311   4
  -3  -6  -4 52.4460  4.1497   5
   3  -6   4 55.0843  3.6407   4
  -3   6  -4 51.5646  3.6161   2
   3   6   4 52.1660  3.8332   2
   3   6   4 55.2426  4.1415   6
   4  -6   4 407.718  25.799   4
  -4  -6  -4 439.391  28.372   6
  -4  -6  -4 386.356  26.062   5
  -4  -6  -4 394.652  25.879   4
   4  -6   4 379.427  26.412   5
   4  -6   4 458.218  33.483   3
   4   6   4 431.346  28.207   6
   4   6   4 437.287  26.079   2
  -4   6  -4 403.021  25.904   2
  -5  -6  -4 44.3547  3.4089   4
   5  -6   4 42.2551  3.4316   4
  -5  -6  -4 45.6253  3.8123   5
  -5  -6  -4 44.9663  4.1130   6
   5  -6   4 44.9810  5.3764   3
   5  -6   4 46.2581  4.3632   5
   5   6   4 41.2257  3.6319   6
  -5   6  -4 43.9649  3.4406   2
   5   6   4 45.5434  3.5141   2
  -6  -6  -4 267.102  16.114   4
   6  -6   4 242.793  16.645   5
  -6  -6  -4 262.924  17.845   6
   6  -6   4 241.904  20.958   3
   6  -6   4 241.816  16.097   4
  -6  -6  -4 230.393  16.108   5
   6   6   4 256.898  17.381   6
   6   6   4 245.654  16.144   2
  -6   6  -4 254.526  16.168   2
  -7  -6  -4 3.43826 2.36501   6
   7  -6   4 3.42291 3.00239   3
  -7  -6  -4 1.66162 1.65103   4
  -7  -6  -4 2.63499 1.72870   5
   7  -6   4 1.25314 1.84372   4
   7  -6   4 8.42461 2.63763   5
  -7   6  -4 0.35610 1.96427   6
   7   6   4 2.16039 1.66742   6
  -7   6  -4 -0.0212  1.8736   2
   7   6   4 4.21353 1.84585   2
   8  -6   4 156.337  11.821   5
  -8  -6  -4 166.159  12.525   6
   8  -6   4 149.668  11.205   4
   8  -6   4 163.354  14.695   3
  -8   6  -4 192.931  12.492   6
   8   6   4 163.199  11.437   2
  -8   6  -4 152.738  11.339   2
   8   6   4 164.766  12.189   6
   9  -6   4 7.48357 3.62421   3
   9  -6   4 5.89931 2.15869   4
  -9  -6  -4 7.11690 2.82257   6
  -9   6  -4 1.27226 2.24675   2
   9   6   4 0.96327 2.27907   6
  -9   6  -4 8.03912 2.67301   6
   9   6   4 1.28122 2.42796   2
  10  -6   4 275.198  17.198   4
  10  -6   4 222.670  21.911   3
 -10  -6  -4 294.471  18.960   6
  10   6   4 253.691  17.703   2
  10   6   4 246.388  19.162   6
 -10   6  -4 269.757  17.338   2
  11  -6   4 3.33884 3.51879   3
 -11  -6  -4 3.77716 2.49861   6
  11   6   4 1.66780 2.58175   2
 -11   6  -4 3.20698 2.59965   6
  11   6   4 0.53585 2.98029   6
 -11   6  -4 3.35749 2.07542   2
  12   6   4 54.8907  6.2047   6
 -12   6  -4 64.8683  5.9718   6
 -12   6  -4 61.5670  5.2720   2
 -12   7   4 85.2407  7.5148   2
 -11   7   4 9.82445 3.41150   6
 -11   7   4 5.77354 2.72310   2
  11   7  -4 2.49117 2.71992   6
  11   7  -4 7.21539 2.53454   2
  10  -7  -4 58.8916  7.2943   3
 -10  -7   4 76.7198  5.8984   4
 -10   7   4 56.0113  6.3428   6
  10   7  -4 67.9067  5.7203   2
  10   7  -4 67.4958  6.2752   6
 -10   7   4 57.4325  5.8066   2
  -9  -7   4 213.078  13.776   4
   9  -7  -4 203.517  17.434   3
  -9   7   4 175.882  14.677   6
   9   7  -4 191.840  14.944   6
  -9   7   4 208.788  13.634   2
   9   7  -4 206.674  13.707   2
   8  -7  -4 432.192  28.692   5
  -8  -7   4 427.013  29.017   4
   8  -7  -4 472.107  28.777   4
  -8   7   4 470.573  28.938   2
  -8   7   4 434.264  31.368   6
   8   7  -4 457.784  31.764   6
   8   7  -4 481.261  29.248   2
  -7  -7   4 16.9544  2.8460   4
   7  -7  -4 19.9818  2.3566   4
   7  -7  -4 22.2934  2.5521   6
   7  -7  -4 20.4548  2.5712   5
  -7   7   4 17.8072  2.4143   2
  -7   7   4 18.3437  2.6386   6
   7   7  -4 19.7416  2.9955   2
   6  -7  -4 48.9547  3.8080   4
   6  -7  -4 51.2644  4.1104   6
   6  -7  -4 51.4683  4.0998   5
  -6  -7   4 57.8211  4.4310   4
   6   7  -4 43.9845  4.3200   2
  -6   7   4 50.8566  3.8740   2
  -6   7   4 49.2089  4.2848   6
   5  -7  -4 27.3843  2.4473   6
  -5  -7   4 26.4895  2.6311   4
   5  -7  -4 23.9588  2.2828   4
   5  -7  -4 24.4532  2.5452   5
  -5   7   4 23.9040  2.5801   6
  -5   7   4 26.8637  2.4064   2
   5   7  -4 28.2188  2.8612   2
   4  -7  -4 1370.02   83.84   5
  -4  -7   4 1296.54   83.83   4
  -4  -7   4 1386.73  109.12   1
   4  -7  -4 1365.54   83.85   4
   4  -7  -4 1390.27   91.23   6
  -4   7   4 1365.00   84.29   2
  -4   7   4 1375.56   91.36   6
   4   7  -4 1341.29   84.35   2
   3  -7  -4 30.3559  2.3342   4
  -3  -7   4 29.1813  2.2291   4
   3  -7  -4 26.1086  2.4731   6
  -3  -7   4 26.2160  5.7798   1
   3  -7  -4 30.5833  2.6249   5
  -3   7   4 31.7161  2.4182   2
   3   7  -4 27.7155  2.3262   2
  -3   7   4 27.2833  2.6306   6
   2  -7  -4 303.243  17.668   4
   2  -7  -4 261.726  19.158   6
  -2  -7   4 262.087  24.726   1
  -2  -7   4 283.734  18.152   5
   2  -7  -4 273.165  17.820   5
  -2  -7   4 283.006  17.504   4
   2   7  -4 278.592  17.611   2
  -2   7   4 298.135  19.258   6
  -2   7   4 283.407  17.741   2
  -1  -7   4 11.9373  2.2626   5
   1  -7  -4 14.2795  1.7715   5
   1  -7  -4 13.8377  1.4479   4
  -1  -7   4 13.5403  1.1865   4
  -1  -7   4 14.6893  4.7666   1
   1  -7  -4 13.6308  1.5587   6
  -1   7   4 14.6775  1.4566   2
  -1   7   4 14.4354  1.4485   2
  -1   7   4 14.9971  1.6554   6
   1   7  -4 14.3660  1.2525   2
   0  -7   4 1825.22  108.02   4
   0  -7   4 1783.81  108.54   5
   0  -7  -4 1854.68  108.22   4
   0  -7  -4 1688.47  117.81   6
   0  -7  -4 1654.82  108.18   5
   0   7   4 1692.64  108.74   2
   0   7  -4 1732.58  108.56   2
   0   7   4 1845.40  117.83   6
   1  -7   4 415.107  25.232   5
   1  -7   4 392.422  24.377   4
  -1  -7  -4 396.435  24.804   5
   1  -7   4 322.833  33.707   1
  -1  -7  -4 411.196  26.830   6
  -1  -7  -4 404.449  24.595   4
   1   7   4 419.405  26.796   6
   1   7   4 416.044  24.734   2
  -1   7  -4 389.728  24.501   2
  -1   7  -4 365.405  24.496   2
  -2  -7  -4 744.517  49.155   6
  -2  -7  -4 720.740  45.235   5
   2  -7   4 858.877  60.523   1
   2  -7   4 699.098  45.568   5
  -2  -7  -4 683.062  45.057   4
   2  -7   4 694.255  44.852   4
   2   7   4 770.190  49.076   6
   2   7   4 744.594  45.305   2
  -2   7  -4 683.165  45.068   2
  -3  -7  -4 3.90688 1.08647   4
  -3  -7  -4 6.38914 1.60506   5
   3  -7   4 11.1065  2.2330   5
  -3  -7  -4 6.71454 1.48353   6
   3  -7   4 4.55018 0.87255   4
   3  -7   4 10.7842  4.8125   1
   3   7   4 4.84245 1.15635   6
  -3   7  -4 7.34434 0.90726   2
   3   7   4 5.77397 1.15909   2
   4  -7   4 714.898  45.441   4
  -4  -7  -4 699.232  45.573   4
   4  -7   4 751.073  46.207   5
  -4  -7  -4 783.728  49.866   6
  -4  -7  -4 696.456  45.776   5
  -4   7  -4 708.268  45.649   2
   4   7   4 755.032  45.838   2
   4   7   4 779.464  49.646   6
   5  -7   4 588.990  35.824   5
   5  -7   4 569.564  45.206   3
  -5  -7  -4 521.966  35.315   5
  -5  -7  -4 593.519  38.625   6
   5  -7   4 538.916  35.065   4
  -5  -7  -4 567.608  35.138   4
  -5   7  -4 563.661  35.234   2
   5   7   4 555.089  38.236   6
   5   7   4 578.160  35.363   2
   6  -7   4 586.148  37.333   5
  -6  -7  -4 646.440  40.483   6
   6  -7   4 555.208  47.112   3
  -6  -7  -4 518.084  36.790   5
   6  -7   4 566.536  36.711   4
  -6  -7  -4 588.527  36.707   4
   6   7   4 598.885  39.916   6
   6   7   4 601.781  36.976   2
  -6   7  -4 620.771  36.927   2
   7  -7   4 26.6177  3.1914   4
  -7  -7  -4 32.9147  3.1357   4
   7  -7   4 23.2226  3.9239   5
  -7  -7  -4 26.0705  4.0063   6
   7  -7   4 31.6926  5.0888   3
   7   7   4 28.4244  3.2385   2
  -7   7  -4 33.1627  3.4210   2
   7   7   4 26.4552  3.1666   6
   8  -7   4 63.3629  7.3660   3
  -8  -7  -4 73.8610  6.4650   6
   8  -7   4 56.6931  5.3222   4
   8   7   4 67.5906  5.5998   2
   8   7   4 56.4239  5.6268   6
  -8   7  -4 60.5043  5.5056   2
   9  -7   4 266.204  16.338   4
   9  -7   4 247.512  21.033   3
   9   7   4 252.775  16.644   2
  -9   7  -4 220.117  16.346   2
   9   7   4 231.553  17.754   6
  10  -7   4 220.620  19.373   3
 -10   7  -4 235.569  15.177   2
  10   7   4 219.578  16.713   6
  10   7   4 214.679  15.504   2
  11   7   4 64.5677  6.7831   6
 -11   7  -4 63.4517  5.6645   2
  11   7   4 72.2086  6.5088   2
 -11   8   4 112.319   9.092   2
 -10   8   4 9.01569 2.70079   2
  10   8  -4 8.22546 2.84229   2
 -10   8   4 8.57040 3.10439   6
  -9  -8   4 46.3379  5.1615   4
   9  -8  -4 61.8225  6.9713   3
   9   8  -4 56.9098  5.3659   2
  -9   8   4 62.5620  5.1004   2
  -9   8   4 51.8861  5.5330   6
  -8  -8   4 147.170  10.384   4
   8  -8  -4 150.683   9.970   4
   8   8  -4 141.722  10.370   2
  -8   8   4 136.381  10.933   6
  -8   8   4 148.737  10.047   2
   7  -8  -4 285.551  16.946   5
   7  -8  -4 269.862  16.691   4
  -7  -8   4 268.968  17.003   4
  -7   8   4 257.157  18.230   6
   7   8  -4 232.596  17.048   2
  -7   8   4 239.917  16.716   2
  -6  -8   4 117.884   8.180   4
   6  -8  -4 118.322   8.286   5
   6  -8  -4 122.465   8.032   4
  -6   8   4 123.481   8.844   6
  -6   8   4 118.308   8.073   2
   6   8  -4 112.460   8.318   2
  -5  -8   4 71.4194  5.3391   4
   5  -8  -4 74.0557  5.3135   4
   5  -8  -4 79.3327  5.6498   5
  -5   8   4 82.2018  5.9666   6
   5   8  -4 81.0210  5.6113   2
  -5   8   4 72.2353  5.3659   2
   4  -8  -4 278.418  17.464   4
   4  -8  -4 290.583  17.714   5
  -4  -8   4 266.541  17.359   4
  -4   8   4 274.427  19.069   6
   4   8  -4 266.171  17.540   2
  -4   8   4 285.444  17.574   2
  -3  -8   4 158.465   9.979   4
   3  -8  -4 150.600  10.105   4
   3  -8  -4 154.910  10.353   5
   3   8  -4 154.823  10.058   2
  -3   8   4 164.117  11.088   6
  -3   8   4 159.091  10.180   2
  -2  -8   4 598.905  36.431   4
   2  -8  -4 595.065  36.599   4
  -2  -8   4 555.254  37.115   5
  -2  -8   4 583.320  49.711   1
   2  -8  -4 567.789  36.744   5
  -2   8   4 587.403  36.781   2
   2   8  -4 602.549  36.642   2
  -2   8   4 623.449  39.888   6
   1  -8  -4 102.426   6.915   5
  -1  -8   4 96.0046  7.3752   5
   1  -8  -4 102.966   6.555   4
  -1  -8   4 92.5011  6.3318   4
  -1  -8   4 94.8249 12.1111   1
  -1   8   4 102.853   7.161   6
  -1   8   4 95.4680  6.5978   2
   1   8  -4 107.810   6.407   2
  -1   8   4 97.3170  6.6042   2
   0  -8   4 247.935  15.349   4
   0  -8   4 211.852  23.162   1
   0  -8   4 254.741  16.327   5
   0  -8  -4 250.378  15.888   5
   0  -8  -4 247.932  15.564   4
   0   8   4 249.395  16.961   6
   0   8   4 253.134  15.664   2
   0   8   4 245.275  15.658   2
   0   8  -4 247.568  15.437   2
   1  -8   4 8.76119 2.38517   5
   1  -8   4 5.53970 5.57906   1
  -1  -8  -4 12.5619  1.3810   4
   1  -8   4 10.6189  1.0453   4
  -1  -8  -4 8.11599 1.70935   5
   1   8   4 11.8495  1.5385   6
  -1   8  -4 9.34242 1.07231   2
  -1   8  -4 8.98594 1.03156   2
   1   8   4 13.7803  1.4570   2
   2  -8   4 877.644  57.430   4
   2  -8   4 908.351  58.256   5
  -2  -8  -4 915.053  57.667   4
  -2  -8  -4 897.185  57.859   5
   2  -8   4 1043.13   77.03   1
   2   8   4 919.949  62.762   6
   2   8   4 976.700  57.954   2
  -2   8  -4 957.128  57.735   2
   3  -8   4 123.326   8.934   5
  -3  -8  -4 125.016   8.472   5
  -3  -8  -4 127.148   8.086   4
   3  -8   4 136.034  13.636   1
   3  -8   4 115.280   7.817   4
   3   8   4 123.311   8.766   6
   3   8   4 123.578   8.114   2
  -3   8  -4 118.788   7.856   2
  -4  -8  -4 107.653   8.124   5
  -4  -8  -4 114.267   7.750   4
   4  -8   4 116.122   8.664   5
   4  -8   4 115.141   7.580   4
   4   8   4 115.048   7.809   2
   4   8   4 130.276   8.523   6
  -4   8  -4 116.920   7.619   2
   5  -8   4 212.677  14.138   4
  -5  -8  -4 206.159  14.541   5
   5  -8   4 223.693  15.067   5
  -5  -8  -4 217.623  14.220   4
   5  -8   4 255.807  19.122   3
   5   8   4 220.152  15.489   6
  -5   8  -4 232.735  14.216   2
   5   8   4 209.494  14.304   2
   6  -8   4 582.569  35.489   4
   6  -8   4 608.550  45.877   3
  -6  -8  -4 508.281  35.585   5
   6  -8   4 595.969  36.275   5
  -6  -8  -4 561.029  35.468   4
  -6   8  -4 567.395  35.632   2
   6   8   4 552.312  35.678   2
   6   8   4 562.271  38.579   6
   7  -8   4 91.0787  6.6208   4
  -7  -8  -4 87.1681  6.4675   4
   7  -8   4 86.5969  9.0791   3
   7   8   4 83.3695  6.9263   6
   7   8   4 82.8746  6.5501   2
  -7   8  -4 87.8393  6.5796   2
   8  -8   4 47.1128  4.5842   4
   8  -8   4 49.4953  6.8960   3
   8   8   4 57.1362  4.9962   2
  -8   8  -4 43.9464  4.7378   2
   8   8   4 49.0488  4.9668   6
   9  -8   4 225.633  18.482   3
  -9   8  -4 201.059  14.141   2
   9   8   4 201.639  15.318   6
   9   8   4 194.324  14.206   2
  10  -8   4 228.942  19.062   3
  10   8   4 207.912  16.233   6
  10   8   4 208.716  15.108   2
 -10   8  -4 213.328  14.695   2
  11   8   4 31.0527  4.6065   2
 -10   9   4 344.329  22.817   2
   9   9  -4 309.893  21.196   2
  -9   9   4 330.854  21.124   2
   8  -9  -4 49.0422  4.2526   4
   8   9  -4 40.7793  4.5276   2
  -8   9   4 42.5476  4.5514   6
  -8   9   4 44.7341  4.1077   2
  -7  -9   4 8.32063 2.02189   4
   7  -9  -4 10.2639  1.9497   4
  -7   9   4 5.51086 2.02671   6
  -7   9   4 5.73124 1.82998   2
   7   9  -4 5.03476 2.08821   2
  -6  -9   4 292.019  18.446   4
   6  -9  -4 305.306  18.465   4
  -6   9   4 279.463  18.495   2
  -6   9   4 287.924  20.119   6
   6   9  -4 279.704  18.620   2
  -5  -9   4 572.913  36.683   4
   5  -9  -4 634.997  36.802   4
   5   9  -4 598.437  36.955   2
  -5   9   4 582.164  36.930   2
  -5   9   4 560.495  40.040   6
   4  -9  -4 39.1515  3.1469   4
  -4  -9   4 38.4341  2.9582   4
   4  -9  -4 34.5922  3.4988   5
  -4   9   4 40.7391  3.5327   6
  -4   9   4 39.2099  3.1929   2
   4   9  -4 39.4468  3.0600   2
  -3  -9   4 35.6094  2.5929   4
   3  -9  -4 36.3387  2.8636   4
   3  -9  -4 32.2801  3.1899   5
  -3   9   4 30.0259  2.7609   2
  -3   9   4 35.9890  3.1716   6
   3   9  -4 34.5141  2.6848   2
   2  -9  -4 277.817  18.847   5
   2  -9  -4 282.055  18.544   4
  -2  -9   4 302.517  18.366   4
  -2   9   4 276.303  18.624   2
  -2   9   4 306.744  20.251   6
   2   9  -4 319.232  18.488   2
  -1  -9   4 842.014  56.318   5
   1  -9  -4 891.774  55.911   5
   1  -9  -4 916.891  55.692   4
  -1  -9   4 911.916  55.488   4
  -1   9   4 964.667  60.696   6
  -1   9   4 834.444  55.957   2
   1   9  -4 940.621  55.790   2
   0  -9   4 42.4747  4.4729   5
   0  -9  -4 47.0974  3.8590   5
   0  -9  -4 46.1502  3.2195   4
   0  -9   4 41.2971  2.9344   4
   0   9  -4 43.0015  3.0103   2
   0   9   4 43.6578  3.5942   6
   0   9   4 39.3830  3.2852   2
   0   9   4 44.8787  3.3146   2
  -1  -9  -4 32.8697  3.1082   5
  -1  -9  -4 30.5802  2.5211   4
   1  -9   4 30.6641  2.2095   4
   1  -9   4 30.7975  3.8357   5
  -1   9  -4 30.5673  2.2529   2
   1   9   4 26.2401  2.4834   2
   1   9   4 29.3610  2.8186   6
   2  -9   4 350.799  21.711   5
  -2  -9  -4 328.098  20.695   4
   2  -9   4 314.353  20.458   4
  -2  -9  -4 348.881  21.193   5
   2   9   4 315.725  22.528   6
   2   9   4 323.281  20.813   2
  -2   9  -4 335.312  20.593   2
   3  -9   4 945.149  56.093   5
  -3  -9  -4 845.084  55.206   4
  -3  -9  -4 905.646  55.586   5
   3  -9   4 837.359  54.987   4
   3   9   4 890.774  55.483   2
  -3   9  -4 919.566  55.291   2
   3   9   4 908.985  60.117   6
   4  -9   4 91.6502  7.1418   5
  -4  -9  -4 87.6147  6.5532   5
   4  -9   4 80.9083  5.7214   4
  -4  -9  -4 89.3025  5.9465   4
   4   9   4 80.7536  6.0002   2
  -4   9  -4 83.1557  5.7490   2
   4   9   4 88.3245  6.5076   6
   5  -9   4 1.63933 1.25966   4
   5  -9   4 -0.0239  3.1318   3
  -5  -9  -4 -0.8044  1.7327   5
  -5  -9  -4 0.47308 1.29459   4
   5   9   4 1.73601 1.41830   6
   5   9   4 2.60082 1.46984   2
  -5   9  -4 1.70212 1.29171   2
   6  -9   4 258.070  17.758   4
   6  -9   4 302.697  23.760   3
  -6  -9  -4 283.970  17.842   4
  -6   9  -4 267.027  17.877   2
   6   9   4 287.181  17.975   2
   6   9   4 270.816  19.357   6
   7  -9   4 642.722  49.268   3
   7  -9   4 590.617  38.139   4
  -7   9  -4 598.726  38.311   2
   7   9   4 592.916  41.403   6
   7   9   4 606.833  38.338   2
   8  -9   4 145.009  14.374   3
  -8   9  -4 157.377  11.009   2
   8   9   4 168.131  11.921   6
   8   9   4 150.018  10.943   2
   9  -9   4 24.2047  5.3580   3
  -9   9  -4 22.5731  3.7037   2
   9   9   4 25.5410  3.9082   6
   9   9   4 22.3905  3.7300   2
  10   9   4 144.854  11.007   2
   8  10  -4 3.96979 2.07489   2
  -8  10   4 3.40488 2.17000   2
  -8  10   4 3.95951 2.28894   6
   7  10  -4 1.19871 1.70899   2
  -7  10   4 2.06367 1.70125   2
  -7  10   4 1.75453 1.79688   6
   6 -10  -4 80.2715  5.8199   4
   6  10  -4 74.3368  5.7749   2
  -6  10   4 83.3446  6.4526   6
  -6  10   4 83.0548  5.9024   2
  -5 -10   4 2.93257 1.23567   4
   5 -10  -4 2.59659 1.44625   4
  -5  10   4 2.17170 1.40934   2
  -5  10   4 3.67331 1.61004   6
   5  10  -4 0.18123 1.21526   2
  -4 -10   4 1.80359 1.01273   4
   4 -10  -4 1.47368 1.29210   4
  -4  10   4 1.73208 1.29607   2
  -4  10   4 2.19408 1.39573   6
   4  10  -4 -0.1778  1.0499   2
  -3 -10   4 5.11362 1.09972   4
   3 -10  -4 6.45658 1.43305   4
  -3  10   4 4.50558 1.57794   6
   3  10  -4 5.77139 1.18500   2
  -3  10   4 4.83418 1.39998   2
  -2 -10   4 157.183  10.168   4
   2 -10  -4 161.843  10.423   4
   2  10  -4 168.699  10.270   2
  -2  10   4 145.387  10.429   2
  -2  10   4 168.143  11.410   6
  -1 -10   4 15.5722  1.4972   4
   1 -10  -4 14.1229  1.7936   4
  -1  10   4 14.3301  2.0649   6
   1  10  -4 18.1064  1.6120   2
  -1  10   4 15.7082  1.8948   2
   0 -10   4 1.68221 2.45900   5
   0 -10   4 2.21121 0.79050   4
   0 -10  -4 0.94535 1.06427   4
   0  10   4 3.36679 1.39184   6
   0  10  -4 2.78394 0.89145   2
   0  10   4 1.86417 1.14753   2
   0  10  -4 2.64743 0.91895   2
   0  10   4 1.96503 1.19095   2
  -1 -10  -4 55.4524  4.7370   5
   1 -10   4 57.0046  5.5760   5
   1 -10   4 49.9339  3.7315   4
  -1 -10  -4 55.6694  4.0328   4
   1  10   4 53.6087  4.0779   2
  -1  10  -4 58.3544  3.8258   2
   1  10   4 52.5398  4.0863   2
   1  10   4 58.4561  4.4529   6
   2 -10   4 51.4865  3.5211   4
   2 -10   4 53.7016  5.4237   5
  -2 -10  -4 50.1060  3.8171   4
  -2  10  -4 51.8755  3.6085   2
   2  10   4 46.0267  3.8626   2
   2  10   4 50.5534  4.1619   6
   3 -10   4 13.5736  1.5648   4
  -3 -10  -4 15.5454  1.8926   4
   3  10   4 15.4560  2.0686   6
  -3  10  -4 15.0587  1.6777   2
   3  10   4 13.9741  1.9378   2
   4 -10   4 14.0236  1.6906   4
  -4 -10  -4 11.2784  1.8624   4
   4  10   4 15.3953  2.1419   6
   4  10   4 12.5356  1.8759   2
  -4  10  -4 12.4848  1.7154   2
   5 -10   4 106.054   6.932   4
  -5 -10  -4 92.8336  6.9405   4
   5  10   4 94.7343  7.6593   6
   5  10   4 96.7544  7.0815   2
  -5  10  -4 110.798   6.999   2
  -6 -10  -4 -0.5707  1.5788   4
   6  10   4 1.93095 1.87977   6
  -6  10  -4 5.48419 1.84321   2
   6  10   4 3.08642 1.70654   2
   7 -10   4 1.93322 3.97164   3
   7  10   4 5.24691 2.13086   6
   7  10   4 2.60047 2.12331   2
  -7  10  -4 5.63338 2.22118   2
   8  10   4 47.8326  4.9657   6
  -8  10  -4 39.8076  4.5804   2
   8  10   4 40.2382  4.3803   2
   6  11  -4 149.644  10.660   2
  -6  11   4 165.048  11.825   6
  -6  11   4 173.030  10.959   2
  -5  11   4 555.946  35.929   2
  -5  11   4 619.083  39.030   6
   5  11  -4 542.021  35.750   2
  -4  11   4 14.2002  2.0403   2
   4  11  -4 14.7669  1.8175   2
  -4  11   4 13.9862  2.2767   6
   3 -11  -4 75.6219  5.4369   4
   3  11  -4 72.4976  5.2212   2
  -3  11   4 82.1074  5.9984   6
  -3  11   4 75.8058  5.5027   2
   2 -11  -4 147.971   9.766   4
  -2 -11   4 149.211   9.476   4
   2  11  -4 151.918   9.601   2
  -2  11   4 149.716  10.698   6
  -2  11   4 142.487   9.804   2
   1 -11  -4 596.625  37.666   4
  -1 -11   4 591.244  37.394   4
   1  11  -4 606.664  37.646   2
  -1  11   4 576.951  37.849   2
   1  11  -4 625.404  37.651   2
  -1  11   4 633.806  41.102   6
   0 -11   4 3.25604 0.93923   4
   0 -11  -4 2.68337 1.23204   4
   0  11   4 2.20507 1.31062   2
   0  11   4 3.29431 1.59020   6
   0  11  -4 2.10967 1.05072   2
   1 -11   4 4.31074 1.04234   4
  -1 -11  -4 4.19400 1.21304   4
   1  11   4 2.72198 1.34164   2
  -1  11  -4 4.16995 1.14702   2
   1  11   4 3.17881 1.38171   2
   1  11   4 3.07405 1.53394   6
   2 -11   4 80.5675  5.4537   4
  -2 -11  -4 85.0657  5.7426   4
   2  11   4 74.3605  5.7679   2
   2  11   4 87.4774  6.3725   6
  -2  11  -4 81.0197  5.5573   2
  -3 -11  -4 518.867  33.563   4
   3  11   4 576.820  36.685   6
   3  11   4 492.036  33.758   2
  -3  11  -4 562.634  33.599   2
  -4  11  -4 2.38613 1.39183   2
   4  11   4 2.01595 1.72342   6
   4  11   4 4.72349 1.53089   2
   5  11   4 8.40802 1.91397   2
   5  11   4 5.10305 1.95264   6
  -5  11  -4 6.01386 1.77299   2
  -6  11  -4 61.3624  4.8150   2
   6  11   4 59.6489  5.1491   6
   6  11   4 49.9084  4.6863   2
   4  12  -4 44.1346  3.4610   2
  -4  12   4 43.4795  3.7414   2
  -3  12   4 3.69782 1.64251   2
   3  12  -4 5.75667 1.41815   2
  -2  12   4 47.4593  3.9820   2
   2  12  -4 51.6242  3.7381   2
  -1  12   4 53.8874  4.2518   2
   1  12  -4 52.3324  3.9118   2
   1  12  -4 54.7994  3.9277   2
   0  12  -4 6.62986 1.41806   2
   0  12   4 5.69222 1.58884   2
   1  12   4 1.09270 1.63122   6
  -1  12  -4 0.93458 1.17894   2
   1  12   4 0.91801 1.35232   2
   2  12   4 8.02123 1.70839   2
   2  12   4 6.93667 1.64397   2
   2  12   4 6.27275 1.97368   6
  -2  12  -4 6.40956 1.46424   2
   3  12   4 2.57513 1.84849   6
   3  12   4 2.25813 1.54014   2
  -3  12  -4 1.62847 1.39064   2
  -4  12  -4 26.6684  2.7993   2
   4  12   4 25.1390  3.1423   6
   4  12   4 20.6851  2.6825   2
  13   0  -5 2.67241 2.33786   6
  12   0  -5 0.69076 2.16449   2
  12   0  -5 -0.5001  2.2960   6
  11   0  -5 2.10620 2.15883   2
  11   0  -5 4.53439 2.34222   6
  10   0  -5 2.90247 2.26164   6
  10   0  -5 0.81137 2.04162   2
   9   0  -5 -0.6626  1.9103   2
   9   0  -5 2.18398 2.23532   6
   9   0  -5 0.66366 1.98472   3
  -9   0   5 0.64866 1.86846   4
  -8   0   5 3.81520 1.89605   4
   8   0  -5 2.13724 2.05328   6
   8   0  -5 -0.9625  1.9008   2
   8   0  -5 1.15167 1.90339   3
  -7   0   5 3.21517 1.58869   4
   7   0  -5 0.98743 1.82733   3
   7   0  -5 5.63195 2.08069   6
   7   0  -5 7.59854 1.77465   2
  -6   0   5 0.96960 1.49248   2
  -6   0   5 2.29359 1.21040   4
   6   0  -5 -0.7153  1.6540   3
   6   0  -5 1.17708 1.17882   2
   6   0  -5 -0.3695  1.6088   6
  -5   0   5 5.18857 1.56940   2
  -5   0   5 2.79411 1.13939   1
   5   0  -5 1.00532 1.28584   6
  -5   0   5 3.34106 0.97203   4
   5   0  -5 -0.3934  0.7979   2
   5   0  -5 2.66667 1.35561   3
   5   0  -5 0.00057 0.55625   5
  -4   0   5 2.25779 0.74105   6
  -4   0   5 0.83603 1.12945   2
   4   0  -5 1.25298 1.00018   4
  -4   0   5 3.97932 0.78655   4
  -4   0   5 0.46842 0.97707   1
   4   0  -5 1.82920 0.43158   5
   4   0  -5 0.54937 0.68672   2
   4   0  -5 -0.5258  0.8739   6
  -3   0   5 1.14000 1.09713   1
   3   0  -5 2.25828 0.38403   5
   3   0  -5 0.03258 0.74247   6
  -3   0   5 3.26582 0.63247   6
   3   0  -5 1.22146 0.72305   4
  -3   0   5 0.64289 0.51827   4
   3   0  -5 1.96061 0.59961   2
  -2   0   5 -0.4703  0.4417   6
   2   0  -5 1.59658 0.43739   5
   2   0  -5 1.61121 0.62684   6
   2   0  -5 0.86462 0.45915   2
  -2   0   5 0.07321 0.44816   4
   1   0  -5 1.55806 0.42223   2
   1   0  -5 1.73381 0.57208   6
  -1   0   5 1.95926 0.45202   6
  -1   0   5 1.93969 0.42979   4
   0   0  -5 -0.1817  0.4829   6
   0   0   5 -0.4549  0.3746   4
   0   0  -5 -0.0414  0.4304   2
   0   0   5 1.80683 0.49675   6
  -1   0  -5 0.24263 0.44239   2
   1   0   5 3.54135 0.61092   6
   1   0   5 1.89112 0.45465   4
   2   0   5 -0.3510  0.4829   4
   2   0   5 -0.5937  0.4712   4
  -2   0  -5 0.14647 0.45550   6
   2   0   5 2.43753 0.84306   6
   3   0   5 1.52358 0.64702   4
   3   0   5 0.40828 1.05974   6
  -3   0  -5 3.50372 0.80275   2
  -3   0  -5 1.32458 0.56166   6
   4   0   5 0.08869 0.84109   4
  -4   0  -5 1.09254 0.57022   4
  -4   0  -5 0.78395 0.93437   2
   4   0   5 1.11440 1.38288   6
  -4   0  -5 0.82546 0.70885   6
  -5   0  -5 1.97490 1.26524   2
   5   0   5 0.60654 1.59032   6
   5   0   5 0.32278 1.15280   4
   5   0   5 1.31315 0.83141   2
  -5   0  -5 3.26287 1.08482   6
   6   0   5 1.29761 1.52249   4
  -6   0  -5 0.42542 1.47687   2
   6   0   5 1.80522 1.68877   6
  -6   0  -5 1.07863 1.35542   6
   7   0   5 3.61089 1.72693   6
  -7   0  -5 2.34810 1.75632   2
  -7   0  -5 0.45151 1.70405   6
   7   0   5 -0.8950  1.6176   4
  -8   0  -5 1.20774 1.79292   2
   8   0   5 -2.1704  1.6654   4
  -8   0  -5 0.96225 2.05688   6
   8   0   5 2.40830 1.60194   6
   9   0   5 -0.2506  1.8648   4
  -9   0  -5 5.38590 2.16734   2
   9   0   5 8.92961 2.11645   6
  -9   0  -5 3.63589 2.24523   6
 -10   0  -5 -0.8951  2.0372   6
 -10   0  -5 -2.2815  1.8545   2
  10   0   5 0.18750 1.85704   6
 -11   0  -5 -0.6095  2.0062   6
 -11   0  -5 0.65615 1.98803   2
  11   0   5 0.13055 1.88914   6
  12   0   5 -0.1695  1.9443   6
 -12   0  -5 4.17436 2.30350   2
 -12   0  -5 1.89784 1.99496   6
  13   0   5 5.55773 2.33731   6
 -13   0  -5 -0.0509  1.9447   6
  13  -1  -5 55.8110  5.2201   6
  13   1  -5 40.7208  4.3363   2
  13   1  -5 46.1884  4.9410   6
  12  -1  -5 6.87310 2.80357   6
  12   1  -5 5.53073 2.20086   2
  12   1  -5 6.66015 2.41969   6
  11  -1  -5 246.956  17.000   6
  11  -1  -5 212.256  15.448   2
  11  -1  -5 236.510  19.291   3
  11   1  -5 213.086  15.329   2
  11   1  -5 246.425  16.804   6
  10  -1  -5 1307.95   83.95   2
  10  -1  -5 1334.08  105.40   3
  10  -1  -5 1456.18   91.12   6
  10   1  -5 1216.85   83.73   2
  10   1  -5 1402.97   90.91   6
  -9  -1   5 2.89390 1.82351   4
   9  -1  -5 4.91771 2.36521   6
   9  -1  -5 2.55864 2.17521   2
   9  -1  -5 4.02425 2.38846   3
   9   1  -5 4.11014 2.16600   6
   9   1  -5 3.84263 2.06544   2
   8  -1  -5 1.45632 1.84152   2
  -8  -1   5 1.20275 1.74544   4
   8  -1  -5 -0.3666  1.8827   6
   8  -1  -5 0.39570 2.04916   3
   8   1  -5 4.25765 1.66504   3
   8   1  -5 2.01776 1.86718   6
  -8   1   5 1.21294 1.86062   4
   8   1  -5 1.56625 1.80934   2
   7  -1  -5 193.162  15.124   6
  -7  -1   5 219.684  14.012   4
   7  -1  -5 201.943  17.440   3
   7  -1  -5 206.390  13.862   2
   7   1  -5 209.471  17.119   3
   7   1  -5 246.047  15.407   6
  -7   1   5 229.089  13.879   4
   7   1  -5 202.861  13.991   2
  -7   1   5 196.740  13.989   2
  -6  -1   5 2319.42  132.24   4
   6  -1  -5 1991.44  143.86   6
   6  -1  -5 2386.81  167.29   3
   6  -1  -5 2126.70  132.69   2
  -6  -1   5 2292.15  168.57   1
   6  -1  -5 2050.42  131.45   5
   6   1  -5 2040.54  132.78   2
  -6   1   5 2038.27  132.03   4
  -6   1   5 1915.05  132.80   2
   6   1  -5 2255.46  144.13   6
   6   1  -5 2177.65  167.01   3
  -5  -1   5 92.7326  7.2453   1
   5  -1  -5 80.4829  5.7335   4
  -5  -1   5 84.1362  5.7374   4
   5  -1  -5 90.3459  5.3884   5
   5  -1  -5 73.4902  6.1740   6
   5  -1  -5 87.1824  5.6566   2
   5   1  -5 80.4945  5.6951   2
  -5   1   5 85.6574  6.0838   6
  -5   1   5 85.7235  5.8461   2
   5   1  -5 77.7388  7.1380   3
   5   1  -5 69.6298  6.4115   6
  -5   1   5 87.6936  5.6213   4
  -4  -1   5 79.8589  4.9122   4
   4  -1  -5 73.6160  4.9301   4
   4  -1  -5 71.6088  5.3528   6
   4  -1  -5 75.8923  4.8595   2
  -4  -1   5 75.4575  5.1869   6
   4  -1  -5 74.9488  4.6740   5
  -4  -1   5 75.1566  6.4026   1
   4   1  -5 62.6174  5.5749   6
  -4   1   5 74.7814  4.8293   4
  -4   1   5 77.2753  5.0292   2
   4   1  -5 62.6982  6.2213   3
   4   1  -5 70.2337  4.8710   2
  -4   1   5 73.3158  5.2428   6
   3  -1  -5 276.486  18.531   6
   3  -1  -5 282.374  16.830   5
  -3  -1   5 281.688  16.940   4
  -3  -1   5 256.681  21.874   1
   3  -1  -5 269.948  16.987   4
  -3  -1   5 284.304  18.372   6
   3  -1  -5 264.024  17.032   2
   3   1  -5 255.549  16.739   5
  -3   1   5 237.303  17.055   2
  -3   1   5 270.706  18.446   6
   3   1  -5 301.977  17.030   2
  -3   1   5 290.096  16.960   4
   2  -1  -5 3272.98  191.98   2
   2  -1  -5 3607.10  208.10   6
   2  -1  -5 2809.75  190.38   5
  -2  -1   5 3130.59  191.05   4
   2  -1  -5 2966.86  190.74   4
  -2  -1   5 3133.40  207.71   6
  -2  -1   5 3009.74  243.98   1
  -2  -1   5 3165.21  190.75   4
   2   1  -5 2677.63  207.68   6
   2   1  -5 2986.88  191.91   2
  -2   1   5 3092.60  191.03   4
  -2   1   5 3171.86  191.76   2
  -2   1   5 3396.51  207.91   6
  -1  -1   5 203.317  15.428   1
  -1  -1   5 181.991  11.627   4
   1  -1  -5 186.791  11.675   4
   1  -1  -5 203.106  12.735   6
  -1  -1   5 180.761  11.604   4
   1  -1  -5 185.366  11.723   2
   1   1  -5 198.182  11.663   2
  -1   1   5 181.438  12.679   6
  -1   1   5 175.276  11.657   4
   1   1  -5 186.126  12.674   6
   0  -1   5 299.890  20.027   4
   0  -1  -5 312.859  21.883   6
   0  -1   5 323.047  20.027   4
   0  -1  -5 342.055  20.093   4
   0  -1  -5 336.855  20.194   2
   0   1  -5 355.928  20.143   2
   0   1   5 311.161  20.086   4
   0   1   5 320.919  21.872   6
   1  -1   5 300.685  19.090   4
   1  -1   5 322.123  19.099   4
  -1  -1  -5 294.863  19.232   2
  -1  -1  -5 285.818  19.113   4
  -1  -1  -5 314.183  20.835   6
   1  -1   5 324.087  19.071   4
  -1   1  -5 308.440  19.195   2
   1   1   5 311.385  19.138   4
   1   1   5 291.837  20.826   6
  -1   1  -5 338.127  20.766   6
  -2  -1  -5 2974.14  185.98   6
   2  -1   5 3013.16  170.65   4
  -2  -1  -5 3037.99  171.48   2
   2  -1   5 2445.93  170.59   4
  -2  -1  -5 3000.96  170.70   4
   2   1   5 3060.08  171.49   2
   2   1   5 2467.30  185.74   6
   2   1   5 2639.70  170.60   4
  -2   1  -5 2717.85  185.85   6
  -2   1  -5 2446.11  171.45   2
  -3  -1  -5 58.7934  3.9084   4
   3  -1   5 60.0432  4.1419   4
  -3  -1  -5 59.8127  4.0447   2
   3  -1   5 52.0736  4.5540   6
  -3  -1  -5 56.4688  4.2679   6
   3   1   5 62.1247  3.9434   2
   3   1   5 56.0026  4.3611   6
  -3   1  -5 64.1344  4.2689   6
  -3   1  -5 56.7707  4.1697   2
   3   1   5 62.5677  4.0072   4
   3   1   5 61.7783  3.9890   4
  -4  -1  -5 85.9413  5.9807   4
  -4  -1  -5 91.6441  6.1763   2
   4  -1   5 91.7684  6.8896   6
   4  -1   5 82.3193  8.2612   3
  -4  -1  -5 92.5128  6.5956   6
   4  -1   5 94.7626  6.4129   4
  -4   1  -5 98.5445  6.6276   6
  -4   1  -5 77.4146  6.3223   2
   4   1   5 100.086   6.162   4
   4   1   5 88.3223  6.7767   6
   4   1   5 103.308   6.070   2
   4   1   5 101.446   6.152   4
   5  -1   5 171.032  14.176   3
  -5  -1  -5 158.510  10.846   2
  -5  -1  -5 167.650  10.594   4
   5  -1   5 190.657  11.861   6
  -5  -1  -5 185.921  11.658   6
   5  -1   5 156.928  10.997   4
  -5   1  -5 180.359  11.753   6
   5   1   5 166.909  10.666   2
   5   1   5 144.827  11.783   6
   5   1   5 160.262  10.752   4
  -5   1  -5 137.112  10.912   2
   6  -1   5 1578.16   91.77   4
   6  -1   5 1697.43  116.38   3
  -6  -1  -5 1457.50   92.08   2
   6  -1   5 1636.31   99.66   6
  -6  -1  -5 1420.97   99.60   6
   6   1   5 1424.44   91.58   4
   6   1   5 1390.58   99.76   6
  -6   1  -5 1456.53   99.73   6
   6   1   5 1288.09   91.81   2
  -6   1  -5 1479.38   92.10   2
  -7  -1  -5 20.9381  3.0135   6
   7  -1   5 26.6707  2.8246   6
   7  -1   5 21.0643  3.5854   3
   7  -1   5 22.4095  2.8499   4
  -7  -1  -5 22.2904  2.9240   2
  -7   1  -5 25.2565  2.8592   2
  -7   1  -5 27.9665  3.3875   6
   7   1   5 19.6814  2.7938   4
   7   1   5 20.7228  3.0684   6
   8  -1   5 19.0505  2.5977   4
  -8  -1  -5 22.7376  3.0321   2
   8  -1   5 13.6080  2.3555   6
  -8  -1  -5 12.5848  2.8369   6
   8   1   5 12.1325  2.5548   4
  -8   1  -5 20.8585  2.7173   2
   8   1   5 15.2270  2.6462   6
  -8   1  -5 11.1603  2.6918   6
   9  -1   5 82.0264  5.8905   4
  -9  -1  -5 81.3708  6.1651   2
  -9  -1  -5 58.8132  6.4467   6
   9  -1   5 79.3969  6.0850   6
  -9   1  -5 72.7702  6.3974   6
   9   1   5 64.6462  6.0699   6
  -9   1  -5 77.9131  5.8138   2
 -10  -1  -5 562.418  42.895   6
 -10  -1  -5 655.918  39.721   2
  10  -1   5 700.142  39.442   4
  10  -1   5 668.428  42.679   6
  10   1   5 562.002  42.615   6
 -10   1  -5 638.010  39.510   2
 -10   1  -5 586.849  42.730   6
 -11  -1  -5 68.0139  5.5342   2
 -11  -1  -5 59.5278  5.7120   6
  11  -1   5 65.4741  5.6024   6
  11   1   5 58.4179  5.4897   6
 -11   1  -5 60.5282  5.5967   6
 -11   1  -5 68.7653  5.3350   2
 -12  -1  -5 72.9418  6.4326   6
 -12   1  -5 68.4799  6.1827   6
 -12   1  -5 82.6088  6.1181   2
  12   1   5 69.6747  6.2597   6
 -13  -1  -5 32.8463  4.1028   6
 -13   1  -5 40.3210  4.1542   2
 -13   1  -5 35.2584  3.9632   6
  13   1   5 35.4805  4.0758   6
  13  -2  -5 94.4458  7.8527   6
  13   2  -5 93.0669  7.5879   6
  13   2  -5 79.4138  6.8567   2
  12  -2  -5 5.26421 2.87620   6
  12  -2  -5 0.62415 2.85815   3
  12   2  -5 3.76072 2.16558   2
  12   2  -5 3.66727 2.27185   6
  11  -2  -5 298.616  25.870   3
  11  -2  -5 347.149  22.832   6
  11   2  -5 324.482  22.277   6
  11   2  -5 293.421  20.449   2
 -10  -2   5 112.526   8.078   4
  10  -2  -5 105.686  10.554   3
  10  -2  -5 115.863   9.365   6
  10   2  -5 113.286   8.191   2
  10   2  -5 117.191   8.881   6
   9  -2  -5 325.824  24.464   6
   9  -2  -5 311.567  28.169   3
  -9  -2   5 367.710  22.145   4
   9  -2  -5 300.285  22.444   2
   9   2  -5 407.147  24.352   6
   9   2  -5 356.774  22.372   2
  -8  -2   5 97.6770  6.6820   4
   8  -2  -5 94.4032  6.8302   2
   8  -2  -5 79.5582  7.3603   6
   8  -2  -5 89.4773  8.5383   3
  -8   2   5 76.9962  6.7675   2
   8   2  -5 105.071   7.467   6
   8   2  -5 90.3270  6.8224   2
   7  -2  -5 69.1923  5.6448   2
  -7  -2   5 79.8642  5.8946   4
   7  -2  -5 82.4890  7.3757   3
   7  -2  -5 72.5052  6.3073   6
  -7   2   5 84.3971  5.9333   2
  -7   2   5 79.8831  5.7352   4
   7   2  -5 73.4300  5.9635   2
   7   2  -5 83.6264  6.5082   6
   6  -2  -5 92.0116  6.5230   2
   6  -2  -5 94.9465  7.2005   6
   6  -2  -5 99.6047  6.6117   4
  -6  -2   5 91.1409  6.7976   4
   6  -2  -5 100.711   6.263   5
  -6  -2   5 96.0026  8.4351   1
  -6   2   5 92.6130  6.6368   2
  -6   2   5 96.3098  6.5186   4
   6   2  -5 84.1228  6.7515   2
   6   2  -5 117.451   7.620   6
  -6   2   5 88.1898  7.0385   6
   5  -2  -5 584.082  35.335   4
  -5  -2   5 572.218  45.226   1
   5  -2  -5 545.003  35.422   2
   5  -2  -5 611.002  35.054   5
   5  -2  -5 519.158  38.451   6
  -5  -2   5 555.461  35.473   4
   5   2  -5 644.154  38.905   6
  -5   2   5 591.220  35.296   4
  -5   2   5 593.062  38.420   6
   5   2  -5 507.448  35.548   2
  -5   2   5 531.638  35.485   2
  -4  -2   5 112.967  10.379   1
   4  -2  -5 125.490   7.800   5
  -4  -2   5 113.981   8.006   4
  -4  -2   5 137.809   8.480   6
   4  -2  -5 117.854   7.942   2
   4  -2  -5 127.611   7.958   4
   4  -2  -5 121.084   8.700   6
   4   2  -5 118.163   8.019   2
  -4   2   5 128.517   8.006   2
   4   2  -5 122.031   9.077   6
  -4   2   5 122.456   8.612   6
  -4   2   5 130.799   7.920   4
   3  -2  -5 9.93317 1.22887   6
   3  -2  -5 10.9173  1.0260   5
  -3  -2   5 10.9510  1.5815   4
  -3  -2   5 12.6961  1.1119   4
   3  -2  -5 9.61602 1.08412   2
  -3  -2   5 11.3212  0.9190   6
   3  -2  -5 10.9472  1.1147   4
  -3  -2   5 13.2542  2.0836   1
   3   2  -5 8.43220 1.03330   2
  -3   2   5 12.0369  1.0991   4
  -3   2   5 11.4815  1.1121   2
  -3   2   5 10.3853  1.1877   6
   3   2  -5 10.0470  1.8088   6
   2  -2  -5 107.594   7.273   4
  -2  -2   5 115.240   9.782   1
   2  -2  -5 127.174   7.285   5
  -2  -2   5 103.429   7.398   4
   2  -2  -5 124.983   7.326   2
  -2  -2   5 118.464   7.207   4
   2  -2  -5 121.117   7.959   6
  -2   2   5 114.622   7.274   4
   2   2  -5 117.805   7.233   2
  -2   2   5 98.2514  7.2940   2
  -2   2   5 118.027   7.928   6
  -1  -2   5 244.874  16.543   4
   1  -2  -5 281.426  16.621   5
   1  -2  -5 281.293  16.696   2
   1  -2  -5 292.993  18.122   6
  -1  -2   5 260.211  16.491   4
  -1  -2   5 231.964  16.795   5
  -1  -2   5 280.092  21.737   1
   1   2  -5 278.410  16.570   2
  -1   2   5 257.059  18.062   6
  -1   2   5 251.808  16.597   4
  -1   2   5 287.239  16.705   2
   0  -2   5 9.91553 1.96632   1
   0  -2  -5 4.35634 0.60336   4
   0  -2   5 4.80007 0.45390   4
   0  -2  -5 5.80810 0.72760   6
   0  -2  -5 5.69756 0.66939   2
   0  -2   5 6.07349 0.47009   4
   0  -2   5 1.94676 1.57484   5
   0   2   5 5.61177 0.64401   4
   0   2   5 5.19083 0.64813   2
   0   2   5 6.35820 0.72043   6
   0   2  -5 5.36809 0.47296   2
   0   2   5 4.56019 0.63004   2
  -1  -2  -5 224.063  13.143   2
  -1  -2  -5 193.015  13.041   4
   1  -2   5 220.365  17.332   1
   1  -2   5 186.955  12.984   4
   1  -2   5 222.319  12.933   4
  -1  -2  -5 213.546  14.219   6
   1   2   5 199.445  13.048   4
   1   2   5 213.970  14.217   6
   1   2   5 218.777  13.116   2
  -2  -2  -5 221.393  13.551   2
   2  -2   5 226.126  13.378   4
   2  -2   5 181.090  14.152   5
   2  -2   5 220.771  17.925   1
  -2  -2  -5 219.818  14.665   6
  -2   2  -5 220.971  14.541   6
   2   2   5 210.753  14.655   6
   2   2   5 221.668  13.522   2
   2   2   5 211.242  13.463   4
   3  -2   5 21.6478  3.1625   1
   3  -2   5 14.5077  1.9113   4
  -3  -2  -5 22.3041  1.6463   2
  -3  -2  -5 18.7278  1.5274   4
   3  -2   5 17.5986  1.4792   4
   3  -2   5 21.9802  2.8084   5
   3  -2   5 21.0466  3.0871   3
  -3  -2  -5 17.1458  1.6663   6
  -3   2  -5 20.2909  1.6749   6
   3   2   5 20.8483  1.5821   2
  -3   2  -5 15.4981  1.9514   2
   3   2   5 19.7504  1.6062   4
   3   2   5 21.8333  1.7709   6
   4  -2   5 7.16365 2.32398   3
   4  -2   5 8.18858 1.99725   5
  -4  -2  -5 5.39877 1.00056   2
   4  -2   5 4.62706 1.40212   4
  -4  -2  -5 5.63213 0.92461   4
   4  -2   5 3.44317 2.08412   1
   4  -2   5 5.22586 0.88652   4
  -4  -2  -5 5.86752 1.03786   6
   4  -2   5 6.23829 1.03048   6
  -4   2  -5 5.64681 1.44956   2
   4   2   5 5.46860 1.07684   6
   4   2   5 5.63668 0.96870   2
  -4   2  -5 8.61081 1.26222   6
  -5  -2  -5 768.122  53.821   6
  -5  -2  -5 772.007  49.394   4
   5  -2   5 858.774  49.761   4
   5  -2   5 848.621  63.244   3
  -5  -2  -5 748.811  49.732   2
   5  -2   5 918.197  50.036   5
  -5   2  -5 884.654  49.974   2
   5   2   5 748.861  49.661   2
  -5   2  -5 794.352  54.033   6
   5   2   5 796.186  49.481   4
   5   2   5 764.717  49.480   4
   5   2   5 708.324  53.871   6
   6  -2   5 337.700  19.081   4
  -6  -2  -5 302.180  20.536   6
  -6  -2  -5 281.006  19.005   2
  -6   2  -5 312.660  19.049   2
   6   2   5 289.975  18.863   4
  -6   2  -5 268.168  20.690   6
   6   2   5 299.718  20.650   6
   6   2   5 286.171  18.899   2
   6   2   5 291.279  18.878   4
  -7  -2  -5 17.4012  2.6292   2
   7  -2   5 22.6350  2.6431   4
   7  -2   5 19.5984  2.5509   6
   7  -2   5 18.7728  3.3997   3
  -7  -2  -5 20.5684  2.8068   6
   7   2   5 19.4048  2.5771   4
   7   2   5 19.4985  2.5599   2
   7   2   5 15.1674  2.7610   6
  -7   2  -5 19.6511  3.0820   6
   7   2   5 17.7812  2.5567   4
  -7   2  -5 19.5777  2.4263   2
   8  -2   5 32.5004  4.4047   3
  -8  -2  -5 26.7529  3.6693   2
   8  -2   5 31.4585  3.4631   6
   8  -2   5 34.5190  3.2599   4
  -8  -2  -5 31.4664  3.9288   6
  -8   2  -5 30.4766  3.7675   6
  -8   2  -5 33.4071  3.3092   2
   8   2   5 31.9396  4.0190   6
   9  -2   5 837.218  55.095   6
  -9  -2  -5 784.403  51.246   2
   9  -2   5 853.915  64.371   3
   9  -2   5 817.254  50.731   4
  -9   2  -5 781.429  55.199   6
  -9   2  -5 872.594  50.966   2
   9   2   5 733.520  55.291   6
  10  -2   5 252.904  15.849   4
 -10  -2  -5 207.695  17.352   6
 -10  -2  -5 273.349  16.430   2
  10  -2   5 244.210  20.123   3
 -10   2  -5 236.034  15.808   2
  10   2   5 232.146  17.229   6
 -10   2  -5 236.941  17.141   6
  11  -2   5 102.414   7.273   4
 -11  -2  -5 85.6012  7.9340   6
  11   2   5 96.2756  7.8482   6
 -11   2  -5 101.269   7.235   2
 -11   2  -5 98.5639  7.8160   6
 -12  -2  -5 166.423  13.012   6
  12   2   5 171.258  13.029   6
 -12   2  -5 185.489  12.096   2
 -12   2  -5 181.508  13.003   6
 -13  -2  -5 249.917  17.590   6
 -13   2  -5 269.464  16.367   2
 -13   2  -5 223.491  17.436   6
  13   2   5 235.800  17.520   6
  13  -3  -5 194.205  14.686   6
  13   3  -5 183.256  13.001   2
  13   3  -5 178.012  14.162   6
 -13   3   5 217.057  14.799   6
  12  -3  -5 298.850  21.609   6
 -12   3   5 319.688  21.659   6
  12   3  -5 282.734  19.339   2
  12   3  -5 287.308  21.002   6
 -11  -3   5 3.72791 2.13670   4
  11  -3  -5 8.13450 3.20004   6
  11  -3  -5 3.22989 3.05099   3
  11   3  -5 8.09881 2.24102   2
  11   3  -5 2.88738 2.12382   6
  10  -3  -5 776.408  70.275   3
  10  -3  -5 860.082  60.779   6
 -10  -3   5 936.120  55.324   4
  10   3  -5 920.075  55.635   2
  10   3  -5 935.591  60.307   6
   9  -3  -5 323.064  23.869   6
   9  -3  -5 321.845  27.495   3
  -9  -3   5 352.019  21.444   4
   9   3  -5 328.134  21.622   2
  -9   3   5 312.128  21.912   2
   9   3  -5 367.342  23.544   6
   8  -3  -5 849.243  55.322   2
  -8  -3   5 833.530  54.847   4
   8  -3  -5 822.090  69.634   3
   8  -3  -5 874.465  60.067   6
   8   3  -5 868.829  55.269   2
   8   3  -5 988.840  59.986   6
  -8   3   5 940.604  55.437   2
   7  -3  -5 32.8064  3.5766   6
  -7  -3   5 40.9779  4.5140   1
  -7  -3   5 34.7538  3.1939   4
   7  -3  -5 33.2301  3.2370   2
   7  -3  -5 32.7483  2.8624   5
  -7   3   5 30.8312  3.5575   6
  -7   3   5 35.0487  3.3807   2
   7   3  -5 38.9714  3.7261   6
   7   3  -5 35.6955  3.4524   2
   6  -3  -5 313.113  20.003   5
   6  -3  -5 334.382  20.390   2
   6  -3  -5 328.007  22.126   6
  -6  -3   5 327.452  26.178   1
  -6  -3   5 325.804  20.480   4
   6  -3  -5 312.126  20.242   4
   6   3  -5 289.561  20.599   2
  -6   3   5 296.111  22.004   6
   6   3  -5 368.285  22.475   6
  -6   3   5 315.670  20.361   2
  -5  -3   5 209.687  17.561   1
  -5  -3   5 230.487  14.436   6
   5  -3  -5 194.181  13.403   4
  -5  -3   5 198.376  13.736   4
   5  -3  -5 229.771  13.326   5
   5  -3  -5 222.542  13.538   2
   5  -3  -5 195.323  14.619   6
  -5   3   5 213.167  13.456   4
  -5   3   5 186.783  13.471   2
  -5   3   5 207.842  14.626   6
   5   3  -5 252.026  15.240   6
   5   3  -5 205.849  13.837   2
   4  -3  -5 980.202  66.786   2
   4  -3  -5 1129.98   66.28   5
   4  -3  -5 1102.65   72.42   6
   4  -3  -5 1053.22   66.49   4
  -4  -3   5 1026.75   85.31   1
  -4  -3   5 1044.04   66.72   4
  -4   3   5 1127.12   66.49   4
   4   3  -5 961.166  66.937   2
   4   3  -5 1208.58   72.90   6
  -4   3   5 1106.78   72.40   6
  -4   3   5 1132.61   66.82   2
   3  -3  -5 7.14327 0.93002   5
  -3  -3   5 11.2204  1.8670   4
  -3  -3   5 8.65752 1.94803   1
   3  -3  -5 6.51915 0.99718   6
   3  -3  -5 7.95593 0.92599   4
  -3  -3   5 7.49065 1.08732   5
  -3  -3   5 5.74719 1.09046   4
   3  -3  -5 7.25987 0.93744   2
  -3   3   5 6.33682 0.88872   4
  -3   3   5 6.60781 0.93187   2
   3   3  -5 11.9277  1.8746   6
  -3   3   5 7.92730 1.02850   6
   3   3  -5 7.70957 1.03596   2
   2  -3  -5 29.6565  2.1387   2
   2  -3  -5 35.9387  2.3891   6
  -2  -3   5 26.9883  3.4585   1
  -2  -3   5 29.4530  2.8453   5
  -2  -3   5 22.3185  2.5457   4
   2  -3  -5 29.0746  2.1184   4
  -2  -3   5 28.9454  2.0629   4
   2  -3  -5 30.1308  2.1527   5
  -2   3   5 30.3104  2.3133   6
  -2   3   5 27.2419  2.1024   4
  -2   3   5 29.5211  2.1384   2
   2   3  -5 30.1727  2.0244   2
   2   3  -5 32.7280  2.5885   6
   1  -3  -5 12.2627  1.2724   5
  -1  -3   5 18.4383  2.6727   1
  -1  -3   5 10.2718  1.2565   4
   1  -3  -5 14.7347  1.2383   2
   1  -3  -5 13.6308  1.1472   4
  -1  -3   5 13.7387  0.9473   4
  -1  -3   5 12.4096  2.2798   5
   1  -3  -5 17.1395  1.3221   6
  -1   3   5 11.7942  1.1428   4
   1   3  -5 14.0730  0.9222   2
  -1   3   5 14.1680  1.1995   2
  -1   3   5 12.2053  1.2406   6
   0  -3  -5 610.680  35.329   2
   0  -3  -5 595.460  38.284   6
   0  -3   5 507.869  45.526   1
   0  -3  -5 606.694  35.177   5
   0  -3  -5 561.494  35.133   4
   0   3   5 564.042  35.321   2
   0   3   5 575.383  38.259   6
   0   3   5 533.671  35.137   4
   1  -3   5 532.236  36.184   4
   1  -3   5 516.046  36.897   5
   1  -3   5 578.643  47.091   1
  -1  -3  -5 622.037  36.340   5
   1  -3   5 636.653  36.105   4
  -1  -3  -5 548.279  36.266   4
  -1  -3  -5 561.609  39.504   6
  -1  -3  -5 608.678  36.452   2
   1   3   5 614.903  36.287   4
   1   3   5 638.814  36.463   2
   1   3   5 597.438  39.506   6
  -1   3  -5 586.073  36.264   2
  -2  -3  -5 70.9124  4.4319   2
   2  -3   5 53.8553  4.5611   4
   2  -3   5 64.5304  6.4534   3
   2  -3   5 58.2618  5.4236   5
  -2  -3  -5 72.5317  4.3978   4
   2  -3   5 55.5101  4.2537   4
  -2  -3  -5 70.2315  4.8110   6
   2  -3   5 75.3513  6.7932   1
   2   3   5 68.7989  4.7780   6
   2   3   5 72.3351  4.4052   4
  -2   3  -5 68.4857  4.4808   2
   2   3   5 72.9951  4.4316   2
   3  -3   5 16.8148  3.1962   1
   3  -3   5 15.2616  3.0271   3
  -3  -3  -5 13.1535  1.3123   4
   3  -3   5 11.6240  1.4061   4
   3  -3   5 13.9063  2.6018   5
  -3  -3  -5 14.1740  1.3789   2
   3  -3   5 12.4901  1.8385   4
  -3  -3  -5 13.8292  1.4805   6
  -3   3  -5 11.9401  1.7745   2
   3   3   5 14.1310  1.5058   6
   3   3   5 17.0534  1.3702   4
  -3   3  -5 14.2084  1.5655   6
   3   3   5 13.9775  1.4208   2
  -4  -3  -5 129.014   8.288   2
  -4  -3  -5 131.622   8.244   4
   4  -3   5 139.193  11.370   3
  -4  -3  -5 117.767   8.966   6
   4  -3   5 123.480   8.548   4
   4  -3   5 129.286   9.086   5
  -4   3  -5 128.583   9.237   6
  -4   3  -5 125.294   8.619   2
   4   3   5 125.889   8.970   6
   4   3   5 133.804   8.292   2
   4   3   5 124.785   8.234   4
   5  -3   5 1371.73   86.10   5
   5  -3   5 1367.21  109.03   3
  -5  -3  -5 1405.24   86.10   2
  -5  -3  -5 1387.75   85.64   4
  -5  -3  -5 1356.73   93.27   6
   5  -3   5 1537.16   85.93   4
   5   3   5 1359.86   86.08   2
  -5   3  -5 1535.83   86.37   2
  -5   3  -5 1380.68   93.61   6
   5   3   5 1320.96   93.25   6
   5   3   5 1264.67   85.62   4
  -6  -3  -5 159.076  11.338   6
   6  -3   5 173.305  10.564   4
  -6  -3  -5 143.097  10.281   4
  -6  -3  -5 149.697  10.404   2
   6  -3   5 182.661  13.855   3
   6  -3   5 161.133  10.889   5
   6   3   5 153.240  10.336   4
   6   3   5 146.150  10.403   2
  -6   3  -5 164.897  11.687   6
   6   3   5 148.336  11.291   6
  -6   3  -5 164.229  10.580   2
  -7  -3  -5 0.83193 1.69812   6
   7  -3   5 4.54009 1.61778   4
   7  -3   5 2.97813 1.95117   5
  -7  -3  -5 5.04900 1.73131   2
   7  -3   5 4.84325 2.53898   3
  -7   3  -5 2.95815 1.95400   6
  -7   3  -5 2.99160 1.54812   2
   7   3   5 3.01411 1.77587   6
   7   3   5 0.41398 1.49994   2
  -8  -3  -5 25.8601  3.3324   2
   8  -3   5 26.5115  4.1072   3
   8  -3   5 26.6975  2.8594   4
  -8  -3  -5 22.6454  3.5878   6
   8   3   5 21.4481  3.3031   2
   8   3   5 25.2271  3.5201   6
  -8   3  -5 27.6985  3.3113   6
  -8   3  -5 28.7204  2.8708   2
  -9  -3  -5 697.555  54.588   6
   9  -3   5 825.373  63.369   3
  -9  -3  -5 779.258  50.513   2
   9  -3   5 805.203  49.862   4
  -9   3  -5 870.202  54.382   6
  -9   3  -5 866.863  50.119   2
   9   3   5 739.469  54.599   6
  10  -3   5 711.870  45.700   4
 -10  -3  -5 706.507  50.164   6
  10  -3   5 773.446  58.122   3
 -10   3  -5 712.029  45.877   2
  10   3   5 697.678  50.078   6
 -10   3  -5 776.994  49.797   6
  11  -3   5 15.7545  3.5715   3
 -11  -3  -5 17.0699  3.2002   6
  11  -3   5 17.0108  2.8326   4
 -11   3  -5 19.4518  2.9375   6
 -11   3  -5 15.0112  2.6780   2
  11   3   5 15.1574  3.2294   6
 -12  -3  -5 5.78701 2.35800   6
  12   3   5 3.45186 2.54733   6
 -12   3  -5 2.24893 2.05163   6
 -12   3  -5 6.25568 2.27245   2
 -13  -3  -5 93.5673  8.3488   6
  13   3   5 108.607   8.593   6
 -13   3  -5 101.928   8.394   6
 -13   3  -5 117.411   7.975   2
  13   4  -5 210.068  16.572   6
 -13   4   5 254.813  17.343   6
  13   4  -5 228.532  15.378   2
  12  -4  -5 6.88860 3.73182   3
  12  -4  -5 10.0357  3.2094   6
  12   4  -5 8.34955 2.40949   2
  12   4  -5 4.73470 2.41415   6
 -12   4   5 7.76337 3.23004   6
 -11  -4   5 137.868   8.951   4
  11  -4  -5 107.906  11.759   3
  11  -4  -5 118.516  10.215   6
  11   4  -5 121.535   9.789   6
  11   4  -5 133.389   9.027   2
 -11   4   5 137.764  10.575   6
  10  -4  -5 71.8090  7.2337   6
 -10  -4   5 90.8218  6.3194   4
  10  -4  -5 81.0072  8.7625   3
  10   4  -5 87.1222  6.3918   2
 -10   4   5 79.4029  6.9090   2
 -10   4   5 73.9923  7.3838   6
  10   4  -5 93.6092  7.1023   6
  -9  -4   5 93.3577  6.2664   4
   9  -4  -5 76.9368  8.1663   3
   9  -4  -5 74.7904  6.9309   6
   9   4  -5 87.7544  6.2660   2
  -9   4   5 72.3375  7.0119   6
   9   4  -5 87.3607  6.8943   6
  -9   4   5 76.4071  6.6241   2
  -8  -4   5 13.0505  2.1881   4
   8  -4  -5 11.4672  2.5090   6
   8  -4  -5 18.6550  3.4066   3
   8   4  -5 15.6789  2.7954   6
  -8   4   5 13.4777  2.3698   2
  -8   4   5 8.09393 2.34397   6
   8   4  -5 18.8333  2.5265   2
   7  -4  -5 582.859  36.971   5
   7  -4  -5 585.333  40.536   6
  -7  -4   5 627.920  37.324   4
  -7  -4   5 604.817  48.153   1
   7   4  -5 652.659  37.640   2
  -7   4   5 519.970  37.374   2
  -7   4   5 539.973  40.536   6
   7   4  -5 660.385  40.891   6
  -6  -4   5 227.313  14.203   4
   6  -4  -5 211.781  13.863   5
  -6  -4   5 219.067  18.506   1
   6  -4  -5 219.080  14.134   2
   6  -4  -5 219.505  13.981   4
   6  -4  -5 228.379  15.279   6
  -6   4   5 220.101  14.087   2
  -6   4   5 193.431  15.207   6
   6   4  -5 236.321  15.749   6
   6   4  -5 216.490  14.379   2
   5  -4  -5 7.56127 1.35781   6
  -5  -4   5 7.63170 2.49925   1
  -5  -4   5 8.98600 1.76858   4
   5  -4  -5 9.07852 1.25752   4
   5  -4  -5 10.0816  1.2840   5
   5  -4  -5 9.61821 1.39154   2
  -5   4   5 8.34696 1.28793   2
   5   4  -5 10.6427  2.2619   6
   5   4  -5 8.88640 1.95287   2
  -5   4   5 8.12200 1.37923   6
   4  -4  -5 177.379  11.085   4
   4  -4  -5 180.774  11.058   5
  -4  -4   5 189.083  11.456   4
  -4  -4   5 170.883  14.883   1
   4  -4  -5 182.658  11.176   2
   4  -4  -5 178.444  12.094   6
  -4   4   5 181.485  11.107   4
   4   4  -5 156.767  11.495   2
   4   4  -5 165.555  12.382   6
  -4   4   5 170.595  11.127   2
  -4   4   5 164.479  12.075   6
   3  -4  -5 863.087  52.856   6
   3  -4  -5 817.020  48.442   5
  -3  -4   5 801.392  48.771   4
   3  -4  -5 828.365  48.513   4
   3  -4  -5 782.976  48.760   2
  -3  -4   5 696.329  62.592   1
  -3   4   5 763.614  48.509   4
  -3   4   5 770.281  48.750   2
   3   4  -5 786.585  52.897   6
  -3   4   5 743.693  52.825   6
  -2  -4   5 733.779  58.495   1
   2  -4  -5 783.756  49.256   6
   2  -4  -5 712.817  45.162   5
  -2  -4   5 663.116  45.518   5
   2  -4  -5 778.436  45.474   2
  -2  -4   5 647.715  45.343   4
   2  -4  -5 710.753  45.211   4
  -2   4   5 759.364  45.461   2
  -2   4   5 837.932  45.262   4
   2   4  -5 687.070  45.475   2
  -2   4   5 744.977  49.252   6
   1  -4  -5 10.3582  1.1716   5
   1  -4  -5 5.63989 0.89110   4
   1  -4  -5 7.58868 1.05514   6
  -1  -4   5 11.2162  2.0498   5
   1  -4  -5 8.64149 1.02572   2
  -1  -4   5 8.59167 2.47047   1
  -1  -4   5 6.99038 1.09372   4
  -1  -4   5 9.33548 0.72492   4
  -1   4   5 7.21127 1.02041   6
  -1   4   5 5.78797 0.93808   2
   1   4  -5 9.81445 0.77356   2
  -1   4   5 12.2769  1.0349   4
   1   4  -5 8.57221 0.68236   2
  -1   4   5 7.71540 0.98576   2
   0  -4  -5 354.033  21.813   4
   0  -4  -5 362.982  23.783   6
   0  -4   5 337.861  28.809   1
   0  -4  -5 365.093  21.940   2
   0  -4  -5 366.764  21.918   5
   0  -4   5 309.640  22.369   5
   0   4   5 358.582  21.942   2
   0   4   5 351.417  23.753   6
   0   4   5 350.410  21.832   4
  -1  -4  -5 375.043  22.880   5
  -1  -4  -5 373.074  24.831   6
   1  -4   5 355.773  22.572   4
   1  -4   5 354.504  30.108   1
  -1  -4  -5 377.825  22.797   4
   1  -4   5 355.201  23.438   5
  -1  -4  -5 359.403  22.894   2
   1  -4   5 378.663  29.292   3
   1   4   5 363.506  22.887   2
   1   4   5 371.765  22.786   4
   1   4   5 371.265  24.814   6
  -2  -4  -5 1383.07   81.63   5
   2  -4   5 1375.30   81.81   4
   2  -4   5 1265.10   81.52   4
   2  -4   5 1265.46   82.14   5
  -2  -4  -5 1380.81   82.03   2
  -2  -4  -5 1402.27   81.65   4
   2  -4   5 1188.47  105.19   1
   2  -4   5 1311.66  103.89   3
  -2  -4  -5 1399.61   88.92   6
  -2   4  -5 1282.40   81.88   2
   2   4   5 1255.41   82.04   2
   2   4   5 1331.90   81.63   4
   2   4   5 1401.08   88.90   6
  -3  -4  -5 197.891  13.712   6
  -3  -4  -5 207.965  12.781   5
  -3  -4  -5 174.829  12.532   4
   3  -4   5 220.078  17.299   1
   3  -4   5 179.658  12.613   4
   3  -4   5 207.627  13.473   5
  -3  -4  -5 198.592  12.625   2
   3  -4   5 169.533  16.559   3
  -3   4  -5 193.514  12.616   2
   3   4   5 221.230  12.674   2
   3   4   5 208.519  12.575   4
  -3   4  -5 203.450  14.031   6
   3   4   5 216.166  13.705   6
  -4  -4  -5 183.983  12.411   6
   4  -4   5 184.011  12.270   5
   4  -4   5 157.440  11.544   4
  -4  -4  -5 181.567  11.383   2
   4  -4   5 171.154  15.156   3
  -4  -4  -5 174.839  11.323   4
   4   4   5 197.744  11.453   2
   4   4   5 170.110  11.289   4
   4   4   5 177.094  12.334   6
  -4   4  -5 176.587  11.554   2
  -4   4  -5 185.082  12.848   6
  -5  -4  -5 92.8672  6.4039   2
   5  -4   5 92.4211  6.7338   4
  -5  -4  -5 88.2199  6.3744   4
  -5  -4  -5 96.4230  7.0570   6
   5  -4   5 104.826   9.102   3
   5  -4   5 89.0605  7.2815   5
   5   4   5 100.634   6.963   6
   5   4   5 94.6048  6.4685   2
  -5   4  -5 79.6274  6.6856   2
  -5   4  -5 119.360   7.626   6
   6  -4   5 1056.70   74.24   3
  -6  -4  -5 936.466  58.070   4
   6  -4   5 865.233  58.476   5
   6  -4   5 941.818  58.224   4
  -6  -4  -5 947.144  58.335   2
  -6  -4  -5 972.553  63.344   6
   6   4   5 938.405  58.391   2
   6   4   5 892.912  63.184   6
  -6   4  -5 883.473  58.507   2
   7  -4   5 590.795  36.451   4
   7  -4   5 553.716  46.467   3
  -7  -4  -5 590.427  39.878   6
   7  -4   5 575.951  36.818   5
  -7   4  -5 673.296  39.867   6
  -7   4  -5 555.354  36.633   2
   7   4   5 558.791  36.705   2
   7   4   5 551.406  39.692   6
  -8  -4  -5 49.1568  5.2431   6
   8  -4   5 57.4080  6.2479   3
   8  -4   5 51.6515  4.9370   5
   8  -4   5 57.9355  4.5514   4
  -8   4  -5 53.8663  4.5552   2
   8   4   5 51.1620  4.8532   2
  -8   4  -5 58.4663  4.9948   6
   8   4   5 54.7793  5.1770   6
  -9  -4  -5 109.969  10.585   6
   9  -4   5 145.661   9.427   4
   9  -4   5 141.759  12.261   3
  -9   4  -5 137.850   9.419   2
   9   4   5 130.534  10.635   6
  -9   4  -5 147.804  10.268   6
   9   4   5 130.647   9.914   2
  10  -4   5 332.653  26.307   3
  10  -4   5 332.028  20.542   4
 -10  -4  -5 308.391  22.756   6
  10   4   5 298.684  22.790   6
 -10   4  -5 309.231  20.562   2
 -10   4  -5 325.462  22.356   6
 -11  -4  -5 385.392  27.467   6
  11  -4   5 395.902  25.018   4
  11  -4   5 403.936  31.909   3
 -11   4  -5 400.874  25.099   2
 -11   4  -5 392.407  27.205   6
  11   4   5 361.228  27.555   6
 -12  -4  -5 44.4041  4.8200   6
  12  -4   5 45.9160  5.7130   3
  12  -4   5 46.1034  4.4706   4
  12   4   5 45.0284  5.1244   6
 -12   4  -5 42.6623  4.6204   6
 -12   4  -5 45.2891  4.3325   2
 -13  -4  -5 207.866  16.625   6
 -13   4  -5 247.934  16.801   6
 -13   4  -5 258.832  15.638   2
  13   4   5 213.826  16.809   6
  12  -5  -5 56.2542  7.9313   3
  12  -5  -5 67.2960  6.8937   6
 -12   5   5 86.9544  7.3683   6
  12   5  -5 75.8111  6.4944   6
  12   5  -5 74.5973  5.9489   2
  11  -5  -5 110.194  12.559   3
 -11  -5   5 160.651   9.708   4
  11  -5  -5 116.512  10.791   6
  11   5  -5 146.566  10.614   6
  11   5  -5 148.086   9.701   2
 -11   5   5 130.638  11.101   6
  10  -5  -5 5.99513 3.24455   3
  10  -5  -5 7.13287 2.78829   6
 -10  -5   5 9.29731 2.30782   4
  10   5  -5 8.88447 2.64215   6
  10   5  -5 10.3360  2.3021   2
 -10   5   5 5.87658 2.91197   6
 -10   5   5 9.09616 2.82803   2
   9  -5  -5 168.891  14.618   3
  -9  -5   5 187.203  11.314   4
   9  -5  -5 151.854  12.327   6
  -9   5   5 138.932  12.359   6
   9   5  -5 180.159  12.400   6
  -9   5   5 154.333  11.446   2
   9   5  -5 173.703  11.293   2
  -8  -5   5 53.1378  4.1346   4
   8  -5  -5 43.5835  4.3071   6
  -8   5   5 37.5593  4.2715   6
   8   5  -5 41.3956  3.9555   2
  -8   5   5 44.9307  4.0002   2
   8   5  -5 41.6254  4.5239   6
  -7  -5   5 224.100  14.030   4
   7  -5  -5 216.833  13.769   4
   7  -5  -5 198.283  14.927   6
   7  -5  -5 201.123  13.627   5
  -7  -5   5 201.009  18.528   1
   7   5  -5 242.854  14.140   2
  -7   5   5 215.544  13.877   2
  -7   5   5 199.099  15.011   6
   7   5  -5 213.697  15.420   6
   6  -5  -5 11.4343  1.7410   6
  -6  -5   5 9.32337 2.03030   4
  -6  -5   5 13.2034  3.4163   1
   6  -5  -5 10.4165  1.6103   5
   6  -5  -5 9.97548 1.54972   4
  -6   5   5 14.1807  1.7309   2
   6   5  -5 7.27089 2.38086   6
   6   5  -5 16.8488  2.2682   2
  -6   5   5 9.26692 1.73144   6
   5  -5  -5 343.702  22.133   4
   5  -5  -5 365.340  22.119   5
  -5  -5   5 355.967  22.501   4
  -5  -5   5 367.435  29.336   1
   5  -5  -5 337.815  24.106   6
  -5   5   5 331.297  24.117   6
  -5   5   5 349.244  22.238   2
   5   5  -5 393.381  22.695   2
   5   5  -5 345.935  24.453   6
   4  -5  -5 151.880   9.436   4
   4  -5  -5 166.399   9.569   2
  -4  -5   5 147.598  13.160   1
   4  -5  -5 150.940  10.262   6
  -4  -5   5 119.385   9.666   4
   4  -5  -5 145.818   9.462   5
   4   5  -5 146.187   9.899   2
  -4   5   5 148.395  10.317   6
  -4   5   5 144.400   9.480   2
  -3  -5   5 97.3648  7.0700   5
   3  -5  -5 101.538   6.607   2
  -3  -5   5 85.1544  6.7183   4
   3  -5  -5 108.479   7.137   6
   3  -5  -5 109.980   6.662   5
  -3  -5   5 108.383   9.655   1
   3  -5  -5 100.347   6.560   4
  -3   5   5 105.387   6.605   2
  -3   5   5 106.698   7.177   6
   3   5  -5 82.7757  6.8632   2
  -2  -5   5 119.124   9.087   4
  -2  -5   5 144.347   9.743   5
   2  -5  -5 140.061   9.121   4
  -2  -5   5 144.600   9.017   4
   2  -5  -5 155.989   9.965   6
  -2  -5   5 136.670  12.834   1
   2  -5  -5 144.759   9.229   5
   2  -5  -5 153.061   9.220   2
  -2   5   5 147.308   9.972   6
  -2   5   5 149.733   9.196   2
   1  -5  -5 446.026  30.565   6
   1  -5  -5 440.486  28.127   5
  -1  -5   5 493.702  27.888   4
  -1  -5   5 492.901  27.886   4
   1  -5  -5 477.709  28.072   4
  -1  -5   5 427.681  37.018   1
  -1  -5   5 401.445  27.907   4
   1  -5  -5 468.835  28.217   2
  -1  -5   5 463.011  28.645   5
  -1   5   5 482.914  28.246   2
  -1   5   5 477.122  30.580   6
   1   5  -5 384.422  28.094   2
  -1   5   5 434.502  28.212   2
   0  -5   5 423.612  40.345   1
   0  -5   5 510.466  30.477   4
   0  -5  -5 473.679  30.680   4
   0  -5   5 535.423  30.486   4
   0  -5  -5 498.656  33.455   6
   0  -5   5 529.418  31.363   5
   0  -5  -5 466.565  30.840   2
   0  -5  -5 486.553  30.780   5
   0   5  -5 492.583  30.635   2
   0   5   5 509.813  30.870   2
   0   5   5 521.182  33.434   6
  -1  -5  -5 2.94358 0.83865   6
   1  -5   5 1.41706 2.73139   1
  -1  -5  -5 1.29433 0.64822   4
   1  -5   5 1.26395 1.70020   5
   1  -5   5 1.41718 0.36810   4
  -1  -5  -5 1.47687 0.94279   5
   1  -5   5 1.61261 0.32129   4
  -1  -5  -5 1.61906 0.68733   2
  -1   5  -5 2.88420 0.32862   2
   1   5   5 1.06377 0.65324   2
   1   5   5 0.80894 0.69937   6
   2  -5   5 182.037  13.670   3
  -2  -5  -5 162.786  11.184   6
  -2  -5  -5 161.792  10.255   4
  -2  -5  -5 151.983  10.268   2
  -2  -5  -5 170.746  10.479   5
   2  -5   5 149.688  10.127   4
   2  -5   5 153.478  10.997   5
   2  -5   5 165.695  10.064   4
   2  -5   5 140.040  14.420   1
  -2   5  -5 154.291  10.082   2
   2   5   5 175.615  10.353   2
   2   5   5 170.257  11.175   6
  -3  -5  -5 330.331  20.526   4
  -3  -5  -5 315.747  20.564   2
  -3  -5  -5 328.058  22.393   6
   3  -5   5 288.691  21.139   5
  -3  -5  -5 323.301  20.684   5
   3  -5   5 329.254  20.439   4
   3  -5   5 322.571  26.624   3
   3  -5   5 394.501  27.863   1
   3   5   5 327.167  22.335   6
   3   5   5 331.585  20.635   2
  -3   5  -5 336.866  20.501   2
  -4  -5  -5 577.625  36.815   5
  -4  -5  -5 605.234  36.831   2
  -4  -5  -5 565.400  39.992   6
   4  -5   5 572.489  37.354   5
  -4  -5  -5 584.728  36.669   4
   4  -5   5 583.085  47.148   3
   4  -5   5 591.416  36.743   4
  -4   5  -5 571.097  36.847   2
   4   5   5 646.847  39.963   6
   4   5   5 611.468  36.891   2
  -5  -5  -5 34.3012  2.6490   4
  -5  -5  -5 24.4176  2.7936   5
   5  -5   5 25.8926  4.4261   3
  -5  -5  -5 34.7124  3.0265   6
   5  -5   5 28.6326  3.6731   5
   5  -5   5 27.9262  2.9807   4
  -5   5  -5 30.8587  2.9493   2
   5   5   5 35.0832  2.8088   2
   5   5   5 29.3869  2.8532   6
  -6  -5  -5 4.02686 1.47476   4
  -6  -5  -5 7.85477 1.90234   6
   6  -5   5 6.34234 1.87863   4
  -6  -5  -5 3.59105 1.60671   5
   6  -5   5 5.41227 2.36319   5
   6  -5   5 3.57101 2.66628   3
  -6   5  -5 3.97008 1.86161   2
   6   5   5 7.54565 1.65369   6
   6   5   5 6.45828 1.61681   2
  -6   5  -5 6.36924 2.00933   6
   7  -5   5 169.153  12.340   5
   7  -5   5 176.889  15.410   3
  -7  -5  -5 183.103  13.043   6
   7  -5   5 173.633  11.810   4
   7   5   5 180.898  11.870   2
   7   5   5 178.554  12.765   6
  -7   5  -5 169.697  11.926   2
  -8  -5  -5 367.052  26.494   6
   8  -5   5 375.082  24.484   5
   8  -5   5 376.231  30.808   3
   8  -5   5 350.642  23.930   4
   8   5   5 353.546  24.319   2
  -8   5  -5 416.335  26.316   6
   8   5   5 355.402  26.234   6
  -8   5  -5 413.789  24.263   2
  -9  -5  -5 8.09539 2.84389   6
   9  -5   5 7.93050 2.56380   5
   9  -5   5 9.05567 3.35195   3
   9  -5   5 9.73883 2.14630   4
   9   5   5 6.88638 2.63266   6
   9   5   5 9.98613 2.71826   2
  -9   5  -5 11.5408  2.5509   6
  -9   5  -5 10.0452  2.2277   2
  10  -5   5 66.1574  6.8671   3
 -10  -5  -5 57.3108  6.0039   6
  10  -5   5 57.9554  4.9293   4
  10   5   5 55.0760  6.0266   6
 -10   5  -5 56.0161  4.9514   2
 -10   5  -5 63.9955  5.5986   6
  11  -5   5 101.711   7.088   4
 -11  -5  -5 86.0283  7.9035   6
  11  -5   5 90.1391  9.3606   3
 -11   5  -5 112.466   7.980   6
  11   5   5 80.0306  8.1613   6
 -11   5  -5 93.9491  7.0730   2
 -12  -5  -5 172.862  13.476   6
  12   5   5 177.321  13.958   6
 -12   5  -5 174.636  12.362   2
 -12   5  -5 202.905  13.613   6
  12   6  -5 2.88307 2.38729   6
  12   6  -5 2.27969 2.21798   2
  11  -6  -5 85.8085  8.8049   6
  11  -6  -5 103.669  10.737   3
  11   6  -5 119.766   8.117   2
 -11   6   5 101.909   8.724   2
 -11   6   5 108.412   9.305   6
  11   6  -5 124.063   8.883   6
  10  -6  -5 122.277  12.103   3
  10  -6  -5 126.571  10.188   6
 -10  -6   5 148.813   9.375   4
  10   6  -5 131.981   9.194   2
  10   6  -5 131.273  10.099   6
 -10   6   5 128.271   9.698   2
 -10   6   5 107.143  10.186   6
  -9  -6   5 164.933  10.385   4
   9  -6  -5 126.996  11.028   6
   9  -6  -5 148.310  13.263   3
  -9   6   5 144.273  10.355   2
   9   6  -5 162.929  10.352   2
   9   6  -5 160.087  11.363   6
  -9   6   5 122.715  11.114   6
   8  -6  -5 58.6456  4.8908   5
  -8  -6   5 71.0932  5.3057   4
   8  -6  -5 56.3648  5.3265   6
  -8   6   5 58.4909  5.5182   6
  -8   6   5 58.5399  4.9646   2
   8   6  -5 60.9695  5.8448   6
   8   6  -5 69.0566  5.3506   2
   7  -6  -5 107.080   7.156   5
   7  -6  -5 91.6192  7.6397   6
  -7  -6   5 113.005   7.670   4
   7  -6  -5 101.196   7.080   4
  -7   6   5 92.6135  7.7424   6
   7   6  -5 115.201   7.615   2
  -7   6   5 107.379   7.214   2
   7   6  -5 96.0286  8.2891   6
  -6  -6   5 60.4025  7.5608   1
   6  -6  -5 66.7098  4.5274   4
   6  -6  -5 64.4317  4.5946   5
  -6  -6   5 52.5341  4.9975   4
   6  -6  -5 61.6040  4.8548   6
  -6   6   5 59.2678  4.5313   2
   6   6  -5 71.4451  5.2354   2
  -6   6   5 58.8434  4.9626   6
  -5  -6   5 166.655  14.492   1
   5  -6  -5 157.875  10.889   6
   5  -6  -5 159.486  10.099   5
   5  -6  -5 154.446  10.021   4
  -5  -6   5 153.597  10.362   4
  -5   6   5 150.384  10.050   2
  -5   6   5 157.955  11.000   6
   5   6  -5 142.123  10.432   2
  -4  -6   5 168.019  15.252   1
   4  -6  -5 173.803  10.741   4
   4  -6  -5 176.000  10.858   5
  -4  -6   5 163.667  10.915   4
   4  -6  -5 152.311  11.619   6
  -4   6   5 184.119  10.847   2
   4   6  -5 158.169  11.046   2
  -4   6   5 166.652  11.742   6
  -3  -6   5 31.3592  4.9730   1
   3  -6  -5 25.1226  2.3460   6
   3  -6  -5 29.3580  2.4005   5
  -3  -6   5 26.5906  2.2733   4
   3  -6  -5 28.1404  2.1930   4
  -3   6   5 28.6608  2.4951   6
   3   6  -5 25.3442  2.3550   2
  -3   6   5 26.0583  2.2536   2
  -2  -6   5 101.800   6.553   4
  -2  -6   5 104.063   7.422   5
   2  -6  -5 105.818   6.698   4
   2  -6  -5 103.512   7.278   6
   2  -6  -5 95.6288  6.8093   5
  -2  -6   5 99.0221 10.2911   1
  -2   6   5 109.110   6.757   2
   2   6  -5 98.6873  6.6432   2
  -2   6   5 107.655   7.325   6
  -1  -6   5 95.7065 10.1540   1
  -1  -6   5 102.942   6.216   4
   1  -6  -5 99.2504  7.0041   6
  -1  -6   5 102.703   6.214   4
  -1  -6   5 95.6149  7.2055   5
   1  -6  -5 94.3829  6.5848   5
   1  -6  -5 102.693   6.419   4
   1   6  -5 94.0371  6.2610   2
  -1   6   5 101.262   6.497   2
  -1   6   5 90.6575  6.4583   2
  -1   6   5 105.342   7.024   6
   0  -6  -5 265.785  16.529   4
   0  -6  -5 275.893  18.041   6
   0  -6  -5 254.737  16.683   5
   0  -6   5 260.240  17.243   5
   0  -6   5 265.913  16.305   4
   0  -6   5 229.235  22.753   1
   0  -6   5 268.121  16.306   4
   0   6   5 263.748  16.636   2
   0   6  -5 279.465  16.391   2
   0   6   5 264.301  18.002   6
   1  -6   5 10.7243  2.2313   5
   1  -6   5 9.33873 0.82247   4
   1  -6   5 9.68036 0.83779   4
   1  -6   5 9.59230 3.92674   1
  -1  -6  -5 11.8459  1.4725   5
  -1  -6  -5 14.5096  1.4870   6
  -1  -6  -5 7.86204 1.11797   4
   1   6   5 8.53032 1.16932   2
   1   6   5 9.62676 1.27389   6
  -1   6  -5 11.2663  0.8330   2
   2  -6   5 340.786  28.849   1
  -2  -6  -5 310.863  21.097   4
  -2  -6  -5 346.998  21.337   5
   2  -6   5 356.019  21.911   5
  -2  -6  -5 349.903  23.034   6
   2  -6   5 330.989  20.886   4
   2   6   5 355.470  21.246   2
   2   6   5 335.696  22.970   6
  -2   6  -5 325.927  20.973   2
   3  -6   5 51.2670  3.6967   4
   3  -6   5 59.4307  5.9120   3
   3  -6   5 54.8028  4.8933   5
  -3  -6  -5 52.7651  3.8821   4
   3  -6   5 73.8356  7.7562   1
  -3  -6  -5 54.8206  4.3264   6
  -3  -6  -5 56.6820  4.2572   5
  -3   6  -5 52.7651  3.6931   2
   3   6   5 64.0576  3.9908   2
   3   6   5 53.2870  4.2129   6
   4  -6   5 317.749  19.058   4
  -4  -6  -5 288.482  19.292   5
  -4  -6  -5 310.311  20.901   6
  -4  -6  -5 302.492  19.082   4
   4  -6   5 289.085  19.826   5
   4  -6   5 309.980  24.921   3
   4   6   5 300.236  20.758   6
  -4   6  -5 290.767  19.076   2
   4   6   5 318.644  19.216   2
  -5  -6  -5 42.4102  3.3265   4
  -5  -6  -5 41.1099  3.8239   6
   5  -6   5 44.0011  4.4290   5
   5  -6   5 41.2658  3.5080   4
  -5  -6  -5 42.1484  3.6956   5
   5  -6   5 39.3375  5.4403   3
  -5   6  -5 44.5528  3.4963   2
   5   6   5 42.9991  3.4684   2
   5   6   5 43.7433  3.6237   6
  -6  -6  -5 409.636  28.852   5
   6  -6   5 487.079  29.646   5
  -6  -6  -5 502.742  31.668   6
  -6  -6  -5 459.560  28.798   4
   6  -6   5 402.931  37.021   3
   6  -6   5 458.405  28.997   4
   6   6   5 480.559  31.313   6
   6   6   5 455.152  28.994   2
  -6   6  -5 467.627  29.084   2
  -7  -6  -5 45.6334  4.1448   5
   7  -6   5 49.4016  4.2704   4
   7  -6   5 51.0992  6.0578   3
  -7  -6  -5 54.5361  5.0549   6
   7  -6   5 43.6127  5.0509   5
   7   6   5 46.3911  4.1568   2
   7   6   5 42.0626  4.3283   6
  -7   6  -5 46.1259  4.4397   2
  -8  -6  -5 350.291  24.126   6
   8  -6   5 332.641  22.278   5
   8  -6   5 325.475  21.685   4
   8  -6   5 352.086  28.029   3
  -8   6  -5 328.473  21.893   2
   8   6   5 337.000  22.033   2
   8   6   5 335.040  23.686   6
   9  -6   5 77.6483  8.2256   3
  -9  -6  -5 70.1621  7.1954   6
   9  -6   5 83.3937  6.1373   4
  -9   6  -5 79.7454  6.2123   2
   9   6   5 78.7236  7.0248   6
   9   6   5 80.0243  6.7859   2
  10  -6   5 321.455  20.779   4
  10  -6   5 341.744  26.873   3
 -10  -6  -5 312.586  23.023   6
  10   6   5 290.567  21.395   2
 -10   6  -5 307.804  20.875   2
 -10   6  -5 383.961  23.027   6
  10   6   5 291.585  23.085   6
  11  -6   5 49.4036  6.2095   3
 -11  -6  -5 44.1921  4.9828   6
 -11   6  -5 41.7088  4.2817   2
 -11   6  -5 52.5710  5.0419   6
  11   6   5 40.7971  5.6259   6
 -12  -6  -5 317.860  22.897   6
 -12   6  -5 300.407  21.052   2
 -12   6  -5 356.243  23.132   6
 -11   7   5 4.29021 2.79514   6
  11   7  -5 6.05397 2.48299   2
  11   7  -5 6.78823 2.61660   6
 -11   7   5 5.02529 3.09799   2
  10  -7  -5 245.983  23.354   3
 -10   7   5 270.726  18.579   2
  10   7  -5 312.484  18.468   2
  -9  -7   5 150.749   9.580   4
  -9   7   5 124.996   9.253   2
  -9   7   5 107.966   9.948   6
   9   7  -5 134.658   9.342   2
  -8  -7   5 170.807  11.443   4
   8  -7  -5 181.442  11.150   5
   8  -7  -5 145.328  11.847   6
   8   7  -5 192.859  11.562   2
  -8   7   5 134.805  11.968   6
  -8   7   5 163.270  11.103   2
   7  -7  -5 49.4891  4.0978   4
   7  -7  -5 57.7931  4.3578   5
   7  -7  -5 54.5728  4.4895   6
  -7  -7   5 49.4639  4.6705   4
   7   7  -5 52.4180  4.8123   2
  -7   7   5 50.6629  4.6884   6
  -7   7   5 50.4661  4.2100   2
  -6  -7   5 158.294  15.983   1
   6  -7  -5 180.612  11.359   5
   6  -7  -5 165.495  11.151   4
   6  -7  -5 178.034  12.146   6
  -6  -7   5 175.159  11.562   4
   6   7  -5 162.048  11.644   2
  -6   7   5 172.192  12.288   6
  -6   7   5 175.165  11.286   2
   5  -7  -5 173.226  12.430   6
   5  -7  -5 187.887  11.497   4
  -5  -7   5 179.157  11.672   4
   5  -7  -5 172.101  11.585   5
  -5  -7   5 184.821  16.710   1
  -5   7   5 190.974  11.564   2
  -5   7   5 170.002  12.540   6
   5   7  -5 167.668  11.817   2
   4  -7  -5 243.858  16.330   6
   4  -7  -5 249.858  15.069   4
   4  -7  -5 239.588  15.174   5
  -4  -7   5 226.297  21.119   1
  -4  -7   5 239.264  15.059   4
   4   7  -5 219.185  15.186   2
  -4   7   5 249.658  16.443   6
  -4   7   5 227.563  15.127   2
   3  -7  -5 115.434   7.708   5
   3  -7  -5 109.103   7.541   4
  -3  -7   5 107.821   7.410   4
   3  -7  -5 114.109   8.180   6
  -3  -7   5 116.972  12.001   1
   3   7  -5 118.460   7.551   2
  -3   7   5 120.911   8.298   6
  -3   7   5 125.310   7.642   2
   2  -7  -5 64.0711  4.9096   5
  -2  -7   5 68.6091  4.5164   4
  -2  -7   5 75.4539  5.7160   5
   2  -7  -5 70.2803  5.1245   6
  -2  -7   5 68.3708  8.7079   1
   2  -7  -5 72.9718  4.7396   4
  -2   7   5 69.1702  4.7883   2
  -2   7   5 74.0831  5.1962   6
   2   7  -5 66.1427  4.5913   2
   1  -7  -5 340.725  22.333   5
   1  -7  -5 359.235  22.169   4
  -1  -7   5 348.146  22.906   5
  -1  -7   5 330.394  30.545   1
   1  -7  -5 364.210  24.158   6
  -1  -7   5 367.751  21.959   4
   1   7  -5 384.580  22.091   2
  -1   7   5 344.144  22.298   2
  -1   7   5 327.876  22.280   2
  -1   7   5 374.555  24.182   6
   0  -7   5 296.454  27.389   1
   0  -7  -5 319.146  19.497   4
   0  -7  -5 304.929  19.691   5
   0  -7   5 314.095  19.248   4
   0  -7   5 317.962  20.332   5
   0  -7  -5 300.298  21.247   6
   0   7   5 322.431  21.251   6
   0   7   5 320.856  19.613   2
   0   7   5 315.887  19.612   2
   0   7  -5 302.767  19.350   2
  -1  -7  -5 66.5161  4.6049   4
  -1  -7  -5 70.1851  4.9619   5
   1  -7   5 62.6371  9.0240   1
  -1  -7  -5 64.8677  5.0616   6
   1  -7   5 67.4878  4.3346   4
   1  -7   5 66.1711  5.6130   5
  -1   7  -5 68.1630  4.3551   2
   1   7   5 74.3132  5.1155   6
  -1   7  -5 68.5296  4.3586   2
   1   7   5 67.8855  4.6647   2
  -2  -7  -5 72.3706  5.3033   5
  -2  -7  -5 79.2461  5.0294   4
   2  -7   5 74.8449  6.0381   5
  -2  -7  -5 73.0598  5.5011   6
   2  -7   5 71.0463  4.6972   4
   2  -7   5 86.7095 10.0270   1
  -2   7  -5 70.2093  4.7149   2
   2   7   5 75.4507  5.4155   6
   2   7   5 69.6850  4.9785   2
  -3  -7  -5 316.355  22.734   6
   3  -7   5 325.904  21.616   5
  -3  -7  -5 315.061  21.071   5
  -3  -7  -5 325.819  20.795   4
   3  -7   5 322.613  20.593   4
   3  -7   5 384.833  27.195   3
   3   7   5 351.406  20.960   2
  -3   7  -5 323.177  20.670   2
   3   7   5 328.641  22.627   6
   4  -7   5 317.071  20.223   5
  -4  -7  -5 315.549  21.207   6
   4  -7   5 291.371  19.207   4
  -4  -7  -5 309.488  19.328   4
  -4  -7  -5 308.872  19.680   5
   4  -7   5 318.193  25.284   3
   4   7   5 305.327  19.434   2
  -4   7  -5 296.662  19.270   2
   4   7   5 303.553  21.021   6
   5  -7   5 5.96121 3.10532   3
  -5  -7  -5 3.00939 1.21054   4
  -5  -7  -5 3.66863 1.80396   6
  -5  -7  -5 7.07128 1.92700   5
   5  -7   5 5.42628 1.52845   4
   5  -7   5 3.95926 2.37234   5
   5   7   5 2.30012 1.24188   2
  -5   7  -5 4.29297 1.42899   2
   5   7   5 6.58779 1.52476   6
  -6  -7  -5 184.116  13.175   6
  -6  -7  -5 176.789  11.678   4
   6  -7   5 177.105  11.861   4
  -6  -7  -5 165.916  11.937   5
   6  -7   5 184.769  12.731   5
   6  -7   5 169.118  15.700   3
   6   7   5 185.771  11.816   2
  -6   7  -5 179.884  11.863   2
   6   7   5 175.890  12.681   6
  -7  -7  -5 85.2590  7.0296   5
  -7  -7  -5 104.896   8.130   6
   7  -7   5 96.2289  7.8488   5
   7  -7   5 93.7713  9.5579   3
   7  -7   5 85.2846  6.9614   4
   7   7   5 99.3072  7.4864   6
  -7   7  -5 99.2973  7.2222   2
   7   7   5 95.6479  7.0059   2
   8  -7   5 259.996  17.234   4
  -8  -7  -5 269.723  19.224   6
   8  -7   5 294.571  22.528   3
   8   7   5 251.949  18.705   6
   8   7   5 261.903  17.493   2
  -8   7  -5 239.263  17.325   2
   9  -7   5 3.86910 2.16346   4
   9  -7   5 3.62394 3.34320   3
  -9  -7  -5 3.87360 2.78215   6
  -9   7  -5 -0.8339  2.1447   2
   9   7   5 3.33988 2.59949   2
   9   7   5 -0.4830  2.3168   6
  10  -7   5 230.106  18.865   3
 -10   7  -5 213.039  14.426   2
  10   7   5 208.778  14.978   2
  10   7   5 204.136  16.163   6
 -11   7  -5 4.21837 2.26935   2
  11   7   5 3.45305 3.05497   6
 -10   8   5 3.88353 2.75451   6
  10   8  -5 1.18570 2.19443   2
 -10   8   5 2.87818 2.53886   2
   9   8  -5 8.46161 2.70886   2
  -9   8   5 7.24099 2.69255   6
  -9   8   5 7.18251 2.45070   2
  -8  -8   5 359.495  23.115   4
  -8   8   5 357.280  22.961   2
   8   8  -5 350.465  23.187   2
   7  -8  -5 263.561  15.552   4
  -7  -8   5 243.946  15.809   4
   7   8  -5 231.572  15.883   2
  -7   8   5 233.455  15.595   2
  -7   8   5 222.958  16.922   6
  -6  -8   5 5.46127 1.68785   4
   6  -8  -5 0.88570 1.28072   4
   6  -8  -5 5.36183 1.61362   5
  -6   8   5 2.21097 1.39936   2
  -6   8   5 2.61943 1.59357   6
   5  -8  -5 1.74974 1.42014   5
   5  -8  -5 0.75182 1.15142   4
  -5  -8   5 -0.7562  1.1062   4
   5   8  -5 1.89694 1.39753   2
  -5   8   5 1.25083 1.15446   2
  -5   8   5 0.14567 1.25298   6
  -4  -8   5 410.119  26.173   4
   4  -8  -5 387.641  26.396   5
   4  -8  -5 423.924  26.307   4
  -4  -8   5 419.276  35.994   1
  -4   8   5 450.275  28.737   6
   4   8  -5 450.347  26.438   2
  -4   8   5 401.528  26.433   2
  -3  -8   5 627.634  53.378   1
  -3  -8   5 633.346  39.645   4
   3  -8  -5 615.735  43.293   6
   3  -8  -5 663.542  39.985   5
   3  -8  -5 654.110  39.842   4
   3   8  -5 658.267  39.897   2
  -3   8   5 619.060  40.015   2
  -3   8   5 660.860  43.402   6
  -2  -8   5 48.1857  3.1750   4
   2  -8  -5 46.7608  3.4775   4
  -2  -8   5 38.8464  7.7890   1
   2  -8  -5 48.3158  3.7517   5
   2  -8  -5 43.8737  3.6854   6
  -2   8   5 45.5691  3.5093   2
   2   8  -5 51.6229  3.2676   2
  -2   8   5 43.7565  3.7926   6
   1  -8  -5 66.1448  4.6514   4
   1  -8  -5 71.1844  5.0487   5
  -1  -8   5 66.9700  4.4099   4
  -1  -8   5 62.7439  9.8503   1
  -1  -8   5 65.0191  5.8414   5
   1  -8  -5 63.9740  5.0885   6
   1   8  -5 71.5728  4.4569   2
  -1   8   5 73.5316  4.7580   2
  -1   8   5 67.2465  5.1143   6
   0  -8  -5 115.512   8.148   6
   0  -8  -5 116.544   7.436   4
   0  -8  -5 109.544   7.744   5
   0  -8   5 120.378   8.570   5
   0  -8   5 117.296   7.157   4
   0  -8   5 99.5008 13.0839   1
   0   8   5 109.150   7.505   2
   0   8   5 111.320   7.487   2
   0   8   5 116.463   8.146   6
   0   8  -5 113.663   7.208   2
   1  -8   5 444.292  27.887   4
  -1  -8  -5 467.061  28.162   4
   1  -8   5 486.857  29.142   5
  -1  -8  -5 469.426  28.458   5
   1  -8   5 416.453  39.121   1
  -1  -8  -5 424.386  30.670   6
   1   8   5 441.095  28.311   2
   1   8   5 441.260  30.670   6
  -1   8  -5 471.861  28.039   2
  -2  -8  -5 161.146  11.542   6
   2  -8   5 159.520  10.236   4
   2  -8   5 194.454  17.579   1
   2  -8   5 173.087  11.652   5
  -2  -8  -5 162.182  10.504   4
  -2  -8  -5 157.021  10.838   5
   2   8   5 155.240  11.413   6
   2   8   5 166.112  10.587   2
  -2   8  -5 165.585  10.293   2
  -3  -8  -5 120.537   8.536   5
   3  -8   5 109.870   7.875   4
  -3  -8  -5 130.043   9.054   6
   3  -8   5 158.054  14.273   1
   3  -8   5 119.367   9.198   5
  -3  -8  -5 129.923   8.185   4
  -3   8  -5 125.867   7.923   2
   3   8   5 114.113   8.170   2
   3   8   5 130.168   8.874   6
  -4  -8  -5 3.68560 1.27179   4
   4  -8   5 4.87898 1.19194   4
  -4  -8  -5 4.91444 1.85125   5
   4  -8   5 3.35840 2.56602   5
  -4  -8  -5 3.88770 1.86786   6
   4  -8   5 4.77109 2.88787   3
  -4   8  -5 5.31586 1.18180   2
   4   8   5 2.68305 1.30257   6
   4   8   5 5.10397 1.34838   2
   5  -8   5 102.116   7.705   5
  -5  -8  -5 81.4454  6.8324   5
  -5  -8  -5 90.9429  7.4093   6
   5  -8   5 94.0288  9.2975   3
  -5  -8  -5 88.3094  6.3693   4
   5  -8   5 92.6915  6.3747   4
   5   8   5 95.3341  6.4559   2
   5   8   5 91.2802  6.9850   6
  -5   8  -5 93.8890  6.4028   2
   6  -8   5 253.534  16.201   4
   6  -8   5 259.647  17.180   5
  -6  -8  -5 243.188  16.359   5
  -6  -8  -5 240.016  16.047   4
   6  -8   5 260.367  21.470   3
   6   8   5 242.726  16.176   2
  -6   8  -5 250.357  16.217   2
   6   8   5 245.994  17.443   6
   7  -8   5 15.1976  4.0567   3
   7  -8   5 14.5569  2.7236   4
  -7   8  -5 14.3540  2.6835   2
   7   8   5 16.0047  2.5637   6
   7   8   5 16.2040  2.4767   2
   8  -8   5 18.7223  4.7256   3
   8  -8   5 15.5314  2.8507   4
  -8   8  -5 19.7338  3.2380   2
   8   8   5 16.6162  3.1138   6
   8   8   5 18.0321  3.0617   2
   9  -8   5 14.1870  4.4590   3
  -9   8  -5 20.3926  3.1628   2
   9   8   5 11.7865  3.1064   2
   9   8   5 21.6927  3.6963   6
 -10   8  -5 232.236  15.555   2
  10   8   5 234.334  17.404   6
  10   8   5 224.811  16.080   2
   9   9  -5 142.282  10.750   2
  -9   9   5 158.926  10.807   2
  -8   9   5 97.7246  7.9480   6
   8   9  -5 88.9718  7.4619   2
  -8   9   5 109.247   7.407   2
  -7  -9   5 5.67102 1.86553   4
   7  -9  -5 6.97240 1.87917   4
  -7   9   5 6.00725 1.93037   6
   7   9  -5 3.42355 1.96779   2
  -7   9   5 4.98031 1.77605   2
  -6  -9   5 205.388  13.190   4
   6  -9  -5 217.332  13.257   4
  -6   9   5 213.508  13.317   2
  -6   9   5 196.528  14.412   6
   6   9  -5 182.728  13.302   2
   5  -9  -5 43.5218  3.6173   4
  -5  -9   5 46.4833  3.4429   4
  -5   9   5 40.7028  3.9056   6
  -5   9   5 47.0393  3.6695   2
   5   9  -5 45.1125  3.5944   2
   4  -9  -5 32.1783  3.1491   5
  -4  -9   5 27.6693  2.4456   4
   4  -9  -5 28.4499  2.7276   4
  -4   9   5 31.8344  3.0073   6
   4   9  -5 33.5086  2.6259   2
  -4   9   5 31.5760  2.8023   2
   3  -9  -5 8.70588 1.41578   4
   3  -9  -5 5.40360 1.70782   5
  -3  -9   5 8.37477 1.12938   4
  -3   9   5 7.28432 1.63810   6
   3   9  -5 8.61733 1.24588   2
  -3   9   5 7.90422 1.49032   2
   2  -9  -5 486.369  28.362   4
  -2  -9   5 389.775  39.189   1
   2  -9  -5 462.971  28.591   5
  -2  -9   5 466.836  28.074   4
   2   9  -5 449.846  28.230   2
  -2   9   5 447.462  30.855   6
  -2   9   5 447.690  28.465   2
  -1  -9   5 10.4164  1.0366   4
   1  -9  -5 9.47228 1.37209   4
   1  -9  -5 5.91700 1.72232   5
  -1  -9   5 6.70828 5.95517   1
  -1   9   5 9.51665 1.58682   6
   1   9  -5 7.97709 1.03638   2
  -1   9   5 8.65629 1.45572   2
   0  -9   5 5.09806 2.54165   5
   0  -9   5 4.30898 0.74778   4
   0  -9  -5 5.68775 1.69979   5
   0  -9  -5 5.47173 1.19795   4
   0  -9   5 4.04449 5.97391   1
   0   9   5 4.16008 1.19176   2
   0   9  -5 6.01665 0.86623   2
   0   9   5 6.03883 1.38685   6
   0   9   5 3.28111 1.16866   2
  -1  -9  -5 23.4441  2.1032   4
   1  -9   5 23.1162  3.6019   5
  -1  -9  -5 23.2714  2.7104   5
   1  -9   5 21.9838  7.3979   1
   1  -9   5 21.1150  1.7329   4
  -1   9  -5 23.4168  1.7957   2
   1   9   5 23.2397  2.2440   2
   1   9   5 18.3518  2.2752   6
   2  -9   5 457.678  38.172   1
  -2  -9  -5 413.470  27.224   5
   2  -9   5 388.976  26.569   4
   2  -9   5 445.819  27.999   5
  -2  -9  -5 435.919  26.846   4
   2   9   5 431.047  27.016   2
  -2   9  -5 443.242  26.739   2
   2   9   5 438.132  29.268   6
  -3  -9  -5 20.1672  2.7651   5
   3  -9   5 15.6058  1.6547   4
   3  -9   5 17.9205  3.4340   5
  -3  -9  -5 16.6173  1.9874   4
  -3   9  -5 17.2264  1.6668   2
   3   9   5 17.7730  1.9996   2
   3   9   5 18.1318  2.2288   6
   4  -9   5 6.16273 3.07671   5
  -4  -9  -5 2.08520 1.28593   4
   4  -9   5 1.83725 1.14009   4
  -4  -9  -5 1.17078 1.96737   5
   4   9   5 4.68278 1.48753   6
  -4   9  -5 3.85655 1.18449   2
   4   9   5 2.38020 1.27419   2
   5  -9   5 52.4646  3.9087   4
  -5  -9  -5 48.7262  3.8597   4
  -5  -9  -5 45.5019  4.3205   5
   5   9   5 47.4269  4.1909   6
  -5   9  -5 47.0306  3.8224   2
   5   9   5 44.0176  3.9524   2
  -6  -9  -5 113.598   8.381   4
   6  -9   5 116.159   8.524   4
   6  -9   5 132.514  12.142   3
  -6   9  -5 132.459   8.628   2
   6   9   5 122.593   9.163   6
   6   9   5 121.262   8.517   2
   7  -9   5 27.7488  3.5364   4
   7  -9   5 34.0623  5.5360   3
  -7   9  -5 29.2294  3.5273   2
   7   9   5 25.2911  3.2839   2
   7   9   5 26.2874  3.4137   6
   8  -9   5 51.1927  7.4525   3
  -8   9  -5 52.2837  5.3010   2
   8   9   5 64.0515  5.6292   6
   8   9   5 62.1041  5.3422   2
  -9   9  -5 38.4732  4.5243   2
   9   9   5 47.6780  5.1740   6
   9   9   5 36.4505  4.6797   2
  -8  10   5 36.3596  4.1589   6
  -8  10   5 45.1984  4.1053   2
   8  10  -5 31.3642  3.7593   2
   7  10  -5 125.539   9.419   2
  -7  10   5 149.308   9.630   2
  -7  10   5 139.454  10.366   6
   6 -10  -5 1.39933 1.47314   4
  -6  10   5 3.93126 1.79482   6
  -6  10   5 2.60337 1.58943   2
   6  10  -5 1.44407 1.46246   2
   5 -10  -5 118.703   7.889   4
  -5 -10   5 109.060   7.574   4
  -5  10   5 119.791   7.904   2
   5  10  -5 114.956   7.710   2
  -5  10   5 112.328   8.551   6
  -4 -10   5 90.7328  6.1620   4
   4 -10  -5 89.6376  6.4633   4
  -4  10   5 103.378   7.147   6
  -4  10   5 87.6172  6.5012   2
   4  10  -5 94.6110  6.2624   2
   3 -10  -5 214.187  13.626   4
  -3 -10   5 205.463  13.322   4
  -3  10   5 204.695  14.832   6
  -3  10   5 217.327  13.710   2
   3  10  -5 216.875  13.438   2
   2 -10  -5 12.8227  1.7568   4
  -2 -10   5 12.9149  1.4088   4
  -2  10   5 11.3325  1.7787   2
  -2  10   5 14.5306  2.0658   6
   2  10  -5 14.9393  1.5208   2
  -1 -10   5 68.8660  4.6121   4
   1 -10  -5 66.3813  4.9655   4
  -1  10   5 70.1902  5.5033   6
   1  10  -5 76.4236  4.7233   2
  -1  10   5 67.7608  5.0503   2
   0 -10   5 159.551  10.053   4
   0 -10  -5 156.841  10.343   4
   0  10   5 152.875  10.446   2
   0  10  -5 161.011  10.146   2
   0  10   5 153.805  10.447   2
   0  10   5 161.506  11.389   6
   0  10  -5 169.501  10.151   2
   1 -10   5 485.742  31.010   5
  -1 -10  -5 504.689  29.673   4
   1 -10   5 462.344  29.370   4
   1  10   5 474.074  29.834   2
  -1  10  -5 508.637  29.567   2
   1  10   5 458.272  32.312   6
   1  10   5 431.845  29.791   2
  -2 -10  -5 43.3199  3.4021   4
   2 -10   5 43.1445  3.1183   4
  -2  10  -5 45.5208  3.1903   2
   2  10   5 44.1432  3.5460   2
   2  10   5 40.8619  3.7410   6
  -3 -10  -5 -0.2259  1.1566   4
   3 -10   5 1.42332 1.00314   4
   3  10   5 0.66506 1.34056   6
   3  10   5 1.26162 1.37400   2
  -3  10  -5 1.27988 1.03636   2
  -4 -10  -5 120.352   7.922   4
   4 -10   5 114.200   7.692   4
  -4  10  -5 125.328   7.774   2
   4  10   5 103.135   8.533   6
   4  10   5 113.595   7.904   2
  -5 -10  -5 736.755  46.932   4
   5 -10   5 769.598  46.872   4
   5  10   5 719.947  47.136   2
  -5  10  -5 782.633  47.109   2
   5  10   5 755.189  51.117   6
  -6 -10  -5 33.4959  3.4053   4
   6  10   5 35.1198  3.7486   6
  -6  10  -5 36.0899  3.6244   2
   6  10   5 31.2905  3.4621   2
  -7  10  -5 17.5312  3.0353   2
   7  10   5 18.7337  2.8088   2
   7  10   5 15.2371  2.9353   6
   8  10   5 30.4745  4.1684   6
   8  10   5 30.4483  3.9323   2
  -8  10  -5 27.9658  3.9163   2
   6  11  -5 6.71557 1.57801   2
  -6  11   5 7.64825 1.96224   2
  -6  11   5 5.93290 1.95544   6
  -5  11   5 6.01447 1.70089   2
  -5  11   5 5.75624 1.94953   6
   5  11  -5 7.60391 1.51563   2
  -4  11   5 260.210  18.184   6
  -4  11   5 260.042  16.761   2
   4  11  -5 258.696  16.486   2
   3 -11  -5 49.9565  3.7799   4
  -3  11   5 46.4032  3.8503   2
   3  11  -5 47.4206  3.4996   2
  -3  11   5 45.1600  4.1771   6
   2 -11  -5 52.6983  4.0400   4
  -2 -11   5 52.0628  3.6492   4
  -2  11   5 52.6555  4.5304   6
  -2  11   5 50.4795  4.1083   2
   2  11  -5 55.3261  3.7912   2
  -1 -11   5 1.70477 0.85588   4
   1 -11  -5 1.06908 1.27873   4
  -1  11   5 0.05831 1.38283   6
  -1  11   5 3.32254 1.43731   2
   1  11  -5 4.41021 1.05955   2
   1  11  -5 3.84485 1.06754   2
   0 -11   5 174.160  11.316   4
   0 -11  -5 180.974  11.661   4
   0  11   5 177.156  11.760   2
   0  11   5 179.368  12.798   6
   0  11  -5 185.732  11.451   2
   1 -11   5 17.8678  1.7837   4
  -1 -11  -5 20.1748  2.2152   4
   1  11   5 18.2410  2.2790   2
   1  11   5 20.9257  2.5663   6
   1  11   5 19.1060  2.3105   2
  -1  11  -5 21.7773  1.9166   2
   2 -11   5 95.8625  6.4069   4
  -2 -11  -5 98.7869  6.6942   4
   2  11   5 99.5733  7.4153   6
  -2  11  -5 103.510   6.517   2
   2  11   5 91.7148  6.7707   2
   2  11   5 93.5748  6.7404   2
  -3 -11  -5 13.5125  1.9251   4
   3  11   5 12.3746  2.1959   6
  -3  11  -5 11.7225  1.6560   2
   3  11   5 10.4706  1.8614   2
   4  11   5 59.4983  4.9077   6
  -4  11  -5 56.7663  4.2724   2
   4  11   5 49.2499  4.3863   2
   5  11   5 117.659   9.221   6
   5  11   5 115.738   8.404   2
  -5  11  -5 132.082   8.512   2
   6  11   5 7.02687 2.03560   2
  -6  11  -5 6.16545 2.28459   2
   6  11   5 7.71594 2.27575   6
   4  12  -5 2.42081 1.25030   2
  -4  12   5 2.14077 1.78755   6
  -3  12   5 205.998  13.609   2
  -3  12   5 211.604  14.797   6
   3  12  -5 205.966  13.282   2
   2  12  -5 31.3769  2.6475   2
   2  12  -5 30.4753  2.6458   2
  -2  12   5 30.0786  3.0221   2
  -2  12   5 34.6153  3.5123   6
  -1  12   5 96.8850  7.1575   2
  -1  12   5 109.928   7.937   6
   0  12   5 10.6879  1.9398   2
   0  12   5 10.2476  2.2135   6
   1  12   5 265.892  17.496   2
   1  12   5 277.731  19.030   6
   2  12   5 25.9816  2.9306   2
   2  12   5 29.5113  3.0265   2
   2  12   5 33.3002  3.4023   6
  -3  12  -5 66.0640  4.6276   2
   3  12   5 60.5062  4.8154   2
   3  12   5 63.2460  5.3228   6
   3  12   5 55.8595  4.7671   2
  -4  12  -5 81.0915  5.9423   2
  13   0  -6 42.6801  4.8891   6
 -13   0   6 49.8841  5.0101   6
  12   0  -6 903.590  60.161   2
  12   0  -6 1012.74   65.34   6
  11   0  -6 40.5978  4.2253   2
  11   0  -6 38.7772  4.5631   6
  10   0  -6 493.431  34.705   2
  10   0  -6 594.894  37.805   6
   9   0  -6 296.553  19.749   6
  -9   0   6 247.094  17.908   4
   9   0  -6 275.583  18.160   2
   8   0  -6 2146.61  134.57   2
   8   0  -6 2213.49  145.97   6
  -8   0   6 2236.93  133.98   4
   8   0  -6 2076.41  169.07   3
   7   0  -6 109.674   7.866   2
   7   0  -6 103.943   9.811   3
  -7   0   6 131.019   7.983   4
   7   0  -6 107.723   8.797   6
  -7   0   6 114.536   8.389   6
   6   0  -6 257.081  18.989   6
  -6   0   6 276.042  17.255   4
  -6   0   6 265.132  18.627   6
   6   0  -6 286.138  17.344   2
  -6   0   6 295.624  21.843   1
   6   0  -6 244.048  21.799   3
   5   0  -6 532.340  40.625   6
  -5   0   6 580.954  37.179   4
  -5   0   6 625.175  40.417   6
  -5   0   6 662.373  47.551   1
   5   0  -6 611.248  47.150   3
   5   0  -6 585.014  37.348   2
  -4   0   6 3203.32  198.20   4
   4   0  -6 3232.02  197.54   5
  -4   0   6 3551.29  253.42   1
  -4   0   6 3345.63  199.48   2
   4   0  -6 2981.74  215.90   6
   4   0  -6 2980.20  199.17   2
  -4   0   6 3309.55  215.76   6
   3   0  -6 97.7454  6.0563   5
  -3   0   6 97.1512  6.1829   4
   3   0  -6 91.5698  6.2090   2
  -3   0   6 98.0381  6.6941   6
  -3   0   6 105.309   8.241   1
   3   0  -6 93.6662  6.8276   6
  -2   0   6 55.0667  3.6990   4
   2   0  -6 57.2940  4.1200   6
  -2   0   6 56.0518  3.9933   6
   2   0  -6 60.0727  3.7271   2
   1   0  -6 330.153  20.135   2
  -1   0   6 333.169  20.044   4
   1   0  -6 324.513  21.850   6
  -1   0   6 310.156  21.786   6
   0   0   6 2933.48  193.34   4
   0   0  -6 3296.18  194.31   2
   0   0   6 3083.77  210.28   6
   0   0  -6 3266.52  210.54   6
  -1   0  -6 11.8120  1.0182   6
  -1   0  -6 10.4149  0.9895   2
   1   0   6 10.8372  0.9162   4
   1   0   6 10.5099  1.0918   6
  -2   0  -6 267.919  18.205   6
  -2   0  -6 279.935  16.855   2
   2   0   6 230.975  18.282   6
   2   0   6 285.613  16.763   4
   3   0   6 11.0159  1.6535   6
  -3   0  -6 10.6604  1.1501   6
   3   0   6 13.3851  1.2092   4
  -3   0  -6 10.0317  1.2105   2
   3   0   6 13.9068  1.2100   4
  -4   0  -6 2239.76  138.58   6
   4   0   6 2117.71  127.36   4
  -4   0  -6 1917.39  127.99   2
   4   0   6 1998.63  138.86   6
   5   0   6 210.294  13.002   4
   5   0   6 195.543  14.274   6
  -5   0  -6 199.646  13.901   6
  -5   0  -6 197.657  13.072   2
   6   0   6 17.8433  2.5570   6
  -6   0  -6 17.7007  2.2564   6
   6   0   6 18.1609  2.3815   4
  -6   0  -6 14.1491  2.3370   2
  -7   0  -6 6.94046 2.12211   2
   7   0   6 14.2651  2.3208   6
  -7   0  -6 9.47094 2.25664   6
   7   0   6 10.6701  2.1800   4
  -8   0  -6 1567.88   99.40   2
   8   0   6 1561.78   98.94   4
   8   0   6 1674.70  107.43   6
  -8   0  -6 1577.39  107.75   6
   9   0   6 206.773  14.236   6
  -9   0  -6 208.239  13.513   2
  -9   0  -6 167.696  14.624   6
   9   0   6 208.387  13.538   4
 -10   0  -6 459.171  37.367   6
 -10   0  -6 605.387  34.634   2
  10   0   6 560.126  37.114   6
  11   0   6 17.6357  2.8055   6
 -11   0  -6 17.4699  2.9387   2
 -11   0  -6 17.2741  3.0815   6
 -12   0  -6 1060.78   77.89   6
 -12   0  -6 1242.54   72.13   2
 -13   0  -6 41.4554  4.5597   6
 -13   0  -6 41.5972  4.3059   2
  13  -1  -6 29.1248  4.2722   6
  13   1  -6 32.4650  3.8418   2
  13   1  -6 29.0287  3.9486   6
 -13   1   6 33.1676  4.3217   6
  12  -1  -6 0.25170 2.70526   6
 -12   1   6 2.72047 2.47438   6
  12   1  -6 6.90118 2.30340   2
  12   1  -6 5.88806 2.42648   6
  11  -1  -6 243.006  17.142   6
  11  -1  -6 221.568  15.626   2
  11   1  -6 234.352  16.799   6
  11   1  -6 223.795  15.495   2
  10  -1  -6 7.73438 2.70511   2
 -10  -1   6 4.14079 2.07131   4
  10  -1  -6 11.4322  2.9256   6
  10   1  -6 10.9896  2.7792   6
  10   1  -6 5.70539 2.35869   2
   9  -1  -6 276.655  21.384   6
  -9  -1   6 302.755  19.587   4
   9  -1  -6 314.032  24.616   3
   9  -1  -6 297.334  19.774   2
   9   1  -6 345.985  21.542   6
   9   1  -6 262.076  19.631   2
   8  -1  -6 15.2119  3.1467   3
   8  -1  -6 13.5245  2.7990   6
   8  -1  -6 17.4752  2.6116   2
  -8  -1   6 21.3791  2.8340   4
  -8   1   6 17.7065  2.6019   4
   8   1  -6 19.6428  3.1496   6
  -8   1   6 14.7110  2.5585   6
   8   1  -6 15.9173  2.8234   2
   7  -1  -6 27.8656  3.7030   3
   7  -1  -6 28.1065  3.3298   6
   7  -1  -6 30.2780  2.9027   2
  -7  -1   6 25.6326  3.0764   4
   7   1  -6 29.9202  3.2075   2
  -7   1   6 28.3940  2.8308   4
   7   1  -6 26.3719  3.6304   6
  -7   1   6 28.9568  2.9666   6
   6  -1  -6 12.9408  2.0774   6
   6  -1  -6 15.0848  2.4722   3
   6  -1  -6 9.35919 1.56960   2
  -6  -1   6 9.81745 1.73639   4
  -6  -1   6 11.8762  2.1844   1
  -6  -1   6 13.7962  1.6962   6
  -6   1   6 13.3598  1.6786   4
   6   1  -6 13.2924  2.4882   6
  -6   1   6 12.3643  1.7853   6
  -6   1   6 10.9906  2.0624   2
   6   1  -6 10.1466  1.7401   2
   6   1  -6 17.7635  2.2289   3
   5  -1  -6 649.052  45.570   2
   5  -1  -6 745.388  49.561   6
   5  -1  -6 773.967  45.092   5
  -5  -1   6 748.079  58.124   1
  -5  -1   6 798.461  49.335   6
  -5  -1   6 747.477  45.471   4
  -5   1   6 743.049  49.388   6
   5   1  -6 641.462  49.685   6
   5   1  -6 726.896  45.656   2
   5   1  -6 719.349  57.457   3
  -5   1   6 790.116  57.987   1
  -5   1   6 713.534  45.397   4
  -5   1   6 738.501  45.808   2
   4  -1  -6 143.420   9.527   4
   4  -1  -6 147.514   9.281   5
   4  -1  -6 144.857   9.486   2
  -4  -1   6 151.553  12.334   1
   4  -1  -6 145.004  10.385   6
  -4  -1   6 139.239   9.445   4
  -4  -1   6 161.286  10.200   6
  -4   1   6 151.393  10.268   6
   4   1  -6 146.750   9.486   2
   4   1  -6 139.455  10.541   6
  -4   1   6 149.081   9.438   4
  -4   1   6 155.633   9.640   2
   3  -1  -6 30.3690  2.1300   5
  -3  -1   6 34.4967  2.2289   4
  -3  -1   6 30.0096  3.2904   1
   3  -1  -6 30.2238  2.2481   2
   3  -1  -6 31.3317  2.2866   4
   3  -1  -6 31.6827  2.5583   6
  -3  -1   6 31.0185  2.3018   6
  -3   1   6 32.3877  2.3343   2
   3   1  -6 32.8958  2.0142   5
  -3   1   6 30.0703  2.2449   4
  -3   1   6 31.2663  2.4346   6
   3   1  -6 35.6313  2.2406   2
   3   1  -6 26.0581  2.5670   6
   3   1  -6 31.4521  2.8539   3
  -2  -1   6 53.1218  3.7408   6
   2  -1  -6 55.9361  3.5539   5
   2  -1  -6 58.4382  3.9497   6
  -2  -1   6 51.8508  3.4996   4
   2  -1  -6 54.5799  3.5817   2
   2  -1  -6 49.2725  3.5809   4
  -2   1   6 46.7104  3.5793   2
   2   1  -6 57.5176  3.5273   2
  -2   1   6 50.6835  3.5507   4
   2   1  -6 52.0784  3.9214   6
  -2   1   6 52.0195  3.8501   6
  -1  -1   6 437.763  25.068   4
   1  -1  -6 435.790  27.367   6
  -1  -1   6 420.461  32.576   1
  -1  -1   6 389.917  25.036   4
   1  -1  -6 389.098  25.104   4
   1  -1  -6 357.241  25.206   2
  -1   1   6 401.464  25.098   4
   1   1  -6 414.288  25.160   2
   1   1  -6 436.886  27.320   6
  -1   1   6 385.899  27.298   6
   0  -1   6 217.274  13.407   4
   0  -1  -6 225.482  13.473   4
   0  -1   6 210.593  13.410   4
   0  -1  -6 214.060  13.538   2
   0  -1  -6 212.352  14.681   6
   0   1  -6 210.382  13.481   2
   0   1   6 207.562  14.662   6
   0   1  -6 235.677  14.621   6
   0   1   6 209.021  13.469   4
   1  -1   6 16.0665  1.1572   4
  -1  -1  -6 17.9671  1.2452   4
  -1  -1  -6 15.4195  1.3674   6
   1  -1   6 16.5747  1.1942   4
  -1  -1  -6 14.9467  1.2943   2
  -1   1  -6 16.6692  1.2207   2
  -1   1  -6 16.2099  1.2539   6
   1   1   6 16.2557  1.2480   4
   1   1   6 13.7511  1.3609   6
   2  -1   6 27.9962  2.9324   6
   2  -1   6 39.5145  2.4041   4
  -2  -1  -6 38.8850  2.5333   2
  -2  -1  -6 35.9816  2.6849   6
   2  -1   6 33.3640  2.4384   4
   2  -1   6 33.2293  2.4451   4
  -2  -1  -6 37.8571  2.4615   4
   2   1   6 32.7923  2.7238   6
  -2   1  -6 34.2374  2.4995   2
  -2   1  -6 38.7364  2.6080   6
   2   1   6 33.1466  2.4765   4
   2   1   6 35.6869  2.4530   2
  -3  -1  -6 20.5988  1.7490   6
  -3  -1  -6 20.1801  1.6006   4
   3  -1   6 20.6793  2.2670   6
   3  -1   6 19.9442  1.7552   4
  -3  -1  -6 21.3708  1.7552   2
   3   1   6 20.1960  1.6933   4
  -3   1  -6 19.7083  1.8448   2
   3   1   6 21.4862  1.9497   6
  -3   1  -6 20.3817  1.6952   6
   3   1   6 22.5562  1.5993   2
  -4  -1  -6 36.3264  2.7955   6
  -4  -1  -6 30.0426  2.6531   2
   4  -1   6 39.5304  3.2385   6
  -4  -1  -6 32.2832  2.4694   4
   4  -1   6 37.9784  2.9112   4
  -4   1  -6 37.9470  2.8154   6
   4   1   6 35.3828  2.5142   2
   4   1   6 32.7671  2.9978   6
  -4   1  -6 28.7312  2.8354   2
   4   1   6 34.7635  2.6308   4
   4   1   6 34.3712  2.6400   4
   5  -1   6 22.0198  2.6101   6
  -5  -1  -6 22.9375  2.3320   2
   5  -1   6 21.7124  2.5546   4
  -5  -1  -6 24.2743  2.2962   6
   5   1   6 23.3673  2.6867   6
  -5   1  -6 18.8850  2.5290   2
  -5   1  -6 26.8401  2.4405   6
   5   1   6 26.0416  2.0894   2
   5   1   6 24.7668  2.2655   4
   5   1   6 24.1537  2.2710   4
  -6  -1  -6 1.45727 1.22826   6
   6  -1   6 1.90549 1.42721   6
  -6  -1  -6 -0.3264  1.3261   2
   6  -1   6 1.25182 1.52351   4
  -6   1  -6 -0.7849  1.4331   2
   6   1   6 2.71714 1.77990   6
  -6   1  -6 3.98238 1.52137   6
   6   1   6 2.59816 1.37577   4
  -7  -1  -6 171.397  13.195   6
   7  -1   6 203.734  12.412   4
   7  -1   6 183.605  13.050   6
  -7  -1  -6 181.908  12.383   2
  -7   1  -6 186.016  13.386   6
   7   1   6 172.088  12.226   4
  -7   1  -6 199.034  12.423   2
   7   1   6 169.473  13.336   6
  -8  -1  -6 11.4962  2.6429   6
  -8  -1  -6 7.98187 2.35787   2
   8  -1   6 8.73734 2.22737   4
   8  -1   6 15.9370  2.3492   6
   8   1   6 10.4168  2.4019   6
   8   1   6 7.50435 2.19476   4
  -8   1  -6 9.93959 2.58971   6
  -8   1  -6 11.0835  2.3292   2
   9  -1   6 38.2399  3.8471   6
  -9  -1  -6 34.5266  4.4844   6
  -9  -1  -6 35.0828  4.1987   2
   9  -1   6 42.6051  3.9742   4
   9   1   6 34.0509  4.0028   6
  -9   1  -6 39.2727  3.9578   2
  -9   1  -6 34.8337  4.4890   6
 -10  -1  -6 26.0132  4.1436   6
 -10  -1  -6 32.6815  3.8829   2
  10  -1   6 34.0882  3.6935   4
  10  -1   6 28.3038  3.4359   6
  10   1   6 26.9597  3.4851   6
 -10   1  -6 36.2677  3.6307   2
 -10   1  -6 28.1533  3.8598   6
 -11  -1  -6 19.8378  3.2970   2
 -11  -1  -6 14.5086  3.1483   6
  11   1   6 20.1733  2.9744   6
 -11   1  -6 20.8692  3.0305   2
 -11   1  -6 18.8623  3.1445   6
 -12  -1  -6 36.1827  4.5194   6
 -12  -1  -6 45.7413  4.4733   2
 -12   1  -6 48.7880  4.3112   2
 -12   1  -6 37.4089  4.3040   6
  12   1   6 42.3119  4.4415   6
 -13  -1  -6 2.43766 2.19410   6
 -13   1  -6 7.12494 2.49495   2
 -13   1  -6 2.45773 2.20492   6
  13   1   6 4.02714 2.25053   6
  13  -2  -6 97.3886  8.3415   6
  13   2  -6 94.9416  7.8615   6
 -13   2   6 100.332   8.233   6
  13   2  -6 87.4012  7.2155   2
  12  -2  -6 143.404  10.811   6
  12   2  -6 135.648  10.330   6
  12   2  -6 114.727   9.340   2
 -12   2   6 136.000  10.731   6
  11  -2  -6 9.98217 3.15708   6
  11   2  -6 8.88146 2.59360   6
 -11   2   6 6.22546 2.75467   6
  11   2  -6 8.55267 2.36698   2
 -10  -2   6 57.9363  4.9837   4
  10  -2  -6 55.0660  5.6027   2
  10  -2  -6 65.1449  6.3256   6
  10  -2  -6 57.3553  6.5766   3
 -10   2   6 54.7945  5.9273   6
  10   2  -6 67.3935  5.3932   2
  10   2  -6 61.3793  5.5847   6
   9  -2  -6 233.638  15.254   2
  -9  -2   6 233.649  14.855   4
   9  -2  -6 209.442  18.919   3
   9  -2  -6 198.426  16.466   6
   9   2  -6 238.565  15.170   2
   9   2  -6 252.711  16.388   6
  -9   2   6 205.287  16.268   6
   8  -2  -6 352.123  26.247   6
  -8  -2   6 378.874  24.047   4
   8  -2  -6 367.075  30.357   3
   8  -2  -6 367.074  24.096   2
   8   2  -6 441.639  26.383   6
  -8   2   6 383.324  26.149   6
   8   2  -6 338.608  24.213   2
  -7  -2   6 50.8526  4.7931   4
   7  -2  -6 54.7396  5.0861   6
   7  -2  -6 63.3161  4.5736   2
   7  -2  -6 66.7167  5.9679   3
  -7  -2   6 55.4145  4.6505   6
  -7   2   6 57.8186  4.5267   4
   7   2  -6 69.0469  5.4079   6
   7   2  -6 56.3500  4.8501   2
  -7   2   6 58.5453  4.8033   2
  -7   2   6 54.8587  4.8497   6
  -6  -2   6 90.3618  7.0884   4
   6  -2  -6 103.433   6.645   5
  -6  -2   6 101.480   7.310   6
  -6  -2   6 108.704   8.982   1
   6  -2  -6 98.5587  6.9052   2
   6  -2  -6 94.8458  7.6311   6
   6   2  -6 107.858   7.241   2
  -6   2   6 105.769   7.534   6
   6   2  -6 98.3163  7.9081   6
  -6   2   6 108.052   6.919   4
  -6   2   6 107.395   7.114   2
   5  -2  -6 380.828  25.012   6
   5  -2  -6 370.699  22.626   5
  -5  -2   6 359.222  22.974   4
   5  -2  -6 377.201  22.953   2
   5  -2  -6 328.905  22.859   4
  -5  -2   6 406.206  24.706   6
  -5  -2   6 382.214  29.457   1
  -5   2   6 365.105  24.841   6
  -5   2   6 370.489  23.052   2
  -5   2   6 346.321  22.817   4
   5   2  -6 313.747  25.182   6
   5   2  -6 381.006  23.079   2
   4  -2  -6 1703.59  106.07   2
   4  -2  -6 1563.90  114.96   6
  -4  -2   6 1795.35  135.21   1
   4  -2  -6 1603.39  105.56   4
   4  -2  -6 1862.62  105.23   5
  -4  -2   6 1751.43  105.60   4
   4   2  -6 1775.42  106.10   2
  -4   2   6 1539.62  114.89   6
  -4   2   6 1771.90  105.56   4
  -4   2   6 1800.82  106.13   2
   3  -2  -6 64.0887  4.1984   5
  -3  -2   6 67.6503  5.9626   1
   3  -2  -6 67.8544  4.2996   4
  -3  -2   6 59.2222  4.3871   4
   3  -2  -6 64.7562  4.3013   2
   3  -2  -6 65.1565  4.6910   6
  -3  -2   6 65.8914  4.2282   4
  -3   2   6 60.3373  4.2755   2
   3   2  -6 63.0657  4.2244   2
  -3   2   6 65.8771  4.6399   6
  -3   2   6 60.8918  4.2479   4
   3   2  -6 67.9515  4.0153   5
  -2  -2   6 295.346  17.782   4
   2  -2  -6 286.720  17.834   5
   2  -2  -6 311.114  19.500   6
  -2  -2   6 290.208  23.308   1
   2  -2  -6 286.496  17.949   2
  -2  -2   6 265.417  17.838   4
   2  -2  -6 304.490  17.886   4
  -2   2   6 305.549  17.980   2
  -2   2   6 276.530  19.437   6
  -2   2   6 284.916  17.866   4
   2   2  -6 253.039  19.468   6
   2   2  -6 292.600  17.864   2
  -1  -2   6 301.500  23.376   1
   1  -2  -6 299.032  19.449   6
  -1  -2   6 274.246  17.739   4
  -1  -2   6 284.883  17.716   4
   1  -2  -6 297.173  17.853   5
   1  -2  -6 292.199  17.922   2
   1   2  -6 302.597  17.800   2
  -1   2   6 271.893  17.825   4
  -1   2   6 271.170  17.916   2
  -1   2   6 283.719  19.401   6
   0  -2   6 3557.91  223.51   4
   0  -2   6 3706.49  223.44   4
   0  -2  -6 3677.73  223.49   4
   0  -2  -6 3776.12  243.80   6
   0  -2  -6 3819.05  224.99   2
   0  -2   6 3523.10  285.99   1
   0   2  -6 3616.56  224.60   2
   0   2   6 3275.00  224.67   2
   0   2   6 3913.00  224.77   2
   0   2   6 3538.80  243.58   6
   0   2   6 3652.18  223.71   4
   1  -2   6 3.42402 0.40506   4
   1  -2   6 3.16347 0.46153   4
   1  -2   6 2.78267 0.46367   4
  -1  -2  -6 2.89128 0.55722   4
  -1  -2  -6 3.78002 0.62897   2
   1  -2   6 1.91773 1.89133   1
  -1  -2  -6 2.98799 0.65038   6
   1   2   6 3.26763 0.57480   4
  -1   2  -6 4.23465 0.52897   2
   1   2   6 4.02811 0.67611   6
   1   2   6 3.02493 0.59821   2
   2  -2   6 401.640  33.626   3
  -2  -2  -6 429.440  26.366   4
   2  -2   6 455.328  26.280   4
   2  -2   6 419.430  26.367   4
  -2  -2  -6 444.364  28.734   6
   2  -2   6 400.760  34.434   1
  -2  -2  -6 441.644  26.532   2
  -2   2  -6 480.226  28.606   6
  -2   2  -6 382.548  26.508   2
   2   2   6 443.616  26.508   2
   2   2   6 377.023  28.700   6
   2   2   6 434.401  26.389   4
   3  -2   6 84.4314  8.5209   3
   3  -2   6 100.816   9.156   1
   3  -2   6 101.729   6.278   4
   3  -2   6 94.2506  6.5213   4
  -3  -2  -6 103.129   6.422   2
  -3  -2  -6 95.7558  6.8932   6
   3   2   6 102.324   6.383   4
   3   2   6 97.7760  6.3521   2
  -3   2  -6 97.9833  6.8238   6
   3   2   6 102.410   6.954   6
   4  -2   6 2217.56  162.61   4
  -4  -2  -6 2725.88  162.41   4
   4  -2   6 2585.83  208.18   1
  -4  -2  -6 2494.55  176.84   6
  -4  -2  -6 2909.89  163.31   2
   4  -2   6 2522.83  206.17   3
  -4   2  -6 2908.80  176.87   6
   4   2   6 2784.50  176.93   6
   4   2   6 2813.92  162.49   4
   4   2   6 2472.40  163.19   2
   5  -2   6 36.1433  3.7143   6
   5  -2   6 65.6733  5.5940   1
   5  -2   6 48.4819  5.5096   3
  -5  -2  -6 45.9941  3.7992   6
  -5  -2  -6 48.4744  3.6275   2
   5  -2   6 42.0823  3.9172   4
   5   2   6 48.8591  3.4897   2
  -5   2  -6 49.6486  3.9566   2
  -5   2  -6 51.2121  4.0250   6
   5   2   6 47.3228  4.0366   6
   5   2   6 50.7252  3.6113   4
  -6  -2  -6 229.153  16.087   2
   6  -2   6 262.203  16.284   4
  -6  -2  -6 251.755  17.349   6
  -6   2  -6 256.306  16.251   2
   6   2   6 240.123  17.510   6
   6   2   6 247.017  16.001   4
   6   2   6 257.526  16.058   4
   6   2   6 248.950  15.964   2
  -6   2  -6 253.533  17.591   6
   7  -2   6 55.8640  4.4476   4
  -7  -2  -6 44.7788  4.4066   6
  -7  -2  -6 42.8212  4.2548   2
   7  -2   6 60.2885  5.8567   3
   7  -2   6 43.3545  4.1802   6
  -7   2  -6 53.2940  4.9332   6
   7   2   6 40.6902  4.5277   6
   7   2   6 46.6311  4.1116   4
   7   2   6 50.3358  4.2278   4
  -7   2  -6 57.8781  4.3669   2
   8  -2   6 1292.96   71.48   4
  -8  -2  -6 1043.53   71.84   2
  -8  -2  -6 1113.76   77.79   6
  -8   2  -6 1126.64   77.83   6
  -8   2  -6 1244.50   71.70   2
   8   2   6 1065.46   77.77   6
  -9  -2  -6 62.2397  6.4474   6
   9  -2   6 71.8560  5.6640   4
  -9   2  -6 83.4307  5.8435   2
   9   2   6 68.6848  6.4277   6
  -9   2  -6 69.1294  6.2142   6
 -10  -2  -6 82.8789  6.8491   2
  10  -2   6 90.1905  6.3113   4
 -10  -2  -6 67.9166  7.0424   6
 -10   2  -6 81.4348  6.2884   2
 -10   2  -6 75.8644  6.7148   6
  10   2   6 80.4888  6.9213   6
  11  -2   6 61.5433  5.4365   4
 -11  -2  -6 65.4284  6.2603   6
 -11  -2  -6 83.0017  6.1663   2
 -11   2  -6 63.2465  5.7829   6
  11   2   6 65.4491  6.0374   6
 -11   2  -6 65.1607  5.4468   2
 -12  -2  -6 390.567  30.144   6
  12   2   6 449.780  30.161   6
 -12   2  -6 407.837  30.004   6
 -12   2  -6 489.327  27.987   2
 -13  -2  -6 37.9408  4.3700   6
  13   2   6 38.1504  4.2567   6
 -13   2  -6 48.1021  4.4316   2
 -13   2  -6 38.3005  4.3142   6
  13  -3  -6 35.8338  5.0167   6
 -13   3   6 51.0013  5.3513   6
  13   3  -6 34.5884  4.4393   6
  13   3  -6 36.0949  4.0787   2
  12  -3  -6 3.88361 2.84459   6
  12   3  -6 1.18518 1.93254   2
 -12   3   6 4.25898 2.81319   6
  12   3  -6 2.48271 2.23772   6
  11  -3  -6 35.2599  5.5663   3
  11  -3  -6 41.2221  5.3160   6
 -11  -3   6 44.2187  4.0715   4
  11   3  -6 45.7171  4.5393   6
  11   3  -6 32.3622  3.7875   2
 -11   3   6 38.9807  5.0471   6
 -10  -3   6 428.488  24.763   4
  10  -3  -6 338.807  31.545   3
  10  -3  -6 350.985  27.453   6
 -10   3   6 342.832  27.311   6
  10   3  -6 458.802  27.212   6
  10   3  -6 395.293  24.933   2
   9  -3  -6 71.3941  7.2305   6
  -9  -3   6 84.2371  6.2928   4
   9  -3  -6 80.3116  8.2881   3
   9   3  -6 98.4377  7.1626   6
  -9   3   6 80.2052  7.2872   6
   9   3  -6 90.8185  6.6067   2
   8  -3  -6 10.6375  3.0835   3
   8  -3  -6 14.8083  2.4374   2
  -8  -3   6 12.1014  2.1314   4
   8  -3  -6 14.5380  2.8705   6
   8   3  -6 16.7843  2.7972   6
  -8   3   6 17.4945  2.6604   2
  -8   3   6 14.3627  2.5807   6
   8   3  -6 13.1090  2.5302   2
   7  -3  -6 156.970  11.175   6
  -7  -3   6 149.766  13.148   1
  -7  -3   6 152.292  10.268   4
   7  -3  -6 157.223  10.200   2
  -7   3   6 147.206  10.989   6
   7   3  -6 129.860  10.345   2
  -7   3   6 169.981  10.385   2
   6  -3  -6 700.442  44.882   2
   6  -3  -6 777.479  48.766   6
   6  -3  -6 739.592  44.411   5
  -6  -3   6 690.293  57.359   1
  -6  -3   6 697.182  44.954   4
  -6   3   6 714.343  48.635   6
  -6   3   6 694.703  44.950   2
   6   3  -6 679.492  45.185   2
  -6   3   6 781.354  44.731   4
   5  -3  -6 354.610  23.638   6
  -5  -3   6 317.234  21.909   4
   5  -3  -6 363.064  21.515   5
   5  -3  -6 347.270  21.770   2
  -5  -3   6 349.678  28.071   1
   5  -3  -6 353.889  21.697   4
  -5   3   6 325.153  21.786   2
  -5   3   6 329.211  21.650   4
  -5   3   6 343.305  23.586   6
   5   3  -6 390.709  24.147   6
   5   3  -6 338.626  21.996   2
   4  -3  -6 30.8092  2.4766   4
   4  -3  -6 31.7805  2.4813   2
  -4  -3   6 26.9228  2.6658   4
   4  -3  -6 34.0388  2.4322   5
  -4  -3   6 29.4386  3.7734   1
   4  -3  -6 30.8682  2.7248   6
  -4   3   6 31.3939  2.4915   2
  -4   3   6 34.7078  2.4995   4
   4   3  -6 34.0372  3.3897   6
  -4   3   6 35.6361  2.7266   6
   4   3  -6 32.3408  2.6638   2
   3  -3  -6 467.511  28.939   4
   3  -3  -6 468.358  28.852   5
   3  -3  -6 491.365  31.546   6
  -3  -3   6 463.753  28.933   4
  -3  -3   6 450.283  37.462   1
   3  -3  -6 441.294  29.070   2
   3   3  -6 509.490  31.917   6
  -3   3   6 448.790  31.492   6
  -3   3   6 464.017  28.942   4
   3   3  -6 482.049  29.040   2
  -3   3   6 454.434  29.084   2
  -2  -3   6 527.042  48.070   1
  -2  -3   6 620.651  37.143   4
   2  -3  -6 607.945  37.256   4
   2  -3  -6 671.296  37.454   2
  -2  -3   6 588.047  37.320   5
   2  -3  -6 696.227  40.627   6
   2  -3  -6 636.766  37.204   5
  -2  -3   6 588.356  37.362   4
   2   3  -6 586.654  37.305   2
  -2   3   6 578.167  37.430   2
  -2   3   6 583.168  37.243   4
   2   3  -6 544.502  40.729   6
  -2   3   6 602.666  40.556   6
  -1  -3   6 892.484  58.198   4
  -1  -3   6 917.926  58.123   4
   1  -3  -6 1004.30   63.49   6
   1  -3  -6 973.706  58.222   5
   1  -3  -6 925.488  58.581   2
   1  -3  -6 967.892  58.290   4
  -1  -3   6 973.116  75.186   1
  -1   3   6 891.213  58.280   4
   1   3  -6 992.844  58.404   2
  -1   3   6 946.521  58.594   2
  -1   3   6 932.352  63.453   6
   0  -3  -6 13.3808  1.3202   6
   0  -3  -6 11.8103  1.1661   2
   0  -3   6 11.7348  1.4412   3
   0  -3  -6 13.0154  1.1468   4
   0  -3   6 13.1649  0.8895   4
   0  -3  -6 13.9745  1.3656   5
   0  -3   6 13.3125  2.6995   1
   0  -3   6 8.47651 2.37869   5
   0   3   6 13.9445  1.1763   4
   0   3   6 14.1483  1.1962   2
   0   3   6 14.9795  1.2955   6
   0   3   6 13.5974  1.1902   2
  -1  -3  -6 625.615  37.847   5
  -1  -3  -6 607.157  37.962   2
   1  -3   6 664.036  37.608   4
  -1  -3  -6 635.661  41.157   6
   1  -3   6 536.093  37.657   4
   1  -3   6 616.645  49.150   1
  -1  -3  -6 607.262  37.770   4
   1   3   6 620.641  37.790   4
   1   3   6 587.898  37.960   2
  -1   3  -6 610.787  37.778   2
   1   3   6 621.099  41.143   6
   2  -3   6 108.322   8.689   5
  -2  -3  -6 127.939   7.626   4
  -2  -3  -6 119.869   8.304   6
   2  -3   6 125.702   7.485   4
   2  -3   6 93.4945 10.1209   3
   2  -3   6 118.001  10.799   1
  -2  -3  -6 121.074   7.670   2
   2   3   6 120.957   8.297   6
   2   3   6 122.991   7.664   2
   2   3   6 120.860   7.628   4
  -2   3  -6 121.959   8.109   6
   3  -3   6 1004.64   83.53   1
  -3  -3  -6 950.280  64.694   4
   3  -3   6 1056.55   65.51   5
   3  -3   6 1016.51   82.59   3
  -3  -3  -6 1093.63   70.49   6
  -3  -3  -6 1002.13   65.04   2
   3   3   6 1143.47   65.06   2
   3   3   6 1099.39   70.50   6
   3   3   6 1095.62   64.75   4
  -3   3  -6 1040.58   70.39   6
   4  -3   6 2.63573 2.43757   1
   4  -3   6 1.38772 1.93990   5
  -4  -3  -6 1.57460 0.85082   2
  -4  -3  -6 0.93562 0.70256   4
  -4  -3  -6 2.20522 0.85556   6
   4  -3   6 0.78698 1.28321   4
   4  -3   6 1.78998 2.27692   3
   4   3   6 1.23146 0.78341   4
   4   3   6 2.36904 0.87574   2
  -4   3  -6 1.56937 1.37484   2
   4   3   6 0.97414 0.85327   6
  -4   3  -6 3.56449 1.17147   6
   5  -3   6 295.705  17.118   5
   5  -3   6 267.173  16.551   4
  -5  -3  -6 246.315  16.204   4
  -5  -3  -6 238.734  17.663   6
  -5  -3  -6 268.398  16.378   2
  -5   3  -6 260.712  17.973   6
   5   3   6 246.117  16.298   2
   5   3   6 243.096  16.238   4
  -5   3  -6 263.753  16.581   2
   5   3   6 251.797  17.701   6
   6  -3   6 2.46137 1.58644   4
  -6  -3  -6 1.21810 1.31360   2
  -6  -3  -6 1.15476 1.29117   6
   6  -3   6 1.90997 1.86571   5
   6  -3   6 3.08485 2.36458   3
   6   3   6 2.96919 1.26196   4
   6   3   6 1.90593 1.24325   2
  -6   3  -6 3.80307 1.96072   6
  -6   3  -6 1.08128 1.46537   2
  -7  -3  -6 670.901  42.503   2
   7  -3   6 769.592  53.940   3
   7  -3   6 734.891  42.334   4
  -7  -3  -6 606.082  45.945   6
  -7   3  -6 719.707  42.456   2
   7   3   6 597.629  45.974   6
  -7   3  -6 670.680  46.202   6
   7   3   6 641.075  42.396   2
   8  -3   6 4.10480 1.75983   4
  -8  -3  -6 2.59737 2.16153   2
   8  -3   6 3.59273 2.48637   3
  -8  -3  -6 6.00694 2.23781   6
  -8   3  -6 3.11648 2.12776   6
   8   3   6 0.46394 1.98383   6
  -8   3  -6 0.09847 1.53591   2
  -9  -3  -6 50.4604  6.0308   6
  -9  -3  -6 60.3584  5.8920   2
   9  -3   6 74.9403  5.3799   4
   9  -3   6 77.8661  7.1429   3
  -9   3  -6 70.1705  5.3468   2
   9   3   6 57.6131  6.0877   6
  -9   3  -6 71.5712  5.8314   6
  10  -3   6 13.2207  3.3185   3
 -10  -3  -6 12.4168  3.1838   6
  10  -3   6 14.8690  2.5443   4
 -10   3  -6 13.5361  2.4105   2
  10   3   6 10.4483  2.9943   6
 -10   3  -6 19.2170  2.8650   6
  11  -3   6 352.868  21.185   4
 -11  -3  -6 296.375  23.229   6
 -11   3  -6 340.568  21.193   2
 -11   3  -6 311.435  22.832   6
  11   3   6 327.513  23.163   6
 -12  -3  -6 5.41019 2.54495   6
 -12   3  -6 10.7056  2.5391   6
 -12   3  -6 7.35910 2.29295   2
  12   3   6 7.82853 2.81965   6
 -13  -3  -6 26.0183  3.6910   6
 -13   3  -6 28.7649  3.5606   2
 -13   3  -6 25.0626  3.6395   6
  13   3   6 25.3192  3.7756   6
  13   4  -6 14.1690  2.8456   2
  12  -4  -6 15.9245  4.3952   3
  12  -4  -6 21.1223  3.8425   6
  12   4  -6 16.3063  2.7251   2
 -12   4   6 19.8202  4.0142   6
  12   4  -6 14.3506  3.0119   6
  11  -4  -6 36.8479  5.0304   6
 -11  -4   6 45.1108  4.0799   4
  11  -4  -6 37.2091  5.8287   3
  11   4  -6 45.2145  4.6474   6
 -11   4   6 37.8877  5.2315   6
  11   4  -6 41.0580  4.0636   2
 -10  -4   6 66.6669  5.0209   4
  10  -4  -6 53.4698  5.9319   6
  10  -4  -6 48.8737  6.5968   3
  10   4  -6 63.1319  5.0563   2
  10   4  -6 64.3378  5.5887   6
 -10   4   6 53.5396  5.9000   6
  -9  -4   6 10.0809  2.1089   4
   9  -4  -6 9.54501 3.24720   3
   9  -4  -6 9.73889 2.65410   6
   9   4  -6 11.1472  2.3449   2
   9   4  -6 14.0978  2.6468   6
  -9   4   6 12.7919  2.8581   2
  -9   4   6 10.8712  2.6670   6
   8  -4  -6 46.3877  4.1584   6
  -8  -4   6 41.8116  3.6323   4
  -8   4   6 32.7918  3.9213   6
   8   4  -6 44.8338  4.2731   6
   8   4  -6 36.8790  3.7691   2
  -8   4   6 33.7188  3.7189   2
  -7  -4   6 81.2064  8.0180   1
  -7  -4   6 78.8471  5.8098   4
   7  -4  -6 78.3425  5.8632   2
   7  -4  -6 68.9338  6.1619   6
  -7   4   6 78.6760  5.8074   2
   7   4  -6 90.6539  6.7032   6
  -7   4   6 74.5647  6.1908   6
   7   4  -6 85.6119  6.0737   2
   6  -4  -6 149.740  11.326   6
  -6  -4   6 155.373  10.632   4
   6  -4  -6 169.533  10.296   5
   6  -4  -6 152.432  10.460   2
  -6  -4   6 167.025  13.966   1
   6   4  -6 162.936  10.858   2
  -6   4   6 143.267  10.436   2
   6   4  -6 193.135  11.977   6
  -6   4   6 154.833  11.319   6
   5  -4  -6 25.4401  2.2179   5
   5  -4  -6 26.6966  2.3239   2
   5  -4  -6 27.7227  2.2810   4
  -5  -4   6 26.1278  2.7533   4
  -5  -4   6 33.3201  3.9908   1
   5  -4  -6 27.8269  2.4972   6
   5   4  -6 30.4295  3.2950   6
  -5   4   6 25.0265  2.2911   2
  -5   4   6 24.3176  2.4728   6
   5   4  -6 23.2209  2.9073   2
  -4  -4   6 151.170  13.579   1
  -4  -4   6 156.262  10.442   4
   4  -4  -6 167.450  10.105   4
   4  -4  -6 159.855  10.065   5
   4  -4  -6 164.425  10.165   2
   4  -4  -6 154.229  11.001   6
   4   4  -6 155.266  11.473   6
   4   4  -6 140.611  10.406   2
  -4   4   6 166.497  11.030   6
  -4   4   6 153.878  10.124   2
  -4   4   6 162.597  10.105   4
  -3  -4   6 224.167  19.167   1
  -3  -4   6 195.994  14.614   4
  -3  -4   6 239.098  14.676   5
   3  -4  -6 229.277  15.758   6
   3  -4  -6 247.779  14.471   4
   3  -4  -6 230.206  14.451   5
   3  -4  -6 234.636  14.547   2
  -3   4   6 248.390  15.772   6
  -3   4   6 216.211  14.525   2
  -3   4   6 248.069  14.496   4
   3   4  -6 217.890  14.600   2
   2  -4  -6 514.512  32.208   4
   2  -4  -6 535.547  35.088   6
  -2  -4   6 496.555  32.194   4
  -2  -4   6 510.062  32.714   5
  -2  -4   6 495.872  41.881   1
   2  -4  -6 539.012  32.198   5
   2  -4  -6 556.215  32.392   2
  -2   4   6 517.398  32.381   2
  -2   4   6 541.366  35.084   6
  -2   4   6 496.338  32.200   4
  -1  -4   6 61.8076  5.9403   5
   1  -4  -6 73.2626  4.9675   5
  -1  -4   6 65.3907  4.8097   4
   1  -4  -6 71.1189  5.2987   6
  -1  -4   6 74.9461  7.3063   1
   1  -4  -6 82.7127  4.8735   4
   1  -4  -6 74.1975  4.9171   2
  -1  -4   6 71.8521  4.6688   4
   1   4  -6 78.1329  4.6556   2
  -1   4   6 79.1390  5.3089   6
  -1   4   6 75.0771  4.9108   2
  -1   4   6 79.1993  4.8855   4
   0  -4   6 330.646  27.490   1
   0  -4  -6 322.094  20.870   2
   0  -4  -6 317.371  22.615   6
   0  -4  -6 346.134  20.861   5
   0  -4  -6 327.732  20.748   4
   0   4   6 320.880  22.600   6
   0   4   6 342.324  20.883   2
   0   4   6 360.524  20.803   4
   0   4   6 339.444  20.884   2
   1  -4   6 414.351  25.921   4
  -1  -4  -6 437.718  26.291   2
   1  -4   6 378.236  27.037   5
  -1  -4  -6 448.939  26.264   5
   1  -4   6 426.977  34.496   1
  -1  -4  -6 432.788  26.137   4
   1  -4   6 398.360  25.983   4
  -1  -4  -6 419.305  28.489   6
   1   4   6 406.219  28.461   6
   1   4   6 433.418  26.151   4
   1   4   6 439.538  26.286   2
   2  -4   6 801.910  64.199   1
  -2  -4  -6 791.971  53.778   6
  -2  -4  -6 843.405  49.612   2
  -2  -4  -6 831.882  49.384   4
   2  -4   6 673.296  49.400   4
   2  -4   6 711.430  50.159   5
  -2  -4  -6 840.558  49.453   5
   2  -4   6 820.976  63.272   3
   2   4   6 804.714  53.757   6
  -2   4  -6 735.365  49.529   2
   2   4   6 838.691  49.382   4
   2   4   6 897.400  49.656   2
   3  -4   6 96.4256  7.2033   4
   3  -4   6 121.432   9.978   3
   3  -4   6 104.301   8.167   5
  -3  -4  -6 105.662   6.987   2
   3  -4   6 119.155  10.310   1
  -3  -4  -6 111.321   6.951   4
  -3  -4  -6 108.399   7.583   6
   3   4   6 107.832   6.945   4
   3   4   6 111.163   6.993   2
  -3   4  -6 92.8638  7.1444   2
   3   4   6 107.710   7.562   6
  -4  -4  -6 183.714  12.247   4
  -4  -4  -6 204.617  13.438   6
   4  -4   6 215.601  12.638   4
   4  -4   6 235.661  16.759   3
  -4  -4  -6 198.976  12.344   2
   4  -4   6 183.073  13.247   5
   4   4   6 181.800  12.328   2
   4   4   6 194.828  12.273   4
  -4   4  -6 159.338  12.538   2
   4   4   6 188.097  13.368   6
  -5  -4  -6 279.378  19.410   6
   5  -4   6 300.619  18.072   4
   5  -4   6 276.684  18.634   5
  -5  -4  -6 286.496  17.885   2
  -5  -4  -6 265.886  17.755   4
   5  -4   6 305.176  23.450   3
  -5   4  -6 265.473  19.784   6
  -5   4  -6 304.726  18.209   2
   5   4   6 261.551  17.861   2
   5   4   6 278.399  19.365   6
   6  -4   6 694.959  40.430   4
  -6  -4  -6 607.393  43.823   6
   6  -4   6 659.621  40.853   5
  -6  -4  -6 573.752  40.389   2
   6  -4   6 749.353  51.761   3
  -6   4  -6 737.269  40.695   2
   6   4   6 592.054  40.421   2
  -6   4  -6 671.164  44.173   6
   6   4   6 551.826  43.738   6
   7  -4   6 113.064   9.764   3
   7  -4   6 108.606   7.820   5
   7  -4   6 107.610   7.296   4
  -7  -4  -6 90.1189  7.8707   6
  -7  -4  -6 101.588   7.325   2
  -7   4  -6 121.245   8.184   6
   7   4   6 93.7498  7.2511   2
   7   4   6 85.8489  7.7987   6
  -7   4  -6 106.223   7.297   2
  -8  -4  -6 40.9896  4.7623   6
   8  -4   6 45.4631  4.1040   4
   8  -4   6 49.0485  5.6456   3
   8   4   6 51.7666  4.8419   6
   8   4   6 45.8597  4.4134   2
  -8   4  -6 50.7818  4.1443   2
  -8   4  -6 47.8442  4.4652   6
   9  -4   6 85.7764  6.2571   4
  -9  -4  -6 68.4642  7.1690   6
   9  -4   6 83.3688  8.2169   3
   9   4   6 79.4016  7.2428   6
  -9   4  -6 91.0244  6.2920   2
  -9   4  -6 84.7202  6.8082   6
  10  -4   6 292.747  22.630   3
  10  -4   6 273.559  17.552   4
 -10  -4  -6 248.878  19.572   6
 -10   4  -6 283.576  19.118   6
  10   4   6 251.713  19.622   6
 -10   4  -6 261.366  17.563   2
  11  -4   6 80.3743  6.3469   4
 -11  -4  -6 73.7769  7.0894   6
  11  -4   6 85.8875  8.2262   3
 -11   4  -6 77.3066  6.7128   6
  11   4   6 73.3535  7.1701   6
 -11   4  -6 88.2458  6.3193   2
 -12  -4  -6 9.66751 2.96013   6
  12   4   6 10.1489  3.0719   6
 -12   4  -6 13.7083  2.7235   2
 -12   4  -6 12.4429  2.8067   6
  12  -5  -6 53.4071  7.4793   3
  12  -5  -6 64.2068  6.4754   6
 -12   5   6 68.1336  6.7708   6
  12   5  -6 58.0604  5.2647   2
  12   5  -6 64.4538  5.9276   6
  11  -5  -6 19.9996  4.0059   6
  11  -5  -6 21.5158  4.6110   3
 -11  -5   6 28.5048  3.3036   4
 -11   5   6 22.0985  4.0329   6
  11   5  -6 25.0813  3.6143   6
  11   5  -6 24.6955  3.1893   2
  10  -5  -6 489.460  38.074   6
  10  -5  -6 517.951  44.386   3
 -10  -5   6 599.855  34.752   4
  10   5  -6 539.729  34.838   2
  10   5  -6 596.785  37.929   6
   9  -5  -6 5.41300 2.90184   3
   9  -5  -6 4.27590 2.20891   6
  -9  -5   6 6.79565 1.97503   4
   9   5  -6 7.22568 2.04589   2
   9   5  -6 6.05442 2.36757   6
  -9   5   6 1.40198 2.18226   6
  -9   5   6 4.25858 2.15963   2
   8  -5  -6 11.3628  2.3209   6
  -8  -5   6 12.7456  2.3014   4
  -8  -5   6 11.3953  3.6298   1
   8   5  -6 13.4389  2.8066   6
   8   5  -6 12.3947  2.2614   2
  -8   5   6 12.6079  2.3445   2
  -8   5   6 8.04706 2.35771   6
  -7  -5   6 64.1935  7.1595   1
   7  -5  -6 57.0518  4.3505   5
  -7  -5   6 63.5885  4.7948   4
   7  -5  -6 53.8132  4.9190   6
   7   5  -6 63.0492  4.9150   2
  -7   5   6 52.2765  4.8873   6
   7   5  -6 64.5243  5.4835   6
  -7   5   6 58.3200  4.6510   2
  -6  -5   6 952.608  73.619   1
   6  -5  -6 830.067  56.656   5
   6  -5  -6 904.217  56.870   4
  -6  -5   6 1011.79   57.19   4
   6  -5  -6 916.306  61.964   6
   6   5  -6 950.189  62.399   6
   6   5  -6 962.399  57.477   2
  -6   5   6 959.720  57.219   2
  -6   5   6 793.490  61.899   6
   5  -5  -6 41.8313  3.3392   5
   5  -5  -6 42.9192  3.3680   4
  -5  -5   6 50.7181  3.8280   4
   5  -5  -6 43.4570  3.7378   6
  -5  -5   6 46.4117  5.5534   1
   5   5  -6 52.6807  4.0535   2
  -5   5   6 45.5015  3.7798   6
  -5   5   6 44.5763  3.4007   2
   4  -5  -6 145.741  10.250   5
  -4  -5   6 158.569  10.574   4
   4  -5  -6 168.454  10.361   2
  -4  -5   6 156.601  14.111   1
   4  -5  -6 155.426  10.255   4
   4  -5  -6 163.252  11.184   6
  -4   5   6 161.114  10.339   2
  -4   5   6 164.483  11.222   6
   4   5  -6 170.994  10.774   2
  -3  -5   6 555.135  45.784   1
   3  -5  -6 537.816  35.072   4
   3  -5  -6 561.790  35.277   2
   3  -5  -6 533.588  35.043   5
   3  -5  -6 597.594  38.215   6
  -3   5   6 555.051  38.218   6
  -3   5   6 590.950  35.289   2
   3   5  -6 600.896  35.583   2
  -2  -5   6 787.153  42.870   5
   2  -5  -6 704.660  42.086   5
   2  -5  -6 682.941  45.828   6
  -2  -5   6 585.914  54.656   1
   2  -5  -6 729.924  42.111   4
   2  -5  -6 677.522  42.316   2
  -2   5   6 712.407  42.327   2
   2   5  -6 579.080  42.405   2
  -2   5   6 675.501  45.827   6
  -1  -5   6 533.409  35.105   4
   1  -5  -6 588.260  35.359   5
  -1  -5   6 540.669  46.167   1
   1  -5  -6 594.650  38.470   6
  -1  -5   6 536.984  36.054   5
   1  -5  -6 572.428  35.298   4
  -1   5   6 645.067  35.541   2
  -1   5   6 550.264  38.440   6
   0  -5  -6 50.3766  3.5639   2
   0  -5  -6 52.2604  3.7487   5
   0  -5   6 48.5102  4.9052   5
   0  -5  -6 53.8950  3.9225   6
   0  -5   6 51.4329  6.2084   1
   0  -5  -6 52.3958  3.5376   4
   0   5   6 49.9607  3.5777   2
   0   5   6 50.7594  3.8621   6
   0   5   6 54.2955  3.5942   2
   1  -5   6 592.867  37.069   4
   1  -5   6 587.501  37.032   4
   1  -5   6 588.543  48.965   1
  -1  -5  -6 616.871  37.284   4
  -1  -5  -6 648.343  40.642   6
  -1  -5  -6 595.276  37.379   5
   1  -5   6 594.233  47.785   3
   1  -5   6 591.827  38.176   5
  -1  -5  -6 631.766  37.473   2
  -1   5  -6 594.781  37.197   2
   1   5   6 621.862  37.492   2
   1   5   6 570.775  40.595   6
  -2  -5  -6 155.994   9.917   2
   2  -5   6 141.188   9.703   4
   2  -5   6 159.024   9.874   4
   2  -5   6 144.694  13.346   3
   2  -5   6 153.764  10.973   5
  -2  -5  -6 167.930   9.908   4
  -2  -5  -6 159.445  10.770   6
   2  -5   6 141.504  14.081   1
  -2  -5  -6 154.715  10.063   5
   2   5   6 165.360  10.764   6
   2   5   6 160.775   9.927   2
  -2   5  -6 148.687   9.693   2
  -3  -5  -6 1455.30   86.44   4
  -3  -5  -6 1466.58   86.48   5
   3  -5   6 1403.47   86.47   4
   3  -5   6 1228.48  110.05   3
  -3  -5  -6 1454.12   86.82   2
  -3  -5  -6 1455.61   94.13   6
   3  -5   6 1499.81   87.30   5
  -3   5  -6 1332.72   86.77   2
   3   5   6 1306.12   86.84   2
   3   5   6 1436.50   94.10   6
   4  -5   6 35.0610  3.1673   4
  -4  -5  -6 32.8454  2.7111   4
   4  -5   6 31.9473  4.0909   5
   4  -5   6 37.9278  4.7763   3
  -4  -5  -6 33.7586  3.0548   5
  -4  -5  -6 33.9871  3.0523   6
  -4  -5  -6 32.6353  2.7509   2
   4  -5   6 50.6188  5.6865   1
   4   5   6 37.8083  2.8031   2
   4   5   6 35.7769  2.9867   6
  -4   5  -6 34.1397  3.0703   2
  -5  -5  -6 84.7293  6.2786   6
  -5  -5  -6 79.8767  5.6585   4
   5  -5   6 94.7496  7.0267   5
   5  -5   6 85.2370  6.0628   4
  -5  -5  -6 71.1803  5.9018   5
   5  -5   6 89.1755  8.2962   3
  -5  -5  -6 81.3407  5.6685   2
  -5   5  -6 80.3801  6.0726   2
   5   5   6 85.0434  5.7538   2
   5   5   6 82.2742  6.1764   6
   6  -5   6 1.42837 1.50968   4
  -6  -5  -6 2.83586 1.73261   5
  -6  -5  -6 1.22794 1.58565   6
   6  -5   6 1.52515 2.65763   3
   6  -5   6 4.14746 2.44928   5
   6   5   6 3.42806 1.46615   2
   6   5   6 5.32765 1.47298   6
  -6   5  -6 0.28914 1.65564   2
   7  -5   6 1157.97   69.92   5
   7  -5   6 1185.00   69.46   4
   7  -5   6 1093.53   88.31   3
  -7  -5  -6 1106.17   75.75   6
   7   5   6 1051.66   69.80   2
   7   5   6 1125.07   75.59   6
  -7   5  -6 1114.64   69.81   2
  -8  -5  -6 80.4721  7.5751   6
   8  -5   6 88.8537  6.6305   4
   8  -5   6 103.162   9.131   3
   8  -5   6 95.5404  7.3884   5
   8   5   6 88.6023  7.5285   6
   8   5   6 81.8136  6.8969   2
  -8   5  -6 102.441   7.430   6
  -8   5  -6 88.2398  6.6847   2
  -9  -5  -6 3.89555 2.80180   6
   9  -5   6 2.26388 2.69349   3
   9  -5   6 3.16298 1.77290   4
   9   5   6 3.94584 2.62499   6
  -9   5  -6 4.54514 1.85641   2
   9   5   6 2.47866 2.30514   2
  -9   5  -6 4.44571 2.17383   6
 -10  -5  -6 24.5907  4.2131   6
  10  -5   6 25.7114  4.3893   3
  10  -5   6 27.3629  3.0985   4
 -10   5  -6 26.8972  3.6046   6
  10   5   6 22.8686  4.0440   6
 -10   5  -6 23.8777  3.0175   2
 -11  -5  -6 329.598  24.694   6
  11  -5   6 367.695  28.650   3
  11  -5   6 346.091  22.351   4
  11   5   6 312.918  24.844   6
 -11   5  -6 378.948  24.458   6
 -11   5  -6 341.442  22.390   2
 -12  -5  -6 9.16668 2.92514   6
  12   5   6 4.48263 3.01612   6
 -12   5  -6 11.2218  2.7812   6
 -12   5  -6 8.95826 2.43860   2
  12   6  -6 4.28074 2.49626   6
  11  -6  -6 195.132  19.513   3
  11  -6  -6 198.867  16.689   6
  11   6  -6 251.026  16.529   6
  11   6  -6 251.496  15.169   2
 -10  -6   6 518.934  28.525   4
  10  -6  -6 379.369  31.032   6
  10  -6  -6 426.379  36.364   3
  10   6  -6 477.590  31.024   6
  10   6  -6 469.638  28.529   2
 -10   6   6 366.583  31.098   6
 -10   6   6 475.659  29.067   2
   9  -6  -6 10.6154  2.8002   6
  -9  -6   6 17.3172  2.7291   4
  -9   6   6 12.8635  2.8031   2
  -9   6   6 12.3824  2.8122   6
   9   6  -6 15.5402  3.1034   6
   9   6  -6 13.7600  2.5659   2
  -8  -6   6 7.47345 2.28083   4
   8  -6  -6 4.16995 2.05746   6
  -8   6   6 5.73371 1.93229   2
   8   6  -6 6.51565 2.21784   2
  -8   6   6 4.77757 2.02517   6
  -7  -6   6 402.620  23.437   4
   7  -6  -6 365.661  22.977   5
   7  -6  -6 342.399  25.092   6
  -7  -6   6 370.216  30.745   1
  -7   6   6 361.581  23.219   2
  -7   6   6 313.474  25.076   6
   7   6  -6 400.523  23.486   2
   6  -6  -6 435.719  27.471   5
  -6  -6   6 450.493  36.513   1
  -6  -6   6 421.015  27.831   4
   6  -6  -6 460.522  27.543   4
   6  -6  -6 438.063  29.951   6
  -6   6   6 406.216  27.644   2
   6   6  -6 485.300  28.070   2
  -6   6   6 420.721  30.002   6
   5  -6  -6 65.5567  4.5819   5
  -5  -6   6 69.3441  7.4845   1
   5  -6  -6 69.7185  4.5925   4
   5  -6  -6 62.3639  4.9111   6
  -5  -6   6 56.3323  4.8885   4
  -5   6   6 66.4425  5.0457   6
  -5   6   6 61.5906  4.5208   2
   5   6  -6 57.1246  4.9669   2
  -4  -6   6 118.645   8.556   4
   4  -6  -6 134.382   8.430   5
  -4  -6   6 139.307  12.237   1
   4  -6  -6 133.477   8.365   4
   4  -6  -6 119.792   9.065   6
  -4   6   6 137.467   9.156   6
   4   6  -6 111.746   8.661   2
  -4   6   6 134.445   8.464   2
   3  -6  -6 404.750  23.825   4
   3  -6  -6 410.201  23.883   5
  -3  -6   6 376.942  23.811   4
  -3  -6   6 390.081  31.799   1
   3  -6  -6 345.385  25.852   6
  -3   6   6 377.981  25.939   6
  -3   6   6 425.766  23.972   2
   3   6  -6 325.473  23.978   2
  -2  -6   6 105.390  10.560   1
   2  -6  -6 102.401   7.573   6
   2  -6  -6 113.236   6.994   4
  -2  -6   6 102.718   8.069   5
  -2  -6   6 108.587   6.826   4
   2  -6  -6 112.102   7.131   5
  -2   6   6 108.366   7.030   2
   2   6  -6 96.2014  6.9298   2
  -2   6   6 113.398   7.626   6
   1  -6  -6 76.8565  5.4740   5
   1  -6  -6 75.3181  5.7712   6
  -1  -6   6 84.1511  5.0755   4
  -1  -6   6 81.7797  6.6019   5
   1  -6  -6 77.6830  5.2964   4
  -1  -6   6 82.0023  5.0593   4
  -1  -6   6 75.1557  8.6701   1
  -1   6   6 79.6951  5.8226   6
  -1   6   6 88.3731  5.4063   2
   1   6  -6 79.2429  5.1209   2
   0  -6  -6 480.644  30.269   5
   0  -6   6 474.523  31.057   5
   0  -6  -6 480.648  30.149   4
   0  -6   6 517.474  29.885   4
   0  -6  -6 487.987  32.866   6
   0  -6   6 475.853  29.882   4
   0   6   6 502.838  30.336   2
   0   6  -6 485.726  30.034   2
   0   6   6 473.369  32.835   6
   0   6   6 480.985  30.322   2
  -1  -6  -6 373.630  23.002   4
  -1  -6  -6 383.291  23.213   5
   1  -6   6 407.248  24.143   5
  -1  -6  -6 351.071  25.075   6
   1  -6   6 336.803  31.139   1
   1  -6   6 368.619  22.731   4
   1  -6   6 360.896  22.725   4
   1   6   6 394.056  23.168   2
   1   6   6 352.371  25.059   6
   2  -6   6 26.8738  5.3874   1
   2  -6   6 20.6439  3.6967   3
  -2  -6  -6 23.1751  2.0100   4
  -2  -6  -6 24.0681  2.1953   6
   2  -6   6 18.8108  3.2798   5
   2  -6   6 21.1330  1.6962   4
  -2  -6  -6 23.7269  2.4003   5
   2   6   6 20.5950  2.1160   6
  -2   6  -6 25.7645  1.6645   2
   2   6   6 24.2301  2.0095   2
   3  -6   6 71.2078  7.4992   1
  -3  -6  -6 52.3995  3.8143   4
   3  -6   6 51.7653  3.7199   4
  -3  -6  -6 66.6216  4.2890   5
   3  -6   6 56.3380  6.0741   3
  -3  -6  -6 45.9076  4.1505   6
   3  -6   6 55.1745  5.2618   5
   3   6   6 52.1086  3.8651   2
  -3   6  -6 49.8567  3.6666   2
   3   6   6 56.8508  4.1672   6
  -4  -6  -6 350.133  24.883   6
   4  -6   6 368.051  22.884   4
   4  -6   6 402.206  23.948   5
  -4  -6  -6 352.126  22.997   5
  -4  -6  -6 385.039  22.805   4
   4  -6   6 342.765  29.684   3
   4   6   6 319.873  24.739   6
  -4   6  -6 378.104  22.899   2
   4   6   6 380.248  22.928   2
  -5  -6  -6 346.128  23.170   6
   5  -6   6 345.095  27.763   3
   5  -6   6 303.700  21.334   4
   5  -6   6 319.814  22.107   5
  -5  -6  -6 352.181  21.196   4
  -5  -6  -6 305.406  21.343   5
   5   6   6 348.930  23.055   6
   5   6   6 353.435  21.313   2
  -5   6  -6 340.618  21.438   2
  -6  -6  -6 118.573   8.988   5
   6  -6   6 139.574  12.063   3
   6  -6   6 127.876   9.013   4
  -6  -6  -6 137.425   9.801   6
   6  -6   6 129.071   9.817   5
   6   6   6 133.630   8.887   2
  -6   6  -6 117.524   9.060   2
   6   6   6 135.919   9.541   6
   7  -6   6 35.2427  4.5298   5
   7  -6   6 42.3511  3.7755   4
   7  -6   6 41.8073  5.6756   3
  -7  -6  -6 32.5899  3.6579   5
  -7  -6  -6 38.6405  4.3532   6
   7   6   6 37.0921  3.7760   6
   7   6   6 44.0737  3.7804   2
  -7   6  -6 36.4756  3.8832   2
  -8  -6  -6 75.9179  6.8902   6
  -8  -6  -6 56.7827  5.7609   5
   8  -6   6 74.5207  8.0153   3
   8  -6   6 73.1937  6.4814   5
   8  -6   6 84.9861  5.8638   4
   8   6   6 81.6075  6.1738   2
   8   6   6 73.7548  6.3962   6
  -8   6  -6 76.2719  5.9198   2
  -9  -6  -6 274.342  20.928   6
   9  -6   6 285.403  18.637   4
   9  -6   6 314.562  24.251   3
  -9   6  -6 289.071  18.759   2
   9   6   6 279.188  19.303   2
   9   6   6 282.633  20.747   6
  10  -6   6 437.436  27.333   4
 -10  -6  -6 417.771  30.286   6
  10  -6   6 420.952  34.957   3
  10   6   6 411.260  30.347   6
 -10   6  -6 452.436  27.481   2
 -11  -6  -6 38.7597  4.9726   6
  11  -6   6 49.9957  5.8721   3
  11   6   6 41.2299  5.5728   6
 -11   6  -6 44.0789  4.1925   2
 -12  -6  -6 12.3875  3.0918   6
  11   7  -6 2.27292 2.27534   2
 -11   7   6 1.09668 2.58525   6
  10  -7  -6 56.8626  7.2742   3
 -10   7   6 69.2521  6.1203   2
  10   7  -6 68.3040  5.5931   2
   9  -7  -6 118.621  10.177   6
  -9  -7   6 153.011   9.854   4
   9   7  -6 146.869   9.646   2
  -9   7   6 118.610  10.313   6
  -9   7   6 134.551   9.696   2
  -8  -7   6 138.336   9.113   4
   8  -7  -6 119.424   9.292   6
   8   7  -6 136.166   8.942   2
  -8   7   6 107.116   9.312   6
  -8   7   6 117.315   8.698   2
   7  -7  -6 72.7673  5.8524   6
  -7  -7   6 70.9143  5.9218   4
   7  -7  -6 73.6828  5.4422   5
  -7   7   6 75.6138  5.5017   2
   7   7  -6 78.5421  5.9747   2
  -7   7   6 65.7547  5.8678   6
   6  -7  -6 34.7095  3.1591   5
   6  -7  -6 36.3658  3.3235   6
  -6  -7   6 34.6952  6.0569   1
   6  -7  -6 38.3446  3.0722   4
  -6  -7   6 34.4451  3.6275   4
  -6   7   6 39.9410  3.2196   2
  -6   7   6 27.6482  3.2682   6
   6   7  -6 35.7757  3.6320   2
  -5  -7   6 443.154  34.580   1
   5  -7  -6 407.877  25.590   5
   5  -7  -6 393.931  27.770   6
   5  -7  -6 428.655  25.580   4
  -5  -7   6 421.440  25.768   4
   5   7  -6 352.240  25.852   2
  -5   7   6 422.627  25.702   2
  -5   7   6 401.357  27.853   6
   4  -7  -6 231.974  14.300   4
  -4  -7   6 219.052  14.296   4
   4  -7  -6 226.057  15.518   6
   4  -7  -6 232.146  14.419   5
  -4  -7   6 226.175  20.127   1
   4   7  -6 200.712  14.423   2
  -4   7   6 238.661  14.418   2
  -4   7   6 223.854  15.615   6
   3  -7  -6 188.574  12.315   5
  -3  -7   6 193.349  12.031   4
   3  -7  -6 183.799  13.213   6
   3  -7  -6 200.196  12.208   4
  -3  -7   6 177.648  17.414   1
   3   7  -6 174.602  12.145   2
  -3   7   6 206.879  12.291   2
  -3   7   6 197.687  13.301   6
   2  -7  -6 4.58324 1.14513   6
  -2  -7   6 7.29801 3.84785   1
  -2  -7   6 3.70861 0.70630   4
   2  -7  -6 4.79412 1.08969   4
   2  -7  -6 3.73107 1.23797   5
  -2   7   6 6.13051 1.13780   2
  -2   7   6 3.83813 1.14985   6
   2   7  -6 4.41551 0.83162   2
   1  -7  -6 241.746  16.843   5
   1  -7  -6 274.081  16.704   4
  -1  -7   6 280.081  17.889   5
   1  -7  -6 245.203  18.183   6
  -1  -7   6 257.078  23.511   1
  -1  -7   6 269.538  16.435   4
  -1   7   6 269.887  18.222   6
   1   7  -6 284.974  16.544   2
  -1   7   6 267.940  16.818   2
   0  -7  -6 342.995  22.627   6
   0  -7  -6 315.861  20.906   5
   0  -7  -6 332.318  20.735   4
   0  -7   6 330.853  20.444   4
   0  -7   6 309.502  28.770   1
   0  -7   6 339.764  21.897   5
   0   7   6 343.530  20.885   2
   0   7   6 334.433  20.879   2
   0   7   6 344.811  22.622   6
   0   7  -6 319.655  20.553   2
  -1  -7  -6 123.077   8.913   6
   1  -7   6 112.463  13.055   1
  -1  -7  -6 130.297   8.467   5
  -1  -7  -6 125.890   8.172   4
   1  -7   6 124.142   7.866   4
   1  -7   6 124.438   9.437   5
   1   7   6 118.790   8.229   2
  -1   7  -6 131.311   7.905   2
   1   7   6 135.842   8.963   6
  -2  -7  -6 4.31686 1.04114   4
   2  -7   6 5.64661 4.53898   1
  -2  -7  -6 4.32180 1.27254   6
  -2  -7  -6 5.81970 1.50322   5
   2  -7   6 4.18782 2.57644   5
   2  -7   6 2.96184 0.68651   4
   2   7   6 3.48768 1.06500   2
   2   7   6 2.04372 1.03136   6
  -2   7  -6 3.99696 0.68591   2
  -3  -7  -6 2.01793 1.23789   6
   3  -7   6 7.79372 4.57219   1
  -3  -7  -6 1.91138 1.01822   4
   3  -7   6 3.21253 0.92755   4
  -3  -7  -6 3.75078 1.47667   5
   3  -7   6 3.02389 2.41439   5
   3   7   6 3.93569 1.17027   6
   3   7   6 1.18119 1.00288   2
  -4  -7  -6 194.885  13.373   5
  -4  -7  -6 212.491  14.317   6
   4  -7   6 206.620  17.561   3
   4  -7   6 201.197  14.134   5
   4  -7   6 201.034  13.002   4
  -4  -7  -6 206.682  13.022   4
   4   7   6 188.618  13.084   2
  -4   7  -6 206.781  12.995   2
   4   7   6 206.906  14.170   6
  -5  -7  -6 37.3848  3.9379   5
  -5  -7  -6 48.9680  4.1871   6
   5  -7   6 38.9856  3.7789   4
  -5  -7  -6 44.2419  3.5016   4
   5  -7   6 46.0324  4.9730   5
   5  -7   6 42.6407  5.8760   3
  -5   7  -6 46.0964  3.7282   2
   5   7   6 46.6645  3.5674   2
   5   7   6 41.6269  3.7748   6
   6  -7   6 0.67680 1.71561   4
   6  -7   6 8.59014 3.21201   3
  -6  -7  -6 -2.2530  1.6174   5
   6  -7   6 -1.6117  2.4592   5
  -6  -7  -6 -1.6080  1.9388   6
  -6   7  -6 1.97775 1.90495   2
   6   7   6 3.90157 1.55284   6
   6   7   6 2.11974 1.42408   2
  -7  -7  -6 113.552   9.237   5
   7  -7   6 135.953  10.159   5
   7  -7   6 156.595  12.623   3
  -7  -7  -6 130.379  10.384   6
   7  -7   6 138.414   9.305   4
  -7   7  -6 131.433   9.423   2
   7   7   6 127.303   9.235   2
   7   7   6 130.878   9.863   6
   8  -7   6 34.0389  3.5011   4
  -8  -7  -6 25.6423  4.1851   6
   8  -7   6 33.1728  5.0768   3
  -8   7  -6 26.0655  3.4690   2
   8   7   6 29.0308  3.6402   2
   8   7   6 27.2264  3.7255   6
   9  -7   6 49.0848  6.3528   3
   9  -7   6 45.2306  4.2581   4
  -9  -7  -6 43.9360  5.4654   6
  -9   7  -6 47.7848  4.2950   2
   9   7   6 47.2599  4.9805   2
   9   7   6 37.6155  4.9703   6
 -10  -7  -6 17.8657  3.7162   6
  10  -7   6 18.1500  4.3236   3
  10   7   6 14.7548  3.6624   6
 -10   7  -6 15.5563  2.6960   2
 -11   7  -6 50.7782  4.6208   2
 -10   8   6 4.84229 2.59187   2
 -10   8   6 3.19683 2.60628   6
  10   8  -6 6.73362 2.55220   2
   9   8  -6 19.1292  3.1333   2
  -9   8   6 15.1430  3.1921   6
  -9   8   6 20.7652  3.1573   2
  -8  -8   6 316.814  22.561   4
   8   8  -6 347.345  22.658   2
  -8   8   6 379.504  22.607   2
  -7  -8   6 279.489  17.207   4
   7   8  -6 245.400  17.128   2
  -7   8   6 273.324  17.019   2
  -7   8   6 246.326  18.324   6
   6  -8  -6 30.2917  3.1688   5
  -6  -8   6 30.4637  3.0948   4
  -6   8   6 28.1951  2.9294   2
  -6   8   6 29.1044  3.0987   6
   6   8  -6 32.0865  3.2300   2
  -5  -8   6 17.6771  5.1241   1
   5  -8  -6 20.2778  2.3794   5
   5  -8  -6 22.0730  2.2518   4
  -5  -8   6 20.5750  2.1796   4
   5  -8  -6 20.8839  2.2841   6
  -5   8   6 17.4737  2.3168   6
   5   8  -6 16.1663  2.2611   2
  -5   8   6 15.2172  2.0591   2
   4  -8  -6 381.929  23.018   5
  -4  -8   6 349.027  22.698   4
   4  -8  -6 334.180  24.796   6
  -4  -8   6 367.769  31.548   1
   4  -8  -6 382.951  22.887   4
  -4   8   6 372.762  24.945   6
  -4   8   6 360.138  22.995   2
   4   8  -6 367.168  22.919   2
   3  -8  -6 217.833  15.213   6
  -3  -8   6 215.720  20.458   1
  -3  -8   6 219.176  13.778   4
   3  -8  -6 210.010  14.150   5
   3  -8  -6 233.017  14.058   4
   3   8  -6 221.360  13.923   2
  -3   8   6 229.946  14.133   2
  -3   8   6 211.146  15.262   6
  -2  -8   6 230.768  14.083   4
  -2  -8   6 226.686  21.031   1
   2  -8  -6 215.987  14.554   5
   2  -8  -6 211.143  14.341   4
   2  -8  -6 226.483  15.629   6
   2   8  -6 240.582  14.199   2
  -2   8   6 223.291  14.449   2
  -2   8   6 232.380  15.683   6
   1  -8  -6 56.6671  4.5017   6
  -1  -8   6 60.3489  3.7868   4
   1  -8  -6 59.8419  4.4534   5
   1  -8  -6 57.3121  4.1366   4
  -1  -8   6 50.0245  8.8350   1
  -1   8   6 60.2260  4.5633   6
   1   8  -6 58.2089  3.8163   2
  -1   8   6 56.7869  4.2087   2
   0  -8  -6 246.454  16.416   6
   0  -8   6 239.183  16.347   5
   0  -8   6 221.280  22.418   1
   0  -8  -6 225.926  15.291   5
   0  -8  -6 240.999  15.042   4
   0  -8   6 227.936  14.713   4
   0   8   6 244.402  16.416   6
   0   8  -6 254.188  14.820   2
   0   8   6 240.251  15.155   2
   0   8   6 227.496  15.137   2
  -1  -8  -6 90.6408  5.9155   4
   1  -8   6 94.8969  7.5399   5
  -1  -8  -6 88.4535  6.5033   6
  -1  -8  -6 85.1698  6.2547   5
   1  -8   6 75.8883 11.1178   1
   1  -8   6 86.1523  5.5611   4
   1   8   6 86.4955  5.9923   2
  -1   8  -6 89.2118  5.5972   2
   1   8   6 87.3756  6.4609   6
   2  -8   6 296.853  19.819   5
  -2  -8  -6 292.151  20.356   6
   2  -8   6 273.800  18.326   4
  -2  -8  -6 293.183  18.940   5
  -2  -8  -6 301.775  18.623   4
   2  -8   6 362.707  27.681   1
   2   8   6 295.706  18.745   2
  -2   8  -6 289.183  18.416   2
   2   8   6 295.937  20.292   6
   3  -8   6 158.206  10.748   5
  -3  -8  -6 150.398   9.333   4
  -3  -8  -6 138.010   9.659   5
   3  -8   6 139.324   9.058   4
  -3  -8  -6 138.012  10.237   6
   3   8   6 137.939  10.104   6
  -3   8  -6 137.309   9.064   2
   3   8   6 144.127   9.329   2
  -4  -8  -6 122.359   8.735   4
   4  -8   6 148.027  10.286   5
  -4  -8  -6 135.041   9.201   5
   4  -8   6 130.923   8.661   4
  -4  -8  -6 140.815   9.761   6
   4   8   6 125.936   8.774   2
  -4   8  -6 132.414   8.649   2
   4   8   6 128.683   9.521   6
  -5  -8  -6 43.8273  4.1621   6
   5  -8   6 36.7291  5.8332   3
  -5  -8  -6 41.3839  3.4768   4
  -5  -8  -6 36.8283  3.8261   5
   5  -8   6 37.0717  3.5610   4
   5  -8   6 41.3938  5.1182   5
   5   8   6 37.2095  3.6336   6
   5   8   6 41.1179  3.5537   2
  -5   8  -6 44.0032  3.5454   2
   6  -8   6 61.6600  5.1421   4
   6  -8   6 64.7809  7.7075   3
  -6  -8  -6 56.9471  5.4071   5
  -6  -8  -6 68.0874  5.9614   6
  -6   8  -6 62.8069  5.1826   2
   6   8   6 66.3774  4.9651   2
   6   8   6 62.0613  5.3350   6
  -7  -8  -6 165.761  12.349   6
   7  -8   6 162.103  14.510   3
   7  -8   6 158.652  10.876   4
   7   8   6 165.154  11.675   6
   7   8   6 159.351  10.845   2
  -7   8  -6 134.863  10.859   2
   8  -8   6 139.656  11.904   3
   8  -8   6 116.167   8.492   4
  -8   8  -6 107.885   8.612   2
   8   8   6 118.811   8.716   2
   8   8   6 113.882   9.278   6
   9  -8   6 69.0221  8.0102   3
  -9   8  -6 68.4684  5.8233   2
   9   8   6 71.1975  6.7060   6
   9   8   6 69.3320  6.2919   2
 -10   8  -6 6.80887 2.35917   2
  10   8   6 4.08010 2.87451   2
  10   8   6 4.03619 3.06242   6
  -9   9   6 29.8852  3.5601   2
  -9   9   6 16.6100  3.3584   6
   9   9  -6 22.6642  3.3998   2
  -8   9   6 107.236   8.334   6
   8   9  -6 93.3873  7.7313   2
  -8   9   6 114.010   7.782   2
   7   9  -6 227.199  16.771   2
  -7   9   6 244.928  18.167   6
  -7   9   6 303.634  16.984   2
  -6  -9   6 129.474   8.493   4
  -6   9   6 127.699   9.347   6
   6   9  -6 116.864   8.570   2
  -6   9   6 128.001   8.594   2
   5  -9  -6 25.6695  2.4735   4
  -5  -9   6 21.9931  2.2193   4
  -5   9   6 23.3907  2.4245   2
   5   9  -6 23.8217  2.3817   2
  -5   9   6 20.5130  2.6682   6
  -4  -9   6 119.080   7.784   4
   4  -9  -6 119.508   8.025   4
   4   9  -6 114.765   7.880   2
  -4   9   6 119.695   8.765   6
  -4   9   6 128.045   8.160   2
  -3  -9   6 191.954  19.634   1
  -3  -9   6 199.310  12.646   4
   3  -9  -6 192.223  13.189   5
   3  -9  -6 204.210  12.972   4
   3   9  -6 212.722  12.781   2
  -3   9   6 207.309  14.159   6
  -3   9   6 194.915  13.002   2
   2  -9  -6 144.604   9.959   5
  -2  -9   6 148.914   9.384   4
  -2  -9   6 149.587  16.216   1
   2  -9  -6 147.906   9.725   4
   2   9  -6 155.948   9.480   2
  -2   9   6 146.662  10.619   6
  -2   9   6 148.012   9.799   2
  -1  -9   6 5.78467 5.77031   1
   1  -9  -6 5.28677 1.59892   5
   1  -9  -6 3.43881 1.12476   4
  -1  -9   6 4.20660 0.74153   4
  -1   9   6 3.80075 1.23281   2
  -1   9   6 5.10341 1.42208   6
   1   9  -6 4.18258 0.82346   2
   0  -9  -6 88.4002  6.6129   5
   0  -9   6 87.6105  7.7008   5
   0  -9  -6 97.1399  6.2258   4
   0  -9   6 90.6780 12.5594   1
   0  -9   6 90.4170  5.8285   4
   0   9  -6 92.4980  5.8858   2
   0   9   6 92.9823  6.8444   6
   0   9   6 89.1867  6.2937   2
   0   9   6 93.5116  6.3055   2
   1  -9   6 172.736  18.786   1
   1  -9   6 182.433  12.862   5
   1  -9   6 177.995  10.992   4
  -1  -9  -6 165.164  11.696   5
  -1  -9  -6 172.376  11.335   4
  -1   9  -6 180.057  11.069   2
   1   9   6 176.864  11.420   2
   1   9   6 177.885  11.442   2
   1   9   6 174.440  12.382   6
  -2  -9  -6 30.6985  3.2751   5
   2  -9   6 31.9851  2.3396   4
   2  -9   6 38.1825  8.5065   1
   2  -9   6 38.2207  4.7926   5
  -2  -9  -6 30.9723  2.7646   4
   2   9   6 30.0123  2.8144   2
  -2   9  -6 30.4609  2.3506   2
   2   9   6 31.2021  2.9532   6
   3  -9   6 1.65653 3.11127   5
  -3  -9  -6 5.23063 1.99104   5
  -3  -9  -6 2.10838 1.14278   4
   3  -9   6 0.16807 5.24721   1
   3  -9   6 2.69717 1.09785   4
   3   9   6 2.31469 1.32108   2
  -3   9  -6 4.74536 1.06750   2
   3   9   6 2.23835 1.40032   6
  -4  -9  -6 34.8634  3.8332   5
   4  -9   6 41.9369  3.3037   4
  -4  -9  -6 38.9494  3.3769   4
   4   9   6 40.7546  3.6571   6
   4   9   6 37.1233  3.2910   2
  -4   9  -6 42.7849  3.2567   2
   5  -9   6 182.067  12.106   4
  -5   9  -6 199.918  12.154   2
   5   9   6 174.202  12.086   2
   5   9   6 177.358  13.117   6
   6  -9   6 1.34989 2.04008   4
   6   9   6 1.94369 1.72886   2
  -6   9  -6 1.67847 2.04256   2
   6   9   6 0.96086 1.65185   6
   7   9   6 0.61440 1.86850   2
  -7   9  -6 2.29950 2.18326   2
   7   9   6 0.11179 1.96699   6
  -8   9  -6 16.9961  3.1574   2
   8   9   6 19.4640  3.1882   2
   8   9   6 15.1989  3.0922   6
   9   9   6 152.482  11.669   2
  -9   9  -6 172.343  11.484   2
   8  10  -6 15.3583  2.4942   2
  -8  10   6 16.1300  2.8072   2
  -7  10   6 125.457   8.043   2
   7  10  -6 98.9016  7.7018   2
  -7  10   6 110.514   8.545   6
   6  10  -6 61.8883  4.9557   2
  -6  10   6 66.8298  5.2149   2
  -6  10   6 74.0886  5.6455   6
   5 -10  -6 29.8060  2.9055   4
  -5  10   6 27.0388  2.9164   2
   5  10  -6 28.2022  2.6039   2
  -5  10   6 31.5603  3.2173   6
   4 -10  -6 134.368   8.617   4
  -4 -10   6 124.497   8.216   4
  -4  10   6 122.754   8.593   2
  -4  10   6 127.559   9.361   6
   4  10  -6 127.913   8.328   2
   3 -10  -6 297.884  19.166   4
  -3 -10   6 302.582  18.824   4
  -3  10   6 313.021  20.912   6
   3  10  -6 295.214  18.950   2
  -3  10   6 302.081  19.281   2
   2 -10  -6 0.93822 1.16894   4
  -2 -10   6 1.82753 0.76952   4
  -2  10   6 1.94053 1.47227   6
  -2  10   6 4.93603 1.43835   2
   2  10  -6 1.00477 0.87622   2
  -1 -10   6 4.32114 0.79015   4
   1 -10  -6 6.29239 1.41930   4
  -1  10   6 5.21749 1.45774   2
   1  10  -6 3.28616 0.92473   2
  -1  10   6 4.22210 1.47143   6
   0 -10  -6 306.681  19.043   4
   0 -10   6 294.902  18.684   4
   0  10   6 309.961  19.195   2
   0  10   6 294.184  20.809   6
  -1 -10  -6 247.510  15.267   4
   1 -10   6 235.823  14.914   4
   1 -10   6 248.943  16.897   5
   1  10   6 230.332  15.354   2
   1  10   6 245.157  16.691   6
   1  10   6 231.780  15.365   2
   2 -10   6 18.1017  1.6585   4
  -2 -10  -6 16.5366  1.9952   4
  -2  10  -6 14.7318  1.6830   2
   2  10   6 18.3018  2.1676   2
   2  10   6 14.4262  2.2317   6
   3 -10   6 100.179   6.702   4
  -3 -10  -6 101.361   6.967   4
   3  10   6 103.226   7.596   6
   3  10   6 95.9690  6.9841   2
  -3  10  -6 103.767   6.734   2
  -4 -10  -6 283.780  17.955   4
   4 -10   6 305.061  17.905   4
  -4  10  -6 285.521  17.904   2
   4  10   6 258.538  19.526   6
   4  10   6 270.062  18.047   2
   5  10   6 36.5421  4.0448   6
  -5  10  -6 49.7774  3.9519   2
   5  10   6 42.9270  3.7826   2
   6  10   6 -0.0472  1.8846   6
  -6  10  -6 -1.9573  1.9908   2
   6  10   6 1.57382 1.76902   2
  -7  10  -6 110.575   8.200   2
   7  10   6 110.214   8.537   6
   7  10   6 98.8041  7.8568   2
  -8  10  -6 138.272  10.326   2
   8  10   6 144.461  10.310   2
  -6  11   6 0.47832 1.71438   2
   6  11  -6 2.50975 1.27154   2
  -5  11   6 32.0415  3.1635   2
  -5  11   6 33.3328  3.4422   6
   5  11  -6 30.5363  2.6923   2
  -4  11   6 25.0704  2.7219   2
  -4  11   6 24.4826  2.9603   6
   4  11  -6 22.0985  2.2368   2
   3  11  -6 174.785  10.752   2
  -3  11   6 161.512  11.096   2
  -3  11   6 164.835  12.054   6
   2 -11  -6 1.07928 1.37253   4
  -2  11   6 1.97906 1.42855   2
  -2  11   6 0.90174 1.60608   6
  -1 -11   6 31.2710  2.4035   4
   1 -11  -6 34.1810  2.9511   4
  -1  11   6 31.8578  3.3923   6
  -1  11   6 34.5792  3.0724   2
   0 -11   6 43.2128  3.0534   4
   0 -11  -6 43.3246  3.5014   4
   0  11   6 42.9001  3.9230   6
   0  11   6 44.1284  3.6545   2
   1 -11   6 181.023  11.280   4
  -1 -11  -6 178.702  11.623   4
   1  11   6 183.515  12.787   6
   1  11   6 174.289  11.758   2
   1  11   6 174.270  11.749   2
  -2 -11  -6 4.82853 1.47423   4
   2  11   6 4.62408 1.62463   2
   2  11   6 6.77571 1.77938   6
   2  11   6 3.44436 1.57052   2
   3  11   6 5.89981 1.74592   2
   3  11   6 6.33837 1.80549   6
  -4  11  -6 118.958   7.685   2
   4  11   6 97.4955  7.7056   2
   4  11   6 116.108   8.486   6
   5  11   6 233.647  16.138   6
   5  11   6 199.390  14.763   2
  -5  11  -6 244.739  14.925   2
   6  11   6 13.6795  2.5313   2
  -6  11  -6 15.3153  2.9914   2
  -2  12   6 237.320  15.786   6
  -2  12   6 206.355  14.411   2
  -1  12   6 13.1614  2.4676   6
  -1  12   6 14.8722  2.1944   2
   0  12   6 43.4282  3.8792   2
   0  12   6 49.2321  4.3368   6
   1  12   6 52.1147  4.2268   2
   1  12   6 48.9226  4.5445   6
   2  12   6 352.249  23.680   2
   2  12   6 391.719  23.741   2
   2  12   6 371.255  25.714   6
  13   0  -7 5.33268 2.76983   6
  12   0  -7 0.88806 2.53832   6
 -12   0   7 4.85431 2.50279   6
  12   0  -7 2.04018 2.29836   2
 -11   0   7 3.35337 2.33569   6
  11   0  -7 0.41898 2.18549   6
  11   0  -7 3.08615 2.46101   2
 -10   0   7 -0.2666  2.0156   6
  10   0  -7 2.29461 2.31057   2
  10   0  -7 0.46777 2.47695   6
   9   0  -7 4.69112 2.38611   2
  -9   0   7 1.60942 2.11925   4
  -9   0   7 -1.2125  1.8477   6
   9   0  -7 0.57794 2.20695   6
  -8   0   7 1.52449 1.74811   4
  -8   0   7 3.73153 1.65657   6
   8   0  -7 1.49093 2.27307   6
   8   0  -7 1.88813 1.93455   2
   7   0  -7 0.48492 1.37180   2
  -7   0   7 1.41503 1.31653   6
   7   0  -7 -0.0893  1.8604   6
  -7   0   7 1.94193 1.39564   4
  -6   0   7 0.68450 1.02460   6
  -6   0   7 4.46760 1.53166   1
   6   0  -7 3.18284 1.15775   2
  -6   0   7 2.53842 1.12453   4
   6   0  -7 0.06018 1.55283   3
   6   0  -7 0.16617 1.43229   6
  -5   0   7 3.74861 1.46218   1
   5   0  -7 -0.0263  1.3752   3
  -5   0   7 1.35217 0.86729   6
   5   0  -7 0.33970 0.81217   2
  -5   0   7 1.19214 0.86704   4
   5   0  -7 1.06034 1.23236   6
   4   0  -7 2.56840 0.75784   2
  -4   0   7 2.61686 0.74431   6
  -4   0   7 3.88782 0.75628   4
   4   0  -7 3.02925 0.47420   5
   4   0  -7 1.52342 0.92490   6
  -4   0   7 -0.4281  1.2178   1
   3   0  -7 2.35513 0.90173   6
   3   0  -7 -0.7251  0.6111   2
   3   0  -7 1.02893 0.49854   5
  -3   0   7 0.32933 0.58887   6
  -3   0   7 0.67071 0.61610   4
   2   0  -7 2.51265 0.53768   2
  -2   0   7 0.64914 0.46498   6
  -2   0   7 1.22807 0.48151   4
   2   0  -7 2.14075 0.66543   6
  -1   0   7 -0.4135  0.4877   6
   1   0  -7 -1.0356  0.4559   2
   1   0  -7 0.85057 0.63606   6
  -1   0   7 -1.0851  0.4498   4
   0   0   7 0.55349 0.38904   4
   0   0  -7 1.67014 0.50389   6
   0   0  -7 0.50913 0.40877   2
   0   0   7 1.14406 0.46963   6
   1   0   7 -0.1636  0.5955   6
   1   0   7 -0.0400  0.4815   4
  -1   0  -7 2.75328 0.59985   2
   2   0   7 1.01945 0.53579   4
  -2   0  -7 1.64438 0.59567   2
   2   0   7 -0.2339  0.7276   6
  -2   0  -7 1.43577 0.51607   6
   3   0   7 3.29364 1.15898   6
   3   0   7 1.15892 0.65100   4
  -3   0  -7 1.90870 0.75201   2
  -3   0  -7 1.03986 0.62134   6
   4   0   7 1.00431 1.42174   6
  -4   0  -7 2.03615 0.95609   2
  -4   0  -7 1.96019 0.75073   6
  -5   0  -7 0.70804 0.90947   6
   5   0   7 1.76399 1.11068   4
   5   0   7 2.77014 1.69725   6
  -6   0  -7 1.01559 1.42781   2
   6   0   7 0.59101 1.33298   4
   6   0   7 0.51113 1.66687   6
  -6   0  -7 4.07241 1.35271   6
   7   0   7 1.82102 1.74537   6
  -7   0  -7 1.14337 1.76657   2
   7   0   7 1.28755 1.70218   4
  -7   0  -7 1.34268 1.60667   6
   8   0   7 1.91437 1.92921   4
  -8   0  -7 1.27739 2.12575   2
  -8   0  -7 0.35593 1.94818   6
   8   0   7 0.99184 1.77679   6
  -9   0  -7 1.73565 2.44696   6
   9   0   7 -1.0574  1.9644   4
   9   0   7 2.74906 1.89035   6
  -9   0  -7 -1.8589  1.9872   2
  10   0   7 -0.5518  1.8581   6
  10   0   7 -2.3105  1.9932   4
 -10   0  -7 2.20227 2.43288   6
 -10   0  -7 1.19671 2.12736   2
 -11   0  -7 -1.1584  2.0782   2
 -11   0  -7 -0.8365  2.1413   6
 -12   0  -7 0.49218 2.10531   2
 -12   0  -7 2.12919 2.22973   6
 -13   0  -7 -0.5219  2.1687   6
 -13   0  -7 2.45056 2.33025   2
  13  -1  -7 47.2652  5.3063   6
  13   1  -7 38.5286  4.6217   6
  13   1  -7 36.5280  4.4167   2
 -13   1   7 50.3072  5.1029   6
  12  -1  -7 525.223  34.887   6
 -12   1   7 511.561  34.756   6
  12   1  -7 455.566  31.840   2
  12   1  -7 498.696  34.598   6
  11  -1  -7 2.42282 2.78630   6
  11  -1  -7 3.52709 2.55959   2
  11   1  -7 8.41816 2.64750   2
 -11   1   7 1.83975 2.52816   6
  11   1  -7 2.22490 2.34507   6
 -10  -1   7 12.7464  2.7441   6
  10  -1  -7 17.5990  3.6543   6
  10  -1  -7 18.7809  3.3084   2
 -10  -1   7 21.3916  3.0545   4
  10   1  -7 16.3439  3.2303   2
  10   1  -7 20.2461  3.4603   6
 -10   1   7 20.6366  3.3715   6
  -9  -1   7 41.1143  4.1660   4
   9  -1  -7 41.6513  4.1992   2
   9  -1  -7 40.5249  4.8036   6
  -9  -1   7 31.5953  3.8422   6
  -9   1   7 32.6906  4.1901   6
   9   1  -7 40.6122  4.4290   2
   9   1  -7 48.4503  4.6308   6
  -8  -1   7 359.801  25.078   4
   8  -1  -7 348.965  31.485   3
  -8  -1   7 364.312  26.894   6
   8  -1  -7 369.557  27.402   6
   8  -1  -7 390.670  25.129   2
  -8   1   7 433.827  25.106   4
   8   1  -7 412.554  25.345   2
   8   1  -7 455.764  27.688   6
  -8   1   7 400.440  27.109   6
  -7  -1   7 84.2514  6.2076   4
   7  -1  -7 81.3298  7.7257   3
   7  -1  -7 88.1336  6.0910   2
  -7  -1   7 86.2798  6.3447   6
   7  -1  -7 79.9064  6.8078   6
   7   1  -7 83.7315  6.2630   2
   7   1  -7 80.1438  6.9824   6
  -7   1   7 86.6013  6.4605   6
  -7   1   7 87.9321  6.0742   4
  -6  -1   7 10.9106  2.1137   1
   6  -1  -7 10.4257  1.9378   6
  -6  -1   7 12.4610  1.5260   6
  -6  -1   7 9.94374 1.69224   4
  -6   1   7 11.5950  1.5707   4
   6   1  -7 7.92602 2.08966   6
   6   1  -7 12.0704  1.6987   2
  -6   1   7 11.5722  1.6570   6
   5  -1  -7 133.132   9.991   6
  -5  -1   7 144.513  11.817   1
  -5  -1   7 147.675   9.108   4
   5  -1  -7 134.427   9.066   2
  -5  -1   7 153.563   9.747   6
  -5   1   7 140.904   9.053   4
  -5   1   7 149.634  11.705   1
   5   1  -7 124.742  10.119   6
  -5   1   7 133.363   9.806   6
   5   1  -7 139.154   9.116   2
  -4  -1   7 71.7091  6.0870   1
  -4  -1   7 68.4274  4.4641   4
   4  -1  -7 67.8719  4.2963   5
   4  -1  -7 58.6143  4.4458   2
   4  -1  -7 68.5453  5.0085   6
  -4   1   7 64.4611  4.8325   6
  -4   1   7 71.9489  4.6935   2
  -4   1   7 68.2012  4.4696   4
   4   1  -7 65.7858  5.0905   6
   4   1  -7 61.3949  4.4487   2
  -3  -1   7 59.4575  5.4738   1
   3  -1  -7 56.5088  3.8272   5
  -3  -1   7 59.7740  3.8889   4
   3  -1  -7 60.3041  4.3890   6
  -3  -1   7 58.1454  4.1136   6
   3  -1  -7 59.6322  3.9799   4
   3  -1  -7 58.6941  3.9539   2
  -3   1   7 63.1644  4.2567   6
  -3   1   7 57.6341  3.9206   4
   3   1  -7 56.8783  4.3561   6
   3   1  -7 56.0699  3.8941   2
   3   1  -7 62.5907  3.7402   5
  -3   1   7 53.5787  4.0068   2
   2  -1  -7 79.0154  4.8859   5
   2  -1  -7 79.0064  4.9201   4
   2  -1  -7 77.4018  5.3805   6
   2  -1  -7 70.2513  4.8994   2
  -2  -1   7 75.1635  5.1753   6
  -2  -1   7 79.5378  6.8104   1
  -2  -1   7 73.3653  4.8562   4
  -2  -1   7 72.7315  4.8177   4
   2   1  -7 84.5281  5.3673   6
  -2   1   7 71.2409  4.9160   2
   2   1  -7 74.6533  4.8408   2
  -2   1   7 70.8026  5.2748   6
  -2   1   7 75.7673  4.8870   4
   1  -1  -7 485.492  31.876   6
  -1  -1   7 503.231  29.191   4
  -1  -1   7 477.840  37.921   1
  -1  -1   7 459.445  29.173   4
   1  -1  -7 480.142  29.384   2
   1  -1  -7 432.905  29.232   4
  -1   1   7 478.439  29.239   4
   1   1  -7 472.977  29.314   2
   1   1  -7 500.138  31.822   6
  -1   1   7 437.281  31.794   6
   0  -1  -7 25.0260  1.8235   6
   0  -1  -7 22.7585  1.6545   2
   0  -1   7 21.7797  1.5585   4
   0   1   7 22.3779  1.6559   4
   0   1   7 22.2524  1.7871   6
   0   1  -7 21.4547  1.5775   2
  -1  -1  -7 41.7662  3.2777   6
   1  -1   7 49.5080  2.9546   4
  -1  -1  -7 46.7064  3.0037   4
   1  -1   7 45.2825  2.9612   4
  -1  -1  -7 39.7801  3.0275   2
  -1   1  -7 45.3819  3.1996   6
   1   1   7 41.5707  3.2828   6
  -1   1  -7 43.2927  2.9851   2
   1   1   7 40.6209  3.0126   4
  -2  -1  -7 419.082  26.758   4
   2  -1   7 493.040  26.738   4
  -2  -1  -7 422.167  29.160   6
  -2  -1  -7 399.090  26.929   2
   2  -1   7 422.962  26.761   4
   2   1   7 399.931  26.776   4
   2   1   7 435.763  29.196   6
  -2   1  -7 467.789  29.105   6
  -2   1  -7 435.996  26.912   2
  -3  -1  -7 602.496  35.903   2
  -3  -1  -7 621.096  38.847   6
   3  -1   7 577.779  35.685   4
   3  -1   7 539.773  38.979   6
  -3   1  -7 572.246  38.767   6
  -3   1  -7 516.582  35.869   2
   3   1   7 641.129  35.837   2
   3   1   7 584.530  38.922   6
   3   1   7 532.741  35.688   4
  -4  -1  -7 3.97705 0.91558   6
   4  -1   7 3.16520 1.04537   4
  -4  -1  -7 5.73106 1.09439   2
   4  -1   7 5.05675 1.47692   6
   4   1   7 3.47535 1.29481   6
   4   1   7 3.67970 0.95216   4
  -4   1  -7 7.88316 1.06214   6
   4   1   7 4.20257 0.81221   2
  -4   1  -7 3.34625 1.13626   2
  -5  -1  -7 194.574  12.383   2
   5  -1   7 194.688  13.423   6
  -5  -1  -7 185.735  13.235   6
   5  -1   7 180.735  12.407   4
   5   1   7 187.753  12.247   4
   5   1   7 201.812  13.592   6
   5   1   7 186.120  12.265   4
  -5   1  -7 200.365  13.261   6
  -5   1  -7 185.484  12.504   2
   6  -1   7 902.628  54.222   6
  -6  -1  -7 786.337  50.144   2
   6  -1   7 730.510  49.944   4
  -6  -1  -7 747.483  54.065   6
   6   1   7 813.317  49.848   4
   6   1   7 802.197  49.853   4
  -6   1  -7 868.422  54.248   6
   6   1   7 757.170  54.397   6
   7  -1   7 324.439  21.771   6
  -7  -1  -7 320.629  21.915   6
  -7  -1  -7 328.876  20.467   2
   7  -1   7 315.221  20.369   4
   7   1   7 290.038  22.056   6
   7   1   7 322.801  20.270   4
   7   1   7 315.463  20.280   4
  -7   1  -7 293.439  20.412   2
  -7   1  -7 316.146  22.034   6
  -8  -1  -7 103.921   8.554   6
  -8  -1  -7 103.515   8.059   2
   8  -1   7 112.312   7.915   4
   8  -1   7 119.213   8.160   6
  -8   1  -7 99.5917  7.8956   2
  -8   1  -7 106.632   8.718   6
   8   1   7 110.890   8.471   6
   8   1   7 104.267   7.868   4
   8   1   7 96.8624  7.7925   4
  -9  -1  -7 47.1269  5.5373   6
   9  -1   7 66.9698  5.3317   4
  -9  -1  -7 58.7117  5.4446   2
  -9   1  -7 47.5512  5.5153   6
   9   1   7 53.5181  5.1562   4
  -9   1  -7 72.0848  5.4126   2
   9   1   7 56.6632  5.1456   4
   9   1   7 60.1447  5.3324   6
 -10  -1  -7 863.617  48.272   2
 -10  -1  -7 653.392  52.063   6
  10  -1   7 830.270  47.820   4
  10   1   7 745.042  51.693   6
 -10   1  -7 804.867  47.980   2
 -10   1  -7 662.094  51.910   6
 -11  -1  -7 87.2325  6.7075   2
 -11  -1  -7 64.5150  7.0732   6
 -11   1  -7 88.4506  6.4557   2
 -11   1  -7 73.8829  6.9311   6
  11   1   7 83.8496  6.7321   6
 -12  -1  -7 185.329  12.271   2
 -12  -1  -7 158.513  12.932   6
 -12   1  -7 167.678  12.851   6
  12   1   7 176.453  12.771   6
 -12   1  -7 177.995  12.048   2
 -13  -1  -7 6.21905 2.47589   6
 -13   1  -7 6.04167 2.45392   6
 -13   1  -7 5.00887 2.48841   2
  13  -2  -7 68.5581  6.8130   6
 -13   2   7 75.9180  6.6416   6
  13   2  -7 61.7402  6.1640   6
  13   2  -7 59.6473  5.6712   2
  12  -2  -7 492.595  32.588   6
  12   2  -7 464.284  32.024   6
  12   2  -7 412.681  29.402   2
 -12   2   7 471.686  32.343   6
 -11  -2   7 186.554  13.345   4
  11  -2  -7 226.162  15.586   6
  11   2  -7 207.925  14.869   6
  11   2  -7 195.661  13.587   2
 -11   2   7 188.533  15.038   6
  10  -2  -7 109.182   8.943   2
  10  -2  -7 115.356   9.885   6
 -10  -2   7 123.387   8.662   4
 -10   2   7 107.100   9.526   6
  10   2  -7 118.608   8.811   2
  10   2  -7 145.723   9.762   6
   9  -2  -7 297.588  18.208   2
   9  -2  -7 267.080  22.651   3
   9  -2  -7 250.275  19.713   6
  -9  -2   7 303.866  18.030   4
   9   2  -7 255.905  18.075   2
  -9   2   7 263.621  19.460   6
   8  -2  -7 418.285  32.648   3
  -8  -2   7 411.095  25.942   4
   8  -2  -7 398.469  25.823   2
   8  -2  -7 362.907  28.155   6
  -8   2   7 420.286  27.992   6
   8   2  -7 412.606  26.147   2
   7  -2  -7 85.0491  6.0033   2
   7  -2  -7 74.1186  6.6215   6
  -7  -2   7 79.7706  6.2225   4
   7   2  -7 88.0900  6.3673   2
  -7   2   7 78.5681  6.3964   6
   7   2  -7 87.0117  6.9713   6
  -7   2   7 88.9530  5.9842   4
   6  -2  -7 248.676  15.868   2
  -6  -2   7 254.573  16.013   4
  -6  -2   7 269.349  20.455   1
   6  -2  -7 243.156  17.396   6
  -6   2   7 253.459  15.816   4
  -6   2   7 245.812  16.039   2
   6   2  -7 230.184  17.614   6
  -6   2   7 256.622  17.187   6
   6   2  -7 233.378  16.012   2
   5  -2  -7 639.875  43.866   6
   5  -2  -7 667.268  39.941   5
  -5  -2   7 664.584  51.648   1
  -5  -2   7 615.479  40.264   4
   5  -2  -7 654.546  40.378   2
  -5   2   7 633.727  40.484   2
  -5   2   7 643.631  40.177   4
  -5   2   7 675.808  43.762   6
   5   2  -7 643.149  40.451   2
  -4  -2   7 175.308  11.237   4
   4  -2  -7 179.509  11.112   5
  -4  -2   7 181.592  14.797   1
   4  -2  -7 194.462  11.323   2
   4  -2  -7 177.929  12.296   6
   4   2  -7 173.687  11.266   2
   4   2  -7 150.889  12.440   6
  -4   2   7 168.112  12.215   6
  -4   2   7 172.212  11.232   4
  -4   2   7 197.515  11.396   2
   3  -2  -7 4.64001 0.85889   4
  -3  -2   7 6.14920 1.81989   1
  -3  -2   7 5.66107 0.76115   4
   3  -2  -7 5.99958 0.78216   5
   3  -2  -7 3.94075 0.81161   2
   3  -2  -7 5.83192 1.00389   6
   3   2  -7 4.10392 0.72577   2
   3   2  -7 6.95002 1.22582   6
  -3   2   7 6.17223 0.88133   2
  -3   2   7 5.35068 0.90594   6
  -3   2   7 4.50007 0.79640   4
   2  -2  -7 153.229   9.010   4
  -2  -2   7 147.944   8.884   4
   2  -2  -7 148.936   8.971   5
  -2  -2   7 141.116   8.923   4
   2  -2  -7 125.091   9.006   2
  -2  -2   7 133.196  12.019   1
   2  -2  -7 160.777   9.862   6
   2   2  -7 139.805   9.761   6
  -2   2   7 143.474   9.042   2
  -2   2   7 143.157   8.984   4
   2   2  -7 136.229   8.908   2
  -2   2   7 131.801   9.736   6
  -1  -2   7 401.208  26.759   4
  -1  -2   7 423.800  26.745   4
   1  -2  -7 435.706  26.857   5
  -1  -2   7 412.784  34.934   1
   1  -2  -7 443.302  27.003   2
   1  -2  -7 462.524  26.890   4
   1  -2  -7 458.486  29.288   6
  -1   2   7 418.692  26.998   2
  -1   2   7 424.031  29.223   6
   1   2  -7 458.658  29.171   6
   1   2  -7 438.233  26.873   2
  -1   2   7 434.026  26.870   4
   0  -2   7 86.1482  5.3542   4
   0  -2   7 85.3549  7.8748   1
   0  -2  -7 88.0043  5.4961   4
   0  -2   7 85.8829  5.3612   4
   0  -2  -7 82.5635  5.9905   6
   0  -2  -7 87.0528  5.5393   2
   0   2   7 75.6846  5.9570   6
   0   2  -7 89.1356  5.8521   6
   0   2   7 86.8550  5.5011   4
   0   2   7 83.1138  5.5193   2
   0   2  -7 90.2623  5.3938   2
   1  -2   7 12.6350  1.0279   4
   1  -2   7 9.17215 2.65018   1
   1  -2   7 13.4716  1.0069   4
  -1  -2  -7 13.1133  1.1475   4
  -1  -2  -7 15.0224  1.3133   6
  -1  -2  -7 13.6101  1.2083   2
   1   2   7 10.8652  1.1496   4
  -1   2  -7 14.9027  1.0912   2
   1   2   7 11.6604  1.2676   6
   1   2   7 12.8888  1.1768   2
  -2  -2  -7 16.4366  1.5814   6
  -2  -2  -7 16.0144  1.4157   4
   2  -2   7 14.3165  3.2035   1
   2  -2   7 16.9351  1.3755   4
  -2  -2  -7 17.1871  1.4848   2
   2  -2   7 19.1943  1.3199   4
  -2   2  -7 16.0643  1.4084   2
  -2   2  -7 19.2685  1.4038   6
   2   2   7 15.9785  1.4365   2
   2   2   7 15.9550  1.4411   4
   3  -2   7 21.7977  1.8278   4
  -3  -2  -7 21.2643  1.8337   2
  -3  -2  -7 20.1277  1.8440   6
  -3  -2  -7 20.3566  1.6667   4
   3  -2   7 18.8721  3.6594   1
   3   2   7 20.3294  1.9074   6
   3   2   7 19.5675  1.6928   2
   3   2   7 20.6961  1.7367   4
  -3   2  -7 18.1972  1.8629   2
  -3   2  -7 23.5199  1.7501   6
  -4  -2  -7 191.518  12.439   6
  -4  -2  -7 170.365  11.492   2
   4  -2   7 168.529  11.578   4
   4  -2   7 185.602  15.610   1
   4   2   7 170.693  11.405   2
  -4   2  -7 157.616  11.662   2
   4   2   7 193.925  11.482   4
   4   2   7 184.896  12.506   6
  -4   2  -7 192.376  12.399   6
  -5  -2  -7 176.354  11.426   2
   5  -2   7 175.146  11.630   4
  -5  -2  -7 175.006  12.297   6
   5   2   7 182.849  11.309   2
   5   2   7 176.451  11.353   4
  -5   2  -7 191.100  12.378   6
  -5   2  -7 150.443  11.605   2
   5   2   7 178.806  12.461   6
   6  -2   7 2.67206 2.47359   1
  -6  -2  -7 3.73203 1.34646   6
  -6  -2  -7 4.06090 1.40641   2
   6  -2   7 1.96851 1.73265   4
   6   2   7 6.26245 1.44678   4
  -6   2  -7 3.71815 1.69357   6
  -6   2  -7 1.67194 1.73230   2
   6   2   7 3.52179 1.72768   6
   7  -2   7 7.65383 2.08313   4
  -7  -2  -7 6.89332 1.86768   6
  -7  -2  -7 8.90519 2.08215   2
  -7   2  -7 7.07472 2.15303   6
  -7   2  -7 9.48598 2.11762   2
   7   2   7 10.3967  1.9103   4
   7   2   7 3.69014 2.17783   6
  -8  -2  -7 312.228  23.949   6
  -8  -2  -7 336.603  22.314   2
   8  -2   7 417.582  22.295   4
   8   2   7 330.700  24.137   6
  -8   2  -7 316.920  24.123   6
  -9  -2  -7 297.623  23.683   6
   9  -2   7 366.986  21.730   4
  -9   2  -7 328.701  23.709   6
   9   2   7 311.708  23.598   6
  -9   2  -7 365.764  21.788   2
  10  -2   7 14.2185  2.6538   4
 -10  -2  -7 8.72294 2.95867   6
 -10  -2  -7 8.06256 2.74470   2
 -10   2  -7 8.93386 2.53489   6
  10   2   7 13.3312  2.9368   6
 -10   2  -7 10.6663  2.5162   2
  11  -2   7 10.0831  2.5371   4
 -11  -2  -7 13.7720  3.0364   2
 -11  -2  -7 7.96430 2.92339   6
 -11   2  -7 7.00477 2.38852   2
 -11   2  -7 10.8374  2.5999   6
  11   2   7 10.3510  2.7210   6
 -12  -2  -7 229.542  17.959   6
 -12   2  -7 266.479  16.609   2
 -12   2  -7 223.152  17.714   6
  12   2   7 274.296  17.901   6
 -13  -2  -7 172.238  13.752   6
 -13   2  -7 181.859  13.665   6
  13   2   7 179.604  13.698   6
 -13   2  -7 214.314  12.952   2
  13   3  -7 297.976  20.441   2
 -13   3   7 329.362  22.723   6
  12  -3  -7 34.9642  4.9187   6
  12   3  -7 34.4015  4.2851   6
  12   3  -7 29.9909  3.7601   2
 -12   3   7 37.4879  4.8095   6
 -11  -3   7 16.9068  2.6901   4
  11  -3  -7 17.0997  3.7617   6
  11   3  -7 23.8024  3.5185   6
  11   3  -7 15.6115  2.9073   2
 -11   3   7 20.4959  3.6518   6
 -10  -3   7 162.452  10.704   4
  10  -3  -7 142.525  12.220   6
  10  -3  -7 142.344  14.002   3
  10   3  -7 163.733  10.986   2
 -10   3   7 140.924  11.994   6
  10   3  -7 185.493  12.098   6
   9  -3  -7 94.8630  8.1582   6
   9  -3  -7 98.0006  7.3717   2
   9  -3  -7 96.6421  9.1931   3
  -9  -3   7 94.5331  6.9634   4
   9   3  -7 108.615   7.850   6
   9   3  -7 92.6507  7.2289   2
  -9   3   7 77.8117  7.6838   6
   8  -3  -7 73.9672  6.8077   6
   8  -3  -7 83.9556  6.2169   2
  -8  -3   7 82.1671  6.2606   4
   8  -3  -7 97.0246  8.1910   3
   8   3  -7 71.6658  6.3177   2
  -8   3   7 74.1696  6.5816   6
   8   3  -7 97.5749  7.1282   6
   7  -3  -7 33.0209  3.0766   2
  -7  -3   7 30.3781  3.4142   4
  -7  -3   7 31.0188  4.3029   1
   7  -3  -7 30.5949  3.4294   6
  -7   3   7 33.0368  3.2534   6
   7   3  -7 31.1907  3.6014   2
   7   3  -7 39.1223  3.8342   6
  -7   3   7 36.8896  3.4373   2
  -6  -3   7 284.559  19.474   4
   6  -3  -7 301.359  19.275   2
  -6  -3   7 316.687  24.949   1
   6  -3  -7 302.499  20.959   6
  -6   3   7 287.686  19.352   2
   6   3  -7 316.107  19.619   2
  -6   3   7 306.232  20.891   6
  -6   3   7 315.155  19.228   4
  -5  -3   7 16.3157  2.8947   1
   5  -3  -7 17.9705  1.5754   5
   5  -3  -7 16.0175  1.7371   2
  -5  -3   7 13.6886  1.9735   4
   5  -3  -7 15.8297  1.9364   6
   5   3  -7 13.3323  1.9246   2
  -5   3   7 20.5337  1.9349   6
  -5   3   7 18.5729  1.7529   4
   5   3  -7 19.4023  2.6994   6
  -5   3   7 15.5093  1.8334   2
  -4  -3   7 253.407  21.259   1
   4  -3  -7 271.969  17.734   6
  -4  -3   7 248.013  16.286   4
   4  -3  -7 250.063  16.257   4
   4  -3  -7 258.492  16.321   2
   4  -3  -7 263.568  16.140   5
  -4   3   7 281.244  17.708   6
  -4   3   7 275.812  16.355   2
   4   3  -7 256.341  16.340   2
  -4   3   7 259.138  16.248   4
   4   3  -7 222.641  17.973   6
   3  -3  -7 5.93380 0.87698   4
   3  -3  -7 1.57656 0.72193   5
  -3  -3   7 2.30809 1.74929   1
  -3  -3   7 1.15676 0.64955   4
   3  -3  -7 5.75328 0.98099   6
   3  -3  -7 1.03371 0.69972   2
   3   3  -7 1.93785 0.65512   2
   3   3  -7 0.80257 1.28797   6
  -3   3   7 1.63604 0.67263   4
  -3   3   7 0.98835 0.76312   2
  -3   3   7 1.37449 0.75208   6
   2  -3  -7 50.0780  3.8873   6
   2  -3  -7 49.1493  3.5482   4
   2  -3  -7 50.7601  3.5620   2
   2  -3  -7 56.5961  3.6164   5
  -2  -3   7 50.8129  3.4988   4
  -2  -3   7 56.7477  3.4139   4
  -2  -3   7 46.9183  5.3362   1
  -2   3   7 51.9601  3.5836   2
  -2   3   7 49.8690  3.5447   4
   2   3  -7 57.8316  3.4241   2
  -2   3   7 50.7809  3.8415   6
  -1  -3   7 76.7858  7.1948   1
  -1  -3   7 72.4297  4.7069   4
   1  -3  -7 76.5911  4.9490   5
   1  -3  -7 80.5377  5.3503   6
  -1  -3   7 74.9562  4.6760   4
   1  -3  -7 70.9567  4.8894   2
   1   3  -7 71.2424  4.6920   2
  -1   3   7 76.2397  4.8848   4
  -1   3   7 80.8258  4.9419   2
  -1   3   7 70.9109  5.2807   6
   0  -3   7 403.121  25.442   4
   0  -3  -7 431.141  25.773   2
   0  -3  -7 402.412  27.913   6
   0  -3  -7 435.108  25.630   4
   0  -3   7 357.496  26.155   5
   0  -3   7 428.670  33.667   1
   0  -3   7 401.212  25.443   4
   0  -3  -7 432.394  25.705   5
   0   3   7 399.611  25.635   4
   0   3  -7 433.412  25.576   2
   0   3   7 440.849  25.779   2
   0   3   7 389.735  25.756   2
   0   3   7 419.682  27.911   6
   1  -3   7 96.8194  9.1041   1
  -1  -3  -7 97.0118  6.2870   4
  -1  -3  -7 99.1451  6.8836   6
  -1  -3  -7 95.8249  6.3406   2
   1  -3   7 110.664   6.121   4
   1  -3   7 98.2397  6.1370   4
   1  -3   7 72.6736  7.1442   5
   1  -3   7 97.4471  6.1402   4
   1   3   7 97.4707  6.8700   6
   1   3   7 99.5736  6.3476   2
   1   3   7 99.2972  6.3205   4
   2  -3   7 18.8504  3.1019   5
  -2  -3  -7 21.5303  1.8613   6
   2  -3   7 22.7275  1.4932   4
   2  -3   7 34.7174  4.1431   1
   2  -3   7 20.6828  1.6466   4
   2  -3   7 19.1293  2.7087   3
  -2  -3  -7 20.0065  1.7106   2
  -2  -3  -7 19.6323  1.6700   4
   2   3   7 18.3478  1.6566   2
   2   3   7 18.3147  1.8179   6
  -2   3  -7 18.3787  1.7285   2
   2   3   7 21.3086  1.6992   4
  -3  -3  -7 2.54006 0.82436   6
  -3  -3  -7 1.30811 0.68357   4
   3  -3   7 0.60194 2.52513   1
   3  -3   7 1.73542 2.14379   5
   3  -3   7 1.03099 1.00923   4
  -3  -3  -7 1.80610 0.78380   2
   3  -3   7 0.77729 1.93335   3
  -3   3  -7 1.87254 1.10984   2
   3   3   7 4.72616 0.84257   2
   3   3   7 0.25364 0.74822   6
  -3   3  -7 1.24011 0.65701   6
   3   3   7 2.03331 0.75467   4
  -4  -3  -7 125.008   8.788   6
   4  -3   7 158.718   9.464   5
   4  -3   7 111.937   8.316   4
  -4  -3  -7 129.592   8.158   2
   4  -3   7 109.652  10.974   3
   4  -3   7 148.577  11.614   1
   4   3   7 120.398   8.064   4
  -4   3  -7 99.7464  8.2953   2
   4   3   7 120.591   8.805   6
   4   3   7 134.699   8.120   2
  -4   3  -7 131.524   8.797   6
   5  -3   7 177.442  12.704   4
  -5  -3  -7 197.535  12.511   2
   5  -3   7 223.527  16.721   3
  -5  -3  -7 197.389  13.529   6
   5   3   7 189.137  13.541   6
   5   3   7 184.928  12.417   2
   5   3   7 193.378  12.432   4
  -5   3  -7 199.880  12.785   2
  -5   3  -7 189.061  13.687   6
  -6  -3  -7 1.28749 1.33781   6
   6  -3   7 0.62819 1.56585   4
   6  -3   7 3.96756 2.70489   3
  -6  -3  -7 0.45417 1.15076   2
  -6   3  -7 2.05973 1.74550   6
   6   3   7 1.11688 1.18199   4
   6   3   7 -0.2238  1.2197   2
  -6   3  -7 0.25758 1.53780   2
  -7  -3  -7 24.9624  3.0723   6
   7  -3   7 31.3835  3.2979   4
   7  -3   7 30.4327  4.4062   3
  -7  -3  -7 25.9870  3.0532   2
  -7   3  -7 26.1308  3.0670   2
   7   3   7 26.0997  3.3202   6
  -7   3  -7 26.3976  3.6185   6
  -8  -3  -7 17.6609  2.7681   2
  -8  -3  -7 12.1922  2.6815   6
   8  -3   7 16.3175  3.5722   3
  -8   3  -7 19.6621  3.1797   6
   8   3   7 12.1535  2.7516   6
  -8   3  -7 13.8034  2.4200   2
  -9  -3  -7 96.7840  7.6983   2
   9  -3   7 107.735   9.497   3
   9  -3   7 106.317   7.361   4
  -9  -3  -7 84.1422  8.0792   6
  -9   3  -7 99.2387  7.9637   6
  -9   3  -7 106.641   7.320   2
   9   3   7 81.2389  8.0501   6
 -10  -3  -7 96.4979  9.1134   6
  10  -3   7 127.668   8.239   4
  10   3   7 102.757   9.079   6
 -10   3  -7 117.457   8.070   2
 -10   3  -7 106.456   8.684   6
 -11  -3  -7 7.59560 3.10931   6
  11  -3   7 8.70743 2.42048   4
 -11   3  -7 10.3127  2.5046   2
 -11   3  -7 7.42370 2.46037   6
  11   3   7 7.20914 2.84629   6
 -12  -3  -7 119.459  10.057   6
 -12   3  -7 125.786   8.969   2
 -12   3  -7 127.085   9.663   6
  12   3   7 124.370   9.891   6
 -13   3  -7 7.96769 2.72817   2
  13   3   7 13.8734  3.0159   6
  12  -4  -7 346.054  25.580   6
  12   4  -7 377.195  25.155   6
  12   4  -7 342.096  22.973   2
 -11  -4   7 148.319   9.374   4
  11  -4  -7 111.387  12.167   3
  11  -4  -7 116.171  10.675   6
  11   4  -7 134.973  10.168   6
 -11   4   7 122.176  10.703   6
  11   4  -7 143.839   9.403   2
 -10  -4   7 12.2066  2.2770   4
  10  -4  -7 11.1540  3.6789   3
  10  -4  -7 10.3836  3.1575   6
  10   4  -7 16.2820  3.0195   6
 -10   4   7 8.33947 3.05051   6
  10   4  -7 13.2364  2.4934   2
   9  -4  -7 137.954  11.941   6
   9  -4  -7 168.568  14.165   3
  -9  -4   7 156.209  10.729   4
   9   4  -7 187.235  12.073   6
  -9   4   7 148.347  11.949   6
   9   4  -7 157.873  10.953   2
  -8  -4   7 364.916  23.335   4
   8  -4  -7 347.120  25.502   6
  -8   4   7 341.536  25.416   6
   8   4  -7 354.578  23.575   2
  -8   4   7 369.607  23.632   2
   8   4  -7 423.474  25.749   6
  -7  -4   7 386.951  25.237   4
   7  -4  -7 413.899  25.348   2
  -7  -4   7 417.740  32.668   1
   7  -4  -7 379.019  27.411   6
  -7   4   7 418.179  25.399   2
  -7   4   7 363.180  27.318   6
   7   4  -7 412.265  25.609   2
   6  -4  -7 98.6231  7.2202   6
   6  -4  -7 98.0158  6.4431   5
  -6  -4   7 100.112   6.936   4
  -6  -4   7 101.284   9.138   1
   6  -4  -7 94.1022  6.6188   2
  -6   4   7 88.5657  6.6319   2
  -6   4   7 93.9082  7.2009   6
   6   4  -7 115.907   7.873   6
   6   4  -7 85.8485  7.0213   2
   5  -4  -7 22.9507  2.3995   6
   5  -4  -7 26.4328  2.2550   2
   5  -4  -7 26.0567  2.1380   5
  -5  -4   7 24.3123  2.7604   4
  -5  -4   7 25.6771  3.8136   1
  -5   4   7 22.7644  2.2340   2
   5   4  -7 22.0290  2.7298   2
  -5   4   7 22.9343  2.3853   6
   5   4  -7 30.6071  3.2342   6
   4  -4  -7 776.594  52.756   2
   4  -4  -7 889.445  52.545   4
  -4  -4   7 845.266  67.715   1
  -4  -4   7 820.873  52.737   4
   4  -4  -7 836.675  52.365   5
   4  -4  -7 857.690  57.232   6
  -4   4   7 823.516  52.528   4
   4   4  -7 848.081  52.914   2
  -4   4   7 901.762  52.808   2
  -4   4   7 902.649  57.204   6
   3  -4  -7 608.173  37.185   5
   3  -4  -7 636.887  40.609   6
   3  -4  -7 611.347  37.465   2
   3  -4  -7 627.834  37.269   4
  -3  -4   7 580.593  37.298   4
  -3  -4   7 586.818  48.303   1
   3   4  -7 547.962  37.385   2
  -3   4   7 633.430  37.482   2
  -3   4   7 615.970  37.286   4
  -3   4   7 572.031  40.557   6
   2  -4  -7 308.840  17.675   2
   2  -4  -7 293.362  19.145   6
  -2  -4   7 274.330  23.274   1
   2  -4  -7 289.615  17.578   5
  -2  -4   7 255.279  17.847   5
   2  -4  -7 259.288  17.544   4
  -2  -4   7 271.147  17.642   4
  -2  -4   7 267.868  17.439   4
  -2   4   7 267.281  17.553   4
   2   4  -7 297.044  17.492   2
  -2   4   7 282.620  19.112   6
  -2   4   7 301.958  17.684   2
   1  -4  -7 37.2999  2.8286   4
  -1  -4   7 41.5973  2.7072   4
   1  -4  -7 37.3929  2.8716   2
  -1  -4   7 35.4081  4.0078   5
  -1  -4   7 39.4340  2.5970   4
   1  -4  -7 41.7834  3.0070   5
   1  -4  -7 38.6256  3.1164   6
  -1  -4   7 41.5635  4.9225   1
  -1   4   7 45.0027  2.9344   2
  -1   4   7 41.7506  3.1145   6
  -1   4   7 40.2002  2.8633   4
   1   4  -7 42.1264  2.5885   2
   0  -4  -7 1859.81  122.63   6
   0  -4   7 1891.42  112.36   4
   0  -4  -7 1733.58  113.17   2
   0  -4   7 1802.41  144.89   1
   0  -4  -7 1855.01  112.59   4
   0  -4  -7 1869.55  112.48   5
   0   4   7 1858.79  122.61   6
   0   4   7 1892.34  113.19   2
   0   4   7 1662.90  113.15   2
   0   4   7 1894.34  112.64   4
   1  -4   7 522.121  28.516   4
   1  -4   7 424.573  28.551   4
   1  -4   7 408.451  36.598   3
  -1  -4  -7 483.089  28.740   4
  -1  -4  -7 499.222  31.360   6
   1  -4   7 475.849  37.993   1
  -1  -4  -7 476.480  28.919   2
  -1  -4  -7 453.570  28.847   5
   1   4   7 449.197  28.894   2
   1   4   7 457.413  31.305   6
   1   4   7 451.864  28.749   4
  -2  -4  -7 296.924  17.693   4
   2  -4   7 291.024  19.008   5
  -2  -4  -7 311.878  19.298   6
   2  -4   7 263.954  22.965   3
   2  -4   7 240.169  17.626   4
  -2  -4  -7 297.448  17.863   5
   2  -4   7 247.782  17.483   4
  -2  -4  -7 306.801  17.774   2
   2  -4   7 295.248  24.024   1
   2   4   7 266.790  17.660   4
   2   4   7 303.566  17.770   2
  -2   4  -7 250.854  17.811   2
   2   4   7 311.697  19.275   6
   3  -4   7 432.393  28.671   5
   3  -4   7 462.904  36.616   1
   3  -4   7 453.376  35.752   3
  -3  -4  -7 455.368  30.051   6
  -3  -4  -7 447.456  27.580   4
  -3  -4  -7 429.240  27.715   2
   3   4   7 449.823  27.736   2
   3   4   7 422.555  30.023   6
   3   4   7 438.771  27.585   4
  -3   4  -7 451.346  27.917   2
  -4  -4  -7 1615.03  104.25   6
   4  -4   7 1556.10   96.49   5
  -4  -4  -7 1523.65   96.18   2
   4  -4   7 1821.34  122.18   3
   4  -4   7 1438.34   95.90   4
   4   4   7 1511.87   96.16   2
   4   4   7 1371.16   95.67   4
  -4   4  -7 1726.71   96.47   2
   4   4   7 1447.09  104.19   6
  -5  -4  -7 288.049  21.833   6
  -5  -4  -7 293.285  20.136   2
   5  -4   7 370.824  26.473   3
   5  -4   7 333.710  21.011   5
   5  -4   7 331.023  20.378   4
  -5   4  -7 330.486  20.430   2
   5   4   7 312.466  20.146   2
   5   4   7 308.799  21.841   6
   6  -4   7 219.623  16.606   3
  -6  -4  -7 179.434  13.454   6
   6  -4   7 199.847  13.180   5
  -6  -4  -7 181.132  12.439   2
   6  -4   7 205.833  12.650   4
  -6   4  -7 201.106  12.636   2
   6   4   7 172.842  13.446   6
   6   4   7 178.958  12.405   2
   7  -4   7 948.713  55.505   4
  -7  -4  -7 859.471  60.326   6
  -7  -4  -7 848.693  55.676   2
  -7   4  -7 927.400  60.558   6
   7   4   7 794.646  60.285   6
  -7   4  -7 991.356  55.750   2
   7   4   7 864.013  55.668   2
   8  -4   7 511.232  31.290   4
  -8  -4  -7 468.352  34.196   6
  -8  -4  -7 466.579  31.528   2
   8  -4   7 501.721  39.872   3
   8   4   7 449.333  34.158   6
  -8   4  -7 545.683  34.176   6
  -8   4  -7 515.762  31.369   2
  -9  -4  -7 273.175  22.498   6
   9  -4   7 335.024  20.461   4
   9  -4   7 345.584  26.187   3
  -9   4  -7 317.830  20.430   2
   9   4   7 283.420  22.479   6
  -9   4  -7 336.366  22.250   6
  10  -4   7 167.282  10.411   4
 -10  -4  -7 130.182  11.734   6
  10  -4   7 162.599  13.426   3
 -10   4  -7 142.458  10.275   2
  10   4   7 135.956  11.738   6
 -10   4  -7 151.406  11.207   6
  11  -4   7 472.740  28.336   4
 -11  -4  -7 407.673  31.180   6
 -11   4  -7 454.581  28.382   2
  11   4   7 407.167  31.082   6
 -11   4  -7 466.113  30.722   6
 -12  -4  -7 27.9715  4.3909   6
  12   4   7 29.1848  4.3879   6
 -12   4  -7 35.3959  3.8573   2
 -12   4  -7 37.6477  3.9830   6
  12  -5  -7 4.21290 3.13139   6
  12   5  -7 0.87132 2.35981   6
  12   5  -7 3.22585 2.26968   2
 -12   5   7 2.57284 2.85716   6
  11  -5  -7 114.967  10.365   6
  11  -5  -7 117.027  12.231   3
  11   5  -7 130.518   9.154   2
  11   5  -7 148.171  10.203   6
  10  -5  -7 226.252  20.012   3
 -10  -5   7 265.259  15.494   4
  10  -5  -7 210.664  17.161   6
  10   5  -7 231.947  15.494   2
  10   5  -7 258.278  17.021   6
 -10   5   7 207.684  17.161   6
   9  -5  -7 84.1420  8.7236   3
   9  -5  -7 79.9806  7.2397   6
  -9  -5   7 88.7981  6.4618   4
  -9   5   7 77.2220  7.1559   6
   9   5  -7 97.5148  7.3150   6
   9   5  -7 84.9687  6.4465   2
  -8  -5   7 33.3899  5.3220   1
  -8  -5   7 34.0493  3.2437   4
   8  -5  -7 28.2976  3.4545   6
  -8   5   7 24.4064  3.4331   6
   8   5  -7 36.2389  4.0604   6
   8   5  -7 30.0529  3.3134   2
  -8   5   7 31.5939  3.3442   2
   7  -5  -7 236.991  17.256   6
  -7  -5   7 281.367  16.064   4
  -7  -5   7 241.068  21.138   1
  -7   5   7 238.562  15.976   2
  -7   5   7 216.475  17.202   6
   7   5  -7 265.051  16.181   2
  -6  -5   7 459.710  26.717   4
   6  -5  -7 438.228  26.333   5
   6  -5  -7 404.353  28.822   6
  -6  -5   7 430.024  34.694   1
  -6   5   7 452.997  26.661   2
  -6   5   7 359.836  28.747   6
   6   5  -7 409.967  26.856   2
   5  -5  -7 13.3650  1.6664   2
   5  -5  -7 12.6688  1.8232   6
  -5  -5   7 12.1780  2.0209   4
   5  -5  -7 10.8374  1.5574   5
  -5  -5   7 13.3022  3.3201   1
   5   5  -7 13.7295  2.2655   2
  -5   5   7 12.7285  1.7548   6
  -5   5   7 10.0955  1.5533   2
  -4  -5   7 302.971  18.178   4
  -4  -5   7 279.922  23.753   1
   4  -5  -7 296.910  19.481   6
   4  -5  -7 295.983  17.993   2
   4  -5  -7 274.156  17.834   5
   4  -5  -7 292.831  17.883   4
  -4   5   7 261.307  17.947   2
   4   5  -7 269.660  18.297   2
  -4   5   7 283.395  19.465   6
  -3  -5   7 186.101  16.041   1
   3  -5  -7 188.250  11.760   5
  -3  -5   7 192.884  12.011   4
   3  -5  -7 193.998  12.794   6
   3  -5  -7 193.956  11.745   4
   3  -5  -7 184.369  11.800   2
  -3   5   7 192.532  11.831   2
  -3   5   7 173.061  12.752   6
   3   5  -7 155.907  11.974   2
  -2  -5   7 303.222  26.610   1
  -2  -5   7 312.092  20.192   4
   2  -5  -7 319.559  20.063   4
   2  -5  -7 336.355  21.871   6
   2  -5  -7 291.273  20.061   5
   2  -5  -7 329.562  20.188   2
  -2  -5   7 310.102  20.860   5
  -2  -5   7 347.495  20.386   4
   2   5  -7 301.279  20.163   2
  -2   5   7 337.084  20.203   2
  -2   5   7 343.702  21.868   6
  -1  -5   7 7.63382 1.32792   4
   1  -5  -7 16.0774  1.5318   5
  -1  -5   7 9.34676 1.39147   4
  -1  -5   7 11.3410  2.9398   5
   1  -5  -7 6.65561 1.24600   6
   1  -5  -7 11.4421  1.2657   2
  -1  -5   7 12.7567  3.2929   1
   1  -5  -7 9.68880 1.13000   4
   1   5  -7 9.61138 0.91462   2
  -1   5   7 9.66024 1.28391   6
  -1   5   7 11.5769  1.2917   2
   0  -5  -7 649.332  43.160   6
   0  -5  -7 637.569  39.606   4
   0  -5   7 637.388  51.954   1
   0  -5  -7 679.233  39.840   2
   0  -5  -7 628.373  39.705   5
   0   5   7 658.359  39.842   2
   0   5   7 647.472  43.148   6
   0   5   7 590.450  39.815   2
   1  -5   7 12.9367  3.2906   5
   1  -5   7 10.7812  1.3399   4
  -1  -5  -7 11.2346  1.5636   5
  -1  -5  -7 11.3426  1.4374   6
  -1  -5  -7 12.8814  1.3079   4
  -1  -5  -7 13.9396  1.3479   2
   1  -5   7 10.9786  1.2641   4
   1  -5   7 13.6972  3.8773   1
   1   5   7 12.0066  1.4501   6
   1   5   7 13.5731  1.3705   2
  -2  -5  -7 139.678   9.352   4
   2  -5   7 137.607  10.817   5
  -2  -5  -7 153.730  10.251   6
   2  -5   7 133.172   9.443   4
  -2  -5  -7 147.232   9.413   2
  -2  -5  -7 150.618   9.588   5
   2  -5   7 147.083  13.774   1
   2  -5   7 158.114   9.578   4
   2   5   7 144.788  10.194   6
   2   5   7 148.646   9.412   2
  -2   5  -7 146.097   9.324   2
   3  -5   7 11.4715  4.0457   1
   3  -5   7 13.9999  3.5068   3
  -3  -5  -7 10.3003  1.3526   4
  -3  -5  -7 10.7199  1.5370   6
   3  -5   7 12.6120  1.8834   4
  -3  -5  -7 10.5142  1.3122   2
  -3  -5  -7 10.8179  1.6905   5
   3  -5   7 10.4025  3.0748   5
  -3   5  -7 8.82723 1.76959   2
   3   5   7 11.4544  1.3927   2
   3   5   7 10.5258  1.4661   6
   4  -5   7 425.168  23.990   4
  -4  -5  -7 338.939  23.839   5
   4  -5   7 399.075  24.909   5
  -4  -5  -7 361.948  25.824   6
  -4  -5  -7 384.911  23.791   2
   4  -5   7 420.619  31.107   3
   4   5   7 369.544  25.782   6
  -4   5  -7 322.399  23.964   2
   4   5   7 399.283  23.844   2
  -5  -5  -7 38.6593  3.8404   5
  -5  -5  -7 46.8640  3.9162   6
  -5  -5  -7 43.2224  3.5059   2
   5  -5   7 56.8186  5.9471   3
   5  -5   7 48.2452  4.9242   5
   5  -5   7 55.7424  4.0574   4
   5   5   7 40.1912  3.4854   2
   5   5   7 42.1477  3.7997   6
  -5   5  -7 54.2827  4.1073   2
  -6  -5  -7 73.1218  6.7589   5
   6  -5   7 117.901   9.616   3
   6  -5   7 89.1012  7.4655   5
   6  -5   7 105.942   6.839   4
  -6  -5  -7 90.3266  7.2463   6
  -6   5  -7 99.6974  6.8598   2
   6   5   7 91.1480  6.6119   2
   6   5   7 96.2297  7.1638   6
   7  -5   7 2.05631 1.57450   4
   7  -5   7 2.44705 2.64633   3
  -7  -5  -7 -0.1121  1.8609   6
   7  -5   7 4.69108 2.44313   5
   7   5   7 -0.0848  1.5918   2
   7   5   7 0.77145 1.62217   6
  -7   5  -7 3.07586 1.72983   2
   8  -5   7 66.8802  5.0831   4
  -8  -5  -7 51.1200  5.8065   6
   8  -5   7 70.7879  7.1797   3
   8  -5   7 71.7489  5.8848   5
  -8   5  -7 63.5531  5.0429   2
   8   5   7 59.4432  5.6946   6
   9  -5   7 81.8675  8.3967   3
  -9  -5  -7 78.3883  7.3449   6
   9  -5   7 91.8102  6.3434   4
   9   5   7 80.5955  7.2684   6
  -9   5  -7 77.8292  6.1894   2
 -10  -5  -7 74.4957  7.5796   6
  10  -5   7 85.8925  6.3518   4
  10  -5   7 92.1263  8.4850   3
 -10   5  -7 76.0690  6.2576   2
  10   5   7 81.2138  7.6996   6
 -11  -5  -7 9.14270 3.27760   6
  11  -5   7 5.95002 3.41652   3
  11   5   7 6.84325 3.12767   6
 -11   5  -7 7.90928 2.62603   6
 -11   5  -7 8.87145 2.31366   2
 -12  -5  -7 1.48461 2.69236   6
 -12   5  -7 4.39606 2.24664   2
  12   5   7 3.12524 3.02716   6
 -12   5  -7 5.64884 2.36958   6
  11  -6  -7 76.7275  7.5807   6
  11  -6  -7 75.0238  8.9812   3
  11   6  -7 94.6460  7.1848   6
 -11   6   7 61.9099  7.3132   6
  11   6  -7 94.7392  6.5278   2
  10  -6  -7 406.239  34.849   3
  10  -6  -7 362.070  29.807   6
 -10  -6   7 485.174  27.295   4
  10   6  -7 444.100  27.300   2
  -9  -6   7 30.0877  3.2811   4
   9  -6  -7 22.1084  3.5872   6
  -9   6   7 19.8132  3.4133   6
   9   6  -7 25.1268  3.1551   2
  -9   6   7 27.9138  3.5248   2
   8  -6  -7 260.798  19.768   6
  -8  -6   7 279.751  24.380   1
  -8   6   7 251.569  19.748   6
   8   6  -7 308.143  18.379   2
  -8   6   7 304.951  18.465   2
   7  -6  -7 30.5065  3.3915   6
  -7  -6   7 36.7828  3.5781   4
  -7  -6   7 33.3165  5.5772   1
   7   6  -7 29.1041  3.3954   2
  -7   6   7 32.1409  3.3573   6
  -7   6   7 31.3691  3.1214   2
  -6  -6   7 781.917  67.051   1
   6  -6  -7 822.372  51.507   5
   6  -6  -7 835.640  56.229   6
  -6  -6   7 917.297  52.029   4
   6   6  -7 953.811  52.274   2
  -6   6   7 780.355  51.900   2
  -6   6   7 740.766  56.200   6
  -5  -6   7 6.68013 3.17433   1
   5  -6  -7 7.28388 1.42846   5
   5  -6  -7 4.51732 1.40705   6
  -5  -6   7 5.14529 1.87718   4
   5   6  -7 6.46782 2.00389   2
  -5   6   7 9.58595 1.49740   2
  -5   6   7 4.59995 1.36372   6
  -4  -6   7 466.316  36.882   1
   4  -6  -7 429.088  27.828   5
   4  -6  -7 415.709  30.294   6
  -4  -6   7 385.473  27.989   4
   4  -6  -7 468.136  27.871   4
  -4   6   7 487.358  30.398   6
   4   6  -7 461.197  28.283   2
  -4   6   7 463.246  28.037   2
   3  -6  -7 5.65485 1.19159   6
   3  -6  -7 6.36506 1.11308   4
  -3  -6   7 5.40932 3.04211   1
  -3  -6   7 5.68601 1.34683   4
   3  -6  -7 5.64003 1.25341   5
  -3   6   7 6.49650 1.19774   2
   3   6  -7 4.11202 1.57165   2
  -3   6   7 8.12949 1.30446   6
  -2  -6   7 626.260  41.685   4
   2  -6  -7 696.225  41.860   4
   2  -6  -7 690.239  41.880   5
   2  -6  -7 677.622  45.557   6
  -2  -6   7 615.183  54.674   1
  -2   6   7 718.260  45.594   6
  -2   6   7 702.639  42.092   2
  -1  -6   7 113.320   6.657   4
  -1  -6   7 116.760  10.749   1
   1  -6  -7 107.402   7.113   5
  -1  -6   7 92.5721  6.7024   4
  -1  -6   7 94.3438  8.3791   5
   1  -6  -7 115.342   7.600   6
  -1   6   7 118.345   7.063   2
   1   6  -7 95.5193  6.7425   2
  -1   6   7 111.475   7.595   6
   0  -6  -7 817.239  47.798   4
   0  -6   7 701.117  62.655   1
   0  -6  -7 798.321  47.881   5
   0  -6  -7 774.231  52.080   6
   0  -6   7 707.994  48.892   5
   0   6   7 773.148  48.054   2
   0   6   7 776.494  48.063   2
   0   6   7 818.277  52.071   6
  -1  -6  -7 14.0636  1.8178   5
   1  -6   7 13.6204  1.0486   4
   1  -6   7 14.1951  0.9818   4
  -1  -6  -7 13.4724  1.4752   4
  -1  -6  -7 15.8227  1.7601   6
   1  -6   7 13.9152  4.4765   1
   1  -6   7 15.1843  3.5283   5
   1   6   7 13.7222  1.6602   6
  -1   6  -7 13.4486  1.0000   2
   1   6   7 16.1629  1.5729   2
   2  -6   7 185.751  17.691   1
   2  -6   7 185.245  13.592   5
  -2  -6  -7 195.424  12.134   4
   2  -6   7 192.097  12.009   4
  -2  -6  -7 199.280  12.405   5
  -2  -6  -7 189.879  13.216   6
   2   6   7 186.878  12.187   2
  -2   6  -7 187.731  11.934   2
   2   6   7 189.971  13.201   6
   3  -6   7 122.830   9.565   5
  -3  -6  -7 130.789   8.065   4
   3  -6   7 118.432   8.173   4
   3  -6   7 144.983  12.705   1
  -3  -6  -7 120.142   8.305   5
  -3  -6  -7 125.364   8.777   6
   3   6   7 112.436   8.688   6
   3   6   7 125.497   8.085   2
  -3   6  -7 116.429   7.995   2
   4  -6   7 858.913  53.344   5
  -4  -6  -7 825.361  52.357   5
   4  -6   7 868.373  52.440   4
  -4  -6  -7 800.200  56.877   6
  -4   6  -7 870.138  52.607   2
   4   6   7 806.959  52.474   2
   4   6   7 875.389  56.856   6
  -5  -6  -7 125.165   9.310   6
   5  -6   7 129.678   9.821   5
   5  -6   7 133.014   8.814   4
   5  -6   7 153.401  12.177   3
  -5  -6  -7 113.004   8.800   5
   5   6   7 123.606   8.543   2
  -5   6  -7 123.429   8.824   2
   5   6   7 128.485   9.253   6
  -6  -6  -7 25.4070  3.2514   5
   6  -6   7 31.8079  3.2342   4
   6  -6   7 38.5566  5.2317   3
   6  -6   7 35.3670  4.3358   5
  -6  -6  -7 27.7895  3.3190   6
   6   6   7 30.6508  3.0429   6
  -6   6  -7 26.5489  3.2243   2
   6   6   7 25.3088  2.9007   2
   7  -6   7 20.0047  4.1465   3
   7  -6   7 10.8797  2.9236   5
   7  -6   7 14.4912  2.2591   4
  -7  -6  -7 10.7873  2.6646   6
  -7  -6  -7 7.24383 2.24286   5
   7   6   7 13.8347  2.2554   2
   7   6   7 12.1236  2.2837   6
  -7   6  -7 16.1220  2.4779   2
   8  -6   7 622.789  37.962   4
   8  -6   7 694.199  48.734   3
  -8  -6  -7 579.776  41.691   6
   8   6   7 589.960  38.356   2
   8   6   7 561.023  41.444   6
  -8   6  -7 579.761  38.073   2
   9  -6   7 285.912  18.228   4
   9  -6   7 310.537  23.739   3
  -9  -6  -7 263.456  20.433   6
  -9   6  -7 272.602  18.271   2
   9   6   7 272.386  20.279   6
  10  -6   7 38.2584  5.5459   3
 -10  -6  -7 45.1376  5.4770   6
 -10   6  -7 42.6962  3.9189   2
  10   6   7 35.7042  4.9947   6
 -11  -6  -7 11.1820  3.4585   6
  11   6   7 14.4073  3.8614   6
 -11   6  -7 12.3051  2.3925   2
  10  -7  -7 203.682  16.751   6
  10  -7  -7 243.737  20.022   3
  10   7  -7 240.872  15.356   2
   9  -7  -7 6.49760 2.48297   6
  -9  -7   7 4.73928 2.42394   4
  -9   7   7 4.39223 2.28618   2
   9   7  -7 6.32840 2.33627   2
  -9   7   7 1.98554 2.17746   6
  -8  -7   7 113.549   7.511   4
   8  -7  -7 90.4393  7.6547   6
  -8   7   7 92.3295  7.2025   2
  -8   7   7 85.8122  7.6607   6
   8   7  -7 105.845   7.377   2
  -7  -7   7 77.9521  6.1546   4
   7  -7  -7 77.6410  5.7563   5
   7  -7  -7 73.9757  6.2512   6
  -7  -7   7 90.8326  9.4420   1
  -7   7   7 71.4381  6.2842   6
   7   7  -7 82.6415  6.1748   2
  -7   7   7 80.3635  5.8613   2
  -6  -7   7 330.463  22.479   4
  -6  -7   7 377.916  30.165   1
   6  -7  -7 390.269  22.278   5
   6  -7  -7 323.180  24.113   6
  -6   7   7 359.185  22.357   2
  -6   7   7 350.522  24.201   6
   6   7  -7 332.843  22.567   2
  -5  -7   7 4.42616 3.57961   1
   5  -7  -7 1.77590 1.30476   6
   5  -7  -7 0.28019 1.20028   5
  -5  -7   7 1.83057 1.56337   4
   5   7  -7 1.82186 1.58889   2
  -5   7   7 1.33348 1.25645   6
  -5   7   7 2.48156 1.26108   2
   4  -7  -7 70.6692  5.1724   5
   4  -7  -7 75.1185  5.5321   6
  -4  -7   7 73.2307  5.1445   4
   4  -7  -7 74.9073  5.0972   4
  -4  -7   7 72.9549  8.5513   1
   4   7  -7 64.7882  5.2411   2
  -4   7   7 76.6102  5.6328   6
  -4   7   7 74.0189  5.2044   2
  -3  -7   7 13.7231  4.1977   1
   3  -7  -7 14.1796  1.6251   4
  -3  -7   7 13.2861  1.4167   4
   3  -7  -7 11.3216  1.6764   6
   3  -7  -7 13.1529  1.7472   5
  -3   7   7 12.6982  1.7735   6
  -3   7   7 11.8458  1.5984   2
   3   7  -7 13.5329  1.6193   2
  -2  -7   7 274.086  24.996   1
  -2  -7   7 297.478  17.847   4
   2  -7  -7 271.252  18.213   5
   2  -7  -7 286.592  19.702   6
   2  -7  -7 303.669  18.145   4
  -2   7   7 287.707  18.232   2
   2   7  -7 285.391  17.982   2
  -2   7   7 291.787  19.754   6
  -1  -7   7 33.3589  6.2441   1
  -1  -7   7 39.0124  2.4929   4
   1  -7  -7 36.3805  2.8743   4
   1  -7  -7 34.8044  3.1195   5
   1  -7  -7 36.7310  3.2063   6
  -1   7   7 41.4316  3.0529   2
  -1   7   7 39.0004  3.1863   6
   1   7  -7 39.4703  2.5601   2
   0  -7  -7 75.6617  5.2874   4
   0  -7   7 80.6986  7.2446   5
   0  -7   7 77.4369  4.9107   4
   0  -7  -7 87.3731  5.6328   5
   0  -7   7 74.2493  9.4873   1
   0  -7  -7 77.1485  5.8061   6
   0   7   7 86.2156  5.4247   2
   0   7   7 76.5659  5.7986   6
   0   7   7 75.5085  5.3659   2
   1  -7   7 7.30432 3.23206   5
   1  -7   7 1.24603 4.33777   1
  -1  -7  -7 6.74423 1.35879   6
  -1  -7  -7 8.91442 1.59947   5
  -1  -7  -7 5.80421 1.12638   4
   1  -7   7 6.08597 0.66900   4
   1   7   7 6.13941 1.27380   6
   1   7   7 7.05209 1.22854   2
   2  -7   7 167.387  15.882   1
  -2  -7  -7 151.472  11.140   6
  -2  -7  -7 160.285  10.202   4
   2  -7   7 159.533   9.973   4
   2  -7   7 161.366  11.745   5
  -2  -7  -7 156.405  10.514   5
   2   7   7 159.805  11.136   6
  -2   7  -7 155.483   9.945   2
   2   7   7 160.297  10.289   2
   3  -7   7 152.204  10.379   4
   3  -7   7 164.931  12.049   5
  -3  -7  -7 172.122  10.494   4
  -3  -7  -7 157.782  10.789   5
  -3  -7  -7 161.188  11.427   6
  -3   7  -7 154.465  10.308   2
   3   7   7 161.069  11.354   6
   3   7   7 169.040  10.521   2
   4  -7   7 86.6521  7.5082   5
   4  -7   7 81.6863  6.0517   4
  -4  -7  -7 81.4617  6.2376   5
  -4  -7  -7 85.4746  6.4864   6
   4   7   7 78.7708  6.3196   6
  -4   7  -7 89.6355  5.9499   2
   4   7   7 84.0082  5.8552   2
  -5  -7  -7 6.01478 1.86917   6
   5  -7   7 9.81986 3.47580   5
   5  -7   7 8.76225 2.07295   4
  -5  -7  -7 6.29449 1.96850   5
   5  -7   7 11.7126  3.8207   3
   5   7   7 7.11021 1.61037   2
  -5   7  -7 4.60539 1.97665   2
   5   7   7 7.94541 1.68654   6
   6  -7   7 152.094  10.978   5
   6  -7   7 173.829  13.610   3
  -6  -7  -7 120.137   9.926   5
  -6  -7  -7 145.880  10.760   6
   6  -7   7 154.901   9.921   4
   6   7   7 138.815   9.728   2
  -6   7  -7 132.703   9.916   2
   6   7   7 142.643  10.473   6
  -7  -7  -7 170.284  13.080   6
   7  -7   7 184.188  15.596   3
  -7  -7  -7 146.377  11.881   5
   7  -7   7 190.834  11.747   4
   7   7   7 167.425  12.653   6
  -7   7  -7 191.275  11.917   2
   7   7   7 169.383  11.757   2
  -8  -7  -7 77.9574  7.1069   6
   8  -7   7 87.0692  8.5216   3
   8  -7   7 83.0024  5.9022   4
  -8   7  -7 74.2635  5.8817   2
   8   7   7 64.5564  6.4677   6
   8   7   7 68.4340  6.1678   2
  -9  -7  -7 -0.7735  2.9111   6
   9  -7   7 2.76246 3.08791   3
   9   7   7 2.63584 2.46277   6
  -9   7  -7 1.47248 1.89521   2
  10  -7   7 242.072  18.680   3
 -10  -7  -7 194.326  16.130   6
  10   7   7 210.928  16.163   6
 -10   7  -7 208.087  14.183   2
 -11  -7  -7 94.6725  8.4222   6
  10   8  -7 362.565  23.550   2
  -9   8   7 82.7530  6.3024   2
   9   8  -7 68.8179  5.9514   2
  -9   8   7 67.3364  6.5342   6
  -8   8   7 166.202  10.883   2
   8   8  -7 157.259  10.859   2
  -8   8   7 144.172  11.540   6
   7  -8  -7 57.6456  4.8247   6
  -7  -8   7 58.7984  4.8532   4
   7   8  -7 50.7943  4.7060   2
  -7   8   7 58.2229  4.5335   2
  -7   8   7 46.4405  4.6904   6
   6  -8  -7 488.665  31.353   6
  -6  -8   7 473.340  28.960   4
   6  -8  -7 496.554  28.900   5
  -6  -8   7 481.678  38.896   1
   6   8  -7 381.669  28.954   2
  -6   8   7 472.394  28.995   2
  -6   8   7 420.379  31.330   6
   5  -8  -7 59.1458  4.7269   6
  -5  -8   7 64.0457  4.3740   4
  -5  -8   7 59.9154  8.1840   1
   5  -8  -7 58.6210  4.5251   5
  -5   8   7 61.1757  4.4222   2
  -5   8   7 52.4294  4.7115   6
   5   8  -7 52.3914  4.4178   2
   4  -8  -7 43.5558  3.6100   6
   4  -8  -7 40.5040  3.3715   4
  -4  -8   7 42.5132  3.1136   4
  -4  -8   7 46.1317  7.3344   1
   4  -8  -7 42.0442  3.5235   5
  -4   8   7 41.4811  3.6377   6
   4   8  -7 37.3099  3.2311   2
  -4   8   7 44.7094  3.4828   2
  -3  -8   7 4.29873 4.10484   1
  -3  -8   7 5.74118 0.92008   4
   3  -8  -7 6.03580 1.48912   5
   3  -8  -7 4.10126 1.17154   4
   3  -8  -7 3.03775 1.26419   6
  -3   8   7 3.55515 1.34859   6
   3   8  -7 3.64486 0.98715   2
  -3   8   7 3.65827 1.32356   2
  -2  -8   7 491.279  29.673   4
  -2  -8   7 447.500  40.674   1
   2  -8  -7 465.385  32.640   6
   2  -8  -7 508.910  30.035   4
   2  -8  -7 489.293  30.152   5
  -2   8   7 449.488  30.142   2
  -2   8   7 493.664  32.697   6
   2   8  -7 491.916  29.865   2
   1  -8  -7 164.610  11.210   5
  -1  -8   7 178.769  17.209   1
   1  -8  -7 179.753  11.016   4
   1  -8  -7 161.819  11.936   6
  -1  -8   7 179.530  10.622   4
  -1   8   7 170.420  11.990   6
  -1   8   7 163.378  11.066   2
   0  -8  -7 24.7537  2.7371   5
   0  -8   7 19.8526  6.4734   1
   0  -8   7 29.0000  4.6484   5
   0  -8  -7 31.0602  2.4509   4
   0  -8   7 28.2004  1.9132   4
   0  -8  -7 38.0620  2.8183   6
   0   8   7 28.2676  2.4887   2
   0   8   7 22.8783  2.4093   2
   0   8   7 27.5714  2.6712   6
  -1  -8  -7 1.39343 1.19849   6
  -1  -8  -7 5.46392 1.55009   5
   1  -8   7 2.34890 0.58215   4
   1  -8   7 3.43847 3.06513   5
  -1  -8  -7 3.12635 1.14061   4
   1  -8   7 -2.9836  4.8849   1
   1   8   7 1.70032 1.16318   2
   1   8   7 1.22106 1.19807   6
   1   8   7 2.81083 1.17367   2
  -2  -8  -7 406.504  25.396   4
  -2  -8  -7 379.930  25.641   5
   2  -8   7 447.562  27.069   5
   2  -8   7 472.679  36.135   1
   2  -8   7 388.728  25.111   4
  -2  -8  -7 406.520  27.723   6
   2   8   7 405.465  27.675   6
   2   8   7 384.914  25.541   2
   3  -8   7 461.944  29.410   5
  -3  -8  -7 446.212  27.957   4
  -3  -8  -7 439.548  30.535   6
   3  -8   7 458.498  27.838   4
  -3  -8  -7 447.019  28.263   5
   3   8   7 456.005  28.118   2
   3   8   7 431.759  30.417   6
  -3   8  -7 437.291  27.870   2
  -4  -8  -7 116.271   8.726   5
   4  -8   7 125.855   8.474   4
  -4  -8  -7 125.345   9.223   6
   4  -8   7 121.480   9.962   5
   4   8   7 127.219   8.370   2
   4   8   7 124.434   9.092   6
  -4   8  -7 126.122   8.339   2
   5  -8   7 14.5434  2.5132   4
  -5  -8  -7 18.8902  2.7619   6
  -5  -8  -7 18.6416  2.7894   5
   5  -8   7 16.5201  3.8176   5
   5   8   7 13.0389  2.1869   6
   5   8   7 14.4668  2.0757   2
  -5   8  -7 13.8638  2.3872   2
  -6  -8  -7 315.715  21.006   6
   6  -8   7 320.522  19.155   4
  -6   8  -7 271.378  19.171   2
   6   8   7 287.315  20.554   6
   6   8   7 279.668  19.048   2
  -7  -8  -7 570.410  37.921   6
   7  -8   7 583.615  34.435   4
   7   8   7 522.263  37.356   6
  -7   8  -7 519.925  34.606   2
   7   8   7 529.898  34.592   2
  -8  -8  -7 270.399  20.180   6
   8  -8   7 320.285  23.746   3
  -8   8  -7 270.407  18.044   2
   8   8   7 263.268  19.699   6
   8   8   7 259.302  18.252   2
   9  -8   7 63.4073  7.2172   3
  -9   8  -7 58.2655  4.9554   2
   9   8   7 52.1243  5.7638   6
  -9   9   7 2.31869 2.26792   2
   8   9  -7 41.4656  4.3743   2
  -8   9   7 59.5349  4.6572   2
  -8   9   7 50.2567  4.9154   6
   7   9  -7 28.0405  3.3244   2
  -7   9   7 33.1848  3.6376   6
  -7   9   7 33.4106  3.4791   2
  -6  -9   7 1.77969 1.45284   4
  -6   9   7 3.06799 1.66421   2
   6   9  -7 2.62059 1.54435   2
  -6   9   7 6.09285 1.93245   6
  -5  -9   7 33.3106  2.7841   4
  -5  -9   7 38.5966  7.1598   1
   5   9  -7 30.7282  2.9007   2
  -5   9   7 34.0427  3.1344   2
  -5   9   7 34.7251  3.3163   6
  -4  -9   7 1.24542 4.38990   1
  -4  -9   7 5.54472 1.07253   4
   4   9  -7 3.85038 1.16921   2
  -4   9   7 4.96163 1.46338   2
  -4   9   7 6.76602 1.72349   6
  -3  -9   7 20.5657  1.7447   4
   3  -9  -7 19.5634  2.2279   4
  -3  -9   7 21.1060  6.1941   1
  -3   9   7 23.5506  2.2943   2
   3   9  -7 20.4380  1.8508   2
  -3   9   7 19.8952  2.3994   6
   2  -9  -7 16.7322  1.9576   4
  -2  -9   7 17.4809  1.4151   4
  -2  -9   7 22.8041  6.5751   1
   2  -9  -7 17.7527  2.2986   5
  -2   9   7 13.6578  1.9654   2
  -2   9   7 14.9551  2.1091   6
   1  -9  -7 142.895   9.381   4
  -1  -9   7 130.953  15.876   1
  -1  -9   7 143.031   8.935   4
   1  -9  -7 149.869   9.720   5
  -1   9   7 142.562  10.254   6
  -1   9   7 142.281   9.460   2
   0  -9   7 100.016  12.947   1
   0  -9   7 92.8487  5.8389   4
   0  -9  -7 89.0111  6.6506   5
   0  -9  -7 92.9536  6.3048   4
   0   9   7 93.5725  6.3901   2
   0   9   7 90.8143  6.8928   6
   1  -9   7 24.3086  7.9527   1
  -1  -9  -7 25.2011  3.0423   5
   1  -9   7 31.1840  4.6984   5
   1  -9   7 26.9059  1.9814   4
  -1  -9  -7 24.9274  2.4431   4
   1   9   7 30.5751  2.5956   2
   1   9   7 26.1326  2.6901   6
   1   9   7 28.9233  2.6401   2
   2  -9   7 200.970  13.919   5
   2  -9   7 181.992  11.486   4
  -2  -9  -7 181.518  12.222   5
  -2  -9  -7 187.971  11.834   4
   2  -9   7 237.890  20.480   1
   2   9   7 172.980  11.867   2
   2   9   7 164.953  12.830   6
   3  -9   7 179.330  13.141   5
   3  -9   7 172.673  11.259   4
  -3   9  -7 183.918  11.250   2
   3   9   7 175.116  11.522   2
   3   9   7 166.424  12.409   6
   4  -9   7 32.9886  3.1750   4
  -4   9  -7 34.3467  2.9457   2
   4   9   7 29.5191  2.8772   2
   4   9   7 26.0675  3.0268   6
   5  -9   7 86.3412  6.4862   4
   5   9   7 85.6287  6.7713   6
   5   9   7 80.9635  6.1600   2
  -5   9  -7 90.7584  6.4252   2
   6  -9   7 330.164  19.419   4
   6   9   7 291.267  20.799   6
   6   9   7 294.727  19.257   2
  -6   9  -7 273.944  19.368   2
   7   9   7 111.005   8.711   6
  -7   9  -7 117.499   8.318   2
   7   9   7 103.816   8.068   2
  -8   9  -7 32.1401  3.8041   2
   8   9   7 31.2947  4.1289   6
   8   9   7 33.1966  4.0571   2
   9   9   7 13.8807  3.2195   2
  -7  10   7 40.4327  3.7019   2
   7  10  -7 26.9179  3.1015   2
  -7  10   7 35.3883  3.7696   6
  -6  10   7 145.206   9.104   2
   6  10  -7 120.905   8.715   2
  -6  10   7 129.007   9.776   6
  -5  10   7 888.460  52.355   2
  -5  10   7 830.137  56.678   6
   5  10  -7 794.297  51.995   2
  -4 -10   7 23.7906  2.0364   4
  -4  10   7 22.6191  2.5321   2
   4  10  -7 21.1317  2.1360   2
  -4  10   7 26.4177  2.9079   6
  -3 -10   7 72.9865  4.8596   4
  -3  10   7 79.4590  5.4642   2
   3  10  -7 70.0226  4.9251   2
  -3  10   7 74.7539  5.8172   6
   2 -10  -7 259.878  15.962   4
  -2 -10   7 250.810  15.476   4
  -2 -10   7 255.464  24.670   1
  -2  10   7 237.846  17.349   6
  -2  10   7 244.284  16.021   2
  -1 -10   7 885.498  55.851   4
  -1 -10   7 898.994  76.258   1
   1 -10  -7 925.416  56.320   4
  -1  10   7 903.545  61.337   6
  -1  10   7 927.134  56.614   2
   0 -10   7 121.764  16.542   1
   0 -10   7 140.709   8.765   4
   0  10   7 142.348   9.350   2
   0  10   7 139.188  10.132   6
   1 -10   7 36.9808  2.6570   4
  -1 -10  -7 36.3320  3.1506   4
   1 -10   7 43.2105  9.8172   1
   1  10   7 37.5288  3.4655   6
   1  10   7 39.3295  3.2348   2
   1  10   7 36.6285  3.2382   2
  -2 -10  -7 281.314  18.035   4
   2 -10   7 284.489  17.727   4
   2  10   7 276.036  18.154   2
   2  10   7 288.766  19.681   6
   2  10   7 286.541  18.178   2
   3 -10   7 454.444  29.519   4
   3  10   7 481.367  32.379   6
   3  10   7 485.128  29.913   2
   4 -10   7 155.649  10.004   4
   4  10   7 147.863  10.779   6
   4  10   7 138.689   9.919   2
   5  10   7 2.73612 1.74258   6
   5  10   7 4.77524 1.72702   2
  -5  10  -7 2.51170 2.00272   2
  -6  10  -7 216.890  14.546   2
   6  10   7 209.418  15.483   6
   6  10   7 220.027  14.331   2
   7  10   7 212.120  13.866   2
   7  10   7 200.896  14.917   6
  -7  10  -7 198.990  13.953   2
   6  11  -7 2.61692 1.30791   2
  -5  11   7 16.7862  2.5858   6
  -5  11   7 17.3134  2.3481   2
   5  11  -7 13.7951  1.7432   2
  -4  11   7 2.10665 1.60575   6
  -4  11   7 0.89475 1.57925   2
  -3  11   7 7.13526 1.89572   6
  -3  11   7 6.35675 1.63783   2
  -2  11   7 13.0535  2.0121   2
  -2  11   7 10.4273  2.2236   6
  -1  11   7 25.0392  2.6636   2
  -1  11   7 22.6894  2.8946   6
   0 -11   7 1.14082 0.81590   4
   0  11   7 2.42271 1.65436   6
   0  11   7 0.65289 1.45713   2
   1  11   7 10.0898  1.8180   2
   1  11   7 7.02942 1.97233   6
   2  11   7 27.8375  2.7457   2
   2  11   7 27.9068  2.9045   2
   2  11   7 23.5116  2.9722   6
   3  11   7 -0.3666  1.3916   2
   3  11   7 -0.8540  1.3913   2
   3  11   7 1.13316 1.72013   6
   4  11   7 7.64411 1.93281   2
   4  11   7 5.86957 2.02837   6
   5  11   7 22.2159  2.9397   2
   5  11   7 22.3895  3.1534   6
  -1  12   7 602.724  37.933   2
   0  12   7 9.53969 2.02440   2
   1  12   7 32.6393  3.2865   2
  12   0  -8 190.950  14.391   2
  12   0  -8 232.618  15.957   6
  11   0  -8 283.312  18.060   6
 -11   0   8 213.392  17.338   6
  11   0  -8 235.219  16.465   2
 -10   0   8 455.874  37.612   6
  10   0  -8 649.176  38.510   6
  10   0  -8 557.679  35.339   2
   9   0  -8 19.6745  3.1896   2
   9   0  -8 18.0630  3.3402   6
  -9   0   8 13.9370  2.6360   6
  -9   0   8 21.4136  3.1646   4
  -8   0   8 290.429  17.464   4
   8   0  -8 234.054  19.027   6
  -8   0   8 265.807  18.599   6
   8   0  -8 274.683  17.467   2
   7   0  -8 188.545  12.359   2
  -7   0   8 193.213  12.350   4
   7   0  -8 166.367  13.594   6
  -7   0   8 200.284  13.229   6
  -6   0   8 1061.16   64.09   4
   6   0  -8 1054.39   64.38   2
  -6   0   8 1134.06   81.93   1
   6   0  -8 935.612  69.923   6
  -6   0   8 995.877  69.605   6
  -5   0   8 398.681  32.619   1
  -5   0   8 439.911  27.572   6
   5   0  -8 391.324  25.481   2
  -5   0   8 412.455  25.398   4
   5   0  -8 393.049  27.800   6
  -4   0   8 317.224  18.512   4
  -4   0   8 289.537  20.055   6
   4   0  -8 305.807  20.277   6
  -4   0   8 304.261  23.981   1
   4   0  -8 264.973  18.553   2
  -3   0   8 242.204  15.775   4
   3   0  -8 280.968  17.332   6
   3   0  -8 236.289  15.848   2
   3   0  -8 260.990  15.650   5
  -3   0   8 245.789  17.103   6
   2   0  -8 2179.36  140.17   2
  -2   0   8 2413.27  139.49   4
  -2   0   8 2156.27  151.80   6
   2   0  -8 2337.22  151.92   6
  -1   0   8 392.557  27.335   6
   1   0  -8 391.260  25.256   2
   1   0  -8 445.198  27.425   6
  -1   0   8 400.131  25.145   4
   0   0  -8 268.780  16.295   2
   0   0   8 257.125  16.213   4
   0   0  -8 285.327  17.690   6
   0   0   8 233.343  17.625   6
  -1   0  -8 735.116  47.811   6
   1   0   8 699.023  43.912   4
  -1   0  -8 705.043  44.142   2
   2   0   8 3014.24  180.82   4
  -2   0  -8 3104.19  181.74   2
   2   0   8 2807.24  196.94   6
  -2   0  -8 2856.83  196.95   6
   3   0   8 2.74780 1.21672   6
   3   0   8 1.70721 0.68683   4
  -3   0  -8 3.49052 0.83531   2
  -3   0  -8 3.23097 0.77010   6
   4   0   8 76.5051  5.9263   6
  -4   0  -8 75.9434  5.1834   2
   4   0   8 71.6369  5.0992   4
  -4   0  -8 77.5761  5.4540   6
  -5   0  -8 997.160  62.932   2
   5   0   8 1069.05   62.61   4
   5   0   8 933.598  62.524   4
  -5   0  -8 982.744  67.988   6
   5   0   8 1079.61   68.44   6
   6   0   8 1863.75  118.77   4
   6   0   8 1957.20  129.42   6
  -6   0  -8 2040.05  129.19   6
   6   0   8 1849.86  118.79   4
  -6   0  -8 1917.55  119.45   2
  -7   0  -8 193.954  13.571   6
   7   0   8 175.679  12.586   4
   7   0   8 216.611  13.710   6
  -7   0  -8 178.189  12.752   2
   7   0   8 178.256  12.570   4
   8   0   8 -0.4741  1.9978   4
   8   0   8 4.61319 2.07528   6
  -8   0  -8 3.26923 2.15229   2
  -8   0  -8 9.23241 2.49875   6
  -9   0  -8 749.137  57.138   6
  -9   0  -8 866.859  52.835   2
   9   0   8 895.341  56.728   6
   9   0   8 828.815  52.493   4
 -10   0  -8 924.483  59.101   2
  10   0   8 951.944  58.807   4
 -11   0  -8 161.526  10.538   2
 -11   0  -8 126.274  11.137   6
 -12   0  -8 68.8788  6.8298   6
 -12   0  -8 85.2344  6.5090   2
 -13   0  -8 275.072  18.395   2
  13   1  -8 42.2603  4.5979   2
  12  -1  -8 124.663   9.297   6
  12  -1  -8 89.0392  8.1433   2
  12   1  -8 110.922   8.868   6
  12   1  -8 101.872   8.055   2
 -12   1   8 104.425   8.816   6
  11  -1  -8 6.81701 2.98187   6
  11  -1  -8 4.23397 2.46952   2
 -11   1   8 1.97199 2.48739   6
  11   1  -8 4.78648 2.70112   2
  11   1  -8 7.59449 2.73164   6
  10  -1  -8 6.56960 3.05903   6
  10  -1  -8 5.52443 2.77570   2
 -10  -1   8 4.51021 2.37119   4
 -10   1   8 4.24199 2.36874   6
  10   1  -8 3.06948 2.35614   2
  10   1  -8 9.24943 2.75914   6
   9  -1  -8 10.9845  2.9895   6
  -9  -1   8 8.45058 2.48399   4
   9  -1  -8 14.2501  2.6625   2
  -9   1   8 9.62526 2.45698   6
   9   1  -8 13.0207  3.0149   6
   9   1  -8 12.2388  2.8698   2
   8  -1  -8 364.725  26.846   6
  -8  -1   8 368.904  24.582   4
   8  -1  -8 391.541  24.568   2
  -8  -1   8 371.238  26.261   6
  -8   1   8 390.170  26.461   6
  -8   1   8 421.359  24.550   4
   8   1  -8 365.684  26.915   6
   8   1  -8 390.687  24.736   2
  -7  -1   8 1.34040 1.44231   4
   7  -1  -8 5.28732 1.58534   2
   7  -1  -8 1.02810 1.70954   6
  -7  -1   8 1.25317 1.14564   6
  -7   1   8 2.52594 1.39035   6
  -7   1   8 1.02954 1.28346   4
   7   1  -8 2.55744 1.52138   2
   7   1  -8 2.18716 1.96051   6
   6  -1  -8 150.732   9.881   2
  -6  -1   8 174.861  12.859   1
  -6  -1   8 161.550   9.968   4
  -6  -1   8 155.816  10.551   6
   6  -1  -8 145.139  10.961   6
   6   1  -8 138.743   9.918   2
  -6   1   8 151.251  10.656   6
  -6   1   8 148.608   9.863   4
   6   1  -8 133.040  11.059   6
   5  -1  -8 63.2051  4.5731   2
  -5  -1   8 71.4194  4.8122   6
   5  -1  -8 71.2878  5.2237   6
  -5  -1   8 65.1487  4.5883   4
  -5  -1   8 66.6368  6.1824   1
  -5   1   8 69.7146  6.0887   1
  -5   1   8 64.8198  4.9355   6
   5   1  -8 65.3593  5.3070   6
  -5   1   8 63.6632  4.5662   4
   5   1  -8 65.6007  4.6076   2
   4  -1  -8 246.931  15.532   2
  -4  -1   8 252.822  16.666   6
  -4  -1   8 241.933  15.419   4
   4  -1  -8 261.032  16.968   6
   4  -1  -8 251.741  15.271   5
  -4  -1   8 259.281  20.157   1
  -4   1   8 235.810  16.772   6
   4   1  -8 236.069  15.484   2
   4   1  -8 243.047  16.944   6
  -4   1   8 236.608  15.445   4
   3  -1  -8 71.1874  4.9069   2
  -3  -1   8 70.9500  5.1202   6
   3  -1  -8 75.4623  4.7940   5
  -3  -1   8 69.5671  4.8100   4
   3  -1  -8 81.9438  5.4016   6
  -3  -1   8 66.7711  6.6739   1
  -3   1   8 74.3830  5.2571   6
  -3   1   8 71.4952  4.8533   4
   3   1  -8 74.5422  4.8466   2
   3   1  -8 78.3163  4.7054   5
   3   1  -8 81.3417  5.4075   6
  -2  -1   8 684.250  42.280   4
   2  -1  -8 723.097  42.240   5
  -2  -1   8 634.593  45.936   6
  -2  -1   8 723.409  54.719   1
   2  -1  -8 700.141  42.554   2
   2  -1  -8 743.991  46.156   6
   2   1  -8 720.184  46.124   6
   2   1  -8 616.320  42.472   2
  -2   1   8 703.021  42.334   4
  -2   1   8 662.840  46.045   6
  -2   1   8 645.294  42.541   2
   1  -1  -8 348.279  23.593   6
   1  -1  -8 343.489  21.735   2
  -1  -1   8 348.933  28.277   1
  -1  -1   8 342.889  21.568   4
  -1  -1   8 363.191  21.575   4
  -1   1   8 312.454  23.505   6
   1   1  -8 350.486  21.669   2
  -1   1   8 345.623  21.630   4
   1   1  -8 387.896  23.542   6
   0  -1  -8 9.84785 1.00715   2
   0  -1  -8 9.90713 1.14781   6
   0  -1   8 8.80676 0.89284   4
   0  -1   8 9.87373 0.90956   4
   0   1   8 10.4255  1.1000   6
   0   1  -8 11.9315  1.0682   6
   0   1  -8 9.63449 0.93258   2
   0   1   8 9.62166 0.98101   4
  -1  -1  -8 363.520  26.429   6
   1  -1   8 396.557  24.232   4
  -1  -1  -8 391.566  24.422   2
   1  -1   8 431.231  24.238   4
   1   1   8 391.621  24.287   4
  -1   1  -8 367.679  24.359   2
   1   1   8 380.777  26.445   6
  -1   1  -8 416.412  26.383   6
  -2  -1  -8 735.857  43.292   2
   2  -1   8 712.342  43.019   4
  -2  -1  -8 706.487  46.874   6
  -2   1  -8 665.228  43.224   2
   2   1   8 681.342  46.894   6
  -2   1  -8 659.457  46.783   6
   2   1   8 723.428  43.062   4
  -3  -1  -8 210.431  15.111   6
   3  -1   8 217.367  13.895   4
   3  -1   8 223.209  13.889   4
  -3  -1  -8 232.545  14.017   2
   3   1   8 213.467  15.214   6
  -3   1  -8 242.368  15.071   6
  -3   1  -8 210.936  13.984   2
   3   1   8 222.046  13.924   4
  -4  -1  -8 173.059  11.970   6
  -4  -1  -8 164.121  11.111   2
   4  -1   8 171.019  11.081   4
   4  -1   8 167.769  11.057   4
   4  -1   8 170.905  12.173   6
   4   1   8 179.523  11.086   4
   4   1   8 180.267  12.244   6
  -4   1  -8 174.688  11.185   2
  -4   1  -8 178.289  11.947   6
  -5  -1  -8 464.561  32.500   6
  -5  -1  -8 473.996  30.123   2
   5  -1   8 458.997  29.987   4
  -5   1  -8 490.997  30.242   2
   5   1   8 500.645  32.864   6
  -5   1  -8 525.566  32.541   6
   5   1   8 444.106  29.916   4
   6  -1   8 120.789   8.814   4
  -6  -1  -8 128.297   9.301   6
  -6  -1  -8 118.899   8.743   2
  -6   1  -8 125.956   8.937   2
   6   1   8 127.661   8.684   4
   6   1   8 127.711   9.755   6
   6   1   8 136.276   8.760   4
  -6   1  -8 143.295   9.418   6
  -7  -1  -8 28.3997  3.3603   2
   7  -1   8 26.4757  3.3267   4
  -7   1  -8 28.8117  3.4432   6
  -7   1  -8 25.6028  3.3527   2
   7   1   8 32.0800  3.2991   4
   7   1   8 32.8135  3.3580   4
   7   1   8 30.2750  3.7223   6
   8  -1   8 59.9427  5.1068   4
  -8  -1  -8 58.7389  5.4790   6
  -8  -1  -8 51.5589  5.2316   2
   8   1   8 63.9716  5.4592   6
  -8   1  -8 58.3092  5.2296   2
   8   1   8 57.0615  5.0178   4
   8   1   8 56.4815  5.0596   4
  -8   1  -8 56.6669  5.4427   6
  -9  -1  -8 242.689  19.009   6
   9  -1   8 298.208  17.553   4
   9   1   8 299.815  18.824   6
  -9   1  -8 236.413  18.978   6
   9   1   8 218.924  17.307   4
   9   1   8 246.689  17.455   4
  -9   1  -8 298.652  17.664   2
 -10  -1  -8 6.22003 2.68755   2
  10  -1   8 9.70422 2.53518   4
 -10  -1  -8 3.26350 2.62118   6
  10   1   8 3.99341 2.11113   6
 -10   1  -8 2.74908 2.23358   2
 -10   1  -8 1.58983 2.43419   6
 -11  -1  -8 5.39062 2.81602   6
  11  -1   8 3.02255 2.42841   4
 -11  -1  -8 4.50682 2.48374   2
 -11   1  -8 5.96716 2.47724   2
 -11   1  -8 2.38461 2.55615   6
  11   1   8 3.78510 2.29971   6
 -12  -1  -8 0.38406 2.57503   2
 -12  -1  -8 2.03189 2.65995   6
 -12   1  -8 -1.5343  2.2544   6
 -12   1  -8 2.83493 2.35026   2
 -13   1  -8 59.3871  5.3025   2
  13   2  -8 16.0364  3.0367   2
 -13   2   8 20.0878  3.7495   6
  12  -2  -8 245.105  18.671   6
  12   2  -8 231.943  16.690   2
 -12   2   8 258.474  18.487   6
  12   2  -8 267.037  18.316   6
  11  -2  -8 197.047  14.521   6
 -11  -2   8 177.196  12.548   4
  11   2  -8 166.686  12.698   2
 -11   2   8 171.254  13.903   6
  11   2  -8 217.852  14.102   6
  10  -2  -8 644.642  45.526   2
 -10  -2   8 762.530  45.236   4
  10  -2  -8 689.282  49.671   6
  10   2  -8 724.722  45.599   2
 -10   2   8 654.354  49.180   6
  10   2  -8 834.219  49.534   6
   9  -2  -8 11.5968  2.4680   2
   9  -2  -8 10.7446  2.9147   6
  -9  -2   8 7.62334 2.44092   4
   9   2  -8 11.1357  2.8603   6
   9   2  -8 9.80159 2.59219   2
  -9   2   8 4.97224 2.31260   6
   8  -2  -8 194.742  14.974   6
   8  -2  -8 215.300  17.258   3
  -8  -2   8 213.929  13.817   4
   8  -2  -8 204.128  13.551   2
   8   2  -8 232.424  15.295   6
  -8   2   8 182.139  14.540   6
   8   2  -8 193.491  13.840   2
   7  -2  -8 570.675  41.632   6
  -7  -2   8 601.669  38.306   4
   7  -2  -8 584.436  38.213   2
  -7   2   8 586.609  41.374   6
  -7   2   8 654.444  38.116   4
   7   2  -8 618.426  41.944   6
   7   2  -8 651.862  38.524   2
  -6  -2   8 1465.60   86.63   4
   6  -2  -8 1359.99   86.86   2
   6  -2  -8 1416.93   94.30   6
  -6  -2   8 1584.88  110.82   1
   6   2  -8 1215.32   94.46   6
   6   2  -8 1488.59   87.03   2
  -6   2   8 1398.37   94.09   6
  -6   2   8 1285.58   86.42   4
  -5  -2   8 31.0456  3.7346   1
   5  -2  -8 30.4745  2.8692   6
   5  -2  -8 31.0892  2.5311   2
  -5  -2   8 33.5800  2.6525   4
  -5   2   8 31.4140  2.7136   6
   5   2  -8 33.0438  2.6248   2
  -5   2   8 31.8653  2.5071   4
   5   2  -8 29.3923  3.2752   6
   4  -2  -8 35.5939  2.6359   2
  -4  -2   8 40.0743  2.6513   4
   4  -2  -8 28.5968  2.8528   6
   4  -2  -8 33.5177  2.4594   5
  -4  -2   8 33.8651  3.9559   1
  -4   2   8 32.5207  2.7753   6
   4   2  -8 35.8628  2.5733   2
  -4   2   8 33.9874  2.7506   2
  -4   2   8 37.9052  2.6285   4
   4   2  -8 35.1584  3.1863   6
   3  -2  -8 840.839  54.937   6
   3  -2  -8 778.037  50.236   5
  -3  -2   8 810.427  64.904   1
   3  -2  -8 852.609  50.688   2
  -3  -2   8 829.419  50.341   4
   3   2  -8 790.407  50.574   2
   3   2  -8 829.592  54.933   6
  -3   2   8 853.342  50.417   4
  -3   2   8 787.430  50.666   2
  -3   2   8 801.276  54.849   6
  -2  -2   8 2013.04  126.64   4
   2  -2  -8 2180.92  126.47   5
   2  -2  -8 2132.66  138.07   6
  -2  -2   8 2191.27  162.58   1
   2  -2  -8 1883.17  127.37   2
   2   2  -8 1995.80  127.26   2
  -2   2   8 2107.78  137.98   6
  -2   2   8 2137.45  126.76   4
  -2   2   8 1957.35  127.38   2
   2   2  -8 2039.57  137.95   6
  -1  -2   8 289.415  17.280   4
   1  -2  -8 288.994  18.974   6
  -1  -2   8 279.079  22.951   1
  -1  -2   8 277.168  17.267   4
   1  -2  -8 283.053  17.420   5
   1  -2  -8 282.114  17.477   2
   1   2  -8 266.212  17.338   2
  -1   2   8 244.909  17.452   2
  -1   2   8 261.319  18.897   6
   1   2  -8 318.307  18.881   6
  -1   2   8 282.022  17.396   4
   0  -2  -8 3.03462 0.72601   2
   0  -2   8 3.70046 0.48317   4
   0  -2  -8 3.46389 0.76281   6
   0  -2   8 3.84084 0.49353   4
   0  -2   8 4.30940 2.08190   1
   0   2  -8 2.36443 0.48180   2
   0   2   8 3.56827 0.67853   4
   0   2   8 3.39316 0.74319   6
   0   2   8 2.68538 0.66830   2
   0   2  -8 4.34521 0.58956   6
  -1  -2  -8 244.043  15.939   6
  -1  -2  -8 235.063  14.697   2
   1  -2   8 223.186  14.484   4
   1  -2   8 231.604  14.501   4
   1  -2   8 218.921  19.627   1
   1   2   8 223.417  15.901   6
   1   2   8 234.814  14.679   2
   1   2   8 223.528  14.611   4
  -1   2  -8 249.463  14.596   2
  -1   2  -8 255.791  15.784   6
   1   2   8 228.291  14.678   2
   2  -2   8 1385.35  120.17   1
  -2  -2  -8 1695.87   93.84   2
  -2  -2  -8 1579.46  101.63   6
   2  -2   8 1393.69   93.23   4
   2   2   8 1512.79   93.33   4
  -2   2  -8 1687.70  101.49   6
   2   2   8 1320.66  101.58   6
  -2   2  -8 1515.07   93.72   2
   2   2   8 1561.94   93.77   2
   3  -2   8 306.295  29.766   1
  -3  -2  -8 349.461  24.588   6
  -3  -2  -8 389.831  22.754   2
   3  -2   8 366.778  22.561   4
  -3   2  -8 385.810  24.483   6
  -3   2  -8 339.822  22.697   2
   3   2   8 371.275  22.666   2
   3   2   8 378.695  22.618   4
   3   2   8 367.607  24.647   6
   4  -2   8 11.2013  1.4736   4
  -4  -2  -8 11.0747  1.3636   2
  -4  -2  -8 7.86332 1.33062   6
   4  -2   8 10.1857  3.1458   1
   4   2   8 9.49275 1.49160   6
  -4   2  -8 11.0435  1.3372   6
   4   2   8 9.94655 1.27062   4
  -4   2  -8 9.38658 1.54392   2
   5  -2   8 9.06153 3.01460   1
  -5  -2  -8 4.60904 1.20846   6
   5  -2   8 11.5864  1.7592   4
  -5  -2  -8 3.92638 1.19832   2
  -5   2  -8 2.73229 1.51324   2
   5   2   8 2.71287 1.36000   6
  -5   2  -8 4.18317 1.24771   6
   5   2   8 5.31384 1.20999   4
   6  -2   8 614.685  38.483   4
  -6  -2  -8 638.462  41.547   6
  -6  -2  -8 592.655  38.437   2
   6   2   8 612.089  41.796   6
   6   2   8 604.970  38.246   4
  -6   2  -8 648.604  41.703   6
  -6   2  -8 574.566  38.642   2
  -7  -2  -8 198.806  13.102   2
   7  -2   8 186.605  13.142   4
  -7  -2  -8 192.966  13.937   6
   7   2   8 211.213  13.063   4
  -7   2  -8 211.290  14.312   6
   7   2   8 182.034  14.242   6
  -7   2  -8 185.628  13.182   2
  -8  -2  -8 134.279   9.956   2
   8  -2   8 152.505  10.040   4
  -8  -2  -8 129.916  10.545   6
  -8   2  -8 144.259  10.889   6
  -8   2  -8 159.150  10.099   2
   8   2   8 142.599   9.940   4
   8   2   8 121.426  10.736   6
  -9  -2  -8 6.47414 2.51021   6
   9  -2   8 5.06629 2.29520   4
  -9  -2  -8 6.47148 2.54083   2
   9   2   8 4.79098 2.43187   6
  -9   2  -8 4.11396 2.23354   2
  -9   2  -8 5.26277 2.64441   6
 -10  -2  -8 231.910  16.985   2
 -10  -2  -8 202.979  18.250   6
  10  -2   8 284.480  16.799   4
 -10   2  -8 246.808  18.142   6
 -10   2  -8 282.472  16.838   2
  10   2   8 250.326  17.998   6
  11  -2   8 74.4108  5.9708   4
 -11  -2  -8 54.3258  6.6177   6
 -11  -2  -8 72.3051  6.2485   2
 -11   2  -8 62.8481  6.0808   6
 -11   2  -8 83.9887  6.0381   2
  11   2   8 65.5228  6.1786   6
 -12  -2  -8 168.913  13.436   6
 -12   2  -8 187.058  12.229   2
  12   2   8 180.593  13.079   6
 -12   2  -8 164.418  13.033   6
 -13   2  -8 85.2300  6.8313   2
  12  -3  -8 39.8259  5.1369   6
  12   3  -8 36.0845  4.3348   6
 -12   3   8 41.0831  5.1127   6
  12   3  -8 34.9295  4.1070   2
  11  -3  -8 128.859  10.843   6
 -11  -3   8 132.440   9.306   4
  11   3  -8 131.355   9.535   2
  11   3  -8 159.683  10.640   6
 -11   3   8 106.619  10.402   6
  10  -3  -8 234.481  17.052   6
 -10  -3   8 236.578  15.054   4
  10   3  -8 226.262  15.295   2
 -10   3   8 211.885  16.699   6
   9  -3  -8 43.9213  5.4179   3
  -9  -3   8 40.5589  4.0187   4
   9  -3  -8 39.7094  4.1129   2
   9  -3  -8 40.0720  4.7060   6
   9   3  -8 51.8061  4.9165   6
  -9   3   8 39.6159  4.4720   6
   9   3  -8 35.5084  4.2659   2
   8  -3  -8 37.7884  4.0148   6
  -8  -3   8 31.9759  3.7209   4
   8  -3  -8 39.2309  4.8902   3
   8  -3  -8 35.1097  3.4861   2
  -8   3   8 36.0229  3.8299   6
   8   3  -8 30.2258  3.9029   2
   8   3  -8 46.1310  4.4002   6
   7  -3  -8 358.176  25.198   6
  -7  -3   8 388.174  29.812   1
   7  -3  -8 386.604  23.209   2
  -7  -3   8 319.066  23.252   4
   7   3  -8 346.375  23.477   2
   7   3  -8 389.899  25.658   6
  -7   3   8 362.941  25.098   6
   6  -3  -8 423.307  29.719   2
  -6  -3   8 454.924  29.879   4
  -6  -3   8 508.368  38.284   1
   6  -3  -8 424.889  32.280   6
  -6   3   8 525.813  29.710   4
  -6   3   8 459.931  32.241   6
   6   3  -8 487.004  30.035   2
   6   3  -8 517.775  32.842   6
   5  -3  -8 154.268  11.186   6
  -5  -3   8 166.660  13.671   1
  -5  -3   8 164.645  10.406   4
   5  -3  -8 166.091  10.077   5
   5  -3  -8 146.277  10.239   2
  -5   3   8 148.895  10.319   2
  -5   3   8 169.524  10.237   4
  -5   3   8 168.776  11.151   6
   5   3  -8 138.978  11.495   6
   5   3  -8 161.070  10.379   2
  -4  -3   8 10.8463  1.3381   4
  -4  -3   8 9.52414 2.37530   1
   4  -3  -8 10.0031  1.4086   6
   4  -3  -8 7.63304 1.27292   2
   4  -3  -8 10.1056  1.1777   5
   4   3  -8 12.7400  1.3496   2
  -4   3   8 8.70946 1.27971   2
  -4   3   8 9.33997 1.24651   4
   4   3  -8 7.23059 1.77567   6
  -4   3   8 8.83375 1.34996   6
   3  -3  -8 734.218  47.457   2
  -3  -3   8 736.019  60.922   1
   3  -3  -8 803.966  51.490   6
  -3  -3   8 750.533  47.124   4
   3  -3  -8 784.721  47.087   5
  -3   3   8 787.368  51.400   6
   3   3  -8 730.018  47.336   2
  -3   3   8 739.380  47.460   2
  -3   3   8 813.241  47.236   4
   2  -3  -8 489.328  29.939   5
  -2  -3   8 445.153  29.836   4
   2  -3  -8 513.989  30.132   2
   2  -3  -8 533.991  32.691   6
  -2  -3   8 500.403  39.057   1
  -2  -3   8 496.708  29.822   4
  -2   3   8 430.916  29.941   4
   2   3  -8 465.934  29.957   2
  -2   3   8 514.582  30.149   2
  -2   3   8 452.787  32.587   6
  -1  -3   8 391.234  24.285   4
   1  -3  -8 419.235  24.608   2
  -1  -3   8 408.912  32.164   1
   1  -3  -8 400.762  24.480   4
  -1  -3   8 412.945  24.309   4
   1  -3  -8 400.393  24.483   5
   1  -3  -8 381.322  26.661   6
   1   3  -8 373.434  24.398   2
  -1   3   8 371.659  24.460   4
  -1   3   8 375.794  26.611   6
  -1   3   8 404.778  24.611   2
   0  -3  -8 29.7460  2.4310   6
   0  -3  -8 31.8180  2.4089   5
   0  -3  -8 29.0453  2.2315   2
   0  -3   8 30.6634  1.9766   4
   0  -3   8 32.4712  4.3321   1
   0  -3   8 30.0010  1.9696   4
   0  -3  -8 29.8847  2.2058   4
   0   3   8 32.5802  2.2497   4
   0   3   8 26.8531  2.4301   6
   0   3  -8 30.2030  1.9943   2
   0   3   8 31.7239  2.2723   2
  -1  -3  -8 810.170  51.885   2
   1  -3   8 931.334  51.454   4
  -1  -3  -8 854.685  56.228   6
   1  -3   8 830.838  51.460   4
   1  -3   8 755.559  66.914   1
   1   3   8 818.262  51.632   4
   1   3   8 837.296  51.885   2
   1   3   8 861.267  51.890   2
  -1   3  -8 812.018  51.723   2
   1   3   8 852.770  56.224   6
   2  -3   8 225.895  18.187   1
   2  -3   8 220.297  13.003   4
  -2  -3  -8 204.285  14.342   6
   2  -3   8 209.190  13.030   4
  -2  -3  -8 209.945  13.244   2
   2   3   8 223.344  13.192   4
   2   3   8 202.008  14.330   6
   2   3   8 211.266  13.225   2
  -2   3  -8 185.498  13.111   2
  -3  -3  -8 348.155  21.323   6
  -3  -3  -8 299.256  19.642   2
   3  -3   8 313.853  19.531   4
   3  -3   8 284.616  26.047   1
   3   3   8 338.079  19.583   4
   3   3   8 311.866  21.297   6
   3   3   8 323.389  19.623   2
  -3   3  -8 277.132  19.648   2
   4  -3   8 132.971   9.098   4
  -4  -3  -8 137.507   8.997   2
   4  -3   8 149.919  12.712   1
  -4  -3  -8 147.598   9.750   6
   4   3   8 145.734   8.964   4
  -4   3  -8 119.998   9.142   2
   4   3   8 141.176   9.791   6
   4   3   8 134.574   8.956   2
  -5  -3  -8 395.994  25.723   2
  -5  -3  -8 405.415  27.829   6
   5  -3   8 398.327  25.835   4
   5  -3   8 426.800  33.203   3
   5   3   8 410.734  25.577   4
  -5   3  -8 373.558  25.928   2
   5   3   8 408.219  27.887   6
  -5   3  -8 449.634  27.953   6
  -6  -3  -8 100.955   6.880   2
   6  -3   8 117.179   9.716   3
   6  -3   8 99.8505  7.2011   4
  -6  -3  -8 90.9700  7.2854   6
   6   3   8 95.0053  7.4849   6
  -6   3  -8 97.3283  7.6509   6
   6   3   8 97.2649  6.8130   4
  -6   3  -8 95.9723  7.1858   2
  -7  -3  -8 95.6071  7.3952   6
  -7  -3  -8 92.9949  6.9427   2
   7  -3   8 100.844   7.173   4
  -7   3  -8 88.5183  7.7252   6
   7   3   8 85.8328  7.5628   6
  -7   3  -8 107.505   7.271   2
  -8  -3  -8 135.915   9.980   2
  -8  -3  -8 132.330  10.668   6
   8  -3   8 158.662  10.019   4
  -8   3  -8 136.996  10.903   6
  -8   3  -8 149.367   9.955   2
   8   3   8 131.902  10.854   6
  -9  -3  -8 178.117  14.114   6
  -9  -3  -8 170.194  13.110   2
   9  -3   8 205.424  12.829   4
  -9   3  -8 187.207  13.988   6
  -9   3  -8 210.733  12.909   2
   9   3   8 172.825  14.111   6
 -10  -3  -8 109.139   9.533   2
  10  -3   8 152.542   9.387   4
 -10  -3  -8 118.066  10.330   6
 -10   3  -8 132.835   9.909   6
  10   3   8 119.062  10.196   6
 -10   3  -8 130.593   9.225   2
  11  -3   8 23.0082  3.2718   4
 -11  -3  -8 18.3338  3.8395   6
  11   3   8 23.3112  3.7634   6
 -11   3  -8 24.5571  3.3003   2
 -11   3  -8 21.5970  3.4260   6
 -12  -3  -8 68.4598  6.6743   6
 -12   3  -8 66.9041  6.2322   6
 -12   3  -8 75.5228  6.0280   2
  12   3   8 71.3128  6.5250   6
  12  -4  -8 286.850  20.145   6
  12   4  -8 253.836  17.791   2
  12   4  -8 288.864  19.551   6
 -12   4   8 252.286  19.948   6
 -11  -4   8 85.7816  5.9679   4
  11  -4  -8 66.4007  7.2408   6
  11   4  -8 68.8905  5.9514   2
 -11   4   8 57.8928  6.9634   6
  11   4  -8 89.6666  6.9201   6
  10  -4  -8 51.5260  6.0029   6
 -10  -4   8 63.5733  4.9648   4
  10  -4  -8 56.4709  6.7391   3
 -10   4   8 49.7621  5.6513   6
  10   4  -8 66.0945  5.6781   6
  10   4  -8 57.3933  5.0750   2
  -9  -4   8 81.1265  6.0778   4
   9  -4  -8 78.8046  7.0826   6
   9  -4  -8 81.9141  8.2178   3
   9   4  -8 95.2432  7.1960   6
  -9   4   8 71.8254  6.8557   6
   9   4  -8 83.7659  6.4602   2
  -8  -4   8 378.900  23.624   4
   8  -4  -8 352.826  25.781   6
  -8   4   8 365.953  25.736   6
   8   4  -8 382.242  23.958   2
   7  -4  -8 314.437  19.211   2
   7  -4  -8 298.050  20.838   6
  -7  -4   8 316.577  24.978   1
  -7  -4   8 302.433  19.291   4
   7   4  -8 270.983  19.450   2
  -7   4   8 289.779  20.738   6
   6  -4  -8 211.576  14.271   2
  -6  -4   8 218.684  14.549   4
   6  -4  -8 217.674  15.498   6
  -6  -4   8 238.841  18.889   1
   6   4  -8 216.373  14.651   2
  -6   4   8 217.069  15.461   6
  -6   4   8 233.052  14.385   2
  -5  -4   8 145.647  11.122   4
   5  -4  -8 183.307  10.772   5
   5  -4  -8 164.457  10.923   2
  -5  -4   8 173.567  14.617   1
   5  -4  -8 177.880  11.932   6
  -5   4   8 162.403  11.799   6
  -5   4   8 171.052  10.979   2
   5   4  -8 169.754  11.197   2
  -4  -4   8 314.493  20.693   4
   4  -4  -8 308.641  20.669   2
  -4  -4   8 309.680  26.942   1
   4  -4  -8 348.680  20.520   5
   4  -4  -8 324.415  22.464   6
   4   4  -8 333.564  20.737   2
  -4   4   8 347.360  20.723   2
  -4   4   8 338.863  22.418   6
  -3  -4   8 384.787  32.931   1
   3  -4  -8 439.912  27.503   6
   3  -4  -8 376.862  25.321   2
   3  -4  -8 413.981  25.149   5
  -3  -4   8 390.826  25.157   4
  -3   4   8 416.681  25.220   4
  -3   4   8 426.505  25.372   2
  -3   4   8 382.873  27.403   6
   3   4  -8 409.803  25.232   2
   2  -4  -8 391.697  25.965   5
   2  -4  -8 443.273  28.347   6
  -2  -4   8 427.142  25.844   4
  -2  -4   8 427.839  34.108   1
   2  -4  -8 417.330  26.122   2
  -2   4   8 439.942  26.026   4
  -2   4   8 401.661  26.131   2
  -2   4   8 399.840  28.280   6
   2   4  -8 419.126  25.939   2
  -1  -4   8 256.569  17.164   4
  -1  -4   8 263.128  23.221   1
   1  -4  -8 288.137  17.478   5
   1  -4  -8 264.229  18.945   6
   1  -4  -8 296.057  17.516   2
   1  -4  -8 279.841  17.400   4
  -1  -4   8 278.561  17.163   4
  -1   4   8 271.171  18.922   6
  -1   4   8 278.790  17.407   4
   1   4  -8 285.145  17.239   2
  -1   4   8 299.788  17.529   2
   0  -4  -8 168.282  10.645   4
   0  -4   8 144.581  11.516   5
   0  -4  -8 163.172  10.718   2
   0  -4   8 176.208  14.999   1
   0  -4   8 167.544  10.385   4
   0  -4  -8 171.581  10.780   5
   0  -4   8 174.271  10.386   4
   0  -4  -8 154.925  11.601   6
   0   4  -8 176.472  10.439   2
   0   4   8 163.885  10.720   2
   0   4   8 168.932  10.734   2
   0   4   8 167.239  11.609   6
   0   4   8 184.790  10.707   4
   1  -4   8 126.879   7.189   4
  -1  -4  -8 114.684   7.428   4
  -1  -4  -8 119.591   8.160   6
  -1  -4  -8 120.343   7.654   5
  -1  -4  -8 109.664   7.502   2
   1  -4   8 128.368  11.247   1
   1  -4   8 116.083   7.197   4
   1  -4   8 92.6674  8.5755   5
   1   4   8 109.517   7.449   4
  -1   4  -8 105.010   7.243   2
   1   4   8 126.114   7.524   2
   1   4   8 115.656   8.118   6
   2  -4   8 257.621  17.552   5
   2  -4   8 243.191  16.113   4
  -2  -4  -8 273.566  16.372   2
  -2  -4  -8 264.414  16.477   5
   2  -4   8 257.085  16.070   4
   2  -4   8 255.920  22.303   1
  -2  -4  -8 255.844  17.728   6
   2  -4   8 244.527  20.888   3
   2   4   8 275.919  16.307   4
   2   4   8 260.127  17.723   6
   2   4   8 265.503  16.363   2
  -3  -4  -8 262.332  16.133   2
   3  -4   8 255.327  16.080   4
   3  -4   8 285.460  17.439   5
   3  -4   8 248.028  21.969   1
  -3  -4  -8 268.823  17.495   6
   3  -4   8 233.540  20.894   3
   3   4   8 262.071  17.485   6
   3   4   8 264.290  16.116   2
   3   4   8 260.408  16.048   4
  -3   4  -8 215.804  16.138   2
  -4  -4  -8 110.231   7.521   2
   4  -4   8 142.856   9.060   5
  -4  -4  -8 114.078   8.141   6
   4  -4   8 95.7695 10.2170   3
   4  -4   8 107.133   7.710   4
   4   4   8 122.305   7.542   2
   4   4   8 111.450   7.462   4
   4   4   8 114.627   8.153   6
  -5  -4  -8 2.15460 1.17924   6
  -5  -4  -8 1.84767 1.13000   2
   5  -4   8 3.13321 3.12868   1
   5  -4   8 2.83279 2.71584   3
   5  -4   8 1.35556 1.56185   4
   5   4   8 5.60281 1.21388   2
  -5   4  -8 2.28768 1.63162   2
   5   4   8 2.39044 1.22364   6
   6  -4   8 76.5996  5.4258   4
   6  -4   8 78.1114  7.5090   3
  -6  -4  -8 61.7078  5.3249   6
  -6  -4  -8 63.8776  4.9611   2
   6   4   8 58.8184  5.3634   6
  -6   4  -8 75.5520  5.3771   2
   7  -4   8 231.480  16.999   3
   7  -4   8 213.907  13.097   4
  -7  -4  -8 183.325  13.869   6
  -7  -4  -8 173.240  12.829   2
  -7   4  -8 205.234  13.007   2
   7   4   8 167.112  13.934   6
   8  -4   8 225.326  16.619   3
  -8  -4  -8 165.453  13.753   6
   8  -4   8 203.248  12.822   4
  -8  -4  -8 172.954  12.803   2
  -8   4  -8 207.678  12.765   2
   8   4   8 163.253  13.803   6
   9  -4   8 1.75146 2.78608   3
   9  -4   8 2.31523 2.03408   4
  -9  -4  -8 3.06624 2.48552   6
   9   4   8 8.28694 2.71434   6
  -9   4  -8 2.83927 1.97690   2
  -9   4  -8 3.34961 2.21965   6
  10  -4   8 11.5457  2.5362   4
 -10  -4  -8 7.39679 3.23971   6
 -10   4  -8 15.0274  2.6626   2
 -10   4  -8 14.8484  2.8132   6
  10   4   8 11.7199  3.4294   6
 -11  -4  -8 80.7629  8.6715   6
 -11   4  -8 109.439   7.601   2
  11   4   8 103.697   8.710   6
 -11   4  -8 101.692   8.046   6
 -12  -4  -8 198.426  15.451   6
  12   4   8 190.829  15.152   6
 -12   4  -8 213.687  13.919   2
 -12   4  -8 214.308  14.994   6
  12   5  -8 12.9995  3.1512   6
  11  -5  -8 53.1955  5.8997   6
  11  -5  -8 45.4152  7.0614   3
  11   5  -8 52.5970  4.8367   2
  11   5  -8 67.1340  5.6720   6
 -10  -5   8 285.418  17.420   4
  10  -5  -8 247.198  22.468   3
  10  -5  -8 224.903  19.218   6
  10   5  -8 269.968  17.479   2
  10   5  -8 298.238  19.208   6
  -9  -5   8 51.5371  4.2814   4
   9  -5  -8 52.0144  6.0379   3
   9  -5  -8 45.0939  4.8585   6
   9   5  -8 52.7286  4.4282   2
  -9   5   8 39.4211  4.7637   6
  -8  -5   8 53.5745  4.4200   4
  -8  -5   8 49.0674  6.6951   1
   8  -5  -8 51.2120  4.8040   6
  -8   5   8 44.6508  4.7519   6
   8   5  -8 57.2110  4.5656   2
  -7  -5   8 168.235  14.688   1
   7  -5  -8 162.043  11.798   6
  -7  -5   8 169.294  10.894   4
  -7   5   8 164.844  10.905   2
   7   5  -8 159.315  11.013   2
  -7   5   8 149.181  11.670   6
  -6  -5   8 353.973  30.723   1
   6  -5  -8 377.582  23.304   5
   6  -5  -8 345.413  25.549   6
  -6  -5   8 395.816  23.690   4
  -6   5   8 406.181  23.696   2
   6   5  -8 391.051  23.948   2
  -6   5   8 337.775  25.485   6
   5  -5  -8 31.3771  2.4972   5
   5  -5  -8 31.9015  2.6282   2
  -5  -5   8 30.5546  3.1404   4
   5  -5  -8 27.2331  2.7767   6
  -5  -5   8 30.3557  4.5444   1
   5   5  -8 29.8073  3.2334   2
  -5   5   8 28.3174  2.7524   6
  -5   5   8 28.4596  2.6170   2
  -4  -5   8 20.9056  3.7389   1
   4  -5  -8 18.6304  1.8909   2
  -4  -5   8 19.0070  2.4390   4
   4  -5  -8 17.6644  2.0379   6
   4  -5  -8 20.6850  1.9508   5
  -4   5   8 17.8583  2.1028   6
   4   5  -8 17.1372  2.4310   2
  -4   5   8 17.0424  1.9331   2
  -3  -5   8 412.477  33.671   1
   3  -5  -8 428.758  25.774   2
   3  -5  -8 438.633  27.920   6
  -3  -5   8 361.170  25.770   4
   3  -5  -8 419.000  25.594   5
  -3   5   8 396.739  25.745   2
  -3   5   8 418.618  27.881   6
   3   5  -8 409.903  25.808   2
   2  -5  -8 175.890  10.822   5
  -2  -5   8 165.639  10.826   4
   2  -5  -8 178.951  10.835   2
   2  -5  -8 174.517  11.730   6
  -2  -5   8 151.526  14.786   1
   2   5  -8 157.849  10.654   2
  -2   5   8 178.589  10.846   2
  -2   5   8 162.694  11.689   6
  -1  -5   8 26.6248  4.4319   1
   1  -5  -8 24.1181  2.1820   5
   1  -5  -8 23.1456  2.0246   2
  -1  -5   8 21.8863  1.7639   4
   1  -5  -8 25.0720  1.9830   4
   1  -5  -8 23.5724  2.1672   6
  -1  -5   8 22.7689  1.6455   4
  -1  -5   8 23.9587  3.4736   5
  -1   5   8 26.6394  2.0764   2
  -1   5   8 23.6863  2.1489   6
   1   5  -8 24.2911  1.6197   2
   0  -5   8 3.99680 3.08664   1
   0  -5  -8 4.01469 0.97854   6
   0  -5   8 1.62486 2.73589   5
   0  -5  -8 3.54328 1.14777   5
   0  -5  -8 3.43147 0.89188   2
   0  -5  -8 3.89417 0.86128   4
   0   5   8 3.92044 0.93771   2
   0   5   8 3.42548 0.96819   6
   0   5   8 3.43704 0.89373   2
  -1  -5  -8 452.409  28.453   4
   1  -5   8 437.336  37.923   1
  -1  -5  -8 470.981  28.619   5
  -1  -5  -8 478.188  31.052   6
   1  -5   8 461.248  28.174   4
  -1  -5  -8 476.497  28.626   2
   1  -5   8 372.560  29.624   5
   1   5   8 512.653  28.675   2
   1   5   8 437.757  30.999   6
   2  -5   8 62.9847  6.2875   5
  -2  -5  -8 59.5719  4.4364   5
   2  -5   8 55.1622  4.0123   4
  -2  -5  -8 60.0336  4.1991   2
  -2  -5  -8 61.1867  4.5764   6
   2  -5   8 52.3058  7.3420   1
   2   5   8 62.8131  4.2429   2
   2   5   8 65.1979  4.5983   6
   3  -5   8 45.0541  6.6051   1
  -3  -5  -8 48.9896  3.2061   2
  -3  -5  -8 37.7667  3.4270   5
   3  -5   8 42.5219  5.1140   5
  -3  -5  -8 41.2494  3.4357   6
   3  -5   8 34.3125  3.2831   4
   3   5   8 41.7589  3.1549   2
  -3   5  -8 36.2117  3.4634   2
   3   5   8 51.6366  3.5217   6
  -4  -5  -8 36.6329  3.3043   5
  -4  -5  -8 36.9442  2.9764   2
  -4  -5  -8 38.5940  3.2449   6
   4  -5   8 53.7955  6.4522   1
   4  -5   8 39.0502  4.6722   5
   4  -5   8 31.6813  3.2178   4
   4  -5   8 42.1966  5.3308   3
  -4   5  -8 39.3149  3.4175   2
   4   5   8 37.8448  2.9755   2
   4   5   8 30.9860  3.1316   6
   5  -5   8 192.415  11.076   4
  -5  -5  -8 137.416  10.897   5
  -5  -5  -8 151.137  10.670   2
   5  -5   8 191.394  14.715   3
  -5  -5  -8 144.384  11.576   6
   5  -5   8 185.580  11.988   5
   5   5   8 161.699  10.712   2
  -5   5  -8 189.681  11.065   2
   5   5   8 146.211  11.545   6
  -6  -5  -8 147.711  11.316   6
   6  -5   8 172.074  11.471   5
   6  -5   8 178.450  10.764   4
  -6  -5  -8 150.398  10.419   2
   6   5   8 153.482  10.428   2
  -6   5  -8 160.676  10.644   2
   6   5   8 147.497  11.318   6
   7  -5   8 66.7590  5.0048   4
  -7  -5  -8 45.6593  5.0976   6
   7  -5   8 72.2467  7.1155   3
   7   5   8 58.9888  5.2785   6
  -7   5  -8 69.0626  5.0226   2
   8  -5   8 161.261  10.799   4
   8  -5   8 172.264  14.187   3
  -8  -5  -8 144.418  11.818   6
  -8   5  -8 161.803  10.705   2
   8   5   8 146.064  11.842   6
  -9  -5  -8 31.7768  4.5861   6
   9  -5   8 40.8264  4.0445   4
   9  -5   8 39.3712  5.4559   3
  -9   5  -8 37.4571  3.7080   2
   9   5   8 33.2619  4.5171   6
 -10  -5  -8 334.525  26.517   6
  10  -5   8 404.663  23.969   4
  10  -5   8 426.610  30.746   3
  10   5   8 329.294  26.398   6
 -10   5  -8 359.447  23.876   2
 -11  -5  -8 45.1128  5.6009   6
 -11   5  -8 50.4511  4.5975   2
  11   5   8 53.0197  5.7277   6
  11  -6  -8 2.24439 2.95850   6
  11   6  -8 3.10013 2.13023   2
 -11   6   8 4.28280 3.03299   6
  10  -6  -8 52.9728  5.7517   6
  10  -6  -8 57.0146  6.8402   3
 -10   6   8 45.0288  5.5423   6
  10   6  -8 55.3693  4.7593   2
  -9  -6   8 494.795  27.063   4
   9  -6  -8 388.220  29.499   6
   9   6  -8 447.458  27.071   2
  -9   6   8 358.319  29.379   6
  -8  -6   8 194.596  16.827   1
   8  -6  -8 164.571  13.188   6
  -8  -6   8 206.528  12.327   4
  -8   6   8 147.726  13.120   6
   8   6  -8 188.234  12.262   2
  -8   6   8 193.998  12.436   2
  -7  -6   8 43.1389  6.3633   1
  -7  -6   8 51.3887  4.2294   4
   7  -6  -8 41.0049  4.0903   6
   7   6  -8 41.9647  4.0329   2
  -7   6   8 50.1976  4.0438   2
  -7   6   8 38.0895  3.9723   6
   6  -6  -8 202.692  12.934   5
   6  -6  -8 172.218  14.071   6
  -6  -6   8 191.803  17.690   1
  -6  -6   8 231.647  13.429   4
  -6   6   8 206.988  13.152   2
   6   6  -8 215.792  13.385   2
  -6   6   8 188.197  14.100   6
  -5  -6   8 193.684  12.344   4
   5  -6  -8 183.188  11.959   5
   5  -6  -8 172.555  13.010   6
  -5  -6   8 185.867  16.559   1
   5   6  -8 198.810  12.428   2
  -5   6   8 189.348  12.071   2
  -5   6   8 179.706  13.045   6
  -4  -6   8 435.823  32.704   4
   4  -6  -8 545.607  32.606   5
   4  -6  -8 510.557  35.501   6
  -4  -6   8 536.692  42.879   1
  -4   6   8 516.558  35.499   6
   4   6  -8 577.405  33.089   2
  -4   6   8 547.656  32.820   2
  -3  -6   8 36.4762  3.4896   4
   3  -6  -8 42.3061  3.4106   5
  -3  -6   8 43.8308  5.9317   1
   3  -6  -8 43.8629  3.6153   6
  -3   6   8 49.8451  3.7214   6
  -3   6   8 52.3946  3.4707   2
   3   6  -8 45.3961  3.8109   2
   2  -6  -8 211.915  14.783   6
   2  -6  -8 224.729  13.681   5
  -2  -6   8 232.501  19.072   1
  -2  -6   8 197.053  13.452   4
  -2   6   8 208.482  13.669   2
  -2   6   8 221.119  14.809   6
  -1  -6   8 77.9720  5.1487   4
  -1  -6   8 86.8079  8.8038   1
   1  -6  -8 78.3746  5.2456   4
   1  -6  -8 75.4129  5.3843   5
   1  -6  -8 79.7303  5.7172   6
  -1  -6   8 76.1015  7.0925   5
  -1  -6   8 77.7437  4.8985   4
  -1   6   8 75.8759  5.3311   2
  -1   6   8 77.5036  5.7149   6
   0  -6  -8 941.623  58.829   4
   0  -6   8 942.203  76.826   1
   0  -6  -8 931.521  64.092   6
   0  -6  -8 877.100  58.859   5
   0   6   8 1006.73   64.11   6
   0   6   8 921.857  59.155   2
   0   6   8 1050.71   59.20   2
   1  -6   8 49.0558  7.1612   1
   1  -6   8 43.7764  5.8304   5
  -1  -6  -8 45.6048  3.6817   5
  -1  -6  -8 42.8469  3.6907   6
  -1  -6  -8 45.3365  3.3476   4
   1   6   8 49.1827  3.4357   2
   1   6   8 48.5552  3.7010   6
  -2  -6  -8 78.0307  5.3406   5
   2  -6   8 59.7681  4.9529   4
   2  -6   8 78.3989  8.9660   1
   2  -6   8 79.7281  7.4444   5
  -2  -6  -8 74.5436  5.4658   6
   2   6   8 81.3468  5.1235   2
  -2   6  -8 72.2282  5.0501   2
   2   6   8 71.9268  5.4442   6
   3  -6   8 115.166   9.066   5
  -3  -6  -8 107.776   7.478   5
  -3  -6  -8 114.427   7.874   6
   3  -6   8 111.847   7.354   4
   3   6   8 106.984   7.807   6
   3   6   8 104.154   7.213   2
  -3   6  -8 100.981   7.414   2
   4  -6   8 857.444  48.301   4
  -4  -6  -8 699.947  48.214   5
   4  -6   8 809.357  49.408   5
  -4  -6  -8 732.576  52.386   6
   4   6   8 791.385  52.373   6
   4   6   8 728.965  48.307   2
  -4   6  -8 818.049  48.533   2
  -5  -6  -8 371.213  25.867   6
   5  -6   8 429.278  23.989   4
  -5  -6  -8 319.176  23.891   5
   5  -6   8 384.147  24.905   5
   5   6   8 362.144  25.776   6
  -5   6  -8 423.825  24.072   2
   5   6   8 348.676  23.806   2
   6  -6   8 13.2585  2.2778   4
   6  -6   8 12.8170  3.0375   5
   6  -6   8 11.6020  3.7558   3
  -6  -6  -8 7.72878 2.16143   5
  -6  -6  -8 9.61771 2.06178   6
  -6   6  -8 10.9825  2.1727   2
   6   6   8 5.57821 1.85195   6
   6   6   8 8.66816 1.84432   2
   7  -6   8 182.239  14.520   3
   7  -6   8 174.131  10.965   4
   7  -6   8 157.355  11.648   5
  -7  -6  -8 154.971  11.934   6
   7   6   8 157.502  10.964   2
   7   6   8 145.604  11.752   6
  -7   6  -8 159.629  10.884   2
   8  -6   8 288.244  17.265   4
  -8  -6  -8 251.534  19.063   6
   8  -6   8 286.909  22.360   3
   8   6   8 226.275  18.750   6
  -8   6  -8 266.773  17.173   2
  -9  -6  -8 249.780  20.570   6
   9  -6   8 309.797  23.991   3
   9  -6   8 297.998  18.548   4
   9   6   8 269.875  20.569   6
  -9   6  -8 292.031  18.530   2
  10  -6   8 5.49985 3.29896   3
 -10  -6  -8 5.78285 3.32956   6
 -10   6  -8 4.97835 2.15310   2
  10   6   8 3.08233 2.95150   6
 -11  -6  -8 79.3574  7.8733   6
 -11   6  -8 89.7755  6.5495   2
  11   6   8 77.2441  7.9650   6
  10  -7  -8 4.34375 2.74345   6
 -10   7   8 0.82757 2.70974   6
  10   7  -8 1.89054 2.04090   2
   9  -7  -8 52.7549  5.4592   6
  -9   7   8 52.8537  5.3864   6
   9   7  -8 62.9156  5.0226   2
  -8  -7   8 108.344  12.009   1
  -8  -7   8 141.011   8.505   4
   8  -7  -8 102.132   8.738   6
  -8   7   8 110.790   8.218   2
   8   7  -8 120.492   8.284   2
  -8   7   8 101.605   8.761   6
   7  -7  -8 37.3919  3.7666   6
  -7  -7   8 41.3050  4.1278   4
  -7  -7   8 46.0018  6.8850   1
  -7   7   8 33.7392  3.6999   6
  -7   7   8 38.9189  3.6448   2
   7   7  -8 41.2684  4.0167   2
   6  -7  -8 128.297   8.463   5
  -6  -7   8 120.849   8.807   4
   6  -7  -8 122.204   9.204   6
  -6  -7   8 119.823  12.469   1
  -6   7   8 134.741   8.620   2
  -6   7   8 114.871   9.158   6
   6   7  -8 133.406   8.846   2
   5  -7  -8 4.85005 1.50780   6
  -5  -7   8 6.01544 3.54411   1
  -5  -7   8 4.48008 1.78043   4
   5  -7  -8 4.84908 1.46358   5
  -5   7   8 5.78848 1.48652   2
   5   7  -8 2.49002 1.80252   2
  -5   7   8 5.13484 1.48995   6
  -4  -7   8 25.7843  5.1966   1
   4  -7  -8 26.0182  2.7212   6
   4  -7  -8 28.8590  2.6151   5
  -4  -7   8 26.1647  2.6446   4
  -4   7   8 32.8980  2.7145   2
  -4   7   8 27.0902  2.7843   6
   4   7  -8 25.6440  2.7756   2
  -3  -7   8 6.45537 3.64696   1
   3  -7  -8 3.80401 1.30368   6
  -3  -7   8 4.03898 1.00921   4
   3  -7  -8 2.71815 1.20964   5
   3   7  -8 2.65323 1.16508   2
  -3   7   8 8.14567 1.42891   6
  -3   7   8 2.26597 1.24452   2
   2  -7  -8 490.568  28.824   5
  -2  -7   8 451.657  38.459   1
   2  -7  -8 476.981  31.231   6
  -2  -7   8 468.022  28.376   4
   2   7  -8 395.541  28.558   2
  -2   7   8 463.954  28.869   2
  -2   7   8 478.351  31.275   6
   1  -7  -8 116.874   7.501   5
  -1  -7   8 116.936  11.849   1
   1  -7  -8 111.009   7.288   4
   1  -7  -8 110.143   7.947   6
  -1  -7   8 111.682   6.861   4
  -1   7   8 106.625   7.938   6
  -1   7   8 105.002   7.353   2
   0  -7  -8 139.223   9.433   5
   0  -7  -8 149.653   9.237   4
   0  -7  -8 141.484  10.065   6
   0  -7   8 148.017  14.464   1
   0  -7   8 118.931  11.188   5
   0   7   8 144.501   9.322   2
   0   7   8 140.440  10.090   6
   0   7   8 146.790   9.336   2
  -1  -7  -8 83.0304  6.4554   6
  -1  -7  -8 87.4360  6.1958   5
   1  -7   8 80.0211  7.9046   5
   1  -7   8 81.9154 10.4481   1
   1   7   8 95.1254  6.0146   2
   1   7   8 89.4238  5.9845   2
   1   7   8 87.3920  6.4499   6
  -2  -7  -8 402.856  29.064   6
   2  -7   8 466.456  28.666   5
  -2  -7  -8 406.647  26.918   5
   2  -7   8 461.976  36.887   1
   2  -7   8 416.651  26.680   4
   2   7   8 432.882  26.876   2
   2   7   8 431.717  29.098   6
  -3  -7  -8 63.6517  5.1237   6
   3  -7   8 69.3161  4.9552   4
   3  -7   8 63.1147  6.8278   5
  -3  -7  -8 64.9901  5.0721   5
   3  -7   8 83.7295  9.2720   1
   3   7   8 63.3848  4.6708   2
   3   7   8 59.8624  5.0085   6
  -3   7  -8 64.8283  4.7566   2
   4  -7   8 543.966  31.120   5
  -4  -7  -8 464.875  32.093   6
  -4  -7  -8 430.076  29.630   5
  -4   7  -8 447.674  29.679   2
   4   7   8 473.048  32.020   6
   4   7   8 478.091  29.554   2
  -5  -7  -8 92.4675  7.4685   6
   5  -7   8 118.801   7.160   4
  -5  -7  -8 88.8379  7.1925   5
   5  -7   8 101.436   8.669   5
  -5   7  -8 98.4762  7.1433   2
   5   7   8 97.6382  7.4065   6
   5   7   8 93.8752  6.8454   2
  -6  -7  -8 106.432   8.687   5
  -6  -7  -8 121.683   9.298   6
   6  -7   8 127.159   9.734   5
   6   7   8 113.692   8.419   2
   6   7   8 118.650   9.095   6
  -6   7  -8 145.696   8.687   2
  -7  -7  -8 1.08500 2.11727   6
   7  -7   8 3.20310 3.46220   3
   7  -7   8 1.85351 1.83766   4
  -7   7  -8 1.65718 1.86700   2
   7   7   8 1.22443 1.89155   2
   7   7   8 4.13129 1.90339   6
   8  -7   8 343.206  27.292   3
  -8  -7  -8 312.480  23.427   6
   8  -7   8 368.555  21.174   4
   8   7   8 286.196  23.025   6
  -8   7  -8 326.852  21.118   2
  -9  -7  -8 16.7223  3.8324   6
   9  -7   8 14.5316  3.7158   3
  -9   7  -8 12.8594  2.4378   2
   9   7   8 10.4369  3.1042   6
 -10  -7  -8 13.5617  3.7692   6
  10  -7   8 31.9475  4.9119   3
  10   7   8 21.0700  3.9958   6
 -10   7  -8 15.0002  2.6937   2
  -9   8   8 216.206  17.027   6
   9   8  -8 253.808  15.749   2
   8  -8  -8 7.33154 2.42668   6
   8   8  -8 5.90988 2.22409   2
  -8   8   8 5.91303 2.14506   2
  -8   8   8 6.09921 2.25075   6
   7  -8  -8 5.97682 1.99952   6
  -7  -8   8 0.80304 3.87148   1
  -7  -8   8 3.53970 2.10856   4
  -7   8   8 3.86691 1.84442   2
  -7   8   8 1.37158 1.81989   6
   7   8  -8 0.58160 1.92869   2
  -6  -8   8 74.4332  5.4282   4
  -6  -8   8 80.9122  9.3904   1
   6  -8  -8 74.1578  5.6938   6
  -6   8   8 65.1745  5.6749   6
  -6   8   8 70.9883  5.2779   2
   6   8  -8 60.1651  5.2928   2
  -5  -8   8 626.104  39.435   4
  -5  -8   8 666.793  52.606   1
   5  -8  -8 690.817  39.581   5
   5  -8  -8 622.723  42.972   6
   5   8  -8 551.094  39.615   2
  -5   8   8 608.556  42.994   6
  -5   8   8 681.557  39.769   2
   4  -8  -8 16.2480  2.1699   6
   4  -8  -8 17.0891  2.2250   5
  -4  -8   8 19.2603  5.2265   1
  -4  -8   8 19.1474  1.8095   4
  -4   8   8 14.3126  2.0561   2
   4   8  -8 15.9233  1.8643   2
  -4   8   8 16.0995  2.1850   6
  -3  -8   8 9.00365 1.10254   4
   3  -8  -8 9.44103 1.75546   5
   3  -8  -8 11.3531  1.7297   6
  -3  -8   8 9.45737 4.61591   1
  -3   8   8 7.67963 1.71291   6
  -3   8   8 11.6402  1.7420   2
   3   8  -8 9.47780 1.24362   2
   2  -8  -8 258.811  16.392   5
  -2  -8   8 261.310  15.813   4
   2  -8  -8 250.033  17.651   6
  -2  -8   8 247.936  23.129   1
  -2   8   8 250.312  16.317   2
  -2   8   8 259.652  17.673   6
  -1  -8   8 715.927  57.563   1
   1  -8  -8 682.258  43.038   5
  -1  -8   8 707.905  42.484   4
   1  -8  -8 661.513  46.692   6
  -1   8   8 703.607  43.177   2
  -1   8   8 684.287  46.738   6
   0  -8  -8 63.1642  4.8113   5
   0  -8  -8 65.3459  4.9641   6
   0  -8   8 58.9729  9.6523   1
   0  -8   8 61.9718  3.9766   4
   0   8   8 61.1819  4.9409   6
   0   8   8 67.3360  4.6011   2
  -1  -8  -8 2.17935 1.46772   5
   1  -8   8 3.10177 0.75497   4
   1  -8   8 2.20511 3.37696   5
  -1  -8  -8 1.65316 1.27023   6
   1  -8   8 0.10024 5.05155   1
   1   8   8 2.25660 1.31336   6
   1   8   8 1.98997 1.23546   2
   1   8   8 2.15630 1.23092   2
   2  -8   8 422.666  31.858   1
   2  -8   8 360.225  21.839   4
  -2  -8  -8 336.085  22.203   5
  -2  -8  -8 347.273  23.936   6
   2  -8   8 361.973  24.018   5
   2   8   8 341.354  22.074   2
   2   8   8 314.417  23.846   6
   3  -8   8 275.766  18.375   5
  -3  -8  -8 237.502  16.600   5
  -3  -8  -8 251.111  17.832   6
   3  -8   8 245.783  16.379   4
   3   8   8 254.530  17.759   6
   3   8   8 276.957  16.452   2
  -4  -8  -8 163.016  11.669   6
   4  -8   8 181.445  10.890   4
   4  -8   8 164.974  12.537   5
  -4  -8  -8 162.450  11.118   5
  -4   8  -8 152.027  10.748   2
   4   8   8 149.869  11.494   6
   4   8   8 157.609  10.642   2
   5  -8   8 12.7212  2.3956   4
  -5  -8  -8 11.1900  2.3724   6
   5   8   8 10.6172  1.8880   2
   5   8   8 10.6231  2.0760   6
  -5   8  -8 9.57066 2.21991   2
  -6  -8  -8 206.923  14.800   6
   6  -8   8 232.345  13.506   4
  -6   8  -8 210.688  13.554   2
   6   8   8 182.585  14.390   6
   6   8   8 182.781  13.340   2
  -7  -8  -8 29.2770  4.2128   6
   7  -8   8 33.8570  3.5342   4
   7   8   8 27.6168  3.5899   6
  -7   8  -8 31.9239  3.4745   2
   7   8   8 34.3696  3.6952   2
  -8  -8  -8 263.895  18.814   6
  -8   8  -8 250.573  16.562   2
   8   8   8 245.385  18.274   6
  -9  -8  -8 21.1604  4.2951   6
  -9   8  -8 18.6202  2.7289   2
   9   8   8 21.7680  3.8650   6
   8   9  -8 47.6613  4.9346   2
  -8   9   8 77.5983  5.5094   2
  -8   9   8 60.3165  5.4845   6
  -7   9   8 14.8084  2.5402   6
  -7   9   8 14.6642  2.5385   2
   7   9  -8 11.5271  2.2034   2
  -6   9   8 -0.1743  1.6045   6
  -6   9   8 1.44589 1.52340   2
   6   9  -8 2.92854 1.44171   2
  -5  -9   8 14.1567  1.7526   4
  -5  -9   8 12.6636  5.3250   1
   5   9  -8 15.5276  1.9045   2
  -5   9   8 17.9967  2.3011   2
  -5   9   8 15.1680  2.3077   6
  -4  -9   8 135.140  13.586   1
  -4  -9   8 125.559   7.744   4
  -4   9   8 120.727   8.225   2
  -4   9   8 107.085   8.766   6
  -3  -9   8 57.9808  9.2037   1
   3  -9  -8 53.7333  4.6321   6
  -3  -9   8 56.4652  3.7372   4
  -3   9   8 58.5200  4.3843   2
  -3   9   8 54.4349  4.5936   6
  -2  -9   8 12.0617  1.0869   4
   2  -9  -8 8.59504 1.75012   6
  -2  -9   8 13.1713  5.9194   1
  -2   9   8 10.0878  1.7147   2
  -2   9   8 13.4324  2.0003   6
  -1  -9   8 1.02710 5.23408   1
  -1  -9   8 1.14508 0.50012   4
   1  -9  -8 3.25212 1.36494   6
  -1   9   8 0.60061 1.31825   6
  -1   9   8 0.99391 1.29123   2
   0  -9   8 171.246  18.469   1
   0  -9   8 173.867  10.615   4
   0  -9  -8 167.610  12.105   6
   0   9   8 168.168  11.199   2
   0   9   8 173.450  12.158   6
   1  -9   8 201.609  12.712   4
   1  -9   8 200.738  21.278   1
  -1  -9  -8 195.886  14.304   6
   1   9   8 221.298  13.294   2
   1   9   8 192.753  14.275   6
   1   9   8 210.336  13.272   2
  -2  -9  -8 47.6141  4.3013   6
   2  -9   8 52.6054  3.7124   4
   2  -9   8 67.3140 10.4757   1
   2  -9   8 52.4106  6.8202   5
   2   9   8 47.8326  3.8671   2
   2   9   8 48.0188  4.1756   6
   2   9   8 47.4438  3.8666   2
   3  -9   8 -1.1339  5.3602   1
   3  -9   8 2.05841 1.71383   4
  -3  -9  -8 1.61590 1.60071   6
   3   9   8 0.13453 1.32407   6
   3   9   8 0.39399 1.35868   2
   4  -9   8 188.994  11.667   4
  -4  -9  -8 173.386  12.610   6
   4   9   8 170.376  12.400   6
   4   9   8 161.769  11.432   2
   5  -9   8 409.370  22.442   4
   5   9   8 327.774  24.128   6
   5   9   8 340.368  22.294   2
  -5   9  -8 319.762  22.406   2
   6   9   8 33.6083  3.4643   2
  -6   9  -8 35.8440  3.7728   2
   6   9   8 29.7258  3.6706   6
   7   9   8 21.3785  2.9765   2
  -7   9  -8 18.3379  2.9592   2
   7   9   8 18.2011  3.0960   6
  -8   9  -8 125.944   8.903   2
   8   9   8 125.265  10.048   6
  -7  10   8 33.1959  3.2350   2
   7  10  -8 19.9863  2.5642   2
  -6  10   8 45.4588  4.0022   2
  -6  10   8 41.3310  4.2084   6
   5  10  -8 36.2800  3.0169   2
  -5  10   8 44.1825  3.6130   2
  -5  10   8 34.7223  3.7319   6
  -4  10   8 3.24784 1.72876   6
  -4  10   8 3.16629 1.61836   2
  -3 -10   8 26.1322  7.5678   1
  -3 -10   8 32.9988  2.3512   4
  -3  10   8 31.2124  3.0548   2
  -3  10   8 29.9638  3.2862   6
  -2 -10   8 45.5384  3.0793   4
  -2 -10   8 50.4748 10.1269   1
  -2  10   8 47.9657  4.1207   6
  -2  10   8 45.8258  3.7740   2
  -1 -10   8 5.72972 0.75064   4
  -1 -10   8 6.43757 6.86731   1
  -1  10   8 3.70826 1.58465   2
  -1  10   8 3.97740 1.68291   6
   0 -10   8 2.40027 0.67770   4
   0 -10   8 5.72129 6.52096   1
   0  10   8 0.45732 1.27318   2
   0  10   8 2.35340 1.57688   6
   1 -10   8 22.9000  1.9051   4
   1 -10   8 18.9209  8.3018   1
   1  10   8 18.1644  2.4475   2
   1  10   8 23.7669  2.5822   2
   1  10   8 24.3129  2.8313   6
   2 -10   8 60.5671  4.0245   4
   2 -10   8 66.4042 11.5891   1
   2  10   8 50.0323  4.1719   2
   2  10   8 51.8018  4.2419   2
   2  10   8 47.0780  4.4574   6
   3 -10   8 16.3359  7.4588   1
   3 -10   8 10.8725  2.1873   4
   3  10   8 9.71145 1.87679   2
   3  10   8 10.0971  2.1030   6
   4 -10   8 26.1491  3.0988   4
   4  10   8 20.9618  2.6692   2
   4  10   8 20.9471  2.8792   6
   5  10   8 8.20746 2.22421   6
   5  10   8 11.1078  2.1745   2
   6  10   8 27.5877  3.2736   2
  -6  10  -8 32.5181  3.6626   2
   6  10   8 28.1299  3.6071   6
   7  10   8 8.61422 2.48397   2
  -7  10  -8 7.97027 2.57341   2
  -5  11   8 38.9792  3.6870   2
  -4  11   8 34.7285  3.2511   2
  -4  11   8 33.2474  3.5226   6
  -3  11   8 306.213  19.697   2
  -2  11   8 67.7429  5.3249   2
  -2  11   8 73.7813  5.8842   6
  -1  11   8 94.3023  7.5091   6
  -1  11   8 99.1160  6.8782   2
   0  11   8 3.37194 1.80133   6
   0  11   8 6.47734 1.74140   2
   1  11   8 306.789  21.525   6
   1  11   8 312.204  19.902   2
   2  11   8 26.6247  2.8985   2
   2  11   8 26.6111  2.9393   2
   2  11   8 26.0246  3.1570   6
   3  11   8 46.5561  4.5294   6
   3  11   8 52.1887  4.2460   2
   3  11   8 49.2348  4.1154   2
   4  11   8 3.24286 1.99118   6
   4  11   8 7.33614 1.87429   2
   5  11   8 315.035  20.442   2
  13   0  -9 -0.1559  2.4133   2
  12   0  -9 0.36698 2.68380   2
  12   0  -9 4.08759 2.97665   6
  11   0  -9 3.21021 2.76928   6
  11   0  -9 3.40996 2.67014   2
  10   0  -9 -0.5415  2.4746   6
  10   0  -9 1.10397 2.42513   2
  -9   0   9 4.42631 1.98791   6
   9   0  -9 1.21448 2.22486   2
  -9   0   9 4.72340 2.28490   4
   9   0  -9 1.72262 2.66147   6
  -8   0   9 0.40139 1.44346   6
  -8   0   9 1.22366 1.63891   4
   8   0  -9 0.88358 1.66054   2
   8   0  -9 -0.1921  2.2498   6
   7   0  -9 1.20504 1.96395   6
  -7   0   9 2.21270 1.34258   4
   7   0  -9 2.28541 1.36790   2
  -7   0   9 3.07070 1.34604   6
  -6   0   9 1.41361 1.05530   6
   6   0  -9 0.86923 1.44166   6
  -6   0   9 0.51813 0.97354   4
   6   0  -9 0.60413 1.10174   2
  -6   0   9 2.13200 1.62620   1
   5   0  -9 10.8024  1.6013   6
  -5   0   9 3.30664 0.92898   4
  -5   0   9 0.18349 1.41432   1
   5   0  -9 -0.3729  0.8340   2
  -5   0   9 0.88948 0.81380   6
   4   0  -9 3.17306 1.15140   6
  -4   0   9 1.44702 0.67010   6
  -4   0   9 0.78263 1.45743   1
   4   0  -9 0.01510 0.67989   2
  -4   0   9 1.75817 0.77827   4
  -3   0   9 0.04384 0.57895   4
   3   0  -9 1.00395 0.89920   6
  -3   0   9 1.94189 1.53530   1
  -3   0   9 1.78028 0.62591   6
   3   0  -9 1.09797 0.67793   2
   3   0  -9 1.41084 0.58852   5
  -2   0   9 0.11637 0.54476   6
  -2   0   9 2.41093 0.62528   4
   2   0  -9 0.38369 0.54426   2
   2   0  -9 1.28507 0.73316   6
   1   0  -9 3.34434 0.61865   2
   1   0  -9 0.45390 0.65349   6
  -1   0   9 3.51943 0.65256   6
  -1   0   9 0.80541 0.54072   4
   0   0  -9 0.89130 0.54513   2
   0   0   9 1.95035 0.66097   6
   0   0   9 0.97989 0.52396   4
   0   0  -9 0.81285 0.60440   6
  -1   0  -9 0.81121 0.58528   2
   1   0   9 1.06832 0.55427   4
   1   0   9 2.41369 0.79215   6
  -1   0  -9 3.19150 0.67957   6
   2   0   9 1.27771 0.61188   4
   2   0   9 0.99916 0.99991   6
  -2   0  -9 0.61642 0.64386   2
  -2   0  -9 1.52437 0.67877   6
   3   0   9 1.80558 1.36392   6
  -3   0  -9 0.71970 0.74348   2
  -3   0  -9 0.59866 0.70435   6
   3   0   9 0.12314 0.69817   4
  -4   0  -9 2.14618 0.84082   6
  -4   0  -9 2.99236 1.01383   2
   4   0   9 2.02359 1.59410   6
   4   0   9 1.50471 0.88470   4
   5   0   9 3.36455 1.84787   6
   5   0   9 1.61807 1.03917   4
  -5   0  -9 2.33194 1.18466   2
  -5   0  -9 1.24177 1.01147   6
   6   0   9 1.20380 1.76289   6
  -6   0  -9 0.25158 1.11996   6
   6   0   9 -1.4223  1.2637   4
   6   0   9 0.34808 1.31047   4
  -6   0  -9 2.34243 1.46527   2
   7   0   9 1.27258 1.85069   6
   7   0   9 -1.2179  1.5897   4
  -7   0  -9 2.37902 1.92770   2
   7   0   9 0.61826 1.69311   4
  -8   0  -9 0.83258 2.08797   6
  -8   0  -9 -0.0451  2.0541   2
   8   0   9 8.24074 2.23471   4
   8   0   9 9.54454 2.50151   4
  -9   0  -9 -1.4434  2.3391   2
   9   0   9 -2.2787  2.2170   4
   9   0   9 2.04571 2.09077   4
  -9   0  -9 0.66906 2.37514   6
 -10   0  -9 1.44108 2.38850   2
  10   0   9 -0.3302  2.0594   4
 -10   0  -9 1.96208 2.66043   6
  10   0   9 -5.8873  2.0831   4
 -11   0  -9 -0.2101  2.5159   6
 -11   0  -9 -0.7815  2.4774   2
 -12   0  -9 1.19455 2.44510   2
 -12   0  -9 -2.5426  2.3722   6
 -13   0  -9 -1.3818  2.5147   2
  13   1  -9 76.7728  6.3991   2
  12  -1  -9 518.814  36.106   2
  12  -1  -9 597.340  39.438   6
  12   1  -9 612.562  39.158   6
  12   1  -9 519.506  35.933   2
  11  -1  -9 110.806   9.479   2
  11  -1  -9 131.893  10.723   6
  11   1  -9 138.238  10.344   6
  11   1  -9 122.654   9.472   2
  10  -1  -9 7.31791 3.20066   6
  10  -1  -9 13.5584  2.9756   2
 -10  -1   9 18.0895  3.1848   4
  10   1  -9 10.6604  2.9465   6
 -10   1   9 9.48627 2.60200   6
  10   1  -9 11.6633  3.0639   2
  -9  -1   9 66.5283  5.8000   4
   9  -1  -9 56.2246  6.1603   6
   9  -1  -9 69.4443  5.6464   2
   9   1  -9 71.6865  6.3347   6
  -9   1   9 61.0549  5.6515   6
   9   1  -9 68.7465  5.8980   2
   8  -1  -9 913.218  68.199   6
   8  -1  -9 1060.01   62.76   2
  -8  -1   9 1053.95   62.63   4
   8   1  -9 983.619  62.828   2
  -8   1   9 1007.02   67.79   6
   8   1  -9 944.692  68.266   6
  -8   1   9 1059.48   62.50   4
  -7  -1   9 1.04244 1.47408   4
   7  -1  -9 1.93850 1.42419   2
   7  -1  -9 -0.3325  1.8418   6
   7   1  -9 1.76866 1.94052   6
   7   1  -9 1.87183 1.42447   2
  -7   1   9 2.42467 1.27555   6
  -7   1   9 2.70391 1.37215   4
   6  -1  -9 12.8740  2.1116   6
   6  -1  -9 10.9572  1.5778   2
  -6  -1   9 10.3786  1.6239   4
  -6  -1   9 11.2522  2.4330   1
  -6   1   9 12.7121  1.6453   4
  -6   1   9 11.5346  1.6471   6
   6   1  -9 9.84843 2.07697   6
   6   1  -9 11.8727  1.6940   2
   5  -1  -9 93.6708  7.0649   6
  -5  -1   9 95.2110  6.3174   4
  -5  -1   9 97.2945  8.4987   1
   5  -1  -9 93.1092  6.3383   2
  -5   1   9 92.9524  8.3490   1
   5   1  -9 91.1686  7.0949   6
   5   1  -9 97.9370  6.3359   2
  -5   1   9 99.4059  6.3039   4
  -5   1   9 92.5835  6.7929   6
   4  -1  -9 1248.13   87.24   2
   4  -1  -9 1451.62   94.65   6
  -4  -1   9 1524.76  111.43   1
  -4  -1   9 1322.78   86.79   4
  -4   1   9 1370.51   94.48   6
   4   1  -9 1409.59   94.65   6
  -4   1   9 1527.95   86.87   4
   4   1  -9 1438.27   87.25   2
  -3  -1   9 38.4078  4.0886   1
  -3  -1   9 35.0995  2.5659   4
   3  -1  -9 38.5478  2.5620   5
   3  -1  -9 40.5650  2.9877   6
   3  -1  -9 34.4867  2.6596   2
   3   1  -9 36.0325  2.9501   6
   3   1  -9 35.2188  2.5861   2
  -3   1   9 34.5074  2.7875   6
  -3   1   9 36.4768  2.6440   4
  -2  -1   9 210.079  14.151   4
  -2  -1   9 227.465  18.887   1
   2  -1  -9 214.784  14.287   2
   2  -1  -9 235.057  15.541   6
   2  -1  -9 228.841  14.191   5
  -2   1   9 230.771  14.218   4
   2   1  -9 251.309  15.520   6
  -2   1   9 220.887  15.434   6
   2   1  -9 228.882  14.239   2
  -1  -1   9 176.668  10.563   4
   1  -1  -9 149.446  10.645   2
  -1  -1   9 175.890  14.408   1
   1  -1  -9 166.093  11.596   6
   1   1  -9 190.418  11.554   6
  -1   1   9 175.741  10.630   4
   1   1  -9 168.116  10.597   2
  -1   1   9 151.870  11.514   6
   0  -1  -9 1541.47   90.18   2
   0  -1  -9 1397.43   97.68   6
   0  -1   9 1444.21   89.65   4
   0   1  -9 1571.81   97.63   6
   0   1   9 1383.33   89.70   4
   0   1  -9 1422.58   90.08   2
   0   1   9 1455.11   97.66   6
  -1  -1  -9 4.60977 0.82238   2
   1  -1   9 6.03101 0.71264   4
  -1  -1  -9 5.68054 0.87024   6
  -1   1  -9 6.09603 0.79657   6
  -1   1  -9 3.71544 0.71630   2
   1   1   9 8.49582 0.99369   6
   1   1   9 4.33893 0.77827   4
  -2  -1  -9 351.266  21.201   2
   2  -1   9 331.953  21.018   4
  -2  -1  -9 350.174  22.951   6
   2   1   9 335.566  21.073   4
  -2   1  -9 372.710  22.883   6
  -2   1  -9 340.615  21.143   2
   2   1   9 288.247  22.932   6
  -3  -1  -9 164.652  11.070   6
   3  -1   9 165.889  10.153   4
  -3  -1  -9 154.261  10.255   2
   3   1   9 166.264  11.205   6
  -3   1  -9 156.346  10.216   2
   3   1   9 154.617  10.164   4
  -3   1  -9 159.370  10.992   6
   4  -1   9 1303.48   79.60   4
  -4  -1  -9 1254.65   80.00   2
  -4  -1  -9 1358.90   86.63   6
   4  -1   9 1300.15   79.58   4
  -4   1  -9 1339.29   86.57   6
   4   1   9 1321.52   86.86   6
   4   1   9 1242.91   79.59   4
  -4   1  -9 1212.64   80.01   2
   5  -1   9 130.759   8.524   4
   5  -1   9 133.460   8.520   4
  -5  -1  -9 127.732   8.556   2
  -5  -1  -9 126.401   9.120   6
  -5   1  -9 127.078   8.622   2
   5   1   9 128.114   8.472   4
  -5   1  -9 132.118   9.134   6
   5   1   9 120.803   9.503   6
   6  -1   9 114.144   8.220   4
  -6  -1  -9 133.698   8.327   2
   6  -1   9 110.878   8.231   4
  -6  -1  -9 120.989   8.722   6
  -6   1  -9 117.711   8.719   6
  -6   1  -9 124.309   8.433   2
   6   1   9 125.244   8.207   4
   6   1   9 113.933   9.203   6
   7  -1   9 82.6052  6.5464   4
  -7  -1  -9 87.6158  6.8200   6
  -7  -1  -9 87.9069  6.6469   2
   7   1   9 87.8203  6.4672   4
   7   1   9 87.4869  7.2294   6
  -7   1  -9 94.3898  7.0168   6
  -7   1  -9 79.6788  6.6685   2
  -8  -1  -9 1276.17   75.30   2
   8  -1   9 1138.27   74.73   4
  -8  -1  -9 1210.23   81.27   6
   8   1   9 1109.79   74.75   4
  -8   1  -9 1197.99   81.37   6
   8   1   9 1396.44   81.43   6
  -8   1  -9 1079.36   75.11   2
  -9  -1  -9 85.7746  7.3753   6
   9  -1   9 87.3778  6.8023   4
  -9   1  -9 90.7082  6.9152   2
  -9   1  -9 83.9765  7.4430   6
   9   1   9 76.2181  6.8949   4
   9   1   9 71.2388  6.8830   4
   9   1   9 94.6587  7.1196   6
 -10  -1  -9 15.1120  3.4943   6
  10  -1   9 15.1748  3.1262   4
 -10  -1  -9 16.9269  3.4472   2
 -10   1  -9 23.9350  3.4418   2
 -10   1  -9 15.5544  3.6043   6
  11  -1   9 50.4248  4.8868   4
 -11  -1  -9 48.6238  5.0148   2
 -11  -1  -9 37.3154  5.2566   6
 -11   1  -9 44.0456  5.2565   6
 -11   1  -9 48.8747  4.7010   2
 -12  -1  -9 1093.96   63.35   2
 -12  -1  -9 918.539  68.403   6
 -12   1  -9 901.825  68.167   6
 -12   1  -9 1102.69   63.19   2
  12  -2  -9 32.8804  5.0490   6
  12   2  -9 33.8916  4.2442   2
  12   2  -9 37.1745  4.6759   6
 -12   2   9 37.6521  4.7864   6
  11  -2  -9 20.3683  3.9012   6
  11  -2  -9 18.5394  3.7081   2
 -11  -2   9 19.8496  3.0426   4
 -11   2   9 9.73153 3.14058   6
  11   2  -9 18.1762  3.3051   2
  11   2  -9 24.7948  3.8342   6
  10  -2  -9 68.6356  6.8404   6
 -10  -2   9 64.8122  5.6981   4
  10  -2  -9 69.9782  6.1505   2
  10   2  -9 69.1403  6.1148   2
 -10   2   9 66.4138  6.2212   6
   9  -2  -9 36.0702  4.7533   6
  -9  -2   9 40.6179  4.1962   4
   9  -2  -9 40.3045  4.1087   2
   9   2  -9 43.8163  4.9365   6
  -9   2   9 36.4586  4.1902   6
   9   2  -9 38.7548  4.4998   2
   8  -2  -9 144.946   9.973   2
   8  -2  -9 144.972  11.133   6
  -8  -2   9 143.882  10.277   4
   8   2  -9 156.132  11.474   6
  -8   2   9 135.010  10.683   6
   8   2  -9 154.082  10.378   2
   7  -2  -9 55.9048  4.4450   2
   7  -2  -9 56.0828  5.1843   6
  -7  -2   9 59.1136  4.7997   4
  -7   2   9 65.5118  4.5419   4
   7   2  -9 66.9550  4.8778   2
  -7   2   9 52.0411  4.7084   6
   7   2  -9 56.8173  5.5758   6
  -6  -2   9 171.220  11.180   4
   6  -2  -9 177.937  11.117   2
  -6  -2   9 182.921  14.481   1
   6  -2  -9 153.205  12.108   6
  -6   2   9 181.353  11.076   4
   6   2  -9 173.323  11.198   2
   6   2  -9 163.258  12.455   6
  -6   2   9 159.477  11.929   6
  -5  -2   9 93.1621  7.9049   1
   5  -2  -9 82.2326  6.3187   6
   5  -2  -9 85.9739  5.7506   2
  -5  -2   9 93.0682  5.7973   4
   5   2  -9 78.5967  6.5278   6
  -5   2   9 80.0170  6.1806   6
  -5   2   9 85.7228  5.7189   4
   5   2  -9 81.9280  5.7475   2
  -4  -2   9 109.791   9.224   1
   4  -2  -9 96.7561  7.3526   6
   4  -2  -9 103.413   6.570   5
   4  -2  -9 102.908   6.761   2
  -4  -2   9 102.185   6.647   4
  -4   2   9 105.981   6.710   4
   4   2  -9 98.4917  6.6718   2
  -4   2   9 102.616   7.267   6
   4   2  -9 100.751   7.441   6
   3  -2  -9 131.782   7.977   5
  -3  -2   9 124.554  10.895   1
  -3  -2   9 116.669   7.919   4
   3  -2  -9 116.376   8.050   2
   3  -2  -9 132.245   8.810   6
   3   2  -9 124.275   7.965   2
  -3   2   9 126.614   8.691   6
   3   2  -9 126.856   8.752   6
  -3   2   9 125.648   8.019   4
  -2  -2   9 739.944  44.026   4
   2  -2  -9 699.701  44.356   2
  -2  -2   9 715.608  57.082   1
   2  -2  -9 737.170  44.042   5
   2  -2  -9 690.127  48.095   6
   2   2  -9 716.687  44.231   2
  -2   2   9 710.554  44.126   4
   2   2  -9 706.842  48.004   6
  -2   2   9 718.210  48.014   6
   1  -2  -9 358.412  21.483   5
  -1  -2   9 325.636  28.158   1
   1  -2  -9 330.667  23.368   6
  -1  -2   9 349.425  21.323   4
   1  -2  -9 347.455  21.550   2
   1   2  -9 321.033  21.407   2
  -1   2   9 343.448  23.330   6
  -1   2   9 336.084  21.441   4
   1   2  -9 390.777  23.271   6
   0  -2  -9 3.33009 0.84101   6
   0  -2   9 1.22895 2.10940   1
   0  -2   9 2.66296 0.48529   4
   0  -2  -9 1.33944 0.71449   2
   0   2   9 3.01075 0.74769   6
   0   2   9 1.32795 0.64029   4
   0   2  -9 1.80153 0.49566   2
   0   2  -9 4.17259 0.64505   6
   1  -2   9 202.876  12.769   4
  -1  -2  -9 214.135  14.071   6
  -1  -2  -9 201.686  12.952   2
   1  -2   9 188.665  17.551   1
   1   2   9 223.301  12.927   4
   1   2   9 188.189  14.016   6
  -1   2  -9 199.238  12.849   2
  -1   2  -9 220.778  13.907   6
  -2  -2  -9 911.534  62.127   6
  -2  -2  -9 897.598  57.344   2
   2  -2   9 875.398  74.008   1
   2  -2   9 927.106  56.960   4
   2   2   9 928.855  57.062   4
  -2   2  -9 968.881  61.989   6
  -2   2  -9 926.351  57.251   2
   2   2   9 962.673  62.143   6
   3  -2   9 701.477  42.121   4
  -3  -2  -9 744.762  42.444   2
   3  -2   9 691.747  42.132   4
  -3  -2  -9 679.906  45.935   6
   3  -2   9 595.282  54.930   1
   3   2   9 704.776  42.210   4
   3   2   9 608.484  45.931   6
  -3   2  -9 660.702  42.355   2
  -3   2  -9 741.323  45.812   6
  -4  -2  -9 15.1012  1.6765   6
   4  -2   9 16.4242  3.7816   1
   4  -2   9 14.0107  1.5554   4
  -4  -2  -9 15.4496  1.6616   2
   4  -2   9 12.3195  1.5165   4
   4   2   9 13.5341  1.5492   4
  -4   2  -9 14.6098  1.6293   6
  -4   2  -9 15.9546  1.7661   2
   4   2   9 15.1012  1.9287   6
   5  -2   9 293.904  22.062   1
  -5  -2  -9 261.072  16.443   2
  -5  -2  -9 241.740  17.698   6
   5  -2   9 244.928  16.376   4
   5   2   9 255.168  17.945   6
   5   2   9 254.237  16.344   4
  -5   2  -9 273.339  17.720   6
  -5   2  -9 243.110  16.548   2
  -6  -2  -9 238.523  15.748   2
   6  -2   9 231.020  15.768   4
  -6  -2  -9 228.905  16.872   6
  -6   2  -9 245.767  15.964   2
   6   2   9 257.005  17.304   6
   6   2   9 249.918  15.669   4
  -6   2  -9 251.355  17.016   6
   7  -2   9 630.594  41.202   4
  -7  -2  -9 653.488  44.559   6
  -7  -2  -9 683.905  41.347   2
  -7   2  -9 670.739  44.803   6
   7   2   9 626.999  44.857   6
   7   2   9 708.319  41.162   4
  -7   2  -9 610.515  41.402   2
  -8  -2  -9 -0.1036  2.0866   2
   8  -2   9 -1.6380  1.8582   4
  -8  -2  -9 2.58415 1.92454   6
  -8   2  -9 -0.7502  1.9501   2
   8   2   9 1.42619 2.24586   6
  -8   2  -9 2.82323 2.12758   6
   8   2   9 2.00843 1.93389   4
   9  -2   9 221.024  13.820   4
  -9  -2  -9 189.350  14.902   6
  -9  -2  -9 184.839  13.836   2
   9   2   9 203.324  14.901   6
  -9   2  -9 168.188  14.822   6
  -9   2  -9 242.115  13.981   2
 -10  -2  -9 9.48691 3.31116   6
  10  -2   9 10.9058  2.6408   4
 -10  -2  -9 6.87451 2.98703   2
  10   2   9 13.1664  2.9307   6
 -10   2  -9 13.5256  3.2572   6
 -10   2  -9 16.9096  3.0270   2
 -11  -2  -9 388.545  25.353   2
  11  -2   9 430.613  24.952   4
 -11   2  -9 426.941  25.066   2
 -11   2  -9 338.716  26.860   6
  11   2   9 341.655  26.732   6
 -12  -2  -9 6.58899 2.89346   6
 -12   2  -9 2.56721 2.49322   6
 -12   2  -9 5.16215 2.47286   2
  12  -3  -9 173.663  13.004   6
 -12   3   9 145.456  12.542   6
  12   3  -9 171.907  12.478   6
  12   3  -9 153.290  11.299   2
 -11  -3   9 107.501   7.709   4
  11  -3  -9 98.6529  9.0576   6
  11   3  -9 133.098   9.147   6
 -11   3   9 81.7629  8.7273   6
  11   3  -9 106.882   8.069   2
  10  -3  -9 108.014   9.759   6
 -10  -3   9 137.270   8.687   4
 -10   3   9 108.677   9.430   6
  10   3  -9 118.005   8.879   2
   9  -3  -9 3.93090 2.22049   2
  -9  -3   9 6.36121 2.19679   4
   9  -3  -9 3.94727 2.43358   6
   9   3  -9 10.2621  2.8330   6
   9   3  -9 7.18008 2.53671   2
  -9   3   9 5.53392 2.34667   6
  -8  -3   9 129.307   9.762   4
   8  -3  -9 151.645  10.590   6
   8  -3  -9 161.464   9.691   2
   8   3  -9 116.130   9.816   2
  -8   3   9 133.739  10.320   6
   7  -3  -9 7.97510 1.72832   2
  -7  -3   9 5.41445 1.96322   4
  -7  -3   9 4.43396 2.49913   1
   7  -3  -9 2.51190 1.60307   6
   7   3  -9 2.61950 2.34085   6
  -7   3   9 5.41353 1.67635   6
   7   3  -9 7.65628 2.25377   2
   6  -3  -9 348.453  24.393   6
   6  -3  -9 350.780  22.405   2
  -6  -3   9 363.494  28.988   1
  -6  -3   9 370.975  22.563   4
   6   3  -9 298.104  24.654   6
  -6   3   9 378.902  22.357   4
  -6   3   9 357.838  24.258   6
   6   3  -9 362.967  22.630   2
   5  -3  -9 79.6316  5.5615   2
   5  -3  -9 82.0015  6.0661   6
  -5  -3   9 79.7550  7.6701   1
  -5  -3   9 82.7490  5.6278   4
   5   3  -9 78.9695  6.4458   6
  -5   3   9 79.8748  5.9632   6
   5   3  -9 78.5465  5.6197   2
  -5   3   9 83.2275  5.5138   4
  -4  -3   9 91.1017  8.5639   1
   4  -3  -9 95.1838  6.7697   6
   4  -3  -9 97.0220  6.0633   5
   4  -3  -9 85.0028  6.1797   2
  -4  -3   9 95.8930  6.1193   4
  -4   3   9 94.9006  6.1610   4
  -4   3   9 91.5478  6.6619   6
   4   3  -9 89.5977  6.1163   2
  -3  -3   9 113.778   9.877   1
   3  -3  -9 107.861   6.988   5
  -3  -3   9 106.612   6.904   4
   3  -3  -9 108.313   7.099   2
   3  -3  -9 104.537   7.718   6
  -3   3   9 104.593   7.630   6
   3   3  -9 106.428   6.937   2
  -3   3   9 109.159   7.109   2
  -3   3   9 114.446   7.055   4
  -2  -3   9 527.410  44.055   1
   2  -3  -9 541.522  34.029   2
   2  -3  -9 573.444  36.927   6
   2  -3  -9 572.862  33.830   5
  -2  -3   9 567.899  33.709   4
  -2   3   9 552.646  33.868   4
   2   3  -9 537.472  33.862   2
  -2   3   9 554.181  34.053   2
  -2   3   9 492.691  36.808   6
  -1  -3   9 3.79691 2.11474   1
   1  -3  -9 5.60124 1.02282   5
   1  -3  -9 6.00842 0.93544   2
  -1  -3   9 4.40045 0.60346   4
   1  -3  -9 5.87002 1.02683   6
   1   3  -9 5.24287 0.62812   2
  -1   3   9 6.18582 0.97443   6
  -1   3   9 6.24658 0.95857   2
  -1   3   9 4.47202 0.86453   4
   0  -3  -9 136.218   8.949   5
   0  -3  -9 135.966   8.873   2
   0  -3   9 141.159  12.528   1
   0  -3   9 132.094   8.622   4
   0  -3  -9 142.269   9.641   6
   0   3   9 146.697   8.916   2
   0   3   9 133.777   9.621   6
   0   3   9 142.038   8.849   4
   0   3  -9 140.289   8.670   2
  -1  -3  -9 81.7792  5.6221   6
   1  -3   9 71.7896  7.9860   1
   1  -3   9 75.9188  4.9297   4
  -1  -3  -9 79.2760  5.2114   2
   1   3   9 72.7340  5.5819   6
   1   3   9 80.9354  5.1626   4
  -1   3  -9 75.3507  4.9751   2
   1   3   9 78.2070  5.1723   2
   1   3   9 83.8603  5.1991   2
  -2  -3  -9 407.017  26.972   6
  -2  -3  -9 403.466  24.879   2
   2  -3   9 399.242  24.597   4
   2  -3   9 381.675  32.882   1
   2   3   9 412.446  24.771   4
   2   3   9 373.678  26.930   6
   2   3   9 414.733  24.872   2
  -2   3  -9 388.466  24.738   2
   3  -3   9 239.012  23.535   1
   3  -3   9 288.839  17.410   4
  -3  -3  -9 281.205  17.621   2
  -3  -3  -9 298.317  19.103   6
   3   3   9 278.369  17.525   4
  -3   3  -9 269.571  17.533   2
   3   3   9 287.223  19.103   6
   4  -3   9 363.993  28.146   1
   4  -3   9 319.271  20.916   4
  -4  -3  -9 313.959  22.750   6
  -4  -3  -9 348.110  21.059   2
   4   3   9 346.071  20.953   4
  -4   3  -9 323.474  21.111   2
   4   3   9 330.522  22.814   6
  -5  -3  -9 19.5765  2.0815   2
   5  -3   9 25.1924  4.3542   1
  -5  -3  -9 19.2365  2.1614   6
   5  -3   9 18.5972  2.2937   4
   5   3   9 18.0711  2.3405   6
   5   3   9 19.1669  1.9770   4
  -5   3  -9 17.7518  2.4503   2
   6  -3   9 145.858  10.386   4
  -6  -3  -9 146.876  10.971   6
  -6  -3  -9 171.129  10.312   2
  -6   3  -9 140.842  10.456   2
   6   3   9 156.475  11.195   6
   6   3   9 155.952  10.148   4
  -7  -3  -9 535.071  38.561   6
   7  -3   9 560.996  35.784   4
  -7  -3  -9 594.844  35.823   2
   7   3   9 579.138  38.886   6
  -7   3  -9 563.070  38.935   6
  -7   3  -9 560.544  35.948   2
  -8  -3  -9 456.343  32.707   6
   8  -3   9 524.547  30.380   4
  -8  -3  -9 457.357  30.337   2
  -8   3  -9 432.152  32.927   6
  -8   3  -9 518.624  30.469   2
   8   3   9 454.936  32.940   6
   9  -3   9 155.980   9.588   4
  -9  -3  -9 118.538  10.140   6
  -9  -3  -9 124.853   9.543   2
  -9   3  -9 134.862   9.405   2
  -9   3  -9 124.097  10.265   6
   9   3   9 118.694  10.321   6
 -10  -3  -9 64.0070  6.5126   6
 -10  -3  -9 61.6807  6.1812   2
  10  -3   9 66.5665  5.7759   4
  10   3   9 60.6825  6.4224   6
 -10   3  -9 78.8889  5.9495   2
 -10   3  -9 69.8321  6.2488   6
 -11  -3  -9 207.143  18.017   6
 -11   3  -9 246.103  17.650   6
 -11   3  -9 275.949  16.499   2
  11   3   9 246.088  17.818   6
 -12  -3  -9 304.576  23.921   6
  12   3   9 339.866  23.614   6
 -12   3  -9 303.787  23.371   6
 -12   3  -9 382.109  21.887   2
  12   4  -9 95.1019  7.6341   2
 -12   4   9 99.3040  9.0441   6
  12   4  -9 108.543   8.545   6
  11  -4  -9 219.208  19.241   6
  11   4  -9 256.191  17.409   2
  11   4  -9 313.924  19.292   6
 -10  -4   9 479.293  29.398   4
  10  -4  -9 410.294  32.418   6
  10   4  -9 495.543  29.762   2
   9  -4  -9 403.630  30.669   3
   9  -4  -9 356.010  26.295   6
  -9  -4   9 380.204  23.896   4
  -9   4   9 350.120  26.167   6
   9   4  -9 377.381  24.227   2
   8  -4  -9 446.334  31.196   6
   8  -4  -9 450.297  28.716   2
  -8  -4   9 477.558  28.663   4
   8   4  -9 457.900  28.992   2
  -8   4   9 421.738  31.042   6
   7  -4  -9 125.882   9.737   6
  -7  -4   9 144.865  12.177   1
  -7  -4   9 127.340   9.190   4
   7  -4  -9 144.426   9.081   2
  -7   4   9 123.905   9.641   6
   7   4  -9 129.088   9.413   2
   6  -4  -9 217.775  13.570   2
  -6  -4   9 182.261  13.743   4
   6  -4  -9 204.909  14.711   6
  -6  -4   9 221.789  17.938   1
   6   4  -9 217.487  13.943   2
  -6   4   9 212.200  14.642   6
   5  -4  -9 301.287  21.622   6
  -5  -4   9 296.663  20.018   4
   5  -4  -9 339.015  19.959   2
   5  -4  -9 324.022  19.691   5
  -5  -4   9 311.237  25.967   1
   5   4  -9 303.442  20.049   2
  -5   4   9 323.310  21.571   6
  -4  -4   9 373.517  30.508   1
   4  -4  -9 388.137  25.418   6
  -4  -4   9 355.175  23.320   4
   4  -4  -9 381.309  23.428   2
   4  -4  -9 382.743  23.198   5
  -4   4   9 363.672  23.414   2
   4   4  -9 363.318  23.382   2
  -4   4   9 370.602  25.329   6
  -3  -4   9 1.87623 2.21819   1
   3  -4  -9 4.61005 1.08151   6
   3  -4  -9 4.22691 0.96839   5
   3  -4  -9 2.13112 0.91685   2
  -3  -4   9 3.47483 0.87152   4
  -3   4   9 3.10597 0.99443   2
  -3   4   9 1.98471 0.94601   6
  -3   4   9 0.43841 0.83863   4
   3   4  -9 0.67522 0.76580   2
   2  -4  -9 16.1441  1.7506   6
   2  -4  -9 15.3667  1.5900   2
  -2  -4   9 15.7724  1.3060   4
   2  -4  -9 18.3127  1.6985   5
  -2  -4   9 19.6234  3.5250   1
  -2   4   9 14.2890  1.6187   2
  -2   4   9 15.8786  1.5950   4
  -2   4   9 15.4050  1.6849   6
   2   4  -9 16.2741  1.3205   2
  -1  -4   9 109.201   6.832   4
  -1  -4   9 109.407  10.364   1
   1  -4  -9 105.535   7.177   5
   1  -4  -9 117.525   7.175   2
   1  -4  -9 106.313   7.735   6
  -1  -4   9 110.643   6.835   4
   1   4  -9 110.949   6.863   2
  -1   4   9 105.593   7.093   4
  -1   4   9 107.626   7.714   6
  -1   4   9 110.379   7.159   2
   0  -4  -9 1.06652 0.82607   6
   0  -4   9 2.24648 0.41453   4
   0  -4   9 1.86985 0.41295   4
   0  -4  -9 1.74540 0.82005   2
   0  -4   9 2.41544 2.76905   1
   0   4   9 1.81328 0.86387   6
   0   4  -9 3.55897 0.43519   2
   0   4   9 3.34716 0.91142   2
   0   4   9 2.94634 0.83826   4
   1  -4   9 88.4017  9.1886   1
  -1  -4  -9 87.5412  6.0108   2
  -1  -4  -9 87.8312  6.5107   6
   1  -4   9 95.5204  5.6799   4
  -1  -4  -9 90.5078  6.1571   5
   1  -4   9 93.8212  5.6764   4
   1   4   9 90.0215  5.9916   2
  -1   4  -9 91.8470  5.7236   2
   1   4   9 90.6131  6.0016   2
   1   4   9 88.5450  6.5054   6
   1   4   9 87.2461  5.9667   4
   2  -4   9 9.63480 1.01482   4
  -2  -4  -9 9.68204 1.28963   2
   2  -4   9 9.71849 1.00328   4
  -2  -4  -9 12.6911  1.4766   6
  -2  -4  -9 7.33422 1.51009   5
   2  -4   9 10.8661  3.8572   1
   2   4   9 11.3714  1.3479   4
   2   4   9 10.1198  1.4223   6
   2   4   9 9.39764 1.26988   2
  -2   4  -9 13.3482  1.1250   2
  -3  -4  -9 66.0850  4.9328   6
   3  -4   9 68.7020  4.4199   4
  -3  -4  -9 65.7680  4.5461   2
   3  -4   9 61.4480  7.7353   1
   3   4   9 65.2207  4.9401   6
  -3   4  -9 58.6515  4.5120   2
   3   4   9 69.5071  4.5604   2
   3   4   9 66.6058  4.5464   4
   4  -4   9 262.390  16.886   4
  -4  -4  -9 271.701  18.343   6
  -4  -4  -9 255.469  16.908   2
   4   4   9 294.686  18.402   6
  -4   4  -9 242.876  17.011   2
   4   4   9 271.093  16.857   4
   5  -4   9 33.4389  3.4328   4
  -5  -4  -9 37.6916  3.1270   2
  -5  -4  -9 40.6224  3.4254   6
   5  -4   9 53.3723  6.1064   1
   5  -4   9 38.6467  5.3619   3
   5   4   9 39.9949  3.5149   6
  -5   4  -9 32.5470  3.5015   2
  -6  -4  -9 143.695   9.425   2
   6  -4   9 137.448   9.689   4
  -6  -4  -9 140.848  10.166   6
   6   4   9 135.797  10.227   6
  -6   4  -9 141.151   9.741   2
   7  -4   9 217.896  13.638   4
  -7  -4  -9 199.787  13.434   2
  -7  -4  -9 183.200  14.377   6
  -7   4  -9 212.855  13.647   2
   7   4   9 199.362  14.608   6
  -8  -4  -9 202.845  14.389   2
  -8  -4  -9 189.363  15.407   6
   8  -4   9 237.295  14.437   4
  -8   4  -9 242.560  14.477   2
   8   4   9 197.552  15.553   6
  -9  -4  -9 9.50469 2.75367   6
   9  -4   9 6.23646 2.43022   4
  -9   4  -9 5.80370 2.27498   2
   9   4   9 4.43646 2.87178   6
 -10  -4  -9 277.879  22.990   6
  10  -4   9 362.053  20.978   4
  10   4   9 299.443  23.016   6
 -10   4  -9 335.515  20.940   2
 -11  -4  -9 306.106  25.531   6
 -11   4  -9 361.854  25.015   6
  11   4   9 368.862  25.510   6
 -11   4  -9 384.769  23.259   2
 -12   4  -9 25.5130  3.5810   6
  12   4   9 20.8476  3.8476   6
  11  -5  -9 16.2323  3.9518   6
 -11   5   9 21.9220  3.9595   6
  11   5  -9 18.5395  2.9380   2
  10  -5  -9 45.2654  5.4072   6
  10  -5  -9 53.0066  6.4683   3
 -10   5   9 42.3621  5.2433   6
  10   5  -9 46.5682  4.4178   2
  -9  -5   9 19.2681  2.7420   4
   9  -5  -9 13.2362  3.1649   6
  -9   5   9 17.8451  3.2156   6
   9   5  -9 21.9603  2.8896   2
   8  -5  -9 2.12673 1.93917   6
  -8  -5   9 2.94635 1.71627   4
  -8   5   9 3.41436 1.95482   6
   8   5  -9 2.10375 1.92698   2
   7  -5  -9 179.804  13.695   6
  -7  -5   9 193.307  16.860   1
  -7  -5   9 202.149  12.677   4
  -7   5   9 178.286  13.592   6
   7   5  -9 204.865  12.996   2
  -6  -5   9 40.6083  5.3241   1
  -6  -5   9 43.2346  3.7762   4
   6  -5  -9 42.2246  3.6863   6
   6   5  -9 35.6690  3.8901   2
  -6   5   9 36.9237  3.5215   6
   5  -5  -9 103.554   7.639   6
   5  -5  -9 98.1883  7.0525   2
   5  -5  -9 109.575   6.924   5
  -5  -5   9 110.222  10.085   1
  -5  -5   9 112.345   7.469   4
  -5   5   9 110.833   7.110   2
   5   5  -9 88.6546  7.3438   2
  -5   5   9 99.1423  7.5871   6
   4  -5  -9 2.44722 1.08608   5
  -4  -5   9 0.49105 1.60000   4
   4  -5  -9 3.90401 1.23128   2
  -4  -5   9 3.78503 2.54733   1
   4  -5  -9 1.89248 1.11577   6
  -4   5   9 1.81181 1.15124   2
   4   5  -9 2.89663 1.55800   2
  -4   5   9 0.80531 1.04392   6
  -3  -5   9 457.175  30.161   4
   3  -5  -9 463.601  32.739   6
   3  -5  -9 504.148  30.254   2
  -3  -5   9 486.105  39.427   1
   3  -5  -9 461.045  29.989   5
  -3   5   9 503.672  30.256   2
  -3   5   9 486.746  32.715   6
   3   5  -9 501.516  30.180   2
   2  -5  -9 75.6346  5.9807   6
   2  -5  -9 82.2496  5.5486   2
   2  -5  -9 86.3954  5.6167   5
  -2  -5   9 87.0194  8.5523   1
  -2  -5   9 81.8160  5.4376   4
  -2   5   9 82.3024  6.0154   6
  -2   5   9 81.5745  5.5680   2
   2   5  -9 83.0127  5.3206   2
   1  -5  -9 102.340   7.416   6
   1  -5  -9 107.395   6.949   5
  -1  -5   9 97.0788  6.5031   4
  -1  -5   9 99.3430 10.2333   1
   1  -5  -9 109.937   6.887   2
  -1  -5   9 101.985   6.460   4
  -1   5   9 103.090   7.403   6
   1   5  -9 108.179   6.515   2
  -1   5   9 103.916   6.861   2
   0  -5   9 2.15997 0.31976   4
   0  -5  -9 0.59752 0.88546   6
   0  -5  -9 1.03881 0.91159   2
   0  -5  -9 0.85621 1.03077   5
   0  -5   9 1.11403 0.30589   4
   0  -5   9 -0.2710  2.9196   1
   0  -5   9 0.39030 2.36220   5
   0   5   9 1.33915 0.88176   2
   0   5   9 1.15254 0.90555   6
   0   5  -9 1.35567 0.32465   2
  -1  -5  -9 415.652  26.494   2
   1  -5   9 441.936  26.036   4
   1  -5   9 347.115  27.408   5
   1  -5   9 409.546  26.056   4
   1  -5   9 427.100  35.423   1
  -1  -5  -9 421.538  26.503   5
  -1  -5  -9 415.261  28.743   6
   1   5   9 472.918  26.572   2
   1   5   9 461.582  26.548   2
   1   5   9 405.354  28.701   6
  -1   5  -9 423.677  26.183   2
   2  -5   9 175.373  11.097   4
  -2  -5  -9 173.530  12.428   6
   2  -5   9 165.777  16.419   1
   2  -5   9 177.179  12.996   5
  -2  -5  -9 180.287  11.637   5
  -2  -5  -9 184.441  11.501   2
   2   5   9 174.446  12.391   6
   2   5   9 190.129  11.481   2
   3  -5   9 12.1750  3.4121   5
  -3  -5  -9 11.9200  1.7747   5
  -3  -5  -9 8.39572 1.43539   6
  -3  -5  -9 7.61759 1.32596   2
   3  -5   9 10.4279  1.3157   4
   3  -5   9 7.57047 4.03321   1
  -3   5  -9 7.44590 1.47401   2
   3   5   9 8.46213 1.47084   6
   3   5   9 10.8024  1.4344   2
  -4  -5  -9 1.48017 1.40926   5
   4  -5   9 0.39899 2.64195   5
  -4  -5  -9 3.09210 1.16586   2
  -4  -5  -9 3.30649 1.25310   6
   4  -5   9 4.03495 1.43117   4
   4  -5   9 5.03920 3.89564   1
   4   5   9 4.11192 1.23237   2
   4   5   9 1.70896 1.17201   6
  -4   5  -9 2.46125 1.50002   2
  -5  -5  -9 141.889   9.492   2
   5  -5   9 138.940   9.741   4
  -5  -5  -9 141.893  10.361   6
  -5  -5  -9 135.893   9.854   5
   5  -5   9 171.517  13.334   3
  -5   5  -9 130.206   9.685   2
   5   5   9 152.134  10.362   6
  -6  -5  -9 216.592  16.663   6
   6  -5   9 256.997  15.738   4
  -6  -5  -9 239.341  15.458   2
   6   5   9 230.125  16.708   6
  -6   5  -9 250.632  15.680   2
   7  -5   9 5.79668 2.19737   4
   7  -5   9 4.83028 3.37391   3
  -7  -5  -9 6.88270 2.06247   6
   7   5   9 6.61699 2.11356   6
  -7   5  -9 8.78066 2.24833   2
  -8  -5  -9 4.83903 2.28909   6
   8  -5   9 5.66324 3.16353   3
   8  -5   9 4.00231 2.19313   4
  -8   5  -9 1.48277 1.99377   2
   8   5   9 4.14842 2.33402   6
   9  -5   9 79.5218  5.7060   4
  -9  -5  -9 63.2014  6.3508   6
   9   5   9 58.6237  6.2425   6
  -9   5  -9 64.6701  5.4714   2
 -10  -5  -9 203.720  15.879   6
  10   5   9 189.844  15.703   6
 -10   5  -9 225.314  14.046   2
 -11  -5  -9 4.51866 3.07819   6
 -11   5  -9 2.52207 2.10153   2
  11   5   9 2.16519 2.88218   6
  10  -6  -9 233.701  19.541   3
  10  -6  -9 194.732  16.637   6
  10   6  -9 243.943  15.039   2
  -9  -6   9 261.333  15.318   4
   9  -6  -9 216.521  16.741   6
  -9   6   9 199.010  16.606   6
   9   6  -9 241.999  15.251   2
   8  -6  -9 71.3639  6.4374   6
  -8  -6   9 90.2944  6.1448   4
  -8  -6   9 91.4917  9.1050   1
   8   6  -9 74.6015  5.9409   2
  -8   6   9 65.3208  6.2502   6
  -7  -6   9 5.54458 3.40837   1
   7  -6  -9 1.23993 1.67182   6
  -7  -6   9 3.04948 1.81904   4
   7   6  -9 4.57762 1.95849   2
  -7   6   9 0.02827 1.58868   6
   6  -6  -9 173.951  13.069   6
  -6  -6   9 177.667  16.467   1
  -6  -6   9 212.993  12.356   4
  -6   6   9 163.490  12.985   6
  -6   6   9 176.573  12.103   2
   6   6  -9 203.541  12.417   2
  -5  -6   9 207.909  18.924   1
   5  -6  -9 204.920  15.123   6
   5  -6  -9 219.771  13.886   5
  -5  -6   9 252.033  14.287   4
   5   6  -9 213.985  14.279   2
  -5   6   9 199.376  15.104   6
  -5   6   9 222.410  14.035   2
  -4  -6   9 130.297  12.608   1
   4  -6  -9 125.621   9.650   6
  -4  -6   9 146.851   9.205   4
   4  -6  -9 135.649   8.882   5
  -4   6   9 137.934   8.963   2
  -4   6   9 129.125   9.623   6
   4   6  -9 142.305   9.337   2
   3  -6  -9 5.00549 1.32896   6
  -3  -6   9 6.68968 3.34157   1
   3  -6  -9 7.24312 1.37249   5
  -3  -6   9 12.6425  1.7857   4
   3   6  -9 4.56539 1.82569   2
  -3   6   9 7.69716 1.35053   2
  -3   6   9 5.66908 1.32920   6
  -2  -6   9 243.997  19.556   1
  -2  -6   9 181.280  13.933   4
   2  -6  -9 220.883  15.309   6
   2  -6  -9 228.668  14.140   5
  -2   6   9 226.230  15.310   6
  -2   6   9 240.565  14.194   2
  -1  -6   9 100.232   7.224   4
   1  -6  -9 114.659   8.247   6
   1  -6  -9 120.960   7.632   2
   1  -6  -9 119.236   7.718   5
  -1  -6   9 110.567  11.444   1
  -1   6   9 116.917   8.250   6
  -1   6   9 129.650   7.687   2
   0  -6   9 83.8808  8.0794   5
   0  -6   9 95.3424 10.3157   1
   0  -6  -9 94.4736  6.9153   6
   0  -6  -9 102.536   6.586   5
   0  -6  -9 94.6511  6.3731   2
   0   6   9 102.824   6.424   2
   0   6   9 86.4276  6.8746   6
   1  -6   9 2.24999 3.83520   1
  -1  -6  -9 2.80193 1.21582   5
  -1  -6  -9 4.99526 1.17543   2
  -1  -6  -9 4.66599 1.18456   6
   1  -6   9 5.65132 3.43324   5
   1   6   9 2.96420 1.12271   2
   1   6   9 4.36411 1.15846   6
   1   6   9 3.34357 1.07084   2
  -2  -6  -9 280.805  17.989   5
   2  -6   9 307.249  19.776   5
   2  -6   9 267.365  17.438   4
   2  -6   9 253.171  24.722   1
  -2  -6  -9 283.656  19.365   6
   2   6   9 291.988  17.900   2
   2   6   9 291.243  19.363   6
  -3  -6  -9 119.772   8.259   5
   3  -6   9 153.929  13.079   1
  -3  -6  -9 112.444   8.643   6
   3  -6   9 129.526  10.085   5
   3  -6   9 111.635   7.840   4
   3   6   9 121.970   8.665   6
   3   6   9 122.403   8.020   2
   4  -6   9 18.1036  2.2978   4
   4  -6   9 22.3072  4.1462   5
  -4  -6  -9 18.2612  2.5453   5
   4  -6   9 30.9482  5.6990   1
  -4  -6  -9 21.2718  2.3622   6
   4   6   9 18.9898  2.3568   6
  -4   6  -9 17.7701  2.3839   2
   4   6   9 19.6014  2.1081   2
   5  -6   9 2.62975 1.79695   4
  -5  -6  -9 4.96006 1.84813   5
   5  -6   9 -1.6676  2.7041   5
  -5  -6  -9 0.70493 1.48555   6
   5   6   9 2.15875 1.24858   2
  -5   6  -9 -0.3215  1.6629   2
   5   6   9 3.12892 1.53780   6
  -6  -6  -9 163.844  11.966   6
   6  -6   9 195.532  12.344   5
   6  -6   9 177.979  11.265   4
  -6  -6  -9 132.574  11.210   5
  -6   6  -9 181.463  11.191   2
   6   6   9 151.000  11.853   6
  -7  -6  -9 206.141  16.972   6
  -7   6  -9 288.998  15.874   2
   7   6   9 225.569  17.034   6
   8  -6   9 5.16075 2.26401   4
   8  -6   9 1.22398 3.35781   3
  -8  -6  -9 4.51710 2.41659   6
   8   6   9 7.44113 2.62401   6
  -8   6  -9 1.99636 1.95238   2
  -9  -6  -9 -0.9657  2.7243   6
   9  -6   9 -0.4376  3.1286   3
   9   6   9 3.45429 2.80613   6
  -9   6  -9 1.40076 1.82908   2
 -10  -6  -9 18.9823  4.1411   6
  10   6   9 13.9103  3.8227   6
 -10   6  -9 23.9436  3.1076   2
  10  -7  -9 16.5276  3.6716   6
  10   7  -9 19.7579  2.9534   2
   9  -7  -9 4.57146 2.28734   6
   9   7  -9 4.83028 2.17099   2
  -9   7   9 5.58771 2.40392   6
   8  -7  -9 97.2087  8.3704   6
  -8  -7   9 129.064   8.086   4
  -8  -7   9 109.430  11.458   1
   8   7  -9 119.730   7.838   2
  -8   7   9 83.6321  8.1439   6
  -7  -7   9 336.686  30.104   1
  -7  -7   9 408.247  22.851   4
   7  -7  -9 351.364  24.457   6
   7   7  -9 373.154  22.706   2
  -7   7   9 295.368  24.313   6
  -6  -7   9 76.1610  6.0843   4
  -6  -7   9 66.9566  8.7529   1
   6  -7  -9 77.2147  6.2175   6
   6  -7  -9 80.7929  5.6791   5
   6   7  -9 81.2391  5.9887   2
  -6   7   9 83.8524  5.8107   2
  -6   7   9 74.9982  6.1757   6
  -5  -7   9 2.00117 3.61333   1
  -5  -7   9 2.03248 1.82496   4
   5  -7  -9 3.66889 1.43497   5
   5  -7  -9 4.90758 1.47505   6
  -5   7   9 2.38957 1.46190   6
   5   7  -9 2.40214 1.72386   2
  -5   7   9 6.22602 1.47292   2
  -4  -7   9 91.9813  6.7392   4
   4  -7  -9 99.2437  7.2923   6
  -4  -7   9 96.2810 10.3130   1
   4  -7  -9 98.8841  6.7909   5
  -4   7   9 96.5007  7.2979   6
  -4   7   9 108.771   6.897   2
   3  -7  -9 565.060  38.995   6
  -3  -7   9 600.823  47.519   1
   3  -7  -9 613.130  35.889   5
  -3  -7   9 566.921  35.632   4
  -3   7   9 577.326  36.050   2
  -3   7   9 538.853  38.985   6
  -2  -7   9 177.471  11.173   4
   2  -7  -9 180.273  12.555   6
   2  -7  -9 181.643  11.688   5
  -2  -7   9 162.244  16.592   1
  -2   7   9 175.792  12.568   6
  -2   7   9 192.952  11.677   2
   1  -7  -9 6.54397 1.39736   6
  -1  -7   9 13.0620  4.5954   1
   1  -7  -9 7.78538 1.54567   5
  -1   7   9 6.23860 1.34256   2
  -1   7   9 6.49343 1.44601   6
   0  -7  -9 192.963  13.309   6
   0  -7   9 196.625  18.269   1
   0  -7  -9 186.242  12.378   5
   0   7   9 198.269  12.313   2
   0   7   9 181.286  13.289   6
   1  -7   9 535.235  47.052   1
   1  -7   9 541.386  36.686   5
  -1  -7  -9 534.260  34.974   5
  -1  -7  -9 525.392  37.915   6
   1   7   9 632.340  35.094   2
   1   7   9 573.766  37.936   6
   1   7   9 562.842  35.025   2
   2  -7   9 205.665  15.121   5
  -2  -7  -9 208.863  14.189   6
   2  -7   9 215.503  19.640   1
   2  -7   9 188.696  12.632   4
  -2  -7  -9 197.788  13.300   5
   2   7   9 209.145  14.183   6
   2   7   9 207.108  13.115   2
  -3  -7  -9 2.38931 1.62721   5
  -3  -7  -9 3.10817 1.42832   6
   3  -7   9 9.79239 3.60629   5
   3  -7   9 2.66541 1.31610   4
   3  -7   9 13.3432  5.3391   1
   3   7   9 3.01663 1.29356   2
   3   7   9 3.15107 1.31328   6
  -4  -7  -9 345.008  23.929   5
  -4  -7  -9 376.184  25.848   6
   4  -7   9 331.962  23.643   4
   4  -7   9 422.865  25.489   5
  -4   7  -9 406.075  23.913   2
   4   7   9 378.642  25.781   6
   4   7   9 385.422  23.823   2
  -5  -7  -9 260.113  18.685   5
   5  -7   9 329.160  19.998   5
  -5  -7  -9 271.060  20.035   6
   5  -7   9 312.219  18.564   4
   5   7   9 284.557  19.991   6
   5   7   9 282.740  18.442   2
  -6  -7  -9 164.805  12.891   6
   6  -7   9 201.518  12.039   4
   6   7   9 159.732  11.795   2
   6   7   9 163.081  12.743   6
  -6   7  -9 203.075  11.965   2
  -7  -7  -9 9.31211 2.69646   6
   7  -7   9 12.4558  2.4782   4
   7   7   9 8.84097 2.28755   6
  -7   7  -9 12.6817  2.2665   2
  -8  -7  -9 422.633  29.610   6
   8   7   9 376.485  29.257   6
  -8   7  -9 458.176  26.859   2
  -9  -7  -9 103.114   8.948   6
  -9   7  -9 107.968   7.447   2
   9   7   9 89.1168  8.5131   6
 -10  -7  -9 126.887  11.105   6
 -10   7  -9 135.483   9.343   2
   9   8  -9 3.84833 2.18272   2
   8  -8  -9 117.977   9.037   6
  -8   8   9 109.440   8.900   6
   8   8  -9 115.124   8.260   2
   7  -8  -9 145.264  10.709   6
  -7  -8   9 150.386  14.627   1
  -7   8   9 160.255  10.101   2
  -7   8   9 136.838  10.635   6
   7   8  -9 131.045   9.852   2
  -6  -8   9 12.4727  4.8780   1
  -6  -8   9 7.98317 2.07992   4
   6  -8  -9 8.60522 2.04644   6
   6   8  -9 7.25345 1.93430   2
  -6   8   9 8.92956 1.96793   6
  -6   8   9 9.89649 1.97715   2
  -5  -8   9 5.45583 1.54397   4
  -5  -8   9 1.36343 3.83345   1
   5  -8  -9 5.26522 1.65792   6
   5   8  -9 4.18347 1.49407   2
  -5   8   9 3.76870 1.65012   6
  -5   8   9 3.69774 1.44221   2
  -4  -8   9 155.150   9.689   4
   4  -8  -9 156.637  10.838   6
   4  -8  -9 159.400  10.073   5
  -4  -8   9 162.394  15.233   1
   4   8  -9 134.069   9.768   2
  -4   8   9 137.981  10.798   6
  -4   8   9 161.591  10.100   2
   3  -8  -9 288.868  19.877   6
  -3  -8   9 290.499  17.888   4
   3  -8  -9 271.175  18.376   5
  -3  -8   9 306.145  25.694   1
  -3   8   9 292.602  18.420   2
  -3   8   9 285.517  19.907   6
  -2  -8   9 140.434   8.512   4
  -2  -8   9 138.683  14.196   1
   2  -8  -9 129.002   9.774   6
   2  -8  -9 129.004   9.138   5
  -2   8   9 134.793   9.840   6
  -2   8   9 147.561   9.137   2
  -1  -8   9 4.77710 4.69183   1
   1  -8  -9 2.99774 1.46389   5
   1  -8  -9 4.36200 1.34058   6
  -1   8   9 7.34064 1.53219   6
  -1   8   9 4.51176 1.42220   2
   0  -8   9 204.074  20.121   1
   0  -8  -9 190.500  13.423   5
   0  -8  -9 196.861  14.395   6
   0   8   9 208.525  14.456   6
   0   8   9 230.048  13.426   2
  -1  -8  -9 335.556  24.589   6
  -1  -8  -9 339.500  22.811   5
   1  -8   9 331.616  31.911   1
   1   8   9 361.120  24.649   6
   1   8   9 382.572  22.791   2
   1   8   9 394.294  22.836   2
   2  -8   9 362.018  29.408   1
   2  -8   9 327.994  22.422   5
  -2  -8  -9 314.290  20.416   5
  -2  -8  -9 292.142  21.899   6
   2   8   9 309.335  21.923   6
   2   8   9 328.347  20.287   2
   2   8   9 323.991  20.282   2
  -3  -8  -9 51.4238  4.3289   6
  -3  -8  -9 46.3022  4.2522   5
   3  -8   9 72.2667  9.9403   1
   3  -8   9 40.0682  3.6533   4
   3  -8   9 54.7367  6.7926   5
   3   8   9 48.0973  4.1415   6
   3   8   9 56.3968  3.9544   2
   4  -8   9 174.739  12.312   5
   4  -8   9 149.610  10.125   4
  -4  -8  -9 152.335  11.156   6
   4   8   9 152.115  11.017   6
   4   8   9 147.556  10.204   2
   5  -8   9 214.612  12.643   4
  -5  -8  -9 178.339  13.682   6
   5   8   9 175.828  12.527   2
  -5   8  -9 201.639  12.665   2
   5   8   9 181.897  13.557   6
  -6  -8  -9 156.181  11.594   6
   6  -8   9 179.455  10.660   4
  -6   8  -9 159.416  10.490   2
   6   8   9 145.873  11.289   6
   6   8   9 133.575  10.426   2
  -7  -8  -9 67.3306  6.3244   6
  -7   8  -9 71.8083  5.3651   2
   7   8   9 61.1567  5.8919   6
  -8  -8  -9 51.5080  6.1480   6
   8   8   9 57.0648  5.8324   6
  -8   8  -9 67.3307  5.0825   2
  -9  -8  -9 53.0772  6.2277   6
  -9   8  -9 50.1680  4.4906   2
   8   9  -9 151.351  10.357   2
  -7   9   9 16.8732  2.4821   2
   7   9  -9 7.58740 1.97739   2
  -7   9   9 14.1329  2.5673   6
  -6  -9   9 14.5243  5.2209   1
  -6   9   9 13.4874  2.3178   6
  -6   9   9 16.6091  2.4263   2
   6   9  -9 10.3177  1.8730   2
  -5  -9   9 8.03771 1.42297   4
  -5  -9   9 11.6873  5.0070   1
   5   9  -9 10.9652  1.5728   2
  -5   9   9 9.22594 2.02007   6
  -5   9   9 7.03172 1.74960   2
  -4  -9   9 220.167  13.757   4
   4  -9  -9 201.763  15.374   6
  -4  -9   9 227.641  20.958   1
  -4   9   9 210.912  15.415   6
  -4   9   9 240.663  14.355   2
  -3  -9   9 2.32435 0.73385   4
   3  -9  -9 3.31428 1.50761   6
  -3  -9   9 7.76281 5.01507   1
  -3   9   9 1.81767 1.32978   2
  -3   9   9 5.36335 1.65268   6
   2  -9  -9 14.5731  2.1542   6
  -2  -9   9 22.0872  6.5588   1
  -2  -9   9 16.7722  1.2607   4
  -2   9   9 14.9521  2.2753   6
  -2   9   9 18.7202  2.1931   2
  -1  -9   9 19.5895  6.7539   1
   1  -9  -9 11.6328  1.9467   6
  -1   9   9 14.2947  2.0099   2
  -1   9   9 12.7609  2.1082   6
   0  -9  -9 132.979   9.938   6
   0  -9   9 144.878  16.087   1
   0   9   9 133.834   9.989   6
   0   9   9 146.446   9.295   2
  -1  -9  -9 37.0571  3.5487   6
   1  -9   9 28.8441  8.7529   1
   1   9   9 36.7540  3.2576   2
   1   9   9 36.9240  3.2669   2
   1   9   9 42.4707  3.5709   6
   2  -9   9 57.0804 10.2928   1
  -2  -9  -9 40.8499  3.8778   6
   2   9   9 43.6513  3.6322   2
   2   9   9 43.4130  3.5662   2
   2   9   9 39.1395  3.8233   6
   3  -9   9 72.3424 10.2892   1
  -3  -9  -9 37.7415  3.7396   6
   3  -9   9 30.5512  3.0053   4
   3   9   9 39.4130  3.3447   2
   3   9   9 41.2183  3.6048   6
  -4  -9  -9 84.4213  6.7300   6
   4  -9   9 85.9911  5.9748   4
   4   9   9 82.6941  6.0730   2
   4   9   9 80.4264  6.5266   6
   5  -9   9 322.554  19.074   4
  -5  -9  -9 291.766  20.922   6
   5   9   9 295.552  20.752   6
   5   9   9 275.805  19.117   2
  -6  -9  -9 4.64362 2.69929   6
   6   9   9 7.18547 2.15133   2
  -6   9  -9 10.2436  2.2295   2
   6   9   9 7.21898 2.23939   6
  -7   9  -9 70.3187  5.4369   2
   7   9   9 63.2717  5.9887   6
  -8   9  -9 113.474   8.123   2
   6  10  -9 1.59766 1.24334   2
  -6  10   9 4.90907 1.90441   2
  -5  10   9 5.12165 1.71473   2
  -5  10   9 4.16499 1.78813   6
  -4 -10   9 445.249  39.579   1
  -4  10   9 451.141  31.147   6
  -4  10   9 461.826  28.806   2
  -3 -10   9 479.398  29.887   4
  -3 -10   9 492.521  42.530   1
  -3  10   9 467.208  33.151   6
  -3  10   9 503.482  30.675   2
  -2 -10   9 32.0217  8.5902   1
  -2  10   9 29.2448  3.2416   6
  -2  10   9 33.9864  3.1702   2
  -1 -10   9 21.8594  8.2767   1
  -1  10   9 18.9030  2.5731   6
  -1  10   9 20.5951  2.3814   2
   0 -10   9 173.485  19.755   1
   0  10   9 182.409  11.708   2
   0  10   9 170.778  12.609   6
   1 -10   9 676.606  54.948   1
   1  10   9 613.610  39.137   2
   1  10   9 603.766  42.369   6
   2 -10   9 55.7946 10.6615   1
   2  10   9 38.2860  3.5262   2
   2  10   9 34.7372  3.6654   6
   2  10   9 37.2323  3.4898   2
   3 -10   9 87.1731 12.4754   1
   3  10   9 64.6612  5.1575   2
   3  10   9 65.7299  5.6017   6
   3  10   9 69.9021  5.1792   2
   4  10   9 36.5073  3.8028   6
   4  10   9 39.8172  3.5585   2
   5  10   9 494.843  33.803   6
   5  10   9 487.335  31.233   2
   6  10   9 4.56897 1.98642   2
  -4  11   9 7.69027 1.87683   2
  -3  11   9 6.09850 2.08943   6
  -3  11   9 7.14972 1.92129   2
  -2  11   9 295.730  18.875   2
  -2  11   9 288.216  20.461   6
  -1 -11   9 108.557  16.460   1
  -1  11   9 115.967   8.676   6
  -1  11   9 114.178   8.020   2
   0 -11   9 1.47619 7.76995   1
   0  11   9 1.70514 1.54420   2
   0  11   9 2.56585 1.73430   6
   1 -11   9 25.0300  9.3233   1
   1  11   9 24.7503  2.7129   2
   1  11   9 22.7507  3.0077   6
   2  11   9 244.092  17.468   6
   2  11   9 250.444  16.135   2
   3  11   9 0.16175 1.55041   2
   3  11   9 -0.4095  1.6537   2
   4  11   9 0.20421 1.73291   2
   4  11   9 -1.8649  1.6660   2
  12   0 -10 130.256  10.292   2
  12   0 -10 143.162  11.306   6
  11   0 -10 174.922  13.796   2
  11   0 -10 219.576  15.296   6
  10   0 -10 73.8565  7.3012   6
  10   0 -10 74.8793  6.5514   2
   9   0 -10 720.603  43.251   2
   9   0 -10 601.523  46.963   6
  -9   0  10 721.296  43.100   4
   8   0 -10 293.828  22.561   6
   8   0 -10 320.459  20.529   2
  -8   0  10 336.675  20.546   4
  -7   0  10 61.4908  4.6747   4
   7   0 -10 58.9499  4.5955   2
   7   0 -10 60.1814  5.3905   6
   6   0 -10 468.792  31.585   2
   6   0 -10 479.695  34.491   6
  -6   0  10 538.641  40.437   1
  -6   0  10 530.503  31.525   4
   5   0 -10 1315.10   84.78   6
   5   0 -10 1149.81   78.01   2
  -5   0  10 1298.18   77.67   4
  -5   0  10 1163.30   84.40   6
  -5   0  10 1380.33   99.62   1
   4   0 -10 1043.66   71.68   2
  -4   0  10 1224.67   77.59   6
   4   0 -10 1193.06   77.82   6
  -4   0  10 1197.14   71.37   4
  -4   0  10 1131.78   91.61   1
  -3   0  10 107.490   6.799   4
  -3   0  10 103.932   7.299   6
   3   0 -10 116.858   7.523   6
  -3   0  10 108.612   9.352   1
   3   0 -10 92.0515  6.7976   2
  -2   0  10 779.582  52.275   6
   2   0 -10 855.726  52.422   6
   2   0 -10 706.287  48.294   2
  -2   0  10 779.312  48.074   4
   1   0 -10 669.250  45.362   6
  -1   0  10 657.258  45.269   6
  -1   0  10 688.887  41.632   4
   1   0 -10 684.794  41.832   2
   0   0  10 1591.54  115.76   6
   0   0 -10 1628.57  106.86   2
   0   0 -10 1991.15  115.83   6
   0   0  10 1713.70  106.34   4
   1   0  10 472.476  30.432   4
  -1   0 -10 527.652  33.157   6
  -1   0 -10 477.437  30.593   2
  -2   0 -10 402.102  24.720   2
  -2   0 -10 418.251  26.773   6
   2   0  10 368.640  24.570   4
  -3   0 -10 8.29868 1.17975   2
  -3   0 -10 9.49340 1.19928   6
   3   0  10 8.51688 1.12932   4
   4   0  10 681.702  42.282   4
  -4   0 -10 703.131  45.971   6
  -4   0 -10 663.033  42.493   2
   5   0  10 258.526  17.045   4
  -5   0 -10 259.925  17.179   2
  -5   0 -10 288.411  18.526   6
  -6   0 -10 87.4737  6.5136   2
  -6   0 -10 91.7748  6.8516   6
   6   0  10 94.4100  6.4571   4
  -7   0 -10 56.7404  4.8365   2
   7   0  10 56.4623  4.6477   4
  -7   0 -10 57.2003  4.8513   6
   8   0  10 6.50841 2.34518   4
   8   0  10 12.2649  2.5605   4
  -8   0 -10 9.34028 2.48406   6
  -8   0 -10 15.4556  2.9296   2
   9   0  10 22.1281  3.4563   4
  -9   0 -10 26.3204  3.7570   6
  -9   0 -10 18.7903  3.5600   2
   9   0  10 20.5244  3.5058   4
 -10   0 -10 55.0865  5.1529   2
 -10   0 -10 46.2092  5.3724   6
  10   0  10 44.4026  4.9509   4
  10   0  10 42.5508  4.9880   4
 -11   0 -10 1.22450 2.55416   6
 -11   0 -10 1.37981 2.56278   2
 -12   0 -10 67.2808  6.8514   6
 -12   0 -10 80.3848  6.6272   2
  12  -1 -10 115.696   9.622   6
  12  -1 -10 90.9920  8.4748   2
  12   1 -10 126.269   9.449   6
  12   1 -10 97.7554  8.3471   2
  11  -1 -10 9.56283 3.50769   6
  11  -1 -10 4.09348 2.69669   2
  11   1 -10 4.12407 2.75060   2
  11   1 -10 6.84844 3.01536   6
  10  -1 -10 56.4292  6.2323   6
  10  -1 -10 63.5203  5.5245   2
 -10  -1  10 50.2521  5.4376   4
  10   1 -10 62.1234  6.1172   6
  10   1 -10 57.9297  5.6904   2
   9  -1 -10 44.5815  5.2714   6
   9  -1 -10 41.9952  4.3489   2
  -9  -1  10 51.0176  4.7661   4
   9   1 -10 48.7203  4.8268   2
   9   1 -10 54.9346  5.4095   6
  -9   1  10 44.9277  4.4764   6
  -8  -1  10 233.385  14.149   4
   8  -1 -10 197.305  13.945   2
   8  -1 -10 213.340  15.559   6
   8   1 -10 198.669  15.575   6
  -8   1  10 211.091  14.935   6
  -8   1  10 210.234  13.930   4
   8   1 -10 214.143  14.124   2
  -7  -1  10 65.1528  5.1287   4
   7  -1 -10 69.4336  5.0140   2
   7  -1 -10 58.7163  5.7952   6
   7   1 -10 64.3894  5.9586   6
  -7   1  10 73.5562  5.0563   4
   7   1 -10 66.1599  5.1255   2
  -7   1  10 70.6028  5.3023   6
  -6  -1  10 87.7407  5.7501   4
  -6  -1  10 84.0297  7.6379   1
   6  -1 -10 73.7608  5.6525   2
   6  -1 -10 76.1562  6.3506   6
  -6   1  10 85.9591  5.6958   4
  -6   1  10 85.3422  6.0812   6
   6   1 -10 80.6615  5.7069   2
   6   1 -10 77.7780  6.4976   6
   5  -1 -10 0.80259 1.22367   6
   5  -1 -10 3.34224 1.07752   2
  -5  -1  10 2.75534 1.84816   1
   5   1 -10 2.30606 1.31555   6
  -5   1  10 2.14334 0.99227   6
   5   1 -10 3.51664 1.03889   2
  -5   1  10 1.25994 0.92871   4
  -5   1  10 3.04213 1.81015   1
   4  -1 -10 163.573  10.146   2
  -4  -1  10 150.964  13.417   1
   4  -1 -10 147.046  11.032   6
  -4  -1  10 162.685  10.040   4
   4   1 -10 162.538  10.089   2
  -4   1  10 154.349  10.059   4
  -4   1  10 161.949  10.891   6
   4   1 -10 154.415  11.073   6
   3  -1 -10 200.460  12.712   5
  -3  -1  10 197.728  12.764   4
   3  -1 -10 212.623  12.892   2
  -3  -1  10 208.955  17.011   1
   3  -1 -10 212.619  14.027   6
   3   1 -10 188.836  12.819   2
   3   1 -10 214.571  14.027   6
  -3   1  10 201.484  12.813   4
  -3   1  10 195.758  13.875   6
  -2  -1  10 1.77238 0.64116   4
   2  -1 -10 1.36496 0.90191   6
   2  -1 -10 1.87822 0.75160   2
  -2  -1  10 1.66479 1.97883   1
   2  -1 -10 2.59094 0.78551   5
  -2   1  10 3.43139 0.78577   6
  -2   1  10 2.12305 0.72200   4
   2   1 -10 2.28049 0.80207   6
   2   1 -10 2.48816 0.66916   2
  -1  -1  10 2.84076 2.13186   1
  -1  -1  10 3.47748 0.68311   4
   1  -1 -10 3.77136 0.88192   6
   1   1 -10 2.73488 0.63641   2
  -1   1  10 3.79299 0.75918   4
  -1   1  10 4.30026 0.81786   6
   1   1 -10 4.55254 0.86013   6
   0  -1 -10 10.4232  1.1898   6
   0  -1 -10 8.85662 1.07388   2
   0  -1  10 9.06294 0.92803   4
   0   1  10 9.18826 1.03252   4
   0   1  10 8.65343 1.14444   6
   0   1 -10 8.24258 0.92777   2
   0   1 -10 9.38104 1.08121   6
  -1  -1 -10 131.523   8.489   2
   1  -1  10 134.493   8.375   4
  -1  -1 -10 134.812   9.202   6
   1   1  10 126.196   8.441   4
  -1   1 -10 130.878   8.431   2
   1   1  10 121.294   9.198   6
  -1   1 -10 149.495   9.140   6
   2  -1  10 36.3092  2.6108   4
  -2  -1 -10 37.4638  2.9493   6
  -2  -1 -10 34.7953  2.7228   2
  -2   1 -10 37.3949  2.6769   2
  -2   1 -10 39.1692  2.8341   6
   2   1  10 35.8982  2.9925   6
   2   1  10 37.5712  2.7066   4
   3  -1  10 67.8680  4.4319   4
  -3  -1 -10 71.3798  4.8882   6
  -3  -1 -10 65.5989  4.5056   2
  -3   1 -10 66.6943  4.7737   6
  -3   1 -10 62.7473  4.4714   2
   3   1  10 62.3207  4.4633   4
   3   1  10 64.1347  5.0249   6
   4  -1  10 4.45737 1.02168   4
  -4  -1 -10 5.59798 1.17261   6
  -4  -1 -10 5.25857 1.12289   2
   4   1  10 8.96888 1.71932   6
  -4   1 -10 6.72384 1.18956   2
   4   1  10 4.28073 1.03071   4
  -4   1 -10 5.68284 1.07637   6
   5  -1  10 16.0431  1.9041   4
  -5  -1 -10 15.7509  1.9275   6
  -5  -1 -10 16.1117  1.9159   2
  -5   1 -10 19.5970  2.0176   6
  -5   1 -10 19.0657  2.1209   2
   5   1  10 17.8177  1.9254   4
   5   1  10 15.8344  2.6089   6
   6  -1  10 5.21003 1.59462   4
   6  -1  10 6.48293 1.65752   4
  -6  -1 -10 5.28702 1.55878   2
  -6  -1 -10 5.15776 1.47339   6
  -6   1 -10 5.83452 1.77981   2
   6   1  10 7.54154 2.47038   6
   6   1  10 5.25605 1.47642   4
  -6   1 -10 5.68875 1.55795   6
   7  -1  10 104.929   7.877   4
  -7  -1 -10 100.888   8.206   6
  -7  -1 -10 107.719   7.904   2
   7  -1  10 114.925   7.882   4
  -7   1 -10 112.220   8.103   2
  -7   1 -10 116.423   8.461   6
   7   1  10 117.971   8.890   6
   7   1  10 107.452   7.780   4
  -8  -1 -10 10.7360  2.5669   2
   8  -1  10 6.85084 2.45663   4
  -8  -1 -10 9.30238 2.34117   6
   8  -1  10 9.93146 2.51015   4
  -8   1 -10 8.94919 2.64974   2
   8   1  10 11.1835  2.4315   4
  -8   1 -10 11.6098  2.6710   6
   8   1  10 11.3053  2.7177   6
   9  -1  10 -1.3236  2.1556   4
   9  -1  10 0.89132 2.00191   4
  -9  -1 -10 0.59011 2.26704   2
  -9  -1 -10 2.45795 2.28358   6
  -9   1 -10 -0.1381  2.4366   2
  -9   1 -10 4.82204 2.60655   6
   9   1  10 3.06039 2.52570   4
  10  -1  10 34.3265  4.0105   4
  10  -1  10 31.0457  4.0999   4
 -10  -1 -10 24.3559  4.1215   2
 -10  -1 -10 30.4783  4.6255   6
 -10   1 -10 31.1361  4.6049   6
 -10   1 -10 36.2100  4.3414   2
 -11  -1 -10 49.0885  5.3120   2
  11  -1  10 48.4282  4.8683   4
  11  -1  10 51.8232  4.7696   4
 -11  -1 -10 41.2813  5.5582   6
 -11   1 -10 45.8456  4.8451   2
 -11   1 -10 42.9796  5.2387   6
 -12  -1 -10 79.8088  6.4726   2
 -12  -1 -10 60.5943  6.5464   6
 -12   1 -10 62.2416  6.2456   6
 -12   1 -10 71.7951  6.2264   2
  12  -2 -10 94.4296  8.6133   6
  12   2 -10 101.880   8.292   6
  12   2 -10 81.2622  7.3901   2
 -11  -2  10 18.2300  3.1191   4
  11  -2 -10 21.6900  3.8961   2
  11  -2 -10 18.0009  3.9724   6
  11   2 -10 21.2521  3.7729   6
 -11   2  10 16.2489  3.2864   6
  11   2 -10 16.2382  3.4435   2
  10  -2 -10 127.392  11.470   6
 -10  -2  10 155.035  10.527   4
  10  -2 -10 148.764  10.543   2
 -10   2  10 131.102  11.041   6
  10   2 -10 179.974  11.865   6
  10   2 -10 132.353  10.577   2
   9  -2 -10 161.917  10.861   2
   9  -2 -10 150.696  12.020   6
  -9  -2  10 141.030  10.916   4
   9   2 -10 167.143  11.290   2
  -9   2  10 145.210  11.527   6
   9   2 -10 170.807  12.328   6
  -8  -2  10 96.9457  7.7675   4
   8  -2 -10 108.179   8.615   6
   8  -2 -10 111.311   7.633   2
   8   2 -10 107.870   7.954   2
  -8   2  10 108.818   8.152   6
   8   2 -10 105.906   8.879   6
   7  -2 -10 20.7469  2.8692   6
   7  -2 -10 24.8383  2.4977   2
  -7  -2  10 23.7768  2.8134   4
  -7   2  10 22.5682  2.6277   6
   7   2 -10 19.5045  3.2528   6
  -7   2  10 25.0824  2.5131   4
   7   2 -10 21.9787  2.7726   2
  -6  -2  10 89.7291  6.4140   4
  -6  -2  10 97.9644  8.5950   1
   6  -2 -10 87.8626  7.0205   6
   6  -2 -10 90.6940  6.3212   2
  -6   2  10 90.1595  6.8079   6
  -6   2  10 101.368   6.391   4
   6   2 -10 93.1669  7.2961   6
   6   2 -10 87.5129  6.3966   2
  -5  -2  10 270.448  17.846   4
   5  -2 -10 279.840  19.556   6
   5  -2 -10 295.629  17.974   2
  -5  -2  10 302.425  23.403   1
  -5   2  10 283.445  19.394   6
   5   2 -10 277.905  19.624   6
  -5   2  10 298.086  17.882   4
   5   2 -10 261.871  17.908   2
   4  -2 -10 147.791  10.288   6
  -4  -2  10 147.597  12.651   1
  -4  -2  10 144.600   9.310   4
   4  -2 -10 143.067   9.434   2
   4   2 -10 143.020   9.348   2
   4   2 -10 146.423  10.302   6
  -4   2  10 151.263   9.407   4
  -4   2  10 143.878  10.159   6
   3  -2 -10 148.432   8.730   5
  -3  -2  10 138.772   8.666   4
  -3  -2  10 126.440  11.842   1
   3  -2 -10 134.276   9.628   6
   3  -2 -10 145.137   8.834   2
   3   2 -10 132.757   8.700   2
   3   2 -10 138.068   9.554   6
  -3   2  10 126.990   8.734   4
  -3   2  10 134.830   9.492   6
  -2  -2  10 15.1087  2.9784   1
   2  -2 -10 14.0218  1.4586   2
  -2  -2  10 13.8689  1.2622   4
   2  -2 -10 13.2122  1.6039   6
  -2   2  10 16.4615  1.4314   4
   2   2 -10 15.4541  1.2830   2
  -2   2  10 13.9001  1.5426   6
  -1  -2  10 378.534  31.857   1
   1  -2 -10 413.938  24.291   5
   1  -2 -10 391.084  24.362   2
   1  -2 -10 417.598  26.447   6
  -1  -2  10 393.392  24.124   4
  -1   2  10 390.725  26.389   6
  -1   2  10 383.301  24.245   4
   1   2 -10 355.015  24.220   2
   0  -2  10 136.675  11.987   1
   0  -2 -10 134.676   9.194   6
   0  -2 -10 134.651   8.474   2
   0  -2  10 129.401   8.268   4
   0   2  10 128.390   8.412   4
   0   2  10 130.151   9.151   6
   0   2 -10 131.689   8.303   2
  -1  -2 -10 36.3184  2.7100   2
  -1  -2 -10 36.7249  2.9422   6
   1  -2  10 34.7496  2.5363   4
   1  -2  10 36.9605  5.1343   1
  -1   2 -10 40.3139  2.5755   2
   1   2  10 40.4135  2.9845   6
   1   2  10 35.5568  2.6879   4
   2  -2  10 247.265  15.625   4
   2  -2  10 220.353  21.361   1
  -2  -2 -10 238.806  17.142   6
  -2  -2 -10 272.748  15.871   2
  -2   2 -10 253.883  15.730   2
   2   2  10 268.777  15.772   4
   2   2  10 246.180  17.167   6
  -3  -2 -10 424.030  25.694   2
  -3  -2 -10 418.839  27.812   6
   3  -2  10 400.105  25.437   4
  -3   2 -10 381.807  25.574   2
   3   2  10 433.207  25.560   4
   3   2  10 403.856  27.846   6
   4  -2  10 83.3385  5.8316   4
  -4  -2 -10 89.2046  5.9469   2
   4  -2  10 79.7679  9.0574   1
   4  -2  10 83.4950  5.8114   4
  -4  -2 -10 89.5724  6.4012   6
   4   2  10 86.1586  5.8790   4
   4   2  10 93.8702  6.6006   6
  -4   2 -10 83.4137  5.9397   2
  -4   2 -10 95.6864  6.3191   6
  -5  -2 -10 24.9772  2.4701   6
   5  -2  10 23.1314  2.3652   4
   5  -2  10 25.9008  2.3840   4
  -5  -2 -10 27.6011  2.5207   2
   5  -2  10 30.2800  4.7949   1
   5   2  10 21.6842  2.8893   6
  -5   2 -10 23.9221  2.6065   2
  -5   2 -10 24.1566  2.5142   6
   5   2  10 27.2422  2.3715   4
  -6  -2 -10 295.694  18.440   2
  -6  -2 -10 267.797  19.792   6
   6  -2  10 275.715  18.349   4
   6  -2  10 271.791  18.367   4
   6   2  10 282.899  18.299   4
  -6   2 -10 299.673  19.894   6
  -6   2 -10 294.297  18.607   2
   6   2  10 307.004  20.281   6
  -7  -2 -10 293.353  19.997   2
  -7  -2 -10 306.868  21.489   6
   7  -2  10 301.578  19.996   4
   7   2  10 320.876  21.984   6
   7   2  10 328.415  19.976   4
  -7   2 -10 289.430  20.191   2
  -7   2 -10 323.801  21.755   6
  -8  -2 -10 48.6792  4.5377   2
   8  -2  10 42.1137  4.4905   4
  -8  -2 -10 49.0687  4.5806   6
   8   2  10 51.6084  5.2082   6
  -8   2 -10 44.4748  4.9138   6
  -8   2 -10 43.4655  4.6243   2
   9  -2  10 63.2518  5.7796   4
  -9  -2 -10 61.2906  6.0263   6
  -9  -2 -10 62.8927  5.9155   2
  -9   2 -10 66.5960  6.4890   6
   9   2  10 73.3552  6.2862   6
  -9   2 -10 64.6855  5.8361   2
 -10  -2 -10 143.795  11.649   2
  10  -2  10 183.352  11.530   4
 -10  -2 -10 136.975  12.363   6
 -10   2 -10 172.101  11.527   2
  10   2  10 166.295  12.148   6
 -10   2 -10 157.744  12.521   6
 -11  -2 -10 164.730  11.610   2
 -11  -2 -10 138.162  12.266   6
 -11   2 -10 143.134  11.923   6
 -11   2 -10 171.201  11.184   2
 -12   2 -10 34.6401  4.4362   6
 -12   2 -10 38.5596  4.4059   2
  12   3 -10 272.671  20.095   2
  12   3 -10 341.750  22.143   6
  11  -3 -10 6.39653 3.36318   6
  11   3 -10 15.1766  3.0508   2
  11   3 -10 14.4187  3.2760   6
 -11   3  10 12.0949  3.2596   6
  10  -3 -10 2.93750 2.62243   6
 -10  -3  10 2.80948 2.07007   4
  10   3 -10 3.50371 2.54934   2
 -10   3  10 2.90187 2.42316   6
  10   3 -10 5.62466 2.95045   6
   9  -3 -10 25.5542  3.9101   6
   9  -3 -10 34.8916  3.8090   2
  -9  -3  10 29.2438  3.6508   4
   9   3 -10 41.9651  4.7646   6
   9   3 -10 26.8622  3.8894   2
  -9   3  10 29.9378  3.7751   6
  -8  -3  10 619.652  40.558   4
   8  -3 -10 609.599  40.467   2
   8  -3 -10 637.588  44.044   6
   8   3 -10 628.877  40.824   2
  -8   3  10 638.507  43.792   6
   8   3 -10 728.025  44.558   6
   7  -3 -10 43.2855  4.1375   6
   7  -3 -10 45.6643  3.6876   2
  -7  -3  10 41.1287  4.0589   4
  -7  -3  10 46.6266  5.2913   1
  -7   3  10 44.9162  3.9572   6
   7   3 -10 45.8989  4.1488   2
   7   3 -10 36.4729  4.6414   6
  -6  -3  10 2.26065 2.13986   1
   6  -3 -10 2.18622 1.22799   2
  -6  -3  10 0.74291 1.39042   4
   6  -3 -10 2.50531 1.41426   6
  -6   3  10 0.46043 1.23494   6
   6   3 -10 1.39044 1.53575   2
   5  -3 -10 146.153  11.081   6
   5  -3 -10 158.897  10.209   2
  -5  -3  10 150.357  10.194   4
  -5  -3  10 167.462  13.665   1
  -5   3  10 153.660  11.015   6
  -5   3  10 164.965  10.178   4
   5   3 -10 157.564  10.235   2
   4  -3 -10 1112.61   76.73   6
   4  -3 -10 1115.07   70.77   2
   4  -3 -10 1194.24   70.17   5
  -4  -3  10 1087.58   70.35   4
  -4  -3  10 1133.69   90.61   1
   4   3 -10 1205.06   70.70   2
  -4   3  10 1147.80   70.43   4
  -4   3  10 1134.98   76.62   6
  -3  -3  10 166.265  14.230   1
   3  -3 -10 165.752  10.412   5
   3  -3 -10 162.340  11.442   6
  -3  -3  10 159.678  10.312   4
   3  -3 -10 159.259  10.523   2
   3   3 -10 175.018  10.391   2
  -3   3  10 162.991  11.348   6
  -3   3  10 158.199  10.457   4
   2  -3 -10 9.10870 1.43187   6
  -2  -3  10 11.2528  1.1107   4
   2  -3 -10 14.3476  1.4319   5
   2  -3 -10 10.4053  1.3133   2
  -2  -3  10 11.6012  2.9522   1
   2   3 -10 12.6232  1.1404   2
  -2   3  10 11.1338  1.3570   4
  -2   3  10 12.2684  1.4673   6
  -1  -3  10 425.070  26.747   4
   1  -3 -10 442.925  26.969   5
   1  -3 -10 459.762  29.392   6
  -1  -3  10 447.401  35.475   1
   1  -3 -10 403.543  27.058   2
  -1   3  10 415.989  26.935   4
   1   3 -10 445.639  26.880   2
  -1   3  10 433.297  29.329   6
   0  -3  10 1065.99   65.36   4
   0  -3 -10 1080.11   65.54   5
   0  -3  10 1062.43   84.91   1
   0  -3 -10 1091.39   65.89   2
   0  -3 -10 1079.25   71.39   6
   0   3  10 1011.05   65.55   4
   0   3  10 1051.07   71.36   6
   0   3 -10 1069.62   65.67   2
   1  -3  10 303.497  18.444   4
  -1  -3 -10 301.930  20.315   6
  -1  -3 -10 280.804  18.737   2
   1  -3  10 301.744  25.220   1
  -1   3 -10 311.685  18.552   2
   1   3  10 298.299  18.657   4
   1   3  10 289.322  20.287   6
  -2  -3 -10 80.0643  4.9767   2
   2  -3  10 71.2237  4.7259   4
   2  -3  10 65.5327  7.9920   1
  -2  -3 -10 77.5133  5.4005   6
   2   3  10 66.3638  5.3342   6
  -2   3 -10 75.0567  4.7847   2
   2   3  10 72.0408  4.9328   4
  -3  -3 -10 404.509  24.972   2
   3  -3  10 327.203  32.893   1
   3  -3  10 422.983  24.715   4
  -3  -3 -10 405.434  27.057   6
   3   3  10 432.952  24.868   4
   3   3  10 375.518  27.038   6
  -3   3 -10 401.210  24.859   2
  -4  -3 -10 548.231  34.702   2
   4  -3  10 559.720  34.438   4
  -4  -3 -10 564.249  37.580   6
   4  -3  10 549.182  34.444   4
   4  -3  10 560.961  45.488   1
   4   3  10 578.470  34.549   4
  -4   3 -10 527.171  34.665   2
   4   3  10 555.340  37.635   6
   5  -3  10 265.844  16.222   4
  -5  -3 -10 234.778  17.540   6
  -5  -3 -10 259.370  16.270   2
   5   3  10 260.515  16.191   4
  -5   3 -10 249.508  16.369   2
   5   3  10 253.900  17.693   6
   6  -3  10 89.0266  6.1360   4
  -6  -3 -10 87.1120  6.0108   2
  -6  -3 -10 81.8190  6.4116   6
  -6   3 -10 73.9734  6.2080   2
   6   3  10 79.4600  5.8703   4
   6   3  10 84.6022  6.7115   6
  -7  -3 -10 167.648  12.434   6
   7  -3  10 165.046  11.731   4
  -7  -3 -10 174.849  11.724   2
   7   3  10 190.199  12.957   6
  -7   3 -10 166.710  11.851   2
   8  -3  10 230.316  16.452   4
  -8  -3 -10 241.918  17.716   6
  -8  -3 -10 254.249  16.603   2
  -8   3 -10 267.828  16.727   2
   8   3  10 248.023  18.077   6
  -9  -3 -10 180.297  13.837   2
  -9  -3 -10 193.986  14.849   6
   9  -3  10 210.677  13.754   4
  -9   3 -10 180.530  14.917   6
   9   3  10 201.449  15.080   6
  -9   3 -10 234.453  13.906   2
 -10  -3 -10 39.8163  4.8445   2
  10  -3  10 38.7292  4.3542   4
 -10  -3 -10 31.0743  4.7231   6
 -10   3 -10 36.5147  4.7530   6
  10   3  10 43.2574  4.9208   6
 -10   3 -10 38.4445  4.3409   2
 -11  -3 -10 49.1300  5.9141   6
 -11   3 -10 61.6032  5.2764   2
 -11   3 -10 51.8262  5.4586   6
  11   3  10 56.0896  5.7471   6
 -12   3 -10 139.711  10.818   6
  11  -4 -10 103.266   9.656   6
  11   4 -10 119.210   8.447   2
  10  -4 -10 137.765  12.068   6
 -10  -4  10 149.715  10.651   4
  10   4 -10 190.018  12.409   6
 -10   4  10 147.381  12.046   6
  10   4 -10 158.632  11.029   2
  -9  -4  10 15.1515  2.4481   4
   9  -4 -10 15.7334  3.0269   6
   9   4 -10 8.56865 2.60923   2
  -9   4  10 10.2371  2.6412   6
   8  -4 -10 8.30128 2.11091   2
  -8  -4  10 11.1882  2.3257   4
   8  -4 -10 10.3682  2.3467   6
   8   4 -10 5.04355 2.37047   2
  -8   4  10 10.8337  2.2699   6
  -7  -4  10 58.8011  5.2358   4
   7  -4 -10 64.5067  5.3820   6
   7  -4 -10 68.6012  4.9517   2
  -7  -4  10 68.1680  6.9030   1
  -7   4  10 58.7002  5.1690   6
   7   4 -10 56.3714  5.2836   2
  -6  -4  10 144.435  12.768   1
   6  -4 -10 147.366  10.387   6
  -6  -4  10 139.462   9.727   4
   6  -4 -10 145.413   9.470   2
  -6   4  10 132.446  10.171   6
   6   4 -10 144.665   9.795   2
   5  -4 -10 10.9463  1.7777   6
   5  -4 -10 11.1871  1.5952   2
  -5  -4  10 7.92332 1.76048   4
  -5  -4  10 9.77729 2.87406   1
  -5   4  10 8.94465 1.63404   6
   5   4 -10 10.9026  1.8163   2
   4  -4 -10 2.30914 1.20638   6
  -4  -4  10 2.07610 2.33028   1
  -4  -4  10 2.35689 1.09608   4
   4  -4 -10 0.78831 0.97371   2
   4  -4 -10 1.92685 0.97823   5
   4   4 -10 3.17102 1.15039   2
  -4   4  10 1.41843 1.03575   6
   3  -4 -10 12.1148  1.4848   2
   3  -4 -10 10.4848  1.5430   6
  -3  -4  10 9.93149 1.22287   4
  -3  -4  10 9.49612 2.92426   1
   3  -4 -10 10.0921  1.3825   5
  -3   4  10 8.58306 1.40998   6
  -3   4  10 11.0486  1.4088   4
   3   4 -10 9.18355 1.18614   2
   2  -4 -10 46.9597  3.6003   5
   2  -4 -10 48.6907  3.5316   2
   2  -4 -10 48.5307  3.8666   6
  -2  -4  10 46.6805  3.2407   4
  -2  -4  10 42.6535  5.7422   1
  -2   4  10 51.8106  3.8108   6
  -2   4  10 49.4551  3.5273   4
   2   4 -10 52.3805  3.2976   2
  -1  -4  10 2.29812 2.67673   1
   1  -4 -10 6.61615 1.19323   6
   1  -4 -10 5.09174 1.17791   5
  -1  -4  10 5.59837 0.67897   4
   1  -4 -10 5.36353 1.08870   2
  -1   4  10 5.17790 1.03823   4
   1   4 -10 6.57578 0.72039   2
  -1   4  10 5.71651 1.17580   6
   0  -4 -10 8.45576 1.43108   5
   0  -4  10 10.2687  0.8830   4
   0  -4  10 11.9358  3.6089   1
   0  -4 -10 9.16132 1.38404   6
   0  -4 -10 11.3312  1.3521   2
   0   4  10 9.66829 1.28966   4
   0   4  10 14.5278  1.5870   6
   0   4 -10 9.94881 0.89263   2
   1  -4  10 2.24825 3.30560   1
  -1  -4 -10 7.44108 1.24977   6
  -1  -4 -10 6.28433 1.14498   2
  -1  -4 -10 6.52723 1.32917   5
   1  -4  10 6.75681 0.74097   4
   1   4  10 8.22050 1.16269   4
   1   4  10 5.81562 1.18268   6
  -1   4 -10 6.91558 0.76010   2
   2  -4  10 9.44994 0.96377   4
  -2  -4 -10 8.35200 1.39207   6
  -2  -4 -10 10.4475  1.3393   2
  -2  -4 -10 6.08563 1.49767   5
   2  -4  10 9.00832 3.93288   1
  -2   4 -10 9.51939 1.02441   2
   2   4  10 9.73605 1.43558   6
   2   4  10 10.4972  1.3145   4
   3  -4  10 9.83443 1.15732   4
  -3  -4 -10 11.0704  1.4576   2
   3  -4  10 12.0331  4.0218   1
  -3  -4 -10 13.4050  1.6126   6
   3  -4  10 10.5321  1.1783   4
   3   4  10 9.32803 1.59408   6
  -3   4 -10 11.8551  1.3114   2
   3   4  10 9.68951 1.40996   4
  -4  -4 -10 6.74604 1.37513   6
   4  -4  10 11.9921  1.3736   4
   4  -4  10 4.11190 3.82445   1
  -4  -4 -10 3.19360 1.18532   2
   4   4  10 2.66294 1.35711   6
  -4   4 -10 7.13143 1.40996   2
   5  -4  10 50.3412  6.1903   1
  -5  -4 -10 31.9244  2.8566   2
  -5  -4 -10 29.1227  3.0296   6
   5  -4  10 32.8612  3.0350   4
  -5   4 -10 30.0185  3.1501   2
   5   4  10 32.4708  3.1185   6
   6  -4  10 12.7002  2.1654   4
  -6  -4 -10 10.0927  1.9239   2
  -6  -4 -10 9.31095 1.97196   6
  -6   4 -10 12.3739  2.3450   2
   6   4  10 10.7506  2.0554   6
  -7  -4 -10 19.5902  2.7307   2
  -7  -4 -10 22.0171  2.8447   6
   7  -4  10 19.7750  3.0202   4
   7   4  10 22.2550  3.1857   6
  -7   4 -10 20.0297  3.0192   2
   8  -4  10 0.78790 2.06303   4
  -8  -4 -10 2.14119 2.12195   2
  -8  -4 -10 -0.5903  1.9790   6
   8   4  10 3.33242 2.41791   6
  -8   4 -10 4.55870 2.31636   2
  -9  -4 -10 42.5872  5.0990   6
   9  -4  10 49.0436  4.7877   4
  -9   4 -10 57.0196  4.8955   2
   9   4  10 49.1151  5.5314   6
 -10  -4 -10 16.7417  3.7941   6
 -10   4 -10 20.2277  3.0886   2
  10   4  10 14.6577  3.6754   6
 -11  -4 -10 7.45732 3.41264   6
 -11   4 -10 12.8243  2.9375   2
  11   4  10 8.92499 3.13424   6
  11  -5 -10 10.6601  3.6548   6
  11   5 -10 10.8448  2.5942   2
 -11   5  10 10.2229  3.2824   6
  10  -5 -10 -0.3336  2.7915   6
  10   5 -10 0.35538 2.00595   2
 -10   5  10 2.60321 2.66255   6
  -9  -5  10 35.0244  3.3336   4
   9  -5 -10 23.7493  3.9009   6
  -9   5  10 28.0535  3.8352   6
   9   5 -10 27.9135  3.5254   2
   8  -5 -10 629.193  43.665   6
  -8  -5  10 660.814  39.988   4
   8   5 -10 668.845  40.368   2
  -8   5  10 589.174  43.459   6
  -7  -5  10 32.0443  5.0372   1
   7  -5 -10 24.7445  3.3428   6
  -7  -5  10 38.6653  3.3999   4
  -7   5  10 29.5128  3.2193   6
   7   5 -10 31.4699  3.6797   2
   6  -5 -10 5.00791 1.63077   6
  -6  -5  10 6.27901 3.05534   1
   6  -5 -10 4.66672 1.53409   2
  -6  -5  10 6.82829 2.01213   4
   6   5 -10 6.08354 2.19473   2
  -6   5  10 4.32997 1.48235   6
   5  -5 -10 354.548  20.720   2
  -5  -5  10 338.997  27.252   1
  -5  -5  10 302.405  20.820   4
   5  -5 -10 324.458  22.395   6
   5   5 -10 321.256  20.924   2
  -5   5  10 311.214  22.307   6
  -4  -5  10 899.674  57.923   4
  -4  -5  10 956.085  74.713   1
   4  -5 -10 972.411  58.070   2
   4  -5 -10 945.802  62.889   6
   4  -5 -10 945.225  57.587   5
   4   5 -10 904.872  58.073   2
  -4   5  10 910.764  62.820   6
  -3  -5  10 184.757  15.898   1
   3  -5 -10 173.209  12.532   6
  -3  -5  10 177.504  11.511   4
   3  -5 -10 189.300  11.599   2
   3  -5 -10 185.904  11.485   5
  -3   5  10 177.672  11.585   2
   3   5 -10 167.869  11.413   2
  -3   5  10 178.536  12.480   6
   2  -5 -10 115.644   7.555   5
   2  -5 -10 111.996   7.540   2
   2  -5 -10 110.725   8.172   6
  -2  -5  10 118.291  11.069   1
  -2  -5  10 109.924   7.315   4
   2   5 -10 119.853   7.292   2
  -2   5  10 112.038   8.142   6
  -2   5  10 116.880   7.583   2
  -1  -5  10 483.072  31.201   4
   1  -5 -10 492.877  31.551   5
   1  -5 -10 512.030  34.334   6
  -1  -5  10 509.247  41.662   1
   1  -5 -10 541.651  31.726   2
  -1   5  10 485.670  31.683   2
   1   5 -10 525.221  31.362   2
  -1   5  10 506.965  34.309   6
   0  -5 -10 1026.84   59.52   2
   0  -5  10 989.792  77.267   1
   0  -5 -10 962.503  59.213   5
   0  -5 -10 956.340  64.456   6
   0  -5  10 937.032  58.839   4
   0   5 -10 923.051  59.135   2
   0   5  10 936.864  59.508   2
   0   5  10 945.071  64.456   6
   1  -5  10 461.505  27.186   4
  -1  -5 -10 399.661  29.977   6
  -1  -5 -10 437.086  27.680   2
  -1  -5 -10 430.755  27.656   5
   1  -5  10 465.884  37.154   1
   1   5  10 419.995  29.975   6
  -1   5 -10 475.612  27.345   2
   1   5  10 414.868  27.679   2
   1   5  10 474.930  27.726   2
  -2  -5 -10 645.674  41.321   2
   2  -5  10 590.702  54.189   1
   2  -5  10 659.948  40.779   4
  -2  -5 -10 675.734  44.784   6
  -2  -5 -10 666.440  41.268   5
   2   5  10 701.896  44.784   6
   2   5  10 707.312  41.337   2
   2   5  10 649.009  41.299   2
  -2   5 -10 655.865  41.016   2
  -3  -5 -10 152.421   9.314   2
  -3  -5 -10 128.573   9.455   5
  -3  -5 -10 141.211  10.067   6
   3  -5  10 144.908  14.011   1
   3  -5  10 143.051   8.956   4
  -3   5 -10 135.203   9.093   2
   3   5  10 146.208  10.074   6
   4  -5  10 563.614  33.739   4
  -4  -5 -10 546.738  36.859   6
  -4  -5 -10 568.403  33.999   2
  -4  -5 -10 524.591  34.088   5
  -4   5 -10 511.905  33.980   2
   4   5  10 539.674  36.872   6
  -5  -5 -10 380.595  24.166   6
  -5  -5 -10 360.720  22.226   2
   5  -5  10 348.224  22.189   4
  -5  -5 -10 332.085  22.492   5
   5   5  10 363.805  24.131   6
  -5   5 -10 311.623  22.308   2
  -6  -5 -10 622.755  41.392   6
   6  -5  10 599.380  38.162   4
  -6  -5 -10 650.655  38.222   2
   6   5  10 638.651  41.423   6
  -6   5 -10 523.047  38.245   2
   7  -5  10 -1.5403  1.9497   4
  -7  -5 -10 0.84079 1.65099   6
  -7   5 -10 -1.1809  1.9862   2
   7   5  10 -1.1892  1.6992   6
  -8  -5 -10 263.531  19.465   6
   8  -5  10 298.048  18.102   4
  -8   5 -10 284.492  18.035   2
   8   5  10 245.555  19.481   6
   9  -5  10 186.493  11.584   4
  -9  -5 -10 144.526  12.460   6
   9   5  10 143.715  12.498   6
  -9   5 -10 179.384  11.498   2
 -10  -5 -10 152.704  12.875   6
 -10   5 -10 177.203  11.407   2
  10   5  10 155.244  12.877   6
  11   5  10 15.2108  3.8357   6
  10  -6 -10 8.39803 3.16086   6
  10   6 -10 3.70996 1.99092   2
 -10   6  10 3.06280 2.59634   6
   9  -6 -10 0.74758 2.00850   6
   9   6 -10 2.09317 1.91248   2
  -9   6  10 0.75171 2.17641   6
  -8  -6  10 17.8880  2.7095   4
   8  -6 -10 14.9846  2.9354   6
  -8  -6  10 15.2299  4.7742   1
   8   6 -10 18.8233  2.7560   2
  -8   6  10 16.6541  2.8295   6
  -7  -6  10 161.342  14.348   1
  -7  -6  10 179.247  10.552   4
   7  -6 -10 130.866  11.114   6
   7   6 -10 164.819  10.546   2
  -7   6  10 134.858  11.062   6
  -6  -6  10 7.16763 2.05720   4
  -6  -6  10 7.40949 3.53711   1
   6  -6 -10 5.11126 1.65163   6
   6   6 -10 8.05233 2.14934   2
  -6   6  10 4.89397 1.62162   6
  -5  -6  10 2.12128 1.71899   4
   5  -6 -10 0.72558 1.29665   6
  -5  -6  10 1.41654 2.77643   1
   5  -6 -10 0.57613 1.15242   5
   5   6 -10 -1.2201  1.8468   2
  -5   6  10 1.88342 1.36514   6
  -4  -6  10 3.11923 2.97448   1
  -4  -6  10 1.29980 1.73765   4
   4  -6 -10 4.32683 1.28100   5
   4  -6 -10 3.21426 1.35292   6
  -4   6  10 1.22177 1.22428   6
   4   6 -10 6.29909 2.00018   2
  -4   6  10 4.74073 1.44068   2
   3  -6 -10 492.224  30.424   5
  -3  -6  10 486.554  40.196   1
   3  -6 -10 490.343  33.128   6
  -3  -6  10 529.996  30.602   4
  -3   6  10 507.147  30.638   2
   3   6 -10 412.578  30.641   2
  -3   6  10 495.491  33.129   6
   2  -6 -10 118.033   8.579   6
  -2  -6  10 121.881  11.745   1
   2  -6 -10 121.883   7.965   5
  -2  -6  10 108.706   7.904   4
  -2   6  10 136.568   8.019   2
   2   6 -10 113.273   7.879   2
  -2   6  10 118.386   8.565   6
   1  -6 -10 32.4792  2.7064   2
   1  -6 -10 35.0319  2.9284   6
   1  -6 -10 34.9643  2.8859   5
  -1  -6  10 30.7403  5.6726   1
  -1   6  10 33.9101  2.7517   2
  -1   6  10 28.6978  2.9496   6
   0  -6 -10 13.6400  1.8817   5
   0  -6 -10 15.7236  1.7412   2
   0  -6 -10 13.7691  1.8399   6
   0  -6  10 12.7223  4.5150   1
   0   6  10 12.3659  1.7793   6
   0   6  10 14.9962  1.7569   2
  -1  -6 -10 482.147  29.131   2
  -1  -6 -10 464.238  29.148   5
  -1  -6 -10 471.516  31.570   6
   1  -6  10 410.983  30.297   5
   1  -6  10 463.840  39.224   1
   1   6  10 466.310  31.558   6
   1   6  10 498.549  29.169   2
   1   6  10 444.418  29.132   2
  -2  -6 -10 406.285  26.357   5
   2  -6  10 428.273  27.850   5
   2  -6  10 426.697  25.760   4
  -2  -6 -10 393.281  28.477   6
   2  -6  10 386.353  35.543   1
  -2  -6 -10 413.956  26.285   2
   2   6  10 452.852  26.362   2
   2   6  10 416.574  28.497   6
   2   6  10 432.639  26.327   2
  -3  -6 -10 203.511  14.193   5
  -3  -6 -10 218.232  15.211   6
   3  -6  10 270.607  20.836   1
   3  -6  10 219.430  13.637   4
   3   6  10 222.305  15.235   6
  -3   6 -10 192.258  13.801   2
   3   6  10 231.857  14.084   2
  -4  -6 -10 8.01755 1.69432   6
   4  -6  10 8.13354 1.43751   4
   4  -6  10 5.37929 3.48930   5
  -4  -6 -10 4.39390 1.84147   5
   4  -6  10 9.91064 4.78320   1
   4   6  10 9.66430 1.75670   6
  -4   6 -10 8.64703 1.69343   2
  -5  -6 -10 75.1662  6.3119   5
  -5  -6 -10 94.3999  6.5676   6
   5  -6  10 86.8478  6.0470   4
  -5   6 -10 68.7341  5.9956   2
   5   6  10 88.0388  6.4680   6
   6  -6  10 415.695  28.050   4
  -6  -6 -10 467.393  30.522   6
   6   6  10 450.608  30.469   6
  -6   6 -10 437.036  28.193   2
  -7  -6 -10 328.310  24.926   6
   7  -6  10 376.708  23.120   4
   7   6  10 325.427  24.914   6
  -7   6 -10 404.856  23.204   2
   8  -6  10 130.371   8.839   4
  -8  -6 -10 109.608   9.482   6
  -8   6 -10 126.100   8.712   2
   8   6  10 113.932   9.576   6
  -9  -6 -10 3.28650 2.84601   6
  -9   6 -10 2.69738 2.16663   2
   9   6  10 0.47896 2.75792   6
 -10  -6 -10 265.265  21.568   6
  10   6  10 300.104  21.635   6
 -10   6 -10 314.886  19.400   2
   9  -7 -10 19.9261  3.5522   6
  -9   7  10 17.4058  3.2800   6
   9   7 -10 24.4674  3.0643   2
   8  -7 -10 377.058  27.950   6
  -8  -7  10 406.087  34.320   1
   8   7 -10 422.786  25.766   2
  -7  -7  10 59.3474  4.7013   4
  -7  -7  10 63.9704  7.6009   1
   7  -7 -10 45.6516  4.5708   6
   7   7 -10 53.7518  4.4174   2
  -7   7  10 42.4005  4.4964   6
  -6  -7  10 358.548  21.913   4
   6  -7 -10 336.119  23.569   6
  -6  -7  10 326.976  29.072   1
   6   7 -10 365.544  21.895   2
  -6   7  10 313.458  23.479   6
   5  -7 -10 70.9230  5.8146   6
  -5  -7  10 64.4605  5.5238   4
  -5  -7  10 80.6497  8.6550   1
   5  -7 -10 83.4831  5.4129   5
   5   7 -10 75.4888  5.5815   2
  -5   7  10 69.6704  5.7972   6
   4  -7 -10 386.442  23.008   5
  -4  -7  10 373.235  30.998   1
   4  -7 -10 358.912  24.980   6
  -4  -7  10 319.026  22.879   4
  -4   7  10 380.428  23.146   2
  -4   7  10 372.174  25.012   6
   3  -7 -10 211.203  14.721   6
  -3  -7  10 194.465  13.263   4
   3  -7 -10 213.701  13.579   5
  -3  -7  10 191.288  18.880   1
  -3   7  10 209.262  14.695   6
  -3   7  10 238.809  13.722   2
   2  -7 -10 245.210  16.642   6
   2  -7 -10 235.735  15.369   5
  -2  -7  10 232.654  14.862   4
  -2  -7  10 245.872  21.597   1
  -2   7  10 236.845  16.646   6
  -2   7  10 247.268  15.424   2
   1  -7 -10 75.6657  5.5029   5
  -1  -7  10 72.2082  9.4129   1
   1  -7 -10 77.2519  5.8137   6
  -1   7  10 81.1540  5.4671   2
  -1   7  10 73.2621  5.8373   6
   0  -7 -10 125.036   9.022   6
   0  -7  10 114.638  13.192   1
   0  -7 -10 127.978   8.501   5
   0   7  10 124.299   9.048   6
   0   7  10 129.324   8.394   2
   1  -7  10 205.069  19.860   1
  -1  -7 -10 196.267  13.534   5
  -1  -7 -10 197.664  14.518   6
   1   7  10 224.832  13.478   2
   1   7  10 208.543  14.521   6
   1   7  10 212.961  13.439   2
  -2  -7 -10 194.392  12.640   5
  -2  -7 -10 181.138  13.372   6
   2  -7  10 196.400  14.388   5
   2  -7  10 191.462  18.695   1
   2   7  10 208.408  12.441   2
   2   7  10 189.402  13.399   6
   2   7  10 179.522  12.370   2
   3  -7  10 29.8352  2.2679   4
   3  -7  10 44.2321  5.7509   5
   3  -7  10 36.2947  7.3642   1
  -3  -7 -10 28.1954  3.2499   5
  -3  -7 -10 35.0092  3.0803   6
   3   7  10 27.2124  2.9410   6
   3   7  10 30.6691  2.8947   2
   4  -7  10 25.9269  2.6039   4
   4  -7  10 45.6265  7.3725   1
  -4  -7 -10 32.9424  3.1474   6
   4  -7  10 45.1216  5.6555   5
  -4  -7 -10 34.4978  3.6169   5
  -4   7 -10 21.2609  2.7237   2
   4   7  10 33.4675  3.1919   6
   5  -7  10 45.1841  4.0202   4
  -5  -7 -10 53.4084  4.5171   6
  -5   7 -10 43.8930  4.0300   2
   5   7  10 52.1114  4.3768   6
  -6  -7 -10 273.134  18.368   6
   6  -7  10 238.847  16.785   4
   6   7  10 251.233  18.200   6
  -6   7 -10 270.516  16.873   2
  -7  -7 -10 28.4045  3.7742   6
   7  -7  10 28.9744  3.6134   4
   7   7  10 27.2014  3.6171   6
  -7   7 -10 34.5256  3.4639   2
  -8  -7 -10 80.0332  7.3072   6
  -8   7 -10 84.3642  6.2905   2
   8   7  10 74.4276  7.0771   6
  -9  -7 -10 1.43957 3.04385   6
   9   7  10 2.52212 2.75087   6
  -9   7 -10 4.07451 2.27166   2
   8  -8 -10 28.6258  3.8552   6
  -8   8  10 32.2871  3.8002   6
   8   8 -10 28.9456  3.3613   2
  -7  -8  10 77.3057  8.9837   1
   7  -8 -10 66.5380  5.5992   6
  -7   8  10 61.1904  5.5151   6
   7   8 -10 57.0505  4.9923   2
   6  -8 -10 335.848  23.920   6
  -6  -8  10 330.609  22.005   4
  -6  -8  10 402.415  30.502   1
  -6   8  10 334.069  23.907   6
  -5  -8  10 147.477  10.306   4
  -5  -8  10 167.937  15.705   1
   5  -8 -10 151.179  11.346   6
  -5   8  10 180.339  10.686   2
  -5   8  10 149.862  11.369   6
  -4  -8  10 100.990   6.917   4
  -4  -8  10 118.463  11.700   1
   4  -8 -10 105.493   7.908   6
  -4   8  10 104.304   7.376   2
  -4   8  10 108.440   7.913   6
  -3  -8  10 4.29479 0.80574   4
   3  -8 -10 2.96904 1.50206   6
  -3  -8  10 3.30775 4.13336   1
  -3   8  10 1.60831 1.49312   6
  -3   8  10 4.34763 1.48299   2
   2  -8 -10 443.051  32.489   6
  -2  -8  10 480.210  40.671   1
  -2  -8  10 489.495  29.329   4
  -2   8  10 484.051  30.060   2
  -2   8  10 488.567  32.557   6
   1  -8 -10 66.5093  5.2618   6
  -1  -8  10 69.9083  9.5635   1
  -1   8  10 67.5875  5.3600   6
  -1   8  10 68.1930  4.9566   2
   0  -8  10 208.890  20.025   1
   0  -8 -10 200.806  14.247   6
   0   8  10 207.617  14.283   6
   0   8  10 197.743  13.179   2
  -1  -8 -10 15.8513  2.1142   6
   1  -8  10 8.62530 6.37846   1
   1   8  10 16.6281  2.1037   2
   1   8  10 14.7368  2.0062   2
   1   8  10 18.5887  2.2300   6
  -2  -8 -10 267.573  19.402   6
   2  -8  10 320.451  20.407   5
   2  -8  10 291.516  26.301   1
   2   8  10 289.270  17.964   2
   2   8  10 266.832  19.378   6
   2   8  10 272.356  17.937   2
   3  -8  10 2.91363 3.80945   5
   3  -8  10 1.96907 0.71968   4
   3  -8  10 -0.6522  5.0861   1
  -3  -8 -10 1.63601 1.52879   6
   3   8  10 3.59092 1.56845   2
   3   8  10 1.64358 1.47658   6
   4  -8  10 95.8217  6.7935   4
  -4  -8 -10 106.940   7.871   6
   4   8  10 103.714   7.256   2
   4   8  10 105.586   7.783   6
   5  -8  10 12.9968  2.1257   4
  -5  -8 -10 14.1445  2.5208   6
   5   8  10 15.2439  2.3924   6
  -6  -8 -10 94.4347  7.6026   6
   6  -8  10 89.1517  6.9042   4
  -6   8 -10 99.2333  6.8562   2
   6   8  10 92.7495  7.4292   6
  -7  -8 -10 10.7896  3.0153   6
  -7   8 -10 10.5839  2.3468   2
   7   8  10 11.3932  2.6106   6
  -8  -8 -10 5.38264 2.91367   6
   8   8  10 6.67917 2.65039   6
  -8   8 -10 10.8595  2.4158   2
  -7  -9  10 -4.6865  4.0489   1
   7   9 -10 -2.1589  1.3962   2
  -6  -9  10 203.915  16.726   1
   6   9 -10 128.870  10.161   2
  -6   9  10 170.882  11.485   6
  -5  -9  10 428.805  37.481   1
   5  -9 -10 424.280  29.874   6
  -5   9  10 462.782  27.705   2
  -5   9  10 422.560  29.882   6
  -4  -9  10 101.987   6.419   4
   4  -9 -10 93.0743  7.5391   6
  -4  -9  10 108.679  11.974   1
  -4   9  10 99.8265  7.0251   2
  -4   9  10 97.6886  7.5355   6
   3  -9 -10 -0.5482  1.4609   6
  -3  -9  10 2.74438 4.63203   1
  -3  -9  10 1.11796 0.62804   4
  -3   9  10 0.97349 1.59561   2
  -3   9  10 1.47058 1.50801   6
   2  -9 -10 240.272  17.964   6
  -2  -9  10 255.019  24.402   1
  -2   9  10 288.121  16.779   2
  -2   9  10 251.201  18.066   6
   1  -9 -10 288.903  22.046   6
  -1  -9  10 341.133  29.755   1
  -1   9  10 336.032  20.490   2
  -1   9  10 326.388  22.172   6
   0  -9  10 197.825  19.959   1
   0  -9 -10 177.726  13.400   6
   0   9  10 194.770  13.514   6
   0   9  10 195.364  12.520   2
  -1  -9 -10 0.49079 1.43370   6
   1  -9  10 -4.4356  5.7706   1
   1   9  10 0.84381 1.42701   2
   1   9  10 1.74966 1.40652   6
  -2  -9 -10 273.088  20.064   6
   2  -9  10 331.705  27.987   1
   2   9  10 271.417  20.018   6
   2   9  10 299.732  18.617   2
   2   9  10 293.595  18.583   2
  -3  -9 -10 230.240  17.219   6
   3   9  10 251.998  17.221   6
   3   9  10 247.929  15.903   2
   3   9  10 248.761  15.914   2
   4  -9  10 110.052   8.097   4
  -4  -9 -10 141.269   9.606   6
   4   9  10 129.587   8.748   2
   4   9  10 130.312   9.402   6
  -5  -9 -10 9.45512 2.46894   6
   5   9  10 9.73017 2.31609   6
  -6  -9 -10 200.878  14.381   6
   6   9  10 185.905  14.025   6
  -7   9 -10 273.512  17.785   2
  -5 -10  10 47.6824  8.5843   1
  -5  10  10 51.4014  4.4207   2
  -4 -10  10 26.5228  7.1732   1
  -4  10  10 26.3505  3.1811   6
  -4  10  10 26.7827  2.9987   2
  -3 -10  10 8.55399 6.19811   1
  -3  10  10 6.77293 1.93649   6
  -3  10  10 6.21996 1.75229   2
  -2 -10  10 15.7635  7.2542   1
  -2  10  10 17.5796  2.4620   2
  -2  10  10 18.2797  2.6828   6
  -1 -10  10 76.5100 12.4249   1
  -1  10  10 64.8906  5.1565   2
  -1  10  10 67.5317  5.5400   6
   0 -10  10 52.0691 10.9738   1
   0  10  10 52.0288  4.4409   2
   0  10  10 57.2188  4.7997   6
   1 -10  10 29.2791  9.0108   1
   1  10  10 23.8175  2.8232   6
   1  10  10 22.5561  2.7284   2
   2 -10  10 92.6750 13.2164   1
   2  10  10 46.7764  4.3732   6
   2  10  10 54.2529  4.2791   2
   2  10  10 44.8692  4.0666   2
   3  10  10 22.6615  2.7314   2
   3  10  10 21.3539  2.9024   6
   3  10  10 23.3032  2.7644   2
   4  10  10 3.71751 1.92989   6
   4  10  10 3.11209 1.87167   2
   4  10  10 4.62725 1.86545   2
  -3  11  10 49.5483  4.3621   2
  -2  11  10 178.778  11.971   2
  -1 -11  10 332.442  31.197   1
  -1  11  10 299.823  19.880   2
   0 -11  10 4.53864 8.41632   1
   0  11  10 9.40986 2.06910   2
   1 -11  10 83.2843 14.3049   1
   1  11  10 67.5928  5.4440   2
   2 -11  10 464.450  37.676   1
   2  11  10 354.505  24.573   2
   3  11  10 557.507  34.885   2
   3  11  10 543.507  34.851   2
  12   0 -11 -1.5374  2.5479   2
  11   0 -11 0.68894 2.59533   2
  11   0 -11 2.73212 3.00836   6
  10   0 -11 -0.6702  2.3619   2
  10   0 -11 -1.5904  2.6873   6
   9   0 -11 0.61126 1.98568   2
  -9   0  11 -1.3520  2.0491   4
   9   0 -11 1.69161 2.55662   6
   8   0 -11 0.87822 2.18726   6
  -8   0  11 3.29676 1.68985   4
   8   0 -11 3.08716 1.73164   2
   7   0 -11 0.82799 1.41341   2
  -7   0  11 1.03303 1.31488   4
   7   0 -11 1.99481 1.93540   6
   6   0 -11 0.05808 1.48653   6
  -6   0  11 3.58847 1.20488   4
  -6   0  11 1.05126 1.87246   1
   6   0 -11 0.52544 1.16113   2
   5   0 -11 1.10825 1.24815   6
  -5   0  11 2.40383 0.98026   4
   5   0 -11 1.51238 0.97199   2
  -5   0  11 4.26341 1.93460   1
  -4   0  11 -0.0222  0.8507   4
  -4   0  11 1.89302 1.85912   1
   4   0 -11 0.56184 1.01079   6
   4   0 -11 0.25032 0.84886   2
   3   0 -11 2.48979 0.85984   2
  -3   0  11 3.44479 0.87790   4
   3   0 -11 2.48076 1.04067   6
  -3   0  11 1.83219 1.90937   1
   2   0 -11 1.23749 0.88457   6
   2   0 -11 2.06072 0.75797   2
  -2   0  11 1.12630 0.70685   4
   1   0 -11 1.39653 0.68485   2
   1   0 -11 3.10311 0.88036   6
  -1   0  11 1.08805 0.65168   4
   0   0 -11 1.36835 0.66704   2
   0   0  11 0.71543 0.62243   4
   0   0 -11 1.68050 0.76643   6
  -1   0 -11 1.64646 0.75771   6
   1   0  11 0.58089 0.62996   4
  -1   0 -11 0.57442 0.65368   2
  -2   0 -11 0.86672 0.75682   2
  -2   0 -11 4.03344 0.90348   6
   2   0  11 0.15863 0.67743   4
  -3   0 -11 1.10800 0.85262   2
   3   0  11 3.18690 0.82817   4
  -3   0 -11 0.81343 0.78513   6
   4   0  11 0.56493 0.89414   4
  -4   0 -11 1.17915 0.96187   2
  -4   0 -11 0.63987 0.90902   6
   5   0  11 1.66991 1.12706   4
  -5   0 -11 2.15329 1.14601   2
  -5   0 -11 1.28569 1.12369   6
  -6   0 -11 3.01710 1.46860   2
   6   0  11 0.68379 1.24735   4
  -6   0 -11 2.73596 1.28921   6
  -7   0 -11 1.76117 1.83586   2
   7   0  11 1.94314 1.68214   4
  -7   0 -11 2.18720 1.65798   6
  -8   0 -11 2.86288 2.10111   6
   8   0  11 -1.4045  1.8952   4
  -8   0 -11 0.51500 2.00037   2
  -9   0 -11 2.20050 2.36287   6
  -9   0 -11 0.00651 2.46511   2
   9   0  11 -0.0217  2.3206   4
 -10   0 -11 1.31127 2.86360   6
 -10   0 -11 -1.0308  2.4452   2
  10   0  11 -2.5684  2.2735   4
 -11   0 -11 -3.0094  2.6239   2
 -11   0 -11 -0.2647  2.8287   6
 -12   0 -11 -0.7711  2.7364   2
  12  -1 -11 104.112   8.641   2
  12   1 -11 111.973   8.585   2
  11  -1 -11 177.673  13.531   2
  11  -1 -11 193.800  14.911   6
  11   1 -11 169.970  13.410   2
  11   1 -11 218.863  14.989   6
  10  -1 -11 1109.63   68.90   2
 -10  -1  11 984.204  68.495   4
  10  -1 -11 1023.66   74.85   6
  10   1 -11 1226.37   75.10   6
  10   1 -11 1136.75   69.07   2
  -9  -1  11 3.02747 2.07621   4
   9  -1 -11 4.40926 2.59820   6
   9  -1 -11 2.02864 1.95102   2
   9   1 -11 1.52682 2.25537   2
   9   1 -11 0.99468 2.52151   6
   8  -1 -11 222.389  17.168   6
   8  -1 -11 244.411  15.567   2
  -8  -1  11 238.339  15.607   4
  -8   1  11 255.066  15.582   4
   8   1 -11 231.962  17.338   6
   8   1 -11 225.895  15.633   2
   7  -1 -11 171.123  12.823   6
  -7  -1  11 178.379  11.679   4
   7  -1 -11 170.338  11.598   2
  -7   1  11 164.370  12.404   6
   7   1 -11 185.389  11.727   2
  -7   1  11 184.927  11.610   4
   7   1 -11 178.248  13.037   6
   6  -1 -11 1375.23   86.45   2
   6  -1 -11 1340.26   93.81   6
  -6  -1  11 1567.92  110.40   1
  -6  -1  11 1303.50   86.04   4
   6   1 -11 1332.24   93.91   6
  -6   1  11 1416.98   86.07   4
   6   1 -11 1393.95   86.47   2
  -6   1  11 1428.84   93.57   6
   5  -1 -11 7.33982 1.30296   2
   5  -1 -11 9.16162 1.68022   6
  -5  -1  11 7.29448 1.27642   4
  -5  -1  11 10.4643  2.4764   1
   5   1 -11 6.30186 1.26350   2
   5   1 -11 8.85378 1.73894   6
  -5   1  11 6.20122 1.23463   4
  -5   1  11 10.2404  1.4060   6
  -5   1  11 10.1780  2.4758   1
  -4  -1  11 307.678  20.191   4
   4  -1 -11 334.895  22.150   6
   4  -1 -11 314.187  20.334   2
  -4  -1  11 318.905  26.446   1
   4   1 -11 318.324  20.296   2
   4   1 -11 332.209  22.143   6
  -4   1  11 338.311  20.264   4
  -4   1  11 322.012  21.949   6
   3  -1 -11 233.817  14.422   2
   3  -1 -11 236.691  15.687   6
  -3  -1  11 224.942  14.288   4
  -3  -1  11 230.089  19.012   1
  -3   1  11 226.465  15.539   6
   3   1 -11 241.497  15.644   6
  -3   1  11 212.937  14.311   4
   3   1 -11 216.331  14.347   2
  -2  -1  11 1057.89   65.44   4
   2  -1 -11 1136.04   65.37   5
   2  -1 -11 1000.81   71.35   6
  -2  -1  11 1023.10   84.46   1
   2  -1 -11 1056.51   65.82   2
   2   1 -11 1037.05   65.75   2
  -2   1  11 1003.73   71.24   6
   2   1 -11 1208.96   71.33   6
  -2   1  11 1041.49   65.48   4
   1  -1 -11 6.96766 0.94012   2
  -1  -1  11 3.13116 0.72406   4
   1  -1 -11 2.34503 0.93649   6
  -1  -1  11 2.22784 2.26959   1
   1   1 -11 4.04893 0.92552   6
  -1   1  11 3.14659 0.87619   6
  -1   1  11 2.05091 0.74904   4
   1   1 -11 4.22704 0.77100   2
   0  -1  11 175.357  11.753   4
   0  -1 -11 176.936  11.890   2
   0  -1 -11 194.724  12.909   6
   0   1  11 182.795  11.834   4
   0   1 -11 192.488  11.828   2
   0   1 -11 208.007  12.846   6
   0   1  11 184.489  12.874   6
  -1  -1 -11 414.432  26.815   2
   1  -1  11 419.935  26.630   4
  -1  -1 -11 453.947  29.099   6
   1   1  11 433.843  29.106   6
   1   1  11 429.606  26.708   4
  -1   1 -11 451.689  29.009   6
  -1   1 -11 409.968  26.762   2
  -2  -1 -11 728.313  43.754   2
  -2  -1 -11 690.167  47.377   6
   2  -1  11 724.703  43.464   4
  -2   1 -11 729.051  43.687   2
   2   1  11 672.464  43.497   4
  -2   1 -11 680.860  47.296   6
  -3  -1 -11 2.67741 0.99017   6
   3  -1  11 2.69230 0.80731   4
  -3  -1 -11 4.94375 1.08394   2
   3   1  11 2.77907 1.38881   6
  -3   1 -11 1.75938 0.86041   2
   3   1  11 2.85313 0.94209   4
  -3   1 -11 3.38481 0.94397   6
   4  -1  11 43.4608  3.2149   4
  -4  -1 -11 47.2316  3.3011   2
  -4  -1 -11 41.4581  3.4318   6
  -4   1 -11 41.3359  3.3687   6
   4   1  11 40.6330  3.2139   4
   4   1  11 40.9094  3.9948   6
  -4   1 -11 44.1170  3.2588   2
  -5  -1 -11 553.806  39.271   6
  -5  -1 -11 605.445  36.388   2
   5  -1  11 547.143  36.100   4
   5   1  11 576.961  36.139   4
   5   1  11 598.981  39.752   6
  -5   1 -11 611.613  39.288   6
  -5   1 -11 570.270  36.343   2
   6  -1  11 646.640  44.188   4
  -6  -1 -11 733.497  44.517   2
  -6  -1 -11 713.279  48.064   6
  -6   1 -11 746.550  48.059   6
  -6   1 -11 736.520  44.564   2
   6   1  11 682.613  44.207   4
  -7  -1 -11 13.1849  2.1754   6
   7  -1  11 10.0460  2.0966   4
  -7  -1 -11 12.0061  2.3069   2
   7   1  11 13.6630  2.2276   4
  -7   1 -11 11.2634  2.4058   2
  -7   1 -11 11.9049  2.2332   6
  -8  -1 -11 6.79104 2.21907   6
   8  -1  11 5.47956 2.23260   4
  -8  -1 -11 5.32550 2.24137   2
   8  -1  11 7.82321 2.39745   4
   8   1  11 4.70720 2.15951   4
  -8   1 -11 10.3758  2.7509   2
  -8   1 -11 7.30340 2.49669   6
   9  -1  11 444.649  27.578   4
  -9  -1 -11 427.963  29.903   6
  -9  -1 -11 444.228  27.839   2
   9  -1  11 397.029  27.472   4
  -9   1 -11 423.114  29.979   6
  -9   1 -11 422.289  27.783   2
   9   1  11 422.257  27.577   4
 -10  -1 -11 649.458  49.276   6
  10  -1  11 722.538  45.356   4
  10  -1  11 791.219  45.440   4
 -10   1 -11 758.184  45.703   2
 -10   1 -11 655.378  49.343   6
 -11  -1 -11 48.6665  6.0739   6
 -11  -1 -11 52.5460  5.6394   2
 -11   1 -11 49.5955  5.9146   6
 -11   1 -11 56.3753  5.5871   2
 -12  -1 -11 1.49422 2.93372   2
  11  -2 -11 134.784  10.497   2
  11  -2 -11 119.355  11.381   6
  11   2 -11 175.327  11.828   6
  11   2 -11 138.422  10.526   2
  10  -2 -11 1.86886 2.55660   2
  10  -2 -11 2.09031 2.57463   6
 -10  -2  11 4.26609 2.39980   4
  10   2 -11 -2.0606  2.7836   6
  10   2 -11 5.75078 2.65456   2
  -9  -2  11 114.654   8.483   4
   9  -2 -11 114.737   9.113   6
   9  -2 -11 115.253   8.280   2
   9   2 -11 102.867   8.493   2
   9   2 -11 120.953   9.550   6
  -9   2  11 102.042   8.553   6
   8  -2 -11 3.63908 1.92099   2
   8  -2 -11 1.38942 2.00052   6
  -8  -2  11 2.19859 1.83795   4
   8   2 -11 1.96572 2.31271   6
  -8   2  11 6.04418 1.84853   6
   8   2 -11 5.79203 2.21126   2
   7  -2 -11 300.253  20.376   2
   7  -2 -11 296.437  22.248   6
  -7  -2  11 336.394  20.536   4
  -7   2  11 351.171  20.423   4
   7   2 -11 321.084  22.584   6
   7   2 -11 329.912  20.578   2
  -7   2  11 303.068  22.013   6
   6  -2 -11 10.9240  2.0378   6
  -6  -2  11 10.9323  2.8457   1
  -6  -2  11 10.4781  1.7432   4
   6  -2 -11 10.3029  1.6923   2
   6   2 -11 9.64505 1.71410   2
  -6   2  11 10.1460  1.7015   6
   6   2 -11 10.3871  2.2746   6
  -6   2  11 11.3904  1.6703   4
   5  -2 -11 22.1558  2.2676   2
  -5  -2  11 21.7746  3.5540   1
  -5  -2  11 21.5564  2.1312   4
   5  -2 -11 21.9235  2.5453   6
   5   2 -11 24.7956  2.1817   2
   5   2 -11 22.3190  2.6919   6
  -5   2  11 23.7134  2.2470   4
  -5   2  11 23.3491  2.3027   6
   4  -2 -11 40.5316  3.1180   2
  -4  -2  11 40.2882  2.9973   4
   4  -2 -11 41.4561  3.5123   6
  -4  -2  11 39.0554  4.7757   1
   4   2 -11 39.1295  2.9898   2
   4   2 -11 41.7858  3.4959   6
  -4   2  11 44.2234  3.3288   6
  -4   2  11 39.5303  3.0683   4
   3  -2 -11 338.519  20.502   5
   3  -2 -11 336.592  22.505   6
  -3  -2  11 316.320  20.462   4
   3  -2 -11 355.679  20.712   2
  -3  -2  11 306.424  26.967   1
  -3   2  11 325.104  20.575   4
   3   2 -11 327.983  20.575   2
  -3   2  11 322.616  22.347   6
  -2  -2  11 10.8491  2.9642   1
   2  -2 -11 14.3458  1.6570   6
   2  -2 -11 16.0263  1.4903   5
  -2  -2  11 13.5636  1.2625   4
   2  -2 -11 12.0163  1.4288   2
   2   2 -11 13.5124  1.3018   2
  -2   2  11 11.8987  1.3887   4
  -2   2  11 12.4366  1.5235   6
  -1  -2  11 245.635  14.618   4
   1  -2 -11 226.884  14.796   2
   1  -2 -11 212.573  16.058   6
   1  -2 -11 247.574  14.815   5
  -1  -2  11 246.213  19.942   1
  -1   2  11 233.796  16.025   6
   1   2 -11 230.248  14.671   2
  -1   2  11 237.747  14.751   4
   0  -2  11 32.4265  2.3258   4
   0  -2 -11 32.7482  2.7127   6
   0  -2  11 30.6002  4.7946   1
   0  -2 -11 33.8490  2.5078   2
   0   2  11 34.6966  2.5010   4
   0   2  11 32.9224  2.7235   6
   0   2 -11 33.1536  2.3325   2
  -1  -2 -11 74.9992  5.4109   6
   1  -2  11 75.0150  8.0018   1
  -1  -2 -11 71.1601  4.9892   2
   1  -2  11 72.8249  4.8024   4
   1   2  11 74.2170  4.9694   4
   1   2  11 76.5193  5.4331   6
  -1   2 -11 76.1531  4.8558   2
   2  -2  11 312.072  19.463   4
  -2  -2 -11 326.643  19.707   2
  -2  -2 -11 300.596  21.333   6
   2  -2  11 289.023  26.425   1
   2   2  11 329.882  19.617   4
  -2   2 -11 308.507  19.578   2
   2   2  11 319.508  21.378   6
  -3  -2 -11 54.8558  4.0042   2
  -3  -2 -11 53.5376  4.3000   6
   3  -2  11 57.3946  3.8583   4
   3  -2  11 50.0628  6.8312   1
   3   2  11 57.9874  3.9932   4
   3   2  11 56.7353  4.4413   6
  -3   2 -11 59.5246  3.9274   2
  -4  -2 -11 2.70799 1.11102   2
   4  -2  11 1.35232 0.91454   4
  -4  -2 -11 2.12409 1.08491   6
   4  -2  11 3.57185 3.33446   1
  -4   2 -11 1.96727 1.03844   2
   4   2  11 2.31276 0.98219   4
   4   2  11 -0.0979  1.2892   6
  -5  -2 -11 4.57769 1.31804   2
  -5  -2 -11 7.26156 1.45156   6
   5  -2  11 2.80880 1.24411   4
   5  -2  11 10.5117  3.5995   1
  -5   2 -11 10.4996  1.6756   2
   5   2  11 7.02995 2.00732   6
   5   2  11 4.17109 1.31023   4
  -6  -2 -11 515.784  36.066   6
  -6  -2 -11 496.792  33.376   2
   6  -2  11 534.673  33.222   4
   6  -2  11 521.519  33.238   4
   6   2  11 568.128  33.239   4
  -6   2 -11 542.088  36.090   6
   6   2  11 526.318  36.455   6
  -6   2 -11 532.623  33.520   2
   7  -2  11 41.9552  4.0602   4
  -7  -2 -11 46.0103  4.0930   6
   7  -2  11 41.7364  3.9843   4
  -7  -2 -11 49.5317  4.0736   2
  -7   2 -11 44.3883  4.2564   2
  -7   2 -11 44.3372  4.3378   6
   7   2  11 43.6939  3.9028   4
   7   2  11 40.1429  4.8811   6
  -8  -2 -11 22.8462  3.2245   6
   8  -2  11 18.1591  3.1142   4
   8  -2  11 20.7224  3.1143   4
  -8  -2 -11 21.7864  3.1399   2
  -8   2 -11 27.4044  3.7494   6
   8   2  11 25.6294  3.8200   6
  -8   2 -11 20.7193  3.3416   2
   9  -2  11 20.8405  3.2735   4
  -9  -2 -11 23.7712  3.6285   6
  -9  -2 -11 22.8471  3.6283   2
   9  -2  11 21.2946  3.4549   4
  -9   2 -11 17.6245  3.5054   2
  -9   2 -11 23.7328  4.0004   6
  10  -2  11 355.130  21.347   4
  10  -2  11 348.432  21.305   4
 -10  -2 -11 273.104  22.978   6
 -10   2 -11 353.829  21.472   2
 -10   2 -11 280.032  23.061   6
 -11  -2 -11 107.424  10.647   6
 -11   2 -11 146.966   9.968   2
 -11   2 -11 139.110  10.714   6
 -12  -2 -11 24.5942  4.1230   2
  11  -3 -11 58.6162  6.3815   6
 -11   3  11 49.2304  5.8680   6
  11   3 -11 68.7645  6.2554   6
  11   3 -11 63.6180  5.6875   2
 -10  -3  11 164.611  11.117   4
  10  -3 -11 156.684  11.294   2
  10  -3 -11 147.635  12.356   6
  10   3 -11 161.229  11.493   2
   9  -3 -11 54.3531  4.6471   2
  -9  -3  11 47.0057  4.7536   4
   9  -3 -11 45.8394  5.1032   6
  -9   3  11 46.7424  4.7243   6
   9   3 -11 54.6576  5.7086   6
   9   3 -11 45.9321  5.0472   2
   8  -3 -11 5.49617 2.30794   6
   8  -3 -11 5.02655 1.76899   2
  -8  -3  11 -0.2193  2.1072   4
   8   3 -11 5.80298 2.83100   6
   8   3 -11 7.64887 2.46138   2
  -8   3  11 6.30265 1.87391   6
  -7  -3  11 74.6642  7.4446   1
   7  -3 -11 63.1115  5.8106   6
  -7  -3  11 72.4949  5.6793   4
   7  -3 -11 76.9578  5.4442   2
  -7   3  11 68.6939  5.7115   6
   7   3 -11 75.9421  5.6972   2
  -6  -3  11 178.840  14.685   1
  -6  -3  11 170.087  11.144   4
   6  -3 -11 169.093  11.050   2
   6  -3 -11 165.745  12.039   6
  -6   3  11 166.549  11.882   6
   6   3 -11 159.377  11.110   2
   5  -3 -11 229.426  14.694   2
  -5  -3  11 217.713  14.603   4
   5  -3 -11 231.804  16.025   6
  -5  -3  11 225.232  19.303   1
  -5   3  11 218.350  15.826   6
  -5   3  11 243.606  14.659   4
   5   3 -11 237.555  14.684   2
   4  -3 -11 193.089  14.341   6
   4  -3 -11 205.112  13.203   2
  -4  -3  11 205.344  13.046   4
  -4  -3  11 212.712  17.603   1
  -4   3  11 213.910  13.150   4
  -4   3  11 202.835  14.230   6
   4   3 -11 209.050  13.087   2
  -3  -3  11 202.574  12.637   4
  -3  -3  11 211.440  17.326   1
   3  -3 -11 198.250  12.731   5
   3  -3 -11 217.438  14.012   6
   3  -3 -11 179.635  12.826   2
   3   3 -11 205.682  12.708   2
  -3   3  11 196.046  12.779   4
  -3   3  11 201.567  13.874   6
   2  -3 -11 420.875  24.591   5
  -2  -3  11 386.193  24.416   4
   2  -3 -11 392.545  24.719   2
  -2  -3  11 420.121  32.508   1
   2  -3 -11 411.529  26.828   6
  -2   3  11 397.167  26.756   6
  -2   3  11 365.394  24.578   4
   2   3 -11 370.716  24.520   2
  -1  -3  11 230.561  20.064   1
   1  -3 -11 232.812  16.136   6
   1  -3 -11 242.883  14.870   5
  -1  -3  11 231.140  14.580   4
   1  -3 -11 219.936  14.856   2
  -1   3  11 234.032  16.102   6
   1   3 -11 242.773  14.657   2
  -1   3  11 242.269  14.803   4
   0  -3  11 904.694  69.065   1
   0  -3 -11 880.589  53.021   5
   0  -3 -11 914.862  57.743   6
   0  -3 -11 818.919  53.245   2
   0  -3  11 864.877  52.793   4
   0   3  11 816.300  52.992   4
   0   3  11 871.445  57.699   6
   0   3 -11 804.503  53.039   2
  -1  -3 -11 395.570  26.547   6
   1  -3  11 389.767  32.611   1
  -1  -3 -11 391.322  24.527   2
   1  -3  11 387.168  24.159   4
   1   3  11 381.273  26.533   6
   1   3  11 395.109  24.398   4
  -1   3 -11 397.466  24.295   2
  -2  -3 -11 752.772  47.047   2
   2  -3  11 665.884  61.157   1
  -2  -3 -11 779.139  51.006   6
   2  -3  11 745.197  46.619   4
   2   3  11 760.148  50.990   6
   2   3  11 792.509  46.853   4
  -2   3 -11 789.183  46.887   2
   3  -3  11 28.2070  5.7238   1
  -3  -3 -11 36.5990  3.0327   2
   3  -3  11 40.4752  2.8192   4
  -3  -3 -11 41.2291  3.3685   6
   3   3  11 39.8430  3.0269   4
  -3   3 -11 42.8725  2.9168   2
   3   3  11 38.0803  3.3717   6
   4  -3  11 686.899  55.048   1
   4  -3  11 690.913  41.817   4
  -4  -3 -11 645.911  42.132   2
  -4  -3 -11 682.153  45.636   6
   4   3  11 692.501  41.956   4
   4   3  11 671.940  45.704   6
  -4   3 -11 660.480  42.064   2
  -5  -3 -11 314.385  21.529   6
   5  -3  11 316.426  19.746   4
  -5  -3 -11 299.384  19.875   2
   5  -3  11 296.415  19.704   4
   5   3  11 318.972  21.705   6
   5   3  11 306.970  19.792   4
  -5   3 -11 337.113  19.969   2
   6  -3  11 653.973  39.378   4
  -6  -3 -11 622.910  39.546   2
  -6  -3 -11 600.234  42.760   6
   6  -3  11 617.919  39.368   4
  -6   3 -11 640.860  39.679   2
   6   3  11 634.125  43.050   6
   6   3  11 638.455  39.343   4
   7  -3  11 1.42007 1.85963   4
  -7  -3 -11 5.38984 1.79423   6
   7  -3  11 1.75481 1.78209   4
  -7  -3 -11 0.34335 1.69935   2
   7   3  11 0.82867 2.12434   6
  -7   3 -11 5.60422 2.11520   2
  -8  -3 -11 96.9101  6.9787   2
  -8  -3 -11 80.8691  7.0994   6
   8  -3  11 89.7053  6.8978   4
   8   3  11 105.364   7.904   6
  -8   3 -11 72.7500  6.8454   2
   9  -3  11 144.673   9.578   4
  -9  -3 -11 118.613  10.157   6
   9   3  11 128.902  10.418   6
  -9   3 -11 122.525   9.537   2
 -10  -3 -11 286.333  23.683   6
 -10   3 -11 376.135  21.986   2
 -11  -3 -11 4.11311 3.10515   6
 -11   3 -11 12.3367  2.9651   2
  11   4 -11 165.208  11.699   2
  10  -4 -11 247.852  18.434   6
  10   4 -11 251.870  16.796   2
   9  -4 -11 4.27106 2.35358   6
  -9  -4  11 6.57300 2.11174   4
   9   4 -11 4.89208 2.47371   2
  -9   4  11 5.99278 2.28622   6
   8  -4 -11 79.4047  5.7321   2
  -8  -4  11 69.8882  5.9043   4
   8  -4 -11 67.6287  6.1849   6
   8   4 -11 72.5248  6.1528   2
  -8   4  11 72.8827  6.0543   6
   7  -4 -11 124.874   8.888   6
  -7  -4  11 116.168  11.003   1
   7  -4 -11 127.242   8.113   2
  -7  -4  11 102.327   8.256   4
  -7   4  11 104.292   8.600   6
   7   4 -11 121.096   8.562   2
   6  -4 -11 446.593  30.374   6
  -6  -4  11 385.524  27.948   4
  -6  -4  11 472.553  36.241   1
   6  -4 -11 484.984  28.000   2
   6   4 -11 437.108  28.142   2
  -6   4  11 430.011  30.193   6
   5  -4 -11 158.629  10.181   2
  -5  -4  11 143.003  13.703   1
   5  -4 -11 156.411  11.056   6
  -5  -4  11 153.633  10.211   4
   5   4 -11 153.945  10.200   2
  -5   4  11 156.233  10.940   6
  -4  -4  11 82.5611  8.3597   1
  -4  -4  11 81.0976  5.7269   4
   4  -4 -11 85.3289  6.3305   6
   4  -4 -11 89.6730  5.8851   2
   4   4 -11 86.5506  5.7207   2
  -4   4  11 79.3577  6.2323   6
   3  -4 -11 107.574   6.964   2
   3  -4 -11 103.662   7.519   6
   3  -4 -11 104.569   6.854   5
  -3  -4  11 97.2582  9.8406   1
  -3  -4  11 98.6485  6.6962   4
   3   4 -11 102.845   6.714   2
  -3   4  11 108.283   6.896   4
  -3   4  11 102.271   7.449   6
   2  -4 -11 515.271  31.289   5
  -2  -4  11 493.526  31.066   4
  -2  -4  11 458.327  40.997   1
   2  -4 -11 488.756  31.435   2
   2  -4 -11 511.102  34.115   6
  -2   4  11 508.685  34.056   6
  -2   4  11 534.842  31.336   4
   2   4 -11 508.558  31.225   2
  -1  -4  11 330.861  20.388   4
   1  -4 -11 314.046  20.755   2
   1  -4 -11 348.597  20.733   5
   1  -4 -11 306.805  22.476   6
  -1  -4  11 319.667  27.727   1
  -1   4  11 351.747  20.692   4
   1   4 -11 338.615  20.501   2
  -1   4  11 326.073  22.502   6
   0  -4 -11 117.300   7.286   2
   0  -4 -11 114.575   7.382   5
   0  -4  11 106.729  10.948   1
   0  -4 -11 106.939   7.864   6
   0  -4  11 108.821   6.906   4
   0   4  11 110.611   7.240   4
   0   4  11 110.191   7.858   6
   0   4 -11 105.862   6.943   2
  -1  -4 -11 370.685  23.024   2
   1  -4  11 354.285  22.610   4
  -1  -4 -11 360.466  24.964   6
   1  -4  11 366.380  31.055   1
  -1  -4 -11 353.475  23.029   5
  -1   4 -11 370.649  22.739   2
   1   4  11 389.681  22.954   4
   1   4  11 366.567  24.935   6
  -2  -4 -11 360.459  23.304   5
   2  -4  11 377.253  22.829   4
   2  -4  11 330.144  31.164   1
  -2  -4 -11 376.025  23.248   2
  -2  -4 -11 383.841  25.182   6
   2   4  11 374.742  23.129   4
   2   4  11 369.009  25.163   6
  -2   4 -11 369.536  22.967   2
  -3  -4 -11 195.578  12.807   6
  -3  -4 -11 188.637  11.793   2
   3  -4  11 155.416  16.657   1
   3  -4  11 182.520  11.480   4
  -3   4 -11 178.789  11.578   2
   3   4  11 193.474  11.771   4
   3   4  11 173.070  12.763   6
   4  -4  11 34.2331  2.6950   4
  -4  -4 -11 33.6873  3.1169   6
  -4  -4 -11 33.5473  2.9485   2
   4  -4  11 34.8553  2.6817   4
   4  -4  11 46.2544  6.5055   1
   4   4  11 34.0012  3.2295   6
  -4   4 -11 34.3000  2.8149   2
   5  -4  11 841.407  52.396   4
  -5  -4 -11 882.527  52.772   2
  -5  -4 -11 779.095  57.089   6
   5  -4  11 829.969  52.367   4
  -5   4 -11 825.883  52.745   2
   5   4  11 917.015  57.251   6
   6  -4  11 222.688  14.600   4
  -6  -4 -11 225.560  15.853   6
  -6  -4 -11 227.819  14.684   2
   6   4  11 240.002  16.070   6
  -6   4 -11 206.592  14.738   2
  -7  -4 -11 54.3633  4.6073   2
  -7  -4 -11 58.4728  4.7990   6
   7  -4  11 52.1540  4.6372   4
  -7   4 -11 44.2674  4.6922   2
   7   4  11 53.0097  5.1950   6
  -8  -4 -11 19.3950  3.0462   2
  -8  -4 -11 19.7446  3.0092   6
   8  -4  11 18.4979  3.0063   4
  -8   4 -11 14.0790  3.0200   2
   8   4  11 20.6105  3.5528   6
  -9  -4 -11 840.837  62.906   6
   9  -4  11 1007.03   57.91   4
  -9   4 -11 960.612  58.106   2
   9   4  11 880.106  63.100   6
 -10  -4 -11 127.279  11.537   6
 -10   4 -11 165.016  10.573   2
  10   4  11 140.127  11.597   6
 -11   4 -11 35.6466  4.1820   2
  11   4  11 36.8451  4.9601   6
  10  -5 -11 48.0131  5.6348   6
  10   5 -11 49.4713  4.5796   2
   9  -5 -11 258.874  19.792   6
   9   5 -11 289.602  18.202   2
   8  -5 -11 266.593  21.187   6
  -8  -5  11 337.037  19.534   4
   8   5 -11 318.410  19.823   2
  -8   5  11 282.879  21.118   6
  -7  -5  11 0.87606 3.09368   1
  -7  -5  11 1.71404 1.82111   4
   7  -5 -11 0.86193 1.70326   6
   7   5 -11 4.43528 2.23404   2
  -7   5  11 2.68509 1.74470   6
  -6  -5  11 49.0929  6.2451   1
  -6  -5  11 47.9331  4.2401   4
   6  -5 -11 48.2990  3.9104   2
   6  -5 -11 44.2017  4.0818   6
  -6   5  11 43.9875  4.0353   6
   6   5 -11 41.6241  4.3542   2
  -5  -5  11 314.765  20.819   4
   5  -5 -11 331.464  22.394   6
  -5  -5  11 319.578  27.093   1
   5  -5 -11 342.346  20.682   2
   5   5 -11 335.777  20.856   2
  -5   5  11 301.554  22.251   6
   4  -5 -11 408.401  25.226   5
  -4  -5  11 393.776  25.452   4
   4  -5 -11 432.039  25.510   2
   4  -5 -11 408.182  27.584   6
  -4  -5  11 380.316  33.276   1
   4   5 -11 416.798  25.463   2
  -4   5  11 381.928  27.500   6
  -3  -5  11 1.31160 1.17071   4
   3  -5 -11 0.77831 1.12421   5
  -3  -5  11 5.55889 3.07860   1
   3  -5 -11 3.98152 1.17517   2
   3  -5 -11 2.43474 1.21634   6
  -3   5  11 3.69328 1.18954   6
   3   5 -11 1.30000 1.01262   2
  -2  -5  11 0.88799 0.79367   4
  -2  -5  11 1.46361 2.83412   1
   2  -5 -11 0.29090 1.07632   2
   2  -5 -11 0.90028 1.08159   5
   2  -5 -11 2.07977 1.13008   6
   2   5 -11 1.77391 0.73978   2
  -2   5  11 1.58703 1.10025   6
   1  -5 -11 363.007  25.392   6
   1  -5 -11 374.888  23.394   5
  -1  -5  11 370.762  22.983   4
  -1  -5  11 387.641  31.347   1
   1  -5 -11 390.441  23.477   2
  -1   5  11 354.631  25.383   6
   1   5 -11 370.950  23.105   2
   0  -5  11 315.985  26.393   1
   0  -5  11 289.791  18.809   4
   0  -5 -11 310.579  19.316   5
   0  -5 -11 302.241  20.894   6
   0  -5 -11 306.596  19.296   2
   0   5  11 308.739  20.897   6
   0   5 -11 308.398  18.917   2
  -1  -5 -11 10.5030  1.7372   5
   1  -5  11 10.3177  0.9047   4
  -1  -5 -11 9.94400 1.59587   6
  -1  -5 -11 12.3490  1.5864   2
   1  -5  11 19.5856  4.9705   1
   1   5  11 11.6937  1.6485   6
  -1   5 -11 10.5200  0.9819   2
  -2  -5 -11 55.4318  4.2544   6
   2  -5  11 51.5310  7.7737   1
  -2  -5 -11 53.0740  3.9715   2
  -2  -5 -11 49.9390  4.1829   5
   2  -5  11 50.5970  3.4291   4
   2   5  11 52.7766  4.2124   6
  -2   5 -11 54.9811  3.5140   2
   3  -5  11 378.590  22.876   4
  -3  -5 -11 390.751  23.349   2
   3  -5  11 338.561  31.487   1
  -3  -5 -11 343.990  23.399   5
  -3  -5 -11 377.164  25.264   6
   3   5  11 377.934  25.272   6
  -3   5 -11 365.528  23.044   2
   4  -5  11 226.738  14.045   4
  -4  -5 -11 223.736  15.562   6
  -4  -5 -11 233.991  14.357   2
   4  -5  11 227.746  14.036   4
  -4  -5 -11 202.752  14.592   5
   4   5  11 228.836  15.607   6
  -4   5 -11 212.165  14.183   2
   5  -5  11 51.4588  4.1380   4
  -5  -5 -11 57.0920  4.6784   6
  -5  -5 -11 53.7495  4.8684   5
  -5  -5 -11 54.5751  4.2481   2
  -5   5 -11 56.5327  4.3543   2
   5   5  11 58.7517  4.7007   6
   6  -5  11 36.7464  3.6754   4
  -6  -5 -11 43.6711  3.7361   2
  -6  -5 -11 41.4588  3.9273   6
   6   5  11 47.0075  4.1706   6
  -6   5 -11 37.1749  3.8641   2
  -7  -5 -11 257.044  17.109   6
   7  -5  11 233.967  15.764   4
   7   5  11 258.348  17.315   6
  -7   5 -11 208.277  15.815   2
   8  -5  11 262.560  17.119   4
  -8  -5 -11 265.938  18.613   6
  -8   5 -11 252.380  17.139   2
   8   5  11 250.302  18.649   6
  -9  -5 -11 69.3178  6.8875   6
  -9   5 -11 76.2080  6.0712   2
   9   5  11 72.9452  7.0759   6
 -10  -5 -11 6.11828 2.97833   6
 -10   5 -11 5.55370 2.52988   2
  10   5  11 1.29176 2.98753   6
   9  -6 -11 12.0975  3.1503   6
  -9   6  11 16.0931  3.0220   6
   9   6 -11 17.3296  2.7095   2
   8  -6 -11 16.1808  2.8673   6
   8   6 -11 19.5565  2.8388   2
  -8   6  11 17.8243  2.8608   6
  -7  -6  11 96.6514 10.4155   1
   7  -6 -11 82.9839  7.6074   6
  -7  -6  11 123.122   7.408   4
   7   6 -11 104.720   7.351   2
  -7   6  11 92.8801  7.6490   6
  -6  -6  11 5.43394 1.90017   4
  -6  -6  11 6.11980 3.49148   1
   6  -6 -11 0.65888 1.63941   6
  -6   6  11 1.66244 1.52292   6
   6   6 -11 0.40494 2.00567   2
  -5  -6  11 13.1743  2.3523   4
  -5  -6  11 12.6524  3.8000   1
   5  -6 -11 7.12962 1.85633   6
  -5   6  11 9.75056 1.80822   6
   5   6 -11 11.4444  2.3903   2
  -4  -6  11 135.184   8.084   4
  -4  -6  11 116.558  11.353   1
   4  -6 -11 120.566   7.687   5
   4  -6 -11 106.026   8.289   6
  -4   6  11 110.686   8.275   6
   4   6 -11 96.3549  7.9257   2
  -3  -6  11 50.8325  6.5500   1
  -3  -6  11 58.1166  4.2320   4
   3  -6 -11 49.9494  3.8600   5
   3  -6 -11 50.1283  4.0779   6
  -3   6  11 44.7715  4.0046   6
   3   6 -11 45.6379  3.9940   2
  -2  -6  11 49.9925  4.0550   4
   2  -6 -11 53.8331  3.9061   5
  -2  -6  11 55.6048  6.9252   1
   2  -6 -11 47.7337  3.8246   2
   2  -6 -11 47.4986  4.1010   6
  -2   6  11 52.3584  4.1799   6
  -1  -6  11 109.146  11.067   1
  -1  -6  11 98.8581  6.7827   4
   1  -6 -11 109.279   7.014   2
   1  -6 -11 103.501   7.049   5
   1  -6 -11 102.123   7.525   6
  -1   6  11 100.703   7.573   6
   0  -6 -11 83.2783  6.3999   6
   0  -6 -11 79.8676  6.0285   5
   0  -6  11 92.0693 10.1441   1
   0  -6 -11 93.9743  6.0012   2
   0   6  11 83.5702  6.3750   6
  -1  -6 -11 25.1803  2.3310   6
   1  -6  11 19.0639  5.4798   1
  -1  -6 -11 20.8371  2.1246   2
  -1  -6 -11 17.6048  2.3624   5
   1   6  11 18.8144  2.2424   6
  -2  -6 -11 187.933  12.958   5
   2  -6  11 184.607  18.704   1
   2  -6  11 207.989  12.260   4
  -2  -6 -11 189.404  13.871   6
  -2  -6 -11 219.395  12.870   2
   2   6  11 188.593  13.858   6
   3  -6  11 78.6580  4.9619   4
  -3  -6 -11 76.0153  5.8910   6
  -3  -6 -11 78.8376  5.7927   5
   3  -6  11 82.6655  9.8987   1
   3   6  11 71.4229  5.9118   6
  -4  -6 -11 8.25571 1.80759   6
   4  -6  11 13.9616  5.1987   1
   4  -6  11 8.38775 1.25739   4
  -4  -6 -11 7.93193 2.09902   5
  -4   6 -11 9.95332 1.52836   2
   4   6  11 10.0470  1.8742   6
   5  -6  11 27.3786  2.5304   4
  -5  -6 -11 23.0868  2.7902   6
  -5   6 -11 22.5652  2.6758   2
   5   6  11 25.2527  2.9898   6
  -6  -6 -11 238.313  16.299   6
   6  -6  11 236.347  14.895   4
  -6   6 -11 193.731  14.915   2
   6   6  11 246.229  16.326   6
   7  -6  11 1.53072 1.98118   4
  -7  -6 -11 3.78540 2.04240   6
  -7   6 -11 -0.1285  1.9743   2
   7   6  11 5.70180 2.35752   6
  -8  -6 -11 2.26239 2.33343   6
  -8   6 -11 1.64082 2.19136   2
   8   6  11 0.29023 2.41805   6
  -9  -6 -11 46.8748  5.5929   6
  -9   6 -11 52.8167  4.7627   2
   9   6  11 45.7040  5.6550   6
   9  -7 -11 243.963  17.780   6
   9   7 -11 241.539  15.978   2
  -8  -7  11 170.440  15.206   1
   8  -7 -11 141.775  11.410   6
   8   7 -11 161.632  10.474   2
  -8   7  11 140.875  11.292   6
   7  -7 -11 75.9726  6.4969   6
  -7  -7  11 88.5830  9.6412   1
   7   7 -11 78.7148  6.0377   2
  -7   7  11 77.8707  6.4592   6
  -6  -7  11 73.6634  5.2036   4
  -6  -7  11 61.2482  7.7716   1
   6  -7 -11 55.1076  5.1729   6
   6   7 -11 59.6508  4.9267   2
  -6   7  11 57.9299  5.0896   6
  -5  -7  11 157.063  11.176   4
  -5  -7  11 168.694  15.707   1
   5  -7 -11 171.673  12.041   6
   5   7 -11 174.772  11.202   2
  -5   7  11 165.099  11.999   6
   4  -7 -11 60.3788  5.0276   6
   4  -7 -11 74.2183  4.8619   5
  -4  -7  11 69.7497  8.0315   1
  -4  -7  11 55.1269  4.6628   4
  -4   7  11 60.0574  5.0102   6
  -3  -7  11 44.9572  6.8779   1
   3  -7 -11 41.4108  3.8001   6
  -3  -7  11 42.7319  3.3009   4
   3  -7 -11 51.1591  3.7104   5
  -3   7  11 44.4004  3.8466   6
  -2  -7  11 34.7911  2.5188   4
  -2  -7  11 40.0685  6.7041   1
   2  -7 -11 42.4615  3.3651   5
   2  -7 -11 36.1039  3.3256   6
  -2   7  11 39.4556  3.4758   6
   1  -7 -11 155.025  10.107   5
   1  -7 -11 156.216  10.864   6
  -1  -7  11 145.539  15.096   1
  -1   7  11 146.614  10.841   6
   0  -7 -11 17.7359  2.2728   5
   0  -7  11 20.7964  6.0579   1
   0  -7 -11 15.5866  2.1231   6
   0   7  11 18.4011  2.2518   6
  -1  -7 -11 0.78831 1.30342   6
  -1  -7 -11 3.32044 1.59018   5
   1  -7  11 -0.1634  4.8543   1
   1   7  11 1.28905 1.31676   6
  -2  -7 -11 20.8176  2.5711   6
   2  -7  11 27.6883  6.7153   1
  -2  -7 -11 25.9077  2.8367   5
   2   7  11 22.6244  2.5220   6
  -3  -7 -11 196.842  14.206   6
   3  -7  11 251.336  20.216   1
   3  -7  11 200.337  12.501   4
   3   7  11 187.492  14.175   6
  -4  -7 -11 42.3390  3.8602   6
   4  -7  11 64.8864  8.6777   1
   4  -7  11 38.4932  2.9516   4
   4   7  11 41.4523  3.8914   6
   5  -7  11 22.9238  2.2645   4
  -5  -7 -11 17.4932  2.7324   6
  -5   7 -11 20.5659  2.4849   2
   5   7  11 22.3937  2.7853   6
  -6  -7 -11 24.6063  3.0566   6
   6  -7  11 15.7519  2.4737   4
   6   7  11 18.9052  2.8615   6
  -6   7 -11 18.8539  2.7060   2
  -7  -7 -11 261.452  18.066   6
  -7   7 -11 231.968  16.392   2
   7   7  11 258.144  18.007   6
  -8  -7 -11 149.558  12.112   6
  -8   7 -11 167.021  11.022   2
   8   7  11 155.864  12.196   6
  -9   7 -11 11.7770  2.6469   2
   8  -8 -11 57.8092  5.5126   6
  -8  -8  11 57.9077  8.7743   1
   8   8 -11 58.0116  4.8427   2
   7  -8 -11 12.5032  2.6516   6
  -7  -8  11 14.2481  5.1364   1
  -7   8  11 11.0905  2.4885   6
   7   8 -11 9.87580 2.21118   2
  -6  -8  11 146.742  13.672   1
   6  -8 -11 152.414   9.659   6
  -6   8  11 122.224   9.390   6
   6   8 -11 101.221   8.470   2
  -5  -8  11 146.126  13.532   1
  -5  -8  11 113.754   8.368   4
   5  -8 -11 129.048   9.387   6
  -5   8  11 127.018   9.313   6
   4  -8 -11 84.4710  6.6052   6
  -4  -8  11 85.2473  5.7031   4
  -4  -8  11 88.2802 10.1532   1
  -4   8  11 86.6528  6.6213   6
  -3  -8  11 4.26726 4.33944   1
  -3  -8  11 1.38966 0.68312   4
   3  -8 -11 2.32900 1.44423   6
  -3   8  11 0.72293 1.43798   6
  -2  -8  11 74.1578  9.7387   1
   2  -8 -11 72.4031  5.8761   6
  -2   8  11 77.6640  5.9641   6
  -1  -8  11 306.895  26.458   1
   1  -8 -11 272.097  19.753   6
  -1   8  11 289.315  19.863   6
   0  -8 -11 66.9986  5.4545   6
   0  -8  11 71.1144 10.5536   1
   0   8  11 69.7717  5.4504   6
  -1  -8 -11 78.2009  6.0165   6
   1  -8  11 89.5453 11.3037   1
   1   8  11 73.0190  5.9513   6
   2  -8  11 11.0167  6.3359   1
  -2  -8 -11 8.91716 1.83936   6
   2   8  11 5.39577 1.64221   6
  -3  -8 -11 133.153   9.466   6
   3   8  11 121.841   9.336   6
  -4  -8 -11 39.4956  3.7615   6
   4  -8  11 34.2972  2.5761   4
   4   8  11 37.1995  3.6242   6
  -5  -8 -11 142.259  10.332   6
   5  -8  11 132.386   8.939   4
   5   8  11 140.388  10.258   6
  -6  -8 -11 103.679   8.089   6
   6   8  11 96.4564  7.9205   6
  -7  -8 -11 4.25577 2.64690   6
  -7   8 -11 3.60831 2.09470   2
   7   8  11 4.74292 2.38046   6
  -8  -8 -11 16.7504  3.7697   6
  -8   8 -11 21.6361  3.0293   2
   7   9 -11 2.11383 1.47753   2
   6  -9 -11 176.458  12.677   6
  -6  -9  11 178.603  17.418   1
  -6   9  11 164.680  12.546   6
   5  -9 -11 115.506   8.804   6
  -5  -9  11 127.243  13.129   1
  -5   9  11 111.980   8.758   6
  -4  -9  11 1.74604 4.46925   1
   4  -9 -11 3.62949 1.76446   6
  -4   9  11 6.18974 1.88268   6
  -3  -9  11 19.3704  6.1724   1
   3  -9 -11 17.8336  2.4679   6
  -3   9  11 18.1598  2.5405   6
   2  -9 -11 45.2075  4.1032   6
  -2  -9  11 48.9158  9.0810   1
  -2   9  11 46.1614  4.2742   6
   1  -9 -11 170.265  12.322   6
  -1  -9  11 183.281  18.454   1
  -1   9  11 169.754  12.375   6
   0  -9  11 51.4636  9.7588   1
   0  -9 -11 32.6274  3.5454   6
   0   9  11 41.2610  3.4408   2
   0   9  11 38.4202  3.6963   6
  -1  -9 -11 8.85362 1.87344   6
   1  -9  11 12.6019  7.0948   1
   1   9  11 7.08527 1.81984   6
   2  -9  11 5.94736 6.80931   1
  -2  -9 -11 4.95698 1.76298   6
   2   9  11 5.30440 1.82214   6
  -3  -9 -11 118.959   9.069   6
   3   9  11 120.565   9.012   6
  -4  -9 -11 99.7927  7.6029   6
   4   9  11 90.8722  7.4482   6
  -5  -9 -11 0.74772 2.08082   6
   5   9  11 0.50071 1.90225   6
  -6  -9 -11 21.1052  3.3670   6
   6   9  11 15.3882  2.7725   6
  -4 -10  11 7.92597 5.72739   1
  -3 -10  11 217.898  20.785   1
  -3  10  11 190.155  14.154   6
  -2 -10  11 24.3696  8.0628   1
  -2  10  11 23.9934  3.0131   6
  -1 -10  11 7.15025 7.01045   1
  -1  10  11 6.53008 1.88467   6
  -1  10  11 6.15260 1.81739   2
   0 -10  11 3.46375 7.10527   1
   0  10  11 3.78051 1.73080   6
   1 -10  11 129.126  16.596   1
   1  10  11 127.749   9.519   6
   2 -10  11 86.7525 13.2957   1
   2  10  11 63.9012  5.5944   6
   3  10  11 1.07799 1.74948   6
  11   0 -12 44.8881  5.6346   6
  11   0 -12 33.7416  4.7071   2
  10   0 -12 26.7534  4.6576   6
  10   0 -12 30.2382  4.0976   2
   9   0 -12 47.6148  4.7796   2
   9   0 -12 46.0198  5.4851   6
  -9   0  12 58.3685  4.8487   4
   8   0 -12 1.61616 2.22853   6
   8   0 -12 2.87712 1.86944   2
  -8   0  12 2.60674 1.78902   4
   7   0 -12 345.298  25.157   6
   7   0 -12 367.231  22.977   2
  -7   0  12 367.517  22.895   4
   6   0 -12 38.8000  3.8536   6
  -6   0  12 41.5229  3.4397   4
   6   0 -12 37.8542  3.3715   2
  -6   0  12 51.1709  4.9843   1
   5   0 -12 219.733  15.158   2
  -5   0  12 247.416  19.843   1
   5   0 -12 243.221  16.601   6
  -5   0  12 244.475  15.123   4
   4   0 -12 214.930  15.344   6
  -4   0  12 216.234  18.510   1
  -4   0  12 228.344  14.027   4
   4   0 -12 224.113  14.086   2
   3   0 -12 902.710  57.997   6
  -3   0  12 854.434  53.192   4
  -3   0  12 892.243  68.753   1
   3   0 -12 801.208  53.438   2
  -2   0  12 103.079   7.204   4
   2   0 -12 106.957   7.251   2
   2   0 -12 126.677   7.987   6
   1   0 -12 393.919  25.518   2
   1   0 -12 444.591  27.738   6
  -1   0  12 390.636  25.406   4
   0   0 -12 1683.47  110.62   6
   0   0  12 1720.82  101.60   4
   0   0 -12 1552.70  102.08   2
  -1   0 -12 563.739  36.182   2
   1   0  12 581.925  36.027   4
  -1   0 -12 602.113  39.238   6
   2   0  12 187.794  11.527   4
  -2   0 -12 178.445  12.546   6
  -2   0 -12 179.658  11.588   2
  -3   0 -12 270.061  17.519   2
   3   0  12 273.350  17.429   4
  -3   0 -12 289.778  18.986   6
   4   0  12 2425.32  146.46   4
  -4   0 -12 2514.91  159.44   6
  -4   0 -12 2205.20  147.18   2
  -5   0 -12 148.180  10.627   6
  -5   0 -12 151.122   9.895   2
   5   0  12 150.589   9.793   4
  -6   0 -12 78.9706  5.9195   2
  -6   0 -12 78.7379  6.2063   6
   6   0  12 85.3272  5.8479   4
  -7   0 -12 89.1771  7.3289   6
  -7   0 -12 100.362   7.142   2
   7   0  12 96.4788  6.9377   4
  -8   0 -12 1357.94   90.67   6
  -8   0 -12 1297.06   83.85   2
   8   0  12 1369.22   83.45   4
  -9   0 -12 19.1994  3.6904   2
   9   0  12 25.1031  3.6911   4
  -9   0 -12 29.0728  4.0222   6
 -10   0 -12 4.88144 3.07955   6
 -10   0 -12 -1.3714  2.7252   2
  10   0  12 0.90395 2.70903   4
 -11   0 -12 43.3927  5.2764   2
 -11   0 -12 43.0466  5.5379   6
  11  -1 -12 7.91949 3.37993   6
  11  -1 -12 9.63926 2.96061   2
  11   1 -12 2.87388 2.93440   2
  11   1 -12 10.8865  3.7580   6
  10  -1 -12 83.7541  7.0903   2
 -10  -1  12 93.0546  7.4627   4
  10  -1 -12 78.8720  7.9380   6
  10   1 -12 84.4176  7.1231   2
  10   1 -12 87.4705  8.1934   6
   9  -1 -12 22.2274  3.9999   6
  -9  -1  12 29.4588  3.7182   4
   9  -1 -12 30.4762  3.5656   2
   9   1 -12 23.3222  4.1646   6
   9   1 -12 26.6396  3.6238   2
  -8  -1  12 2.65812 1.95625   4
   8  -1 -12 3.34156 2.31713   6
   8  -1 -12 3.13246 1.92903   2
   8   1 -12 3.52070 1.96213   2
   8   1 -12 7.02741 2.81654   6
  -8   1  12 2.43875 1.72094   4
  -7  -1  12 34.8977  3.2844   4
   7  -1 -12 34.7392  3.1099   2
   7  -1 -12 32.0698  3.5921   6
   7   1 -12 36.2148  4.0753   6
  -7   1  12 32.5282  3.0774   4
   7   1 -12 31.4365  3.2099   2
  -6  -1  12 102.510   6.660   4
  -6  -1  12 109.091   9.057   1
   6  -1 -12 86.4543  7.2558   6
   6  -1 -12 94.7009  6.6264   2
  -6   1  12 93.8594  6.6174   4
   6   1 -12 89.6756  7.4610   6
   6   1 -12 97.9703  6.6148   2
  -5  -1  12 7.49428 2.40192   1
  -5  -1  12 6.79960 1.28130   4
   5  -1 -12 5.93983 1.51170   6
   5  -1 -12 6.33825 1.30604   2
   5   1 -12 6.65429 1.68508   6
  -5   1  12 8.10037 2.36055   1
   5   1 -12 4.35664 1.21321   2
  -5   1  12 5.71663 1.24095   4
  -4  -1  12 0.85277 2.04783   1
   4  -1 -12 4.81159 1.28628   6
  -4  -1  12 1.23350 0.86545   4
   4  -1 -12 1.23393 0.94975   2
  -4   1  12 2.97842 2.16876   1
  -4   1  12 2.14958 1.02774   4
   4   1 -12 0.51913 1.10530   6
   4   1 -12 2.59144 0.97573   2
  -3  -1  12 171.156  15.599   1
   3  -1 -12 191.704  12.812   6
   3  -1 -12 188.430  11.724   2
  -3  -1  12 172.046  11.583   4
   3   1 -12 179.271  11.653   2
   3   1 -12 197.800  12.738   6
  -3   1  12 179.685  11.647   4
  -2  -1  12 50.9185  3.5418   4
   2  -1 -12 53.9920  3.6861   2
   2  -1 -12 52.7247  4.0120   6
   2  -1 -12 53.2398  3.6585   5
  -2  -1  12 50.7304  5.7834   1
   2   1 -12 46.9953  3.5402   2
  -2   1  12 53.1322  3.6442   4
   2   1 -12 51.5275  3.9584   6
  -1  -1  12 24.6647  2.1457   4
  -1  -1  12 28.3969  4.4385   1
   1  -1 -12 31.5949  2.5283   6
   1  -1 -12 29.6026  2.3046   2
   1   1 -12 29.6699  2.4740   6
  -1   1  12 27.4722  2.2892   4
   1   1 -12 33.1268  2.2321   2
   0  -1 -12 4.18861 0.91757   2
   0  -1  12 3.68865 0.77994   4
   0  -1  12 1.33837 2.47629   1
   0  -1 -12 3.07274 0.97779   6
   0   1  12 2.62180 0.79645   4
   0   1 -12 3.43063 0.86280   6
   0   1 -12 2.13269 0.74613   2
  -1  -1 -12 63.2678  4.7188   6
  -1  -1 -12 62.8624  4.3732   2
   1  -1  12 63.7583  4.2469   4
  -1   1 -12 64.7949  4.2688   2
   1   1  12 64.0474  4.3489   4
  -1   1 -12 64.6906  4.6577   6
  -2  -1 -12 31.0159  2.5197   6
  -2  -1 -12 27.9052  2.3498   2
   2  -1  12 27.4026  2.2179   4
  -2   1 -12 29.4320  2.2740   2
  -2   1 -12 29.9311  2.4161   6
   2   1  12 26.6517  2.2990   4
  -3  -1 -12 7.73054 1.27533   6
   3  -1  12 7.71343 1.10591   4
  -3  -1 -12 7.25354 1.21768   2
  -3   1 -12 6.31304 1.20937   6
  -3   1 -12 7.81308 1.16326   2
   3   1  12 6.97541 1.16918   4
  -4  -1 -12 11.3434  1.6575   6
  -4  -1 -12 13.1724  1.6205   2
   4  -1  12 10.8498  1.4148   4
   4   1  12 9.66621 1.44843   4
  -4   1 -12 12.1023  1.5522   6
  -4   1 -12 11.6304  1.5473   2
   5  -1  12 19.3517  2.0957   4
  -5  -1 -12 16.0007  2.1423   2
  -5  -1 -12 21.6132  2.2492   6
  -5   1 -12 24.0383  2.3071   6
   5   1  12 17.7540  2.0026   4
  -5   1 -12 19.4537  2.1844   2
  -6  -1 -12 40.5303  3.6998   6
   6  -1  12 43.1816  3.5619   4
  -6  -1 -12 40.0712  3.6523   2
  -6   1 -12 43.2128  3.7802   6
   6   1  12 39.8000  3.4355   4
  -6   1 -12 42.4187  3.6768   2
   7  -1  12 112.822   8.029   4
  -7  -1 -12 115.744   8.131   2
  -7  -1 -12 105.564   8.488   6
  -7   1 -12 115.180   8.663   6
   7   1  12 121.667   8.073   4
  -7   1 -12 111.347   8.198   2
   8  -1  12 25.2882  3.3332   4
  -8  -1 -12 27.5777  3.5387   6
  -8  -1 -12 25.2968  3.4736   2
  -8   1 -12 29.5390  3.7144   2
  -8   1 -12 28.6457  3.7189   6
   8   1  12 22.4624  3.3220   4
  -9  -1 -12 64.2556  5.7799   6
   9  -1  12 53.5362  5.4734   4
  -9  -1 -12 53.8594  5.5310   2
  -9   1 -12 62.6034  5.9297   6
   9   1  12 64.5798  5.5864   4
  -9   1 -12 50.8498  5.6018   2
 -10  -1 -12 53.7370  5.8170   6
 -10  -1 -12 41.3438  5.4019   2
 -10   1 -12 48.5105  5.4566   2
 -10   1 -12 61.8246  5.9497   6
 -11  -1 -12 129.468  11.536   6
 -11  -1 -12 150.114  10.901   2
 -11   1 -12 163.023  10.891   2
 -11   1 -12 129.014  11.356   6
  11  -2 -12 153.352  11.571   2
  11  -2 -12 138.272  12.382   6
  11   2 -12 180.416  12.834   6
  11   2 -12 150.001  11.400   2
  10  -2 -12 47.2917  4.6168   2
  10  -2 -12 32.7646  4.9962   6
  10   2 -12 51.3722  5.7180   6
  10   2 -12 42.7369  5.1107   2
   9  -2 -12 85.5610  7.4915   6
  -9  -2  12 79.0010  6.7930   4
   9  -2 -12 83.8156  6.5472   2
   9   2 -12 84.3299  6.9662   2
   9   2 -12 85.2150  7.8056   6
   8  -2 -12 490.844  32.278   2
  -8  -2  12 514.111  32.392   4
   8  -2 -12 531.777  35.288   6
   8   2 -12 502.064  35.498   6
   8   2 -12 508.060  32.505   2
   7  -2 -12 169.404  12.786   6
   7  -2 -12 178.468  11.671   2
  -7  -2  12 184.624  11.796   4
   7   2 -12 172.040  13.070   6
   7   2 -12 179.450  11.838   2
  -7   2  12 183.164  11.702   4
  -7   2  12 166.184  12.476   6
  -6  -2  12 14.9091  2.1328   4
   6  -2 -12 21.3991  2.2274   2
   6  -2 -12 16.6923  2.4780   6
  -6  -2  12 19.6036  3.5460   1
  -6   2  12 23.2433  2.2261   4
   6   2 -12 17.4465  2.7337   6
   6   2 -12 19.3431  2.2926   2
  -6   2  12 18.4191  2.3020   6
   5  -2 -12 110.388   7.255   2
  -5  -2  12 109.950   9.889   1
   5  -2 -12 103.259   7.902   6
  -5  -2  12 102.158   7.130   4
  -5   2  12 110.087   7.759   6
   5   2 -12 105.715   7.144   2
  -5   2  12 107.790   7.191   4
  -4  -2  12 976.550  62.403   4
  -4  -2  12 1049.08   80.59   1
   4  -2 -12 931.859  68.104   6
   4  -2 -12 1053.08   62.85   2
  -4   2  12 989.714  67.975   6
   4   2 -12 1038.19   62.74   2
  -4   2  12 1047.95   62.54   4
  -3  -2  12 63.2325  4.2564   4
  -3  -2  12 60.8784  6.5958   1
   3  -2 -12 68.3702  4.8826   6
   3  -2 -12 65.5422  4.4572   2
  -3   2  12 60.5782  4.7064   6
  -3   2  12 58.4055  4.3386   4
   3   2 -12 62.6402  4.2895   2
   2  -2 -12 12.1176  1.6140   6
  -2  -2  12 11.5139  1.2615   4
   2  -2 -12 11.3174  1.4768   5
  -2  -2  12 12.5691  3.1095   1
   2  -2 -12 10.2017  1.4032   2
   2   2 -12 12.1325  1.2766   2
  -2   2  12 14.3111  1.6056   6
  -2   2  12 13.9962  1.4656   4
   1  -2 -12 25.8261  2.1556   2
   1  -2 -12 24.6939  2.3105   6
  -1  -2  12 23.7617  1.9086   4
   1  -2 -12 25.3244  2.2230   5
  -1  -2  12 23.6973  4.0421   1
  -1   2  12 26.8364  2.3392   6
   1   2 -12 23.8090  1.9148   2
  -1   2  12 27.1765  2.1138   4
   0  -2  12 861.378  67.548   1
   0  -2 -12 899.578  56.540   6
   0  -2 -12 868.268  52.159   2
   0  -2  12 797.909  51.746   4
   0   2  12 804.883  51.892   4
   0   2  12 823.105  56.483   6
   0   2 -12 832.559  52.014   2
  -1  -2 -12 4.48740 1.02399   2
   1  -2  12 5.14304 3.13713   1
   1  -2  12 4.48089 0.79633   4
  -1  -2 -12 4.40298 1.07108   6
   1   2  12 5.39107 1.05081   4
  -1   2 -12 5.39985 0.86271   2
   1   2  12 4.66174 1.16679   6
   2  -2  12 15.8420  4.4020   1
  -2  -2 -12 23.5001  2.0949   2
  -2  -2 -12 24.4375  2.2392   6
   2  -2  12 22.9108  1.8716   4
   2   2  12 23.1388  2.0199   4
   2   2  12 21.3861  2.3761   6
  -2   2 -12 24.1304  1.9038   2
  -3  -2 -12 5.86136 1.27697   6
  -3  -2 -12 7.18157 1.27967   2
   3  -2  12 6.49159 1.04755   4
   3  -2  12 6.56164 3.62550   1
  -3   2 -12 7.04014 1.13462   2
   3   2  12 7.69883 1.25790   4
   3   2  12 12.1701  1.7213   6
  -4  -2 -12 423.394  28.329   6
   4  -2  12 404.259  34.780   1
   4  -2  12 392.485  25.912   4
  -4  -2 -12 416.030  26.184   2
  -4   2 -12 408.269  26.091   2
   4   2  12 451.648  28.603   6
   4   2  12 417.395  26.047   4
  -5  -2 -12 41.0950  3.7222   6
  -5  -2 -12 41.3852  3.5187   2
   5  -2  12 59.3059  6.8178   1
   5  -2  12 41.6789  3.3785   4
  -5   2 -12 43.4488  3.5637   2
   5   2  12 55.1130  4.5866   6
   5   2  12 42.7590  3.5278   4
   6  -2  12 23.3158  2.4488   4
   6  -2  12 33.7675  5.2568   1
  -6  -2 -12 21.6276  2.5722   2
  -6  -2 -12 22.7840  2.6923   6
   6   2  12 19.5827  2.3935   4
  -6   2 -12 17.7952  2.5161   2
   7  -2  12 5.01403 1.92826   4
  -7  -2 -12 4.35065 1.73335   6
  -7  -2 -12 5.06392 1.93041   2
   7   2  12 7.12767 1.77853   4
  -7   2 -12 5.10690 2.01584   2
  -8  -2 -12 221.663  14.510   2
   8  -2  12 196.452  14.317   4
   8  -2  12 231.036  14.470   4
  -8  -2 -12 194.705  15.314   6
  -8   2 -12 217.026  14.634   2
  -8   2 -12 221.362  15.753   6
   9  -2  12 17.0992  3.2375   4
  -9  -2 -12 18.7716  3.2663   6
  -9  -2 -12 16.0936  3.3635   2
   9  -2  12 12.2063  3.1393   4
  -9   2 -12 20.5511  3.8840   6
  -9   2 -12 14.0896  3.2643   2
 -10  -2 -12 162.246  12.979   6
 -10   2 -12 179.272  12.115   2
 -10   2 -12 154.636  12.973   6
 -11  -2 -12 9.44504 3.41437   2
 -11   2 -12 10.2643  3.2321   2
 -11   2 -12 15.2136  3.6000   6
  11   3 -12 23.3285  4.2287   6
  11   3 -12 12.1987  3.2402   2
  10  -3 -12 412.528  30.828   6
  10  -3 -12 455.456  28.437   2
  10   3 -12 440.479  28.502   2
  -9  -3  12 73.2302  6.2774   4
   9  -3 -12 71.0847  6.7611   6
   9  -3 -12 77.7287  6.1483   2
   9   3 -12 72.9865  6.4125   2
  -9   3  12 75.3304  6.4378   6
   8  -3 -12 23.5671  2.8736   2
   8  -3 -12 20.0231  3.1252   6
  -8  -3  12 19.8635  3.0518   4
  -8   3  12 20.1746  2.8795   6
   8   3 -12 20.8936  3.3110   2
  -7  -3  12 41.4158  3.9605   4
   7  -3 -12 39.0924  4.1215   6
  -7  -3  12 43.9030  5.4529   1
   7  -3 -12 45.0457  3.8136   2
   7   3 -12 46.4460  4.0272   2
  -7   3  12 39.3519  3.8691   6
   6  -3 -12 567.351  35.170   2
  -6  -3  12 548.238  35.072   4
  -6  -3  12 565.691  45.317   1
   6  -3 -12 557.167  38.195   6
  -6   3  12 554.032  38.013   6
   6   3 -12 567.660  35.240   2
  -5  -3  12 320.164  26.812   1
   5  -3 -12 322.507  22.367   6
  -5  -3  12 311.895  20.411   4
   5  -3 -12 333.236  20.587   2
  -5   3  12 343.818  20.518   4
  -5   3  12 315.880  22.192   6
   5   3 -12 319.915  20.492   2
  -4  -3  12 40.9750  3.0737   4
   4  -3 -12 38.2752  3.5677   6
  -4  -3  12 37.8732  5.0630   1
   4  -3 -12 39.4536  3.2275   2
  -4   3  12 41.7019  3.4434   6
   4   3 -12 42.9116  3.1050   2
  -4   3  12 41.9800  3.2003   4
  -3  -3  12 121.361   8.040   4
   3  -3 -12 115.936   8.252   2
   3  -3 -12 129.317   9.032   6
  -3  -3  12 122.965  11.582   1
  -3   3  12 130.692   8.255   4
   3   3 -12 132.072   8.128   2
  -3   3  12 126.379   8.924   6
  -2  -3  12 376.511  25.394   4
   2  -3 -12 375.483  27.884   6
   2  -3 -12 440.784  25.754   2
  -2  -3  12 399.805  33.743   1
   2  -3 -12 442.577  25.604   5
   2   3 -12 423.651  25.544   2
  -2   3  12 392.731  27.844   6
  -2   3  12 430.998  25.632   4
   1  -3 -12 598.934  39.247   2
  -1  -3  12 612.089  51.070   1
   1  -3 -12 677.866  39.088   5
  -1  -3  12 646.871  38.856   4
   1  -3 -12 611.995  42.543   6
  -1   3  12 632.387  42.511   6
   1   3 -12 619.985  39.047   2
  -1   3  12 640.022  39.070   4
   0  -3  12 7.75408 0.85984   4
   0  -3 -12 7.11319 1.35016   5
   0  -3 -12 7.33894 1.23574   2
   0  -3 -12 6.91057 1.28342   6
   0  -3  12 4.99481 3.21114   1
   0   3 -12 6.41421 0.87678   2
   0   3  12 6.11766 1.13471   4
   0   3  12 4.45931 1.22335   6
   1  -3  12 150.775  14.381   1
  -1  -3 -12 152.682   9.996   2
  -1  -3 -12 154.837  10.809   6
   1  -3  12 148.288   9.683   4
   1   3  12 152.415  10.806   6
   1   3  12 167.114   9.974   4
  -1   3 -12 154.033   9.739   2
   2  -3  12 137.172  14.175   1
  -2  -3 -12 153.892   9.821   2
   2  -3  12 154.090   9.514   4
  -2  -3 -12 153.014  10.620   6
   2   3  12 145.918  10.620   6
  -2   3 -12 151.113   9.578   2
   2   3  12 153.419   9.756   4
  -3  -3 -12 508.618  36.181   6
   3  -3  12 565.806  33.046   4
  -3  -3 -12 535.635  33.390   2
  -3   3 -12 537.300  33.233   2
   3   3  12 562.391  33.274   4
   3   3  12 492.912  36.192   6
  -4  -3 -12 10.2536  1.6163   2
   4  -3  12 11.7011  4.0940   1
   4  -3  12 13.1150  1.4896   4
  -4  -3 -12 14.5987  1.8949   6
  -4   3 -12 10.4873  1.5199   2
   4   3  12 11.8752  2.0100   6
   4   3  12 10.9619  1.5876   4
  -5  -3 -12 59.6547  4.8940   6
   5  -3  12 63.9458  4.4285   4
  -5  -3 -12 55.7352  4.5323   2
   5  -3  12 72.2404  7.9633   1
   5   3  12 56.3026  4.5014   4
  -5   3 -12 63.3882  4.6081   2
   5   3  12 64.2633  5.2613   6
  -6  -3 -12 55.5237  4.5367   6
  -6  -3 -12 41.2249  4.0187   2
   6  -3  12 46.1524  4.0125   4
   6   3  12 63.6048  4.2014   4
   6   3  12 55.3173  5.0011   6
  -6   3 -12 45.9551  4.2423   2
   7  -3  12 253.007  17.509   4
  -7  -3 -12 260.197  17.590   2
   7  -3  12 264.526  17.526   4
  -7  -3 -12 278.730  18.982   6
  -7   3 -12 268.262  17.788   2
   7   3  12 295.620  19.522   6
   8  -3  12 7.07664 2.43699   4
   8  -3  12 9.71184 2.50838   4
  -8  -3 -12 6.54149 2.40246   6
  -8  -3 -12 10.5671  2.5113   2
  -8   3 -12 8.80461 2.58007   2
   8   3  12 10.2129  3.1908   6
  -9  -3 -12 10.1533  2.8746   6
   9  -3  12 7.45953 2.50079   4
  -9  -3 -12 5.01076 2.74098   2
   9  -3  12 6.35888 2.45032   4
  -9   3 -12 4.86037 2.68265   2
 -10  -3 -12 27.6769  4.3708   2
 -10  -3 -12 35.5414  4.8921   6
 -10   3 -12 37.5996  4.3695   2
  10  -4 -12 44.3307  5.5757   6
  10   4 -12 51.3756  4.9675   2
 -10   4  12 45.9149  5.0922   6
   9  -4 -12 5.35342 2.55430   6
   9   4 -12 8.70333 2.66476   2
  -9   4  12 4.70517 2.33596   6
   8  -4 -12 56.8387  4.6260   2
  -8  -4  12 45.5892  4.6656   4
   8  -4 -12 52.3757  4.9910   6
  -8   4  12 54.7694  4.8501   6
   8   4 -12 49.0194  4.9548   2
  -7  -4  12 30.4823  4.7380   1
   7  -4 -12 27.6086  2.9099   2
  -7  -4  12 22.7097  3.2311   4
   7  -4 -12 25.4029  3.2778   6
  -7   4  12 23.4899  2.8913   6
   7   4 -12 27.4483  3.3713   2
   6  -4 -12 59.5784  5.4077   6
  -6  -4  12 67.9077  7.2304   1
  -6  -4  12 66.7364  5.2785   4
   6  -4 -12 79.4738  5.0929   2
   6   4 -12 66.8730  5.2631   2
  -6   4  12 61.1980  5.2995   6
  -5  -4  12 10.1797  1.8205   4
   5  -4 -12 12.0035  1.9476   6
   5  -4 -12 11.8363  1.8482   2
  -5  -4  12 10.3462  3.1933   1
  -5   4  12 11.3500  1.8791   6
   5   4 -12 10.9615  1.7678   2
   4  -4 -12 87.7680  6.7596   6
  -4  -4  12 83.9078  6.0792   4
   4  -4 -12 94.6686  6.3005   2
  -4  -4  12 93.0721  9.1124   1
  -4   4  12 88.5003  6.6808   6
   4   4 -12 95.3079  6.1272   2
   3  -4 -12 75.6093  5.5011   6
   3  -4 -12 71.5235  5.0625   2
   3  -4 -12 72.6865  4.9829   5
  -3  -4  12 66.7551  7.5518   1
  -3  -4  12 68.0372  4.7790   4
   3   4 -12 73.9290  4.8087   2
  -3   4  12 68.5523  5.4069   6
  -2  -4  12 40.4220  3.0273   4
  -2  -4  12 39.4908  5.9609   1
   2  -4 -12 43.4507  3.3615   2
   2  -4 -12 45.4947  3.6854   6
   2  -4 -12 49.3495  3.5024   5
  -2   4  12 40.8679  3.5867   6
  -2   4  12 48.2013  3.3934   4
   2   4 -12 46.2230  3.0936   2
  -1  -4  12 1.66536 0.62134   4
   1  -4 -12 1.94770 1.08677   6
  -1  -4  12 1.84576 2.68107   1
   1  -4 -12 2.54661 1.14981   2
   1  -4 -12 2.84818 1.19356   5
  -1   4  12 2.13492 0.97248   4
  -1   4  12 1.09970 1.04465   6
   1   4 -12 2.31191 0.72288   2
   0  -4 -12 33.7357  3.0070   6
   0  -4  12 33.5637  2.3742   4
   0  -4 -12 34.0147  2.9528   5
   0  -4 -12 32.6103  2.7707   2
   0  -4  12 30.4862  5.6999   1
   0   4 -12 37.0955  2.4193   2
   0   4  12 33.2896  3.0326   6
   0   4  12 39.3146  2.8267   4
   1  -4  12 90.8817  5.7673   4
   1  -4  12 84.1191  9.8959   1
  -1  -4 -12 92.7442  6.6908   6
  -1  -4 -12 92.8935  6.1502   2
  -1  -4 -12 90.3002  6.3252   5
   1   4  12 81.9825  6.6267   6
   1   4  12 98.7756  6.1658   4
  -1   4 -12 90.7776  5.8106   2
  -2  -4 -12 44.8637  3.6310   6
  -2  -4 -12 37.9631  3.6023   5
   2  -4  12 43.9135  2.9663   4
  -2  -4 -12 42.3091  3.4366   2
   2  -4  12 38.8937  6.7173   1
  -2   4 -12 46.2854  3.0374   2
   2   4  12 47.0725  3.3837   4
   2   4  12 41.5177  3.6528   6
   3  -4  12 11.3827  4.3637   1
   3  -4  12 13.4308  1.3484   4
  -3  -4 -12 13.2720  1.7218   2
  -3  -4 -12 11.8662  1.7845   6
  -3   4 -12 13.3226  1.4556   2
   3   4  12 12.3866  1.8553   6
   3   4  12 14.4406  1.7361   4
  -4  -4 -12 3.48728 1.26393   2
   4  -4  12 4.36637 0.99047   4
  -4  -4 -12 5.90420 1.46761   6
   4  -4  12 6.43914 4.01147   1
  -4   4 -12 2.86973 1.10169   2
   4   4  12 2.50942 1.51361   6
  -5  -4 -12 69.1081  5.8524   6
  -5  -4 -12 78.1013  5.5258   2
   5  -4  12 72.8133  5.2447   4
   5   4  12 85.9569  6.1598   6
  -5   4 -12 73.5001  5.4198   2
   6  -4  12 96.4114  6.8851   4
  -6  -4 -12 104.464   7.661   6
   6  -4  12 99.3774  6.9175   4
  -6  -4 -12 92.6421  7.0163   2
  -6   4 -12 100.357   7.102   2
   6   4  12 99.2321  7.8309   6
  -7  -4 -12 2.36762 1.90691   2
   7  -4  12 0.74130 1.73031   4
  -7  -4 -12 0.55288 1.64499   6
   7  -4  12 1.50390 1.78671   4
  -7   4 -12 1.96991 2.01853   2
   7   4  12 -1.0280  2.0697   6
   8  -4  12 8.73990 2.27217   4
   8  -4  12 12.8464  2.5355   4
  -8  -4 -12 3.87749 2.10920   6
  -8  -4 -12 3.76977 2.13589   2
  -8   4 -12 -1.0829  2.1833   2
   8   4  12 2.52381 2.70362   6
  -9  -4 -12 46.8577  5.2948   2
  -9  -4 -12 61.9561  5.7267   6
  -9   4 -12 45.4754  4.9244   2
   9   4  12 55.8441  5.9153   6
 -10  -4 -12 175.563  14.207   6
 -10   4 -12 193.282  13.008   2
  10   5 -12 324.180  21.196   2
   9  -5 -12 13.5963  3.1531   6
  -9   5  12 12.3885  2.9560   6
   9   5 -12 20.0208  3.0584   2
   8  -5 -12 0.14703 1.90664   6
   8   5 -12 1.02793 2.21480   2
  -8   5  12 3.66385 2.05401   6
  -7  -5  12 22.5024  3.0266   4
   7  -5 -12 16.6078  2.7761   6
  -7  -5  12 24.2250  4.7137   1
  -7   5  12 23.1919  2.7836   6
   7   5 -12 20.7928  3.2682   2
  -6  -5  12 654.486  40.726   4
   6  -5 -12 576.057  43.968   6
   6  -5 -12 713.342  40.699   2
  -6  -5  12 664.672  52.616   1
  -6   5  12 647.323  43.944   6
   6   5 -12 630.198  40.891   2
  -5  -5  12 309.342  25.076   1
   5  -5 -12 334.513  19.003   2
   5  -5 -12 288.237  20.472   6
  -5  -5  12 267.195  18.994   4
   5   5 -12 301.803  19.059   2
  -5   5  12 274.850  20.380   6
   4  -5 -12 3.49206 1.46639   6
   4  -5 -12 3.96334 1.42778   2
  -4  -5  12 2.38568 1.57974   4
  -4  -5  12 3.64408 2.99944   1
   4   5 -12 6.28328 1.50278   2
  -4   5  12 4.76450 1.39153   6
   3  -5 -12 17.1057  2.0808   2
   3  -5 -12 17.8694  2.0222   5
  -3  -5  12 19.9983  2.0297   4
  -3  -5  12 18.4385  4.1745   1
   3  -5 -12 16.2573  2.1704   6
   3   5 -12 20.9549  1.8695   2
  -3   5  12 15.8732  2.1777   6
   2  -5 -12 831.828  56.560   6
   2  -5 -12 883.048  51.888   5
   2  -5 -12 812.550  52.191   2
  -2  -5  12 793.819  67.643   1
  -2  -5  12 783.078  51.676   4
   2   5 -12 887.614  51.935   2
  -2   5  12 874.151  56.570   6
  -1  -5  12 843.106  52.996   4
  -1  -5  12 911.358  69.835   1
   1  -5 -12 870.867  58.098   6
   1  -5 -12 804.672  53.592   2
   1  -5 -12 879.955  53.353   5
  -1   5  12 855.598  58.079   6
   1   5 -12 875.793  53.276   2
   0  -5 -12 6.10728 1.35467   2
   0  -5 -12 3.53744 1.26962   6
   0  -5  12 6.11777 0.69879   4
   0  -5  12 8.18322 4.14455   1
   0  -5 -12 5.78498 1.55337   5
   0   5  12 6.41742 1.42099   6
   0   5 -12 5.12023 0.74746   2
  -1  -5 -12 6.43326 1.47368   6
  -1  -5 -12 9.28265 1.46776   2
   1  -5  12 4.19274 3.95382   1
  -1  -5 -12 7.42579 1.65310   5
   1  -5  12 8.46829 0.85092   4
   1   5  12 7.09767 1.53667   6
  -1   5 -12 8.48766 0.91343   2
  -2  -5 -12 400.964  26.863   6
   2  -5  12 399.732  24.261   4
   2  -5  12 341.512  33.373   1
  -2  -5 -12 405.500  24.778   2
  -2  -5 -12 391.942  24.885   5
  -2   5 -12 410.586  24.417   2
   2   5  12 381.261  26.827   6
   3  -5  12 666.700  57.388   1
   3  -5  12 692.482  43.020   4
  -3  -5 -12 714.037  43.630   2
  -3  -5 -12 663.987  43.564   5
  -3  -5 -12 734.117  47.257   6
   3   5  12 635.102  47.196   6
  -3   5 -12 768.426  43.302   2
   4  -5  12 30.0125  2.3164   4
   4  -5  12 37.5448  6.5230   1
  -4  -5 -12 29.5685  2.7118   2
  -4  -5 -12 23.9433  3.1247   5
  -4  -5 -12 29.9006  2.9445   6
  -4   5 -12 28.8613  2.4923   2
   4   5  12 29.5251  3.0978   6
   5  -5  12 90.6472  8.9072   1
  -5  -5 -12 62.6199  5.1880   6
  -5  -5 -12 63.0353  4.7955   2
   5  -5  12 61.6762  4.4607   4
   5  -5  12 63.1605  4.5094   4
  -5   5 -12 61.0870  4.6440   2
   5   5  12 58.4815  5.1759   6
   6  -5  12 53.7069  4.2374   4
  -6  -5 -12 54.3590  4.8336   6
   6  -5  12 50.5658  4.2005   4
  -6  -5 -12 52.8664  4.4233   2
   6   5  12 55.9883  4.8899   6
  -6   5 -12 54.8851  4.4722   2
  -7  -5 -12 236.640  16.213   6
   7  -5  12 222.718  14.822   4
   7  -5  12 213.818  14.820   4
   7   5  12 258.976  16.590   6
  -7   5 -12 200.862  14.934   2
  -8  -5 -12 18.7530  3.2260   6
  -8   5 -12 21.5560  3.1641   2
   8   5  12 22.1125  3.8422   6
  -9  -5 -12 32.8728  4.6908   6
  -9   5 -12 37.3942  4.1826   2
   9   5  12 35.8063  4.8789   6
  10   5  12 4.66696 3.34879   6
   9  -6 -12 46.6907  5.1550   6
  -9   6  12 43.9182  5.0155   6
   9   6 -12 53.9534  4.5723   2
   8  -6 -12 381.691  28.972   6
   8   6 -12 451.958  26.813   2
   7  -6 -12 179.188  13.339   6
  -7  -6  12 189.633  16.792   1
  -7   6  12 177.945  13.194   6
   7   6 -12 187.778  12.457   2
   6  -6 -12 57.6033  5.1177   6
  -6  -6  12 59.5461  7.3415   1
  -6  -6  12 71.1320  5.0815   4
   6   6 -12 57.9892  5.1383   2
  -6   6  12 58.3032  5.0227   6
  -5  -6  12 10.7969  3.8634   1
  -5  -6  12 14.1694  2.4271   4
   5  -6 -12 12.8027  2.1425   6
   5   6 -12 8.00715 2.33822   2
  -5   6  12 9.03917 1.88422   6
  -4  -6  12 399.512  31.980   1
   4  -6 -12 357.676  26.050   6
  -4   6  12 388.556  26.038   6
   4   6 -12 377.749  24.241   2
   3  -6 -12 92.2970  7.4780   6
   3  -6 -12 104.177   6.991   5
  -3  -6  12 105.097   7.246   4
  -3  -6  12 104.832  10.493   1
   3   6 -12 100.203   6.980   2
  -3   6  12 105.425   7.573   6
  -2  -6  12 226.330  21.190   1
   2  -6 -12 234.251  16.769   6
  -2  -6  12 246.610  15.434   4
   2  -6 -12 248.642  15.466   5
   2  -6 -12 240.495  15.501   2
  -2   6  12 245.620  16.771   6
   1  -6 -12 20.7183  2.2874   2
  -1  -6  12 22.0940  5.2152   1
  -1  -6  12 21.2530  1.9677   4
   1  -6 -12 19.4688  2.3753   5
   1  -6 -12 20.0413  2.3008   6
  -1   6  12 20.9349  2.4617   6
   0  -6 -12 82.1384  5.9865   6
   0  -6  12 83.5292  9.7997   1
   0  -6  12 79.0099  4.9173   4
   0  -6 -12 73.5394  5.6330   5
   0  -6 -12 82.6387  5.5813   2
   0   6  12 69.6570  5.8725   6
  -1  -6 -12 75.6767  5.7293   6
   1  -6  12 66.2571  9.4884   1
  -1  -6 -12 78.2191  5.3290   2
  -1  -6 -12 77.3448  5.6269   5
   1  -6  12 73.1418  4.6673   4
   1   6  12 73.7000  5.7243   6
  -2  -6 -12 374.434  23.862   5
  -2  -6 -12 368.930  25.746   6
   2  -6  12 330.787  32.398   1
  -2  -6 -12 361.372  23.743   2
   2  -6  12 392.752  23.142   4
   2   6  12 406.281  25.777   6
   3  -6  12 90.1552 10.8800   1
  -3  -6 -12 82.9725  6.2758   5
  -3  -6 -12 83.7621  6.4349   6
   3  -6  12 85.2311  5.3977   4
   3   6  12 82.6894  6.4503   6
   4  -6  12 1.90628 4.47887   1
  -4  -6 -12 3.97385 1.55071   6
   4  -6  12 1.40899 0.85413   4
  -4   6 -12 4.59937 1.15589   2
   4   6  12 1.17500 1.48695   6
  -5  -6 -12 91.3898  6.8061   6
   5  -6  12 82.0479  5.7368   4
   5  -6  12 81.2742  5.7190   4
  -5   6 -12 83.3009  5.9225   2
   5   6  12 89.2680  6.7846   6
  -6  -6 -12 179.183  12.228   6
   6  -6  12 155.870  10.877   4
   6  -6  12 156.811  10.846   4
   6   6  12 182.104  12.273   6
  -6   6 -12 161.060  11.097   2
  -7  -6 -12 56.8467  5.0062   6
  -7   6 -12 43.1921  4.5114   2
   7   6  12 58.2769  5.3369   6
  -8  -6 -12 2.09301 2.30116   6
   8   6  12 3.08970 2.73030   6
  -8   6 -12 -5.0720  2.0245   2
  -9  -6 -12 107.565   9.233   6
  -9   6 -12 113.960   8.275   2
   9   6  12 105.264   9.398   6
   8  -7 -12 146.200  11.927   6
  -8  -7  12 171.308  15.742   1
  -8   7  12 151.518  11.791   6
   8   7 -12 168.474  10.857   2
  -7  -7  12 54.6771  7.5482   1
   7  -7 -12 46.0013  4.6020   6
   7   7 -12 49.7849  4.2072   2
  -7   7  12 40.0795  4.3220   6
   6  -7 -12 240.604  16.892   6
  -6  -7  12 240.963  21.282   1
   6   7 -12 248.899  15.596   2
  -6   7  12 223.634  16.779   6
   5  -7 -12 8.03478 1.92262   6
  -5  -7  12 11.6936  4.2655   1
  -5  -7  12 7.48907 2.26824   4
  -5   7  12 8.86463 1.85505   6
   5   7 -12 7.38825 2.00019   2
  -4  -7  12 168.714  14.169   1
   4  -7 -12 146.223  10.310   6
  -4  -7  12 124.747   9.370   4
  -4   7  12 139.757  10.224   6
   3  -7 -12 1.92282 1.39177   6
  -3  -7  12 2.11021 1.11696   4
  -3  -7  12 1.98873 3.75694   1
  -3   7  12 0.26358 1.41072   6
   2  -7 -12 165.478  11.764   6
  -2  -7  12 156.943  10.266   4
  -2  -7  12 170.530  16.116   1
  -2   7  12 173.100  11.835   6
  -1  -7  12 14.4692  5.0840   1
   1  -7 -12 12.9795  1.9645   6
  -1   7  12 11.1276  1.9175   6
   0  -7 -12 158.535  11.203   6
   0  -7  12 168.864  16.174   1
   0   7  12 150.203  11.174   6
  -1  -7 -12 17.6879  2.3135   6
   1  -7  12 19.3108  6.1154   1
   1   7  12 17.2889  2.2673   6
  -2  -7 -12 65.6103  5.5176   6
   2  -7  12 72.7945  9.9330   1
   2   7  12 72.8231  5.5435   6
  -3  -7 -12 63.7735  5.4184   6
   3  -7  12 74.8509 10.1315   1
   3  -7  12 67.8276  4.2566   4
   3   7  12 65.3792  5.3914   6
   4  -7  12 140.456   7.756   4
  -4  -7 -12 105.831   8.981   6
   4   7  12 109.696   8.995   6
   5  -7  12 176.919  12.082   4
  -5  -7 -12 200.782  13.849   6
   5  -7  12 185.616  12.110   4
   5   7  12 207.130  13.808   6
  -6  -7 -12 40.4557  4.1040   6
   6   7  12 38.5346  3.9590   6
  -6   7 -12 33.1841  3.3818   2
  -7  -7 -12 133.687   9.549   6
  -7   7 -12 95.8074  8.2966   2
   7   7  12 134.661   9.590   6
  -8  -7 -12 41.0833  5.1540   6
  -8   7 -12 41.4372  4.3261   2
   8   7  12 49.1962  5.0640   6
   7  -8 -12 178.816  12.639   6
  -7  -8  12 179.207  16.884   1
   7   8 -12 157.758  11.265   2
  -6  -8  12 3.29508 3.94374   1
   6  -8 -12 1.68371 1.85516   6
  -6   8  12 1.20580 1.80688   6
   6   8 -12 1.50230 1.50886   2
  -5  -8  12 12.9423  5.0383   1
   5  -8 -12 15.9690  2.5229   6
  -5   8  12 15.1182  2.4480   6
  -4  -8  12 48.1893  7.5788   1
   4  -8 -12 44.5320  4.0810   6
  -4  -8  12 42.5254  3.1629   4
  -4   8  12 42.5797  3.9767   6
  -3  -8  12 410.391  34.535   1
   3  -8 -12 393.098  27.448   6
  -3   8  12 399.226  27.493   6
  -2  -8  12 0.16298 4.46276   1
   2  -8 -12 6.62375 1.74633   6
  -2   8  12 1.22239 1.49931   6
   1  -8 -12 6.44401 1.74501   6
  -1  -8  12 5.41643 5.48836   1
  -1   8  12 6.53754 1.75878   6
   0  -8  12 301.997  26.598   1
   0  -8 -12 264.328  19.625   6
   0   8  12 292.551  19.694   6
  -1  -8 -12 429.996  30.403   6
   1  -8  12 429.650  39.004   1
   1   8  12 468.194  30.479   6
   2  -8  12 1.72176 5.69573   1
  -2  -8 -12 4.72501 1.74743   6
   2   8  12 6.46471 1.74836   6
  -3  -8 -12 3.42581 1.67706   6
   3  -8  12 0.21321 5.25225   1
   3   8  12 2.19968 1.60000   6
  -4  -8 -12 381.440  27.066   6
   4   8  12 400.886  27.066   6
  -5  -8 -12 302.824  21.987   6
   5   8  12 324.221  22.009   6
  -6  -8 -12 4.35767 2.32072   6
   6   8  12 9.13116 2.33594   6
  -7  -8 -12 9.00290 2.79358   6
   5  -9 -12 104.437   7.951   6
  -5  -9  12 107.178  11.952   1
  -5   9  12 96.2864  7.8157   6
   4  -9 -12 169.844  12.341   6
  -4  -9  12 173.251  17.146   1
  -4   9  12 167.621  12.289   6
  -3  -9  12 174.137  17.471   1
   3  -9 -12 161.110  12.354   6
  -3   9  12 180.746  12.436   6
   2  -9 -12 -0.3749  1.5332   6
  -2  -9  12 3.99436 6.04426   1
  -2   9  12 1.64510 1.77264   6
   1  -9 -12 109.333   8.436   6
  -1  -9  12 124.515  14.321   1
  -1   9  12 112.129   8.504   6
   0  -9 -12 256.697  19.237   6
   0  -9  12 277.047  26.703   1
   0   9  12 296.821  19.377   6
  -1  -9 -12 183.681  12.884   6
   1  -9  12 168.636  19.268   1
   1   9  12 178.667  12.866   6
  -2  -9 -12 3.27053 1.80000   6
   2  -9  12 3.84354 6.72353   1
   2   9  12 3.68629 1.75582   6
   3  -9  12 45.8497  9.1523   1
  -3  -9 -12 25.3011  3.3614   6
   3   9  12 30.0270  3.2848   6
  -4  -9 -12 398.867  27.942   6
   4   9  12 406.539  27.912   6
  -5  -9 -12 197.088  14.397   6
  -2 -10  12 5.07357 6.34084   1
  -1 -10  12 1.50429 6.97823   1
  -1  10  12 2.96727 1.92052   6
   0 -10  12 205.790  21.591   1
   0  10  12 182.422  13.482   6
   1 -10  12 29.5394  8.8734   1
   1  10  12 23.0385  3.0699   6
   2 -10  12 14.0485  7.9521   1
  11   0 -13 2.84201 3.09754   2
  10   0 -13 -2.5424  2.9589   6
  10   0 -13 4.86462 2.81399   2
  -9   0  13 -0.1802  2.1348   4
   9   0 -13 0.96815 2.12634   2
   9   0 -13 1.36065 2.81435   6
   8   0 -13 1.47568 1.81786   2
  -8   0  13 2.10351 1.71664   4
   8   0 -13 0.17308 2.07017   6
   7   0 -13 0.58743 1.52313   2
   7   0 -13 1.12791 1.71008   6
  -7   0  13 -0.5425  1.4555   4
   6   0 -13 1.31254 1.30778   2
  -6   0  13 1.25206 1.28779   4
   6   0 -13 0.67892 1.49897   6
  -6   0  13 -0.6303  2.1002   1
  -5   0  13 0.46971 1.01416   4
  -5   0  13 -0.7547  1.9663   1
   5   0 -13 0.96742 1.38960   6
   5   0 -13 0.87977 1.11917   2
   4   0 -13 1.70625 1.03029   2
   4   0 -13 1.27878 1.15266   6
  -4   0  13 -0.5621  2.0232   1
  -4   0  13 -0.2430  0.9745   4
   3   0 -13 1.44873 0.93176   2
  -3   0  13 -0.4015  0.8599   4
  -3   0  13 1.54676 2.28820   1
   3   0 -13 0.80972 1.12413   6
   2   0 -13 0.80295 0.84166   2
  -2   0  13 0.17126 2.24957   1
   2   0 -13 2.38329 1.05392   6
  -2   0  13 1.09473 0.84705   4
   1   0 -13 1.43603 0.80239   2
  -1   0  13 2.38023 0.83469   4
   1   0 -13 1.48708 0.97172   6
   0   0 -13 1.66315 0.81884   2
   0   0  13 6.43606 0.97081   4
   0   0 -13 2.42717 0.94138   6
  -1   0 -13 1.28697 0.90183   6
   1   0  13 0.64646 0.77796   4
  -1   0 -13 1.28517 0.81725   2
  -2   0 -13 0.80113 0.86143   2
   2   0  13 0.92643 0.80660   4
  -2   0 -13 0.70190 0.93015   6
  -3   0 -13 0.46818 0.95925   6
   3   0  13 1.03625 0.84500   4
  -3   0 -13 0.42219 0.94526   2
  -4   0 -13 1.92309 1.09613   2
  -4   0 -13 1.44277 1.13440   6
   4   0  13 1.48670 0.98946   4
   5   0  13 0.15886 1.07290   4
  -5   0 -13 1.21992 1.22426   2
  -5   0 -13 0.90535 1.15176   6
  -6   0 -13 0.03467 1.31402   6
   6   0  13 0.87012 1.31929   4
  -6   0 -13 -1.9376  1.3320   2
  -7   0 -13 1.03727 1.75923   2
  -7   0 -13 2.42883 1.80724   6
   7   0  13 2.49158 1.66116   4
  -8   0 -13 1.85808 2.12541   2
   8   0  13 0.70944 2.08053   4
  -8   0 -13 -0.7637  1.9421   6
  -9   0 -13 2.81077 2.59029   6
   9   0  13 -2.2484  2.1046   4
  -9   0 -13 0.81246 2.53070   2
 -10   0 -13 4.81052 3.06885   6
 -10   0 -13 -0.3046  2.6182   2
  11  -1 -13 5.20936 2.87867   2
  11   1 -13 4.20644 3.21645   2
  10  -1 -13 4.11617 2.61043   2
  10  -1 -13 2.90888 3.04651   6
  10   1 -13 6.18917 3.26645   6
  10   1 -13 -1.9092  2.6279   2
  -9  -1  13 218.705  13.718   4
   9  -1 -13 177.002  14.712   6
   9  -1 -13 210.010  13.539   2
   9   1 -13 191.563  13.576   2
   9   1 -13 189.654  15.113   6
   8  -1 -13 192.378  13.744   2
   8  -1 -13 193.093  15.143   6
  -8  -1  13 218.847  13.950   4
   8   1 -13 210.652  15.515   6
   8   1 -13 216.765  13.951   2
  -8   1  13 215.942  13.867   4
   7  -1 -13 14.5026  2.1918   2
  -7  -1  13 15.8799  2.3153   4
   7  -1 -13 12.9498  2.6645   6
   7   1 -13 19.6381  3.0546   6
  -7   1  13 17.3722  2.2731   4
   7   1 -13 18.0346  2.4137   2
   6  -1 -13 -0.1570  1.5610   6
   6  -1 -13 1.34521 1.32620   2
  -6  -1  13 1.34825 1.27707   4
  -6  -1  13 3.19829 2.45106   1
   6   1 -13 2.53289 1.31424   2
   6   1 -13 4.49738 1.84684   6
  -6   1  13 2.66037 1.29488   4
   5  -1 -13 195.367  12.292   2
  -5  -1  13 194.305  16.317   1
  -5  -1  13 191.875  12.190   4
   5  -1 -13 182.911  13.389   6
  -5   1  13 198.252  16.232   1
   5   1 -13 162.898  12.182   2
  -5   1  13 199.281  12.246   4
   5   1 -13 197.661  13.414   6
   4  -1 -13 129.466   8.680   6
  -4  -1  13 122.602  10.908   1
  -4  -1  13 107.159   7.737   4
   4  -1 -13 116.035   7.865   2
  -4   1  13 131.521  10.800   1
   4   1 -13 114.243   7.796   2
  -4   1  13 116.993   7.832   4
   4   1 -13 118.527   8.585   6
  -3  -1  13 2.93675 2.38017   1
   3  -1 -13 1.41772 1.14067   6
  -3  -1  13 1.19723 0.87770   4
   3  -1 -13 2.01276 1.03191   2
   3   1 -13 1.71746 1.10390   6
   3   1 -13 1.93894 0.92377   2
  -3   1  13 1.86001 0.94137   4
   2  -1 -13 26.3659  2.4830   6
  -2  -1  13 24.4731  2.0499   4
   2  -1 -13 24.9806  2.2050   2
  -2  -1  13 22.4478  4.0855   1
  -2   1  13 24.5136  2.1708   4
   2   1 -13 27.8311  2.1410   2
  -1  -1  13 393.014  25.946   4
   1  -1 -13 430.667  26.163   2
   1  -1 -13 422.358  28.395   6
  -1  -1  13 441.776  34.600   1
  -1   1  13 422.127  26.040   4
   1   1 -13 407.143  26.069   2
   0  -1  13 118.432   7.887   4
   0  -1 -13 123.029   8.010   2
   0  -1  13 128.721  11.754   1
   0  -1 -13 133.935   8.733   6
   0   1  13 118.073   7.975   4
   0   1 -13 121.579   7.932   2
   1  -1  13 13.5088  1.3704   4
   1  -1  13 15.3119  3.9021   1
  -1  -1 -13 13.5521  1.5572   2
  -1  -1 -13 14.8880  1.6497   6
  -1   1 -13 14.4789  1.4633   2
   1   1  13 13.3730  1.4890   4
  -2  -1 -13 15.8630  1.6914   2
   2  -1  13 15.5295  1.5579   4
  -2  -1 -13 15.7732  1.8579   6
  -2   1 -13 15.1706  1.6098   2
   2   1  13 15.2422  1.6048   4
  -3  -1 -13 807.461  51.391   2
   3  -1  13 813.608  51.058   4
  -3  -1 -13 833.032  55.681   6
  -3   1 -13 823.954  51.334   2
   3   1  13 856.073  51.148   4
  -4  -1 -13 232.885  15.036   2
   4  -1  13 224.942  14.859   4
  -4  -1 -13 237.390  16.262   6
  -4   1 -13 241.825  15.005   2
   4   1  13 233.491  14.948   4
  -4   1 -13 239.919  16.207   6
  -5  -1 -13 10.8685  1.7315   2
   5  -1  13 7.66199 1.49381   4
  -5  -1 -13 11.4588  1.7704   6
  -5   1 -13 12.3433  1.7069   2
  -5   1 -13 9.95739 1.77334   6
   5   1  13 10.5496  1.6145   4
  -6  -1 -13 38.5826  3.4354   2
  -6  -1 -13 36.6078  3.4607   6
   6  -1  13 58.0714  6.7203   1
   6  -1  13 34.6765  3.2064   4
  -6   1 -13 30.6347  3.2431   2
  -6   1 -13 35.5286  3.4929   6
  -7  -1 -13 726.548  49.206   6
  -7  -1 -13 670.820  45.548   2
   7  -1  13 681.716  45.266   4
  -7   1 -13 730.175  45.601   2
  -7   1 -13 780.073  49.306   6
   7   1  13 753.456  45.319   4
  -8  -1 -13 230.739  18.467   6
   8  -1  13 277.630  17.330   4
  -8  -1 -13 256.561  17.392   2
   8   1  13 281.685  17.318   4
  -8   1 -13 259.277  18.738   6
  -8   1 -13 263.965  17.453   2
  -9  -1 -13 4.02550 2.66580   2
   9  -1  13 0.72229 2.32189   4
  -9  -1 -13 5.24687 2.61452   6
  -9   1 -13 2.80609 2.77130   6
  -9   1 -13 2.32607 2.69919   2
   9   1  13 2.53196 2.30464   4
 -10  -1 -13 225.423  16.403   6
 -10   1 -13 205.880  16.344   6
  11  -2 -13 3.46220 3.13001   2
  10  -2 -13 85.3690  6.7434   2
  10  -2 -13 66.8922  7.2994   6
  10   2 -13 94.4265  8.0536   6
  10   2 -13 68.3973  6.7915   2
  -9  -2  13 91.7152  6.9194   4
   9  -2 -13 72.5131  7.1721   6
   9  -2 -13 82.1770  6.4940   2
   9   2 -13 72.6363  7.5491   6
   9   2 -13 84.1393  6.8340   2
  -8  -2  13 245.522  15.640   4
   8  -2 -13 253.952  15.542   2
   8  -2 -13 220.819  16.858   6
   8   2 -13 226.908  17.257   6
   8   2 -13 222.399  15.572   2
   7  -2 -13 36.4193  3.9358   6
  -7  -2  13 37.2617  3.7425   4
   7  -2 -13 44.4545  3.6171   2
  -7   2  13 44.4487  3.6486   4
   7   2 -13 37.9509  3.6742   2
   6  -2 -13 68.7879  6.0722   6
   6  -2 -13 74.3687  5.5306   2
  -6  -2  13 76.6170  5.5233   4
  -6  -2  13 84.7479  7.7904   1
  -6   2  13 74.3571  5.5317   4
   6   2 -13 82.6471  5.6075   2
   5  -2 -13 58.6835  5.0600   6
  -5  -2  13 60.2591  6.5968   1
  -5  -2  13 60.9986  4.4570   4
   5  -2 -13 57.8765  4.5518   2
  -5   2  13 71.9174  6.5814   1
  -5   2  13 63.9644  4.5518   4
   5   2 -13 61.6707  4.4996   2
  -4  -2  13 379.335  24.497   4
   4  -2 -13 407.153  24.758   2
   4  -2 -13 362.898  26.841   6
  -4  -2  13 408.886  32.275   1
  -4   2  13 388.788  24.614   4
   4   2 -13 412.316  24.656   2
  -3  -2  13 245.059  15.953   4
  -3  -2  13 233.284  21.374   1
   3  -2 -13 266.397  16.198   2
   3  -2 -13 275.687  17.613   6
  -3   2  13 253.075  16.078   4
   3   2 -13 249.484  16.047   2
   2  -2 -13 3.46617 1.23975   6
  -2  -2  13 -0.3303  2.3916   1
   2  -2 -13 2.31466 1.03866   2
  -2  -2  13 2.56078 0.82656   4
  -2   2  13 1.59709 0.94017   4
   2   2 -13 2.10353 0.82795   2
   1  -2 -13 46.2499  3.5579   2
   1  -2 -13 52.0193  3.7126   5
  -1  -2  13 51.6616  6.1219   1
  -1  -2  13 49.8420  3.3800   4
   1  -2 -13 52.2428  3.9641   6
  -1   2  13 48.6655  3.8875   6
  -1   2  13 49.7137  3.5789   4
   1   2 -13 46.5313  3.3849   2
   0  -2  13 593.479  49.877   1
   0  -2  13 586.026  37.885   4
   0  -2 -13 647.696  38.252   2
   0  -2 -13 614.704  41.426   6
   0   2  13 607.089  38.044   4
   0   2 -13 630.182  38.079   2
   1  -2  13 282.781  18.091   4
  -1  -2 -13 277.496  18.362   2
  -1  -2 -13 304.692  19.895   6
   1  -2  13 280.446  24.875   1
  -1   2 -13 290.668  18.176   2
   1   2  13 304.703  18.289   4
   2  -2  13 37.5110  6.0532   1
  -2  -2 -13 38.2357  3.2873   6
   2  -2  13 40.4091  2.7937   4
  -2  -2 -13 41.7824  3.0689   2
  -2   2 -13 37.6484  2.8199   2
   2   2  13 35.5352  2.9420   4
   3  -2  13 125.154   8.411   4
  -3  -2 -13 137.137   8.653   2
   3  -2  13 104.168  12.495   1
  -3  -2 -13 140.228   9.394   6
  -3   2 -13 130.215   8.489   2
   3   2  13 137.819   8.598   4
  -4  -2 -13 488.310  32.369   6
   4  -2  13 445.370  39.559   1
   4  -2  13 473.064  29.598   4
  -4  -2 -13 474.473  29.899   2
  -4   2 -13 470.094  29.796   2
   4   2  13 497.875  29.764   4
   5  -2  13 110.434   7.372   4
  -5  -2 -13 101.844   8.071   6
  -5  -2 -13 119.061   7.624   2
   5   2  13 117.333   7.525   4
  -5   2 -13 105.203   7.441   2
  -6  -2 -13 31.6621  3.2879   2
   6  -2  13 60.1288  6.6289   1
  -6  -2 -13 35.0495  3.4989   6
   6  -2  13 40.7192  3.2743   4
   6   2  13 34.7229  3.3439   4
  -6   2 -13 34.9402  3.3283   2
  -7  -2 -13 234.960  15.990   2
  -7  -2 -13 255.769  17.241   6
   7  -2  13 236.725  15.869   4
   7   2  13 255.359  15.972   4
  -7   2 -13 233.063  16.023   2
  -8  -2 -13 181.833  12.116   2
  -8  -2 -13 177.306  12.831   6
   8  -2  13 160.661  11.793   4
  -8   2 -13 171.583  12.082   2
  -9  -2 -13 27.8280  4.0816   6
  -9  -2 -13 28.6048  4.0133   2
  -9   2 -13 28.9601  4.0445   2
 -10  -2 -13 9.97196 3.17253   2
 -10  -2 -13 8.28873 3.30946   6
 -10   2 -13 10.0598  3.1644   2
  10  -3 -13 45.5230  4.5762   2
  10  -3 -13 36.2508  4.9781   6
  10   3 -13 42.7468  5.0344   2
   9  -3 -13 63.7693  6.2652   6
   9  -3 -13 71.4406  5.7619   2
   9   3 -13 70.0251  6.2029   2
   8  -3 -13 409.012  30.647   6
   8  -3 -13 457.801  28.272   2
  -8  -3  13 461.890  28.452   4
   8   3 -13 440.257  28.506   2
   7  -3 -13 105.188   8.326   6
   7  -3 -13 103.879   7.546   2
  -7  -3  13 105.109   7.687   4
  -7  -3  13 108.742  10.157   1
  -7   3  13 108.129   8.046   6
   7   3 -13 107.548   7.728   2
   6  -3 -13 56.7767  4.8808   6
  -6  -3  13 60.6699  6.4195   1
   6  -3 -13 53.9916  4.4080   2
  -6  -3  13 54.2799  4.4608   4
   6   3 -13 57.0867  4.5177   2
  -6   3  13 57.6350  4.7435   6
   5  -3 -13 138.414   9.433   2
  -5  -3  13 138.494   9.333   4
   5  -3 -13 139.534  10.298   6
  -5  -3  13 143.805  12.847   1
  -5   3  13 145.710   9.441   4
  -5   3  13 142.345  10.155   6
   5   3 -13 146.727   9.403   2
  -4  -3  13 312.818  27.258   1
   4  -3 -13 310.554  20.750   2
  -4  -3  13 316.568  20.527   4
   4  -3 -13 347.123  22.586   6
   4   3 -13 320.299  20.636   2
  -4   3  13 349.796  20.709   4
  -4   3  13 335.644  22.468   6
  -3  -3  13 412.772  35.141   1
   3  -3 -13 415.421  26.868   2
   3  -3 -13 421.295  29.142   6
  -3  -3  13 423.611  26.559   4
  -3   3  13 457.791  26.766   4
  -3   3  13 441.476  29.097   6
   3   3 -13 418.902  26.700   2
  -2  -3  13 10.2484  3.4053   1
   2  -3 -13 16.7050  1.8527   5
  -2  -3  13 16.8603  1.5145   4
   2  -3 -13 14.0069  1.9577   6
   2  -3 -13 15.8031  1.7691   2
  -2   3  13 15.5707  1.9018   6
  -2   3  13 14.5525  1.7217   4
   2   3 -13 15.3686  1.5238   2
   1  -3 -13 153.808   9.523   2
   1  -3 -13 147.365  10.302   6
  -1  -3  13 132.672  13.393   1
  -1  -3  13 132.089   9.193   4
   1  -3 -13 150.763   9.552   5
   1   3 -13 152.489   9.281   2
  -1   3  13 155.766   9.468   4
  -1   3  13 138.001  10.249   6
   0  -3 -13 21.7881  2.1073   2
   0  -3  13 20.9635  1.6833   4
   0  -3 -13 17.9259  2.1242   6
   0  -3 -13 21.3896  2.1981   5
   0  -3  13 19.3973  4.5132   1
   0   3  13 20.1449  1.9988   4
   0   3 -13 21.8068  1.7185   2
   0   3  13 21.3270  2.2071   6
  -1  -3 -13 366.486  23.639   6
  -1  -3 -13 360.513  21.799   2
  -1  -3 -13 363.586  21.896   5
   1  -3  13 339.978  29.379   1
   1  -3  13 343.273  21.439   4
   1   3  13 327.844  21.666   4
  -1   3 -13 355.867  21.544   2
   1   3  13 308.143  23.559   6
   2  -3  13 2.57486 3.51210   1
  -2  -3 -13 3.05165 1.16320   6
   2  -3  13 4.40878 0.85554   4
  -2  -3 -13 2.20985 1.19502   2
  -2   3 -13 5.26995 0.93786   2
   2   3  13 5.95263 1.20846   4
   2   3  13 5.78586 1.41520   6
   3  -3  13 45.9904  7.4563   1
   3  -3  13 57.4531  3.7229   4
  -3  -3 -13 51.3590  4.3344   6
  -3  -3 -13 50.2111  3.9369   2
   3   3  13 56.7449  4.4688   6
   3   3  13 54.0370  3.9717   4
  -3   3 -13 53.3862  3.7736   2
   4  -3  13 31.7508  2.6237   4
  -4  -3 -13 31.1743  2.9285   2
   4  -3  13 41.7913  6.3652   1
  -4  -3 -13 37.2010  3.2293   6
   4   3  13 34.0864  2.8865   4
  -4   3 -13 34.4943  2.7444   2
   4   3  13 30.4704  3.3591   6
  -5  -3 -13 71.1851  5.7137   6
   5  -3  13 70.5716  5.0880   4
   5  -3  13 95.0497  9.2138   1
  -5  -3 -13 72.7840  5.3223   2
   5   3  13 67.9187  5.2567   4
   5   3  13 74.0994  6.1016   6
  -5   3 -13 74.0417  5.2107   2
   6  -3  13 2.83895 1.37745   4
  -6  -3 -13 3.21515 1.56434   2
  -6  -3 -13 1.75470 1.54780   6
  -6   3 -13 4.64317 1.65745   2
  -7  -3 -13 15.4761  2.4945   2
  -7  -3 -13 18.9889  2.6396   6
   7  -3  13 13.3432  2.2898   4
  -7   3 -13 12.7650  2.5226   2
  -8  -3 -13 11.9495  2.7248   2
  -8  -3 -13 14.2738  2.8210   6
   8  -3  13 13.8637  2.6259   4
  -8   3 -13 13.0373  2.8795   2
  -9  -3 -13 7.45585 2.60745   6
  -9  -3 -13 0.79357 2.46896   2
  -9   3 -13 -0.5398  2.2604   2
 -10  -3 -13 7.14649 2.99463   2
 -10  -3 -13 11.0147  3.4614   6
 -10   3 -13 10.6640  3.0148   2
   9  -4 -13 159.649  12.248   6
  -9   4  13 153.430  11.846   6
   9   4 -13 159.322  11.410   2
   8  -4 -13 275.622  21.408   6
   8  -4 -13 329.473  19.801   2
   8   4 -13 308.503  20.116   2
  -8   4  13 296.293  21.195   6
   7  -4 -13 36.5984  3.9268   6
  -7  -4  13 29.7425  3.7448   4
   7  -4 -13 40.7807  3.5116   2
  -7  -4  13 36.8866  5.4177   1
  -7   4  13 36.8938  3.6738   6
   7   4 -13 34.6880  3.9547   2
  -6  -4  13 389.832  26.166   4
   6  -4 -13 425.131  26.196   2
  -6  -4  13 420.485  34.036   1
   6  -4 -13 362.937  28.305   6
  -6   4  13 425.966  28.298   6
   6   4 -13 452.469  26.372   2
  -5  -4  13 147.698  10.312   4
   5  -4 -13 139.012  11.212   6
   5  -4 -13 169.244  10.427   2
  -5  -4  13 168.930  14.243   1
   5   4 -13 163.730  10.375   2
  -5   4  13 154.366  11.157   6
   4  -4 -13 334.626  20.026   2
  -4  -4  13 318.470  26.371   1
  -4  -4  13 292.881  19.716   4
   4  -4 -13 305.940  21.638   6
  -4   4  13 309.883  21.577   6
   4   4 -13 323.316  19.838   2
  -3  -4  13 49.0621  6.2477   1
   3  -4 -13 52.8867  4.2326   6
  -3  -4  13 48.3366  3.5301   4
   3  -4 -13 49.8253  3.8293   2
  -3   4  13 44.3828  4.0568   6
   3   4 -13 53.1278  3.5836   2
  -2  -4  13 194.384  18.237   1
   2  -4 -13 199.477  14.399   6
   2  -4 -13 214.500  13.287   2
   2  -4 -13 214.316  13.268   5
  -2  -4  13 198.021  12.941   4
  -2   4  13 200.943  14.383   6
  -2   4  13 202.802  13.227   4
   2   4 -13 222.092  13.046   2
  -1  -4  13 59.1645  7.3681   1
   1  -4 -13 56.6440  4.3752   2
  -1  -4  13 59.9643  3.9741   4
   1  -4 -13 59.0741  4.7151   6
   1  -4 -13 63.7197  4.5287   5
  -1   4  13 52.8438  4.6644   6
  -1   4  13 59.5033  4.3104   4
   1   4 -13 67.3535  4.0372   2
   0  -4  13 381.706  23.882   4
   0  -4 -13 393.841  24.292   5
   0  -4 -13 380.208  26.344   6
   0  -4 -13 386.966  24.312   2
   0  -4  13 360.290  32.578   1
   0   4  13 387.693  26.340   6
   0   4  13 409.904  24.245   4
   0   4 -13 383.429  24.014   2
   1  -4  13 58.9190  3.9513   4
  -1  -4 -13 60.0183  4.7402   6
  -1  -4 -13 64.1701  4.3830   2
  -1  -4 -13 53.5467  4.5158   5
   1  -4  13 54.9633  7.8085   1
  -1   4 -13 63.6872  3.9936   2
   1   4  13 57.9556  4.3368   4
   1   4  13 62.3294  4.7608   6
  -2  -4 -13 0.55099 1.18865   6
  -2  -4 -13 2.84361 1.45199   5
   2  -4  13 0.61309 0.66677   4
  -2  -4 -13 0.41694 1.17885   2
   2  -4  13 -3.8267  3.4167   1
   2   4  13 1.13964 1.09095   4
   2   4  13 0.90414 1.30638   6
  -2   4 -13 2.04232 0.79391   2
   3  -4  13 7.25219 4.15951   1
  -3  -4 -13 4.58865 1.36759   2
   3  -4  13 4.80095 0.93084   4
  -3  -4 -13 7.76962 1.54572   6
  -3  -4 -13 5.25301 1.79974   5
   3   4  13 7.72854 1.70413   6
  -3   4 -13 4.72134 1.03054   2
  -4  -4 -13 509.020  32.339   2
   4  -4  13 477.134  31.910   4
   4  -4  13 545.565  43.145   1
  -4  -4 -13 535.183  35.088   6
   4   4  13 515.360  35.145   6
  -4   4 -13 519.364  32.146   2
   5  -4  13 37.4728  3.1610   4
  -5  -4 -13 36.2777  3.6739   6
   5  -4  13 51.3982  6.7756   1
  -5  -4 -13 39.7202  3.5198   2
  -5   4 -13 43.6347  3.3621   2
   5   4  13 46.3945  4.1138   6
  -6  -4 -13 27.1843  3.1649   6
  -6  -4 -13 28.4292  2.9750   2
   6  -4  13 28.6720  2.7482   4
  -6   4 -13 25.5139  2.8883   2
   6   4  13 32.5791  3.7961   6
  -7  -4 -13 -0.4805  1.6703   6
  -7  -4 -13 0.22157 1.63232   2
   7  -4  13 -0.4114  1.5454   4
  -7   4 -13 1.01701 1.93263   2
   7   4  13 0.77081 2.42080   6
  -8  -4 -13 509.913  32.379   2
  -8  -4 -13 545.996  35.013   6
  -8   4 -13 458.691  32.261   2
  -9  -4 -13 285.360  18.844   2
  -9  -4 -13 273.887  20.215   6
   9  -5 -13 3.28492 2.51221   6
   9   5 -13 8.75861 2.53834   2
  -9   5  13 6.40436 2.41733   6
   8  -5 -13 17.7507  2.9925   6
   8   5 -13 23.4271  3.3618   2
  -8   5  13 15.1390  2.7449   6
  -7  -5  13 129.045   8.585   4
  -7  -5  13 121.077  11.440   1
   7  -5 -13 106.407   8.905   6
   7   5 -13 116.880   8.713   2
  -7   5  13 113.661   8.817   6
  -6  -5  13 102.629   8.271   4
   6  -5 -13 138.679   8.222   2
  -6  -5  13 118.489  11.251   1
   6  -5 -13 101.206   8.604   6
  -6   5  13 117.441   8.648   6
   6   5 -13 116.972   8.434   2
   5  -5 -13 1.41607 1.55685   6
   5  -5 -13 1.43354 1.48556   2
  -5  -5  13 2.46683 1.83642   4
  -5  -5  13 -0.4717  2.9805   1
   5   5 -13 0.82457 1.71368   2
  -5   5  13 0.86264 1.36118   6
  -4  -5  13 11.1087  1.8868   4
   4  -5 -13 9.83583 1.80455   2
   4  -5 -13 8.17869 1.82844   6
  -4  -5  13 6.74848 3.47014   1
   4   5 -13 12.2294  1.7953   2
  -4   5  13 10.2108  1.7876   6
   3  -5 -13 28.9397  2.7875   2
  -3  -5  13 34.8014  5.4756   1
   3  -5 -13 32.0321  3.0072   6
  -3  -5  13 32.1894  2.6478   4
   3   5 -13 30.3154  2.5367   2
  -3   5  13 28.8011  2.9288   6
   2  -5 -13 257.402  15.164   5
  -2  -5  13 220.237  14.789   4
   2  -5 -13 223.433  16.411   6
   2  -5 -13 223.256  15.152   2
  -2  -5  13 239.360  20.869   1
  -2   5  13 238.212  16.455   6
   2   5 -13 254.245  14.873   2
   1  -5 -13 0.85759 1.31015   5
   1  -5 -13 2.09897 1.23864   6
  -1  -5  13 1.58355 0.66610   4
   1  -5 -13 0.82105 1.20014   2
  -1  -5  13 -0.1847  3.5231   1
  -1   5  13 5.99155 1.49118   6
   1   5 -13 1.95388 0.76941   2
   0  -5 -13 9.74365 1.69574   6
   0  -5 -13 10.7295  1.6520   2
   0  -5  13 10.3750  4.4143   1
   0  -5 -13 10.7247  1.8023   5
   0  -5  13 9.30480 0.97564   4
   0   5  13 7.51588 1.63136   6
  -1  -5 -13 8.93842 1.58563   2
  -1  -5 -13 4.47713 1.43595   6
   1  -5  13 8.78104 0.90776   4
  -1  -5 -13 5.07889 1.65518   5
   1  -5  13 4.77439 4.25935   1
   1   5  13 8.51906 1.63727   6
   2  -5  13 225.055  23.343   1
  -2  -5 -13 285.158  16.711   2
  -2  -5 -13 264.075  16.857   5
  -2  -5 -13 251.799  18.055   6
   2  -5  13 265.989  16.171   4
  -2   5 -13 282.216  16.297   2
   2   5  13 230.770  18.001   6
  -3  -5 -13 3.46957 1.68491   5
  -3  -5 -13 1.77205 1.35430   2
   3  -5  13 0.78266 4.24896   1
   3  -5  13 3.09349 0.80931   4
  -3  -5 -13 3.63216 1.47561   6
  -3   5 -13 3.30036 0.91407   2
   3   5  13 5.92949 1.59731   6
  -4  -5 -13 39.4634  3.7581   6
   4  -5  13 42.4561  7.2412   1
  -4  -5 -13 44.9123  3.6263   2
   4  -5  13 41.5572  3.0270   4
  -4   5 -13 43.9262  3.1854   2
   4   5  13 39.9408  3.9058   6
   5  -5  13 19.8670  2.0851   4
  -5  -5 -13 20.4129  2.7285   6
   5  -5  13 31.7761  6.0471   1
  -5  -5 -13 22.2732  2.5266   2
   5   5  13 26.6317  2.9111   6
  -5   5 -13 21.2904  2.2619   2
   6  -5  13 106.264   7.592   4
  -6  -5 -13 107.252   7.883   2
  -6  -5 -13 115.112   8.639   6
   6   5  13 127.659   8.956   6
  -6   5 -13 110.965   7.819   2
  -7  -5 -13 3.80593 2.09569   6
   7   5  13 5.76040 2.51988   6
  -7   5 -13 8.48043 2.14037   2
  -8  -5 -13 18.8276  3.2498   6
  -8   5 -13 16.6326  2.8834   2
   8   5  13 20.7282  3.7056   6
  -9  -5 -13 48.8535  5.3947   6
  -9   5 -13 46.1482  4.8195   2
   9   5  13 55.3960  5.9600   6
   8  -6 -13 179.773  14.099   6
  -8   6  13 187.475  14.000   6
   8   6 -13 206.407  13.040   2
   7  -6 -13 28.3077  3.4946   6
  -7  -6  13 28.7596  5.5003   1
  -7   6  13 22.7355  3.3121   6
   7   6 -13 31.9825  3.4759   2
   6  -6 -13 99.0146  8.1389   6
  -6  -6  13 107.984  10.982   1
  -6  -6  13 128.323   7.813   4
  -6   6  13 101.768   8.050   6
   6   6 -13 95.9883  7.7438   2
   5  -6 -13 3.89612 1.75295   6
  -5  -6  13 5.28674 2.18171   4
  -5  -6  13 2.80934 3.33639   1
   5   6 -13 2.37240 2.10322   2
  -5   6  13 5.61041 1.76371   6
   4  -6 -13 238.169  16.764   6
  -4  -6  13 245.509  21.082   1
  -4  -6  13 261.425  15.744   4
   4   6 -13 227.984  15.587   2
  -4   6  13 227.711  16.703   6
  -3  -6  13 18.5591  2.6176   4
   3  -6 -13 14.5995  2.1251   5
  -3  -6  13 18.2288  4.5746   1
   3  -6 -13 15.6767  2.2950   6
  -3   6  13 17.2709  2.2700   6
   2  -6 -13 92.6867  6.2628   2
  -2  -6  13 84.8924  9.8569   1
   2  -6 -13 84.0685  6.6791   6
  -2  -6  13 89.2436  6.1608   4
   2  -6 -13 93.0932  6.2475   5
  -2   6  13 85.2853  6.6989   6
   1  -6 -13 13.2832  1.9006   2
   1  -6 -13 10.5962  1.8641   6
   1  -6 -13 13.9862  2.0441   5
  -1  -6  13 11.9198  1.4327   4
  -1  -6  13 10.9487  4.5126   1
  -1   6  13 12.5038  2.0229   6
   0  -6  13 471.749  38.304   1
   0  -6 -13 429.704  30.548   6
   0  -6 -13 453.919  28.218   2
   0  -6  13 444.010  27.555   4
   0  -6 -13 451.511  28.176   5
   0   6  13 442.199  30.533   6
  -1  -6 -13 17.2358  2.0868   2
  -1  -6 -13 16.7534  2.2361   6
   1  -6  13 17.0764  1.2642   4
  -1  -6 -13 17.5146  2.3986   5
   1  -6  13 15.4135  5.7026   1
   1   6  13 19.0063  2.3456   6
   2  -6  13 43.1966  8.2359   1
  -2  -6 -13 52.8645  4.6032   6
  -2  -6 -13 58.7662  4.3936   2
   2  -6  13 58.9527  3.6289   4
   2   6  13 54.5607  4.6753   6
  -3  -6 -13 3.83182 1.55019   6
   3  -6  13 3.40283 0.74957   4
   3  -6  13 2.78215 4.76006   1
   3   6  13 2.06219 1.47788   6
   4  -6  13 590.252  37.147   4
  -4  -6 -13 606.181  40.984   6
   4   6  13 609.951  41.020   6
   5  -6  13 49.9926  3.7394   4
  -5  -6 -13 52.9156  4.7760   6
   5   6  13 58.2927  4.8566   6
  -5   6 -13 51.0179  3.9419   2
   6  -6  13 50.6734  4.0415   4
  -6  -6 -13 56.3393  5.0463   6
  -6   6 -13 50.7285  4.3083   2
   6   6  13 61.9707  5.2131   6
  -7  -6 -13 28.9233  3.5993   6
   7   6  13 27.4860  3.9205   6
  -7   6 -13 23.0683  3.0882   2
  -8  -6 -13 443.857  31.079   6
  -7  -7  13 154.512  13.758   1
   7  -7 -13 126.960  10.108   6
  -7   7  13 125.160   9.965   6
   7   7 -13 134.117   9.169   2
  -6  -7  13 96.2525 10.3573   1
   6  -7 -13 89.3027  7.1557   6
   6   7 -13 94.8071  6.6444   2
  -6   7  13 84.1192  7.0814   6
  -5  -7  13 115.176  11.315   1
   5  -7 -13 97.3812  7.9627   6
  -5   7  13 106.800   7.991   6
  -4  -7  13 46.5406  3.9865   4
  -4  -7  13 59.4887  7.3975   1
   4  -7 -13 50.1331  4.4693   6
  -4   7  13 50.1700  4.4534   6
   3  -7 -13 96.5727  7.1418   6
  -3  -7  13 80.4660  6.1905   4
  -3  -7  13 102.742  10.719   1
  -3   7  13 101.262   7.202   6
   2  -7 -13 160.474  11.769   6
  -2  -7  13 165.934  16.159   1
  -2   7  13 168.138  11.842   6
   1  -7 -13 87.5909  7.0546   6
  -1  -7  13 94.1095 10.9919   1
  -1   7  13 96.9427  7.1086   6
   0  -7  13 40.6971  7.6739   1
   0  -7 -13 40.6420  3.6322   6
   0   7  13 35.5264  3.5168   6
  -1  -7 -13 104.042   7.997   6
   1  -7  13 96.5859 12.3949   1
   1   7  13 112.803   8.037   6
   2  -7  13 256.846  25.262   1
  -2  -7 -13 269.143  19.004   6
   2   7  13 285.520  19.061   6
   3  -7  13 42.1228  8.3754   1
  -3  -7 -13 45.8822  4.0690   6
   3  -7  13 44.4182  2.8907   4
   3   7  13 43.2396  4.1529   6
   4  -7  13 17.1540  1.4633   4
  -4  -7 -13 16.3878  2.4854   6
   4  -7  13 14.7293  6.1132   1
   4   7  13 15.5457  2.5179   6
   5  -7  13 79.0222  5.2977   4
  -5  -7 -13 79.9206  6.5987   6
   5   7  13 81.2815  6.6049   6
  -6  -7 -13 308.651  21.762   6
  -7  -7 -13 23.1302  3.5566   6
   7   7  13 22.3933  3.6810   6
  -7   7 -13 20.6877  2.7772   2
   6  -8 -13 130.521  10.103   6
  -6  -8  13 159.144  14.265   1
  -6   8  13 124.987  10.011   6
  -5  -8  13 60.0223  8.3294   1
   5  -8 -13 59.6518  5.1267   6
  -5   8  13 57.9292  5.1712   6
  -4  -8  13 33.8259  6.6414   1
   4  -8 -13 30.9506  3.4190   6
  -4   8  13 32.5654  3.4949   6
   3  -8 -13 58.3793  4.9615   6
  -3  -8  13 60.7598  8.8751   1
  -3   8  13 55.1098  5.0019   6
  -2  -8  13 359.673  32.204   1
   2  -8 -13 350.587  25.139   6
  -2   8  13 381.187  25.218   6
   1  -8 -13 178.968  13.112   6
  -1  -8  13 199.625  18.981   1
  -1   8  13 182.587  13.138   6
   0  -8  13 112.269  13.149   1
   0  -8 -13 107.105   7.825   6
   0   8  13 95.2008  7.7512   6
   1  -8  13 50.4837  9.6371   1
  -1  -8 -13 50.2041  4.6309   6
   1   8  13 57.9098  4.6960   6
   2  -8  13 437.188  38.480   1
  -2  -8 -13 433.853  29.843   6
   2   8  13 433.712  29.855   6
  -3  -8 -13 170.040  13.102   6
   3   8  13 196.516  13.262   6
  -4  -8 -13 113.979   8.908   6
   4   8  13 118.031   8.857   6
  -5  -8 -13 9.47091 2.45526   6
   5   8  13 8.76578 2.29735   6
  -6  -8 -13 275.371  19.659   6
  -4  -9  13 22.4371  6.5462   1
   4  -9 -13 22.6425  3.0590   6
  -3  -9  13 42.5036  8.1671   1
   3  -9 -13 35.7766  3.6958   6
  -3   9  13 37.0817  3.8780   6
   2  -9 -13 -0.0909  1.6107   6
  -2  -9  13 10.0406  6.1786   1
  -2   9  13 2.35524 1.69633   6
  -1  -9  13 7.80880 6.61513   1
   1  -9 -13 9.94166 2.05916   6
  -1   9  13 10.1678  2.0819   6
   0  -9  13 5.04755 6.90365   1
   0  -9 -13 4.35366 1.87354   6
   0   9  13 8.83682 2.07947   6
  -1  -9 -13 55.1410  4.9574   6
   1  -9  13 54.9896 10.6770   1
   1   9  13 59.7491  5.0456   6
  -2  -9 -13 -1.4261  1.7024   6
   2  -9  13 5.25175 6.91973   1
   2   9  13 1.87443 1.84830   6
  -3  -9 -13 162.820  12.199   6
   3  -9  13 222.710  19.392   1
   3   9  13 153.380  12.135   6
  -4  -9 -13 16.2261  2.8533   6
  10   0 -14 618.669  38.509   2
  10   0 -14 579.162  41.842   6
   9   0 -14 166.275  12.905   6
   9   0 -14 167.400  11.714   2
   8   0 -14 96.8148  7.6170   2
  -8   0  14 113.557   7.787   4
   8   0 -14 105.387   8.594   6
   7   0 -14 500.867  34.642   6
   7   0 -14 462.105  31.724   2
  -7   0  14 546.995  31.742   4
  -6   0  14 1321.24   80.73   4
   6   0 -14 1278.63   81.06   2
   6   0 -14 1215.97   87.94   6
  -6   0  14 1410.68  103.64   1
  -5   0  14 7.32329 2.75582   1
   5   0 -14 5.13768 1.64931   6
  -5   0  14 2.92852 1.28746   4
   5   0 -14 4.17547 1.33277   2
  -4   0  14 52.9098  5.8006   1
   4   0 -14 45.6600  3.6004   2
  -4   0  14 46.6046  3.6128   4
   4   0 -14 49.0970  4.0588   6
  -3   0  14 849.497  67.487   1
   3   0 -14 841.941  52.327   2
   3   0 -14 799.964  56.739   6
  -3   0  14 877.498  52.086   4
  -2   0  14 1654.70  104.70   4
   2   0 -14 1671.00  114.04   6
   2   0 -14 1721.93  105.21   2
  -2   0  14 1762.25  134.85   1
   1   0 -14 114.429   7.819   2
   1   0 -14 124.459   8.549   6
  -1   0  14 121.623   7.796   4
   0   0  14 5.81224 1.09720   4
   0   0 -14 6.31720 1.09241   2
   0   0 -14 8.67556 1.31784   6
  -1   0 -14 508.685  31.758   6
   1   0  14 448.832  29.133   4
  -1   0 -14 449.721  29.279   2
   2   0  14 1090.69   67.95   4
  -2   0 -14 1097.18   68.27   2
  -2   0 -14 1117.78   74.01   6
   3   0  14 125.942   8.391   4
  -3   0 -14 125.767   8.446   2
  -3   0 -14 134.955   9.192   6
  -4   0 -14 8.49129 1.58706   6
   4   0  14 9.43447 1.44071   4
  -4   0 -14 9.49187 1.49968   2
  -5   0 -14 94.4139  7.1872   6
  -5   0 -14 95.0726  6.6660   2
   5   0  14 99.4254  6.6203   4
  -6   0 -14 485.888  31.161   2
  -6   0 -14 498.016  33.704   6
   6   0  14 494.954  30.959   4
   7   0  14 11.4796  2.1817   4
  -7   0 -14 16.4884  2.4964   2
  -7   0 -14 15.0725  2.5708   6
   8   0  14 44.0557  4.2626   4
  -8   0 -14 43.1919  4.6776   6
  -8   0 -14 42.2558  4.4663   2
  -9   0 -14 35.8198  4.4812   2
  -9   0 -14 36.9378  4.8071   6
 -10   0 -14 279.024  20.587   6
  10  -1 -14 179.378  14.796   6
  10  -1 -14 199.509  13.579   2
  10   1 -14 190.235  15.088   6
  10   1 -14 201.706  13.775   2
   9  -1 -14 0.70804 2.07048   2
   9  -1 -14 1.26049 2.59325   6
   9   1 -14 0.05067 2.33766   2
   9   1 -14 2.61758 3.00324   6
   8  -1 -14 13.8328  2.8328   6
  -8  -1  14 13.4883  2.5322   4
   8  -1 -14 13.1575  2.4165   2
   8   1 -14 12.2544  2.9591   6
   8   1 -14 12.5486  2.5324   2
  -8   1  14 16.7761  2.4944   4
   7  -1 -14 29.7819  3.1244   2
   7  -1 -14 30.6451  3.6140   6
  -7  -1  14 30.2914  3.1517   4
  -7   1  14 32.2869  3.0557   4
   7   1 -14 30.3797  3.6898   6
   7   1 -14 25.7297  3.0551   2
  -6  -1  14 423.736  26.120   4
   6  -1 -14 407.995  26.187   2
   6  -1 -14 406.477  28.488   6
  -6  -1  14 438.445  33.993   1
   6   1 -14 405.581  28.507   6
  -6   1  14 454.528  26.178   4
   6   1 -14 368.010  26.134   2
  -5  -1  14 6.95576 2.78441   1
   5  -1 -14 11.1944  1.6664   2
   5  -1 -14 10.9242  1.9592   6
  -5  -1  14 11.8602  1.6417   4
   5   1 -14 9.17985 1.89616   6
   5   1 -14 8.36382 1.52872   2
  -5   1  14 9.33921 1.63233   4
  -5   1  14 13.8110  3.1850   1
  -4  -1  14 48.5860  5.6557   1
  -4  -1  14 42.8252  3.3614   4
   4  -1 -14 42.1334  3.9010   6
   4  -1 -14 43.6266  3.4834   2
  -4   1  14 47.9491  5.4416   1
   4   1 -14 43.3293  3.3895   2
  -4   1  14 47.7901  3.4538   4
  -3  -1  14 256.336  15.920   4
   3  -1 -14 233.657  16.021   2
   3  -1 -14 279.250  17.508   6
  -3  -1  14 254.054  21.358   1
   3   1 -14 233.356  15.961   2
  -3   1  14 259.644  15.980   4
   2  -1 -14 176.504  12.560   6
  -2  -1  14 175.239  15.799   1
   2  -1 -14 185.318  11.554   2
  -2  -1  14 181.156  11.427   4
   2   1 -14 171.442  11.446   2
  -2   1  14 187.693  11.523   4
  -1  -1  14 58.4202  3.8839   4
   1  -1 -14 52.5880  3.9688   2
  -1  -1  14 54.4048  6.6177   1
   1  -1 -14 60.6448  4.3604   6
  -1   1  14 55.0025  3.9609   4
   1   1 -14 53.5564  3.8880   2
   0  -1 -14 95.8383  6.7846   6
   0  -1 -14 95.0840  6.2392   2
   0  -1  14 96.2679  6.1204   4
   0  -1  14 90.1089  9.6147   1
   0   1 -14 87.8827  6.1180   2
   0   1  14 93.0870  6.2160   4
  -1  -1 -14 445.270  28.013   6
  -1  -1 -14 374.236  25.815   2
   1  -1  14 397.925  25.616   4
   1  -1  14 398.220  34.313   1
  -1   1 -14 424.872  25.758   2
   1   1  14 429.646  25.728   4
  -2  -1 -14 3.32657 1.10093   2
   2  -1  14 3.60962 0.92640   4
   2  -1  14 1.87984 3.34996   1
  -2  -1 -14 3.67441 1.16105   6
   2   1  14 4.12070 1.03847   4
  -2   1 -14 2.89529 0.95068   2
  -3  -1 -14 97.9451  6.8073   2
  -3  -1 -14 108.240   7.434   6
   3  -1  14 102.360   6.692   4
   3  -1  14 85.0907 10.5828   1
   3   1  14 104.776   6.798   4
  -3   1 -14 100.530   6.738   2
  -4  -1 -14 33.1585  3.0963   6
   4  -1  14 30.3884  2.6789   4
   4  -1  14 35.2516  6.1710   1
  -4  -1 -14 37.2338  2.9235   2
  -4   1 -14 31.3349  2.7505   2
   4   1  14 34.2175  2.8541   4
  -5  -1 -14 184.685  13.711   6
   5  -1  14 191.464  12.557   4
   5  -1  14 238.844  18.362   1
  -5  -1 -14 186.894  12.716   2
  -5   1 -14 195.449  12.683   2
   5   1  14 195.430  12.636   4
  -6  -1 -14 56.0326  4.7490   6
   6  -1  14 52.1641  4.2147   4
   6  -1  14 82.6139  8.1353   1
  -6  -1 -14 54.9294  4.4479   2
  -6   1 -14 52.3446  4.3581   2
   6   1  14 49.6377  4.2928   4
  -7  -1 -14 65.9605  5.4762   2
   7  -1  14 69.3897  5.3186   4
  -7  -1 -14 68.4416  5.7827   6
  -7   1 -14 67.4029  5.4243   2
   7   1  14 70.3430  5.3647   4
  -8  -1 -14 9.61429 2.55554   2
   8  -1  14 8.06117 2.33444   4
  -8  -1 -14 6.53077 2.39085   6
  -8   1 -14 10.1210  2.6425   2
  -8   1 -14 9.43004 2.75023   6
   8   1  14 10.2496  2.2348   4
  -9  -1 -14 20.0920  3.6323   6
  -9  -1 -14 22.4270  3.6787   2
  -9   1 -14 20.2206  3.4656   2
  -9   1 -14 26.7913  4.1596   6
 -10  -1 -14 8.01945 3.16994   2
 -10  -1 -14 7.41076 3.31560   6
 -10   1 -14 2.88215 2.87305   2
 -10   1 -14 6.64328 3.55103   6
  10  -2 -14 129.523   9.652   2
  10   2 -14 126.243  10.902   6
  10   2 -14 127.571   9.898   2
   9  -2 -14 1.73544 2.20905   2
   9  -2 -14 1.65831 2.40330   6
   9   2 -14 1.42142 2.55389   2
   8  -2 -14 254.097  19.156   6
   8  -2 -14 270.426  17.581   2
  -8  -2  14 277.241  17.699   4
   8   2 -14 270.757  17.729   2
   7  -2 -14 226.624  16.628   6
   7  -2 -14 235.759  15.248   2
  -7  -2  14 228.365  15.260   4
   7   2 -14 236.289  15.327   2
  -7   2  14 238.583  15.249   4
  -6  -2  14 278.587  18.394   4
  -6  -2  14 301.644  24.236   1
   6  -2 -14 266.212  20.112   6
   6  -2 -14 275.209  18.456   2
   6   2 -14 292.380  18.489   2
  -6   2  14 318.420  18.487   4
   5  -2 -14 55.3526  4.9647   6
  -5  -2  14 60.4834  6.6242   1
  -5  -2  14 62.6072  4.3957   4
   5  -2 -14 49.9882  4.3621   2
  -5   2  14 65.7501  4.5598   4
   5   2 -14 61.6432  4.4341   2
  -5   2  14 63.6118  6.4493   1
   4  -2 -14 202.587  13.650   2
  -4  -2  14 227.215  18.369   1
   4  -2 -14 202.214  14.866   6
  -4  -2  14 206.620  13.484   4
  -4   2  14 213.446  13.616   4
   4   2 -14 225.049  13.593   2
  -3  -2  14 238.775  15.646   4
   3  -2 -14 239.457  15.866   2
   3  -2 -14 241.230  17.229   6
  -3  -2  14 244.350  21.160   1
  -3   2  14 264.315  15.808   4
   3   2 -14 262.974  15.764   2
   2  -2 -14 695.962  43.241   2
  -2  -2  14 723.493  56.183   1
  -2  -2  14 658.184  42.891   4
   2  -2 -14 668.697  46.904   6
   2   2 -14 726.044  43.125   2
  -2   2  14 698.082  43.054   4
   1  -2 -14 68.9229  4.7881   5
   1  -2 -14 66.2701  4.6884   2
   1  -2 -14 61.7630  5.0745   6
  -1  -2  14 64.0212  7.5062   1
  -1  -2  14 67.7767  4.4578   4
   1   2 -14 67.9431  4.5020   2
  -1   2  14 66.0247  4.6434   4
   0  -2 -14 130.177   8.744   2
   0  -2  14 135.498   8.541   4
   0  -2 -14 134.889   9.488   6
   0  -2  14 131.225  12.746   1
   0  -2 -14 138.067   8.914   5
   0   2  14 135.655   8.730   4
   0   2 -14 129.657   8.560   2
  -1  -2 -14 217.330  14.689   6
   1  -2  14 199.571  18.861   1
  -1  -2 -14 220.639  13.571   2
   1  -2  14 209.189  13.321   4
   1   2  14 217.516  13.508   4
  -1   2 -14 203.274  13.380   2
  -2  -2 -14 934.635  55.520   2
   2  -2  14 760.643  71.954   1
  -2  -2 -14 920.809  60.140   6
   2  -2  14 887.148  55.056   4
   2   2  14 948.527  55.259   4
  -2   2 -14 886.942  55.329   2
  -3  -2 -14 4.23771 1.20441   2
   3  -2  14 3.63196 1.01758   4
  -3  -2 -14 6.35557 1.43797   6
   3  -2  14 3.50439 3.74643   1
  -3   2 -14 4.63836 1.10313   2
   3   2  14 3.23450 1.19208   4
  -4  -2 -14 94.6302  6.7466   2
  -4  -2 -14 100.568   7.321   6
   4  -2  14 96.7601  6.5628   4
   4  -2  14 101.852  10.754   1
   4   2  14 96.1336  6.7466   4
  -4   2 -14 104.930   6.679   2
   5  -2  14 215.516  13.797   4
  -5  -2 -14 208.296  14.036   2
  -5  -2 -14 216.635  15.174   6
   5   2  14 222.697  13.977   4
  -5   2 -14 217.242  13.948   2
   6  -2  14 548.716  34.857   4
  -6  -2 -14 556.187  38.071   6
  -6  -2 -14 551.416  35.176   2
  -6   2 -14 541.842  35.092   2
   6   2  14 590.568  35.031   4
  -7  -2 -14 91.0573  7.1100   6
  -7  -2 -14 88.8521  6.6897   2
   7  -2  14 86.6948  6.4687   4
   7   2  14 90.9398  6.5991   4
  -7   2 -14 83.6439  6.5581   2
  -8  -2 -14 75.8741  6.2512   6
  -8  -2 -14 70.7030  5.9167   2
  -8   2 -14 66.2296  5.9891   2
  -9  -2 -14 243.238  17.772   6
  -9   2 -14 242.625  16.579   2
  10  -3 -14 95.7487  7.6554   2
   9  -3 -14 1.46452 2.46147   6
   9  -3 -14 2.58843 2.32761   2
   9   3 -14 3.93584 2.65121   2
   8  -3 -14 140.740   9.322   2
   8  -3 -14 127.594  10.158   6
   8   3 -14 123.333   9.541   2
   7  -3 -14 69.0270  6.1087   6
   7  -3 -14 73.0425  5.5135   2
  -7  -3  14 65.8689  5.5983   4
   7   3 -14 76.0276  5.7754   2
   6  -3 -14 186.201  13.764   6
  -6  -3  14 201.585  16.923   1
  -6  -3  14 185.240  12.610   4
   6  -3 -14 196.628  12.644   2
   6   3 -14 192.383  12.661   2
  -5  -3  14 3.50833 1.38110   4
   5  -3 -14 5.54960 1.75427   6
   5  -3 -14 5.44313 1.48375   2
  -5  -3  14 5.50091 3.01834   1
   5   3 -14 4.20782 1.45613   2
  -5   3  14 4.63364 1.49720   4
  -4  -3  14 156.184  13.869   1
   4  -3 -14 155.254  10.945   6
   4  -3 -14 149.585  10.039   2
  -4  -3  14 149.983   9.840   4
   4   3 -14 151.956   9.899   2
  -4   3  14 151.842  10.000   4
   3  -3 -14 238.964  16.436   6
  -3  -3  14 226.117  14.843   4
   3  -3 -14 234.820  15.136   2
  -3  -3  14 224.536  20.336   1
  -3   3  14 251.448  15.074   4
  -3   3  14 231.616  16.348   6
   3   3 -14 240.998  14.957   2
   2  -3 -14 269.426  17.846   2
  -2  -3  14 279.421  24.024   1
   2  -3 -14 290.014  19.441   6
  -2  -3  14 269.129  17.580   4
  -2   3  14 294.486  19.378   6
  -2   3  14 296.289  17.826   4
   2   3 -14 272.807  17.685   2
   1  -3 -14 19.6337  2.3166   6
  -1  -3  14 22.0455  1.8437   4
  -1  -3  14 18.9940  4.5286   1
   1  -3 -14 23.0228  2.1802   2
   1  -3 -14 25.6003  2.4298   5
  -1   3  14 21.6179  2.3621   6
  -1   3  14 20.2061  2.1735   4
   1   3 -14 24.3716  1.9171   2
   0  -3 -14 64.5280  4.3669   2
   0  -3  14 59.3294  4.0596   4
   0  -3 -14 64.2788  4.5923   5
   0  -3 -14 55.8576  4.6800   6
   0  -3  14 56.4384  7.4392   1
   0   3 -14 61.7353  4.0858   2
   0   3  14 63.6873  4.3546   4
   0   3  14 55.8149  4.6943   6
   1  -3  14 383.866  33.906   1
  -1  -3 -14 408.557  25.324   2
   1  -3  14 401.182  24.962   4
  -1  -3 -14 419.057  25.423   5
  -1  -3 -14 383.307  27.435   6
  -1   3 -14 425.098  25.106   2
   1   3  14 404.588  25.227   4
   1   3  14 389.338  27.455   6
  -2  -3 -14 234.970  15.915   6
  -2  -3 -14 228.309  14.712   2
   2  -3  14 218.204  20.582   1
   2  -3  14 229.897  14.355   4
  -2   3 -14 230.304  14.437   2
   2   3  14 227.643  14.627   4
   3  -3  14 14.7321  4.8764   1
  -3  -3 -14 18.5801  1.9978   2
  -3  -3 -14 18.7015  2.1645   6
   3  -3  14 15.5202  1.5987   4
   3   3  14 17.0758  1.9548   4
  -3   3 -14 16.4881  1.7325   2
   4  -3  14 6.70708 4.04629   1
  -4  -3 -14 5.99419 1.50612   2
   4  -3  14 5.14638 1.10978   4
  -4  -3 -14 4.97288 1.53892   6
   4   3  14 6.10723 1.43080   4
  -4   3 -14 5.82641 1.25957   2
   5  -3  14 334.801  20.787   4
  -5  -3 -14 321.646  22.836   6
  -5  -3 -14 320.281  21.098   2
  -5   3 -14 345.724  20.972   2
   5   3  14 329.952  21.005   4
  -6  -3 -14 152.274  11.456   6
   6  -3  14 155.571  10.327   4
  -6  -3 -14 161.006  10.657   2
  -6   3 -14 159.425  10.506   2
  -7  -3 -14 4.27078 1.91986   2
  -7  -3 -14 7.35193 2.07313   6
   7  -3  14 5.97403 1.80352   4
  -7   3 -14 3.35957 1.97555   2
  -8  -3 -14 4.02637 2.21228   6
  -8  -3 -14 5.03904 2.26157   2
  -8   3 -14 2.96498 2.20409   2
  -9  -3 -14 178.581  13.128   6
  -9   3 -14 162.060  11.983   2
   9  -4 -14 57.4426  6.0332   6
   9   4 -14 66.1192  5.8963   2
   8  -4 -14 169.661  13.203   6
   8  -4 -14 178.997  12.139   2
   8   4 -14 184.000  12.570   2
   7  -4 -14 54.2788  5.3455   6
   7  -4 -14 62.1371  4.9065   2
  -7  -4  14 66.9448  7.1315   1
   7   4 -14 63.3084  5.3500   2
  -7   4  14 60.1666  5.2494   6
  -6  -4  14 52.1761  6.2120   1
   6  -4 -14 43.4388  3.7469   2
   6  -4 -14 39.7219  4.0395   6
  -6  -4  14 42.2685  4.0661   4
  -6   4  14 45.9907  4.1437   6
   6   4 -14 44.1700  4.0134   2
  -5  -4  14 21.7124  4.3403   1
   5  -4 -14 22.8598  2.4827   2
  -5  -4  14 20.9885  2.4480   4
   5  -4 -14 24.3993  2.6760   6
  -5   4  14 17.6153  2.5790   6
   5   4 -14 20.4991  2.4347   2
   4  -4 -14 117.994   8.993   6
  -4  -4  14 127.941  11.764   1
  -4  -4  14 121.909   8.109   4
   4  -4 -14 131.301   8.351   2
   4   4 -14 117.929   8.128   2
  -4   4  14 122.075   8.959   6
  -3  -4  14 53.5906  7.0961   1
   3  -4 -14 63.5897  4.6599   2
   3  -4 -14 58.2462  4.9390   6
  -3  -4  14 59.5551  4.2934   4
  -3   4  14 67.0867  5.0199   6
   3   4 -14 65.0927  4.3414   2
  -2  -4  14 107.279   7.681   4
   2  -4 -14 120.038   8.731   6
  -2  -4  14 116.204  11.782   1
   2  -4 -14 124.623   8.073   2
  -2   4  14 125.159   8.736   6
   2   4 -14 127.744   7.799   2
  -1  -4  14 35.3425  2.6562   4
   1  -4 -14 37.7826  3.3501   6
   1  -4 -14 34.7580  3.1900   5
   1  -4 -14 38.3491  3.1120   2
  -1  -4  14 31.9177  5.8323   1
  -1   4  14 34.5941  3.3225   6
  -1   4  14 40.6126  3.0740   4
   1   4 -14 40.8687  2.7457   2
   0  -4  14 88.1882  5.8535   4
   0  -4 -14 86.3287  6.2684   2
   0  -4  14 84.5950 10.0776   1
   0  -4 -14 90.9044  6.4264   5
   0  -4 -14 87.8142  6.7579   6
   0   4  14 91.0886  6.8050   6
   0   4  14 93.7454  6.2644   4
   0   4 -14 100.314   5.937   2
   1  -4  14 47.8405  3.4041   4
  -1  -4 -14 50.0648  4.2221   6
   1  -4  14 43.8472  7.4487   1
  -1  -4 -14 55.2018  3.9415   2
  -1  -4 -14 48.3327  4.0448   5
   1   4  14 52.8377  3.9481   4
  -1   4 -14 52.0407  3.4812   2
   1   4  14 49.6776  4.2228   6
  -2  -4 -14 198.594  13.301   5
   2  -4  14 212.848  12.715   4
  -2  -4 -14 198.626  14.190   6
  -2  -4 -14 204.739  13.115   2
   2  -4  14 174.665  18.675   1
  -2   4 -14 209.274  12.790   2
   2   4  14 203.582  14.261   6
   3  -4  14 128.405  15.134   1
  -3  -4 -14 158.819  10.664   5
  -3  -4 -14 153.873  10.276   2
   3  -4  14 156.135   9.861   4
  -3  -4 -14 152.260  11.109   6
  -3   4 -14 162.668   9.959   2
   3   4  14 161.596  11.228   6
  -4  -4 -14 119.949   8.366   2
   4  -4  14 145.178  13.427   1
  -4  -4 -14 126.974   9.122   6
   4  -4  14 121.730   7.999   4
  -4   4 -14 117.197   8.095   2
   4   4  14 128.205   9.273   6
  -5  -4 -14 45.7880  3.8409   2
   5  -4  14 44.6771  3.4103   4
  -5  -4 -14 48.6095  4.1291   6
   5  -4  14 51.2398  7.6061   1
  -5   4 -14 41.6357  3.4686   2
   5   4  14 46.7032  4.6010   6
  -6  -4 -14 150.797  10.766   2
  -6  -4 -14 165.388  11.796   6
   6  -4  14 160.744  10.521   4
  -6   4 -14 164.679  10.687   2
  -7  -4 -14 269.001  18.613   6
  -7  -4 -14 277.959  17.319   2
  -7   4 -14 240.527  17.054   2
  -8  -4 -14 170.997  11.138   2
  -8  -4 -14 158.955  11.818   6
  -8   4 -14 137.001  10.722   2
  -9  -4 -14 38.2064  4.4399   2
  -9   4 -14 34.0604  4.1957   2
   8  -5 -14 145.902  11.260   6
   8   5 -14 149.935  10.733   2
  -8   5  14 148.846  11.196   6
   7  -5 -14 143.314  11.132   6
  -7  -5  14 169.459  14.311   1
  -7   5  14 146.891  11.023   6
   7   5 -14 143.822  10.606   2
   6  -5 -14 10.7370  2.2599   6
  -6  -5  14 13.7817  3.9413   1
  -6  -5  14 13.8552  2.6979   4
   6  -5 -14 14.9358  2.3070   2
  -6   5  14 19.9151  2.5498   6
   6   5 -14 10.7704  2.6467   2
   5  -5 -14 1.88261 1.55600   6
  -5  -5  14 1.91773 3.06818   1
  -5  -5  14 3.20598 1.84267   4
   5  -5 -14 2.04570 1.59596   2
  -5   5  14 3.33877 1.68019   6
   5   5 -14 -0.5887  1.5765   2
   4  -5 -14 69.2115  5.6598   6
   4  -5 -14 70.5385  5.2054   2
  -4  -5  14 67.8932  5.1982   4
  -4  -5  14 65.5498  7.9216   1
   4   5 -14 71.9168  5.1013   2
  -4   5  14 72.4486  5.6231   6
  -3  -5  14 189.822  17.425   1
  -3  -5  14 184.332  12.306   4
   3  -5 -14 191.122  13.612   6
   3   5 -14 203.113  12.343   2
  -3   5  14 192.840  13.625   6
   2  -5 -14 94.5432  7.1678   6
  -2  -5  14 92.6067  6.2381   4
   2  -5 -14 97.6774  6.6550   2
   2  -5 -14 106.339   6.666   5
  -2  -5  14 88.7171 10.1410   1
  -2   5  14 85.4591  7.1038   6
   2   5 -14 99.4230  6.2719   2
  -1  -5  14 5.45026 0.93519   4
  -1  -5  14 6.99573 4.05432   1
   1  -5 -14 10.5814  1.7160   2
   1  -5 -14 6.65848 1.56651   6
   1  -5 -14 6.49989 1.61708   5
   1   5 -14 9.92605 1.11195   2
  -1   5  14 5.38181 1.62641   6
   0  -5 -14 12.1738  1.9478   5
   0  -5 -14 5.76736 1.50743   2
   0  -5 -14 8.49628 1.75241   6
   0  -5  14 12.8360  4.6357   1
   0  -5  14 7.78140 0.95493   4
   0   5  14 9.42774 1.79580   6
   1  -5  14 139.992  14.896   1
  -1  -5 -14 151.711   9.820   2
  -1  -5 -14 137.371  10.585   6
  -1  -5 -14 153.938   9.999   5
   1  -5  14 152.716   9.304   4
   1   5  14 148.445  10.648   6
   2  -5  14 232.891  14.599   4
   2  -5  14 186.575  21.184   1
  -2  -5 -14 247.628  15.161   2
  -2  -5 -14 232.194  16.395   6
   2   5  14 238.563  16.431   6
  -2   5 -14 247.215  14.711   2
   3  -5  14 0.96450 0.78603   4
  -3  -5 -14 1.07195 1.43753   6
  -3  -5 -14 2.16309 1.38765   2
   3  -5  14 9.29528 4.66042   1
   3   5  14 0.92969 1.58003   6
  -3   5 -14 3.43940 0.95348   2
   4  -5  14 58.0919  4.2195   4
  -4  -5 -14 63.9547  4.7849   2
   4  -5  14 82.9996  9.3968   1
  -4  -5 -14 63.9732  5.1526   6
  -4   5 -14 62.2673  4.3692   2
   4   5  14 61.0840  5.2809   6
   5  -5  14 109.042   7.729   4
  -5  -5 -14 117.563   8.260   2
  -5  -5 -14 120.676   8.956   6
   5  -5  14 151.875  12.964   1
   5   5  14 127.843   9.164   6
  -5   5 -14 111.867   7.877   2
  -6  -5 -14 226.808  14.259   2
  -6  -5 -14 212.846  15.417   6
  -6   5 -14 196.643  13.924   2
   6   5  14 228.025  15.737   6
  -7  -5 -14 13.8232  2.7118   6
   7   5  14 20.4064  3.5253   6
  -7   5 -14 16.6480  2.4669   2
  -8  -5 -14 15.1523  3.0212   6
  -8   5 -14 13.2656  2.6652   2
   8   6 -14 26.1291  3.4204   2
  -8   6  14 24.0514  3.5184   6
  -7  -6  14 1.80269 3.71181   1
   7  -6 -14 1.47359 1.99154   6
  -7   6  14 1.67290 1.83265   6
   7   6 -14 0.80182 2.19063   2
  -6  -6  14 17.2716  4.3187   1
   6  -6 -14 10.4018  2.3825   6
   6   6 -14 15.5572  2.7316   2
  -6   6  14 8.82031 2.24648   6
   5  -6 -14 577.232  40.642   6
  -5   6  14 650.647  40.682   6
   5   6 -14 559.186  37.669   2
   4  -6 -14 85.2008  6.8735   6
  -4  -6  14 94.0000  6.8214   4
  -4  -6  14 98.8456  9.8391   1
  -4   6  14 81.7955  6.7997   6
   4   6 -14 91.6149  6.5532   2
  -3  -6  14 11.3701  4.3096   1
   3  -6 -14 11.8088  2.0468   6
  -3  -6  14 15.5947  2.3780   4
  -3   6  14 10.6141  2.0820   6
   2  -6 -14 2.37000 1.53998   6
  -2  -6  14 2.11480 3.50158   1
   2  -6 -14 0.20045 1.40509   2
  -2  -6  14 4.02637 1.51266   4
  -2   6  14 0.97732 1.50548   6
  -1  -6  14 946.179  58.639   4
   1  -6 -14 957.497  64.253   6
  -1  -6  14 927.409  77.397   1
   1  -6 -14 962.803  59.287   2
  -1   6  14 960.442  64.237   6
   0  -6  14 151.130  16.046   1
   0  -6  14 158.562  10.034   4
   0  -6 -14 153.880  11.511   6
   0  -6 -14 176.022  10.754   2
   0   6  14 160.694  11.528   6
   1  -6  14 11.0902  5.1641   1
   1  -6  14 7.53153 0.83896   4
  -1  -6 -14 6.74273 1.71396   2
  -1  -6 -14 7.76971 1.76848   6
   1   6  14 9.34490 1.89521   6
   2  -6  14 42.4175  8.0512   1
   2  -6  14 50.6501  3.3230   4
  -2  -6 -14 54.6512  4.0760   2
  -2  -6 -14 48.2015  4.3896   6
   2   6  14 51.9808  4.4052   6
  -3  -6 -14 439.049  29.762   6
   3  -6  14 425.950  37.401   1
   3  -6  14 453.142  26.806   4
   3   6  14 411.403  29.780   6
  -4  -6 -14 173.239  12.721   6
   4  -6  14 227.164  18.037   1
   4  -6  14 163.818  11.090   4
   4   6  14 176.296  12.786   6
  -5  -6 -14 4.02468 1.84801   6
  -5   6 -14 2.26038 1.27388   2
   5   6  14 7.03218 2.20601   6
  -6  -6 -14 65.3496  5.8715   6
  -6   6 -14 64.4131  4.9237   2
   6   6  14 73.6061  6.0962   6
  -7  -6 -14 89.0565  7.2092   6
   7   6  14 93.3383  7.7006   6
  -7   6 -14 78.4032  6.2667   2
  -7  -7  14 27.2707  6.1299   1
   7   7 -14 29.5812  3.2112   2
  -6  -7  14 148.045  13.928   1
   6  -7 -14 134.662  10.397   6
  -6   7  14 139.229  10.432   6
  -5  -7  14 20.8390  5.1890   1
   5  -7 -14 17.5827  2.7198   6
  -5   7  14 20.9315  2.8305   6
   4  -7 -14 14.8372  2.3190   6
  -4  -7  14 17.1861  4.9280   1
  -4   7  14 13.1410  2.4077   6
  -3  -7  14 164.156  12.252   4
   3  -7 -14 194.558  13.767   6
  -3  -7  14 205.039  18.363   1
  -3   7  14 221.890  13.920   6
  -2  -7  14 45.3029  7.5123   1
   2  -7 -14 43.8218  4.0050   6
  -2   7  14 40.6257  3.9684   6
  -1  -7  14 5.19440 5.08548   1
   1  -7 -14 1.50366 1.48592   6
  -1   7  14 1.41370 1.65464   6
   0  -7  14 14.2432  5.8271   1
   0  -7 -14 10.3029  2.0677   6
   0   7  14 14.0671  2.1608   6
   1  -7  14 283.768  26.407   1
  -1  -7 -14 270.525  19.959   6
   1   7  14 305.698  20.030   6
  -2  -7 -14 31.0462  3.2169   6
   2  -7  14 29.2967  7.5943   1
   2   7  14 32.9193  3.3077   6
  -3  -7 -14 7.78659 2.03925   6
   3  -7  14 6.84510 5.79427   1
   3   7  14 8.44155 2.13737   6
   4  -7  14 5.68084 0.86470   4
   4  -7  14 0.66008 5.24544   1
  -4  -7 -14 4.98125 1.84363   6
   4   7  14 6.07252 2.06850   6
  -5  -7 -14 109.410   8.329   6
   5   7  14 101.497   8.274   6
  -6  -7 -14 90.8565  7.5821   6
   6   7  14 94.6401  7.7334   6
  -5  -8  14 253.344  23.134   1
   4  -8 -14 81.3779  6.5267   6
  -4  -8  14 86.3742 10.0423   1
  -4   8  14 77.1939  6.4896   6
   3  -8 -14 30.1938  3.3095   6
  -3  -8  14 34.5623  7.2330   1
  -3   8  14 32.1439  3.5510   6
  -2  -8  14 158.727  15.791   1
   2  -8 -14 136.353  10.673   6
  -2   8  14 149.982  10.716   6
  -1  -8  14 91.2591 11.7770   1
   1  -8 -14 87.8187  6.9154   6
  -1   8  14 88.0270  6.9077   6
   0  -8 -14 166.922  12.464   6
   0  -8  14 188.383  18.831   1
   0   8  14 174.351  12.489   6
  -1  -8 -14 6.08301 1.90161   6
   1  -8  14 5.12260 5.66136   1
   1   8  14 2.87700 1.74284   6
   2  -8  14 97.7954 12.4986   1
  -2  -8 -14 88.0153  7.1777   6
   2   8  14 93.8187  7.2596   6
   3  -8  14 68.3311 10.3034   1
  -3  -8 -14 37.2325  4.0452   6
   3   8  14 46.7269  4.3176   6
  -4  -8 -14 138.870  10.688   6
   4   8  14 147.570  10.773   6
   2  -9 -14 66.6428  5.6213   6
   1  -9 -14 71.8536  6.0740   6
  -1  -9  14 87.2259 12.6789   1
   0  -9 -14 5.44808 1.97379   6
   0  -9  14 -0.3006  6.1927   1
   0   9  14 3.59229 1.86741   6
  -1  -9 -14 13.5933  2.4529   6
   1  -9  14 7.00691 7.30881   1
   2  -9  14 35.7719  9.2652   1
   3  -9  14 151.753  17.396   1
   9   0 -15 -2.2991  2.2487   2
   9   0 -15 -1.1500  2.6007   6
   8   0 -15 1.75213 2.26465   6
   8   0 -15 2.08930 1.98172   2
   7   0 -15 1.11564 1.64631   2
  -7   0  15 0.10701 1.53841   4
   7   0 -15 -0.2001  1.8945   6
   6   0 -15 0.16377 1.65632   6
  -6   0  15 2.20692 1.37298   4
   6   0 -15 1.89352 1.46047   2
   5   0 -15 0.25813 1.47689   6
   5   0 -15 0.37740 1.25156   2
  -5   0  15 2.06332 1.29476   4
  -5   0  15 2.76763 2.72422   1
   4   0 -15 1.35537 1.41679   6
   4   0 -15 0.51582 1.14574   2
  -4   0  15 -0.8961  2.3342   1
  -4   0  15 1.32692 1.15630   4
  -3   0  15 2.56219 1.11233   4
   3   0 -15 2.40672 1.33497   6
   3   0 -15 1.86042 1.09768   2
  -3   0  15 1.11217 2.53545   1
   2   0 -15 -0.3750  1.1533   6
  -2   0  15 0.59242 0.97765   4
  -2   0  15 3.17850 2.79592   1
   2   0 -15 -0.6409  0.9041   2
  -1   0  15 -1.7711  2.6307   1
  -1   0  15 0.62182 0.90877   4
   1   0 -15 0.25141 0.93344   2
   1   0 -15 1.63383 1.11802   6
   0   0 -15 3.22622 0.98681   2
   0   0  15 -0.3619  0.8938   4
   0   0 -15 1.15457 1.07031   6
   1   0  15 1.67949 0.96567   4
  -1   0 -15 2.85389 1.09444   2
  -1   0 -15 3.11857 1.22413   6
  -2   0 -15 0.79070 1.09468   6
  -2   0 -15 0.41578 0.94419   2
   2   0  15 0.30757 0.92929   4
  -3   0 -15 0.48743 1.02165   2
  -3   0 -15 0.55908 1.15823   6
   3   0  15 0.64918 0.99495   4
  -4   0 -15 1.29993 1.27782   6
   4   0  15 2.22453 1.12266   4
  -4   0 -15 1.76370 1.17740   2
  -5   0 -15 0.65091 1.26090   2
  -5   0 -15 2.64543 1.47741   6
   5   0  15 1.45334 1.23968   4
  -6   0 -15 -0.3783  1.4501   2
  -6   0 -15 -0.4936  1.5646   6
   6   0  15 1.37133 1.33029   4
   7   0  15 -1.5916  1.6426   4
  -7   0 -15 4.93486 2.11112   6
  -7   0 -15 3.07054 1.85638   2
  -8   0 -15 0.98713 2.26829   6
  -8   0 -15 -1.1385  2.0684   2
  -9   0 -15 2.69537 2.48939   2
  -9   0 -15 0.17594 2.52500   6
   9  -1 -15 14.4971  3.5561   6
   9  -1 -15 18.2995  3.0344   2
   9   1 -15 21.4775  3.8352   6
   9   1 -15 18.4907  3.2631   2
   8  -1 -15 320.149  22.572   6
   8  -1 -15 303.251  20.646   2
   8   1 -15 327.681  22.705   6
   8   1 -15 323.242  20.763   2
   7  -1 -15 113.354   9.223   6
  -7  -1  15 126.103   8.467   4
   7  -1 -15 128.720   8.472   2
   7   1 -15 123.486   9.359   6
  -7   1  15 119.235   8.421   4
   7   1 -15 112.410   8.377   2
   6  -1 -15 2.65398 1.55310   2
   6  -1 -15 5.28441 1.97077   6
  -6  -1  15 3.03264 2.71229   1
  -6  -1  15 5.79504 1.53633   4
  -6   1  15 4.70566 1.52791   4
   6   1 -15 2.75427 1.53136   2
  -5  -1  15 20.3360  3.8551   1
   5  -1 -15 14.7805  2.0015   2
   5  -1 -15 16.5455  2.4559   6
  -5  -1  15 18.8488  2.0677   4
   5   1 -15 15.0576  1.9753   2
  -5   1  15 22.6745  3.8881   1
  -5   1  15 17.4367  2.1074   4
  -4  -1  15 303.592  20.263   4
   4  -1 -15 315.074  20.430   2
  -4  -1  15 328.519  26.873   1
   4  -1 -15 299.039  22.177   6
  -4   1  15 355.216  27.026   1
   4   1 -15 322.313  20.394   2
  -4   1  15 340.817  20.374   4
  -3  -1  15 160.105  10.628   4
   3  -1 -15 157.743  10.753   2
   3  -1 -15 174.596  11.747   6
  -3  -1  15 172.399  14.846   1
   3   1 -15 151.789  10.664   2
  -3   1  15 173.196  10.737   4
  -3   1  15 175.643  14.768   1
   2  -1 -15 19.7510  2.2495   6
   2  -1 -15 19.1273  1.9597   2
  -2  -1  15 18.2991  1.8007   4
  -2  -1  15 18.6936  3.9973   1
  -2   1  15 17.5585  1.8488   4
   2   1 -15 17.5021  1.7902   2
   1  -1 -15 32.9336  3.0261   6
   1  -1 -15 34.5693  2.7723   2
  -1  -1  15 37.0561  5.4626   1
  -1  -1  15 32.7371  2.6217   4
  -1   1  15 34.1249  2.7273   4
   1   1 -15 33.4795  2.6614   2
   0  -1 -15 222.959  14.381   2
   0  -1  15 226.124  14.239   4
   0  -1  15 226.719  19.999   1
   0  -1 -15 234.845  15.636   6
   0   1  15 236.471  14.342   4
   0   1 -15 208.908  14.275   2
   1  -1  15 179.991  17.986   1
  -1  -1 -15 214.174  13.924   6
   1  -1  15 209.340  12.686   4
  -1  -1 -15 194.766  12.790   2
  -1   1 -15 183.705  12.716   2
   1   1  15 209.864  12.782   4
  -2  -1 -15 65.3106  4.4676   2
   2  -1  15 61.0235  4.2812   4
   2  -1  15 47.8871  7.7767   1
  -2  -1 -15 62.3607  4.8065   6
  -2   1 -15 60.4996  4.2794   2
   2   1  15 63.0910  4.3728   4
   3  -1  15 11.8882  4.4238   1
  -3  -1 -15 10.1334  1.5142   2
  -3  -1 -15 8.39716 1.63589   6
   3  -1  15 8.97612 1.36908   4
  -3   1 -15 8.41963 1.35607   2
   3   1  15 8.61859 1.47950   4
  -4  -1 -15 205.022  14.080   2
  -4  -1 -15 235.899  15.334   6
   4  -1  15 225.599  20.092   1
   4  -1  15 224.170  13.976   4
  -4   1 -15 210.248  14.032   2
   4   1  15 216.992  14.040   4
   5  -1  15 130.207   8.674   4
  -5  -1 -15 134.565   9.549   6
  -5  -1 -15 122.553   8.801   2
   5   1  15 132.061   8.754   4
  -5   1 -15 134.324   8.786   2
   6  -1  15 49.3734  4.0619   4
  -6  -1 -15 54.8932  4.2552   2
  -6  -1 -15 54.2114  4.6337   6
  -6   1 -15 48.5890  4.1842   2
   6   1  15 49.6056  4.1962   4
  -7  -1 -15 96.3021  7.2207   6
   7  -1  15 82.2950  6.4192   4
  -7  -1 -15 92.9427  6.6741   2
  -7   1 -15 85.7780  6.6001   2
   7   1  15 87.5730  6.5019   4
  -8  -1 -15 318.106  21.563   6
  -8  -1 -15 287.911  19.892   2
  -9  -1 -15 47.9573  4.9533   2
  -9  -1 -15 53.2658  5.3901   6
  -9   1 -15 40.2984  4.9927   2
   9  -2 -15 44.7336  5.0045   6
   9  -2 -15 43.0974  4.5098   2
   9   2 -15 43.2080  4.9003   2
   8  -2 -15 85.5939  6.3974   2
   8  -2 -15 74.2699  7.0493   6
   8   2 -15 85.2188  6.6212   2
  -7  -2  15 5.61945 1.86736   4
   7  -2 -15 4.86824 1.84619   2
   7  -2 -15 6.34876 2.26168   6
   7   2 -15 6.68785 1.93884   2
  -6  -2  15 283.338  22.490   1
  -6  -2  15 255.957  16.925   4
   6  -2 -15 255.364  18.562   6
   6  -2 -15 240.780  16.950   2
  -6   2  15 289.270  17.049   4
   6   2 -15 262.504  17.021   2
  -5  -2  15 50.2458  5.9945   1
  -5  -2  15 44.5548  3.7910   4
   5  -2 -15 45.9908  4.3147   6
   5  -2 -15 48.9064  3.9328   2
   5   2 -15 46.2369  3.8239   2
  -5   2  15 54.3814  6.0910   1
  -5   2  15 55.7310  3.9539   4
   4  -2 -15 48.0115  3.7311   2
   4  -2 -15 51.8180  4.2329   6
  -4  -2  15 45.0816  5.9262   1
  -4  -2  15 45.0637  3.5833   4
  -4   2  15 50.7640  3.7676   4
   4   2 -15 45.8553  3.6289   2
  -3  -2  15 10.3487  1.3997   4
   3  -2 -15 10.7917  1.7903   6
  -3  -2  15 12.9917  3.4823   1
   3  -2 -15 7.44118 1.57378   2
   3   2 -15 8.16622 1.41019   2
  -3   2  15 9.14033 1.54335   4
  -2  -2  15 210.903  17.690   1
   2  -2 -15 193.392  12.781   2
   2  -2 -15 200.983  13.941   6
  -2  -2  15 204.244  12.619   4
  -2   2  15 202.025  12.769   4
   2   2 -15 187.861  12.658   2
   1  -2 -15 45.6744  3.3633   2
  -1  -2  15 43.6355  3.1517   4
   1  -2 -15 41.4505  3.6211   6
  -1  -2  15 39.4254  6.1468   1
   1   2 -15 42.6983  3.1983   2
  -1   2  15 44.5859  3.3189   4
   0  -2 -15 36.9213  3.2190   6
   0  -2 -15 38.1484  3.2459   5
   0  -2  15 36.3715  2.6893   4
   0  -2  15 37.6941  5.9357   1
   0  -2 -15 34.2134  2.9088   2
   0   2  15 35.5362  2.8887   4
   0   2 -15 33.8672  2.6934   2
   1  -2  15 5.95570 3.69812   1
  -1  -2 -15 4.30126 1.26888   2
  -1  -2 -15 5.58510 1.36988   6
   1  -2  15 5.01883 1.03416   4
   1   2  15 5.23007 1.26869   4
  -1   2 -15 5.47533 1.08704   2
   2  -2  15 76.5574  9.3482   1
   2  -2  15 84.2271  5.4788   4
  -2  -2 -15 85.1623  5.7531   2
  -2  -2 -15 75.9804  6.1346   6
   2   2  15 84.6099  5.6994   4
  -2   2 -15 81.4444  5.4744   2
   3  -2  15 63.1807  4.3042   4
  -3  -2 -15 60.3966  4.8749   6
  -3  -2 -15 60.2429  4.5390   2
   3  -2  15 55.4321  7.9541   1
   3   2  15 66.3790  4.5237   4
  -3   2 -15 60.7744  4.3422   2
  -4  -2 -15 188.916  12.285   2
  -4  -2 -15 199.586  13.345   6
   4  -2  15 189.008  17.677   1
   4  -2  15 182.364  12.045   4
   4   2  15 189.905  12.261   4
  -4   2 -15 183.082  12.132   2
   5  -2  15 6.62178 1.38218   4
  -5  -2 -15 5.32037 1.69303   6
  -5  -2 -15 8.15338 1.74487   2
   5  -2  15 18.5618  4.9117   1
  -5   2 -15 7.06785 1.54273   2
   5   2  15 8.11644 1.71343   4
   6  -2  15 47.3298  3.7416   4
  -6  -2 -15 43.7153  4.0240   2
   6  -2  15 72.0751  7.6113   1
  -6  -2 -15 47.4615  4.3833   6
  -6   2 -15 42.3729  3.8224   2
   6   2  15 47.2045  4.0265   4
  -7  -2 -15 125.471   9.122   6
  -7  -2 -15 110.479   8.437   2
   7   2  15 123.036   8.389   4
  -7   2 -15 112.496   8.360   2
  -8  -2 -15 97.8075  7.9546   6
  -8  -2 -15 94.0175  7.4114   2
  -9  -2 -15 24.4495  3.7467   6
  -9  -2 -15 16.8512  3.6093   2
  -9   2 -15 18.7527  3.3115   2
   9  -3 -15 47.7990  4.8027   2
   8  -3 -15 7.43725 2.43189   6
   8  -3 -15 4.87618 2.17286   2
   8   3 -15 9.77333 2.64780   2
   7  -3 -15 5.41666 2.20480   6
   7  -3 -15 7.76026 2.00807   2
   7   3 -15 7.89327 2.31850   2
  -6  -3  15 64.5667  5.1134   4
   6  -3 -15 66.1846  5.1185   2
   6  -3 -15 63.7314  5.5437   6
  -6  -3  15 69.3030  7.3989   1
   6   3 -15 69.0913  5.1642   2
   5  -3 -15 31.6040  2.9915   2
   5  -3 -15 28.9752  3.2731   6
  -5  -3  15 27.7430  2.7807   4
  -5  -3  15 28.9698  4.9650   1
   5   3 -15 32.8449  2.9110   2
  -4  -3  15 5.94630 1.28548   4
   4  -3 -15 3.85440 1.39926   2
  -4  -3  15 3.72542 3.10425   1
   4  -3 -15 4.02976 1.66077   6
   4   3 -15 6.60897 1.42275   2
  -4   3  15 4.55196 1.46770   4
   3  -3 -15 1.43564 1.33352   6
   3  -3 -15 1.05691 1.22145   2
  -3  -3  15 1.76060 1.00230   4
  -3  -3  15 1.64339 2.98155   1
  -3   3  15 -1.7284  1.0915   4
   3   3 -15 1.71485 1.06286   2
   2  -3 -15 157.613  10.242   2
   2  -3 -15 143.904  11.088   6
  -2  -3  15 157.746   9.973   4
  -2  -3  15 154.085  14.503   1
  -2   3  15 162.616  10.220   4
   2   3 -15 159.501  10.057   2
   1  -3 -15 288.564  20.387   6
  -1  -3  15 301.209  18.471   4
   1  -3 -15 292.503  18.799   2
  -1  -3  15 271.333  25.326   1
  -1   3  15 325.919  18.751   4
   1   3 -15 288.376  18.570   2
   0  -3 -15 27.7744  2.5259   2
   0  -3 -15 25.4757  2.7224   5
   0  -3  15 25.3597  2.1027   4
   0  -3 -15 26.8249  2.7227   6
   0  -3  15 28.5540  5.4740   1
   0   3  15 25.6097  2.4366   4
   0   3 -15 27.8353  2.1648   2
   1  -3  15 28.0192  2.2086   4
  -1  -3 -15 28.8361  2.8790   6
   1  -3  15 32.8059  5.9086   1
  -1  -3 -15 24.4099  2.8072   5
  -1  -3 -15 31.5960  2.6824   2
   1   3  15 28.0445  2.5838   4
  -1   3 -15 27.6295  2.2641   2
  -2  -3 -15 89.1084  5.9457   2
  -2  -3 -15 85.3610  6.3820   6
   2  -3  15 82.6038  5.5379   4
   2  -3  15 69.5034  9.5115   1
  -2   3 -15 83.8346  5.5726   2
   2   3  15 85.5765  5.8723   4
   3  -3  15 244.339  15.073   4
   3  -3  15 194.957  21.274   1
  -3  -3 -15 235.578  16.694   6
  -3  -3 -15 237.964  15.440   2
   3   3  15 260.081  15.405   4
  -3   3 -15 246.851  15.177   2
  -4  -3 -15 160.181  10.896   2
  -4  -3 -15 156.003  11.762   6
   4  -3  15 154.722  10.566   4
   4  -3  15 177.941  16.156   1
   4   3  15 181.350  10.962   4
  -4   3 -15 170.314  10.691   2
   5  -3  15 131.215   8.999   4
  -5  -3 -15 138.851  10.121   6
  -5  -3 -15 139.292   9.351   2
   5   3  15 140.832   9.311   4
  -5   3 -15 141.389   9.163   2
   6  -3  15 1.99439 1.33191   4
  -6  -3 -15 2.39630 1.81015   6
  -6  -3 -15 2.93591 1.60679   2
  -6   3 -15 2.35501 1.50929   2
  -7  -3 -15 19.4119  2.8400   2
  -7  -3 -15 17.8161  2.8581   6
  -7   3 -15 16.6602  2.5247   2
  -8  -3 -15 280.380  19.266   6
  -8  -3 -15 270.277  17.888   2
  -8   3 -15 253.256  17.615   2
  -9  -3 -15 99.9357  8.1249   2
   8  -4 -15 31.4291  3.5872   2
   8  -4 -15 26.7647  3.7606   6
   8   4 -15 29.5075  3.9742   2
   7  -4 -15 13.7696  2.3477   2
  -7  -4  15 7.68851 3.67159   1
   7  -4 -15 10.9182  2.4506   6
   7   4 -15 13.9995  2.7145   2
   6  -4 -15 161.473  12.997   6
  -6  -4  15 182.306  16.302   1
   6  -4 -15 185.903  12.088   2
   6   4 -15 196.005  12.243   2
   5  -4 -15 109.266   8.448   6
   5  -4 -15 120.724   7.889   2
  -5  -4  15 111.551  11.011   1
  -5  -4  15 111.210   7.759   4
   5   4 -15 110.251   7.736   2
   4  -4 -15 12.1161  1.9953   2
   4  -4 -15 11.2715  2.1152   6
  -4  -4  15 11.1046  1.7007   4
  -4  -4  15 9.57652 3.72808   1
   4   4 -15 15.0985  1.8830   2
  -3  -4  15 7.45639 1.29641   4
  -3  -4  15 9.33400 3.79401   1
   3  -4 -15 8.58987 1.67771   2
   3  -4 -15 6.45359 1.66231   6
   3   4 -15 8.03496 1.38259   2
  -2  -4  15 329.342  29.863   1
   2  -4 -15 337.999  22.323   2
   2  -4 -15 355.146  24.248   6
  -2  -4  15 344.580  21.954   4
   2   4 -15 387.644  22.137   2
   1  -4 -15 109.434   8.262   6
  -1  -4  15 109.755   7.231   4
   1  -4 -15 119.382   7.755   5
  -1  -4  15 102.757  11.476   1
   1  -4 -15 105.547   7.632   2
   1   4 -15 119.532   7.332   2
  -1   4  15 116.284   8.285   6
   0  -4 -15 3.74968 1.50047   6
   0  -4 -15 3.97636 1.44677   2
   0  -4  15 5.40078 4.12748   1
   0  -4 -15 6.37149 1.73409   5
   0  -4  15 4.47013 0.91313   4
   0   4 -15 4.17114 0.99850   2
   0   4  15 4.82119 1.64262   6
  -1  -4 -15 2.06918 1.32219   2
  -1  -4 -15 1.30086 1.38827   6
  -1  -4 -15 -0.5948  1.5596   5
   1  -4  15 5.06044 4.09809   1
   1  -4  15 2.09194 0.84470   4
  -1   4 -15 1.92620 0.89464   2
   2  -4  15 590.004  56.900   1
   2  -4  15 706.002  42.735   4
  -2  -4 -15 718.787  43.296   2
  -2  -4 -15 665.809  46.873   6
  -2   4 -15 754.824  42.975   2
  -3  -4 -15 173.706  12.135   6
   3  -4  15 177.981  10.788   4
   3  -4  15 134.249  16.115   1
  -3  -4 -15 170.394  11.258   2
  -3   4 -15 174.810  10.880   2
   4  -4  15 9.54680 1.30573   4
  -4  -4 -15 8.39338 1.84842   6
   4  -4  15 14.0670  4.9706   1
  -4  -4 -15 6.53754 1.73574   2
  -4   4 -15 9.93039 1.44485   2
  -5  -4 -15 1.26140 1.55225   6
   5  -4  15 7.22341 4.66389   1
  -5  -4 -15 3.22379 1.55298   2
   5  -4  15 0.44393 1.06752   4
  -5   4 -15 2.33133 1.22128   2
  -6  -4 -15 568.663  36.510   2
  -6  -4 -15 592.104  39.635   6
  -6   4 -15 574.736  36.297   2
  -7  -4 -15 298.514  18.495   2
  -7  -4 -15 290.643  19.938   6
  -7   4 -15 256.554  18.149   2
  -8  -4 -15 3.21228 2.28340   6
  -8  -4 -15 0.97615 2.27307   2
  -8   4 -15 5.53202 2.38615   2
  -7  -5  15 87.5758  9.1534   1
   7  -5 -15 75.7540  6.7666   6
   7   5 -15 89.3061  6.8068   2
   6  -5 -15 1.56542 1.83062   2
  -6  -5  15 4.13726 3.49183   1
   6  -5 -15 3.10212 1.70759   6
   6   5 -15 2.01026 2.20021   2
  -6   5  15 0.06787 1.79226   6
  -5  -5  15 118.322  11.615   1
   5  -5 -15 123.696   8.244   2
   5  -5 -15 107.389   8.768   6
  -5   5  15 117.543   8.823   6
   5   5 -15 120.676   8.228   2
   4  -5 -15 1.04978 1.47972   2
   4  -5 -15 2.34317 1.57084   6
  -4  -5  15 4.46696 3.40427   1
  -4  -5  15 1.44977 1.60724   4
  -4   5  15 4.03173 1.67160   6
   4   5 -15 3.61398 1.53409   2
  -3  -5  15 88.9786  6.3427   4
   3  -5 -15 89.7755  7.1133   6
   3  -5 -15 97.2000  6.6448   2
  -3  -5  15 91.0345  9.9808   1
  -3   5  15 96.8777  7.1914   6
   3   5 -15 97.2135  6.3552   2
  -2  -5  15 29.0369  5.5898   1
   2  -5 -15 29.7976  2.8706   2
  -2  -5  15 26.6799  2.2724   4
   2  -5 -15 25.3470  2.9604   6
  -2   5  15 26.9169  3.0038   6
   2   5 -15 27.7929  2.3212   2
   1  -5 -15 202.426  14.841   6
  -1  -5  15 204.444  13.236   4
  -1  -5  15 205.245  19.442   1
   1  -5 -15 224.950  13.760   2
  -1   5  15 219.441  14.901   6
   0  -5  15 9.80615 1.11781   4
   0  -5 -15 10.6088  1.9759   6
   0  -5  15 14.5042  4.9174   1
   0  -5 -15 11.7499  1.8476   2
   0   5  15 10.1803  1.9794   6
  -1  -5 -15 134.292   9.592   6
  -1  -5 -15 137.745   8.898   2
   1  -5  15 118.562  13.693   1
   1  -5  15 133.281   8.303   4
   1   5  15 125.175   9.590   6
   2  -5  15 73.9795 10.3225   1
  -2  -5 -15 78.9055  6.3285   6
   2  -5  15 82.5283  5.2629   4
  -2  -5 -15 78.2410  5.8546   2
   2   5  15 85.5309  6.4332   6
   3  -5  15 80.8837 10.6025   1
   3  -5  15 85.5099  5.5944   4
  -3  -5 -15 87.1922  6.1301   2
  -3  -5 -15 82.3929  6.6358   6
   3   5  15 82.9964  6.7276   6
  -3   5 -15 90.0889  5.7080   2
   4  -5  15 52.4406  3.7958   4
  -4  -5 -15 53.9495  4.3726   2
  -4  -5 -15 51.5659  4.7529   6
   4  -5  15 64.2768  8.5140   1
   4   5  15 58.5545  4.9978   6
  -4   5 -15 56.1062  3.9375   2
  -5  -5 -15 178.671  12.822   6
  -5   5 -15 174.093  11.389   2
  -6  -5 -15 116.441   7.673   2
  -6  -5 -15 105.231   8.254   6
  -6   5 -15 97.1915  7.1975   2
  -7  -5 -15 1.79147 1.97743   6
  -7   5 -15 2.06345 1.68360   2
  -7  -6  15 3.26005 3.82698   1
  -7   6  15 6.70253 2.25848   6
   7   6 -15 7.51207 2.52348   2
   6  -6 -15 127.502   9.690   6
  -6  -6  15 137.154  12.951   1
   6   6 -15 122.851   9.180   2
   5  -6 -15 89.4623  7.2112   6
  -5  -6  15 100.645  10.250   1
   5   6 -15 91.0584  6.9225   2
  -5   6  15 88.9164  7.2144   6
  -4  -6  15 220.792  19.808   1
   4  -6 -15 215.573  15.545   6
  -4   6  15 221.701  15.575   6
  -3  -6  15 33.8155  3.2478   4
  -3  -6  15 26.1641  5.6536   1
   3  -6 -15 25.0542  3.0876   6
  -3   6  15 28.2872  3.1986   6
  -2  -6  15 111.221   7.096   4
   2  -6 -15 101.947   7.797   6
  -2  -6  15 102.225  11.290   1
  -2   6  15 97.6275  7.8184   6
   1  -6 -15 82.6787  5.9041   2
   1  -6 -15 77.8740  6.3592   6
  -1  -6  15 82.4615 10.4738   1
  -1  -6  15 80.8898  5.4380   4
  -1   6  15 84.4875  6.4323   6
   0  -6  15 105.189  12.757   1
   0  -6 -15 111.359   7.916   2
   0  -6  15 117.767   7.301   4
   0  -6 -15 117.284   8.622   6
   0   6  15 116.847   8.613   6
   1  -6  15 128.322   8.076   4
   1  -6  15 118.966  13.854   1
  -1  -6 -15 143.979   8.862   2
  -1  -6 -15 120.688   9.435   6
   1   6  15 127.885   9.520   6
   2  -6  15 92.3303 13.0635   1
  -2  -6 -15 124.451   8.531   2
  -2  -6 -15 134.259   9.275   6
   2  -6  15 128.247   7.805   4
   2   6  15 121.854   9.257   6
  -3  -6 -15 94.4570  7.7869   6
   3  -6  15 104.199   6.595   4
   3  -6  15 101.442  12.291   1
   3   6  15 113.385   8.085   6
  -4  -6 -15 17.3405  2.7257   6
   4  -6  15 25.1758  6.5628   1
   4   6  15 23.2627  3.0648   6
  -5  -6 -15 131.536   9.973   6
  -6  -6 -15 142.214  11.090   6
   6   6  15 153.047  11.465   6
  -5  -7  15 7.18152 4.36008   1
   5  -7 -15 4.52674 2.06953   6
  -5   7  15 5.94598 2.13599   6
   4  -7 -15 76.5354  6.5603   6
  -4  -7  15 88.5429 10.1292   1
  -4   7  15 87.7540  6.7491   6
  -3  -7  15 121.769  13.315   1
   3  -7 -15 122.882   9.403   6
  -3   7  15 131.903   9.494   6
  -2  -7  15 6.29401 4.65138   1
   2  -7 -15 8.44179 2.04565   6
  -2   7  15 9.04918 2.00702   6
  -1  -7  15 19.2762  6.2015   1
   1  -7 -15 22.2555  2.8495   6
  -1   7  15 22.0876  2.8609   6
   0  -7 -15 107.574   8.110   6
   0  -7  15 104.016  12.710   1
   0   7  15 106.756   8.126   6
   1  -7  15 182.940  19.521   1
  -1  -7 -15 192.189  14.090   6
   1   7  15 210.155  14.180   6
  -2  -7 -15 3.16789 1.74585   6
   2  -7  15 7.91135 5.82705   1
   2   7  15 3.17332 1.92564   6
  -3  -7 -15 20.8534  2.9223   6
   3  -7  15 26.5044  7.3119   1
   3   7  15 22.9387  3.0838   6
  -4  -7 -15 98.8127  8.2809   6
   4   7  15 116.182   8.413   6
   5   7  15 287.393  20.400   6
  -3  -8  15 353.000  29.889   1
  -3   8  15 322.587  23.250   6
   2  -8 -15 72.6594  6.0864   6
  -2  -8  15 77.8570 10.5316   1
  -2   8  15 77.0275  6.1984   6
   1  -8 -15 11.2532  2.2179   6
  -1  -8  15 10.2405  6.2084   1
  -1   8  15 8.13952 2.21719   6
   0  -8 -15 108.948   8.726   6
   0  -8  15 122.029  14.385   1
   0   8  15 120.267   8.829   6
  -1  -8 -15 248.203  17.395   6
   1  -8  15 218.782  24.050   1
   1   8  15 256.469  17.462   6
   2  -8  15 59.8913 10.7718   1
  -2  -8 -15 55.1027  5.1787   6
   2   8  15 64.1553  5.3794   6
   3  -8  15 21.3898  7.1393   1
   3   8  15 10.5121  2.5266   6
   8   0 -16 273.702  18.774   2
   8   0 -16 300.648  20.580   6
   7   0 -16 21.5312  2.7479   2
   7   0 -16 22.2286  3.2104   6
   6   0 -16 154.340  10.978   6
  -6   0  16 149.636   9.981   4
   6   0 -16 140.924   9.925   2
   5   0 -16 575.702  38.884   2
   5   0 -16 605.802  42.284   6
  -5   0  16 650.699  38.780   4
  -5   0  16 658.616  50.343   1
   4   0 -16 455.396  29.698   2
  -4   0  16 485.031  29.606   4
   4   0 -16 430.327  32.200   6
  -4   0  16 531.343  38.906   1
  -3   0  16 81.9500  5.5943   4
   3   0 -16 82.7111  6.1534   6
  -3   0  16 82.9824  8.4251   1
   3   0 -16 75.2475  5.5953   2
  -2   0  16 0.02875 2.83505   1
   2   0 -16 2.64079 1.10104   2
  -2   0  16 0.55130 1.11201   4
  -1   0  16 376.144  22.485   4
   1   0 -16 327.878  22.541   2
  -1   0  16 379.017  30.320   1
   0   0  16 355.008  22.423   4
   0   0  16 348.927  30.177   1
   0   0 -16 367.545  22.519   2
   1   0  16 6.19555 1.23487   4
  -1   0 -16 7.15794 1.27479   2
  -2   0 -16 93.8289  6.4483   2
   2   0  16 96.7380  6.4239   4
  -3   0 -16 245.762  15.976   2
   3   0  16 256.117  15.944   4
   4   0  16 124.709   8.091   4
  -4   0 -16 117.610   8.105   2
  -5   0 -16 66.7092  4.9817   2
   5   0  16 66.5134  4.8905   4
  -6   0 -16 56.0565  4.7287   2
  -6   0 -16 62.3039  5.2230   6
   6   0  16 62.5347  4.6782   4
  -7   0 -16 358.859  24.491   6
  -7   0 -16 341.699  22.581   2
  -8   0 -16 32.6249  3.9668   2
  -8   0 -16 34.6087  4.3646   6
   8  -1 -16 7.59013 2.28735   2
   8  -1 -16 7.11891 2.63587   6
   8   1 -16 7.38155 2.35319   2
   7  -1 -16 2.33407 1.81075   2
   7  -1 -16 0.45357 1.89085   6
   7   1 -16 0.07202 1.76336   2
  -6  -1  16 3.27264 3.06010   1
  -6  -1  16 2.90251 1.46376   4
   6  -1 -16 1.89668 1.56211   2
   6  -1 -16 -1.1081  1.7204   6
  -6   1  16 2.78602 1.65618   4
   6   1 -16 0.59888 1.39846   2
   5  -1 -16 7.83589 1.95331   6
   5  -1 -16 7.92883 1.72390   2
  -5  -1  16 9.95493 3.23735   1
  -5  -1  16 9.68764 1.74122   4
  -5   1  16 12.7030  1.8629   4
  -5   1  16 10.2533  3.2978   1
   5   1 -16 8.39809 1.63424   2
  -4  -1  16 4.29979 3.02188   1
   4  -1 -16 1.97445 1.29850   2
  -4  -1  16 2.54008 1.21669   4
   4  -1 -16 1.33409 1.49218   6
  -4   1  16 0.38929 2.71029   1
   4   1 -16 1.06168 1.19478   2
  -4   1  16 0.35921 1.29969   4
   3  -1 -16 80.2446  5.9442   2
   3  -1 -16 90.6138  6.5706   6
  -3  -1  16 87.9603  8.9296   1
  -3  -1  16 85.6782  5.8444   4
   3   1 -16 86.2840  5.8943   2
  -3   1  16 90.2542  8.9477   1
  -3   1  16 82.9614  5.9400   4
  -2  -1  16 1.15517 1.03229   4
   2  -1 -16 1.09082 1.13331   2
  -2  -1  16 3.98009 2.97417   1
   2  -1 -16 4.04399 1.43459   6
  -2   1  16 1.87402 1.06978   4
  -2   1  16 2.36684 2.78160   1
   2   1 -16 1.55567 1.07562   2
  -1  -1  16 6.88543 3.52763   1
  -1  -1  16 9.66866 1.37612   4
   1  -1 -16 10.2578  1.5509   2
   1  -1 -16 10.2516  1.7542   6
   1   1 -16 9.54447 1.38723   2
  -1   1  16 11.9253  1.5604   4
   0  -1 -16 90.0592  6.1629   2
   0  -1  16 98.6602  6.0809   4
   0  -1 -16 89.5500  6.7267   6
   0  -1  16 79.5812  9.5451   1
   0   1  16 89.9250  6.1663   4
   0   1 -16 90.0622  6.0602   2
   1  -1  16 79.4110  5.6914   4
  -1  -1 -16 84.9620  6.3796   6
   1  -1  16 82.9556  9.5834   1
  -1  -1 -16 85.2015  5.8426   2
  -1   1 -16 87.3788  5.7586   2
   1   1  16 90.0781  5.8708   4
   2  -1  16 8.01211 1.26243   4
   2  -1  16 8.03314 4.17512   1
  -2  -1 -16 6.47684 1.42923   2
  -2  -1 -16 6.85142 1.57159   6
  -2   1 -16 6.23930 1.32568   2
   2   1  16 6.36791 1.35266   4
   3  -1  16 0.43431 1.01023   4
  -3  -1 -16 2.51502 1.38482   6
  -3  -1 -16 3.03971 1.27124   2
   3  -1  16 2.76791 3.74635   1
   3   1  16 2.05184 1.18832   4
  -3   1 -16 0.91555 1.10568   2
  -4  -1 -16 269.465  19.102   6
   4  -1  16 269.525  24.693   1
   4  -1  16 272.087  17.459   4
  -4  -1 -16 272.608  17.617   2
  -4   1 -16 274.838  17.552   2
   4   1  16 293.773  17.601   4
  -5  -1 -16 5.54276 1.62338   2
   5  -1  16 3.93569 1.31662   4
   5  -1  16 9.82018 4.94000   1
  -5  -1 -16 4.72326 1.72695   6
   5   1  16 5.22665 1.55706   4
  -5   1 -16 5.15573 1.45887   2
  -6  -1 -16 0.93002 1.55233   2
   6  -1  16 2.79133 4.18508   1
  -6  -1 -16 2.18318 1.80234   6
  -6   1 -16 -0.4266  1.5029   2
   6   1  16 1.36880 1.58850   4
  -7  -1 -16 5.35065 2.17888   6
  -7  -1 -16 2.02472 1.97763   2
  -7   1 -16 4.26505 1.81071   2
  -8  -1 -16 236.831  16.424   6
  -8   1 -16 213.589  15.079   2
   8  -2 -16 81.5120  6.5836   2
   8  -2 -16 89.2394  7.3478   6
   8   2 -16 85.0484  6.7539   2
   7  -2 -16 0.12829 1.98966   6
   7  -2 -16 3.41077 1.85433   2
   7   2 -16 1.38513 1.72963   2
  -6  -2  16 6.71705 3.24648   1
   6  -2 -16 7.87421 2.02252   6
   6  -2 -16 8.71117 1.90411   2
   6   2 -16 8.77325 1.95094   2
  -6   2  16 10.4441  1.9415   4
  -5  -2  16 548.392  33.971   4
  -5  -2  16 522.668  44.264   1
   5  -2 -16 548.506  34.179   2
   5  -2 -16 498.188  37.044   6
   5   2 -16 528.272  34.081   2
  -5   2  16 562.639  44.265   1
  -5   2  16 594.486  34.096   4
   4  -2 -16 186.656  13.687   6
  -4  -2  16 188.238  17.161   1
  -4  -2  16 195.006  12.408   4
   4  -2 -16 185.592  12.590   2
  -4   2  16 197.948  12.568   4
   4   2 -16 185.685  12.479   2
  -4   2  16 220.696  17.145   1
   3  -2 -16 16.3090  2.3621   6
  -3  -2  16 19.1386  1.9416   4
   3  -2 -16 18.4417  2.1243   2
  -3  -2  16 13.5887  3.9251   1
   3   2 -16 16.4726  1.9379   2
  -3   2  16 18.5455  2.0615   4
  -2  -2  16 2.23772 0.99861   4
   2  -2 -16 2.96013 1.26671   2
   2  -2 -16 2.16805 1.39007   6
  -2  -2  16 6.13350 3.24128   1
   2   2 -16 1.22020 1.06347   2
  -2   2  16 1.64909 1.22706   4
   1  -2 -16 562.011  36.718   2
  -1  -2  16 581.533  36.398   4
   1  -2 -16 619.579  39.861   6
  -1  -2  16 596.544  48.295   1
  -1   2  16 617.484  36.577   4
   1   2 -16 550.813  36.571   2
   0  -2 -16 354.199  22.172   2
   0  -2 -16 347.504  24.033   6
   0  -2  16 327.924  21.891   4
   0  -2  16 329.076  29.854   1
   0   2 -16 352.018  22.012   2
   0   2  16 390.888  22.141   4
  -1  -2 -16 78.3393  5.5563   2
   1  -2  16 82.6002  5.3388   4
   1  -2  16 68.8204  9.0296   1
  -1  -2 -16 79.4807  6.0541   6
   1   2  16 82.4167  5.5843   4
  -1   2 -16 76.5029  5.3417   2
  -2  -2 -16 3.79532 1.36880   6
  -2  -2 -16 2.96592 1.33211   2
   2  -2  16 1.89352 3.60491   1
   2  -2  16 2.87547 1.01908   4
   2   2  16 5.46029 1.44977   4
  -2   2 -16 5.01057 1.15860   2
   3  -2  16 303.147  17.988   4
  -3  -2 -16 281.319  19.759   6
   3  -2  16 231.433  24.849   1
  -3  -2 -16 297.096  18.269   2
  -3   2 -16 284.793  18.047   2
   3   2  16 296.565  18.198   4
  -4  -2 -16 286.415  20.571   6
   4  -2  16 319.088  26.444   1
  -4  -2 -16 290.043  18.983   2
   4  -2  16 283.869  18.708   4
   4   2  16 312.995  18.962   4
  -4   2 -16 301.670  18.861   2
   5  -2  16 92.2234  9.8858   1
  -5  -2 -16 75.2695  5.9695   6
  -5  -2 -16 71.5808  5.4530   2
   5  -2  16 68.7525  5.1841   4
  -5   2 -16 73.6755  5.3025   2
   5   2  16 75.0048  5.4096   4
   6  -2  16 0.12779 4.37986   1
  -6  -2 -16 -0.0451  1.6246   2
  -6  -2 -16 0.73954 1.77517   6
  -6   2 -16 1.85432 1.49684   2
   6   2  16 1.66966 1.49887   4
  -7  -2 -16 95.5611  7.1944   2
  -7  -2 -16 104.389   7.766   6
  -7   2 -16 90.6752  7.0339   2
  -8  -2 -16 116.725   8.939   6
  -8  -2 -16 110.354   8.330   2
  -8   2 -16 102.038   8.047   2
   8  -3 -16 464.535  30.795   2
   8   3 -16 501.389  31.137   2
   7  -3 -16 1.46739 1.92601   6
   7  -3 -16 2.05586 1.80041   2
   7   3 -16 3.18466 2.13673   2
   6  -3 -16 26.9468  3.3346   6
   6  -3 -16 25.0234  2.9193   2
  -6  -3  16 29.0021  4.9980   1
   6   3 -16 27.7603  3.0150   2
   5  -3 -16 126.303   8.569   2
  -5  -3  16 135.896  12.123   1
   5  -3 -16 114.653   9.277   6
   5   3 -16 126.000   8.475   2
   4  -3 -16 572.524  35.013   2
   4  -3 -16 549.542  37.964   6
  -4  -3  16 524.339  34.635   4
  -4  -3  16 547.759  45.567   1
  -4   3  16 589.130  34.877   4
   4   3 -16 556.420  34.846   2
   3  -3 -16 50.3540  4.2585   6
   3  -3 -16 45.3887  3.8412   2
  -3  -3  16 50.0212  6.5610   1
  -3  -3  16 49.0478  3.6265   4
   3   3 -16 51.3321  3.7539   2
  -3   3  16 49.7657  3.9394   4
   2  -3 -16 15.0058  2.2623   6
  -2  -3  16 16.0827  1.7336   4
  -2  -3  16 16.1053  4.3770   1
   2  -3 -16 13.7811  1.9413   2
  -2   3  16 19.9864  2.1470   4
   2   3 -16 18.2122  1.8917   2
   1  -3 -16 178.231  13.898   6
  -1  -3  16 192.512  18.009   1
  -1  -3  16 200.144  12.544   4
   1  -3 -16 189.581  12.842   2
   1   3 -16 203.498  12.632   2
  -1   3  16 224.000  12.893   4
   0  -3  16 415.905  25.595   4
   0  -3 -16 388.097  25.961   2
   0  -3 -16 422.552  28.174   6
   0  -3  16 383.601  34.734   1
   0   3  16 438.757  25.911   4
   0   3 -16 414.248  25.749   2
  -1  -3 -16 128.570   9.508   6
   1  -3  16 108.256  12.970   1
  -1  -3 -16 128.159   8.748   2
   1  -3  16 135.175   8.426   4
   1   3  16 135.964   8.743   4
  -1   3 -16 135.274   8.472   2
   2  -3  16 3.57150 4.02430   1
  -2  -3 -16 2.45805 1.45559   6
   2  -3  16 3.45843 0.99405   4
  -2  -3 -16 4.00366 1.42790   2
   2   3  16 3.19054 1.31897   4
  -2   3 -16 3.09597 1.09900   2
  -3  -3 -16 156.614  11.233   6
   3  -3  16 130.238  15.293   1
  -3  -3 -16 153.940  10.392   2
   3  -3  16 160.602  10.035   4
   3   3  16 163.378  10.390   4
  -3   3 -16 159.353  10.085   2
  -4  -3 -16 215.621  14.817   6
  -4  -3 -16 202.373  13.676   2
   4  -3  16 212.903  13.322   4
   4  -3  16 226.365  19.792   1
  -4   3 -16 199.041  13.406   2
   4   3  16 210.235  13.643   4
  -5  -3 -16 100.975   7.398   2
   5  -3  16 138.568  12.414   1
  -5  -3 -16 110.438   8.149   6
  -5   3 -16 98.4123  7.1783   2
  -6  -3 -16 13.7469  2.3958   2
  -6  -3 -16 16.2056  2.6749   6
  -6   3 -16 15.8964  2.1868   2
  -7  -3 -16 71.8511  5.9406   6
  -7  -3 -16 69.1921  5.5409   2
  -7   3 -16 59.8330  5.1445   2
  -8  -3 -16 134.378   9.819   2
   8  -4 -16 16.0567  2.8463   2
   7  -4 -16 86.5674  7.3189   6
   7  -4 -16 87.8825  6.7995   2
   7   4 -16 99.7111  7.2068   2
   6  -4 -16 68.5133  5.1758   2
   6  -4 -16 60.3664  5.4834   6
  -6  -4  16 60.6436  7.6372   1
   6   4 -16 67.3021  5.2962   2
  -5  -4  16 21.5065  4.7130   1
   5  -4 -16 22.7593  2.7059   2
   5  -4 -16 26.7551  3.0218   6
   5   4 -16 25.8592  2.7967   2
   4  -4 -16 25.9794  3.1447   6
   4  -4 -16 29.6710  2.8448   2
  -4  -4  16 25.8233  2.6764   4
  -4  -4  16 30.2830  5.2873   1
   4   4 -16 29.0873  2.7532   2
  -3  -4  16 142.958   9.647   4
   3  -4 -16 161.967  10.905   6
   3  -4 -16 148.419  10.011   2
  -3  -4  16 140.290  14.140   1
   3   4 -16 150.737   9.748   2
  -2  -4  16 114.867   7.685   4
   2  -4 -16 122.355   8.102   2
  -2  -4  16 121.140  12.090   1
   2  -4 -16 114.620   8.745   6
   2   4 -16 121.565   7.813   2
  -1  -4  16 70.3503  8.5702   1
   1  -4 -16 62.9399  5.4242   6
   1  -4 -16 68.1308  5.0117   2
  -1  -4  16 62.8935  4.5840   4
   1   4 -16 77.4945  4.7372   2
   0  -4 -16 50.4670  4.1168   2
   0  -4  16 52.2843  3.6917   4
   0  -4  16 48.2496  7.8057   1
   0  -4 -16 51.8418  4.4730   6
   0   4 -16 58.9197  3.8350   2
  -1  -4 -16 170.796  12.078   6
   1  -4  16 145.402  16.285   1
  -1  -4 -16 170.622  11.139   2
   1  -4  16 171.355  10.688   4
  -1   4 -16 172.804  10.794   2
  -2  -4 -16 134.003  10.229   6
   2  -4  16 150.333   9.029   4
   2  -4  16 107.567  14.232   1
  -2  -4 -16 140.589   9.482   2
  -2   4 -16 150.366   9.126   2
  -3  -4 -16 53.5696  4.3257   2
  -3  -4 -16 56.9238  4.7570   6
   3  -4  16 57.4069  3.8978   4
   3  -4  16 53.5718  8.4874   1
  -3   4 -16 55.4416  3.9683   2
  -4  -4 -16 37.1255  3.4190   2
  -4  -4 -16 39.1992  3.6417   6
   4  -4  16 41.4387  7.3805   1
  -4   4 -16 35.7782  2.9744   2
  -5  -4 -16 95.1032  7.3285   6
  -5  -4 -16 88.9794  6.7338   2
  -5   4 -16 93.8357  6.3603   2
  -6  -4 -16 82.4554  6.3330   2
  -6  -4 -16 84.6777  6.9109   6
  -6   4 -16 83.9912  5.9745   2
  -7  -4 -16 18.1661  2.8512   2
  -7   4 -16 21.5242  2.5717   2
  -7  -5  16 5.61455 3.76297   1
   6  -5 -16 2.57563 1.82672   2
   6  -5 -16 1.03704 1.89387   6
  -6  -5  16 2.99902 3.45124   1
   6   5 -16 5.02688 2.34093   2
   5  -5 -16 49.3101  4.1894   2
  -5  -5  16 42.8636  6.7181   1
   5  -5 -16 43.6616  4.2960   6
   5   5 -16 50.2200  4.2515   2
   4  -5 -16 885.103  61.223   6
  -4  -5  16 921.118  73.212   1
   4  -5 -16 935.148  56.589   2
   4   5 -16 881.200  56.379   2
   3  -5 -16 205.676  12.808   2
   3  -5 -16 184.096  13.804   6
  -3  -5  16 186.234  17.748   1
   3   5 -16 195.984  12.489   2
   2  -5 -16 2.73452 1.57877   6
   2  -5 -16 4.40943 1.67287   2
  -2  -5  16 6.05511 4.18094   1
  -2  -5  16 4.10683 1.19208   4
  -1  -5  16 132.290  13.835   1
   1  -5 -16 142.914   9.136   2
   1  -5 -16 133.080   9.869   6
  -1  -5  16 131.699   8.613   4
   0  -5  16 423.877  37.647   1
   0  -5 -16 428.615  30.193   6
   0  -5  16 417.749  27.252   4
   0  -5 -16 490.402  27.953   2
   1  -5  16 260.817  25.524   1
  -1  -5 -16 293.743  18.278   2
  -1  -5 -16 293.935  19.771   6
   1  -5  16 278.584  17.660   4
   2  -5  16 31.6978  2.3814   4
  -2  -5 -16 32.7322  3.0219   2
   2  -5  16 33.9419  7.1847   1
  -2  -5 -16 28.9788  3.2889   6
   3  -5  16 165.935  17.030   1
  -3  -5 -16 168.865  12.098   6
  -4  -5 -16 75.1011  6.3109   6
  -4  -5 -16 80.6505  5.9473   2
   4  -5  16 89.0463 10.3772   1
  -4   5 -16 79.2730  5.4158   2
  -5  -5 -16 95.5628  7.7254   6
  -5  -5 -16 100.311   7.202   2
  -5   5 -16 98.3957  6.6353   2
  -6  -5 -16 71.2571  6.0451   6
  -6  -5 -16 73.9330  5.7461   2
  -6   5 -16 66.9444  5.0991   2
   6   6 -16 182.709  12.575   2
  -5  -6  16 23.7677  5.1640   1
   5  -6 -16 20.7148  2.9873   6
   4  -6 -16 10.6500  2.3222   6
  -4  -6  16 14.9037  4.5926   1
  -4   6  16 15.9769  2.5498   6
  -3  -6  16 73.7834  9.0366   1
   3  -6 -16 69.3338  5.8856   6
  -3   6  16 76.4281  6.0294   6
   2  -6 -16 135.259  10.102   6
  -2  -6  16 142.812  14.298   1
   1  -6 -16 96.4255  7.1913   2
   1  -6 -16 101.227   7.854   6
  -1  -6  16 105.240   6.756   4
  -1  -6  16 102.801  11.918   1
  -1   6  16 105.219   7.862   6
   0  -6 -16 1.60247 1.63213   6
   0  -6  16 11.4514  5.5373   1
   0  -6 -16 5.03653 1.75263   2
   0   6  16 4.73622 1.86568   6
  -1  -6 -16 55.7120  5.0866   6
   1  -6  16 59.6933  3.9407   4
   1  -6  16 54.8215  9.3504   1
  -1  -6 -16 61.9579  4.7523   2
   1   6  16 67.0099  5.2889   6
  -2  -6 -16 70.0374  5.6138   6
   2  -6  16 57.3986  9.8156   1
   2   6  16 69.7923  5.7836   6
  -3  -6 -16 78.2374  6.3439   6
   3  -6  16 78.8325 10.3075   1
   3   6  16 77.7235  6.4560   6
   4  -6  16 22.7317  6.5396   1
  -4  -6 -16 20.8050  2.8424   6
  -4   7  16 22.3278  3.0574   6
  -3  -7  16 21.0187  5.7367   1
  -3   7  16 29.9869  3.4070   6
   2  -7 -16 106.382   8.314   6
  -2  -7  16 120.471  12.732   1
  -2   7  16 106.906   8.322   6
   1  -7 -16 2.71896 1.71519   6
  -1  -7  16 6.88287 5.34325   1
  -1   7  16 3.00502 1.86829   6
   0  -7  16 125.372  14.563   1
   0  -7 -16 120.010   9.629   6
   0   7  16 143.640   9.828   6
  -1  -7 -16 20.9248  2.7362   6
   1  -7  16 15.2465  6.6372   1
   1   7  16 18.8654  2.8445   6
   2  -7  16 166.234  19.522   1
  -2  -7 -16 192.267  14.099   6
   2   7  16 217.240  14.312   6
   3  -7  16 14.7939  6.5725   1
   3   7  16 16.7481  2.8063   6
   7   0 -17 3.05467 2.15978   6
   7   0 -17 0.93969 1.79472   2
   6   0 -17 0.09372 1.53708   2
  -5   0  17 -1.4615  2.6113   1
   5   0 -17 0.20384 1.45668   2
  -4   0  17 1.37201 1.23765   4
  -4   0  17 1.75151 2.80369   1
   4   0 -17 -0.1313  1.3363   2
   3   0 -17 2.15112 1.24290   2
  -3   0  17 1.50808 1.21548   4
  -3   0  17 2.64290 2.84874   1
  -2   0  17 0.46430 1.05770   4
   2   0 -17 1.31373 1.07053   2
  -2   0  17 3.49485 3.11838   1
   1   0 -17 0.86308 1.09708   2
  -1   0  17 1.85683 3.23570   1
  -1   0  17 3.37835 1.20770   4
   0   0  17 1.46165 1.07770   4
   0   0 -17 1.93147 1.13406   2
   0   0  17 2.39187 3.47027   1
   1   0  17 0.72537 3.45222   1
  -1   0 -17 4.41020 1.20059   2
   1   0  17 1.73682 1.12089   4
   2   0  17 3.21807 3.82562   1
  -2   0 -17 0.26511 1.07339   2
   2   0  17 -0.2802  1.1503   4
  -3   0 -17 3.04753 1.25916   2
   3   0  17 2.89972 1.21845   4
   3   0  17 2.72941 3.82958   1
   4   0  17 3.83599 4.17798   1
  -4   0 -17 -0.4466  1.1451   2
   4   0  17 0.36314 1.19636   4
  -5   0 -17 0.01602 1.32230   2
   5   0  17 -3.1592  4.4617   1
  -6   0 -17 -1.2003  1.4492   2
   6   0  17 -6.7562  4.5564   1
  -7   0 -17 1.97732 1.90599   2
   7  -1 -17 100.575   7.380   2
   7  -1 -17 99.8483  8.1433   6
   7   1 -17 103.679   7.460   2
   6  -1 -17 156.398  12.378   6
   6  -1 -17 185.794  11.450   2
   6   1 -17 169.578  11.382   2
   5  -1 -17 15.9797  2.4342   6
  -5  -1  17 17.1526  4.1495   1
   5  -1 -17 15.2465  2.1657   2
   5   1 -17 14.1046  2.0416   2
  -5   1  17 17.1745  2.1830   4
  -5   1  17 13.3073  3.9227   1
  -4  -1  17 166.383  10.300   4
   4  -1 -17 156.774  11.339   6
  -4  -1  17 154.456  14.297   1
   4  -1 -17 151.082  10.375   2
  -4   1  17 163.906  10.402   4
  -4   1  17 164.492  14.329   1
   4   1 -17 143.555  10.302   2
  -3  -1  17 244.236  15.705   4
  -3  -1  17 265.942  21.512   1
   3  -1 -17 260.826  17.279   6
   3  -1 -17 216.341  15.782   2
   3   1 -17 241.146  15.782   2
  -3   1  17 260.116  15.820   4
  -3   1  17 247.095  21.488   1
   2  -1 -17 248.710  17.062   2
   2  -1 -17 258.880  18.584   6
  -2  -1  17 256.954  23.113   1
  -2  -1  17 274.105  16.979   4
  -2   1  17 273.394  17.055   4
  -2   1  17 290.557  23.306   1
   2   1 -17 279.062  17.073   2
   1  -1 -17 21.9315  2.3138   2
   1  -1 -17 23.1670  2.4899   6
  -1  -1  17 23.1858  4.7762   1
  -1  -1  17 23.3155  2.2164   4
  -1   1  17 23.3268  2.3238   4
   1   1 -17 22.3385  2.2041   2
   0  -1  17 225.214  20.817   1
   0  -1 -17 226.148  15.040   2
   0  -1 -17 241.313  16.347   6
   0  -1  17 242.542  14.907   4
   0   1  17 242.420  15.017   4
   0   1 -17 229.386  14.966   2
   1  -1  17 468.863  29.480   4
  -1  -1 -17 455.550  29.692   2
   1  -1  17 424.328  39.444   1
  -1  -1 -17 507.538  32.276   6
   1   1  17 494.489  29.610   4
  -1   1 -17 476.573  29.618   2
  -2  -1 -17 511.285  32.082   6
   2  -1  17 392.709  39.258   1
  -2  -1 -17 469.631  29.541   2
   2  -1  17 472.376  29.322   4
   2   1  17 511.508  29.468   4
  -2   1 -17 445.422  29.457   2
   3  -1  17 31.3243  2.7351   4
  -3  -1 -17 34.3917  2.9684   2
  -3  -1 -17 35.8492  3.2681   6
   3  -1  17 29.2689  6.3950   1
  -3   1 -17 30.9876  2.7954   2
   3   1  17 33.8396  2.9429   4
  -4  -1 -17 133.819   9.284   2
   4  -1  17 134.611   9.132   4
   4  -1  17 136.566  14.278   1
  -4  -1 -17 140.570  10.121   6
   4   1  17 148.650   9.320   4
  -4   1 -17 139.885   9.213   2
  -5  -1 -17 444.799  29.001   2
  -5  -1 -17 472.201  31.535   6
  -5   1 -17 460.929  28.954   2
  -6  -1 -17 586.278  39.424   6
  -6  -1 -17 565.442  36.315   2
  -6   1 -17 575.385  36.259   2
  -7  -1 -17 16.8621  2.9307   6
  -7  -1 -17 15.1464  2.6613   2
  -7   1 -17 17.5024  2.5507   2
   7  -2 -17 75.3228  6.6844   6
   7  -2 -17 84.6028  6.1622   2
   7   2 -17 76.4807  6.0711   2
   6  -2 -17 43.4624  3.6611   2
   6  -2 -17 35.5528  4.0251   6
  -6  -2  17 44.8657  5.9515   1
   6   2 -17 38.8879  3.6230   2
  -5  -2  17 5.78817 3.37100   1
   5  -2 -17 4.51933 1.54620   2
   5  -2 -17 5.78993 1.99377   6
  -5   2  17 5.63219 1.69102   4
   5   2 -17 2.74386 1.60589   2
  -4  -2  17 5.59782 3.28004   1
   4  -2 -17 5.90819 1.64756   2
   4  -2 -17 11.2867  2.0515   6
  -4   2  17 11.4350  3.7040   1
  -4   2  17 7.86901 1.81457   4
   4   2 -17 7.62698 1.60621   2
   3  -2 -17 3.06959 1.41950   2
   3  -2 -17 3.03582 1.63166   6
  -3  -2  17 6.20622 3.33653   1
  -3  -2  17 4.10594 1.20606   4
   3   2 -17 4.02148 1.30667   2
  -3   2  17 3.49195 1.41114   4
  -3   2  17 1.85641 3.04214   1
  -2  -2  17 74.7783  8.0263   1
  -2  -2  17 67.1883  4.7120   4
   2  -2 -17 62.3144  4.8328   2
   2  -2 -17 66.7737  5.3635   6
   2   2 -17 65.3367  4.7535   2
  -2   2  17 68.7372  4.8545   4
   1  -2 -17 6.40221 1.69526   6
  -1  -2  17 6.62210 1.29550   4
  -1  -2  17 5.24094 3.63983   1
   1  -2 -17 6.12887 1.49032   2
  -1   2  17 6.42173 1.51644   4
   1   2 -17 7.92161 1.35477   2
   0  -2  17 26.5079  5.6552   1
   0  -2 -17 30.0328  2.9054   6
   0  -2  17 28.8781  2.4164   4
   0  -2 -17 27.2224  2.7000   2
   0   2  17 31.3339  2.7601   4
   0   2 -17 28.9629  2.4950   2
  -1  -2 -17 0.03678 1.37807   6
   1  -2  17 4.52022 1.09874   4
  -1  -2 -17 0.73957 1.26332   2
   1  -2  17 3.00721 3.79635   1
   1   2  17 0.73789 1.26352   4
  -1   2 -17 1.81130 1.08380   2
   2  -2  17 109.147   6.813   4
   2  -2  17 97.3761 11.2704   1
  -2  -2 -17 98.8375  6.9821   2
  -2  -2 -17 105.648   7.599   6
  -2   2 -17 96.4501  6.8254   2
   2   2  17 101.026   6.998   4
  -3  -2 -17 2.59566 1.56204   6
  -3  -2 -17 6.79958 1.61613   2
   3  -2  17 2.64315 1.14460   4
   3  -2  17 4.76675 4.43913   1
   3   2  17 2.08053 1.39263   4
  -3   2 -17 3.20304 1.21203   2
   4  -2  17 96.4895 11.4165   1
  -4  -2 -17 95.5619  7.3653   6
  -4  -2 -17 95.4202  6.8077   2
   4   2  17 99.5197  6.8187   4
  -4   2 -17 96.1508  6.5730   2
  -5  -2 -17 53.8570  4.7694   6
  -5  -2 -17 56.0838  4.3841   2
   5  -2  17 76.4187  9.1959   1
  -5   2 -17 51.9339  4.2268   2
  -6  -2 -17 118.544   8.711   2
  -6  -2 -17 138.993   9.635   6
  -6   2 -17 120.442   8.547   2
  -7  -2 -17 12.6107  2.7250   6
  -7  -2 -17 11.0337  2.4868   2
  -7   2 -17 9.94108 2.19161   2
   7  -3 -17 16.0283  2.5096   2
   6  -3 -17 607.939  43.614   6
   6  -3 -17 638.140  40.213   2
  -6  -3  17 696.391  52.180   1
   6   3 -17 620.629  40.244   2
   5  -3 -17 94.5859  7.9298   6
   5  -3 -17 104.775   7.310   2
  -5  -3  17 108.919  10.484   1
   5   3 -17 106.535   7.289   2
   4  -3 -17 141.858  10.753   6
   4  -3 -17 145.043   9.918   2
  -4  -3  17 148.095  13.898   1
   4   3 -17 154.799   9.795   2
   3  -3 -17 4.88607 1.81977   6
  -3  -3  17 6.91360 3.57135   1
   3  -3 -17 7.14751 1.60600   2
   3   3 -17 5.38194 1.45689   2
  -3   3  17 4.85063 1.65302   4
  -2  -3  17 290.273  18.044   4
   2  -3 -17 274.102  18.328   2
   2  -3 -17 289.875  19.930   6
  -2   3  17 288.806  18.279   4
   2   3 -17 290.389  18.181   2
   1  -3 -17 127.067   9.615   6
  -1  -3  17 128.071  13.126   1
   1  -3 -17 139.278   8.915   2
  -1  -3  17 128.111   8.551   4
  -1   3  17 126.422   8.853   4
   1   3 -17 142.061   8.666   2
   0  -3 -17 137.885   9.787   2
   0  -3  17 144.063   9.476   4
   0  -3 -17 159.095  10.728   6
   0  -3  17 137.529  14.591   1
   0   3  17 144.736   9.751   4
   0   3 -17 157.099   9.594   2
   1  -3  17 2.67463 1.02433   4
   1  -3  17 5.12145 4.39241   1
  -1  -3 -17 2.65052 1.43521   6
  -1  -3 -17 1.92760 1.41898   2
   1   3  17 2.56334 1.46155   4
  -1   3 -17 2.79742 1.12921   2
   2  -3  17 15.3909  5.1701   1
   2  -3  17 17.6622  1.7869   4
  -2  -3 -17 15.7591  2.3026   6
  -2  -3 -17 18.7014  2.2410   2
   2   3  17 17.6120  2.2428   4
  -2   3 -17 16.5233  1.8612   2
  -3  -3 -17 73.2126  5.8613   6
   3  -3  17 56.2137  9.2949   1
  -3  -3 -17 70.7784  5.4110   2
   3   3  17 76.5011  5.4871   4
  -3   3 -17 77.6036  5.1106   2
  -4  -3 -17 81.6060  6.6194   6
  -4  -3 -17 85.1575  6.2334   2
   4  -3  17 99.5119 10.7259   1
  -4   3 -17 84.7775  5.8709   2
   5  -3  17 84.6690  9.2108   1
  -5  -3 -17 47.0906  4.2660   2
  -5  -3 -17 52.5032  4.5972   6
  -5   3 -17 47.4910  3.9285   2
  -6  -3 -17 1.89073 1.97414   6
  -6  -3 -17 1.26880 1.79691   2
  -6   3 -17 3.57497 1.54610   2
   6  -4 -17 26.8972  3.0607   2
  -6  -4  17 29.4981  5.2009   1
   6   4 -17 23.8011  3.2141   2
   5  -4 -17 23.7180  2.9887   6
  -5  -4  17 22.5994  4.8187   1
   5  -4 -17 20.8871  2.7564   2
   5   4 -17 23.6443  2.7650   2
   4  -4 -17 66.5898  5.6580   6
  -4  -4  17 70.9883  8.3310   1
   4  -4 -17 68.1124  5.2880   2
   4   4 -17 70.2899  5.0911   2
   3  -4 -17 330.648  21.051   2
  -3  -4  17 319.270  28.160   1
   3  -4 -17 326.423  22.809   6
   3   4 -17 335.689  20.813   2
   2  -4 -17 70.0938  5.3572   2
  -2  -4  17 75.7697  8.8392   1
   2  -4 -17 72.6328  5.8901   6
   2   4 -17 74.4901  5.1237   2
   1  -4 -17 108.831   7.485   2
  -1  -4  17 105.712   7.091   4
  -1  -4  17 94.7732 11.4944   1
   1  -4 -17 104.056   8.118   6
   1   4 -17 121.959   7.276   2
   0  -4 -17 42.9205  3.6027   2
   0  -4  17 40.2159  3.0234   4
   0  -4 -17 36.2143  3.8434   6
   0  -4  17 39.0156  7.2113   1
   0   4 -17 45.4516  3.2150   2
  -1  -4 -17 387.983  26.981   6
   1  -4  17 350.901  33.811   1
  -1  -4 -17 384.980  24.904   2
   1  -4  17 376.349  24.380   4
  -1   4 -17 444.793  24.609   2
  -2  -4 -17 161.061  12.912   6
   2  -4  17 149.152  17.445   1
  -2  -4 -17 185.548  11.983   2
  -2   4 -17 209.540  11.668   2
   3  -4  17 33.3158  7.1264   1
  -3  -4 -17 41.2931  3.7300   6
  -3  -4 -17 37.1078  3.4185   2
  -3   4 -17 40.7482  3.1000   2
  -4  -4 -17 15.4221  2.3633   2
   4  -4  17 20.2194  5.9874   1
  -4  -4 -17 16.4119  2.5594   6
  -4   4 -17 15.6484  1.8575   2
  -5  -4 -17 219.632  15.541   6
  -5  -4 -17 218.157  14.344   2
  -5   4 -17 213.252  13.930   2
  -6  -4 -17 174.015  11.915   2
  -6   4 -17 175.800  11.486   2
   5  -5 -17 164.130  10.868   2
  -5  -5  17 153.215  14.968   1
   5   5 -17 158.381  10.851   2
   4  -5 -17 73.2358  6.4360   6
   4  -5 -17 86.8163  6.0848   2
  -4  -5  17 83.1910  9.2953   1
   4   5 -17 83.4974  5.9205   2
  -3  -5  17 39.1818  6.6297   1
   3  -5 -17 47.8943  3.7638   2
   3  -5 -17 37.1403  3.8531   6
  -2  -5  17 2.00032 3.82355   1
   2  -5 -17 2.50339 1.72011   2
   2  -5 -17 4.59156 1.81319   6
   1  -5 -17 116.808   9.073   6
  -1  -5  17 113.749  13.070   1
   1  -5 -17 129.025   8.404   2
   0  -5 -17 143.247  10.329   6
   0  -5  17 133.453  14.882   1
   0  -5 -17 140.487   9.538   2
  -1  -5 -17 63.7942  4.7358   2
   1  -5  17 56.0234  9.1467   1
  -1  -5 -17 55.0479  4.9833   6
  -2  -5 -17 29.2422  3.3827   6
  -2  -5 -17 34.8312  3.2704   2
   2  -5  17 33.9520  7.3750   1
   3  -5  17 63.9423 10.1241   1
  -3  -5 -17 72.7124  5.9719   6
  -3  -5 -17 78.3177  5.6102   2
  -4  -5 -17 153.266  11.882   6
  -4  -5 -17 159.367  10.961   2
   4  -5  17 195.566  17.036   1
  -5  -5 -17 23.7730  2.9668   2
  -5   5 -17 24.8122  2.3900   2
  -3  -6  17 34.8168  6.6080   1
   2  -6 -17 3.71960 1.87438   6
  -2  -6  17 1.95171 4.11578   1
   1  -6 -17 82.1853  6.8214   6
  -1  -6  17 96.6353 11.4108   1
   0  -6  17 65.8623 10.1560   1
   0  -6 -17 69.0621  5.6449   6
  -1  -6 -17 29.3341  3.3842   6
   1  -6  17 38.0624  8.0196   1
   2  -6  17 50.3551  8.8391   1
  -2  -6 -17 48.2995  4.4877   6
   3  -6  17 47.4981  8.5704   1
   4  -6  17 104.278  12.540   1
   6   0 -18 97.0296  7.0000   2
   5   0 -18 97.4266  7.1232   2
  -5   0  18 110.700  10.429   1
   4   0 -18 215.303  14.393   2
  -4   0  18 231.967  19.563   1
  -3   0  18 582.039  44.800   1
   3   0 -18 513.632  34.091   2
   2   0 -18 5.59209 1.41994   2
  -2   0  18 3.89330 3.36070   1
  -1   0  18 118.073  12.324   1
  -1   0  18 127.762   8.399   4
   1   0 -18 129.583   8.435   2
   0   0 -18 264.631  16.083   2
   0   0  18 225.826  22.114   1
   0   0  18 254.158  15.986   4
   1   0  18 407.413  24.042   4
   1   0  18 333.704  32.402   1
  -1   0 -18 390.773  24.094   2
  -2   0 -18 86.8842  5.8247   2
   2   0  18 73.3952  9.7932   1
   3   0  18 35.7942  6.7388   1
  -3   0 -18 32.7188  3.0082   2
   4   0  18 173.802  16.881   1
  -4   0 -18 167.986  11.162   2
  -5   0 -18 183.141  12.032   2
  -6   0 -18 107.876   7.630   2
   6  -1 -18 123.403   9.804   6
   6  -1 -18 136.100   9.034   2
   6   1 -18 131.177   9.048   2
   5  -1 -18 78.8137  6.0713   2
   5  -1 -18 84.3731  6.7280   6
  -5  -1  18 86.5535  8.9643   1
  -5   1  18 85.0889  9.0168   1
   5   1 -18 85.9329  6.0940   2
  -4  -1  18 65.6646  7.3901   1
   4  -1 -18 56.4693  4.6543   2
   4  -1 -18 62.4054  5.1805   6
   4   1 -18 60.9491  4.6716   2
  -4   1  18 66.9855  7.3280   1
   3  -1 -18 5.90082 1.55022   2
  -3  -1  18 4.43239 3.37299   1
   3  -1 -18 4.82013 1.75486   6
   3   1 -18 8.21635 1.56431   2
  -3   1  18 5.34926 3.27389   1
   2  -1 -18 95.5807  6.6139   2
  -2  -1  18 101.083  10.192   1
   2  -1 -18 90.7145  7.2023   6
  -2   1  18 102.029   6.634   4
  -2   1  18 85.5822  9.9455   1
   2   1 -18 95.9132  6.5799   2
  -1  -1  18 296.355  26.449   1
   1  -1 -18 315.325  21.254   6
   1  -1 -18 301.130  19.527   2
  -1   1  18 323.405  19.511   4
   1   1 -18 299.086  19.459   2
  -1   1  18 306.224  26.391   1
   0  -1  18 2.42273 3.49006   1
   0  -1 -18 4.36913 1.36483   2
   0  -1 -18 3.86051 1.58714   6
   0   1  18 5.64391 3.45611   1
   0   1 -18 3.28544 1.27631   2
   0   1  18 4.03572 1.34325   4
   1  -1  18 5.73249 4.09862   1
  -1  -1 -18 4.15602 1.59965   6
  -1  -1 -18 3.74066 1.34521   2
   1   1  18 2.70529 1.33564   4
  -1   1 -18 1.69825 1.20178   2
   2  -1  18 20.7765  5.6269   1
  -2  -1 -18 24.3043  2.6253   2
  -2  -1 -18 34.5161  3.0338   6
  -2   1 -18 24.4426  2.4657   2
  -3  -1 -18 184.786  12.266   2
  -3  -1 -18 206.464  13.378   6
   3  -1  18 166.251  17.882   1
  -3   1 -18 182.696  12.166   2
  -4  -1 -18 8.57039 2.01881   6
  -4  -1 -18 8.68398 1.81807   2
   4  -1  18 5.67691 4.75086   1
  -4   1 -18 8.27854 1.58955   2
   5  -1  18 21.7412  6.0299   1
  -5  -1 -18 9.32679 1.96661   2
  -5  -1 -18 13.2489  2.4530   6
  -5   1 -18 12.9277  1.9729   2
   6  -1  18 4.47258 4.89429   1
  -6  -1 -18 2.10090 1.97529   6
  -6  -1 -18 1.13895 1.81153   2
  -6   1 -18 4.85302 1.74587   2
   6  -2 -18 15.7680  2.5481   2
  -6  -2  18 25.4742  4.7527   1
   6  -2 -18 21.1627  3.0497   6
   5  -2 -18 6.71717 2.01089   6
   5  -2 -18 1.11532 1.64834   2
  -5  -2  18 2.71865 3.21241   1
   5   2 -18 4.70697 1.72359   2
  -4  -2  18 26.8754  5.3838   1
   4  -2 -18 27.3228  2.9636   2
   4  -2 -18 30.4633  3.3671   6
  -4   2  18 31.3232  5.3688   1
   4   2 -18 32.5061  2.9369   2
   3  -2 -18 180.930  12.988   6
  -3  -2  18 186.700  16.763   1
   3   2 -18 174.319  11.819   2
  -3   2  18 189.358  16.577   1
   2  -2 -18 12.2350  1.9006   2
  -2  -2  18 9.06308 4.01042   1
   2  -2 -18 12.1501  2.0759   6
   2   2 -18 10.5853  1.7262   2
  -1  -2  18 4.53008 3.57534   1
   1  -2 -18 3.78565 1.69046   6
   1  -2 -18 3.20143 1.41336   2
  -1   2  18 4.98685 1.50777   4
   1   2 -18 5.08202 1.32206   2
   0  -2 -18 136.920   9.899   6
   0  -2 -18 132.509   9.078   2
   0  -2  18 128.398  13.530   1
   0   2 -18 137.387   8.929   2
   0   2  18 139.234   9.060   4
  -1  -2 -18 89.3658  6.3387   2
   1  -2  18 84.1876 10.4326   1
  -1  -2 -18 87.8832  6.8717   6
  -1   2 -18 96.2710  6.1749   2
   1   2  18 90.2790  6.3590   4
  -2  -2 -18 9.16187 1.72463   2
   2  -2  18 12.2318  4.9892   1
  -2  -2 -18 6.92736 1.83559   6
  -2   2 -18 10.6350  1.5889   2
  -3  -2 -18 14.6088  2.0372   2
   3  -2  18 10.1846  4.9433   1
  -3  -2 -18 16.2555  2.3794   6
  -3   2 -18 15.5546  1.8888   2
   4  -2  18 182.426  16.995   1
  -4  -2 -18 163.435  11.034   2
  -4  -2 -18 167.096  11.958   6
  -4   2 -18 158.511  10.768   2
  -5  -2 -18 36.6995  3.7558   6
   5  -2  18 47.6353  7.9064   1
  -5  -2 -18 33.2770  3.3836   2
  -5   2 -18 33.7070  3.0857   2
  -6  -3  18 368.685  31.052   1
  -5  -3  18 42.1302  6.4125   1
   5  -3 -18 38.6110  3.7537   2
   5  -3 -18 43.0304  4.1823   6
   5   3 -18 41.6162  3.7676   2
   4  -3 -18 11.1227  2.1471   6
   4  -3 -18 9.00202 1.90449   2
  -4  -3  18 7.35192 3.95155   1
   4   3 -18 7.83506 1.85529   2
  -4   3  18 10.4847  3.9205   1
   3  -3 -18 12.0641  2.2684   6
   3  -3 -18 11.8230  2.0139   2
  -3  -3  18 7.75245 4.00053   1
   3   3 -18 12.1048  1.8506   2
   2  -3 -18 347.198  24.862   6
   2  -3 -18 335.444  22.903   2
  -2  -3  18 376.968  30.965   1
   2   3 -18 386.513  22.805   2
   1  -3 -18 98.0459  7.3482   2
  -1  -3  18 104.248  11.416   1
   1  -3 -18 106.756   8.068   6
   1   3 -18 118.200   7.247   2
  -1   3  18 105.398   7.413   4
   0  -3 -18 3.26546 1.59026   6
   0  -3 -18 5.77101 1.52783   2
   0  -3  18 2.35990 4.15432   1
   0   3 -18 3.89708 1.27114   2
   0   3  18 3.60183 1.49195   4
  -1  -3 -18 13.0341  2.0225   2
  -1  -3 -18 12.8633  2.2258   6
   1  -3  18 10.0133  4.8593   1
  -1   3 -18 15.2082  1.7601   2
   2  -3  18 201.826  20.473   1
  -2  -3 -18 220.396  15.478   6
  -2   3 -18 225.977  14.005   2
   3  -3  18 111.969  13.484   1
  -3  -3 -18 132.881   8.770   2
  -3  -3 -18 128.321   9.473   6
  -3   3 -18 129.754   8.485   2
  -4  -3 -18 0.53027 1.69960   6
  -4  -3 -18 0.20813 1.57282   2
   4  -3  18 -0.9153  4.3254   1
  -4   3 -18 1.20984 1.20690   2
   5  -3  18 0.86891 4.95244   1
  -5  -3 -18 -0.2389  1.7573   6
  -5  -3 -18 0.92438 1.73251   2
  -5   3 -18 1.73798 1.32897   2
   5  -4 -18 18.2873  2.6037   2
   5   4 -18 17.2157  2.5376   2
   4  -4 -18 1.65981 1.81487   6
  -4  -4  18 3.40995 3.82036   1
   4  -4 -18 3.27348 1.70255   2
   4   4 -18 0.57485 1.51014   2
   3  -4 -18 5.41910 2.04945   6
   3  -4 -18 6.78805 1.87787   2
  -3  -4  18 3.95234 3.81333   1
   3   4 -18 14.6047  1.8891   2
  -2  -4  18 8.29483 4.50871   1
   2  -4 -18 8.82686 2.01802   2
   2  -4 -18 8.85394 2.02410   6
   2   4 -18 11.9532  1.7229   2
  -1  -4  18 26.7345  6.0238   1
   1  -4 -18 31.9438  3.4722   6
   1  -4 -18 31.9134  3.1335   2
   1   4 -18 33.5145  2.8267   2
   0  -4 -18 11.5021  2.0664   2
   0  -4  18 5.90554 4.89725   1
   0  -4 -18 11.0250  2.2409   6
   0   4 -18 14.6830  1.7248   2
  -1  -4 -18 11.3370  1.9536   2
  -1  -4 -18 4.08216 1.77143   6
   1  -4  18 11.6475  5.2896   1
  -1   4 -18 7.66019 1.50795   2
   2  -4  18 1.53644 4.67149   1
  -2  -4 -18 3.57058 1.66358   6
  -2  -4 -18 2.63715 1.63280   2
  -2   4 -18 4.93139 1.30533   2
  -3  -4 -18 26.2616  2.9795   2
   3  -4  18 19.1103  6.4045   1
  -3  -4 -18 26.9024  3.1627   6
  -3   4 -18 34.5348  2.6752   2
  -4  -4 -18 15.9459  2.4750   2
   4  -4  18 22.0464  6.2580   1
  -4  -4 -18 18.1402  2.6485   6
  -4   4 -18 18.9364  2.0741   2
   5  -4  18 61.9667  9.5720   1
   4  -5 -18 3.46978 1.81082   2
  -3  -5  18 0.44795 3.88750   1
   3  -5 -18 1.44807 1.60346   2
   2  -5 -18 355.128  24.337   6
  -2  -5  18 343.300  30.492   1
  -1  -5  18 27.7134  6.6063   1
   1  -5 -18 24.6602  3.1236   6
   1  -5 -18 24.4971  2.7889   2
   0  -5  18 1.98630 5.17933   1
   0  -5 -18 2.39206 1.72077   6
   0  -5 -18 2.96292 1.56914   2
  -1  -5 -18 9.11850 2.11164   6
   1  -5  18 13.1460  5.8558   1
  -1  -5 -18 9.35730 1.90610   2
  -2  -5 -18 233.110  14.828   2
   2  -5  18 211.249  21.590   1
   3  -5  18 85.2645 11.1841   1
  -3  -5 -18 88.7223  6.4992   2
  -5   0  19 -0.8349  3.2594   1
  -4   0  19 -0.4365  3.1975   1
   4   0 -19 1.11187 1.48931   2
  -3   0  19 3.31320 3.28841   1
   3   0 -19 1.84374 1.49862   2
   2   0 -19 2.19562 1.33653   2
  -2   0  19 0.11608 3.12263   1
   1   0 -19 3.20784 1.40180   2
  -1   0  19 0.97463 3.65449   1
   0   0  19 2.92915 3.70728   1
   0   0 -19 3.66247 1.36308   2
  -1   0 -19 1.14977 1.21532   2
   1   0  19 1.39340 3.91451   1
   2   0  19 -3.3999  3.5162   1
  -2   0 -19 1.85875 1.30228   2
  -3   0 -19 0.65567 1.28649   2
   3   0  19 2.65776 4.32653   1
  -4   0 -19 1.68849 1.40074   2
   4   0  19 4.95435 4.73127   1
  -5  -1  19 231.900  20.509   1
   4  -1 -19 214.876  14.640   2
   4   1 -19 216.423  14.612   2
  -4   1  19 254.864  20.107   1
   3  -1 -19 84.1071  5.9714   2
  -3  -1  19 80.7105  9.2209   1
   3   1 -19 81.0831  5.8773   2
  -3   1  19 81.7654  9.2269   1
   2  -1 -19 94.2823  6.6885   2
  -2  -1  19 94.7421 10.2079   1
   2   1 -19 93.5822  6.6144   2
  -2   1  19 102.138  10.220   1
   1  -1 -19 363.677  23.445   2
   1   1 -19 391.469  23.433   2
  -1   1  19 350.221  31.502   1
   0  -1  19 75.3304  9.4241   1
   0  -1 -19 86.6135  5.8410   2
   0   1  19 72.9983  9.2481   1
   0   1 -19 82.7324  5.7587   2
  -1  -1 -19 41.8635  3.4333   2
   1  -1  19 36.9732  6.8752   1
  -1   1 -19 45.3316  3.3914   2
   1   1  19 32.1294  6.4111   1
   2  -1  19 29.3616  6.6989   1
  -2  -1 -19 45.9302  3.6299   2
  -2   1 -19 44.3209  3.3925   2
   2   1  19 36.3071  7.0456   1
  -3  -1 -19 483.965  30.811   2
  -3   1 -19 494.545  30.754   2
  -4  -1 -19 33.5074  3.2751   2
   4  -1  19 47.5682  7.4100   1
  -4   1 -19 35.2495  3.1709   2
   4   1  19 37.6192  6.9519   1
   4  -2 -19 272.823  18.469   2
   4  -2 -19 263.507  20.036   6
  -4  -2  19 312.879  25.092   1
  -4   2  19 318.659  24.946   1
   4   2 -19 285.169  18.433   2
  -3  -2  19 1.63453 3.34769   1
   3  -2 -19 -0.8864  1.4374   2
   3  -2 -19 4.21579 1.83848   6
  -3   2  19 5.50108 3.75822   1
   3   2 -19 1.77522 1.50695   2
   2  -2 -19 2.72601 1.67425   6
  -2  -2  19 0.32116 3.58423   1
   2  -2 -19 3.94883 1.60399   2
  -2   2  19 1.39807 3.55069   1
   2   2 -19 3.74194 1.49310   2
   1  -2 -19 162.063  11.009   2
  -1  -2  19 144.984  15.755   1
   1  -2 -19 173.627  12.049   6
  -1   2  19 152.634  15.456   1
   1   2 -19 186.814  11.000   2
   0  -2 -19 153.163  10.532   6
   0  -2 -19 140.622   9.604   2
   0   2 -19 137.595   9.431   2
  -1  -2 -19 -0.8757  1.5328   6
  -1  -2 -19 2.91310 1.47156   2
   1  -2  19 4.21016 4.26873   1
  -1   2 -19 2.51213 1.33018   2
  -2  -2 -19 10.9921  1.9453   2
   2  -2  19 6.06704 5.11015   1
  -2  -2 -19 15.4929  2.2957   6
  -2   2 -19 12.8607  1.8347   2
   3  -2  19 113.923  14.061   1
  -3  -2 -19 132.581   9.727   6
  -3   2 -19 136.888   8.766   2
   4  -2  19 59.4907  9.0979   1
  -4  -2 -19 54.0044  4.8769   6
  -4   3  19 16.2174  4.5462   1
   3  -3 -19 3.74429 1.87774   6
  -3  -3  19 4.09546 3.56869   1
   3  -3 -19 0.49213 1.61332   2
  -3   3  19 -3.4931  3.4731   1
   3   3 -19 -0.1072  1.4838   2
   2  -3 -19 63.6191  4.8517   2
  -2  -3  19 55.5606  7.8960   1
   2  -3 -19 62.0082  5.1899   6
   2   3 -19 61.1041  4.6110   2
   1  -3 -19 112.635   8.474   6
  -1  -3  19 110.652  12.100   1
   1  -3 -19 107.179   7.757   2
   1   3 -19 117.816   7.639   2
   0  -3 -19 56.2874  4.9945   6
   0  -3 -19 55.1366  4.5547   2
   0  -3  19 55.2437  8.6791   1
   0   3 -19 67.4709  4.4558   2
   1  -3  19 -2.6065  4.3276   1
  -1  -3 -19 1.24901 1.64039   6
  -1  -3 -19 2.16714 1.52990   2
  -1   3 -19 -0.4415  1.3095   2
   2  -3  19 69.5853 10.3307   1
  -2  -3 -19 79.6599  6.1193   2
  -2  -3 -19 86.7948  6.7199   6
  -2   3 -19 91.7808  5.9047   2
   3  -3  19 127.960  15.990   1
  -3  -3 -19 167.315  10.867   2
  -3   3 -19 170.852  10.563   2
   2  -4 -19 3.93002 1.65073   2
   2   4 -19 1.11113 1.47075   2
   1  -4 -19 19.7603  2.5827   2
   1   4 -19 24.4592  2.5084   2
   0  -4  19 298.774  31.284   1
   0  -4 -19 347.846  23.063   2
   0   4 -19 414.448  22.886   2
  -1  -4 -19 8.37286 1.93432   2
  -1   4 -19 8.40693 1.60106   2
  -2  -4 -19 7.09170 1.82050   2
  -2   4 -19 9.00739 1.58691   2
  -1   0  20 58.8991  7.7002   1
   0   0 -20 35.9014  3.0492   2
   0   0  20 28.0947  5.9592   1
   0   1 -20 23.9449  2.5300   2
   0   0   0    0.00    0.00   0
;
_shelx_hkl_checksum              29204
#END Tags that were not found in dictionaries
loop_
_space_group_symop_operation_xyz
'x, y, z'
'-x, y+1/2, -z+1/2'
'-x, -y, -z'
'x, -y-1/2, z-1/2'
loop_
_atom_site_label
_atom_site_type_symbol
_atom_site_fract_x
_atom_site_fract_y
_atom_site_fract_z
_atom_site_U_iso_or_equiv
_atom_site_adp_type
_atom_site_occupancy
_atom_site_site_symmetry_order
_atom_site_calc_flag
U1 U 0.00367(2) 0.02622(2) 0.31924(2) 0.00379(5) Uani 1 1 d
U2 U 0.24648(2) 0.07191(2) 0.00942(2) 0.00399(5) Uani 1 1 d
Ba1 Ba 0.50787(3) 0.05483(3) 0.33121(2) 0.00471(5) Uani 1 1 d
Se1 Se 0.04395(5) 0.66431(5) 0.40186(3) 0.00421(7) Uani 1 1 d
Se2 Se 0.20953(5) 0.45405(5) 0.00131(3) 0.00421(8) Uani 1 1 d
Se3 Se 0.21778(5) 0.83644(5) 0.18844(3) 0.00474(8) Uani 1 1 d
Se4 Se 0.22706(5) 0.31195(5) 0.28274(3) 0.00435(8) Uani 1 1 d
Se5 Se 0.53966(5) 0.18033(5) 0.07250(3) 0.00550(8) Uani 1 1 d
loop_
_atom_site_aniso_label
_atom_site_aniso_U_11
_atom_site_aniso_U_22
_atom_site_aniso_U_33
_atom_site_aniso_U_23
_atom_site_aniso_U_13
_atom_site_aniso_U_12
U1 0.00158(7) 0.00505(7) 0.00473(7) -0.00013(4) -0.00015(5) -0.00013(4)
U2 0.00156(7) 0.00523(8) 0.00518(7) 0.00051(4) 0.00005(5) -0.00009(4)
Ba1 0.00209(11) 0.00559(10) 0.00646(10) 0.00053(7) 0.00018(8) 0.00033(7)
Se1 0.00204(17) 0.00525(15) 0.00535(16) 0.00031(12) 0.00005(13) 0.00003(12)
Se2 0.00262(17) 0.00549(15) 0.00451(16) -0.00004(12) 0.00028(13) 0.00013(13)
Se3 0.00305(17) 0.00553(16) 0.00567(16) 0.00054(13) 0.00083(13) 0.00049(12)
Se4 0.00243(17) 0.00523(15) 0.00540(16) 0.00020(12) -0.00017(13) 0.00017(12)
Se5 0.00234(17) 0.00624(16) 0.00793(17) -0.00160(13) -0.00040(13) 0.00028(13)
loop_
_atom_type_symbol
_atom_type_description
_atom_type_scat_dispersion_real
_atom_type_scat_dispersion_imag
_atom_type_scat_source
Se Se -0.0929 2.2259 'International Tables Vol C Tables 4.2.6.8 and 6.1.1.4'
Ba Ba -0.3244 2.2819 'International Tables Vol C Tables 4.2.6.8 and 6.1.1.4'
U U -9.6767 9.6646 'International Tables Vol C Tables 4.2.6.8 and 6.1.1.4'
loop_
_geom_angle_atom_site_label_1
_geom_angle_atom_site_label_2
_geom_angle_atom_site_label_3
_geom_angle
_geom_angle_site_symmetry_1
_geom_angle_site_symmetry_3
Se2 U1 Se3 92.961(13) 4_566 1_545
Se2 U1 Se4 143.042(13) 4_566 2_545
Se3 U1 Se4 85.258(12) 1_545 2_545
Se2 U1 Se1 141.339(13) 4_566 2_545
Se3 U1 Se1 76.498(12) 1_545 2_545
Se4 U1 Se1 73.997(12) 2_545 2_545
Se2 U1 Se2 80.163(14) 4_566 2_545
Se3 U1 Se2 137.103(13) 1_545 2_545
Se4 U1 Se2 76.478(12) 2_545 2_545
Se1 U1 Se2 132.075(13) 2_545 2_545
Se2 U1 Se4 70.665(12) 4_566 .
Se3 U1 Se4 82.751(12) 1_545 .
Se4 U1 Se4 144.886(8) 2_545 .
Se1 U1 Se4 71.143(12) 2_545 .
Se2 U1 Se4 132.064(12) 2_545 .
Se2 U1 Se1 73.714(12) 4_566 1_545
Se3 U1 Se1 68.243(12) 1_545 1_545
Se4 U1 Se1 71.391(12) 2_545 1_545
Se1 U1 Se1 131.800(12) 2_545 1_545
Se2 U1 Se1 69.197(12) 2_545 1_545
Se4 U1 Se1 132.189(12) . 1_545
Se2 U1 Se3 111.734(12) 4_566 2_545
Se3 U1 Se3 142.484(9) 1_545 2_545
Se4 U1 Se3 90.396(12) 2_545 2_545
Se1 U1 Se3 66.526(11) 2_545 2_545
Se2 U1 Se3 76.894(12) 2_545 2_545
Se4 U1 Se3 79.683(12) . 2_545
Se1 U1 Se3 144.280(12) 1_545 2_545
Se2 U1 Ba1 126.415(10) 4_566 1_455
Se3 U1 Ba1 134.290(10) 1_545 1_455
Se4 U1 Ba1 49.659(9) 2_545 1_455
Se1 U1 Ba1 83.045(9) 2_545 1_455
Se2 U1 Ba1 49.174(9) 2_545 1_455
Se4 U1 Ba1 128.118(10) . 1_455
Se1 U1 Ba1 98.635(10) 1_545 1_455
Se3 U1 Ba1 48.584(9) 2_545 1_455
Se2 U1 Ba1 49.363(9) 4_566 .
Se3 U1 Ba1 52.498(9) 1_545 .
Se4 U1 Ba1 137.323(10) 2_545 .
Se1 U1 Ba1 98.337(10) 2_545 .
Se2 U1 Ba1 128.583(10) 2_545 .
Se4 U1 Ba1 46.894(9) . .
Se1 U1 Ba1 85.590(9) 1_545 .
Se3 U1 Ba1 125.719(9) 2_545 .
Ba1 U1 Ba1 173.005(8) 1_455 .
Se5 U2 Se1 129.215(13) . 2_545
Se5 U2 Se1 151.671(13) . 4_565
Se1 U2 Se1 77.865(13) 2_545 4_565
Se5 U2 Se3 94.049(13) . 1_545
Se1 U2 Se3 77.835(12) 2_545 1_545
Se1 U2 Se3 83.015(12) 4_565 1_545
Se5 U2 Se5 73.109(14) . 3_655
Se1 U2 Se5 151.482(13) 2_545 3_655
Se1 U2 Se5 78.564(12) 4_565 3_655
Se3 U2 Se5 83.584(12) 1_545 3_655
Se5 U2 Se4 102.243(13) . 4_565
Se1 U2 Se4 103.695(12) 2_545 4_565
Se1 U2 Se4 74.646(12) 4_565 4_565
Se3 U2 Se4 156.588(13) 1_545 4_565
Se5 U2 Se4 85.190(13) 3_655 4_565
Se5 U2 Se2 78.829(12) . .
Se1 U2 Se2 70.510(12) 2_545 .
Se1 U2 Se2 123.970(13) 4_565 .
Se3 U2 Se2 130.692(12) 1_545 .
Se5 U2 Se2 137.158(13) 3_655 .
Se4 U2 Se2 69.771(12) 4_565 .
Se5 U2 Ba1 56.346(10) . 4_565
Se1 U2 Ba1 119.797(10) 2_545 4_565
Se1 U2 Ba1 122.171(10) 4_565 4_565
Se3 U2 Ba1 150.388(10) 1_545 4_565
Se5 U2 Ba1 86.523(10) 3_655 4_565
Se4 U2 Ba1 48.417(9) 4_565 4_565
Se2 U2 Ba1 50.792(9) . 4_565
Se5 Ba1 Se4 122.639(13) 2_645 .
Se5 Ba1 Se3 138.189(13) 2_645 2_645
Se4 Ba1 Se3 97.180(12) . 2_645
Se5 Ba1 Se2 69.502(12) 2_645 2_645
Se4 Ba1 Se2 146.111(13) . 2_645
Se3 Ba1 Se2 70.069(11) 2_645 2_645
Se5 Ba1 Se4 73.891(12) 2_645 2_645
Se4 Ba1 Se4 144.566(9) . 2_645
Se3 Ba1 Se4 80.688(11) 2_645 2_645
Se2 Ba1 Se4 66.401(11) 2_645 2_645
Se5 Ba1 Se5 129.434(13) 2_645 .
Se4 Ba1 Se5 73.231(12) . .
Se3 Ba1 Se5 70.320(11) 2_645 .
Se2 Ba1 Se5 126.394(13) 2_645 .
Se4 Ba1 Se5 72.816(11) 2_645 .
Se5 Ba1 Se2 69.316(11) 2_645 4_566
Se4 Ba1 Se2 62.017(11) . 4_566
Se3 Ba1 Se2 129.497(13) 2_645 4_566
Se2 Ba1 Se2 101.185(11) 2_645 4_566
Se4 Ba1 Se2 143.175(13) 2_645 4_566
Se5 Ba1 Se2 131.932(13) . 4_566
Se5 Ba1 Se3 68.902(11) 2_645 1_545
Se4 Ba1 Se3 70.491(11) . 1_545
Se3 Ba1 Se3 145.034(9) 2_645 1_545
Se2 Ba1 Se3 136.741(12) 2_645 1_545
Se4 Ba1 Se3 91.013(11) 2_645 1_545
Se5 Ba1 Se3 74.767(11) . 1_545
Se2 Ba1 Se3 74.619(11) 4_566 1_545
Se5 Ba1 Se5 103.585(11) 2_645 4_566
Se4 Ba1 Se5 81.099(11) . 4_566
Se3 Ba1 Se5 67.823(11) 2_645 4_566
Se2 Ba1 Se5 65.024(11) 2_645 4_566
Se4 Ba1 Se5 128.520(12) 2_645 4_566
Se5 Ba1 Se5 126.917(8) . 4_566
Se2 Ba1 Se5 63.903(11) 4_566 4_566
Se3 Ba1 Se5 137.281(12) 1_545 4_566
Se5 Ba1 Ba1 56.359(9) 2_645 3_656
Se4 Ba1 Ba1 105.948(11) . 3_656
Se3 Ba1 Ba1 103.861(11) 2_645 3_656
Se2 Ba1 Ba1 51.238(9) 2_645 3_656
Se4 Ba1 Ba1 108.897(11) 2_645 3_656
Se5 Ba1 Ba1 173.785(13) . 3_656
Se2 Ba1 Ba1 49.948(9) 4_566 3_656
Se3 Ba1 Ba1 110.942(11) 1_545 3_656
Se5 Ba1 Ba1 47.226(8) 4_566 3_656
Se5 Ba1 U2 111.361(10) 2_645 4_566
Se4 Ba1 U2 42.610(8) . 4_566
Se3 Ba1 U2 88.519(9) 2_645 4_566
Se2 Ba1 U2 104.288(9) 2_645 4_566
Se4 Ba1 U2 167.632(10) 2_645 4_566
Se5 Ba1 U2 109.268(10) . 4_566
Se2 Ba1 U2 44.036(8) 4_566 4_566
Se3 Ba1 U2 101.314(9) 1_545 4_566
Se5 Ba1 U2 40.227(8) 4_566 4_566
Ba1 Ba1 U2 67.738(7) 3_656 4_566
Se5 Ba1 U1 95.671(10) 2_645 1_655
Se4 Ba1 U1 141.669(10) . 1_655
Se3 Ba1 U1 45.452(8) 2_645 1_655
Se2 Ba1 U1 42.653(8) 2_645 1_655
Se4 Ba1 U1 41.769(8) 2_645 1_655
Se5 Ba1 U1 83.741(9) . 1_655
Se2 Ba1 U1 143.376(10) 4_566 1_655
Se3 Ba1 U1 132.477(10) 1_545 1_655
Se5 Ba1 U1 89.293(9) 4_566 1_655
Ba1 Ba1 U1 93.673(8) 3_656 1_655
U2 Ba1 U1 125.868(7) 4_566 1_655
U2 Se1 U2 102.134(13) 2 4_566
U2 Se1 U1 97.864(13) 2 2
U2 Se1 U1 105.461(13) 4_566 2
U2 Se1 U1 105.154(14) 2 1_565
U2 Se1 U1 145.568(16) 4_566 1_565
U1 Se1 U1 91.249(11) 2 1_565
U1 Se2 U1 99.838(14) 4_565 2
U1 Se2 U2 98.414(13) 4_565 .
U1 Se2 U2 103.554(13) 2 .
U1 Se2 Ba1 159.565(16) 4_565 2_655
U1 Se2 Ba1 88.173(12) 2 2_655
U2 Se2 Ba1 97.907(13) . 2_655
U1 Se2 Ba1 90.393(12) 4_565 4_565
U1 Se2 Ba1 165.299(16) 2 4_565
U2 Se2 Ba1 85.171(11) . 4_565
Ba1 Se2 Ba1 78.815(12) 2_655 4_565
U2 Se3 U1 98.862(13) 1_565 1_565
U2 Se3 U1 122.457(15) 1_565 2
U1 Se3 U1 90.610(12) 1_565 2
U2 Se3 Ba1 107.856(14) 1_565 2_655
U1 Se3 Ba1 150.288(15) 1_565 2_655
U1 Se3 Ba1 85.965(11) 2 2_655
U2 Se3 Ba1 89.936(12) 1_565 1_565
U1 Se3 Ba1 86.810(11) 1_565 1_565
U1 Se3 Ba1 147.468(14) 2 1_565
Ba1 Se3 Ba1 80.580(10) 2_655 1_565
U1 Se4 U2 105.230(13) 2 4_566
U1 Se4 U1 92.436(12) 2 .
U2 Se4 U1 97.050(13) 4_566 .
U1 Se4 Ba1 165.088(16) 2 .
U2 Se4 Ba1 88.972(12) 4_566 .
U1 Se4 Ba1 90.253(12) . .
U1 Se4 Ba1 88.572(12) 2 2_655
U2 Se4 Ba1 100.703(13) 4_566 2_655
U1 Se4 Ba1 161.294(15) . 2_655
Ba1 Se4 Ba1 84.251(10) . 2_655
U2 Se5 U2 106.891(14) . 3_655
U2 Se5 Ba1 104.927(14) . 2_655
U2 Se5 Ba1 147.032(16) 3_655 2_655
U2 Se5 Ba1 95.047(13) . .
U2 Se5 Ba1 100.789(13) 3_655 .
Ba1 Se5 Ba1 84.703(11) 2_655 .
U2 Se5 Ba1 83.427(11) . 4_565
U2 Se5 Ba1 98.803(13) 3_655 4_565
Ba1 Se5 Ba1 76.415(11) 2_655 4_565
Ba1 Se5 Ba1 159.911(14) . 4_565
loop_
_geom_bond_atom_site_label_1
_geom_bond_atom_site_label_2
_geom_bond_distance
_geom_bond_site_symmetry_2
U1 Se2 2.8581(4) 4_566
U1 Se3 2.8888(4) 1_545
U1 Se4 2.9006(4) 2_545
U1 Se1 2.9405(4) 2_545
U1 Se2 2.9509(4) 2_545
U1 Se4 3.0089(4) .
U1 Se1 3.0289(4) 1_545
U1 Se3 3.1099(4) 2_545
U1 Ba1 4.3530(3) 1_455
U1 Ba1 4.4239(3) .
U2 Se5 2.8066(5) .
U2 Se1 2.8683(4) 2_545
U2 Se1 2.8742(4) 4_565
U2 Se3 2.8767(4) 1_545
U2 Se5 2.9073(4) 3_655
U2 Se4 2.9233(4) 4_565
U2 Se2 3.0117(4) .
U2 Ba1 4.3173(3) 4_565
Ba1 Se5 3.1896(5) 2_645
Ba1 Se4 3.2299(5) .
Ba1 Se3 3.2725(5) 2_645
Ba1 Se2 3.2956(5) 2_645
Ba1 Se4 3.3189(5) 2_645
Ba1 Se5 3.3298(5) .
Ba1 Se2 3.3572(5) 4_566
Ba1 Se3 3.5151(5) 1_545
Ba1 Se5 3.6175(5) 4_566
Ba1 Ba1 4.2237(5) 3_656
Ba1 U2 4.3173(3) 4_566
Ba1 U1 4.3530(3) 1_655
Se1 U2 2.8684(4) 2
Se1 U2 2.8742(4) 4_566
Se1 U1 2.9404(4) 2
Se1 U1 3.0288(4) 1_565
Se2 U1 2.8582(4) 4_565
Se2 U1 2.9509(4) 2
Se2 Ba1 3.2956(5) 2_655
Se2 Ba1 3.3572(5) 4_565
Se3 U2 2.8767(4) 1_565
Se3 U1 2.8889(4) 1_565
Se3 U1 3.1099(4) 2
Se3 Ba1 3.2725(5) 2_655
Se3 Ba1 3.5151(5) 1_565
Se4 U1 2.9005(4) 2
Se4 U2 2.9233(4) 4_566
Se4 Ba1 3.3190(5) 2_655
Se5 U2 2.9074(4) 3_655
Se5 Ba1 3.1896(5) 2_655
Se5 Ba1 3.6175(5) 4_565
